
 OpenBabel03242512133D

 43 46  0  0  1  0  0  0  0  0999 V2000
   38.9620   27.2540   43.8680 O   0  0  0  0  0  0  0  0  0  0  0  0
   37.8510   28.1240   43.3000 P   0  0  2  0  0  0  0  0  0  0  0  0
   36.9350   28.8230   44.4820 O   0  0  0  0  0  0  0  0  0  0  0  0
   36.0020   28.5000   44.5110 H   0  0  0  0  0  0  0  0  0  0  0  0
   36.9990   27.1730   42.1890 O   0  0  0  0  0  0  0  0  0  0  0  0
   37.5020   25.2260   40.7630 C   0  0  1  0  0  0  0  0  0  0  0  0
   36.9290   24.8010   42.1730 C   0  0  0  0  0  0  0  0  0  0  0  0
   37.7140   26.0020   42.0090 C   0  0  2  0  0  0  0  0  0  0  0  0
   36.7420   25.5710   40.0680 H   0  0  0  0  0  0  0  0  0  0  0  0
   35.8280   24.8290   42.2490 H   0  0  0  0  0  0  0  0  0  0  0  0
   37.3880   23.9080   42.6370 H   0  0  0  0  0  0  0  0  0  0  0  0
   38.7980   26.1020   42.2120 H   0  0  0  0  0  0  0  0  0  0  0  0
   38.5550   24.2810   40.2910 C   0  0  0  0  0  0  0  0  0  0  0  0
   39.7210   24.5830   40.4930 O   0  0  0  0  0  0  0  0  0  0  0  0
   38.1920   21.8530   40.2190 C   0  0  0  0  0  0  0  0  0  0  0  0
   38.3030   23.0510   39.6230 C   0  0  0  0  0  0  0  0  0  0  0  0
   38.1510   23.0580   38.1960 C   0  0  0  0  0  0  0  0  0  0  0  0
   37.9120   21.9160   37.5130 N   0  0  0  0  0  0  0  0  0  0  0  0
   37.8120   20.7360   38.1850 C   0  0  0  0  0  0  0  0  0  0  0  0
   37.9490   20.7150   39.4910 N   0  0  0  0  0  0  0  0  0  0  0  0
   38.3110   21.8690   41.3110 H   0  0  0  0  0  0  0  0  0  0  0  0
   38.2040   23.9360   37.5790 H   0  0  0  0  0  0  0  0  0  0  0  0
   37.6230   19.8000   37.6970 H   0  0  0  0  0  0  0  0  0  0  0  0
   38.7060   29.3250   42.3760 O   0  0  0  0  0  0  0  0  0  0  0  0
   38.0920   30.2410   41.5640 C   0  0  0  0  0  0  0  0  0  0  0  0
   36.8210   30.1870   40.9910 C   0  0  0  0  0  0  0  0  0  0  0  0
   36.3780   31.2180   40.1940 C   0  0  0  0  0  0  0  0  0  0  0  0
   37.1870   32.2790   39.9730 N   0  0  0  0  0  0  0  0  0  0  0  0
   38.4220   32.3390   40.5230 C   0  0  0  0  0  0  0  0  0  0  0  0
   38.8900   31.3300   41.3210 N   0  0  0  0  0  0  0  0  0  0  0  0
   36.2970   29.2670   41.2660 H   0  0  0  0  0  0  0  0  0  0  0  0
   35.3990   31.0880   39.8040 H   0  0  0  0  0  0  0  0  0  0  0  0
   40.5880   31.9490   38.5160 Cl  0  0  0  0  0  0  0  0  0  0  0  0
   40.2680   33.4510   39.3530 C   0  0  0  0  0  0  0  0  0  0  0  0
   39.2500   33.5110   40.2490 C   0  0  0  0  0  0  0  0  0  0  0  0
   39.0740   34.7340   40.8590 C   0  0  0  0  0  0  0  0  0  0  0  0
   38.2850   34.8600   41.5830 H   0  0  0  0  0  0  0  0  0  0  0  0
   39.8440   35.8450   40.6130 C   0  0  0  0  0  0  0  0  0  0  0  0
   39.6920   36.7980   41.0990 H   0  0  0  0  0  0  0  0  0  0  0  0
   40.8810   35.7430   39.6820 C   0  0  0  0  0  0  0  0  0  0  0  0
   41.5480   36.5560   39.4150 H   0  0  0  0  0  0  0  0  0  0  0  0
   41.0760   34.5310   39.0620 C   0  0  0  0  0  0  0  0  0  0  0  0
   42.3790   34.3580   37.8780 Cl  0  0  0  0  0  0  0  0  0  0  0  0
  2  1  2  1  0  0  0
  2  3  1  0  0  0  0
  3  4  1  0  0  0  0
  5  2  1  0  0  0  0
  6  9  1  6  0  0  0
  6  8  1  0  0  0  0
  6  7  1  0  0  0  0
  7 10  1  0  0  0  0
  7 11  1  0  0  0  0
  8  7  1  0  0  0  0
  8  5  1  0  0  0  0
  8 12  1  1  0  0  0
 13 14  2  0  0  0  0
 13  6  1  0  0  0  0
 15 21  1  0  0  0  0
 16 15  1  0  0  0  0
 16 13  1  0  0  0  0
 17 16  2  0  0  0  0
 18 19  2  0  0  0  0
 18 17  1  0  0  0  0
 19 20  1  0  0  0  0
 20 15  2  0  0  0  0
 22 17  1  0  0  0  0
 23 19  1  0  0  0  0
 24  2  1  0  0  0  0
 25 24  1  0  0  0  0
 26 31  1  0  0  0  0
 26 25  2  0  0  0  0
 27 26  1  0  0  0  0
 28 27  2  0  0  0  0
 28 29  1  0  0  0  0
 29 30  2  0  0  0  0
 30 25  1  0  0  0  0
 32 27  1  0  0  0  0
 33 34  1  0  0  0  0
 34 35  1  0  0  0  0
 35 29  1  0  0  0  0
 35 36  2  0  0  0  0
 36 37  1  0  0  0  0
 38 36  1  0  0  0  0
 38 39  1  0  0  0  0
 40 38  2  0  0  0  0
 41 40  1  0  0  0  0
 42 34  2  0  0  0  0
 42 40  1  0  0  0  0
 43 42  1  0  0  0  0
M  END
>  <minimizedAffinity>
-6.47853756

$$$$

 OpenBabel03242512133D

 43 46  0  0  1  0  0  0  0  0999 V2000
   39.0260   32.5840   38.7740 O   0  0  0  0  0  0  0  0  0  0  0  0
   38.5940   32.9530   40.1850 P   0  0  2  0  0  0  0  0  0  0  0  0
   36.9520   33.0210   40.3410 O   0  0  0  0  0  0  0  0  0  0  0  0
   36.6020   33.9260   40.5210 H   0  0  0  0  0  0  0  0  0  0  0  0
   39.4210   34.3700   40.6010 O   0  0  0  0  0  0  0  0  0  0  0  0
   41.7560   35.0300   41.0350 C   0  0  1  0  0  0  0  0  0  0  0  0
   41.3830   35.1300   39.5030 C   0  0  0  0  0  0  0  0  0  0  0  0
   40.7670   34.1510   40.3670 C   0  0  2  0  0  0  0  0  0  0  0  0
   41.3830   35.8600   41.6300 H   0  0  0  0  0  0  0  0  0  0  0  0
   40.8660   36.0620   39.2150 H   0  0  0  0  0  0  0  0  0  0  0  0
   42.1660   34.8130   38.7890 H   0  0  0  0  0  0  0  0  0  0  0  0
   41.0730   33.0910   40.4700 H   0  0  0  0  0  0  0  0  0  0  0  0
   43.1570   34.5570   41.2300 C   0  0  0  0  0  0  0  0  0  0  0  0
   43.7200   34.0450   40.2760 O   0  0  0  0  0  0  0  0  0  0  0  0
   44.0780   35.7900   43.1440 C   0  0  0  0  0  0  0  0  0  0  0  0
   43.8880   34.6600   42.4460 C   0  0  0  0  0  0  0  0  0  0  0  0
   44.4840   33.4750   42.9950 C   0  0  0  0  0  0  0  0  0  0  0  0
   45.1910   33.5190   44.1470 N   0  0  0  0  0  0  0  0  0  0  0  0
   45.3420   34.7030   44.8020 C   0  0  0  0  0  0  0  0  0  0  0  0
   44.8020   35.7950   44.3100 N   0  0  0  0  0  0  0  0  0  0  0  0
   43.6140   36.6850   42.7080 H   0  0  0  0  0  0  0  0  0  0  0  0
   44.4130   32.4960   42.5590 H   0  0  0  0  0  0  0  0  0  0  0  0
   45.8910   34.7970   45.7180 H   0  0  0  0  0  0  0  0  0  0  0  0
   39.2650   31.6800   41.1630 O   0  0  0  0  0  0  0  0  0  0  0  0
   38.5710   30.5610   41.5400 C   0  0  0  0  0  0  0  0  0  0  0  0
   38.5890   29.8940   42.7660 C   0  0  0  0  0  0  0  0  0  0  0  0
   37.8120   28.7740   42.9530 C   0  0  0  0  0  0  0  0  0  0  0  0
   37.0340   28.3290   41.9410 N   0  0  0  0  0  0  0  0  0  0  0  0
   37.0110   28.9690   40.7480 C   0  0  0  0  0  0  0  0  0  0  0  0
   37.7720   30.0870   40.5310 N   0  0  0  0  0  0  0  0  0  0  0  0
   39.2660   30.3780   43.4750 H   0  0  0  0  0  0  0  0  0  0  0  0
   37.8920   28.3350   43.9180 H   0  0  0  0  0  0  0  0  0  0  0  0
   37.8080   26.3250   39.6320 Cl  0  0  0  0  0  0  0  0  0  0  0  0
   36.4170   27.2460   39.1080 C   0  0  0  0  0  0  0  0  0  0  0  0
   36.1510   28.4430   39.6910 C   0  0  0  0  0  0  0  0  0  0  0  0
   35.0360   29.0960   39.2130 C   0  0  0  0  0  0  0  0  0  0  0  0
   34.7600   30.0520   39.6280 H   0  0  0  0  0  0  0  0  0  0  0  0
   34.2170   28.6150   38.2200 C   0  0  0  0  0  0  0  0  0  0  0  0
   33.3460   29.1400   37.8570 H   0  0  0  0  0  0  0  0  0  0  0  0
   34.5240   27.3790   37.6460 C   0  0  0  0  0  0  0  0  0  0  0  0
   33.9470   26.9090   36.8560 H   0  0  0  0  0  0  0  0  0  0  0  0
   35.6340   26.7090   38.1070 C   0  0  0  0  0  0  0  0  0  0  0  0
   36.0580   25.1420   37.4050 Cl  0  0  0  0  0  0  0  0  0  0  0  0
  2  1  2  6  0  0  0
  2  3  1  0  0  0  0
  2  5  1  0  0  0  0
  2 24  1  0  0  0  0
  3  4  1  0  0  0  0
  6 13  1  0  0  0  0
  6  9  1  1  0  0  0
  7  8  1  0  0  0  0
  7  6  1  0  0  0  0
  8 12  1  6  0  0  0
  8  5  1  0  0  0  0
  8  6  1  0  0  0  0
 10  7  1  0  0  0  0
 11  7  1  0  0  0  0
 13 16  1  0  0  0  0
 14 13  2  0  0  0  0
 15 20  1  0  0  0  0
 16 17  1  0  0  0  0
 16 15  2  0  0  0  0
 17 18  2  0  0  0  0
 18 19  1  0  0  0  0
 19 23  1  0  0  0  0
 20 19  2  0  0  0  0
 21 15  1  0  0  0  0
 22 17  1  0  0  0  0
 24 25  1  0  0  0  0
 25 26  1  0  0  0  0
 26 27  2  0  0  0  0
 26 31  1  0  0  0  0
 27 32  1  0  0  0  0
 28 27  1  0  0  0  0
 29 28  2  0  0  0  0
 30 29  1  0  0  0  0
 30 25  2  0  0  0  0
 34 33  1  0  0  0  0
 34 35  1  0  0  0  0
 35 29  1  0  0  0  0
 36 37  1  0  0  0  0
 36 35  2  0  0  0  0
 38 36  1  0  0  0  0
 39 38  1  0  0  0  0
 40 42  1  0  0  0  0
 40 38  2  0  0  0  0
 41 40  1  0  0  0  0
 42 34  2  0  0  0  0
 43 42  1  0  0  0  0
M  END
>  <minimizedAffinity>
-6.40071249

$$$$

 OpenBabel03242512133D

 43 46  0  0  1  0  0  0  0  0999 V2000
   39.7890   29.5340   41.0290 O   0  0  0  0  0  0  0  0  0  0  0  0
   39.0660   30.6020   41.8350 P   0  0  2  0  0  0  0  0  0  0  0  0
   40.0660   31.3620   42.9070 O   0  0  0  0  0  0  0  0  0  0  0  0
   39.8440   31.1910   43.8540 H   0  0  0  0  0  0  0  0  0  0  0  0
   37.6990   29.8690   42.5130 O   0  0  0  0  0  0  0  0  0  0  0  0
   37.2060   27.4550   42.4430 C   0  0  1  0  0  0  0  0  0  0  0  0
   37.2210   28.0190   43.9190 C   0  0  0  0  0  0  0  0  0  0  0  0
   38.0560   28.5860   42.8870 C   0  0  2  0  0  0  0  0  0  0  0  0
   36.2950   27.6840   41.8970 H   0  0  0  0  0  0  0  0  0  0  0  0
   36.2790   28.4990   44.2370 H   0  0  0  0  0  0  0  0  0  0  0  0
   37.6720   27.3630   44.6870 H   0  0  0  0  0  0  0  0  0  0  0  0
   39.1240   28.3490   42.7110 H   0  0  0  0  0  0  0  0  0  0  0  0
   37.7790   26.0800   42.3740 C   0  0  0  0  0  0  0  0  0  0  0  0
   36.9990   25.1410   42.3440 O   0  0  0  0  0  0  0  0  0  0  0  0
   39.9220   25.4630   43.4040 C   0  0  0  0  0  0  0  0  0  0  0  0
   39.1690   25.7790   42.3390 C   0  0  0  0  0  0  0  0  0  0  0  0
   39.8490   25.8080   41.0750 C   0  0  0  0  0  0  0  0  0  0  0  0
   41.1700   25.5310   40.9860 N   0  0  0  0  0  0  0  0  0  0  0  0
   41.8710   25.2180   42.1110 C   0  0  0  0  0  0  0  0  0  0  0  0
   41.2610   25.1880   43.2740 N   0  0  0  0  0  0  0  0  0  0  0  0
   39.3830   25.4460   44.3600 H   0  0  0  0  0  0  0  0  0  0  0  0
   39.3840   26.0330   40.1340 H   0  0  0  0  0  0  0  0  0  0  0  0
   42.9190   24.9900   42.1010 H   0  0  0  0  0  0  0  0  0  0  0  0
   38.4900   31.7080   40.6220 O   0  0  0  0  0  0  0  0  0  0  0  0
   39.0010   32.9640   40.4300 C   0  0  0  0  0  0  0  0  0  0  0  0
   38.3180   34.1730   40.2920 C   0  0  0  0  0  0  0  0  0  0  0  0
   39.0170   35.3430   40.1040 C   0  0  0  0  0  0  0  0  0  0  0  0
   40.3680   35.3070   40.0540 N   0  0  0  0  0  0  0  0  0  0  0  0
   41.0390   34.1390   40.1860 C   0  0  0  0  0  0  0  0  0  0  0  0
   40.3710   32.9590   40.3750 N   0  0  0  0  0  0  0  0  0  0  0  0
   37.2360   34.0300   40.3550 H   0  0  0  0  0  0  0  0  0  0  0  0
   38.4120   36.2110   40.0100 H   0  0  0  0  0  0  0  0  0  0  0  0
   42.2290   33.5140   37.5280 Cl  0  0  0  0  0  0  0  0  0  0  0  0
   43.1510   33.8940   38.9660 C   0  0  0  0  0  0  0  0  0  0  0  0
   42.4980   34.1630   40.1240 C   0  0  0  0  0  0  0  0  0  0  0  0
   43.3060   34.4500   41.2030 C   0  0  0  0  0  0  0  0  0  0  0  0
   42.8600   34.6750   42.1580 H   0  0  0  0  0  0  0  0  0  0  0  0
   44.6800   34.4760   41.1620 C   0  0  0  0  0  0  0  0  0  0  0  0
   45.2990   34.7030   42.0170 H   0  0  0  0  0  0  0  0  0  0  0  0
   45.3140   34.1940   39.9500 C   0  0  0  0  0  0  0  0  0  0  0  0
   46.3900   34.1860   39.8070 H   0  0  0  0  0  0  0  0  0  0  0  0
   44.5270   33.9030   38.8600 C   0  0  0  0  0  0  0  0  0  0  0  0
   45.2910   33.5400   37.3060 Cl  0  0  0  0  0  0  0  0  0  0  0  0
  2  1  2  6  0  0  0
  2  5  1  0  0  0  0
  2  3  1  0  0  0  0
  3  4  1  0  0  0  0
  5  8  1  0  0  0  0
  6  9  1  6  0  0  0
  6  8  1  0  0  0  0
  6  7  1  0  0  0  0
  7 10  1  0  0  0  0
  7 11  1  0  0  0  0
  8 12  1  1  0  0  0
  8  7  1  0  0  0  0
 13  6  1  0  0  0  0
 14 13  2  0  0  0  0
 15 21  1  0  0  0  0
 16 13  1  0  0  0  0
 16 15  2  0  0  0  0
 17 16  1  0  0  0  0
 18 17  2  0  0  0  0
 18 19  1  0  0  0  0
 19 20  2  0  0  0  0
 20 15  1  0  0  0  0
 22 17  1  0  0  0  0
 23 19  1  0  0  0  0
 24  2  1  0  0  0  0
 25 24  1  0  0  0  0
 26 31  1  0  0  0  0
 26 25  2  0  0  0  0
 27 26  1  0  0  0  0
 28 27  2  0  0  0  0
 28 29  1  0  0  0  0
 29 30  2  0  0  0  0
 30 25  1  0  0  0  0
 32 27  1  0  0  0  0
 33 34  1  0  0  0  0
 34 35  1  0  0  0  0
 35 29  1  0  0  0  0
 35 36  2  0  0  0  0
 36 37  1  0  0  0  0
 38 36  1  0  0  0  0
 38 39  1  0  0  0  0
 40 38  2  0  0  0  0
 41 40  1  0  0  0  0
 42 34  2  0  0  0  0
 42 40  1  0  0  0  0
 43 42  1  0  0  0  0
M  END
>  <minimizedAffinity>
-6.39384842

$$$$

 OpenBabel03242512133D

 43 46  0  0  1  0  0  0  0  0999 V2000
   35.6880   28.3600   41.3600 O   0  0  0  0  0  0  0  0  0  0  0  0
   36.4230   29.5790   40.8250 P   0  0  2  0  0  0  0  0  0  0  0  0
   35.7910   30.9940   41.3950 O   0  0  0  0  0  0  0  0  0  0  0  0
   35.3650   31.5520   40.7020 H   0  0  0  0  0  0  0  0  0  0  0  0
   36.4620   29.4300   39.1390 O   0  0  0  0  0  0  0  0  0  0  0  0
   37.9120   31.4210   39.0440 C   0  0  1  0  0  0  0  0  0  0  0  0
   37.4690   30.9360   37.6060 C   0  0  0  0  0  0  0  0  0  0  0  0
   37.6410   30.0060   38.6970 C   0  0  2  0  0  0  0  0  0  0  0  0
   37.1410   31.9750   39.5740 H   0  0  0  0  0  0  0  0  0  0  0  0
   36.4720   31.2870   37.2900 H   0  0  0  0  0  0  0  0  0  0  0  0
   38.2390   30.9960   36.8140 H   0  0  0  0  0  0  0  0  0  0  0  0
   38.5410   29.3900   38.8910 H   0  0  0  0  0  0  0  0  0  0  0  0
   39.3140   31.9280   39.0450 C   0  0  0  0  0  0  0  0  0  0  0  0
   40.1990   31.1520   38.7200 O   0  0  0  0  0  0  0  0  0  0  0  0
   40.8570   33.8400   39.0500 C   0  0  0  0  0  0  0  0  0  0  0  0
   39.7000   33.2520   39.3950 C   0  0  0  0  0  0  0  0  0  0  0  0
   38.8010   34.0490   40.1800 C   0  0  0  0  0  0  0  0  0  0  0  0
   39.1200   35.3120   40.5400 N   0  0  0  0  0  0  0  0  0  0  0  0
   40.3120   35.8440   40.1540 C   0  0  0  0  0  0  0  0  0  0  0  0
   41.1450   35.1260   39.4350 N   0  0  0  0  0  0  0  0  0  0  0  0
   41.5310   33.2150   38.4500 H   0  0  0  0  0  0  0  0  0  0  0  0
   37.8360   33.7240   40.5240 H   0  0  0  0  0  0  0  0  0  0  0  0
   40.6180   36.8390   40.4100 H   0  0  0  0  0  0  0  0  0  0  0  0
   38.0550   29.3510   41.3840 O   0  0  0  0  0  0  0  0  0  0  0  0
   38.4980   28.2090   41.9960 C   0  0  0  0  0  0  0  0  0  0  0  0
   39.0510   28.0590   43.2680 C   0  0  0  0  0  0  0  0  0  0  0  0
   39.4410   26.8160   43.7090 C   0  0  0  0  0  0  0  0  0  0  0  0
   39.2820   25.7450   42.8990 N   0  0  0  0  0  0  0  0  0  0  0  0
   38.7480   25.8810   41.6630 C   0  0  0  0  0  0  0  0  0  0  0  0
   38.3500   27.1050   41.1960 N   0  0  0  0  0  0  0  0  0  0  0  0
   39.1110   29.0160   43.7940 H   0  0  0  0  0  0  0  0  0  0  0  0
   39.8500   26.8010   44.6900 H   0  0  0  0  0  0  0  0  0  0  0  0
   40.9790   25.3470   39.7630 Cl  0  0  0  0  0  0  0  0  0  0  0  0
   39.5550   24.3450   39.9290 C   0  0  0  0  0  0  0  0  0  0  0  0
   38.6010   24.6880   40.8320 C   0  0  0  0  0  0  0  0  0  0  0  0
   37.5160   23.8410   40.8930 C   0  0  0  0  0  0  0  0  0  0  0  0
   36.7170   24.0470   41.5860 H   0  0  0  0  0  0  0  0  0  0  0  0
   37.3620   22.7160   40.1190 C   0  0  0  0  0  0  0  0  0  0  0  0
   36.5050   22.0610   40.1790 H   0  0  0  0  0  0  0  0  0  0  0  0
   38.3670   22.3970   39.2020 C   0  0  0  0  0  0  0  0  0  0  0  0
   38.3460   21.5350   38.5430 H   0  0  0  0  0  0  0  0  0  0  0  0
   39.4590   23.2300   39.1240 C   0  0  0  0  0  0  0  0  0  0  0  0
   40.7530   22.8620   37.9750 Cl  0  0  0  0  0  0  0  0  0  0  0  0
  2  1  2  1  0  0  0
  2 24  1  0  0  0  0
  2  3  1  0  0  0  0
  4  3  1  0  0  0  0
  5  2  1  0  0  0  0
  6 13  1  0  0  0  0
  6  9  1  1  0  0  0
  7  8  1  0  0  0  0
  7  6  1  0  0  0  0
  8 12  1  6  0  0  0
  8  6  1  0  0  0  0
  8  5  1  0  0  0  0
 10  7  1  0  0  0  0
 11  7  1  0  0  0  0
 13 16  1  0  0  0  0
 14 13  2  0  0  0  0
 15 16  2  0  0  0  0
 15 20  1  0  0  0  0
 16 17  1  0  0  0  0
 17 22  1  0  0  0  0
 17 18  2  0  0  0  0
 19 23  1  0  0  0  0
 19 18  1  0  0  0  0
 20 19  2  0  0  0  0
 21 15  1  0  0  0  0
 24 25  1  0  0  0  0
 25 26  1  0  0  0  0
 26 27  2  0  0  0  0
 26 31  1  0  0  0  0
 27 32  1  0  0  0  0
 28 27  1  0  0  0  0
 29 28  2  0  0  0  0
 30 29  1  0  0  0  0
 30 25  2  0  0  0  0
 33 34  1  0  0  0  0
 34 35  1  0  0  0  0
 35 36  2  0  0  0  0
 35 29  1  0  0  0  0
 36 37  1  0  0  0  0
 38 39  1  0  0  0  0
 38 36  1  0  0  0  0
 40 38  2  0  0  0  0
 41 40  1  0  0  0  0
 42 40  1  0  0  0  0
 42 34  2  0  0  0  0
 43 42  1  0  0  0  0
M  END
>  <minimizedAffinity>
-6.2854619

$$$$

 OpenBabel03242512133D

 43 46  0  0  1  0  0  0  0  0999 V2000
   41.0320   30.9760   38.4320 O   0  0  0  0  0  0  0  0  0  0  0  0
   39.8510   31.8600   38.0590 P   0  0  2  0  0  0  0  0  0  0  0  0
   39.9640   32.4400   36.5170 O   0  0  0  0  0  0  0  0  0  0  0  0
   40.0870   33.4180   36.4650 H   0  0  0  0  0  0  0  0  0  0  0  0
   39.7140   33.0360   39.2690 O   0  0  0  0  0  0  0  0  0  0  0  0
   41.5440   33.9260   40.6580 C   0  0  1  0  0  0  0  0  0  0  0  0
   40.8130   35.0610   39.8360 C   0  0  0  0  0  0  0  0  0  0  0  0
   40.9200   33.7120   39.3310 C   0  0  2  0  0  0  0  0  0  0  0  0
   40.9970   33.6040   41.5400 H   0  0  0  0  0  0  0  0  0  0  0  0
   39.8850   35.4390   40.2990 H   0  0  0  0  0  0  0  0  0  0  0  0
   41.4610   35.8530   39.4160 H   0  0  0  0  0  0  0  0  0  0  0  0
   41.6770   33.3450   38.6110 H   0  0  0  0  0  0  0  0  0  0  0  0
   43.0120   34.1770   40.7540 C   0  0  0  0  0  0  0  0  0  0  0  0
   43.3920   35.0250   41.5460 O   0  0  0  0  0  0  0  0  0  0  0  0
   44.5160   32.2930   40.2870 C   0  0  0  0  0  0  0  0  0  0  0  0
   44.0040   33.4980   39.9940 C   0  0  0  0  0  0  0  0  0  0  0  0
   44.5190   34.1300   38.8130 C   0  0  0  0  0  0  0  0  0  0  0  0
   45.4650   33.5280   38.0550 N   0  0  0  0  0  0  0  0  0  0  0  0
   45.9390   32.3030   38.4140 C   0  0  0  0  0  0  0  0  0  0  0  0
   45.4760   31.7140   39.4930 N   0  0  0  0  0  0  0  0  0  0  0  0
   44.1090   31.8270   41.1940 H   0  0  0  0  0  0  0  0  0  0  0  0
   44.2040   35.0870   38.4430 H   0  0  0  0  0  0  0  0  0  0  0  0
   46.6870   31.7790   37.8530 H   0  0  0  0  0  0  0  0  0  0  0  0
   38.4800   30.8030   38.2330 O   0  0  0  0  0  0  0  0  0  0  0  0
   37.8560   30.5530   39.4260 C   0  0  0  0  0  0  0  0  0  0  0  0
   36.7560   31.2010   39.9890 C   0  0  0  0  0  0  0  0  0  0  0  0
   36.2700   30.7990   41.2120 C   0  0  0  0  0  0  0  0  0  0  0  0
   36.8690   29.7730   41.8580 N   0  0  0  0  0  0  0  0  0  0  0  0
   37.9370   29.1390   41.3200 C   0  0  0  0  0  0  0  0  0  0  0  0
   38.4430   29.5160   40.1050 N   0  0  0  0  0  0  0  0  0  0  0  0
   36.3910   32.0040   39.3430 H   0  0  0  0  0  0  0  0  0  0  0  0
   35.4310   31.3510   41.5590 H   0  0  0  0  0  0  0  0  0  0  0  0
   36.8580   26.4280   40.7200 Cl  0  0  0  0  0  0  0  0  0  0  0  0
   38.1300   26.7590   41.8750 C   0  0  0  0  0  0  0  0  0  0  0  0
   38.5410   28.0380   42.0650 C   0  0  0  0  0  0  0  0  0  0  0  0
   39.5460   28.2010   42.9940 C   0  0  0  0  0  0  0  0  0  0  0  0
   39.9260   29.1890   43.2000 H   0  0  0  0  0  0  0  0  0  0  0  0
   40.1250   27.1770   43.7040 C   0  0  0  0  0  0  0  0  0  0  0  0
   40.9130   27.3220   44.4280 H   0  0  0  0  0  0  0  0  0  0  0  0
   39.6740   25.8740   43.4780 C   0  0  0  0  0  0  0  0  0  0  0  0
   40.0600   24.9940   43.9830 H   0  0  0  0  0  0  0  0  0  0  0  0
   38.6710   25.6870   42.5550 C   0  0  0  0  0  0  0  0  0  0  0  0
   38.0700   24.0530   42.2410 Cl  0  0  0  0  0  0  0  0  0  0  0  0
  2 24  1  0  0  0  0
  2  1  2  1  0  0  0
  2  5  1  0  0  0  0
  3  2  1  0  0  0  0
  4  3  1  0  0  0  0
  5  8  1  0  0  0  0
  6 13  1  0  0  0  0
  6  9  1  1  0  0  0
  7 10  1  0  0  0  0
  7  6  1  0  0  0  0
  8 12  1  6  0  0  0
  8  7  1  0  0  0  0
  8  6  1  0  0  0  0
 11  7  1  0  0  0  0
 13 14  2  0  0  0  0
 15 21  1  0  0  0  0
 16 15  1  0  0  0  0
 16 13  1  0  0  0  0
 17 16  2  0  0  0  0
 18 19  2  0  0  0  0
 18 17  1  0  0  0  0
 19 20  1  0  0  0  0
 20 15  2  0  0  0  0
 22 17  1  0  0  0  0
 23 19  1  0  0  0  0
 24 25  1  0  0  0  0
 25 26  2  0  0  0  0
 25 30  1  0  0  0  0
 26 27  1  0  0  0  0
 27 32  1  0  0  0  0
 27 28  2  0  0  0  0
 29 28  1  0  0  0  0
 29 35  1  0  0  0  0
 30 29  2  0  0  0  0
 31 26  1  0  0  0  0
 33 34  1  0  0  0  0
 34 35  2  0  0  0  0
 34 42  1  0  0  0  0
 35 36  1  0  0  0  0
 36 37  1  0  0  0  0
 36 38  2  0  0  0  0
 38 39  1  0  0  0  0
 40 38  1  0  0  0  0
 40 41  1  0  0  0  0
 42 40  2  0  0  0  0
 43 42  1  0  0  0  0
M  END
>  <minimizedAffinity>
-6.2839241

$$$$

 OpenBabel03242512133D

 43 46  0  0  1  0  0  0  0  0999 V2000
   41.0080   32.4590   36.9120 O   0  0  0  0  0  0  0  0  0  0  0  0
   42.3740   32.9900   37.3200 P   0  0  2  0  0  0  0  0  0  0  0  0
   42.7160   34.4460   36.6210 O   0  0  0  0  0  0  0  0  0  0  0  0
   43.4610   34.4160   35.9750 H   0  0  0  0  0  0  0  0  0  0  0  0
   43.4940   31.7570   37.0140 O   0  0  0  0  0  0  0  0  0  0  0  0
   43.3810   29.2960   36.9570 C   0  0  1  0  0  0  0  0  0  0  0  0
   43.2920   29.9310   35.5130 C   0  0  0  0  0  0  0  0  0  0  0  0
   42.7810   30.6220   36.6730 C   0  0  2  0  0  0  0  0  0  0  0  0
   44.3900   29.2660   37.3590 H   0  0  0  0  0  0  0  0  0  0  0  0
   44.2660   30.1880   35.0630 H   0  0  0  0  0  0  0  0  0  0  0  0
   42.5860   29.4480   34.8110 H   0  0  0  0  0  0  0  0  0  0  0  0
   41.7240   30.6380   37.0080 H   0  0  0  0  0  0  0  0  0  0  0  0
   42.5020   28.0970   37.0850 C   0  0  0  0  0  0  0  0  0  0  0  0
   42.9440   27.0270   36.6980 O   0  0  0  0  0  0  0  0  0  0  0  0
   40.8860   28.2470   38.9280 C   0  0  0  0  0  0  0  0  0  0  0  0
   41.1870   28.1070   37.6280 C   0  0  0  0  0  0  0  0  0  0  0  0
   40.0720   27.9550   36.7380 C   0  0  0  0  0  0  0  0  0  0  0  0
   38.8030   27.9550   37.2020 N   0  0  0  0  0  0  0  0  0  0  0  0
   38.5720   28.1030   38.5360 C   0  0  0  0  0  0  0  0  0  0  0  0
   39.5830   28.2430   39.3620 N   0  0  0  0  0  0  0  0  0  0  0  0
   41.7520   28.3620   39.5930 H   0  0  0  0  0  0  0  0  0  0  0  0
   40.1500   27.8420   35.6720 H   0  0  0  0  0  0  0  0  0  0  0  0
   37.5870   28.1110   38.9610 H   0  0  0  0  0  0  0  0  0  0  0  0
   42.2550   33.1370   39.0490 O   0  0  0  0  0  0  0  0  0  0  0  0
   41.0890   33.4120   39.7130 C   0  0  0  0  0  0  0  0  0  0  0  0
   40.4700   34.6460   39.9150 C   0  0  0  0  0  0  0  0  0  0  0  0
   39.2880   34.7190   40.6160 C   0  0  0  0  0  0  0  0  0  0  0  0
   38.7360   33.5850   41.1040 N   0  0  0  0  0  0  0  0  0  0  0  0
   39.3300   32.3840   40.9140 C   0  0  0  0  0  0  0  0  0  0  0  0
   40.5060   32.2790   40.2200 N   0  0  0  0  0  0  0  0  0  0  0  0
   41.0410   35.4600   39.4600 H   0  0  0  0  0  0  0  0  0  0  0  0
   38.8930   35.7000   40.7190 H   0  0  0  0  0  0  0  0  0  0  0  0
   36.7580   31.5960   39.6340 Cl  0  0  0  0  0  0  0  0  0  0  0  0
   37.5110   30.7400   40.9620 C   0  0  0  0  0  0  0  0  0  0  0  0
   38.6870   31.1940   41.4650 C   0  0  0  0  0  0  0  0  0  0  0  0
   39.2030   30.4560   42.5080 C   0  0  0  0  0  0  0  0  0  0  0  0
   40.1360   30.7540   42.9600 H   0  0  0  0  0  0  0  0  0  0  0  0
   38.6110   29.3360   43.0380 C   0  0  0  0  0  0  0  0  0  0  0  0
   39.0300   28.7690   43.8570 H   0  0  0  0  0  0  0  0  0  0  0  0
   37.4010   28.9010   42.4910 C   0  0  0  0  0  0  0  0  0  0  0  0
   36.8500   28.0310   42.8340 H   0  0  0  0  0  0  0  0  0  0  0  0
   36.8660   29.6220   41.4490 C   0  0  0  0  0  0  0  0  0  0  0  0
   35.3350   29.1060   40.7290 Cl  0  0  0  0  0  0  0  0  0  0  0  0
  2  1  2  6  0  0  0
  2 24  1  0  0  0  0
  3  2  1  0  0  0  0
  4  3  1  0  0  0  0
  5  2  1  0  0  0  0
  6 13  1  0  0  0  0
  6  9  1  1  0  0  0
  7  8  1  0  0  0  0
  7  6  1  0  0  0  0
  8  6  1  0  0  0  0
  8 12  1  1  0  0  0
  8  5  1  0  0  0  0
 10  7  1  0  0  0  0
 11  7  1  0  0  0  0
 13 16  1  0  0  0  0
 14 13  2  0  0  0  0
 15 20  1  0  0  0  0
 15 21  1  0  0  0  0
 16 15  2  0  0  0  0
 17 18  2  0  0  0  0
 17 16  1  0  0  0  0
 18 19  1  0  0  0  0
 19 23  1  0  0  0  0
 19 20  2  0  0  0  0
 22 17  1  0  0  0  0
 24 25  1  0  0  0  0
 25 26  2  0  0  0  0
 25 30  1  0  0  0  0
 26 27  1  0  0  0  0
 27 32  1  0  0  0  0
 27 28  2  0  0  0  0
 29 28  1  0  0  0  0
 29 35  1  0  0  0  0
 30 29  2  0  0  0  0
 31 26  1  0  0  0  0
 33 34  1  0  0  0  0
 34 42  2  0  0  0  0
 34 35  1  0  0  0  0
 35 36  2  0  0  0  0
 36 37  1  0  0  0  0
 36 38  1  0  0  0  0
 38 39  1  0  0  0  0
 40 41  1  0  0  0  0
 40 38  2  0  0  0  0
 42 40  1  0  0  0  0
 43 42  1  0  0  0  0
M  END
>  <minimizedAffinity>
-6.16141081

$$$$

 OpenBabel03242512133D

 43 46  0  0  1  0  0  0  0  0999 V2000
   38.9800   27.2430   44.0190 O   0  0  0  0  0  0  0  0  0  0  0  0
   37.8150   27.9420   43.3350 P   0  0  2  0  0  0  0  0  0  0  0  0
   36.9340   28.8650   44.3840 O   0  0  0  0  0  0  0  0  0  0  0  0
   36.0160   28.5370   44.5330 H   0  0  0  0  0  0  0  0  0  0  0  0
   36.9410   26.7510   42.5080 O   0  0  0  0  0  0  0  0  0  0  0  0
   36.7340   25.9330   40.1920 C   0  0  1  0  0  0  0  0  0  0  0  0
   37.9410   25.2590   40.9580 C   0  0  0  0  0  0  0  0  0  0  0  0
   37.5160   26.6060   41.2580 C   0  0  2  0  0  0  0  0  0  0  0  0
   35.7650   25.5180   40.4540 H   0  0  0  0  0  0  0  0  0  0  0  0
   37.6610   24.4030   41.5950 H   0  0  0  0  0  0  0  0  0  0  0  0
   38.8630   25.0970   40.3680 H   0  0  0  0  0  0  0  0  0  0  0  0
   37.9720   27.5350   40.8630 H   0  0  0  0  0  0  0  0  0  0  0  0
   37.0640   26.1860   38.7600 C   0  0  0  0  0  0  0  0  0  0  0  0
   37.3110   25.2200   38.0560 O   0  0  0  0  0  0  0  0  0  0  0  0
   38.2180   28.2100   37.9830 C   0  0  0  0  0  0  0  0  0  0  0  0
   37.1110   27.4710   38.1500 C   0  0  0  0  0  0  0  0  0  0  0  0
   35.8900   28.0490   37.6660 C   0  0  0  0  0  0  0  0  0  0  0  0
   35.8780   29.2670   37.0800 N   0  0  0  0  0  0  0  0  0  0  0  0
   37.0410   29.9620   36.9440 C   0  0  0  0  0  0  0  0  0  0  0  0
   38.1660   29.4440   37.3820 N   0  0  0  0  0  0  0  0  0  0  0  0
   39.1410   27.7500   38.3590 H   0  0  0  0  0  0  0  0  0  0  0  0
   34.9260   27.5780   37.7190 H   0  0  0  0  0  0  0  0  0  0  0  0
   37.0930   30.9300   36.4870 H   0  0  0  0  0  0  0  0  0  0  0  0
   38.5830   28.9270   42.1250 O   0  0  0  0  0  0  0  0  0  0  0  0
   37.9430   29.9190   41.4300 C   0  0  0  0  0  0  0  0  0  0  0  0
   36.6290   29.9490   40.9620 C   0  0  0  0  0  0  0  0  0  0  0  0
   36.1650   31.0480   40.2760 C   0  0  0  0  0  0  0  0  0  0  0  0
   36.9950   32.0940   40.0630 N   0  0  0  0  0  0  0  0  0  0  0  0
   38.2720   32.0740   40.5120 C   0  0  0  0  0  0  0  0  0  0  0  0
   38.7620   30.9940   41.1980 N   0  0  0  0  0  0  0  0  0  0  0  0
   36.0930   29.0310   41.2160 H   0  0  0  0  0  0  0  0  0  0  0  0
   35.1530   30.9800   39.9600 H   0  0  0  0  0  0  0  0  0  0  0  0
   40.4800   31.6440   38.5590 Cl  0  0  0  0  0  0  0  0  0  0  0  0
   40.1590   33.1550   39.3800 C   0  0  0  0  0  0  0  0  0  0  0  0
   39.1210   33.2330   40.2510 C   0  0  0  0  0  0  0  0  0  0  0  0
   38.9460   34.4620   40.8490 C   0  0  0  0  0  0  0  0  0  0  0  0
   38.1410   34.6020   41.5530 H   0  0  0  0  0  0  0  0  0  0  0  0
   39.7360   35.5620   40.6150 C   0  0  0  0  0  0  0  0  0  0  0  0
   39.5840   36.5190   41.0930 H   0  0  0  0  0  0  0  0  0  0  0  0
   40.7940   35.4410   39.7110 C   0  0  0  0  0  0  0  0  0  0  0  0
   41.4770   36.2440   39.4550 H   0  0  0  0  0  0  0  0  0  0  0  0
   40.9880   34.2230   39.1020 C   0  0  0  0  0  0  0  0  0  0  0  0
   42.3170   34.0270   37.9510 Cl  0  0  0  0  0  0  0  0  0  0  0  0
  2  1  2  1  0  0  0
  2  3  1  0  0  0  0
  3  4  1  0  0  0  0
  5  2  1  0  0  0  0
  6  9  1  1  0  0  0
  6  7  1  0  0  0  0
  6  8  1  0  0  0  0
  7  8  1  0  0  0  0
  7 10  1  0  0  0  0
  8 12  1  6  0  0  0
  8  5  1  0  0  0  0
 11  7  1  0  0  0  0
 13  6  1  0  0  0  0
 14 13  2  0  0  0  0
 15 16  1  0  0  0  0
 15 21  1  0  0  0  0
 16 13  1  0  0  0  0
 17 22  1  0  0  0  0
 17 16  2  0  0  0  0
 18 17  1  0  0  0  0
 19 18  2  0  0  0  0
 19 20  1  0  0  0  0
 20 15  2  0  0  0  0
 23 19  1  0  0  0  0
 24  2  1  0  0  0  0
 25 24  1  0  0  0  0
 26 31  1  0  0  0  0
 26 25  2  0  0  0  0
 27 26  1  0  0  0  0
 28 27  2  0  0  0  0
 28 29  1  0  0  0  0
 29 30  2  0  0  0  0
 30 25  1  0  0  0  0
 32 27  1  0  0  0  0
 33 34  1  0  0  0  0
 34 35  1  0  0  0  0
 35 29  1  0  0  0  0
 35 36  2  0  0  0  0
 36 37  1  0  0  0  0
 38 36  1  0  0  0  0
 38 39  1  0  0  0  0
 40 38  2  0  0  0  0
 41 40  1  0  0  0  0
 42 34  2  0  0  0  0
 42 40  1  0  0  0  0
 43 42  1  0  0  0  0
M  END
>  <minimizedAffinity>
-6.10767889

$$$$

 OpenBabel03242512133D

 43 46  0  0  1  0  0  0  0  0999 V2000
   36.6100   27.4960   36.7910 O   0  0  0  0  0  0  0  0  0  0  0  0
   37.3910   28.6610   36.2010 P   0  0  2  0  0  0  0  0  0  0  0  0
   37.3830   28.6500   34.5500 O   0  0  0  0  0  0  0  0  0  0  0  0
   38.2680   28.4860   34.1460 H   0  0  0  0  0  0  0  0  0  0  0  0
   38.9230   28.6410   36.9200 O   0  0  0  0  0  0  0  0  0  0  0  0
   38.9430   28.0190   39.3050 C   0  0  1  0  0  0  0  0  0  0  0  0
   40.1960   27.4490   38.5290 C   0  0  0  0  0  0  0  0  0  0  0  0
   38.9240   27.6370   37.8730 C   0  0  2  0  0  0  0  0  0  0  0  0
   39.0250   29.0740   39.5520 H   0  0  0  0  0  0  0  0  0  0  0  0
   41.0270   28.1650   38.4080 H   0  0  0  0  0  0  0  0  0  0  0  0
   40.5200   26.4290   38.8100 H   0  0  0  0  0  0  0  0  0  0  0  0
   38.1590   26.8550   37.7000 H   0  0  0  0  0  0  0  0  0  0  0  0
   38.4500   27.0590   40.3350 C   0  0  0  0  0  0  0  0  0  0  0  0
   38.4620   25.8710   40.0540 O   0  0  0  0  0  0  0  0  0  0  0  0
   36.9810   26.8030   42.2860 C   0  0  0  0  0  0  0  0  0  0  0  0
   37.9690   27.4240   41.6230 C   0  0  0  0  0  0  0  0  0  0  0  0
   38.5700   28.5420   42.2920 C   0  0  0  0  0  0  0  0  0  0  0  0
   38.1490   28.9310   43.5170 N   0  0  0  0  0  0  0  0  0  0  0  0
   37.1400   28.2540   44.1310 C   0  0  0  0  0  0  0  0  0  0  0  0
   36.5820   27.2280   43.5290 N   0  0  0  0  0  0  0  0  0  0  0  0
   36.5360   25.9510   41.7580 H   0  0  0  0  0  0  0  0  0  0  0  0
   39.3750   29.1320   41.8960 H   0  0  0  0  0  0  0  0  0  0  0  0
   36.7660   28.5160   45.1010 H   0  0  0  0  0  0  0  0  0  0  0  0
   36.5660   30.0610   36.8230 O   0  0  0  0  0  0  0  0  0  0  0  0
   36.5750   30.4270   38.1430 C   0  0  0  0  0  0  0  0  0  0  0  0
   35.8440   29.8890   39.2030 C   0  0  0  0  0  0  0  0  0  0  0  0
   35.9920   30.3990   40.4720 C   0  0  0  0  0  0  0  0  0  0  0  0
   36.8490   31.4240   40.6790 N   0  0  0  0  0  0  0  0  0  0  0  0
   37.5610   31.9540   39.6560 C   0  0  0  0  0  0  0  0  0  0  0  0
   37.4360   31.4670   38.3820 N   0  0  0  0  0  0  0  0  0  0  0  0
   35.2000   29.0710   38.8700 H   0  0  0  0  0  0  0  0  0  0  0  0
   35.3960   29.9260   41.2130 H   0  0  0  0  0  0  0  0  0  0  0  0
   40.3770   31.1870   40.2540 Cl  0  0  0  0  0  0  0  0  0  0  0  0
   39.7780   32.8320   40.2270 C   0  0  0  0  0  0  0  0  0  0  0  0
   38.4720   33.0600   39.9400 C   0  0  0  0  0  0  0  0  0  0  0  0
   38.0920   34.3850   39.9420 C   0  0  0  0  0  0  0  0  0  0  0  0
   37.0690   34.6460   39.7230 H   0  0  0  0  0  0  0  0  0  0  0  0
   38.9350   35.4370   40.2070 C   0  0  0  0  0  0  0  0  0  0  0  0
   38.6210   36.4700   40.2040 H   0  0  0  0  0  0  0  0  0  0  0  0
   40.2730   35.1590   40.4970 C   0  0  0  0  0  0  0  0  0  0  0  0
   41.0210   35.9120   40.7210 H   0  0  0  0  0  0  0  0  0  0  0  0
   40.6750   33.8430   40.5020 C   0  0  0  0  0  0  0  0  0  0  0  0
   42.3600   33.4490   40.8650 Cl  0  0  0  0  0  0  0  0  0  0  0  0
  2  1  2  1  0  0  0
  2 24  1  0  0  0  0
  2  5  1  0  0  0  0
  3  2  1  0  0  0  0
  4  3  1  0  0  0  0
  5  8  1  0  0  0  0
  6  9  1  1  0  0  0
  6 13  1  0  0  0  0
  7 11  1  0  0  0  0
  7  6  1  0  0  0  0
  8 12  1  6  0  0  0
  8  7  1  0  0  0  0
  8  6  1  0  0  0  0
 10  7  1  0  0  0  0
 13 16  1  0  0  0  0
 14 13  2  0  0  0  0
 15 20  1  0  0  0  0
 16 15  2  0  0  0  0
 16 17  1  0  0  0  0
 17 18  2  0  0  0  0
 18 19  1  0  0  0  0
 19 23  1  0  0  0  0
 20 19  2  0  0  0  0
 21 15  1  0  0  0  0
 22 17  1  0  0  0  0
 24 25  1  0  0  0  0
 25 30  2  0  0  0  0
 25 26  1  0  0  0  0
 26 27  2  0  0  0  0
 27 28  1  0  0  0  0
 27 32  1  0  0  0  0
 29 35  1  0  0  0  0
 29 28  2  0  0  0  0
 30 29  1  0  0  0  0
 31 26  1  0  0  0  0
 34 33  1  0  0  0  0
 34 42  1  0  0  0  0
 35 36  1  0  0  0  0
 35 34  2  0  0  0  0
 36 38  2  0  0  0  0
 37 36  1  0  0  0  0
 38 40  1  0  0  0  0
 39 38  1  0  0  0  0
 40 42  2  0  0  0  0
 40 41  1  0  0  0  0
 42 43  1  0  0  0  0
M  END
>  <minimizedAffinity>
-6.07477045

$$$$

 OpenBabel03242512133D

 43 46  0  0  1  0  0  0  0  0999 V2000
   36.9340   30.6470   38.8950 O   0  0  0  0  0  0  0  0  0  0  0  0
   36.8870   31.1160   40.3410 P   0  0  2  0  0  0  0  0  0  0  0  0
   35.4490   30.7600   41.0700 O   0  0  0  0  0  0  0  0  0  0  0  0
   34.9120   31.5540   41.3060 H   0  0  0  0  0  0  0  0  0  0  0  0
   37.3160   32.7540   40.3430 O   0  0  0  0  0  0  0  0  0  0  0  0
   39.6780   33.1060   40.9510 C   0  0  1  0  0  0  0  0  0  0  0  0
   39.1610   34.1850   39.9180 C   0  0  0  0  0  0  0  0  0  0  0  0
   38.6350   32.8400   39.9320 C   0  0  2  0  0  0  0  0  0  0  0  0
   39.3600   33.2920   41.9730 H   0  0  0  0  0  0  0  0  0  0  0  0
   38.6150   35.0300   40.3720 H   0  0  0  0  0  0  0  0  0  0  0  0
   39.8740   34.4840   39.1270 H   0  0  0  0  0  0  0  0  0  0  0  0
   38.9530   32.0100   39.2710 H   0  0  0  0  0  0  0  0  0  0  0  0
   41.0930   32.7200   40.6790 C   0  0  0  0  0  0  0  0  0  0  0  0
   41.3000   31.9060   39.7930 O   0  0  0  0  0  0  0  0  0  0  0  0
   43.0300   32.5200   42.1770 C   0  0  0  0  0  0  0  0  0  0  0  0
   42.2240   33.2330   41.3750 C   0  0  0  0  0  0  0  0  0  0  0  0
   42.5530   34.6220   41.2270 C   0  0  0  0  0  0  0  0  0  0  0  0
   43.6160   35.1590   41.8670 N   0  0  0  0  0  0  0  0  0  0  0  0
   44.3910   34.3750   42.6660 C   0  0  0  0  0  0  0  0  0  0  0  0
   44.1000   33.1020   42.8100 N   0  0  0  0  0  0  0  0  0  0  0  0
   42.7610   31.4600   42.2760 H   0  0  0  0  0  0  0  0  0  0  0  0
   42.0110   35.3180   40.6140 H   0  0  0  0  0  0  0  0  0  0  0  0
   45.2450   34.7460   43.1970 H   0  0  0  0  0  0  0  0  0  0  0  0
   38.2010   30.2570   41.0910 O   0  0  0  0  0  0  0  0  0  0  0  0
   38.0350   29.1570   41.8900 C   0  0  0  0  0  0  0  0  0  0  0  0
   37.9420   29.0950   43.2810 C   0  0  0  0  0  0  0  0  0  0  0  0
   37.7750   27.8810   43.9080 C   0  0  0  0  0  0  0  0  0  0  0  0
   37.7030   26.7550   43.1630 N   0  0  0  0  0  0  0  0  0  0  0  0
   37.7940   26.8060   41.8140 C   0  0  0  0  0  0  0  0  0  0  0  0
   37.9600   27.9990   41.1620 N   0  0  0  0  0  0  0  0  0  0  0  0
   38.0180   30.0880   43.7320 H   0  0  0  0  0  0  0  0  0  0  0  0
   37.7140   27.9340   44.9680 H   0  0  0  0  0  0  0  0  0  0  0  0
   40.2750   25.9920   40.3790 Cl  0  0  0  0  0  0  0  0  0  0  0  0
   38.7780   25.0860   40.3690 C   0  0  0  0  0  0  0  0  0  0  0  0
   37.7100   25.5560   41.0620 C   0  0  0  0  0  0  0  0  0  0  0  0
   36.5750   24.7760   40.9960 C   0  0  0  0  0  0  0  0  0  0  0  0
   35.6860   25.0840   41.5220 H   0  0  0  0  0  0  0  0  0  0  0  0
   36.4790   23.5990   40.2930 C   0  0  0  0  0  0  0  0  0  0  0  0
   35.5820   23.0000   40.2520 H   0  0  0  0  0  0  0  0  0  0  0  0
   37.6010   23.1490   39.5930 C   0  0  0  0  0  0  0  0  0  0  0  0
   37.6340   22.2360   39.0080 H   0  0  0  0  0  0  0  0  0  0  0  0
   38.7450   23.9120   39.6450 C   0  0  0  0  0  0  0  0  0  0  0  0
   40.1870   23.3780   38.7710 Cl  0  0  0  0  0  0  0  0  0  0  0  0
  2  1  2  6  0  0  0
  2  5  1  0  0  0  0
  2  3  1  0  0  0  0
  2 24  1  0  0  0  0
  3  4  1  0  0  0  0
  6  9  1  1  0  0  0
  7  8  1  0  0  0  0
  7 10  1  0  0  0  0
  7  6  1  0  0  0  0
  8 12  1  6  0  0  0
  8  5  1  0  0  0  0
  8  6  1  0  0  0  0
 11  7  1  0  0  0  0
 13  6  1  0  0  0  0
 13 16  1  0  0  0  0
 14 13  2  0  0  0  0
 15 21  1  0  0  0  0
 15 20  1  0  0  0  0
 16 15  2  0  0  0  0
 17 16  1  0  0  0  0
 17 18  2  0  0  0  0
 18 19  1  0  0  0  0
 19 20  2  0  0  0  0
 19 23  1  0  0  0  0
 22 17  1  0  0  0  0
 24 25  1  0  0  0  0
 25 26  1  0  0  0  0
 26 31  1  0  0  0  0
 26 27  2  0  0  0  0
 27 32  1  0  0  0  0
 28 27  1  0  0  0  0
 29 28  2  0  0  0  0
 30 29  1  0  0  0  0
 30 25  2  0  0  0  0
 34 33  1  0  0  0  0
 34 35  1  0  0  0  0
 35 29  1  0  0  0  0
 36 35  2  0  0  0  0
 36 37  1  0  0  0  0
 38 36  1  0  0  0  0
 39 38  1  0  0  0  0
 40 42  1  0  0  0  0
 40 38  2  0  0  0  0
 41 40  1  0  0  0  0
 42 34  2  0  0  0  0
 43 42  1  0  0  0  0
M  END
>  <minimizedAffinity>
-6.05218029

$$$$
