
 OpenBabel03252506343D

 35 37  0  0  1  0  0  0  0  0999 V2000
   44.4740   35.7390   44.9980 C   0  0  0  0  0  0  0  0  0  0  0  0
   45.1190   35.7080   43.7530 C   0  0  0  0  0  0  0  0  0  0  0  0
   46.0210   34.7170   43.5070 C   0  0  0  0  0  0  0  0  0  0  0  0
   46.2320   33.8210   44.4990 N   0  0  0  0  0  0  0  0  0  0  0  0
   45.6080   33.8640   45.6830 C   0  0  0  0  0  0  0  0  0  0  0  0
   44.7260   34.8140   45.9520 N   0  0  0  0  0  0  0  0  0  0  0  0
   45.9230   32.8470   46.6430 N   0  0  0  0  0  0  0  0  0  0  0  0
   45.1460   32.5980   47.8440 C   0  0  0  0  0  0  0  0  0  0  0  0
   46.2320   32.2700   48.8380 C   0  0  0  0  0  0  0  0  0  0  0  0
   47.5090   32.0860   48.0660 C   0  0  0  0  0  0  0  0  0  0  0  0
   47.0250   31.9000   46.6290 C   0  0  1  0  0  0  0  0  0  0  0  0
   43.7400   36.5130   45.2450 H   0  0  0  0  0  0  0  0  0  0  0  0
   46.5160   34.6880   42.5590 H   0  0  0  0  0  0  0  0  0  0  0  0
   44.5300   31.6850   47.7490 H   0  0  0  0  0  0  0  0  0  0  0  0
   44.5420   33.4850   48.1370 H   0  0  0  0  0  0  0  0  0  0  0  0
   45.9910   31.4530   49.5160 H   0  0  0  0  0  0  0  0  0  0  0  0
   46.3380   33.1900   49.4800 H   0  0  0  0  0  0  0  0  0  0  0  0
   48.1290   32.9920   48.1250 H   0  0  0  0  0  0  0  0  0  0  0  0
   48.0470   31.1970   48.4570 H   0  0  0  0  0  0  0  0  0  0  0  0
   47.7200   32.2760   45.8790 H   0  0  0  0  0  0  0  0  0  0  0  0
   44.7640   36.7430   42.8240 N   0  0  0  0  0  0  0  0  0  0  0  0
   43.8140   37.1390   42.7310 H   0  0  0  0  0  0  0  0  0  0  0  0
   45.5170   37.1330   42.1890 H   0  0  0  0  0  0  0  0  0  0  0  0
   46.4620   30.2190   46.4350 S   0  0  0  0  0  0  0  0  0  0  0  0
   45.6720   27.8500   44.3020 Cl  0  0  0  0  0  0  0  0  0  0  0  0
   47.3340   28.1050   44.7190 C   0  0  0  0  0  0  0  0  0  0  0  0
   47.5510   29.1180   45.6220 C   0  0  0  0  0  0  0  0  0  0  0  0
   48.8850   29.3370   45.9980 C   0  0  0  0  0  0  0  0  0  0  0  0
   49.2740   30.0850   46.6990 H   0  0  0  0  0  0  0  0  0  0  0  0
   49.8940   28.5370   45.4500 C   0  0  0  0  0  0  0  0  0  0  0  0
   50.9530   28.6660   45.7110 H   0  0  0  0  0  0  0  0  0  0  0  0
   49.6140   27.5260   44.5400 C   0  0  0  0  0  0  0  0  0  0  0  0
   50.3900   26.9200   44.1260 H   0  0  0  0  0  0  0  0  0  0  0  0
   48.3070   27.3240   44.1830 C   0  0  0  0  0  0  0  0  0  0  0  0
   47.8320   26.0730   43.0360 Cl  0  0  0  0  0  0  0  0  0  0  0  0
  1 12  1  0  0  0  0
  1  6  1  0  0  0  0
  2  1  2  0  0  0  0
  3  2  1  0  0  0  0
  3  4  2  0  0  0  0
  4  5  1  0  0  0  0
  5  6  2  0  0  0  0
  5  7  1  0  0  0  0
  7  8  1  0  0  0  0
  8 15  1  0  0  0  0
  8  9  1  0  0  0  0
  9 17  1  0  0  0  0
  9 16  1  0  0  0  0
 10 18  1  0  0  0  0
 10 19  1  0  0  0  0
 10  9  1  0  0  0  0
 11 20  1  6  0  0  0
 11  7  1  0  0  0  0
 11 10  1  0  0  0  0
 13  3  1  0  0  0  0
 14  8  1  0  0  0  0
 21  2  1  0  0  0  0
 22 21  1  0  0  0  0
 23 21  1  0  0  0  0
 24 11  1  0  0  0  0
 25 26  1  0  0  0  0
 26 27  1  0  0  0  0
 27 28  2  0  0  0  0
 27 24  1  0  0  0  0
 28 29  1  0  0  0  0
 30 31  1  0  0  0  0
 30 28  1  0  0  0  0
 32 30  2  0  0  0  0
 33 32  1  0  0  0  0
 34 32  1  0  0  0  0
 34 26  2  0  0  0  0
 35 34  1  0  0  0  0
M  END
>  <minimizedAffinity>
-4.94802999

>  <minimizedRMSD>
0.741917491

$$$$
