
     RDKit          3D

 42 45  0  0  0  0  0  0  0  0999 V2000
   47.1798   34.5505   42.0122 C   0  0  1  0  0  0  0  0  0  0  0  0
   48.3132   35.4510   41.7449 C   0  0  0  0  0  0  0  0  0  0  0  0
   48.5800   34.1044   42.2959 C   0  0  2  0  0  0  0  0  0  0  0  0
   45.4951   36.0319   43.1637 C   0  0  0  0  0  0  0  0  0  0  0  0
   46.2709   34.8543   43.1476 C   0  0  0  0  0  0  0  0  0  0  0  0
   46.1600   33.9729   44.2346 C   0  0  0  0  0  0  0  0  0  0  0  0
   45.3067   34.2990   45.2538 N   0  0  0  0  0  0  0  0  0  0  0  0
   44.5810   35.4484   45.2198 C   0  0  0  0  0  0  0  0  0  0  0  0
   44.6648   36.3281   44.1776 N   0  0  0  0  0  0  0  0  0  0  0  0
   49.3127   33.2027   41.4797 N   0  0  0  0  0  0  0  0  0  0  0  0
   50.6527   33.1228   42.0032 C   0  0  0  0  0  0  0  0  0  0  0  0
   51.3400   31.8159   41.8057 C   0  0  0  0  0  0  0  0  0  0  0  0
   50.6107   30.7339   42.5582 C   0  0  0  0  0  0  0  0  0  0  0  0
   49.1463   30.9914   42.5488 C   0  0  0  0  0  0  0  0  0  0  0  0
   48.7341   31.8718   41.4103 C   0  0  2  0  0  0  0  0  0  0  0  0
   46.7033   34.0585   41.1355 H   0  0  0  0  0  0  0  0  0  0  0  0
   48.5064   35.7165   40.7016 H   0  0  0  0  0  0  0  0  0  0  0  0
   48.4222   36.3025   42.4571 H   0  0  0  0  0  0  0  0  0  0  0  0
   48.7969   34.0245   43.3832 H   0  0  0  0  0  0  0  0  0  0  0  0
   45.5844   36.6998   42.3314 H   0  0  0  0  0  0  0  0  0  0  0  0
   46.7480   33.0647   44.2382 H   0  0  0  0  0  0  0  0  0  0  0  0
   43.9140   35.6732   46.0479 H   0  0  0  0  0  0  0  0  0  0  0  0
   50.5909   33.2716   43.1211 H   0  0  0  0  0  0  0  0  0  0  0  0
   51.2741   33.9905   41.6655 H   0  0  0  0  0  0  0  0  0  0  0  0
   51.6125   31.5397   40.7923 H   0  0  0  0  0  0  0  0  0  0  0  0
   52.3341   31.9302   42.3422 H   0  0  0  0  0  0  0  0  0  0  0  0
   50.9762   30.6753   43.5995 H   0  0  0  0  0  0  0  0  0  0  0  0
   50.7819   29.7366   42.0709 H   0  0  0  0  0  0  0  0  0  0  0  0
   48.5224   30.0875   42.5525 H   0  0  0  0  0  0  0  0  0  0  0  0
   48.8882   31.5350   43.4837 H   0  0  0  0  0  0  0  0  0  0  0  0
   47.6325   32.0762   41.6100 H   0  0  0  0  0  0  0  0  0  0  0  0
   46.9463   32.8265   38.9974 Cl  0  0  0  0  0  0  0  0  0  0  0  0
   48.1283   31.5704   38.9077 C   0  0  0  0  0  0  0  0  0  0  0  0
   48.7810   31.2746   40.0781 C   0  0  0  0  0  0  0  0  0  0  0  0
   49.7114   30.2285   40.0254 C   0  0  0  0  0  0  0  0  0  0  0  0
   50.3562   29.7962   40.8028 H   0  0  0  0  0  0  0  0  0  0  0  0
   49.9360   29.5462   38.8223 C   0  0  0  0  0  0  0  0  0  0  0  0
   50.6279   28.7301   38.6775 H   0  0  0  0  0  0  0  0  0  0  0  0
   49.2558   29.8809   37.6701 C   0  0  0  0  0  0  0  0  0  0  0  0
   49.3988   29.3809   36.7206 H   0  0  0  0  0  0  0  0  0  0  0  0
   48.3387   30.9104   37.7206 C   0  0  0  0  0  0  0  0  0  0  0  0
   47.4397   31.3972   36.3212 Cl  0  0  0  0  0  0  0  0  0  0  0  0
  1  3  1  0
  1  5  1  0
  2  1  1  0
  2  3  1  0
  4  9  2  0
  5  4  1  0
  5  6  2  0
  6  7  1  0
  8  7  2  0
  9  8  1  0
 10 11  1  0
 10  3  1  0
 12 11  1  0
 12 13  1  0
 13 14  1  0
 15 10  1  0
 15 14  1  0
  1 16  1  6
  2 17  1  0
  2 18  1  0
  3 19  1  1
  4 20  1  0
  6 21  1  0
  8 22  1  0
 11 23  1  0
 11 24  1  0
 12 25  1  0
 12 26  1  0
 13 27  1  0
 13 28  1  0
 14 29  1  0
 14 30  1  0
 15 31  1  1
 32 33  1  0
 33 34  2  0
 34 35  1  0
 35 36  1  0
 35 37  2  0
 37 38  1  0
 37 39  1  0
 39 40  1  0
 39 41  2  0
 41 42  1  0
 41 33  1  0
 15 34  1  0
M  ISO  8  16  13  17  13  18  13  19  13  20  14  21  14  22  14  23  13
M  ISO  8  24  13  25  13  26  13  27  13  28  13  29  13  30  13  31  13
M  ISO  3  36  15  38  15  40  15
M  END
>  <DihAtoms>  (1) 
9,14,33,32

>  <DihDeg>  (1) 
5.887006119440166

$$$$
