
 OpenBabel03252506343D

 35 37  0  0  1  0  0  0  0  0999 V2000
   44.4240   35.7870   44.9910 C   0  0  0  0  0  0  0  0  0  0  0  0
   45.0670   35.8040   43.7440 C   0  0  0  0  0  0  0  0  0  0  0  0
   45.9940   34.8460   43.4710 C   0  0  0  0  0  0  0  0  0  0  0  0
   46.2330   33.9310   44.4390 N   0  0  0  0  0  0  0  0  0  0  0  0
   45.6120   33.9270   45.6250 C   0  0  0  0  0  0  0  0  0  0  0  0
   44.7050   34.8460   45.9200 N   0  0  0  0  0  0  0  0  0  0  0  0
   45.9580   32.8960   46.5580 N   0  0  0  0  0  0  0  0  0  0  0  0
   45.1920   32.5950   47.7550 C   0  0  0  0  0  0  0  0  0  0  0  0
   46.2900   32.2740   48.7380 C   0  0  0  0  0  0  0  0  0  0  0  0
   47.5690   32.1430   47.9590 C   0  0  0  0  0  0  0  0  0  0  0  0
   47.0850   31.9810   46.5180 C   0  0  1  0  0  0  0  0  0  0  0  0
   43.6710   36.5340   45.2580 H   0  0  0  0  0  0  0  0  0  0  0  0
   46.4870   34.8540   42.5210 H   0  0  0  0  0  0  0  0  0  0  0  0
   44.6010   31.6690   47.6390 H   0  0  0  0  0  0  0  0  0  0  0  0
   44.5650   33.4580   48.0720 H   0  0  0  0  0  0  0  0  0  0  0  0
   46.0740   31.4330   49.3960 H   0  0  0  0  0  0  0  0  0  0  0  0
   46.3730   33.1790   49.4020 H   0  0  0  0  0  0  0  0  0  0  0  0
   48.1640   33.0640   48.0390 H   0  0  0  0  0  0  0  0  0  0  0  0
   48.1330   31.2600   48.3250 H   0  0  0  0  0  0  0  0  0  0  0  0
   47.7680   32.3940   45.7760 H   0  0  0  0  0  0  0  0  0  0  0  0
   44.6800   36.8520   42.8420 N   0  0  0  0  0  0  0  0  0  0  0  0
   43.7190   37.2240   42.7610 H   0  0  0  0  0  0  0  0  0  0  0  0
   45.4200   37.2790   42.2140 H   0  0  0  0  0  0  0  0  0  0  0  0
   46.5690   30.2900   46.2830 S   0  0  0  0  0  0  0  0  0  0  0  0
   49.1050   29.8570   44.2420 Cl  0  0  0  0  0  0  0  0  0  0  0  0
   48.9110   28.8010   45.6010 C   0  0  0  0  0  0  0  0  0  0  0  0
   47.8160   29.0680   46.3860 C   0  0  0  0  0  0  0  0  0  0  0  0
   47.6170   28.2170   47.4830 C   0  0  0  0  0  0  0  0  0  0  0  0
   46.8140   28.2530   48.2280 H   0  0  0  0  0  0  0  0  0  0  0  0
   48.5170   27.1710   47.7150 C   0  0  0  0  0  0  0  0  0  0  0  0
   48.4080   26.4770   48.5590 H   0  0  0  0  0  0  0  0  0  0  0  0
   49.6100   26.9490   46.8860 C   0  0  0  0  0  0  0  0  0  0  0  0
   50.2940   26.1490   47.0700 H   0  0  0  0  0  0  0  0  0  0  0  0
   49.7910   27.7890   45.8190 C   0  0  0  0  0  0  0  0  0  0  0  0
   51.1400   27.6030   44.7000 Cl  0  0  0  0  0  0  0  0  0  0  0  0
  1 12  1  0  0  0  0
  1  6  1  0  0  0  0
  2  1  2  0  0  0  0
  3  2  1  0  0  0  0
  3  4  2  0  0  0  0
  4  5  1  0  0  0  0
  5  6  2  0  0  0  0
  5  7  1  0  0  0  0
  7  8  1  0  0  0  0
  8 15  1  0  0  0  0
  8  9  1  0  0  0  0
  9 16  1  0  0  0  0
  9 17  1  0  0  0  0
 10 18  1  0  0  0  0
 10 19  1  0  0  0  0
 10  9  1  0  0  0  0
 11 20  1  6  0  0  0
 11  7  1  0  0  0  0
 11 10  1  0  0  0  0
 13  3  1  0  0  0  0
 14  8  1  0  0  0  0
 21  2  1  0  0  0  0
 22 21  1  0  0  0  0
 23 21  1  0  0  0  0
 24 27  1  0  0  0  0
 24 11  1  0  0  0  0
 25 26  1  0  0  0  0
 26 34  2  0  0  0  0
 26 27  1  0  0  0  0
 27 28  2  0  0  0  0
 28 30  1  0  0  0  0
 28 29  1  0  0  0  0
 30 31  1  0  0  0  0
 32 33  1  0  0  0  0
 32 30  2  0  0  0  0
 34 32  1  0  0  0  0
 35 34  1  0  0  0  0
M  END
>  <minimizedAffinity>
-5.12202692

>  <minimizedRMSD>
0.555429757

$$$$
