
 OpenBabel03252506463D

 44 47  0  0  1  0  0  0  0  0999 V2000
   49.1430   33.1600   41.4530 N   0  0  1  0  0  0  0  0  0  0  0  0
   50.5180   33.1300   41.8740 C   0  0  0  0  0  0  0  0  0  0  0  0
   51.1990   31.8230   41.6080 C   0  0  0  0  0  0  0  0  0  0  0  0
   50.5720   30.7570   42.4820 C   0  0  0  0  0  0  0  0  0  0  0  0
   49.0770   30.9730   42.5940 C   0  0  0  0  0  0  0  0  0  0  0  0
   48.5970   31.8300   41.4350 C   0  0  2  0  0  0  0  0  0  0  0  0
   51.0470   33.8930   41.2510 H   0  0  0  0  0  0  0  0  0  0  0  0
   50.6500   33.3910   42.9390 H   0  0  0  0  0  0  0  0  0  0  0  0
   52.2390   31.9390   41.9870 H   0  0  0  0  0  0  0  0  0  0  0  0
   51.2810   31.5560   40.5540 H   0  0  0  0  0  0  0  0  0  0  0  0
   50.7300   29.7950   41.9590 H   0  0  0  0  0  0  0  0  0  0  0  0
   51.0560   30.6720   43.4710 H   0  0  0  0  0  0  0  0  0  0  0  0
   48.8010   31.5200   43.5200 H   0  0  0  0  0  0  0  0  0  0  0  0
   48.5270   30.0150   42.5320 H   0  0  0  0  0  0  0  0  0  0  0  0
   47.4940   31.9290   41.5590 H   0  0  0  0  0  0  0  0  0  0  0  0
   47.0510   34.5630   42.0450 C   0  0  1  0  0  0  0  0  0  0  0  0
   48.2150   35.4350   41.7590 C   0  0  0  0  0  0  0  0  0  0  0  0
   48.4340   34.0710   42.2750 C   0  0  2  0  0  0  0  0  0  0  0  0
   46.4880   34.1580   41.1890 H   0  0  0  0  0  0  0  0  0  0  0  0
   48.4100   35.6550   40.6940 H   0  0  0  0  0  0  0  0  0  0  0  0
   48.3260   36.3450   42.3970 H   0  0  0  0  0  0  0  0  0  0  0  0
   48.7280   34.0340   43.3640 H   0  0  0  0  0  0  0  0  0  0  0  0
   45.4160   36.0510   43.2350 C   0  0  0  0  0  0  0  0  0  0  0  0
   46.1830   34.8670   43.2030 C   0  0  0  0  0  0  0  0  0  0  0  0
   46.0870   33.9920   44.2960 C   0  0  0  0  0  0  0  0  0  0  0  0
   45.2660   34.3320   45.3210 N   0  0  0  0  0  0  0  0  0  0  0  0
   44.5480   35.4720   45.3200 C   0  0  0  0  0  0  0  0  0  0  0  0
   44.6120   36.3450   44.2790 N   0  0  0  0  0  0  0  0  0  0  0  0
   45.4700   36.7410   42.4090 H   0  0  0  0  0  0  0  0  0  0  0  0
   46.6620   33.0820   44.2960 H   0  0  0  0  0  0  0  0  0  0  0  0
   43.9560   35.5570   46.2290 H   0  0  0  0  0  0  0  0  0  0  0  0
   48.8110   31.1200   40.2150 N   0  0  0  0  0  0  0  0  0  0  0  0
   49.1470   30.1100   40.2610 H   0  0  0  0  0  0  0  0  0  0  0  0
   46.0640   31.9480   39.2170 Cl  0  0  0  0  0  0  0  0  0  0  0  0
   47.4920   31.8930   38.2050 C   0  0  0  0  0  0  0  0  0  0  0  0
   48.6670   31.4870   38.8510 C   0  0  0  0  0  0  0  0  0  0  0  0
   49.7980   31.4430   38.0490 C   0  0  0  0  0  0  0  0  0  0  0  0
   50.7260   31.1430   38.4660 H   0  0  0  0  0  0  0  0  0  0  0  0
   49.8430   31.7600   36.7060 C   0  0  0  0  0  0  0  0  0  0  0  0
   50.7460   31.7090   36.1340 H   0  0  0  0  0  0  0  0  0  0  0  0
   48.6640   32.1560   36.0990 C   0  0  0  0  0  0  0  0  0  0  0  0
   48.5990   32.4250   35.0560 H   0  0  0  0  0  0  0  0  0  0  0  0
   47.5220   32.2110   36.8670 C   0  0  0  0  0  0  0  0  0  0  0  0
   45.9540   32.6950   36.2430 Cl  0  0  0  0  0  0  0  0  0  0  0  0
  1  2  1  1  0  0  0
  1 18  1  0  0  0  0
  2  8  1  0  0  0  0
  3  2  1  0  0  0  0
  3  9  1  0  0  0  0
  3  4  1  0  0  0  0
  4  5  1  0  0  0  0
  4 12  1  0  0  0  0
  5 13  1  0  0  0  0
  6  1  1  0  0  0  0
  6 15  1  1  0  0  0
  6  5  1  0  0  0  0
  7  2  1  0  0  0  0
 10  3  1  0  0  0  0
 11  4  1  0  0  0  0
 14  5  1  0  0  0  0
 16 19  1  6  0  0  0
 16 18  1  0  0  0  0
 16 24  1  0  0  0  0
 17 16  1  0  0  0  0
 17 18  1  0  0  0  0
 17 21  1  0  0  0  0
 18 22  1  1  0  0  0
 20 17  1  0  0  0  0
 23 28  1  0  0  0  0
 24 23  2  0  0  0  0
 24 25  1  0  0  0  0
 25 26  2  0  0  0  0
 27 26  1  0  0  0  0
 27 31  1  0  0  0  0
 28 27  2  0  0  0  0
 29 23  1  0  0  0  0
 30 25  1  0  0  0  0
 32 33  1  0  0  0  0
 32  6  1  0  0  0  0
 35 36  1  0  0  0  0
 35 34  1  0  0  0  0
 36 32  1  0  0  0  0
 37 38  1  0  0  0  0
 37 36  2  0  0  0  0
 39 37  1  0  0  0  0
 40 39  1  0  0  0  0
 41 39  2  0  0  0  0
 41 43  1  0  0  0  0
 42 41  1  0  0  0  0
 43 35  2  0  0  0  0
 44 43  1  0  0  0  0
M  END
>  <minimizedAffinity>
-5.11228943

>  <minimizedRMSD>
0.222853795

$$$$
