
 OpenBabel03252507213D

 46 49  0  0  1  0  0  0  0  0999 V2000
   39.1210   29.2740   40.4230 C   0  0  0  0  0  0  0  0  0  0  0  0
   39.7460   28.8000   39.4290 O   0  0  0  0  0  0  0  0  0  0  0  0
   38.6170   28.4850   41.5020 N   0  0  0  0  0  0  0  0  0  0  0  0
   38.6680   28.7080   42.9460 C   0  0  0  0  0  0  0  0  0  0  0  0
   37.2580   28.5810   43.5370 C   0  0  0  0  0  0  0  0  0  0  0  0
   36.7520   27.1750   43.3390 C   0  0  0  0  0  0  0  0  0  0  0  0
   37.6270   26.4490   42.3540 C   0  0  0  0  0  0  0  0  0  0  0  0
   37.9370   27.2720   41.1390 C   0  0  2  0  0  0  0  0  0  0  0  0
   39.4040   28.0800   43.4510 H   0  0  0  0  0  0  0  0  0  0  0  0
   38.9450   29.7940   43.0410 H   0  0  0  0  0  0  0  0  0  0  0  0
   37.2590   28.9270   44.5680 H   0  0  0  0  0  0  0  0  0  0  0  0
   36.6560   29.3130   42.9460 H   0  0  0  0  0  0  0  0  0  0  0  0
   36.8380   26.6500   44.3120 H   0  0  0  0  0  0  0  0  0  0  0  0
   35.6830   27.1610   43.0420 H   0  0  0  0  0  0  0  0  0  0  0  0
   37.1370   25.5040   42.0200 H   0  0  0  0  0  0  0  0  0  0  0  0
   38.5790   26.1750   42.8700 H   0  0  0  0  0  0  0  0  0  0  0  0
   36.9720   27.5810   40.6870 H   0  0  0  0  0  0  0  0  0  0  0  0
   36.1820   26.0660   39.1040 Cl  0  0  0  0  0  0  0  0  0  0  0  0
   37.9240   25.7940   39.1440 C   0  0  0  0  0  0  0  0  0  0  0  0
   38.6540   26.4260   40.1580 C   0  0  0  0  0  0  0  0  0  0  0  0
   40.0060   26.1550   40.1080 C   0  0  0  0  0  0  0  0  0  0  0  0
   40.6020   26.6370   40.8920 H   0  0  0  0  0  0  0  0  0  0  0  0
   40.5500   25.3390   39.1410 C   0  0  0  0  0  0  0  0  0  0  0  0
   41.6340   25.1830   39.1820 H   0  0  0  0  0  0  0  0  0  0  0  0
   39.7810   24.7430   38.1660 C   0  0  0  0  0  0  0  0  0  0  0  0
   40.1960   24.1090   37.4140 H   0  0  0  0  0  0  0  0  0  0  0  0
   38.4240   24.9730   38.1600 C   0  0  0  0  0  0  0  0  0  0  0  0
   37.4120   24.2500   36.9580 Cl  0  0  0  0  0  0  0  0  0  0  0  0
   39.9680   31.5120   40.9390 C   0  0  0  0  0  0  0  0  0  0  0  0
   38.9140   30.6970   40.4570 C   0  0  0  0  0  0  0  0  0  0  0  0
   37.7400   31.2920   40.0450 C   0  0  0  0  0  0  0  0  0  0  0  0
   37.6390   32.6380   40.1160 N   0  0  0  0  0  0  0  0  0  0  0  0
   38.6380   33.4300   40.5750 C   0  0  0  0  0  0  0  0  0  0  0  0
   39.7870   32.8480   40.9790 N   0  0  0  0  0  0  0  0  0  0  0  0
   40.8740   31.0380   41.2550 H   0  0  0  0  0  0  0  0  0  0  0  0
   38.5360   34.5050   40.6240 H   0  0  0  0  0  0  0  0  0  0  0  0
   36.6680   30.4480   39.5620 C   0  0  0  0  0  0  0  0  0  0  0  0
   35.7040   30.0060   40.4180 C   0  0  0  0  0  0  0  0  0  0  0  0
   34.6910   29.2060   39.9420 C   0  0  0  0  0  0  0  0  0  0  0  0
   34.5990   28.8170   38.6110 C   0  0  0  0  0  0  0  0  0  0  0  0
   35.6050   29.2930   37.7880 C   0  0  0  0  0  0  0  0  0  0  0  0
   36.5750   30.0720   38.2850 N   0  0  0  0  0  0  0  0  0  0  0  0
   35.6190   30.2000   41.4720 H   0  0  0  0  0  0  0  0  0  0  0  0
   33.8810   28.8120   40.5710 H   0  0  0  0  0  0  0  0  0  0  0  0
   33.8160   28.1930   38.2310 H   0  0  0  0  0  0  0  0  0  0  0  0
   35.5980   29.0290   36.7260 H   0  0  0  0  0  0  0  0  0  0  0  0
  1 30  1  0  0  0  0
  1  3  1  0  0  0  0
  2  1  2  0  0  0  0
  3  4  1  0  0  0  0
  4 10  1  0  0  0  0
  4  9  1  0  0  0  0
  4  5  1  0  0  0  0
  5 11  1  0  0  0  0
  6  5  1  0  0  0  0
  6 13  1  0  0  0  0
  7 16  1  0  0  0  0
  7  6  1  0  0  0  0
  8 17  1  6  0  0  0
  8  3  1  0  0  0  0
  8  7  1  0  0  0  0
 12  5  1  0  0  0  0
 14  6  1  0  0  0  0
 15  7  1  0  0  0  0
 18 19  1  0  0  0  0
 19 20  1  0  0  0  0
 20  8  1  0  0  0  0
 21 20  2  0  0  0  0
 21 22  1  0  0  0  0
 23 24  1  0  0  0  0
 23 21  1  0  0  0  0
 25 23  2  0  0  0  0
 26 25  1  0  0  0  0
 27 25  1  0  0  0  0
 27 19  2  0  0  0  0
 28 27  1  0  0  0  0
 29 34  1  0  0  0  0
 29 35  1  0  0  0  0
 30 29  2  0  0  0  0
 31 32  2  0  0  0  0
 31 30  1  0  0  0  0
 32 33  1  0  0  0  0
 33 36  1  0  0  0  0
 33 34  2  0  0  0  0
 37 31  1  0  0  0  0
 37 38  1  0  0  0  0
 38 43  1  0  0  0  0
 39 38  2  0  0  0  0
 39 44  1  0  0  0  0
 40 39  1  0  0  0  0
 41 42  1  0  0  0  0
 41 40  2  0  0  0  0
 42 37  2  0  0  0  0
 45 40  1  0  0  0  0
 46 41  1  0  0  0  0
M  END
>  <minimizedAffinity>
-6.27191448

$$$$

 OpenBabel03252507213D

 46 49  0  0  1  0  0  0  0  0999 V2000
   39.1760   29.1070   39.7570 C   0  0  0  0  0  0  0  0  0  0  0  0
   38.5610   28.2580   39.0470 O   0  0  0  0  0  0  0  0  0  0  0  0
   38.7450   30.4560   39.9460 N   0  0  0  0  0  0  0  0  0  0  0  0
   38.6760   31.2700   41.1580 C   0  0  0  0  0  0  0  0  0  0  0  0
   39.3910   32.6060   40.9230 C   0  0  0  0  0  0  0  0  0  0  0  0
   38.6750   33.3810   39.8470 C   0  0  0  0  0  0  0  0  0  0  0  0
   37.7090   32.4820   39.1250 C   0  0  0  0  0  0  0  0  0  0  0  0
   38.3090   31.1540   38.7680 C   0  0  2  0  0  0  0  0  0  0  0  0
   37.6590   31.3890   41.5380 H   0  0  0  0  0  0  0  0  0  0  0  0
   39.3090   30.7070   41.8970 H   0  0  0  0  0  0  0  0  0  0  0  0
   39.5060   33.1330   41.8690 H   0  0  0  0  0  0  0  0  0  0  0  0
   40.4130   32.3040   40.5900 H   0  0  0  0  0  0  0  0  0  0  0  0
   38.0840   34.1760   40.3460 H   0  0  0  0  0  0  0  0  0  0  0  0
   39.3870   33.8750   39.1540 H   0  0  0  0  0  0  0  0  0  0  0  0
   37.3520   32.9680   38.1860 H   0  0  0  0  0  0  0  0  0  0  0  0
   36.8220   32.3240   39.7850 H   0  0  0  0  0  0  0  0  0  0  0  0
   39.2220   31.3490   38.1680 H   0  0  0  0  0  0  0  0  0  0  0  0
   35.8040   30.4440   40.1450 Cl  0  0  0  0  0  0  0  0  0  0  0  0
   36.1260   30.0110   38.4660 C   0  0  0  0  0  0  0  0  0  0  0  0
   37.3520   30.4090   37.9200 C   0  0  0  0  0  0  0  0  0  0  0  0
   37.5140   30.0260   36.6040 C   0  0  0  0  0  0  0  0  0  0  0  0
   38.4670   30.3230   36.1500 H   0  0  0  0  0  0  0  0  0  0  0  0
   36.5430   29.3230   35.9250 C   0  0  0  0  0  0  0  0  0  0  0  0
   36.7610   29.0640   34.8830 H   0  0  0  0  0  0  0  0  0  0  0  0
   35.3530   28.9580   36.5150 C   0  0  0  0  0  0  0  0  0  0  0  0
   34.5970   28.4130   35.9950 H   0  0  0  0  0  0  0  0  0  0  0  0
   35.1300   29.3100   37.8280 C   0  0  0  0  0  0  0  0  0  0  0  0
   33.6530   28.8780   38.6180 Cl  0  0  0  0  0  0  0  0  0  0  0  0
   41.6210   28.9980   39.8030 C   0  0  0  0  0  0  0  0  0  0  0  0
   40.3830   28.6740   40.4100 C   0  0  0  0  0  0  0  0  0  0  0  0
   40.3800   27.9620   41.5900 C   0  0  0  0  0  0  0  0  0  0  0  0
   41.5660   27.5980   42.1270 N   0  0  0  0  0  0  0  0  0  0  0  0
   42.7570   27.9000   41.5580 C   0  0  0  0  0  0  0  0  0  0  0  0
   42.7610   28.5970   40.4020 N   0  0  0  0  0  0  0  0  0  0  0  0
   41.6090   29.5520   38.8870 H   0  0  0  0  0  0  0  0  0  0  0  0
   43.6950   27.5980   42.0040 H   0  0  0  0  0  0  0  0  0  0  0  0
   39.1090   27.6310   42.1970 C   0  0  0  0  0  0  0  0  0  0  0  0
   38.5450   28.4700   43.1120 C   0  0  0  0  0  0  0  0  0  0  0  0
   37.3360   28.1400   43.6790 C   0  0  0  0  0  0  0  0  0  0  0  0
   36.6470   26.9760   43.3620 C   0  0  0  0  0  0  0  0  0  0  0  0
   37.2650   26.1620   42.4290 C   0  0  0  0  0  0  0  0  0  0  0  0
   38.4420   26.5140   41.8970 N   0  0  0  0  0  0  0  0  0  0  0  0
   38.9350   29.4020   43.4800 H   0  0  0  0  0  0  0  0  0  0  0  0
   36.8220   28.7650   44.4220 H   0  0  0  0  0  0  0  0  0  0  0  0
   35.7050   26.7090   43.7980 H   0  0  0  0  0  0  0  0  0  0  0  0
   36.7810   25.2270   42.1290 H   0  0  0  0  0  0  0  0  0  0  0  0
  1  3  1  0  0  0  0
  1 30  1  0  0  0  0
  2  1  2  0  0  0  0
  3  4  1  0  0  0  0
  4  9  1  0  0  0  0
  4 10  1  0  0  0  0
  5  4  1  0  0  0  0
  5 11  1  0  0  0  0
  6 13  1  0  0  0  0
  6  5  1  0  0  0  0
  7 16  1  0  0  0  0
  7  6  1  0  0  0  0
  8 17  1  6  0  0  0
  8  7  1  0  0  0  0
  8  3  1  0  0  0  0
 12  5  1  0  0  0  0
 14  6  1  0  0  0  0
 15  7  1  0  0  0  0
 19 18  1  0  0  0  0
 20 19  1  0  0  0  0
 20  8  1  0  0  0  0
 21 20  2  0  0  0  0
 22 21  1  0  0  0  0
 23 25  2  0  0  0  0
 23 21  1  0  0  0  0
 24 23  1  0  0  0  0
 25 27  1  0  0  0  0
 26 25  1  0  0  0  0
 27 19  2  0  0  0  0
 27 28  1  0  0  0  0
 29 34  2  0  0  0  0
 29 30  1  0  0  0  0
 30 31  2  0  0  0  0
 31 32  1  0  0  0  0
 31 37  1  0  0  0  0
 33 36  1  0  0  0  0
 33 32  2  0  0  0  0
 34 33  1  0  0  0  0
 35 29  1  0  0  0  0
 37 38  1  0  0  0  0
 38 43  1  0  0  0  0
 38 39  2  0  0  0  0
 39 44  1  0  0  0  0
 40 39  1  0  0  0  0
 40 45  1  0  0  0  0
 41 40  2  0  0  0  0
 42 37  2  0  0  0  0
 42 41  1  0  0  0  0
 46 41  1  0  0  0  0
M  END
>  <minimizedAffinity>
-6.17901278

$$$$

 OpenBabel03252507213D

 46 49  0  0  1  0  0  0  0  0999 V2000
   38.1060   30.2590   39.8040 C   0  0  0  0  0  0  0  0  0  0  0  0
   37.5570   30.1460   38.6690 O   0  0  0  0  0  0  0  0  0  0  0  0
   37.9130   29.3430   40.8830 N   0  0  0  0  0  0  0  0  0  0  0  0
   38.8770   28.7460   41.8060 C   0  0  0  0  0  0  0  0  0  0  0  0
   38.4100   28.9640   43.2500 C   0  0  0  0  0  0  0  0  0  0  0  0
   37.1030   28.2460   43.4730 C   0  0  0  0  0  0  0  0  0  0  0  0
   36.5140   27.8330   42.1520 C   0  0  0  0  0  0  0  0  0  0  0  0
   36.5590   28.9280   41.1290 C   0  0  2  0  0  0  0  0  0  0  0  0
   39.0970   27.7010   41.5790 H   0  0  0  0  0  0  0  0  0  0  0  0
   39.7970   29.3790   41.6810 H   0  0  0  0  0  0  0  0  0  0  0  0
   39.2060   28.6910   43.9400 H   0  0  0  0  0  0  0  0  0  0  0  0
   38.2790   30.0700   43.3220 H   0  0  0  0  0  0  0  0  0  0  0  0
   37.3240   27.3210   44.0450 H   0  0  0  0  0  0  0  0  0  0  0  0
   36.3980   28.8550   44.0760 H   0  0  0  0  0  0  0  0  0  0  0  0
   35.4510   27.5190   42.2810 H   0  0  0  0  0  0  0  0  0  0  0  0
   37.0860   26.9500   41.7770 H   0  0  0  0  0  0  0  0  0  0  0  0
   36.0390   29.8100   41.5580 H   0  0  0  0  0  0  0  0  0  0  0  0
   37.6060   26.4600   39.9090 Cl  0  0  0  0  0  0  0  0  0  0  0  0
   36.2200   27.3340   39.2570 C   0  0  0  0  0  0  0  0  0  0  0  0
   35.8120   28.4930   39.9280 C   0  0  0  0  0  0  0  0  0  0  0  0
   34.7230   29.1080   39.3450 C   0  0  0  0  0  0  0  0  0  0  0  0
   34.3820   30.0200   39.8500 H   0  0  0  0  0  0  0  0  0  0  0  0
   34.1190   28.6020   38.2150 C   0  0  0  0  0  0  0  0  0  0  0  0
   33.2590   29.1580   37.8250 H   0  0  0  0  0  0  0  0  0  0  0  0
   34.5640   27.4540   37.5960 C   0  0  0  0  0  0  0  0  0  0  0  0
   34.1020   27.0570   36.7200 H   0  0  0  0  0  0  0  0  0  0  0  0
   35.6490   26.7930   38.1280 C   0  0  0  0  0  0  0  0  0  0  0  0
   36.2490   25.3480   37.3920 Cl  0  0  0  0  0  0  0  0  0  0  0  0
   38.4480   32.5310   40.6500 C   0  0  0  0  0  0  0  0  0  0  0  0
   38.9790   31.3850   40.0070 C   0  0  0  0  0  0  0  0  0  0  0  0
   40.2970   31.3930   39.6030 C   0  0  0  0  0  0  0  0  0  0  0  0
   41.0370   32.4990   39.8370 N   0  0  0  0  0  0  0  0  0  0  0  0
   40.5440   33.6010   40.4500 C   0  0  0  0  0  0  0  0  0  0  0  0
   39.2530   33.5950   40.8460 N   0  0  0  0  0  0  0  0  0  0  0  0
   37.4240   32.5120   40.9600 H   0  0  0  0  0  0  0  0  0  0  0  0
   41.1540   34.4760   40.6260 H   0  0  0  0  0  0  0  0  0  0  0  0
   40.8250   30.2190   38.9410 C   0  0  0  0  0  0  0  0  0  0  0  0
   40.8200   30.1380   37.5800 C   0  0  0  0  0  0  0  0  0  0  0  0
   41.3270   29.0160   36.9660 C   0  0  0  0  0  0  0  0  0  0  0  0
   41.8520   27.9420   37.6730 C   0  0  0  0  0  0  0  0  0  0  0  0
   41.8310   28.0780   39.0510 C   0  0  0  0  0  0  0  0  0  0  0  0
   41.3310   29.1850   39.6140 N   0  0  0  0  0  0  0  0  0  0  0  0
   40.4510   30.8640   36.8770 H   0  0  0  0  0  0  0  0  0  0  0  0
   41.3560   28.8800   35.8760 H   0  0  0  0  0  0  0  0  0  0  0  0
   42.2480   27.0630   37.2050 H   0  0  0  0  0  0  0  0  0  0  0  0
   42.2300   27.2710   39.6740 H   0  0  0  0  0  0  0  0  0  0  0  0
  1 30  1  0  0  0  0
  1  3  1  0  0  0  0
  2  1  2  0  0  0  0
  3  8  1  0  0  0  0
  3  4  1  0  0  0  0
  4  5  1  0  0  0  0
  5 12  1  0  0  0  0
  5  6  1  0  0  0  0
  5 11  1  0  0  0  0
  6 13  1  0  0  0  0
  6 14  1  0  0  0  0
  7 15  1  0  0  0  0
  7  6  1  0  0  0  0
  8 17  1  1  0  0  0
  8  7  1  0  0  0  0
  9  4  1  0  0  0  0
 10  4  1  0  0  0  0
 16  7  1  0  0  0  0
 19 18  1  0  0  0  0
 19 20  1  0  0  0  0
 20  8  1  0  0  0  0
 21 22  1  0  0  0  0
 21 20  2  0  0  0  0
 23 21  1  0  0  0  0
 24 23  1  0  0  0  0
 25 27  1  0  0  0  0
 25 23  2  0  0  0  0
 26 25  1  0  0  0  0
 27 19  2  0  0  0  0
 28 27  1  0  0  0  0
 29 34  1  0  0  0  0
 29 35  1  0  0  0  0
 30 29  2  0  0  0  0
 31 32  2  0  0  0  0
 31 30  1  0  0  0  0
 32 33  1  0  0  0  0
 33 36  1  0  0  0  0
 33 34  2  0  0  0  0
 37 31  1  0  0  0  0
 37 42  1  0  0  0  0
 38 37  2  0  0  0  0
 39 38  1  0  0  0  0
 39 40  2  0  0  0  0
 40 41  1  0  0  0  0
 41 42  2  0  0  0  0
 41 46  1  0  0  0  0
 43 38  1  0  0  0  0
 44 39  1  0  0  0  0
 45 40  1  0  0  0  0
M  END
>  <minimizedAffinity>
-6.03590393

$$$$

 OpenBabel03252507213D

 46 49  0  0  1  0  0  0  0  0999 V2000
   39.0560   30.0530   40.7330 C   0  0  0  0  0  0  0  0  0  0  0  0
   38.6120   29.5270   41.7950 O   0  0  0  0  0  0  0  0  0  0  0  0
   39.8720   29.3690   39.7810 N   0  0  0  0  0  0  0  0  0  0  0  0
   39.8090   29.3430   38.3200 C   0  0  0  0  0  0  0  0  0  0  0  0
   41.1870   29.6790   37.7390 C   0  0  0  0  0  0  0  0  0  0  0  0
   42.1790   28.6180   38.1430 C   0  0  0  0  0  0  0  0  0  0  0  0
   41.5990   27.7660   39.2380 C   0  0  0  0  0  0  0  0  0  0  0  0
   40.9430   28.5750   40.3170 C   0  0  2  0  0  0  0  0  0  0  0  0
   39.3910   28.4150   37.9260 H   0  0  0  0  0  0  0  0  0  0  0  0
   39.1450   30.2140   38.0640 H   0  0  0  0  0  0  0  0  0  0  0  0
   41.1040   29.8440   36.6660 H   0  0  0  0  0  0  0  0  0  0  0  0
   41.4380   30.6630   38.2030 H   0  0  0  0  0  0  0  0  0  0  0  0
   42.3450   27.9640   37.2620 H   0  0  0  0  0  0  0  0  0  0  0  0
   43.1580   29.0580   38.4250 H   0  0  0  0  0  0  0  0  0  0  0  0
   42.3950   27.1390   39.7060 H   0  0  0  0  0  0  0  0  0  0  0  0
   40.8490   27.0760   38.7820 H   0  0  0  0  0  0  0  0  0  0  0  0
   41.6970   29.2920   40.7040 H   0  0  0  0  0  0  0  0  0  0  0  0
   39.0330   26.4760   39.5270 Cl  0  0  0  0  0  0  0  0  0  0  0  0
   39.6480   26.6370   41.1720 C   0  0  0  0  0  0  0  0  0  0  0  0
   40.5560   27.6720   41.4240 C   0  0  0  0  0  0  0  0  0  0  0  0
   40.9800   27.7200   42.7360 C   0  0  0  0  0  0  0  0  0  0  0  0
   41.6920   28.5230   42.9630 H   0  0  0  0  0  0  0  0  0  0  0  0
   40.5350   26.8190   43.6790 C   0  0  0  0  0  0  0  0  0  0  0  0
   40.9290   26.9350   44.6950 H   0  0  0  0  0  0  0  0  0  0  0  0
   39.6390   25.8180   43.3720 C   0  0  0  0  0  0  0  0  0  0  0  0
   39.2890   25.1170   44.0970 H   0  0  0  0  0  0  0  0  0  0  0  0
   39.1760   25.7170   42.0790 C   0  0  0  0  0  0  0  0  0  0  0  0
   38.0510   24.4790   41.6390 Cl  0  0  0  0  0  0  0  0  0  0  0  0
   39.6300   32.4290   40.8750 C   0  0  0  0  0  0  0  0  0  0  0  0
   38.7090   31.4270   40.4790 C   0  0  0  0  0  0  0  0  0  0  0  0
   37.5280   31.8010   39.8750 C   0  0  0  0  0  0  0  0  0  0  0  0
   37.2910   33.1170   39.6810 N   0  0  0  0  0  0  0  0  0  0  0  0
   38.1610   34.0860   40.0530 C   0  0  0  0  0  0  0  0  0  0  0  0
   39.3180   33.7210   40.6460 N   0  0  0  0  0  0  0  0  0  0  0  0
   40.5430   32.1250   41.3420 H   0  0  0  0  0  0  0  0  0  0  0  0
   37.9510   35.1340   39.8890 H   0  0  0  0  0  0  0  0  0  0  0  0
   36.5930   30.7680   39.4820 C   0  0  0  0  0  0  0  0  0  0  0  0
   35.7480   30.2220   40.4020 C   0  0  0  0  0  0  0  0  0  0  0  0
   34.8650   29.2420   40.0120 C   0  0  0  0  0  0  0  0  0  0  0  0
   34.7880   28.7710   38.7070 C   0  0  0  0  0  0  0  0  0  0  0  0
   35.6700   29.3600   37.8170 C   0  0  0  0  0  0  0  0  0  0  0  0
   36.5150   30.3120   38.2310 N   0  0  0  0  0  0  0  0  0  0  0  0
   35.6720   30.4560   41.4490 H   0  0  0  0  0  0  0  0  0  0  0  0
   34.1550   28.7550   40.6950 H   0  0  0  0  0  0  0  0  0  0  0  0
   34.1050   28.0070   38.3930 H   0  0  0  0  0  0  0  0  0  0  0  0
   35.6670   29.0400   36.7700 H   0  0  0  0  0  0  0  0  0  0  0  0
  1  2  2  0  0  0  0
  3  8  1  0  0  0  0
  3  1  1  0  0  0  0
  4  3  1  0  0  0  0
  5  6  1  0  0  0  0
  5 12  1  0  0  0  0
  5  4  1  0  0  0  0
  6 14  1  0  0  0  0
  6  7  1  0  0  0  0
  7 15  1  0  0  0  0
  7  8  1  0  0  0  0
  8 17  1  1  0  0  0
  8 20  1  0  0  0  0
  9  4  1  0  0  0  0
 10  4  1  0  0  0  0
 11  5  1  0  0  0  0
 13  6  1  0  0  0  0
 16  7  1  0  0  0  0
 18 19  1  0  0  0  0
 19 20  2  0  0  0  0
 19 27  1  0  0  0  0
 20 21  1  0  0  0  0
 21 22  1  0  0  0  0
 21 23  2  0  0  0  0
 23 24  1  0  0  0  0
 25 23  1  0  0  0  0
 25 26  1  0  0  0  0
 27 25  2  0  0  0  0
 28 27  1  0  0  0  0
 29 35  1  0  0  0  0
 30  1  1  0  0  0  0
 30 29  2  0  0  0  0
 31 30  1  0  0  0  0
 32 31  2  0  0  0  0
 32 33  1  0  0  0  0
 33 34  2  0  0  0  0
 34 29  1  0  0  0  0
 36 33  1  0  0  0  0
 37 31  1  0  0  0  0
 37 38  1  0  0  0  0
 38 43  1  0  0  0  0
 39 38  2  0  0  0  0
 39 44  1  0  0  0  0
 40 39  1  0  0  0  0
 41 42  1  0  0  0  0
 41 40  2  0  0  0  0
 42 37  2  0  0  0  0
 45 40  1  0  0  0  0
 46 41  1  0  0  0  0
M  END
>  <minimizedAffinity>
-5.99338675

$$$$

 OpenBabel03252507213D

 46 49  0  0  1  0  0  0  0  0999 V2000
   39.5410   29.8920   40.8640 C   0  0  0  0  0  0  0  0  0  0  0  0
   38.3160   29.5730   40.8470 O   0  0  0  0  0  0  0  0  0  0  0  0
   40.5600   29.1230   41.5050 N   0  0  0  0  0  0  0  0  0  0  0  0
   41.8970   28.7480   41.0450 C   0  0  0  0  0  0  0  0  0  0  0  0
   42.9320   29.1250   42.1110 C   0  0  0  0  0  0  0  0  0  0  0  0
   42.6740   28.3350   43.3690 C   0  0  0  0  0  0  0  0  0  0  0  0
   41.3170   27.6900   43.3000 C   0  0  0  0  0  0  0  0  0  0  0  0
   40.2530   28.6310   42.8190 C   0  0  2  0  0  0  0  0  0  0  0  0
   41.9650   27.7050   40.7310 H   0  0  0  0  0  0  0  0  0  0  0  0
   42.0850   29.4350   40.1760 H   0  0  0  0  0  0  0  0  0  0  0  0
   43.9360   29.0220   41.7020 H   0  0  0  0  0  0  0  0  0  0  0  0
   42.7570   30.2150   42.2780 H   0  0  0  0  0  0  0  0  0  0  0  0
   43.4290   27.5220   43.4130 H   0  0  0  0  0  0  0  0  0  0  0  0
   42.7980   28.9580   44.2780 H   0  0  0  0  0  0  0  0  0  0  0  0
   41.0170   27.3060   44.3030 H   0  0  0  0  0  0  0  0  0  0  0  0
   41.3820   26.8170   42.6070 H   0  0  0  0  0  0  0  0  0  0  0  0
   40.2590   29.5150   43.4900 H   0  0  0  0  0  0  0  0  0  0  0  0
   40.0570   26.0890   41.3440 Cl  0  0  0  0  0  0  0  0  0  0  0  0
   38.7200   26.7540   42.2820 C   0  0  0  0  0  0  0  0  0  0  0  0
   38.9350   27.9680   42.9440 C   0  0  0  0  0  0  0  0  0  0  0  0
   37.8350   28.4090   43.6500 C   0  0  0  0  0  0  0  0  0  0  0  0
   37.9750   29.3600   44.1780 H   0  0  0  0  0  0  0  0  0  0  0  0
   36.6550   27.6970   43.6800 C   0  0  0  0  0  0  0  0  0  0  0  0
   35.8360   28.1260   44.2680 H   0  0  0  0  0  0  0  0  0  0  0  0
   36.5010   26.5050   43.0070 C   0  0  0  0  0  0  0  0  0  0  0  0
   35.5900   25.9480   43.0260 H   0  0  0  0  0  0  0  0  0  0  0  0
   37.5630   26.0100   42.2830 C   0  0  0  0  0  0  0  0  0  0  0  0
   37.4230   24.5170   41.4210 Cl  0  0  0  0  0  0  0  0  0  0  0  0
   40.2490   32.2330   40.9860 C   0  0  0  0  0  0  0  0  0  0  0  0
   39.9180   31.1070   40.1910 C   0  0  0  0  0  0  0  0  0  0  0  0
   39.9670   31.2180   38.8180 C   0  0  0  0  0  0  0  0  0  0  0  0
   40.3310   32.4020   38.2790 N   0  0  0  0  0  0  0  0  0  0  0  0
   40.6500   33.4870   39.0250 C   0  0  0  0  0  0  0  0  0  0  0  0
   40.6020   33.3790   40.3700 N   0  0  0  0  0  0  0  0  0  0  0  0
   40.2070   32.1330   42.0510 H   0  0  0  0  0  0  0  0  0  0  0  0
   40.9380   34.4250   38.5730 H   0  0  0  0  0  0  0  0  0  0  0  0
   39.6200   30.0640   38.0170 C   0  0  0  0  0  0  0  0  0  0  0  0
   40.5750   29.1540   37.6740 C   0  0  0  0  0  0  0  0  0  0  0  0
   40.2270   28.0620   36.9130 C   0  0  0  0  0  0  0  0  0  0  0  0
   38.9320   27.8340   36.4670 C   0  0  0  0  0  0  0  0  0  0  0  0
   38.0040   28.7900   36.8430 C   0  0  0  0  0  0  0  0  0  0  0  0
   38.3770   29.8410   37.5860 N   0  0  0  0  0  0  0  0  0  0  0  0
   41.6210   29.1700   37.9230 H   0  0  0  0  0  0  0  0  0  0  0  0
   40.9410   27.2880   36.5990 H   0  0  0  0  0  0  0  0  0  0  0  0
   38.6510   26.9880   35.8720 H   0  0  0  0  0  0  0  0  0  0  0  0
   36.9620   28.6780   36.5280 H   0  0  0  0  0  0  0  0  0  0  0  0
  1  3  1  0  0  0  0
  2  1  2  0  0  0  0
  3  8  1  0  0  0  0
  4  3  1  0  0  0  0
  4  5  1  0  0  0  0
  5 12  1  0  0  0  0
  5  6  1  0  0  0  0
  6 13  1  0  0  0  0
  6 14  1  0  0  0  0
  7  6  1  0  0  0  0
  7 15  1  0  0  0  0
  8 20  1  0  0  0  0
  8  7  1  0  0  0  0
  8 17  1  1  0  0  0
  9  4  1  0  0  0  0
 10  4  1  0  0  0  0
 11  5  1  0  0  0  0
 16  7  1  0  0  0  0
 18 19  1  0  0  0  0
 19 27  2  0  0  0  0
 19 20  1  0  0  0  0
 20 21  2  0  0  0  0
 21 23  1  0  0  0  0
 21 22  1  0  0  0  0
 23 24  1  0  0  0  0
 25 26  1  0  0  0  0
 25 23  2  0  0  0  0
 27 25  1  0  0  0  0
 28 27  1  0  0  0  0
 29 35  1  0  0  0  0
 30  1  1  0  0  0  0
 30 29  2  0  0  0  0
 31 30  1  0  0  0  0
 32 31  2  0  0  0  0
 32 33  1  0  0  0  0
 33 34  2  0  0  0  0
 34 29  1  0  0  0  0
 36 33  1  0  0  0  0
 37 31  1  0  0  0  0
 38 43  1  0  0  0  0
 38 37  1  0  0  0  0
 39 38  2  0  0  0  0
 40 41  2  0  0  0  0
 40 39  1  0  0  0  0
 41 42  1  0  0  0  0
 42 37  2  0  0  0  0
 44 39  1  0  0  0  0
 45 40  1  0  0  0  0
 46 41  1  0  0  0  0
M  END
>  <minimizedAffinity>
-5.97603369

$$$$

 OpenBabel03252507213D

 46 49  0  0  1  0  0  0  0  0999 V2000
   39.3910   28.1390   39.8060 C   0  0  0  0  0  0  0  0  0  0  0  0
   38.9790   27.8440   38.6460 O   0  0  0  0  0  0  0  0  0  0  0  0
   38.7070   27.7920   41.0110 N   0  0  0  0  0  0  0  0  0  0  0  0
   39.2170   27.2480   42.2700 C   0  0  0  0  0  0  0  0  0  0  0  0
   38.7230   28.1080   43.4390 C   0  0  0  0  0  0  0  0  0  0  0  0
   37.2200   28.0370   43.5200 C   0  0  0  0  0  0  0  0  0  0  0  0
   36.6670   27.4330   42.2590 C   0  0  0  0  0  0  0  0  0  0  0  0
   37.2870   28.0080   41.0210 C   0  0  2  0  0  0  0  0  0  0  0  0
   39.0000   26.1860   42.3970 H   0  0  0  0  0  0  0  0  0  0  0  0
   40.3260   27.4190   42.2070 H   0  0  0  0  0  0  0  0  0  0  0  0
   39.2460   27.8240   44.3510 H   0  0  0  0  0  0  0  0  0  0  0  0
   39.0640   29.1370   43.1740 H   0  0  0  0  0  0  0  0  0  0  0  0
   36.9630   27.3560   44.3580 H   0  0  0  0  0  0  0  0  0  0  0  0
   36.7730   29.0280   43.7430 H   0  0  0  0  0  0  0  0  0  0  0  0
   35.5630   27.5900   42.2030 H   0  0  0  0  0  0  0  0  0  0  0  0
   36.8520   26.3320   42.2910 H   0  0  0  0  0  0  0  0  0  0  0  0
   37.1410   29.1080   41.0530 H   0  0  0  0  0  0  0  0  0  0  0  0
   35.2330   29.8390   39.9690 Cl  0  0  0  0  0  0  0  0  0  0  0  0
   35.5640   28.2620   39.2510 C   0  0  0  0  0  0  0  0  0  0  0  0
   36.5690   27.4830   39.8370 C   0  0  0  0  0  0  0  0  0  0  0  0
   36.7560   26.2690   39.2090 C   0  0  0  0  0  0  0  0  0  0  0  0
   37.5370   25.6370   39.6490 H   0  0  0  0  0  0  0  0  0  0  0  0
   36.0110   25.8940   38.1130 C   0  0  0  0  0  0  0  0  0  0  0  0
   36.2320   24.9110   37.6800 H   0  0  0  0  0  0  0  0  0  0  0  0
   35.0340   26.7040   37.5770 C   0  0  0  0  0  0  0  0  0  0  0  0
   34.4530   26.4190   36.7280 H   0  0  0  0  0  0  0  0  0  0  0  0
   34.7970   27.9290   38.1590 C   0  0  0  0  0  0  0  0  0  0  0  0
   33.5820   28.9860   37.5260 Cl  0  0  0  0  0  0  0  0  0  0  0  0
   41.8230   28.1300   40.0940 C   0  0  0  0  0  0  0  0  0  0  0  0
   40.6280   28.8680   39.9040 C   0  0  0  0  0  0  0  0  0  0  0  0
   40.6940   30.2420   39.8230 C   0  0  0  0  0  0  0  0  0  0  0  0
   41.9030   30.8380   39.9280 N   0  0  0  0  0  0  0  0  0  0  0  0
   43.0530   30.1460   40.1100 C   0  0  0  0  0  0  0  0  0  0  0  0
   42.9890   28.8000   40.1890 N   0  0  0  0  0  0  0  0  0  0  0  0
   41.7570   27.0630   40.1540 H   0  0  0  0  0  0  0  0  0  0  0  0
   44.0100   30.6420   40.1920 H   0  0  0  0  0  0  0  0  0  0  0  0
   39.4660   30.9860   39.6370 C   0  0  0  0  0  0  0  0  0  0  0  0
   38.8160   31.5180   40.7110 C   0  0  0  0  0  0  0  0  0  0  0  0
   37.6500   32.2220   40.5150 C   0  0  0  0  0  0  0  0  0  0  0  0
   37.0910   32.4220   39.2600 C   0  0  0  0  0  0  0  0  0  0  0  0
   37.7920   31.8590   38.2070 C   0  0  0  0  0  0  0  0  0  0  0  0
   38.9240   31.1810   38.4330 N   0  0  0  0  0  0  0  0  0  0  0  0
   39.0960   31.4580   41.7470 H   0  0  0  0  0  0  0  0  0  0  0  0
   37.0720   32.6780   41.3310 H   0  0  0  0  0  0  0  0  0  0  0  0
   36.1830   32.9670   39.0970 H   0  0  0  0  0  0  0  0  0  0  0  0
   37.4120   31.9760   37.1870 H   0  0  0  0  0  0  0  0  0  0  0  0
  1 30  1  0  0  0  0
  1  3  1  0  0  0  0
  2  1  2  0  0  0  0
  3  8  1  0  0  0  0
  3  4  1  0  0  0  0
  4  9  1  0  0  0  0
  4  5  1  0  0  0  0
  5  6  1  0  0  0  0
  5 11  1  0  0  0  0
  6 14  1  0  0  0  0
  6 13  1  0  0  0  0
  7 16  1  0  0  0  0
  7  6  1  0  0  0  0
  8 17  1  1  0  0  0
  8  7  1  0  0  0  0
 10  4  1  0  0  0  0
 12  5  1  0  0  0  0
 15  7  1  0  0  0  0
 19 20  1  0  0  0  0
 19 18  1  0  0  0  0
 20  8  1  0  0  0  0
 21 22  1  0  0  0  0
 21 20  2  0  0  0  0
 23 21  1  0  0  0  0
 24 23  1  0  0  0  0
 25 23  2  0  0  0  0
 25 27  1  0  0  0  0
 26 25  1  0  0  0  0
 27 19  2  0  0  0  0
 28 27  1  0  0  0  0
 29 35  1  0  0  0  0
 29 34  1  0  0  0  0
 30 29  2  0  0  0  0
 31 30  1  0  0  0  0
 31 32  2  0  0  0  0
 32 33  1  0  0  0  0
 33 34  2  0  0  0  0
 33 36  1  0  0  0  0
 37 31  1  0  0  0  0
 37 38  1  0  0  0  0
 38 43  1  0  0  0  0
 39 38  2  0  0  0  0
 39 44  1  0  0  0  0
 40 39  1  0  0  0  0
 41 42  1  0  0  0  0
 41 40  2  0  0  0  0
 42 37  2  0  0  0  0
 45 40  1  0  0  0  0
 46 41  1  0  0  0  0
M  END
>  <minimizedAffinity>
-5.84139681

$$$$

 OpenBabel03252507213D

 46 49  0  0  1  0  0  0  0  0999 V2000
   39.1070   29.0390   39.9460 C   0  0  0  0  0  0  0  0  0  0  0  0
   40.3610   29.1920   39.8750 O   0  0  0  0  0  0  0  0  0  0  0  0
   38.4020   28.7470   41.1540 N   0  0  0  0  0  0  0  0  0  0  0  0
   37.1610   29.3050   41.6890 C   0  0  0  0  0  0  0  0  0  0  0  0
   36.1990   28.1680   42.0520 C   0  0  0  0  0  0  0  0  0  0  0  0
   36.8000   27.3290   43.1510 C   0  0  0  0  0  0  0  0  0  0  0  0
   38.2580   27.6610   43.3100 C   0  0  0  0  0  0  0  0  0  0  0  0
   38.9810   27.7380   41.9980 C   0  0  2  0  0  0  0  0  0  0  0  0
   37.3250   30.0070   42.5080 H   0  0  0  0  0  0  0  0  0  0  0  0
   36.7000   29.8290   40.8070 H   0  0  0  0  0  0  0  0  0  0  0  0
   35.2140   28.5750   42.2710 H   0  0  0  0  0  0  0  0  0  0  0  0
   36.1090   27.5840   41.1040 H   0  0  0  0  0  0  0  0  0  0  0  0
   36.2890   27.6050   44.0970 H   0  0  0  0  0  0  0  0  0  0  0  0
   36.6310   26.2460   42.9810 H   0  0  0  0  0  0  0  0  0  0  0  0
   38.7650   26.8950   43.9440 H   0  0  0  0  0  0  0  0  0  0  0  0
   38.3360   28.6430   43.8360 H   0  0  0  0  0  0  0  0  0  0  0  0
   38.8290   26.7720   41.4750 H   0  0  0  0  0  0  0  0  0  0  0  0
   40.6300   25.5460   40.9260 Cl  0  0  0  0  0  0  0  0  0  0  0  0
   41.3150   26.9160   41.8010 C   0  0  0  0  0  0  0  0  0  0  0  0
   40.4290   27.8990   42.2580 C   0  0  0  0  0  0  0  0  0  0  0  0
   41.0550   28.9290   42.9300 C   0  0  0  0  0  0  0  0  0  0  0  0
   40.3840   29.7130   43.3010 H   0  0  0  0  0  0  0  0  0  0  0  0
   42.4200   28.9560   43.1120 C   0  0  0  0  0  0  0  0  0  0  0  0
   42.8270   29.8160   43.6570 H   0  0  0  0  0  0  0  0  0  0  0  0
   43.2440   27.9590   42.6390 C   0  0  0  0  0  0  0  0  0  0  0  0
   44.3030   27.9730   42.7770 H   0  0  0  0  0  0  0  0  0  0  0  0
   42.6810   26.9010   41.9600 C   0  0  0  0  0  0  0  0  0  0  0  0
   43.6690   25.6230   41.3430 Cl  0  0  0  0  0  0  0  0  0  0  0  0
   37.9300   27.9860   38.0750 C   0  0  0  0  0  0  0  0  0  0  0  0
   38.3540   29.1710   38.7270 C   0  0  0  0  0  0  0  0  0  0  0  0
   38.0340   30.3920   38.1730 C   0  0  0  0  0  0  0  0  0  0  0  0
   37.3240   30.4130   37.0230 N   0  0  0  0  0  0  0  0  0  0  0  0
   36.9120   29.2900   36.3890 C   0  0  0  0  0  0  0  0  0  0  0  0
   37.2250   28.0930   36.9300 N   0  0  0  0  0  0  0  0  0  0  0  0
   38.1840   27.0440   38.5160 H   0  0  0  0  0  0  0  0  0  0  0  0
   36.3460   29.3300   35.4690 H   0  0  0  0  0  0  0  0  0  0  0  0
   38.4790   31.5950   38.8440 C   0  0  0  0  0  0  0  0  0  0  0  0
   37.6350   32.2700   39.6740 C   0  0  0  0  0  0  0  0  0  0  0  0
   38.0740   33.4110   40.3050 C   0  0  0  0  0  0  0  0  0  0  0  0
   39.3550   33.9210   40.1360 C   0  0  0  0  0  0  0  0  0  0  0  0
   40.1690   33.1960   39.2810 C   0  0  0  0  0  0  0  0  0  0  0  0
   39.7080   32.0890   38.6850 N   0  0  0  0  0  0  0  0  0  0  0  0
   36.6160   32.0280   39.9170 H   0  0  0  0  0  0  0  0  0  0  0  0
   37.4520   34.0070   40.9870 H   0  0  0  0  0  0  0  0  0  0  0  0
   39.7070   34.8090   40.6210 H   0  0  0  0  0  0  0  0  0  0  0  0
   41.1930   33.5370   39.0990 H   0  0  0  0  0  0  0  0  0  0  0  0
  1  3  1  0  0  0  0
  2  1  2  0  0  0  0
  3  4  1  0  0  0  0
  3  8  1  0  0  0  0
  4  5  1  0  0  0  0
  4  9  1  0  0  0  0
  5 11  1  0  0  0  0
  5  6  1  0  0  0  0
  6  7  1  0  0  0  0
  6 13  1  0  0  0  0
  7 16  1  0  0  0  0
  7 15  1  0  0  0  0
  8 17  1  6  0  0  0
  8 20  1  0  0  0  0
  8  7  1  0  0  0  0
 10  4  1  0  0  0  0
 12  5  1  0  0  0  0
 14  6  1  0  0  0  0
 18 19  1  0  0  0  0
 19 27  2  0  0  0  0
 19 20  1  0  0  0  0
 20 21  2  0  0  0  0
 21 23  1  0  0  0  0
 21 22  1  0  0  0  0
 23 24  1  0  0  0  0
 25 26  1  0  0  0  0
 25 23  2  0  0  0  0
 27 25  1  0  0  0  0
 28 27  1  0  0  0  0
 29 35  1  0  0  0  0
 29 30  1  0  0  0  0
 30  1  1  0  0  0  0
 31 30  2  0  0  0  0
 31 37  1  0  0  0  0
 32 31  1  0  0  0  0
 33 34  1  0  0  0  0
 33 32  2  0  0  0  0
 34 29  2  0  0  0  0
 36 33  1  0  0  0  0
 37 38  1  0  0  0  0
 38 43  1  0  0  0  0
 38 39  2  0  0  0  0
 39 44  1  0  0  0  0
 40 39  1  0  0  0  0
 40 45  1  0  0  0  0
 41 40  2  0  0  0  0
 42 37  2  0  0  0  0
 42 41  1  0  0  0  0
 46 41  1  0  0  0  0
M  END
>  <minimizedAffinity>
-5.8228693

$$$$

 OpenBabel03252507213D

 46 49  0  0  1  0  0  0  0  0999 V2000
   39.4350   27.3860   39.9530 C   0  0  0  0  0  0  0  0  0  0  0  0
   39.2650   26.6020   38.9740 O   0  0  0  0  0  0  0  0  0  0  0  0
   38.8300   27.2100   41.2350 N   0  0  0  0  0  0  0  0  0  0  0  0
   39.3960   27.3360   42.5770 C   0  0  0  0  0  0  0  0  0  0  0  0
   38.5180   28.2680   43.4210 C   0  0  0  0  0  0  0  0  0  0  0  0
   37.1490   27.6580   43.5890 C   0  0  0  0  0  0  0  0  0  0  0  0
   36.9740   26.5190   42.6220 C   0  0  0  0  0  0  0  0  0  0  0  0
   37.4370   26.8580   41.2370 C   0  0  2  0  0  0  0  0  0  0  0  0
   39.5840   26.3740   43.0560 H   0  0  0  0  0  0  0  0  0  0  0  0
   40.3610   27.8890   42.4110 H   0  0  0  0  0  0  0  0  0  0  0  0
   39.0280   28.5140   44.3500 H   0  0  0  0  0  0  0  0  0  0  0  0
   38.4690   29.2060   42.8160 H   0  0  0  0  0  0  0  0  0  0  0  0
   37.0950   27.2390   44.6140 H   0  0  0  0  0  0  0  0  0  0  0  0
   36.3460   28.4180   43.4930 H   0  0  0  0  0  0  0  0  0  0  0  0
   35.9020   26.2160   42.5680 H   0  0  0  0  0  0  0  0  0  0  0  0
   37.5550   25.6460   43.0060 H   0  0  0  0  0  0  0  0  0  0  0  0
   36.8880   27.7660   40.9120 H   0  0  0  0  0  0  0  0  0  0  0  0
   38.5740   24.2550   42.0180 Cl  0  0  0  0  0  0  0  0  0  0  0  0
   37.5590   24.4640   40.5910 C   0  0  0  0  0  0  0  0  0  0  0  0
   37.0730   25.7500   40.3260 C   0  0  0  0  0  0  0  0  0  0  0  0
   36.2910   25.8150   39.1910 C   0  0  0  0  0  0  0  0  0  0  0  0
   35.8980   26.8120   38.9580 H   0  0  0  0  0  0  0  0  0  0  0  0
   36.0320   24.7040   38.4190 C   0  0  0  0  0  0  0  0  0  0  0  0
   35.3990   24.8540   37.5370 H   0  0  0  0  0  0  0  0  0  0  0  0
   36.5380   23.4610   38.7300 C   0  0  0  0  0  0  0  0  0  0  0  0
   36.3420   22.5950   38.1360 H   0  0  0  0  0  0  0  0  0  0  0  0
   37.3280   23.3280   39.8510 C   0  0  0  0  0  0  0  0  0  0  0  0
   37.9880   21.7900   40.2870 Cl  0  0  0  0  0  0  0  0  0  0  0  0
   41.6910   28.2930   39.6620 C   0  0  0  0  0  0  0  0  0  0  0  0
   40.2950   28.5220   39.7490 C   0  0  0  0  0  0  0  0  0  0  0  0
   39.8180   29.8110   39.6390 C   0  0  0  0  0  0  0  0  0  0  0  0
   40.7050   30.8130   39.4500 N   0  0  0  0  0  0  0  0  0  0  0  0
   42.0410   30.6100   39.3650 C   0  0  0  0  0  0  0  0  0  0  0  0
   42.5090   29.3480   39.4730 N   0  0  0  0  0  0  0  0  0  0  0  0
   42.0480   27.2880   39.7480 H   0  0  0  0  0  0  0  0  0  0  0  0
   42.7330   31.4270   39.2140 H   0  0  0  0  0  0  0  0  0  0  0  0
   38.3910   30.0320   39.7370 C   0  0  0  0  0  0  0  0  0  0  0  0
   37.5720   29.6980   38.7000 C   0  0  0  0  0  0  0  0  0  0  0  0
   36.2180   29.9140   38.8110 C   0  0  0  0  0  0  0  0  0  0  0  0
   35.6310   30.4660   39.9430 C   0  0  0  0  0  0  0  0  0  0  0  0
   36.5100   30.7880   40.9630 C   0  0  0  0  0  0  0  0  0  0  0  0
   37.8230   30.5620   40.8220 N   0  0  0  0  0  0  0  0  0  0  0  0
   37.8470   29.2700   37.7530 H   0  0  0  0  0  0  0  0  0  0  0  0
   35.4960   29.6710   38.0180 H   0  0  0  0  0  0  0  0  0  0  0  0
   34.5790   30.6400   40.0380 H   0  0  0  0  0  0  0  0  0  0  0  0
   36.1210   31.2270   41.8870 H   0  0  0  0  0  0  0  0  0  0  0  0
  1  3  1  0  0  0  0
  2  1  2  0  0  0  0
  3  8  1  0  0  0  0
  3  4  1  0  0  0  0
  4  9  1  0  0  0  0
  4  5  1  0  0  0  0
  5  6  1  0  0  0  0
  5 11  1  0  0  0  0
  6 13  1  0  0  0  0
  7 16  1  0  0  0  0
  7  6  1  0  0  0  0
  8 17  1  6  0  0  0
  8  7  1  0  0  0  0
 10  4  1  0  0  0  0
 12  5  1  0  0  0  0
 14  6  1  0  0  0  0
 15  7  1  0  0  0  0
 19 18  1  0  0  0  0
 20 19  1  0  0  0  0
 20  8  1  0  0  0  0
 21 20  2  0  0  0  0
 22 21  1  0  0  0  0
 23 25  2  0  0  0  0
 23 21  1  0  0  0  0
 24 23  1  0  0  0  0
 25 27  1  0  0  0  0
 26 25  1  0  0  0  0
 27 28  1  0  0  0  0
 27 19  2  0  0  0  0
 29 35  1  0  0  0  0
 29 30  1  0  0  0  0
 30  1  1  0  0  0  0
 31 37  1  0  0  0  0
 31 30  2  0  0  0  0
 32 31  1  0  0  0  0
 33 32  2  0  0  0  0
 33 34  1  0  0  0  0
 34 29  2  0  0  0  0
 36 33  1  0  0  0  0
 37 42  1  0  0  0  0
 38 39  1  0  0  0  0
 38 37  2  0  0  0  0
 39 40  2  0  0  0  0
 40 45  1  0  0  0  0
 40 41  1  0  0  0  0
 41 46  1  0  0  0  0
 42 41  2  0  0  0  0
 43 38  1  0  0  0  0
 44 39  1  0  0  0  0
M  END
>  <minimizedAffinity>
-5.82277918

$$$$

 OpenBabel03252507213D

 46 49  0  0  1  0  0  0  0  0999 V2000
   39.3100   29.3460   39.6180 C   0  0  0  0  0  0  0  0  0  0  0  0
   38.4770   28.4370   39.3320 O   0  0  0  0  0  0  0  0  0  0  0  0
   38.9510   30.6250   40.1430 N   0  0  0  0  0  0  0  0  0  0  0  0
   39.5400   31.4040   41.2310 C   0  0  0  0  0  0  0  0  0  0  0  0
   39.8470   32.8240   40.7410 C   0  0  0  0  0  0  0  0  0  0  0  0
   38.5630   33.5180   40.3640 C   0  0  0  0  0  0  0  0  0  0  0  0
   37.4460   32.5140   40.2710 C   0  0  0  0  0  0  0  0  0  0  0  0
   37.8380   31.2800   39.5130 C   0  0  2  0  0  0  0  0  0  0  0  0
   38.9420   31.3850   42.1440 H   0  0  0  0  0  0  0  0  0  0  0  0
   40.5370   30.9140   41.4030 H   0  0  0  0  0  0  0  0  0  0  0  0
   40.4500   33.3460   41.4810 H   0  0  0  0  0  0  0  0  0  0  0  0
   40.4940   32.6610   39.8460 H   0  0  0  0  0  0  0  0  0  0  0  0
   38.3110   34.2220   41.1840 H   0  0  0  0  0  0  0  0  0  0  0  0
   38.6740   34.1110   39.4330 H   0  0  0  0  0  0  0  0  0  0  0  0
   36.5580   32.9650   39.7690 H   0  0  0  0  0  0  0  0  0  0  0  0
   37.1440   32.2320   41.3090 H   0  0  0  0  0  0  0  0  0  0  0  0
   38.1930   31.6010   38.5120 H   0  0  0  0  0  0  0  0  0  0  0  0
   37.2620   30.6400   36.6970 Cl  0  0  0  0  0  0  0  0  0  0  0  0
   36.2610   30.0650   38.0300 C   0  0  0  0  0  0  0  0  0  0  0  0
   36.6400   30.4320   39.3270 C   0  0  0  0  0  0  0  0  0  0  0  0
   35.7980   29.9370   40.3020 C   0  0  0  0  0  0  0  0  0  0  0  0
   36.0700   30.2110   41.3290 H   0  0  0  0  0  0  0  0  0  0  0  0
   34.7030   29.1600   39.9940 C   0  0  0  0  0  0  0  0  0  0  0  0
   34.0940   28.8120   40.8360 H   0  0  0  0  0  0  0  0  0  0  0  0
   34.3800   28.8300   38.6960 C   0  0  0  0  0  0  0  0  0  0  0  0
   33.5320   28.2280   38.4500 H   0  0  0  0  0  0  0  0  0  0  0  0
   35.1790   29.2930   37.6760 C   0  0  0  0  0  0  0  0  0  0  0  0
   34.8190   28.9080   36.0290 Cl  0  0  0  0  0  0  0  0  0  0  0  0
   41.3530   29.7150   38.3190 C   0  0  0  0  0  0  0  0  0  0  0  0
   40.7030   29.0610   39.3960 C   0  0  0  0  0  0  0  0  0  0  0  0
   41.4210   28.1840   40.1800 C   0  0  0  0  0  0  0  0  0  0  0  0
   42.7260   27.9800   39.8920 N   0  0  0  0  0  0  0  0  0  0  0  0
   43.3600   28.5970   38.8670 C   0  0  0  0  0  0  0  0  0  0  0  0
   42.6570   29.4560   38.0980 N   0  0  0  0  0  0  0  0  0  0  0  0
   40.7840   30.3940   37.7190 H   0  0  0  0  0  0  0  0  0  0  0  0
   44.4050   28.4190   38.6530 H   0  0  0  0  0  0  0  0  0  0  0  0
   40.7450   27.5170   41.2710 C   0  0  0  0  0  0  0  0  0  0  0  0
   40.3510   26.2180   41.1430 C   0  0  0  0  0  0  0  0  0  0  0  0
   39.7100   25.5990   42.1910 C   0  0  0  0  0  0  0  0  0  0  0  0
   39.4370   26.2380   43.3930 C   0  0  0  0  0  0  0  0  0  0  0  0
   39.8570   27.5550   43.4670 C   0  0  0  0  0  0  0  0  0  0  0  0
   40.4800   28.1260   42.4280 N   0  0  0  0  0  0  0  0  0  0  0  0
   40.4720   25.5730   40.2910 H   0  0  0  0  0  0  0  0  0  0  0  0
   39.3630   24.5560   42.1610 H   0  0  0  0  0  0  0  0  0  0  0  0
   38.9370   25.7660   44.2140 H   0  0  0  0  0  0  0  0  0  0  0  0
   39.6770   28.1240   44.3850 H   0  0  0  0  0  0  0  0  0  0  0  0
  1  3  1  0  0  0  0
  2  1  2  0  0  0  0
  3  4  1  0  0  0  0
  4 10  1  0  0  0  0
  4  9  1  0  0  0  0
  5  4  1  0  0  0  0
  5 11  1  0  0  0  0
  6  5  1  0  0  0  0
  6 13  1  0  0  0  0
  7  6  1  0  0  0  0
  7 16  1  0  0  0  0
  8 17  1  6  0  0  0
  8  3  1  0  0  0  0
  8  7  1  0  0  0  0
 12  5  1  0  0  0  0
 14  6  1  0  0  0  0
 15  7  1  0  0  0  0
 18 19  1  0  0  0  0
 19 20  1  0  0  0  0
 20  8  1  0  0  0  0
 20 21  2  0  0  0  0
 21 22  1  0  0  0  0
 23 21  1  0  0  0  0
 23 24  1  0  0  0  0
 25 23  2  0  0  0  0
 26 25  1  0  0  0  0
 27 19  2  0  0  0  0
 27 25  1  0  0  0  0
 28 27  1  0  0  0  0
 29 30  1  0  0  0  0
 30  1  1  0  0  0  0
 30 31  2  0  0  0  0
 31 37  1  0  0  0  0
 32 31  1  0  0  0  0
 33 32  2  0  0  0  0
 34 29  2  0  0  0  0
 34 33  1  0  0  0  0
 35 29  1  0  0  0  0
 36 33  1  0  0  0  0
 37 42  1  0  0  0  0
 38 37  2  0  0  0  0
 38 39  1  0  0  0  0
 39 40  2  0  0  0  0
 40 41  1  0  0  0  0
 40 45  1  0  0  0  0
 41 46  1  0  0  0  0
 42 41  2  0  0  0  0
 43 38  1  0  0  0  0
 44 39  1  0  0  0  0
M  END
>  <minimizedAffinity>
-5.81759357

$$$$
