
 OpenBabel03252507333D

 51 54  0  0  1  0  0  0  0  0999 V2000
   47.0300   32.4550   45.3110 C   0  0  0  0  0  0  0  0  0  0  0  0
   45.9810   33.1410   45.9020 C   0  0  0  0  0  0  0  0  0  0  0  0
   45.3670   34.2130   45.2120 C   0  0  0  0  0  0  0  0  0  0  0  0
   45.8810   34.5100   43.9510 N   0  0  0  0  0  0  0  0  0  0  0  0
   46.8980   33.8090   43.4380 C   0  0  0  0  0  0  0  0  0  0  0  0
   47.4620   32.8010   44.1030 N   0  0  0  0  0  0  0  0  0  0  0  0
   45.4680   33.1120   46.8390 H   0  0  0  0  0  0  0  0  0  0  0  0
   44.5660   34.8400   45.4980 H   0  0  0  0  0  0  0  0  0  0  0  0
   47.6080   31.3490   46.0480 C   0  0  2  0  0  0  0  0  0  0  0  0
   47.0730   29.9790   45.5320 C   0  0  0  0  0  0  0  0  0  0  0  0
   47.8040   28.8730   46.2090 C   0  0  0  0  0  0  0  0  0  0  0  0
   48.0080   29.0230   47.6790 C   0  0  0  0  0  0  0  0  0  0  0  0
   48.2790   30.3730   48.1100 C   0  0  0  0  0  0  0  0  0  0  0  0
   47.3490   31.4280   47.4710 C   0  0  2  0  0  0  0  0  0  0  0  0
   48.6920   31.2850   45.7970 H   0  0  0  0  0  0  0  0  0  0  0  0
   45.9790   29.9310   45.6090 H   0  0  0  0  0  0  0  0  0  0  0  0
   47.3140   29.9970   44.4490 H   0  0  0  0  0  0  0  0  0  0  0  0
   47.1660   27.9500   46.0810 H   0  0  0  0  0  0  0  0  0  0  0  0
   48.7030   28.6660   45.5990 H   0  0  0  0  0  0  0  0  0  0  0  0
   47.5910   28.2610   48.3390 H   0  0  0  0  0  0  0  0  0  0  0  0
   49.0840   28.5870   47.7570 H   0  0  0  0  0  0  0  0  0  0  0  0
   49.3020   30.7930   47.9610 H   0  0  0  0  0  0  0  0  0  0  0  0
   48.1120   30.4690   49.2190 H   0  0  0  0  0  0  0  0  0  0  0  0
   47.6780   32.3340   47.9830 H   0  0  0  0  0  0  0  0  0  0  0  0
   45.9610   31.0580   47.7520 N   0  0  0  0  0  0  0  0  0  0  0  0
   45.3140   30.6910   48.9440 C   0  0  0  0  0  0  0  0  0  0  0  0
   44.9690   31.5420   49.8420 O   0  0  0  0  0  0  0  0  0  0  0  0
   45.0610   29.2920   49.0820 N   0  0  0  0  0  0  0  0  0  0  0  0
   45.2230   30.9560   46.9560 H   0  0  0  0  0  0  0  0  0  0  0  0
   44.4250   28.5740   48.6730 H   0  0  0  0  0  0  0  0  0  0  0  0
   45.2210   28.3330   49.4920 H   0  0  0  0  0  0  0  0  0  0  0  0
   47.4020   34.1880   42.1140 C   0  0  0  0  0  0  0  0  0  0  0  0
   48.3040   35.2190   41.9690 C   0  0  0  0  0  0  0  0  0  0  0  0
   48.8230   35.6300   40.7570 C   0  0  0  0  0  0  0  0  0  0  0  0
   48.3670   34.9210   39.6610 C   0  0  0  0  0  0  0  0  0  0  0  0
   47.4670   33.8920   39.7920 C   0  0  0  0  0  0  0  0  0  0  0  0
   46.9880   33.5290   41.0220 N   0  0  0  0  0  0  0  0  0  0  0  0
   48.6070   35.7180   42.8780 H   0  0  0  0  0  0  0  0  0  0  0  0
   49.5370   36.4560   40.7040 H   0  0  0  0  0  0  0  0  0  0  0  0
   48.7590   35.2260   38.7020 H   0  0  0  0  0  0  0  0  0  0  0  0
   49.3860   31.9310   38.6170 Cl  0  0  0  0  0  0  0  0  0  0  0  0
   47.7590   32.2030   38.0050 C   0  0  0  0  0  0  0  0  0  0  0  0
   46.9810   33.1390   38.6440 C   0  0  0  0  0  0  0  0  0  0  0  0
   45.7210   33.2930   38.1040 C   0  0  0  0  0  0  0  0  0  0  0  0
   45.0390   33.9900   38.5220 H   0  0  0  0  0  0  0  0  0  0  0  0
   45.2540   32.5920   37.0260 C   0  0  0  0  0  0  0  0  0  0  0  0
   44.2490   32.7350   36.6190 H   0  0  0  0  0  0  0  0  0  0  0  0
   46.0680   31.6590   36.4120 C   0  0  0  0  0  0  0  0  0  0  0  0
   45.7630   31.0730   35.5610 H   0  0  0  0  0  0  0  0  0  0  0  0
   47.3380   31.4700   36.9170 C   0  0  0  0  0  0  0  0  0  0  0  0
   48.4310   30.2940   36.1800 Cl  0  0  0  0  0  0  0  0  0  0  0  0
  1  2  1  0  0  0  0
  1  9  1  0  0  0  0
  2  7  1  0  0  0  0
  3  8  1  0  0  0  0
  3  2  2  0  0  0  0
  4  3  1  0  0  0  0
  5  4  2  0  0  0  0
  5  6  1  0  0  0  0
  6  1  2  0  0  0  0
  9 15  1  6  0  0  0
  9 14  1  0  0  0  0
 10 16  1  0  0  0  0
 10  9  1  0  0  0  0
 10 11  1  0  0  0  0
 11 12  1  0  0  0  0
 12 21  1  0  0  0  0
 12 13  1  0  0  0  0
 12 20  1  0  0  0  0
 13 23  1  0  0  0  0
 14 25  1  0  0  0  0
 14 24  1  1  0  0  0
 14 13  1  0  0  0  0
 17 10  1  0  0  0  0
 18 11  1  0  0  0  0
 19 11  1  0  0  0  0
 22 13  1  0  0  0  0
 25 26  1  0  0  0  0
 26 28  1  0  0  0  0
 26 27  2  0  0  0  0
 28 31  1  0  0  0  0
 29 25  1  0  0  0  0
 30 28  1  0  0  0  0
 32  5  1  0  0  0  0
 33 32  1  0  0  0  0
 33 38  1  0  0  0  0
 34 33  2  0  0  0  0
 35 36  2  0  0  0  0
 35 34  1  0  0  0  0
 36 37  1  0  0  0  0
 37 32  2  0  0  0  0
 39 34  1  0  0  0  0
 40 35  1  0  0  0  0
 42 41  1  0  0  0  0
 42 43  1  0  0  0  0
 43 36  1  0  0  0  0
 44 45  1  0  0  0  0
 44 43  2  0  0  0  0
 46 44  1  0  0  0  0
 47 46  1  0  0  0  0
 48 50  1  0  0  0  0
 48 46  2  0  0  0  0
 49 48  1  0  0  0  0
 50 42  2  0  0  0  0
 51 50  1  0  0  0  0
M  END
>  <minimizedAffinity>
-6.50883198

>  <minimizedRMSD>
0.750101686

$$$$
