
     RDKit          3D

 47 51  0  0  0  0  0  0  0  0999 V2000
   47.3308   30.2161   47.6525 C   0  0  0  0  0  0  0  0  0  0  0  0
   46.5584   32.6600   45.1694 C   0  0  0  0  0  0  0  0  0  0  0  0
   47.2753   31.7091   44.4199 C   0  0  0  0  0  0  0  0  0  0  0  0
   47.6465   30.6959   45.2391 C   0  0  0  0  0  0  0  0  0  0  0  0
   47.1721   31.0150   46.4544 N   0  0  0  0  0  0  0  0  0  0  0  0
   46.5252   32.1840   46.4101 N   0  0  0  0  0  0  0  0  0  0  0  0
   44.5738   35.7002   44.8278 C   0  0  0  0  0  0  0  0  0  0  0  0
   44.9402   36.1953   43.5793 C   0  0  0  0  0  0  0  0  0  0  0  0
   45.8813   35.4634   42.8598 C   0  0  0  0  0  0  0  0  0  0  0  0
   46.3735   34.3343   43.4102 N   0  0  0  0  0  0  0  0  0  0  0  0
   46.0091   33.8800   44.6049 C   0  0  0  0  0  0  0  0  0  0  0  0
   45.1015   34.5733   45.3142 N   0  0  0  0  0  0  0  0  0  0  0  0
   46.0101   29.9409   48.2652 C   0  0  0  0  0  0  0  0  0  0  0  0
   45.1206   27.5464   47.9012 C   0  0  0  0  0  0  0  0  0  0  0  0
   45.1917   28.9001   47.6449 C   0  0  0  0  0  0  0  0  0  0  0  0
   44.3596   29.3859   46.6350 C   0  0  0  0  0  0  0  0  0  0  0  0
   43.5118   28.5631   45.9297 C   0  0  0  0  0  0  0  0  0  0  0  0
   42.6204   28.7304   44.9345 N   0  0  0  0  0  0  0  0  0  0  0  0
   42.0436   27.5681   44.6027 C   0  0  0  0  0  0  0  0  0  0  0  0
   42.5570   26.5617   45.3994 C   0  0  0  0  0  0  0  0  0  0  0  0
   43.4567   27.2173   46.2013 C   0  0  0  0  0  0  0  0  0  0  0  0
   44.2747   26.7303   47.1964 C   0  0  0  0  0  0  0  0  0  0  0  0
   47.9044   29.3116   47.4395 H   0  0  0  0  0  0  0  0  0  0  0  0
   47.9092   30.8303   48.3808 H   0  0  0  0  0  0  0  0  0  0  0  0
   47.5418   31.6949   43.3541 H   0  0  0  0  0  0  0  0  0  0  0  0
   48.2109   29.7783   45.0403 H   0  0  0  0  0  0  0  0  0  0  0  0
   43.8346   36.3074   45.3528 H   0  0  0  0  0  0  0  0  0  0  0  0
   44.6009   37.0727   43.0767 H   0  0  0  0  0  0  0  0  0  0  0  0
   46.2991   35.6617   41.8906 H   0  0  0  0  0  0  0  0  0  0  0  0
   45.4441   30.8851   48.4003 H   0  0  0  0  0  0  0  0  0  0  0  0
   46.2092   29.5880   49.3164 H   0  0  0  0  0  0  0  0  0  0  0  0
   45.7974   27.2382   48.7012 H   0  0  0  0  0  0  0  0  0  0  0  0
   44.3064   30.4172   46.3247 H   0  0  0  0  0  0  0  0  0  0  0  0
   42.4066   29.6474   44.4806 H   0  0  0  0  0  0  0  0  0  0  0  0
   41.2892   27.4329   43.8286 H   0  0  0  0  0  0  0  0  0  0  0  0
   42.2998   25.5146   45.3814 H   0  0  0  0  0  0  0  0  0  0  0  0
   45.0491   24.6751   45.0787 Cl  0  0  0  0  0  0  0  0  0  0  0  0
   44.6319   24.2915   46.7348 C   0  0  0  0  0  0  0  0  0  0  0  0
   44.3045   25.3211   47.5744 C   0  0  0  0  0  0  0  0  0  0  0  0
   43.9570   25.1177   48.9139 C   0  0  0  0  0  0  0  0  0  0  0  0
   43.6929   25.9075   49.6054 H   0  0  0  0  0  0  0  0  0  0  0  0
   43.9501   23.8132   49.3894 C   0  0  0  0  0  0  0  0  0  0  0  0
   43.6821   23.6360   50.4292 H   0  0  0  0  0  0  0  0  0  0  0  0
   44.2809   22.7647   48.5441 C   0  0  0  0  0  0  0  0  0  0  0  0
   44.2630   21.7640   48.9550 H   0  0  0  0  0  0  0  0  0  0  0  0
   44.6218   22.9813   47.2242 C   0  0  0  0  0  0  0  0  0  0  0  0
   45.0398   21.6735   46.1494 Cl  0  0  0  0  0  0  0  0  0  0  0  0
  1 13  1  0
  2  6  2  0
  3  2  1  0
  3  4  2  0
  4  5  1  0
  5  1  1  0
  6  5  1  0
  7 12  2  0
  8  7  1  0
  9 10  1  0
  9  8  2  0
 10 11  2  0
 11  2  1  0
 11 12  1  0
 15 14  2  0
 15 13  1  0
 16 15  1  0
 17 21  1  0
 17 16  2  0
 18 17  1  0
 19 18  1  0
 19 20  2  0
 20 21  1  0
 21 22  2  0
 22 14  1  0
  1 23  1  0
  1 24  1  0
  3 25  1  0
  4 26  1  0
  7 27  1  0
  8 28  1  0
  9 29  1  0
 13 30  1  0
 13 31  1  0
 14 32  1  0
 16 33  1  0
 18 34  1  0
 19 35  1  0
 20 36  1  0
 37 38  1  0
 38 39  2  0
 39 40  1  0
 40 41  1  0
 40 42  2  0
 42 43  1  0
 42 44  1  0
 44 45  1  0
 44 46  2  0
 46 47  1  0
 46 38  1  0
 22 39  1  0
M  ISO  8  23   8  24   8  25  14  26  14  27  14  28  14  29  14  30   8
M  ISO  8  31   8  32  14  33  14  34   9  35  14  36  14  41  15  43  15
M  ISO  1  45  15
M  END
>  <DihAtoms>  (1) 
20,21,38,37

>  <DihDeg>  (1) 
-90.00052113145473

$$$$
