
 OpenBabel03252506343D

 35 37  0  0  1  0  0  0  0  0999 V2000
   44.4520   35.7150   44.9760 C   0  0  0  0  0  0  0  0  0  0  0  0
   45.1280   35.7080   43.7480 C   0  0  0  0  0  0  0  0  0  0  0  0
   46.0670   34.7480   43.5220 C   0  0  0  0  0  0  0  0  0  0  0  0
   46.2840   33.8570   44.5170 N   0  0  0  0  0  0  0  0  0  0  0  0
   45.6300   33.8770   45.6860 C   0  0  0  0  0  0  0  0  0  0  0  0
   44.7120   34.7960   45.9350 N   0  0  0  0  0  0  0  0  0  0  0  0
   45.9560   32.8680   46.6510 N   0  0  0  0  0  0  0  0  0  0  0  0
   45.1580   32.5900   47.8330 C   0  0  0  0  0  0  0  0  0  0  0  0
   46.2310   32.2970   48.8530 C   0  0  0  0  0  0  0  0  0  0  0  0
   47.5310   32.1560   48.1120 C   0  0  0  0  0  0  0  0  0  0  0  0
   47.0880   31.9590   46.6630 C   0  0  1  0  0  0  0  0  0  0  0  0
   43.6870   36.4630   45.2070 H   0  0  0  0  0  0  0  0  0  0  0  0
   46.5860   34.7380   42.5860 H   0  0  0  0  0  0  0  0  0  0  0  0
   44.5760   31.6580   47.7220 H   0  0  0  0  0  0  0  0  0  0  0  0
   44.5190   33.4560   48.1130 H   0  0  0  0  0  0  0  0  0  0  0  0
   46.0000   31.4700   49.5230 H   0  0  0  0  0  0  0  0  0  0  0  0
   46.2900   33.2180   49.4980 H   0  0  0  0  0  0  0  0  0  0  0  0
   48.1190   33.0820   48.1870 H   0  0  0  0  0  0  0  0  0  0  0  0
   48.0890   31.2850   48.5140 H   0  0  0  0  0  0  0  0  0  0  0  0
   47.7890   32.3590   45.9300 H   0  0  0  0  0  0  0  0  0  0  0  0
   44.7610   36.7330   42.8120 N   0  0  0  0  0  0  0  0  0  0  0  0
   43.8010   37.0970   42.6960 H   0  0  0  0  0  0  0  0  0  0  0  0
   45.5160   37.1490   42.1960 H   0  0  0  0  0  0  0  0  0  0  0  0
   46.5870   30.2600   46.4520 S   0  0  0  0  0  0  0  0  0  0  0  0
   46.1630   28.2140   43.9190 Cl  0  0  0  0  0  0  0  0  0  0  0  0
   47.7030   28.2900   44.7070 C   0  0  0  0  0  0  0  0  0  0  0  0
   47.7690   29.1750   45.7560 C   0  0  0  0  0  0  0  0  0  0  0  0
   48.9960   29.2450   46.4310 C   0  0  0  0  0  0  0  0  0  0  0  0
   49.2600   29.8780   47.2870 H   0  0  0  0  0  0  0  0  0  0  0  0
   50.0590   28.4340   46.0140 C   0  0  0  0  0  0  0  0  0  0  0  0
   51.0390   28.4500   46.5080 H   0  0  0  0  0  0  0  0  0  0  0  0
   49.9340   27.5570   44.9440 C   0  0  0  0  0  0  0  0  0  0  0  0
   50.7490   26.9430   44.6330 H   0  0  0  0  0  0  0  0  0  0  0  0
   48.7280   27.5000   44.2950 C   0  0  0  0  0  0  0  0  0  0  0  0
   48.4540   26.4260   42.9260 Cl  0  0  0  0  0  0  0  0  0  0  0  0
  1 12  1  0  0  0  0
  1  6  1  0  0  0  0
  2  1  2  0  0  0  0
  3  2  1  0  0  0  0
  3  4  2  0  0  0  0
  4  5  1  0  0  0  0
  5  6  2  0  0  0  0
  5  7  1  0  0  0  0
  7 11  1  0  0  0  0
  7  8  1  0  0  0  0
  8 15  1  0  0  0  0
  8  9  1  0  0  0  0
  9 17  1  0  0  0  0
  9 16  1  0  0  0  0
 10 18  1  0  0  0  0
 10 19  1  0  0  0  0
 10  9  1  0  0  0  0
 11 20  1  6  0  0  0
 11 10  1  0  0  0  0
 13  3  1  0  0  0  0
 14  8  1  0  0  0  0
 21  2  1  0  0  0  0
 22 21  1  0  0  0  0
 23 21  1  0  0  0  0
 24 11  1  0  0  0  0
 25 26  1  0  0  0  0
 26 27  1  0  0  0  0
 27 28  2  0  0  0  0
 27 24  1  0  0  0  0
 28 29  1  0  0  0  0
 30 28  1  0  0  0  0
 30 31  1  0  0  0  0
 32 30  2  0  0  0  0
 33 32  1  0  0  0  0
 34 26  2  0  0  0  0
 34 32  1  0  0  0  0
 35 34  1  0  0  0  0
M  END
>  <minimizedAffinity>
-4.93695641

>  <minimizedRMSD>
0.589297354

$$$$
