REMARK  Name = 
REMARK  4 active torsions:
REMARK  status: ('A' for Active; 'I' for Inactive)
REMARK    1  A    between atoms: C_2  and  N_12
REMARK    2  A    between atoms: C_11  and  S_13
REMARK    3  A    between atoms: S_13  and  C_16
REMARK    4  A    between atoms: N_19  and  C_38
REMARK                            x       y       z     vdW  Elec       q    Type
REMARK                         _______ _______ _______ _____ _____    ______ ____
ROOT
ATOM      1  C   UNL     1      44.497  35.534  45.124  0.00  0.00    +0.000 A 
ATOM      2  C   UNL     1      45.164  35.507  43.877  0.00  0.00    +0.000 A 
ATOM      3  C   UNL     1      46.084  34.545  43.642  0.00  0.00    +0.000 A 
ATOM      4  N   UNL     1      46.315  33.649  44.635  0.00  0.00    +0.000 NA
ATOM      5  C   UNL     1      45.687  33.679  45.802  0.00  0.00    +0.000 A 
ATOM      6  N   UNL     1      44.775  34.616  46.063  0.00  0.00    +0.000 NA
ATOM      7  N   UNL     1      46.013  32.679  46.785  0.00  0.00    +0.000 N 
ATOM      8  C   UNL     1      45.268  32.450  47.968  0.00  0.00    +0.000 C 
ATOM      9  C   UNL     1      46.337  32.117  48.993  0.00  0.00    +0.000 C 
ATOM     10  C   UNL     1      47.623  32.004  48.232  0.00  0.00    +0.000 C 
ATOM     11  C   UNL     1      47.132  31.772  46.804  0.00  0.00    +0.000 C 
ATOM     12  H   UNL     1      43.753  36.295  45.344  0.00  0.00    +0.000 HD
ATOM     13  H   UNL     1      46.606  34.500  42.702  0.00  0.00    +0.000 HD
ATOM     14  H   UNL     1      44.897  33.468  48.312  0.00  0.00    +0.000 HD
ATOM     15  H   UNL     1      44.463  31.800  48.074  0.00  0.00    +0.000 HD
ATOM     16  H   UNL     1      46.353  32.767  49.865  0.00  0.00    +0.000 HD
ATOM     17  H   UNL     1      46.139  31.083  49.401  0.00  0.00    +0.000 HD
ATOM     18  H   UNL     1      48.155  32.968  48.307  0.00  0.00    +0.000 HD
ATOM     19  H   UNL     1      48.244  31.141  48.557  0.00  0.00    +0.000 HD
ATOM     20  H   UNL     1      47.957  32.075  46.139  0.00  0.00    +0.000 HD
ENDROOT
BRANCH   2  21
ATOM     21  N   UNL     1      44.815  36.521  42.922  0.00  0.00    +0.000 N 
ATOM     22  H   UNL     1      44.576  37.474  43.227  0.00  0.00    +0.000 HD
ATOM     23  H   UNL     1      44.795  36.313  41.890  0.00  0.00    +0.000 HD
ENDBRANCH   2  21
BRANCH  11  24
ATOM     24  S   UNL     1      46.623  30.075  46.641  0.00  0.00    +0.000 S 
BRANCH  24  27
ATOM     25  O   UNL     1      45.624  30.508  43.491  0.00  0.00    +0.000 OA
ATOM     26  C   UNL     1      44.983  29.986  44.419  0.00  0.00    +0.000 C 
ATOM     27  C   UNL     1      45.076  29.782  45.888  0.00  0.00    +0.000 C 
ATOM     28  C   UNL     1      44.528  28.386  46.039  0.00  0.00    +0.000 C 
ATOM     29  C   UNL     1      43.220  28.585  45.272  0.00  0.00    +0.000 C 
ATOM     30  N   UNL     1      43.733  29.335  44.125  0.00  0.00    +0.000 N 
ATOM     31  H   UNL     1      44.194  30.394  46.222  0.00  0.00    +0.000 HD
ATOM     32  H   UNL     1      45.129  27.635  45.506  0.00  0.00    +0.000 HD
ATOM     33  H   UNL     1      44.329  28.117  47.096  0.00  0.00    +0.000 HD
ATOM     34  H   UNL     1      42.475  29.123  45.856  0.00  0.00    +0.000 HD
ATOM     35  H   UNL     1      42.900  27.563  44.971  0.00  0.00    +0.000 HD
BRANCH  30  38
ATOM     36 CL   UNL     1      41.123  27.786  44.010  0.00  0.00    +0.000 Cl
ATOM     37  C   UNL     1      41.786  28.704  42.665  0.00  0.00    +0.000 A 
ATOM     38  C   UNL     1      42.988  29.354  42.885  0.00  0.00    +0.000 A 
ATOM     39  C   UNL     1      43.595  30.099  41.901  0.00  0.00    +0.000 A 
ATOM     40  H   UNL     1      44.536  30.634  42.005  0.00  0.00    +0.000 HD
ATOM     41  C   UNL     1      42.991  30.202  40.665  0.00  0.00    +0.000 A 
ATOM     42  H   UNL     1      43.442  30.781  39.868  0.00  0.00    +0.000 HD
ATOM     43  C   UNL     1      41.788  29.555  40.437  0.00  0.00    +0.000 A 
ATOM     44  H   UNL     1      41.253  29.587  39.495  0.00  0.00    +0.000 HD
ATOM     45  C   UNL     1      41.186  28.804  41.442  0.00  0.00    +0.000 A 
ATOM     46 CL   UNL     1      39.663  27.957  41.226  0.00  0.00    +0.000 Cl
ENDBRANCH  30  38
ENDBRANCH  24  27
ENDBRANCH  11  24
TORSDOF 4
