
     RDKit          3D

 46 49  0  0  0  0  0  0  0  0999 V2000
   46.0229   35.7272   42.8297 C   0  0  0  0  0  0  0  0  0  0  0  0
   46.3945   34.4792   43.3892 C   0  0  0  0  0  0  0  0  0  0  0  0
   45.7768   34.0498   44.5444 C   0  0  0  0  0  0  0  0  0  0  0  0
   44.8345   34.8405   45.1027 N   0  0  0  0  0  0  0  0  0  0  0  0
   44.4684   36.0351   44.5808 C   0  0  0  0  0  0  0  0  0  0  0  0
   45.0729   36.4560   43.4498 N   0  0  0  0  0  0  0  0  0  0  0  0
   46.1714   32.7767   45.1092 C   0  0  0  0  0  0  0  0  0  0  0  0
   45.7953   31.6134   44.5066 C   0  0  0  0  0  0  0  0  0  0  0  0
   46.1787   30.4118   45.0570 C   0  0  0  0  0  0  0  0  0  0  0  0
   46.9418   30.3208   46.2144 C   0  0  0  0  0  0  0  0  0  0  0  0
   47.2944   31.5326   46.7827 C   0  0  0  0  0  0  0  0  0  0  0  0
   46.9041   32.6835   46.2202 N   0  0  0  0  0  0  0  0  0  0  0  0
   47.4118   33.7143   42.7169 C   0  0  0  0  0  0  0  0  0  0  0  0
   48.5083   33.5415   43.3256 O   0  0  0  0  0  0  0  0  0  0  0  0
   47.1288   33.1993   41.4147 N   0  0  0  0  0  0  0  0  0  0  0  0
   45.9354   32.5327   40.8958 C   0  0  0  0  0  0  0  0  0  0  0  0
   45.4769   33.2279   39.6076 C   0  0  0  0  0  0  0  0  0  0  0  0
   46.5411   33.0841   38.5505 C   0  0  0  0  0  0  0  0  0  0  0  0
   47.8241   32.6087   39.1747 C   0  0  0  0  0  0  0  0  0  0  0  0
   48.1663   33.3519   40.4325 C   0  0  2  0  0  0  0  0  0  0  0  0
   46.5103   36.0480   41.9331 H   0  0  0  0  0  0  0  0  0  0  0  0
   43.7111   36.6516   45.0454 H   0  0  0  0  0  0  0  0  0  0  0  0
   45.2044   31.4924   43.6169 H   0  0  0  0  0  0  0  0  0  0  0  0
   45.9145   29.4354   44.6292 H   0  0  0  0  0  0  0  0  0  0  0  0
   47.2454   29.3912   46.6509 H   0  0  0  0  0  0  0  0  0  0  0  0
   47.8961   31.5405   47.6975 H   0  0  0  0  0  0  0  0  0  0  0  0
   46.0614   31.4552   40.7814 H   0  0  0  0  0  0  0  0  0  0  0  0
   45.1458   32.7575   41.6651 H   0  0  0  0  0  0  0  0  0  0  0  0
   44.4930   32.8615   39.3225 H   0  0  0  0  0  0  0  0  0  0  0  0
   45.3526   34.2955   39.9123 H   0  0  0  0  0  0  0  0  0  0  0  0
   46.2028   32.2991   37.8418 H   0  0  0  0  0  0  0  0  0  0  0  0
   46.6760   34.0224   37.9730 H   0  0  0  0  0  0  0  0  0  0  0  0
   48.6725   32.7247   38.4594 H   0  0  0  0  0  0  0  0  0  0  0  0
   47.7176   31.5210   39.4031 H   0  0  0  0  0  0  0  0  0  0  0  0
   48.2000   34.4331   40.1835 H   0  0  0  0  0  0  0  0  0  0  0  0
   50.0321   35.6004   40.8037 Cl  0  0  0  0  0  0  0  0  0  0  0  0
   50.4920   33.9215   41.0867 C   0  0  0  0  0  0  0  0  0  0  0  0
   49.5148   32.9402   40.8802 C   0  0  0  0  0  0  0  0  0  0  0  0
   49.9665   31.6599   41.1259 C   0  0  0  0  0  0  0  0  0  0  0  0
   49.2220   30.8695   40.9703 H   0  0  0  0  0  0  0  0  0  0  0  0
   51.2582   31.4074   41.5332 C   0  0  0  0  0  0  0  0  0  0  0  0
   51.5243   30.3587   41.7036 H   0  0  0  0  0  0  0  0  0  0  0  0
   52.1784   32.4163   41.7202 C   0  0  0  0  0  0  0  0  0  0  0  0
   53.1804   32.2278   42.0355 H   0  0  0  0  0  0  0  0  0  0  0  0
   51.7904   33.7175   41.4917 C   0  0  0  0  0  0  0  0  0  0  0  0
   52.9059   35.0208   41.7114 Cl  0  0  0  0  0  0  0  0  0  0  0  0
  1  2  2  0
  1  6  1  0
  2  3  1  0
  3  7  1  0
  3  4  2  0
  5  4  1  0
  6  5  2  0
  7 12  2  0
  8  9  2  0
  8  7  1  0
  9 10  1  0
 10 11  2  0
 12 11  1  0
 13 14  2  0
 13  2  1  0
 15 13  1  0
 16 15  1  0
 17 16  1  0
 18 19  1  0
 18 17  1  0
 19 20  1  0
 20 15  1  0
  1 21  1  0
  5 22  1  0
  8 23  1  0
  9 24  1  0
 10 25  1  0
 11 26  1  0
 16 27  1  0
 16 28  1  0
 17 29  1  0
 17 30  1  0
 18 31  1  0
 18 32  1  0
 19 33  1  0
 19 34  1  0
 20 35  1  6
 36 37  1  0
 37 38  2  0
 38 39  1  0
 39 40  1  0
 39 41  2  0
 41 42  1  0
 41 43  1  0
 43 44  1  0
 43 45  2  0
 45 46  1  0
 45 37  1  0
 20 38  1  0
M  ISO  8  21  14  22  14  23  14  24  14  25  14  26  14  27  13  28  13
M  ISO  8  29  13  30  13  31  13  32  13  33  13  34  13  35  13  40  15
M  ISO  2  42  15  44  15
M  END
>  <DihAtoms>  (1) 
18,19,37,36

>  <DihDeg>  (1) 
94.85352875750998

$$$$
