
 OpenBabel03252506533D

 33 36  0  0  0  0  0  0  0  0999 V2000
   47.1180   31.2270   45.1630 C   0  0  0  0  0  0  0  0  0  0  0  0
   46.8700   32.5950   45.1520 C   0  0  0  0  0  0  0  0  0  0  0  0
   46.3130   33.2700   46.2370 C   0  0  0  0  0  0  0  0  0  0  0  0
   45.9880   32.5530   47.3870 C   0  0  0  0  0  0  0  0  0  0  0  0
   45.4460   32.8660   48.6010 N   0  0  0  0  0  0  0  0  0  0  0  0
   45.3620   31.7270   49.3390 C   0  0  0  0  0  0  0  0  0  0  0  0
   45.8570   30.7170   48.5640 N   0  0  0  0  0  0  0  0  0  0  0  0
   46.2410   31.2040   47.3760 C   0  0  0  0  0  0  0  0  0  0  0  0
   46.7860   30.5180   46.3230 C   0  0  0  0  0  0  0  0  0  0  0  0
   47.5510   30.7620   44.2910 H   0  0  0  0  0  0  0  0  0  0  0  0
   46.1250   34.3340   46.2170 H   0  0  0  0  0  0  0  0  0  0  0  0
   45.1560   33.8270   48.8870 H   0  0  0  0  0  0  0  0  0  0  0  0
   44.9800   31.6510   50.3330 H   0  0  0  0  0  0  0  0  0  0  0  0
   49.3000   29.8380   47.7100 Cl  0  0  0  0  0  0  0  0  0  0  0  0
   48.2100   28.6630   46.9600 C   0  0  0  0  0  0  0  0  0  0  0  0
   47.0490   29.0800   46.3300 C   0  0  0  0  0  0  0  0  0  0  0  0
   46.2110   28.1520   45.7510 C   0  0  0  0  0  0  0  0  0  0  0  0
   45.3060   28.4850   45.2610 H   0  0  0  0  0  0  0  0  0  0  0  0
   46.5790   26.8320   45.8300 C   0  0  0  0  0  0  0  0  0  0  0  0
   45.8910   26.1150   45.3590 H   0  0  0  0  0  0  0  0  0  0  0  0
   47.7250   26.3670   46.4450 C   0  0  0  0  0  0  0  0  0  0  0  0
   47.8890   25.2910   46.4320 H   0  0  0  0  0  0  0  0  0  0  0  0
   48.5340   27.3380   47.0120 C   0  0  0  0  0  0  0  0  0  0  0  0
   49.9970   26.7590   47.8010 Cl  0  0  0  0  0  0  0  0  0  0  0  0
   46.6920   35.0870   42.4580 C   0  0  0  0  0  0  0  0  0  0  0  0
   47.8580   34.8240   41.7270 C   0  0  0  0  0  0  0  0  0  0  0  0
   48.6980   33.7910   42.1640 C   0  0  0  0  0  0  0  0  0  0  0  0
   48.3320   33.0940   43.2850 N   0  0  0  0  0  0  0  0  0  0  0  0
   47.1960   33.3740   43.9710 C   0  0  0  0  0  0  0  0  0  0  0  0
   46.3990   34.3570   43.5530 N   0  0  0  0  0  0  0  0  0  0  0  0
   45.9910   35.8640   42.1900 H   0  0  0  0  0  0  0  0  0  0  0  0
   48.0810   35.4140   40.8540 H   0  0  0  0  0  0  0  0  0  0  0  0
   49.6050   33.5600   41.6240 H   0  0  0  0  0  0  0  0  0  0  0  0
  1  9  1  0  0  0  0
  2  1  2  0  0  0  0
  2  3  1  0  0  0  0
  3  4  2  0  0  0  0
  4  5  1  0  0  0  0
  5 12  1  0  0  0  0
  5  6  1  0  0  0  0
  6 13  1  0  0  0  0
  7  6  2  0  0  0  0
  8  4  1  0  0  0  0
  8  7  1  0  0  0  0
  9 16  1  0  0  0  0
  9  8  2  0  0  0  0
 10  1  1  0  0  0  0
 11  3  1  0  0  0  0
 15 23  1  0  0  0  0
 15 14  1  0  0  0  0
 16 15  2  0  0  0  0
 17 19  2  0  0  0  0
 17 16  1  0  0  0  0
 18 17  1  0  0  0  0
 19 21  1  0  0  0  0
 20 19  1  0  0  0  0
 21 23  2  0  0  0  0
 22 21  1  0  0  0  0
 23 24  1  0  0  0  0
 25 30  1  0  0  0  0
 26 27  1  0  0  0  0
 26 25  2  0  0  0  0
 27 28  2  0  0  0  0
 28 29  1  0  0  0  0
 29  2  1  0  0  0  0
 30 29  2  0  0  0  0
 31 25  1  0  0  0  0
 32 26  1  0  0  0  0
 33 27  1  0  0  0  0
M  END
>  <minimizedAffinity>
-5.37388277

>  <minimizedRMSD>
1.49649298

$$$$
