
 OpenBabel03242516473D

 44 48  0  0  1  0  0  0  0  0999 V2000
   37.4080   29.5410   42.1730 C   0  0  0  0  0  0  0  0  0  0  0  0
   36.2050   29.4290   41.5820 N   0  0  0  0  0  0  0  0  0  0  0  0
   36.1470   30.1770   40.4700 C   0  0  0  0  0  0  0  0  0  0  0  0
   37.3610   30.7810   40.3600 N   0  0  0  0  0  0  0  0  0  0  0  0
   38.1220   30.4130   41.3640 N   0  0  0  0  0  0  0  0  0  0  0  0
   35.3310   30.3090   39.7710 H   0  0  0  0  0  0  0  0  0  0  0  0
   39.8840   30.6850   38.5660 O   0  0  0  0  0  0  0  0  0  0  0  0
   39.2680   31.6460   39.1300 C   0  0  0  0  0  0  0  0  0  0  0  0
   37.7990   31.6940   39.3170 C   0  0  2  0  0  0  0  0  0  0  0  0
   37.5480   33.1370   39.7140 C   0  0  0  0  0  0  0  0  0  0  0  0
   38.8040   33.4490   40.5290 C   0  0  0  0  0  0  0  0  0  0  0  0
   39.8310   32.8520   39.6910 N   0  0  0  0  0  0  0  0  0  0  0  0
   37.2580   31.4500   38.3860 H   0  0  0  0  0  0  0  0  0  0  0  0
   37.6100   33.7250   38.7780 H   0  0  0  0  0  0  0  0  0  0  0  0
   36.6250   33.2860   40.2820 H   0  0  0  0  0  0  0  0  0  0  0  0
   38.6830   32.9570   41.4940 H   0  0  0  0  0  0  0  0  0  0  0  0
   38.9170   34.5500   40.5950 H   0  0  0  0  0  0  0  0  0  0  0  0
   41.6480   31.8940   41.7640 Cl  0  0  0  0  0  0  0  0  0  0  0  0
   42.0640   32.8260   40.3640 C   0  0  0  0  0  0  0  0  0  0  0  0
   41.1590   33.2660   39.3930 C   0  0  0  0  0  0  0  0  0  0  0  0
   41.5560   34.0090   38.2990 C   0  0  0  0  0  0  0  0  0  0  0  0
   40.7870   34.2980   37.6100 H   0  0  0  0  0  0  0  0  0  0  0  0
   42.9100   34.3330   38.1560 C   0  0  0  0  0  0  0  0  0  0  0  0
   43.2100   34.9150   37.2950 H   0  0  0  0  0  0  0  0  0  0  0  0
   43.7900   33.8910   39.1230 C   0  0  0  0  0  0  0  0  0  0  0  0
   44.8590   34.1330   39.0310 H   0  0  0  0  0  0  0  0  0  0  0  0
   43.4170   33.1470   40.2260 C   0  0  0  0  0  0  0  0  0  0  0  0
   44.6120   32.6250   41.4120 Cl  0  0  0  0  0  0  0  0  0  0  0  0
   38.3420   27.4880   43.5210 C   0  0  1  0  0  0  0  0  0  0  0  0
   37.9550   28.9190   43.3850 C   0  0  2  0  0  0  0  0  0  0  0  0
   37.1090   28.0190   44.1340 C   0  0  0  0  0  0  0  0  0  0  0  0
   39.2420   27.3240   44.1540 H   0  0  0  0  0  0  0  0  0  0  0  0
   38.5790   29.6640   43.9640 H   0  0  0  0  0  0  0  0  0  0  0  0
   37.1150   28.1200   45.2600 H   0  0  0  0  0  0  0  0  0  0  0  0
   36.1050   27.7500   43.7780 H   0  0  0  0  0  0  0  0  0  0  0  0
   37.1770   25.7570   42.1770 C   0  0  0  0  0  0  0  0  0  0  0  0
   38.3050   26.5500   42.3750 C   0  0  0  0  0  0  0  0  0  0  0  0
   39.3360   26.4320   41.4750 C   0  0  0  0  0  0  0  0  0  0  0  0
   39.1870   25.5500   40.4510 N   0  0  0  0  0  0  0  0  0  0  0  0
   38.1060   24.8040   40.2770 C   0  0  0  0  0  0  0  0  0  0  0  0
   37.0920   24.9110   41.1510 N   0  0  0  0  0  0  0  0  0  0  0  0
   36.3100   25.7910   42.8490 H   0  0  0  0  0  0  0  0  0  0  0  0
   40.2140   27.0440   41.6220 H   0  0  0  0  0  0  0  0  0  0  0  0
   38.2300   24.1830   39.3890 H   0  0  0  0  0  0  0  0  0  0  0  0
  1 30  1  0  0  0  0
  2  1  1  0  0  0  0
  3  2  2  0  0  0  0
  4  3  1  0  0  0  0
  4  5  1  0  0  0  0
  5  1  2  0  0  0  0
  6  3  1  0  0  0  0
  7  8  2  0  0  0  0
  8  9  1  0  0  0  0
  8 12  1  0  0  0  0
  9 13  1  6  0  0  0
  9 10  1  0  0  0  0
  9  4  1  0  0  0  0
 10 15  1  0  0  0  0
 10 11  1  0  0  0  0
 11 17  1  0  0  0  0
 11 16  1  0  0  0  0
 12 11  1  0  0  0  0
 14 10  1  0  0  0  0
 19 18  1  0  0  0  0
 20 12  1  0  0  0  0
 20 19  2  0  0  0  0
 21 20  1  0  0  0  0
 22 21  1  0  0  0  0
 23 21  2  0  0  0  0
 23 25  1  0  0  0  0
 24 23  1  0  0  0  0
 25 27  2  0  0  0  0
 26 25  1  0  0  0  0
 27 19  1  0  0  0  0
 27 28  1  0  0  0  0
 29 31  1  0  0  0  0
 29 32  1  1  0  0  0
 30 29  1  0  0  0  0
 30 33  1  1  0  0  0
 30 31  1  0  0  0  0
 31 34  1  0  0  0  0
 35 31  1  0  0  0  0
 36 37  1  0  0  0  0
 36 42  1  0  0  0  0
 37 29  1  0  0  0  0
 38 43  1  0  0  0  0
 38 37  2  0  0  0  0
 39 38  1  0  0  0  0
 40 39  2  0  0  0  0
 40 41  1  0  0  0  0
 41 36  2  0  0  0  0
 44 40  1  0  0  0  0
M  END
>  <minimizedAffinity>
-6.44634104

$$$$

 OpenBabel03242516473D

 44 48  0  0  1  0  0  0  0  0999 V2000
   36.8670   26.1630   39.4720 C   0  0  0  0  0  0  0  0  0  0  0  0
   37.8890   26.4900   38.6590 N   0  0  0  0  0  0  0  0  0  0  0  0
   37.8310   27.7860   38.3180 C   0  0  0  0  0  0  0  0  0  0  0  0
   36.7320   28.2900   38.9400 N   0  0  0  0  0  0  0  0  0  0  0  0
   36.1480   27.3380   39.6300 N   0  0  0  0  0  0  0  0  0  0  0  0
   38.4940   28.3610   37.6840 H   0  0  0  0  0  0  0  0  0  0  0  0
   38.0000   30.8140   37.6660 O   0  0  0  0  0  0  0  0  0  0  0  0
   37.3440   30.6330   38.7420 C   0  0  0  0  0  0  0  0  0  0  0  0
   36.2390   29.6560   38.8870 C   0  0  2  0  0  0  0  0  0  0  0  0
   35.5950   30.0560   40.2020 C   0  0  0  0  0  0  0  0  0  0  0  0
   36.8110   30.5170   41.0070 C   0  0  0  0  0  0  0  0  0  0  0  0
   37.5180   31.3030   40.0100 N   0  0  0  0  0  0  0  0  0  0  0  0
   35.5110   29.7360   38.0610 H   0  0  0  0  0  0  0  0  0  0  0  0
   34.9880   30.9560   39.9820 H   0  0  0  0  0  0  0  0  0  0  0  0
   35.0440   29.2460   40.6900 H   0  0  0  0  0  0  0  0  0  0  0  0
   37.3430   29.6170   41.3150 H   0  0  0  0  0  0  0  0  0  0  0  0
   36.4590   31.1430   41.8500 H   0  0  0  0  0  0  0  0  0  0  0  0
   40.2850   30.6830   40.7030 Cl  0  0  0  0  0  0  0  0  0  0  0  0
   39.6020   32.2550   40.4530 C   0  0  0  0  0  0  0  0  0  0  0  0
   38.2670   32.5080   40.1220 C   0  0  0  0  0  0  0  0  0  0  0  0
   37.7840   33.7880   39.9370 C   0  0  0  0  0  0  0  0  0  0  0  0
   36.7450   33.8790   39.6840 H   0  0  0  0  0  0  0  0  0  0  0  0
   38.6600   34.8700   40.0860 C   0  0  0  0  0  0  0  0  0  0  0  0
   38.2710   35.8690   39.9380 H   0  0  0  0  0  0  0  0  0  0  0  0
   39.9740   34.6030   40.4130 C   0  0  0  0  0  0  0  0  0  0  0  0
   40.6800   35.4380   40.5350 H   0  0  0  0  0  0  0  0  0  0  0  0
   40.4800   33.3310   40.6030 C   0  0  0  0  0  0  0  0  0  0  0  0
   42.1740   33.0850   41.0200 Cl  0  0  0  0  0  0  0  0  0  0  0  0
   37.0090   24.4200   41.4330 C   0  0  1  0  0  0  0  0  0  0  0  0
   36.5080   24.8930   40.1130 C   0  0  2  0  0  0  0  0  0  0  0  0
   37.5020   23.8460   40.1670 C   0  0  0  0  0  0  0  0  0  0  0  0
   36.2520   23.8650   42.0290 H   0  0  0  0  0  0  0  0  0  0  0  0
   35.4470   24.6010   39.8470 H   0  0  0  0  0  0  0  0  0  0  0  0
   37.1610   22.7950   39.9290 H   0  0  0  0  0  0  0  0  0  0  0  0
   38.5240   24.0110   39.7980 H   0  0  0  0  0  0  0  0  0  0  0  0
   39.1620   24.8440   42.5930 C   0  0  0  0  0  0  0  0  0  0  0  0
   37.8670   25.2640   42.2970 C   0  0  0  0  0  0  0  0  0  0  0  0
   37.4500   26.4660   42.8160 C   0  0  0  0  0  0  0  0  0  0  0  0
   38.3280   27.1650   43.5830 N   0  0  0  0  0  0  0  0  0  0  0  0
   39.5570   26.7510   43.8540 C   0  0  0  0  0  0  0  0  0  0  0  0
   39.9750   25.5770   43.3530 N   0  0  0  0  0  0  0  0  0  0  0  0
   39.5720   23.8970   42.2180 H   0  0  0  0  0  0  0  0  0  0  0  0
   36.4480   26.7980   42.5900 H   0  0  0  0  0  0  0  0  0  0  0  0
   40.0600   27.4840   44.4850 H   0  0  0  0  0  0  0  0  0  0  0  0
  1  5  2  0  0  0  0
  1 30  1  0  0  0  0
  2  1  1  0  0  0  0
  3  2  2  0  0  0  0
  3  4  1  0  0  0  0
  4  5  1  0  0  0  0
  6  3  1  0  0  0  0
  7  8  2  0  0  0  0
  8  9  1  0  0  0  0
  8 12  1  0  0  0  0
  9 13  1  6  0  0  0
  9  4  1  0  0  0  0
  9 10  1  0  0  0  0
 10 15  1  0  0  0  0
 10 11  1  0  0  0  0
 11 16  1  0  0  0  0
 11 17  1  0  0  0  0
 12 20  1  0  0  0  0
 12 11  1  0  0  0  0
 14 10  1  0  0  0  0
 19 27  1  0  0  0  0
 19 18  1  0  0  0  0
 20 19  2  0  0  0  0
 21 23  2  0  0  0  0
 21 20  1  0  0  0  0
 22 21  1  0  0  0  0
 23 25  1  0  0  0  0
 24 23  1  0  0  0  0
 25 26  1  0  0  0  0
 25 27  2  0  0  0  0
 27 28  1  0  0  0  0
 29 32  1  1  0  0  0
 29 37  1  0  0  0  0
 30 33  1  6  0  0  0
 30 31  1  0  0  0  0
 30 29  1  0  0  0  0
 31 29  1  0  0  0  0
 34 31  1  0  0  0  0
 35 31  1  0  0  0  0
 36 41  1  0  0  0  0
 37 36  2  0  0  0  0
 37 38  1  0  0  0  0
 38 39  2  0  0  0  0
 39 40  1  0  0  0  0
 40 44  1  0  0  0  0
 41 40  2  0  0  0  0
 42 36  1  0  0  0  0
 43 38  1  0  0  0  0
M  END
>  <minimizedAffinity>
-6.33261967

$$$$

 OpenBabel03242516473D

 44 48  0  0  1  0  0  0  0  0999 V2000
   37.6140   32.9420   39.6220 C   0  0  0  0  0  0  0  0  0  0  0  0
   37.3520   32.2440   38.5020 N   0  0  0  0  0  0  0  0  0  0  0  0
   36.7570   31.0780   38.7960 C   0  0  0  0  0  0  0  0  0  0  0  0
   36.6410   31.0440   40.1500 N   0  0  0  0  0  0  0  0  0  0  0  0
   37.1450   32.1450   40.6570 N   0  0  0  0  0  0  0  0  0  0  0  0
   36.4180   30.2920   38.1320 H   0  0  0  0  0  0  0  0  0  0  0  0
   37.9330   29.2770   42.3410 O   0  0  0  0  0  0  0  0  0  0  0  0
   37.0850   29.0250   41.4250 C   0  0  0  0  0  0  0  0  0  0  0  0
   36.0580   29.9860   40.9580 C   0  0  2  0  0  0  0  0  0  0  0  0
   35.1240   29.1200   40.1330 C   0  0  0  0  0  0  0  0  0  0  0  0
   36.1040   28.1210   39.5160 C   0  0  0  0  0  0  0  0  0  0  0  0
   36.9360   27.8060   40.6650 N   0  0  0  0  0  0  0  0  0  0  0  0
   35.5140   30.4460   41.8010 H   0  0  0  0  0  0  0  0  0  0  0  0
   34.5040   28.5630   40.8620 H   0  0  0  0  0  0  0  0  0  0  0  0
   34.5520   29.6750   39.3830 H   0  0  0  0  0  0  0  0  0  0  0  0
   36.6320   28.6500   38.7220 H   0  0  0  0  0  0  0  0  0  0  0  0
   35.5340   27.2380   39.1660 H   0  0  0  0  0  0  0  0  0  0  0  0
   39.5560   27.5340   39.4080 Cl  0  0  0  0  0  0  0  0  0  0  0  0
   38.8040   26.4180   40.4990 C   0  0  0  0  0  0  0  0  0  0  0  0
   37.5430   26.5880   41.0790 C   0  0  0  0  0  0  0  0  0  0  0  0
   36.9990   25.6580   41.9420 C   0  0  0  0  0  0  0  0  0  0  0  0
   36.0260   25.8790   42.3360 H   0  0  0  0  0  0  0  0  0  0  0  0
   37.7330   24.5050   42.2470 C   0  0  0  0  0  0  0  0  0  0  0  0
   37.2970   23.7830   42.9240 H   0  0  0  0  0  0  0  0  0  0  0  0
   38.9760   24.3530   41.6650 C   0  0  0  0  0  0  0  0  0  0  0  0
   39.5700   23.4560   41.8900 H   0  0  0  0  0  0  0  0  0  0  0  0
   39.5410   25.2700   40.7990 C   0  0  0  0  0  0  0  0  0  0  0  0
   41.1360   24.9920   40.1030 Cl  0  0  0  0  0  0  0  0  0  0  0  0
   39.6960   34.5290   39.8460 C   0  0  1  0  0  0  0  0  0  0  0  0
   38.2330   34.2580   39.8220 C   0  0  2  0  0  0  0  0  0  0  0  0
   38.8890   34.5230   41.0810 C   0  0  0  0  0  0  0  0  0  0  0  0
   39.9820   35.4980   39.3820 H   0  0  0  0  0  0  0  0  0  0  0  0
   37.5800   35.0720   39.3840 H   0  0  0  0  0  0  0  0  0  0  0  0
   38.7030   35.5290   41.5610 H   0  0  0  0  0  0  0  0  0  0  0  0
   38.9850   33.7430   41.8490 H   0  0  0  0  0  0  0  0  0  0  0  0
   41.2280   32.7320   40.6110 C   0  0  0  0  0  0  0  0  0  0  0  0
   40.6960   33.4740   39.5580 C   0  0  0  0  0  0  0  0  0  0  0  0
   41.1220   33.1750   38.2870 C   0  0  0  0  0  0  0  0  0  0  0  0
   42.0310   32.1760   38.1400 N   0  0  0  0  0  0  0  0  0  0  0  0
   42.5250   31.4790   39.1520 C   0  0  0  0  0  0  0  0  0  0  0  0
   42.1180   31.7630   40.4000 N   0  0  0  0  0  0  0  0  0  0  0  0
   40.9410   32.9060   41.6560 H   0  0  0  0  0  0  0  0  0  0  0  0
   40.7140   33.7470   37.4660 H   0  0  0  0  0  0  0  0  0  0  0  0
   43.2330   30.7390   38.7760 H   0  0  0  0  0  0  0  0  0  0  0  0
  1 30  1  0  0  0  0
  1  5  2  0  0  0  0
  2  3  2  0  0  0  0
  2  1  1  0  0  0  0
  3  4  1  0  0  0  0
  4  5  1  0  0  0  0
  4  9  1  0  0  0  0
  6  3  1  0  0  0  0
  8  7  2  0  0  0  0
  9  8  1  0  0  0  0
  9 13  1  1  0  0  0
 10 14  1  0  0  0  0
 10  9  1  0  0  0  0
 11 10  1  0  0  0  0
 11 12  1  0  0  0  0
 12 20  1  0  0  0  0
 12  8  1  0  0  0  0
 15 10  1  0  0  0  0
 16 11  1  0  0  0  0
 17 11  1  0  0  0  0
 18 19  1  0  0  0  0
 19 27  2  0  0  0  0
 19 20  1  0  0  0  0
 20 21  2  0  0  0  0
 21 23  1  0  0  0  0
 21 22  1  0  0  0  0
 23 24  1  0  0  0  0
 25 26  1  0  0  0  0
 25 23  2  0  0  0  0
 27 25  1  0  0  0  0
 28 27  1  0  0  0  0
 29 32  1  6  0  0  0
 29 31  1  0  0  0  0
 30 33  1  6  0  0  0
 30 29  1  0  0  0  0
 30 31  1  0  0  0  0
 31 34  1  0  0  0  0
 31 35  1  0  0  0  0
 36 42  1  0  0  0  0
 37 29  1  0  0  0  0
 37 36  2  0  0  0  0
 38 37  1  0  0  0  0
 39 38  2  0  0  0  0
 39 40  1  0  0  0  0
 40 41  2  0  0  0  0
 41 36  1  0  0  0  0
 43 38  1  0  0  0  0
 44 40  1  0  0  0  0
M  END
>  <minimizedAffinity>
-6.20823622

$$$$

 OpenBabel03242516473D

 44 48  0  0  1  0  0  0  0  0999 V2000
   39.1870   27.5750   43.5230 C   0  0  0  0  0  0  0  0  0  0  0  0
   40.0920   26.6670   43.9330 N   0  0  0  0  0  0  0  0  0  0  0  0
   41.3350   27.0480   43.6010 C   0  0  0  0  0  0  0  0  0  0  0  0
   41.2040   28.2390   42.9590 N   0  0  0  0  0  0  0  0  0  0  0  0
   39.9340   28.5670   42.9040 N   0  0  0  0  0  0  0  0  0  0  0  0
   42.2790   26.5490   43.7820 H   0  0  0  0  0  0  0  0  0  0  0  0
   41.7650   31.2650   43.3140 O   0  0  0  0  0  0  0  0  0  0  0  0
   41.8640   30.4860   42.3120 C   0  0  0  0  0  0  0  0  0  0  0  0
   42.2660   29.0620   42.4040 C   0  0  2  0  0  0  0  0  0  0  0  0
   42.5490   28.6890   40.9610 C   0  0  0  0  0  0  0  0  0  0  0  0
   41.5020   29.5240   40.2220 C   0  0  0  0  0  0  0  0  0  0  0  0
   41.6190   30.7920   40.9220 N   0  0  0  0  0  0  0  0  0  0  0  0
   43.1720   28.9310   43.0220 H   0  0  0  0  0  0  0  0  0  0  0  0
   43.5400   29.1210   40.7240 H   0  0  0  0  0  0  0  0  0  0  0  0
   42.4610   27.6180   40.7550 H   0  0  0  0  0  0  0  0  0  0  0  0
   40.5440   29.0270   40.3680 H   0  0  0  0  0  0  0  0  0  0  0  0
   41.8070   29.6120   39.1600 H   0  0  0  0  0  0  0  0  0  0  0  0
   38.8450   31.6950   41.0320 Cl  0  0  0  0  0  0  0  0  0  0  0  0
   40.2160   32.6070   40.4930 C   0  0  0  0  0  0  0  0  0  0  0  0
   41.5320   32.1340   40.4570 C   0  0  0  0  0  0  0  0  0  0  0  0
   42.5830   32.9130   40.0140 C   0  0  0  0  0  0  0  0  0  0  0  0
   43.5550   32.4600   40.0240 H   0  0  0  0  0  0  0  0  0  0  0  0
   42.3220   34.2210   39.5870 C   0  0  0  0  0  0  0  0  0  0  0  0
   43.1530   34.8230   39.2430 H   0  0  0  0  0  0  0  0  0  0  0  0
   41.0190   34.6720   39.6300 C   0  0  0  0  0  0  0  0  0  0  0  0
   40.7910   35.6960   39.2990 H   0  0  0  0  0  0  0  0  0  0  0  0
   39.9520   33.9110   40.0680 C   0  0  0  0  0  0  0  0  0  0  0  0
   38.3180   34.5720   40.0870 Cl  0  0  0  0  0  0  0  0  0  0  0  0
   36.7600   26.8620   42.8160 C   0  0  1  0  0  0  0  0  0  0  0  0
   37.7270   27.6170   43.6590 C   0  0  2  0  0  0  0  0  0  0  0  0
   36.9650   28.3130   42.6490 C   0  0  0  0  0  0  0  0  0  0  0  0
   35.8700   26.4950   43.3720 H   0  0  0  0  0  0  0  0  0  0  0  0
   37.4340   27.7700   44.7410 H   0  0  0  0  0  0  0  0  0  0  0  0
   36.1240   28.9800   43.0020 H   0  0  0  0  0  0  0  0  0  0  0  0
   37.4520   28.7460   41.7630 H   0  0  0  0  0  0  0  0  0  0  0  0
   37.3560   24.5460   42.1500 C   0  0  0  0  0  0  0  0  0  0  0  0
   37.2020   25.8850   41.7940 C   0  0  0  0  0  0  0  0  0  0  0  0
   37.4580   26.2330   40.4900 C   0  0  0  0  0  0  0  0  0  0  0  0
   37.8420   25.2500   39.6350 N   0  0  0  0  0  0  0  0  0  0  0  0
   37.9830   23.9820   39.9890 C   0  0  0  0  0  0  0  0  0  0  0  0
   37.7370   23.6290   41.2620 N   0  0  0  0  0  0  0  0  0  0  0  0
   37.1720   24.1850   43.1700 H   0  0  0  0  0  0  0  0  0  0  0  0
   37.3400   27.2690   40.2070 H   0  0  0  0  0  0  0  0  0  0  0  0
   38.2980   23.3930   39.1270 H   0  0  0  0  0  0  0  0  0  0  0  0
  1 30  1  0  0  0  0
  1  2  1  0  0  0  0
  3  6  1  0  0  0  0
  3  2  2  0  0  0  0
  4  3  1  0  0  0  0
  5  4  1  0  0  0  0
  5  1  2  0  0  0  0
  8  9  1  0  0  0  0
  8  7  2  0  0  0  0
  9  4  1  0  0  0  0
  9 13  1  1  0  0  0
 10  9  1  0  0  0  0
 11 16  1  0  0  0  0
 11 12  1  0  0  0  0
 11 10  1  0  0  0  0
 12  8  1  0  0  0  0
 14 10  1  0  0  0  0
 15 10  1  0  0  0  0
 17 11  1  0  0  0  0
 19 18  1  0  0  0  0
 20 19  1  0  0  0  0
 20 12  1  0  0  0  0
 21 22  1  0  0  0  0
 21 20  2  0  0  0  0
 23 25  2  0  0  0  0
 23 21  1  0  0  0  0
 24 23  1  0  0  0  0
 25 27  1  0  0  0  0
 26 25  1  0  0  0  0
 27 28  1  0  0  0  0
 27 19  2  0  0  0  0
 29 32  1  1  0  0  0
 29 30  1  0  0  0  0
 30 33  1  1  0  0  0
 31 29  1  0  0  0  0
 31 34  1  0  0  0  0
 31 30  1  0  0  0  0
 35 31  1  0  0  0  0
 36 42  1  0  0  0  0
 37 36  1  0  0  0  0
 37 29  1  0  0  0  0
 38 37  2  0  0  0  0
 39 40  2  0  0  0  0
 39 38  1  0  0  0  0
 40 41  1  0  0  0  0
 41 36  2  0  0  0  0
 43 38  1  0  0  0  0
 44 40  1  0  0  0  0
M  END
>  <minimizedAffinity>
-6.08614206

$$$$

 OpenBabel03242516473D

 44 48  0  0  1  0  0  0  0  0999 V2000
   36.6610   30.7870   40.0440 C   0  0  0  0  0  0  0  0  0  0  0  0
   35.6650   29.8880   40.1370 N   0  0  0  0  0  0  0  0  0  0  0  0
   35.8240   29.1100   41.2180 C   0  0  0  0  0  0  0  0  0  0  0  0
   36.9630   29.5380   41.8260 N   0  0  0  0  0  0  0  0  0  0  0  0
   37.4740   30.5350   41.1400 N   0  0  0  0  0  0  0  0  0  0  0  0
   35.2060   28.2980   41.5790 H   0  0  0  0  0  0  0  0  0  0  0  0
   39.9000   29.6610   42.8040 O   0  0  0  0  0  0  0  0  0  0  0  0
   39.0120   28.7510   42.8670 C   0  0  0  0  0  0  0  0  0  0  0  0
   37.5640   29.0140   43.0410 C   0  0  2  0  0  0  0  0  0  0  0  0
   37.0020   27.6460   43.3820 C   0  0  0  0  0  0  0  0  0  0  0  0
   37.8930   26.7340   42.5380 C   0  0  0  0  0  0  0  0  0  0  0  0
   39.2000   27.3210   42.7850 N   0  0  0  0  0  0  0  0  0  0  0  0
   37.3730   29.7260   43.8630 H   0  0  0  0  0  0  0  0  0  0  0  0
   37.2630   27.4670   44.4440 H   0  0  0  0  0  0  0  0  0  0  0  0
   35.9390   27.5340   43.1520 H   0  0  0  0  0  0  0  0  0  0  0  0
   37.5550   26.8320   41.5060 H   0  0  0  0  0  0  0  0  0  0  0  0
   37.8230   25.7030   42.9380 H   0  0  0  0  0  0  0  0  0  0  0  0
   40.2120   26.4740   40.1820 Cl  0  0  0  0  0  0  0  0  0  0  0  0
   41.0060   26.3050   41.7130 C   0  0  0  0  0  0  0  0  0  0  0  0
   40.4820   26.7260   42.9390 C   0  0  0  0  0  0  0  0  0  0  0  0
   41.1670   26.5600   44.1270 C   0  0  0  0  0  0  0  0  0  0  0  0
   40.6820   26.9160   45.0150 H   0  0  0  0  0  0  0  0  0  0  0  0
   42.4270   25.9510   44.1030 C   0  0  0  0  0  0  0  0  0  0  0  0
   42.9550   25.8260   45.0390 H   0  0  0  0  0  0  0  0  0  0  0  0
   42.9290   25.5420   42.8840 C   0  0  0  0  0  0  0  0  0  0  0  0
   43.9170   25.0610   42.8410 H   0  0  0  0  0  0  0  0  0  0  0  0
   42.2630   25.6960   41.6830 C   0  0  0  0  0  0  0  0  0  0  0  0
   42.9820   25.1420   40.1720 Cl  0  0  0  0  0  0  0  0  0  0  0  0
   37.5590   31.6530   37.7310 C   0  0  1  0  0  0  0  0  0  0  0  0
   36.9220   31.8470   39.0620 C   0  0  2  0  0  0  0  0  0  0  0  0
   38.2880   32.2690   38.8560 C   0  0  0  0  0  0  0  0  0  0  0  0
   37.1360   32.2990   36.9320 H   0  0  0  0  0  0  0  0  0  0  0  0
   36.1240   32.6470   39.1230 H   0  0  0  0  0  0  0  0  0  0  0  0
   38.4800   33.3800   38.7770 H   0  0  0  0  0  0  0  0  0  0  0  0
   39.1230   31.7700   39.3680 H   0  0  0  0  0  0  0  0  0  0  0  0
   39.1220   29.7310   37.5790 C   0  0  0  0  0  0  0  0  0  0  0  0
   37.9080   30.3090   37.2140 C   0  0  0  0  0  0  0  0  0  0  0  0
   37.0760   29.5860   36.3940 C   0  0  0  0  0  0  0  0  0  0  0  0
   37.4930   28.3560   35.9940 N   0  0  0  0  0  0  0  0  0  0  0  0
   38.6500   27.8200   36.3510 C   0  0  0  0  0  0  0  0  0  0  0  0
   39.4720   28.5180   37.1520 N   0  0  0  0  0  0  0  0  0  0  0  0
   39.8430   30.2410   38.2310 H   0  0  0  0  0  0  0  0  0  0  0  0
   36.1330   30.0280   36.1070 H   0  0  0  0  0  0  0  0  0  0  0  0
   38.7510   26.8310   35.9020 H   0  0  0  0  0  0  0  0  0  0  0  0
  1  2  1  0  0  0  0
  1  5  2  0  0  0  0
  2  3  2  0  0  0  0
  3  6  1  0  0  0  0
  3  4  1  0  0  0  0
  4  9  1  0  0  0  0
  5  4  1  0  0  0  0
  7  8  2  0  0  0  0
  8  9  1  0  0  0  0
  9 10  1  0  0  0  0
  9 13  1  1  0  0  0
 10 14  1  0  0  0  0
 11 12  1  0  0  0  0
 11 17  1  0  0  0  0
 11 10  1  0  0  0  0
 12  8  1  0  0  0  0
 12 20  1  0  0  0  0
 15 10  1  0  0  0  0
 16 11  1  0  0  0  0
 18 19  1  0  0  0  0
 19 20  1  0  0  0  0
 20 21  2  0  0  0  0
 21 22  1  0  0  0  0
 23 21  1  0  0  0  0
 23 24  1  0  0  0  0
 25 23  2  0  0  0  0
 26 25  1  0  0  0  0
 27 19  2  0  0  0  0
 27 25  1  0  0  0  0
 28 27  1  0  0  0  0
 29 32  1  6  0  0  0
 29 31  1  0  0  0  0
 29 30  1  0  0  0  0
 30 33  1  1  0  0  0
 30  1  1  0  0  0  0
 31 30  1  0  0  0  0
 31 35  1  0  0  0  0
 34 31  1  0  0  0  0
 36 42  1  0  0  0  0
 37 36  1  0  0  0  0
 37 29  1  0  0  0  0
 38 37  2  0  0  0  0
 39 40  2  0  0  0  0
 39 38  1  0  0  0  0
 40 41  1  0  0  0  0
 41 36  2  0  0  0  0
 43 38  1  0  0  0  0
 44 40  1  0  0  0  0
M  END
>  <minimizedAffinity>
-6.02740431

$$$$

 OpenBabel03242516473D

 44 48  0  0  1  0  0  0  0  0999 V2000
   38.5170   29.6310   42.5440 C   0  0  0  0  0  0  0  0  0  0  0  0
   39.7050   30.2470   42.6800 N   0  0  0  0  0  0  0  0  0  0  0  0
   40.0570   30.8600   41.5400 C   0  0  0  0  0  0  0  0  0  0  0  0
   39.0520   30.6190   40.6560 N   0  0  0  0  0  0  0  0  0  0  0  0
   38.1280   29.8900   41.2370 N   0  0  0  0  0  0  0  0  0  0  0  0
   40.9450   31.4390   41.3160 H   0  0  0  0  0  0  0  0  0  0  0  0
   36.5740   31.4550   38.9970 O   0  0  0  0  0  0  0  0  0  0  0  0
   37.6260   30.8030   38.6990 C   0  0  0  0  0  0  0  0  0  0  0  0
   38.9630   31.0730   39.2790 C   0  0  2  0  0  0  0  0  0  0  0  0
   39.8960   30.2820   38.3810 C   0  0  0  0  0  0  0  0  0  0  0  0
   39.0320   29.0650   38.0450 C   0  0  0  0  0  0  0  0  0  0  0  0
   37.7540   29.7010   37.7730 N   0  0  0  0  0  0  0  0  0  0  0  0
   39.2140   32.1480   39.2450 H   0  0  0  0  0  0  0  0  0  0  0  0
   39.9990   30.8760   37.4520 H   0  0  0  0  0  0  0  0  0  0  0  0
   40.8440   30.0130   38.8540 H   0  0  0  0  0  0  0  0  0  0  0  0
   39.0280   28.4290   38.9310 H   0  0  0  0  0  0  0  0  0  0  0  0
   39.4480   28.5750   37.1420 H   0  0  0  0  0  0  0  0  0  0  0  0
   35.9360   27.6920   38.8600 Cl  0  0  0  0  0  0  0  0  0  0  0  0
   35.8460   28.4440   37.3020 C   0  0  0  0  0  0  0  0  0  0  0  0
   36.7410   29.4040   36.8200 C   0  0  0  0  0  0  0  0  0  0  0  0
   36.6130   29.9650   35.5640 C   0  0  0  0  0  0  0  0  0  0  0  0
   37.3500   30.6930   35.2860 H   0  0  0  0  0  0  0  0  0  0  0  0
   35.5520   29.5580   34.7460 C   0  0  0  0  0  0  0  0  0  0  0  0
   35.4620   30.0040   33.7650 H   0  0  0  0  0  0  0  0  0  0  0  0
   34.6780   28.6100   35.2370 C   0  0  0  0  0  0  0  0  0  0  0  0
   33.8380   28.2760   34.6120 H   0  0  0  0  0  0  0  0  0  0  0  0
   34.7850   28.0350   36.4890 C   0  0  0  0  0  0  0  0  0  0  0  0
   33.6210   26.8290   37.0330 Cl  0  0  0  0  0  0  0  0  0  0  0  0
   37.9350   27.4190   43.8370 C   0  0  1  0  0  0  0  0  0  0  0  0
   37.7150   28.8510   43.4940 C   0  0  2  0  0  0  0  0  0  0  0  0
   36.8190   27.8450   42.9720 C   0  0  0  0  0  0  0  0  0  0  0  0
   37.7390   27.1770   44.9050 H   0  0  0  0  0  0  0  0  0  0  0  0
   37.3370   29.5130   44.3300 H   0  0  0  0  0  0  0  0  0  0  0  0
   35.7850   27.7870   43.4240 H   0  0  0  0  0  0  0  0  0  0  0  0
   36.7800   27.6180   41.8970 H   0  0  0  0  0  0  0  0  0  0  0  0
   40.2830   26.6360   44.0240 C   0  0  0  0  0  0  0  0  0  0  0  0
   39.0860   26.6510   43.3090 C   0  0  0  0  0  0  0  0  0  0  0  0
   39.0300   25.9300   42.1420 C   0  0  0  0  0  0  0  0  0  0  0  0
   40.1440   25.2500   41.7620 N   0  0  0  0  0  0  0  0  0  0  0  0
   41.2730   25.2450   42.4540 C   0  0  0  0  0  0  0  0  0  0  0  0
   41.3400   25.9470   43.5970 N   0  0  0  0  0  0  0  0  0  0  0  0
   40.4110   27.1850   44.9660 H   0  0  0  0  0  0  0  0  0  0  0  0
   38.1060   25.9380   41.5820 H   0  0  0  0  0  0  0  0  0  0  0  0
   42.0140   24.6280   41.9430 H   0  0  0  0  0  0  0  0  0  0  0  0
  1  2  1  0  0  0  0
  1 30  1  0  0  0  0
  3  2  2  0  0  0  0
  4  5  1  0  0  0  0
  4  3  1  0  0  0  0
  5  1  2  0  0  0  0
  6  3  1  0  0  0  0
  8  7  2  0  0  0  0
  8  9  1  0  0  0  0
  9 13  1  6  0  0  0
  9  4  1  0  0  0  0
 10 15  1  0  0  0  0
 10  9  1  0  0  0  0
 11 10  1  0  0  0  0
 11 16  1  0  0  0  0
 12 11  1  0  0  0  0
 12  8  1  0  0  0  0
 14 10  1  0  0  0  0
 17 11  1  0  0  0  0
 19 18  1  0  0  0  0
 20 19  1  0  0  0  0
 20 12  1  0  0  0  0
 21 20  2  0  0  0  0
 22 21  1  0  0  0  0
 23 25  2  0  0  0  0
 23 21  1  0  0  0  0
 24 23  1  0  0  0  0
 25 27  1  0  0  0  0
 26 25  1  0  0  0  0
 27 28  1  0  0  0  0
 27 19  2  0  0  0  0
 29 32  1  1  0  0  0
 30 29  1  0  0  0  0
 30 33  1  1  0  0  0
 31 34  1  0  0  0  0
 31 30  1  0  0  0  0
 31 29  1  0  0  0  0
 35 31  1  0  0  0  0
 36 42  1  0  0  0  0
 37 29  1  0  0  0  0
 37 36  2  0  0  0  0
 38 37  1  0  0  0  0
 39 38  2  0  0  0  0
 39 40  1  0  0  0  0
 40 41  2  0  0  0  0
 41 36  1  0  0  0  0
 43 38  1  0  0  0  0
 44 40  1  0  0  0  0
M  END
>  <minimizedAffinity>
-5.90185452

$$$$

 OpenBabel03242516473D

 44 48  0  0  1  0  0  0  0  0999 V2000
   36.3400   28.9300   39.9910 C   0  0  0  0  0  0  0  0  0  0  0  0
   35.9110   29.7530   40.9650 N   0  0  0  0  0  0  0  0  0  0  0  0
   36.2540   31.0230   40.7030 C   0  0  0  0  0  0  0  0  0  0  0  0
   36.9230   30.9960   39.5190 N   0  0  0  0  0  0  0  0  0  0  0  0
   36.9830   29.7590   39.0820 N   0  0  0  0  0  0  0  0  0  0  0  0
   36.0630   31.9200   41.2780 H   0  0  0  0  0  0  0  0  0  0  0  0
   39.4320   31.1310   37.7070 O   0  0  0  0  0  0  0  0  0  0  0  0
   38.9490   31.9370   38.5660 C   0  0  0  0  0  0  0  0  0  0  0  0
   37.4990   32.1240   38.8060 C   0  0  2  0  0  0  0  0  0  0  0  0
   37.4470   33.3860   39.6480 C   0  0  0  0  0  0  0  0  0  0  0  0
   38.7240   33.2470   40.4790 C   0  0  0  0  0  0  0  0  0  0  0  0
   39.6680   32.8130   39.4620 N   0  0  0  0  0  0  0  0  0  0  0  0
   36.9420   32.2660   37.8640 H   0  0  0  0  0  0  0  0  0  0  0  0
   37.6040   34.2260   38.9440 H   0  0  0  0  0  0  0  0  0  0  0  0
   36.5470   33.4710   40.2630 H   0  0  0  0  0  0  0  0  0  0  0  0
   38.5220   32.4950   41.2420 H   0  0  0  0  0  0  0  0  0  0  0  0
   38.9890   34.2430   40.8870 H   0  0  0  0  0  0  0  0  0  0  0  0
   41.2960   31.1510   41.2250 Cl  0  0  0  0  0  0  0  0  0  0  0  0
   41.8620   32.3370   40.0960 C   0  0  0  0  0  0  0  0  0  0  0  0
   41.0450   33.1140   39.2690 C   0  0  0  0  0  0  0  0  0  0  0  0
   41.5600   34.0450   38.3890 C   0  0  0  0  0  0  0  0  0  0  0  0
   40.8520   34.5910   37.7970 H   0  0  0  0  0  0  0  0  0  0  0  0
   42.9480   34.2180   38.3230 C   0  0  0  0  0  0  0  0  0  0  0  0
   43.3410   34.9500   37.6300 H   0  0  0  0  0  0  0  0  0  0  0  0
   43.7400   33.4440   39.1470 C   0  0  0  0  0  0  0  0  0  0  0  0
   44.8330   33.5630   39.1110 H   0  0  0  0  0  0  0  0  0  0  0  0
   43.2480   32.5060   40.0340 C   0  0  0  0  0  0  0  0  0  0  0  0
   44.3360   31.5620   41.0490 Cl  0  0  0  0  0  0  0  0  0  0  0  0
   37.0550   26.4480   40.4680 C   0  0  1  0  0  0  0  0  0  0  0  0
   36.2020   27.4800   39.8170 C   0  0  2  0  0  0  0  0  0  0  0  0
   37.2020   26.7850   39.0390 C   0  0  0  0  0  0  0  0  0  0  0  0
   36.5040   25.5280   40.7600 H   0  0  0  0  0  0  0  0  0  0  0  0
   35.1180   27.2020   39.6530 H   0  0  0  0  0  0  0  0  0  0  0  0
   36.8390   26.0090   38.3030 H   0  0  0  0  0  0  0  0  0  0  0  0
   38.0810   27.3100   38.6400 H   0  0  0  0  0  0  0  0  0  0  0  0
   37.7400   26.8930   42.8120 C   0  0  0  0  0  0  0  0  0  0  0  0
   38.0910   26.7990   41.4660 C   0  0  0  0  0  0  0  0  0  0  0  0
   39.4040   27.0260   41.1310 C   0  0  0  0  0  0  0  0  0  0  0  0
   40.2720   27.3260   42.1330 N   0  0  0  0  0  0  0  0  0  0  0  0
   39.9210   27.4100   43.4080 C   0  0  0  0  0  0  0  0  0  0  0  0
   38.6400   27.1910   43.7480 N   0  0  0  0  0  0  0  0  0  0  0  0
   36.7130   26.7270   43.1630 H   0  0  0  0  0  0  0  0  0  0  0  0
   39.6840   26.9550   40.0900 H   0  0  0  0  0  0  0  0  0  0  0  0
   40.7940   27.6620   44.0120 H   0  0  0  0  0  0  0  0  0  0  0  0
  1  2  1  0  0  0  0
  3  2  2  0  0  0  0
  3  6  1  0  0  0  0
  4  3  1  0  0  0  0
  5  4  1  0  0  0  0
  5  1  2  0  0  0  0
  7  8  2  0  0  0  0
  8  9  1  0  0  0  0
  8 12  1  0  0  0  0
  9 13  1  6  0  0  0
  9  4  1  0  0  0  0
  9 10  1  0  0  0  0
 10 15  1  0  0  0  0
 10 11  1  0  0  0  0
 11 17  1  0  0  0  0
 11 16  1  0  0  0  0
 12 11  1  0  0  0  0
 14 10  1  0  0  0  0
 19 18  1  0  0  0  0
 20 12  1  0  0  0  0
 20 19  2  0  0  0  0
 21 20  1  0  0  0  0
 22 21  1  0  0  0  0
 23 21  2  0  0  0  0
 23 25  1  0  0  0  0
 24 23  1  0  0  0  0
 25 27  2  0  0  0  0
 26 25  1  0  0  0  0
 27 19  1  0  0  0  0
 27 28  1  0  0  0  0
 29 32  1  1  0  0  0
 29 37  1  0  0  0  0
 30 33  1  6  0  0  0
 30  1  1  0  0  0  0
 30 29  1  0  0  0  0
 31 30  1  0  0  0  0
 31 29  1  0  0  0  0
 34 31  1  0  0  0  0
 35 31  1  0  0  0  0
 36 42  1  0  0  0  0
 36 41  1  0  0  0  0
 37 36  2  0  0  0  0
 38 37  1  0  0  0  0
 38 39  2  0  0  0  0
 39 40  1  0  0  0  0
 40 41  2  0  0  0  0
 40 44  1  0  0  0  0
 43 38  1  0  0  0  0
M  END
>  <minimizedAffinity>
-5.86777782

$$$$

 OpenBabel03242516473D

 44 48  0  0  1  0  0  0  0  0999 V2000
   36.8110   28.8370   41.9890 C   0  0  0  0  0  0  0  0  0  0  0  0
   35.7830   28.6090   41.1510 N   0  0  0  0  0  0  0  0  0  0  0  0
   36.0500   29.0880   39.9270 C   0  0  0  0  0  0  0  0  0  0  0  0
   37.2920   29.6370   40.0000 N   0  0  0  0  0  0  0  0  0  0  0  0
   37.7590   29.4960   41.2180 N   0  0  0  0  0  0  0  0  0  0  0  0
   35.4400   29.0690   39.0320 H   0  0  0  0  0  0  0  0  0  0  0  0
   40.3160   30.2710   39.7770 O   0  0  0  0  0  0  0  0  0  0  0  0
   39.2750   30.9180   39.4320 C   0  0  0  0  0  0  0  0  0  0  0  0
   38.0320   30.2860   38.9310 C   0  0  2  0  0  0  0  0  0  0  0  0
   37.2540   31.4570   38.3600 C   0  0  0  0  0  0  0  0  0  0  0  0
   37.6450   32.5780   39.3250 C   0  0  0  0  0  0  0  0  0  0  0  0
   39.0750   32.3490   39.4470 N   0  0  0  0  0  0  0  0  0  0  0  0
   38.2400   29.5400   38.1430 H   0  0  0  0  0  0  0  0  0  0  0  0
   37.7230   31.6870   37.3840 H   0  0  0  0  0  0  0  0  0  0  0  0
   36.1730   31.2910   38.3160 H   0  0  0  0  0  0  0  0  0  0  0  0
   37.0910   32.4060   40.2470 H   0  0  0  0  0  0  0  0  0  0  0  0
   37.4250   33.5510   38.8420 H   0  0  0  0  0  0  0  0  0  0  0  0
   40.7120   32.2400   37.0330 Cl  0  0  0  0  0  0  0  0  0  0  0  0
   40.9770   33.2350   38.4270 C   0  0  0  0  0  0  0  0  0  0  0  0
   40.1650   33.2550   39.5650 C   0  0  0  0  0  0  0  0  0  0  0  0
   40.4320   34.0720   40.6450 C   0  0  0  0  0  0  0  0  0  0  0  0
   39.7500   34.0160   41.4710 H   0  0  0  0  0  0  0  0  0  0  0  0
   41.5530   34.9100   40.6000 C   0  0  0  0  0  0  0  0  0  0  0  0
   41.7530   35.5460   41.4510 H   0  0  0  0  0  0  0  0  0  0  0  0
   42.3440   34.8770   39.4690 C   0  0  0  0  0  0  0  0  0  0  0  0
   43.2300   35.5270   39.4110 H   0  0  0  0  0  0  0  0  0  0  0  0
   42.0970   34.0680   38.3760 C   0  0  0  0  0  0  0  0  0  0  0  0
   43.1630   34.0930   36.9730 Cl  0  0  0  0  0  0  0  0  0  0  0  0
   37.7610   27.3230   43.9150 C   0  0  1  0  0  0  0  0  0  0  0  0
   37.0020   28.4970   43.4030 C   0  0  2  0  0  0  0  0  0  0  0  0
   36.2860   27.3620   43.9390 C   0  0  0  0  0  0  0  0  0  0  0  0
   38.3290   27.5270   44.8480 H   0  0  0  0  0  0  0  0  0  0  0  0
   37.0500   29.4370   44.0330 H   0  0  0  0  0  0  0  0  0  0  0  0
   35.8060   27.4850   44.9550 H   0  0  0  0  0  0  0  0  0  0  0  0
   35.6640   26.7250   43.2950 H   0  0  0  0  0  0  0  0  0  0  0  0
   39.8760   26.5970   42.8380 C   0  0  0  0  0  0  0  0  0  0  0  0
   38.5060   26.4140   43.0130 C   0  0  0  0  0  0  0  0  0  0  0  0
   37.9090   25.3760   42.3410 C   0  0  0  0  0  0  0  0  0  0  0  0
   38.6930   24.5950   41.5520 N   0  0  0  0  0  0  0  0  0  0  0  0
   39.9960   24.7830   41.3980 C   0  0  0  0  0  0  0  0  0  0  0  0
   40.5910   25.7960   42.0490 N   0  0  0  0  0  0  0  0  0  0  0  0
   40.4290   27.4030   43.3380 H   0  0  0  0  0  0  0  0  0  0  0  0
   36.8470   25.2280   42.4710 H   0  0  0  0  0  0  0  0  0  0  0  0
   40.3970   24.0290   40.7190 H   0  0  0  0  0  0  0  0  0  0  0  0
  1 30  1  0  0  0  0
  2  1  1  0  0  0  0
  3  4  1  0  0  0  0
  3  2  2  0  0  0  0
  4  5  1  0  0  0  0
  5  1  2  0  0  0  0
  6  3  1  0  0  0  0
  8 12  1  0  0  0  0
  8  7  2  0  0  0  0
  9 13  1  6  0  0  0
  9  8  1  0  0  0  0
  9  4  1  0  0  0  0
 10  9  1  0  0  0  0
 10 11  1  0  0  0  0
 11 12  1  0  0  0  0
 11 16  1  0  0  0  0
 12 20  1  0  0  0  0
 14 10  1  0  0  0  0
 15 10  1  0  0  0  0
 17 11  1  0  0  0  0
 18 19  1  0  0  0  0
 19 20  1  0  0  0  0
 20 21  2  0  0  0  0
 21 22  1  0  0  0  0
 23 21  1  0  0  0  0
 23 24  1  0  0  0  0
 25 23  2  0  0  0  0
 26 25  1  0  0  0  0
 27 19  2  0  0  0  0
 27 25  1  0  0  0  0
 28 27  1  0  0  0  0
 29 31  1  0  0  0  0
 29 32  1  1  0  0  0
 30 29  1  0  0  0  0
 30 31  1  0  0  0  0
 30 33  1  1  0  0  0
 31 34  1  0  0  0  0
 35 31  1  0  0  0  0
 36 37  1  0  0  0  0
 36 42  1  0  0  0  0
 37 29  1  0  0  0  0
 38 43  1  0  0  0  0
 38 37  2  0  0  0  0
 39 38  1  0  0  0  0
 40 39  2  0  0  0  0
 40 41  1  0  0  0  0
 41 36  2  0  0  0  0
 44 40  1  0  0  0  0
M  END
>  <minimizedAffinity>
-5.81890249

$$$$

 OpenBabel03242516473D

 44 48  0  0  1  0  0  0  0  0999 V2000
   39.5870   33.0300   40.2330 C   0  0  0  0  0  0  0  0  0  0  0  0
   39.8780   32.2610   41.2980 N   0  0  0  0  0  0  0  0  0  0  0  0
   39.1440   31.1380   41.2910 C   0  0  0  0  0  0  0  0  0  0  0  0
   38.3620   31.2060   40.1800 N   0  0  0  0  0  0  0  0  0  0  0  0
   38.6130   32.3250   39.5400 N   0  0  0  0  0  0  0  0  0  0  0  0
   39.1360   30.3170   41.9970 H   0  0  0  0  0  0  0  0  0  0  0  0
   36.7070   29.1490   41.8000 O   0  0  0  0  0  0  0  0  0  0  0  0
   37.2820   29.0860   40.6660 C   0  0  0  0  0  0  0  0  0  0  0  0
   37.3900   30.2270   39.7260 C   0  0  2  0  0  0  0  0  0  0  0  0
   37.8410   29.5680   38.4340 C   0  0  0  0  0  0  0  0  0  0  0  0
   38.7370   28.4480   38.9640 C   0  0  0  0  0  0  0  0  0  0  0  0
   37.9290   27.9450   40.0620 N   0  0  0  0  0  0  0  0  0  0  0  0
   36.4200   30.7330   39.5820 H   0  0  0  0  0  0  0  0  0  0  0  0
   36.9380   29.0910   38.0060 H   0  0  0  0  0  0  0  0  0  0  0  0
   38.3630   30.2450   37.7520 H   0  0  0  0  0  0  0  0  0  0  0  0
   39.6700   28.9140   39.2810 H   0  0  0  0  0  0  0  0  0  0  0  0
   38.8620   27.6890   38.1650 H   0  0  0  0  0  0  0  0  0  0  0  0
   39.9480   27.3170   42.0750 Cl  0  0  0  0  0  0  0  0  0  0  0  0
   38.6740   26.2820   41.5210 C   0  0  0  0  0  0  0  0  0  0  0  0
   37.7260   26.6250   40.5510 C   0  0  0  0  0  0  0  0  0  0  0  0
   36.7330   25.7510   40.1520 C   0  0  0  0  0  0  0  0  0  0  0  0
   36.0540   26.1060   39.4020 H   0  0  0  0  0  0  0  0  0  0  0  0
   36.6740   24.4810   40.7370 C   0  0  0  0  0  0  0  0  0  0  0  0
   35.8920   23.8050   40.4170 H   0  0  0  0  0  0  0  0  0  0  0  0
   37.6170   24.1600   41.6920 C   0  0  0  0  0  0  0  0  0  0  0  0
   37.5900   23.1670   42.1650 H   0  0  0  0  0  0  0  0  0  0  0  0
   38.6190   25.0160   42.1080 C   0  0  0  0  0  0  0  0  0  0  0  0
   39.7820   24.5190   43.3350 Cl  0  0  0  0  0  0  0  0  0  0  0  0
   41.3960   34.5270   39.0550 C   0  0  1  0  0  0  0  0  0  0  0  0
   40.1220   34.3250   39.7970 C   0  0  2  0  0  0  0  0  0  0  0  0
   41.2740   34.8580   40.4870 C   0  0  0  0  0  0  0  0  0  0  0  0
   41.3520   35.3410   38.2980 H   0  0  0  0  0  0  0  0  0  0  0  0
   39.2780   35.0380   39.5480 H   0  0  0  0  0  0  0  0  0  0  0  0
   41.2600   35.9580   40.7460 H   0  0  0  0  0  0  0  0  0  0  0  0
   41.7820   34.2850   41.2750 H   0  0  0  0  0  0  0  0  0  0  0  0
   41.9770   32.8510   37.3190 C   0  0  0  0  0  0  0  0  0  0  0  0
   42.2190   33.3900   38.5810 C   0  0  0  0  0  0  0  0  0  0  0  0
   43.2330   32.8410   39.3270 C   0  0  0  0  0  0  0  0  0  0  0  0
   43.9340   31.8110   38.7850 N   0  0  0  0  0  0  0  0  0  0  0  0
   43.6910   31.3110   37.5830 C   0  0  0  0  0  0  0  0  0  0  0  0
   42.7010   31.8380   36.8440 N   0  0  0  0  0  0  0  0  0  0  0  0
   41.1860   33.2310   36.6600 H   0  0  0  0  0  0  0  0  0  0  0  0
   43.4260   33.2540   40.3060 H   0  0  0  0  0  0  0  0  0  0  0  0
   44.3860   30.4940   37.3780 H   0  0  0  0  0  0  0  0  0  0  0  0
  1  2  1  0  0  0  0
  3  2  2  0  0  0  0
  3  6  1  0  0  0  0
  4  3  1  0  0  0  0
  5  4  1  0  0  0  0
  5  1  2  0  0  0  0
  8  7  2  0  0  0  0
  9 13  1  6  0  0  0
  9  4  1  0  0  0  0
  9  8  1  0  0  0  0
 10 11  1  0  0  0  0
 10  9  1  0  0  0  0
 11 16  1  0  0  0  0
 11 12  1  0  0  0  0
 12 20  1  0  0  0  0
 12  8  1  0  0  0  0
 14 10  1  0  0  0  0
 15 10  1  0  0  0  0
 17 11  1  0  0  0  0
 19 18  1  0  0  0  0
 19 27  1  0  0  0  0
 20 19  2  0  0  0  0
 21 20  1  0  0  0  0
 21 23  2  0  0  0  0
 22 21  1  0  0  0  0
 23 25  1  0  0  0  0
 24 23  1  0  0  0  0
 25 27  2  0  0  0  0
 25 26  1  0  0  0  0
 27 28  1  0  0  0  0
 29 32  1  6  0  0  0
 29 30  1  0  0  0  0
 29 31  1  0  0  0  0
 30 33  1  6  0  0  0
 30  1  1  0  0  0  0
 30 31  1  0  0  0  0
 31 34  1  0  0  0  0
 31 35  1  0  0  0  0
 36 37  1  0  0  0  0
 37 29  1  0  0  0  0
 37 38  2  0  0  0  0
 38 43  1  0  0  0  0
 39 38  1  0  0  0  0
 40 39  2  0  0  0  0
 41 36  2  0  0  0  0
 41 40  1  0  0  0  0
 42 36  1  0  0  0  0
 44 40  1  0  0  0  0
M  END
>  <minimizedAffinity>
-5.81323862

$$$$
