
 OpenBabel03252505073D

 45 48  0  0  1  0  0  0  0  0999 V2000
   44.5770   35.5360   44.5380 C   0  0  0  0  0  0  0  0  0  0  0  0
   45.2490   35.5550   43.2970 C   0  0  0  0  0  0  0  0  0  0  0  0
   46.3480   34.6670   43.1410 C   0  0  0  0  0  0  0  0  0  0  0  0
   46.6860   33.8600   44.1810 N   0  0  0  0  0  0  0  0  0  0  0  0
   46.0120   33.8790   45.3430 C   0  0  0  0  0  0  0  0  0  0  0  0
   44.9540   34.7160   45.5300 N   0  0  0  0  0  0  0  0  0  0  0  0
   43.7590   36.2250   44.5960 H   0  0  0  0  0  0  0  0  0  0  0  0
   44.9650   36.2050   42.4840 H   0  0  0  0  0  0  0  0  0  0  0  0
   46.4350   32.9730   46.4460 C   0  0  2  0  0  0  0  0  0  0  0  0
   46.9680   31.7350   45.7760 C   0  0  0  0  0  0  0  0  0  0  0  0
   46.0980   30.5500   45.8150 C   0  0  0  0  0  0  0  0  0  0  0  0
   45.7950   30.3140   47.2890 C   0  0  0  0  0  0  0  0  0  0  0  0
   45.0070   31.3970   47.8690 C   0  0  0  0  0  0  0  0  0  0  0  0
   45.3720   32.7600   47.4040 C   0  0  0  0  0  0  0  0  0  0  0  0
   47.2710   33.5120   46.9510 H   0  0  0  0  0  0  0  0  0  0  0  0
   47.9300   31.4760   46.2680 H   0  0  0  0  0  0  0  0  0  0  0  0
   47.2490   31.9170   44.7060 H   0  0  0  0  0  0  0  0  0  0  0  0
   45.1880   30.6560   45.2140 H   0  0  0  0  0  0  0  0  0  0  0  0
   46.6660   29.6760   45.4850 H   0  0  0  0  0  0  0  0  0  0  0  0
   46.7280   30.1410   47.8250 H   0  0  0  0  0  0  0  0  0  0  0  0
   45.1040   29.4330   47.2800 H   0  0  0  0  0  0  0  0  0  0  0  0
   44.2070   31.4630   48.5660 H   0  0  0  0  0  0  0  0  0  0  0  0
   44.6800   33.8910   47.8930 N   0  0  0  0  0  0  0  0  0  0  0  0
   43.8370   34.4570   47.6530 H   0  0  0  0  0  0  0  0  0  0  0  0
   45.2850   34.1220   48.7160 H   0  0  0  0  0  0  0  0  0  0  0  0
   47.0630   34.6560   41.8790 C   0  0  0  0  0  0  0  0  0  0  0  0
   48.1590   35.4460   41.7510 C   0  0  0  0  0  0  0  0  0  0  0  0
   48.8260   35.4080   40.5160 C   0  0  0  0  0  0  0  0  0  0  0  0
   48.2950   34.5700   39.5620 C   0  0  0  0  0  0  0  0  0  0  0  0
   47.2000   33.7810   39.6890 C   0  0  0  0  0  0  0  0  0  0  0  0
   46.5860   33.8520   40.9090 N   0  0  0  0  0  0  0  0  0  0  0  0
   48.5210   36.0820   42.5460 H   0  0  0  0  0  0  0  0  0  0  0  0
   49.7070   36.0130   40.3450 H   0  0  0  0  0  0  0  0  0  0  0  0
   48.8430   34.5740   38.6280 H   0  0  0  0  0  0  0  0  0  0  0  0
   48.1870   31.0000   39.8220 Cl  0  0  0  0  0  0  0  0  0  0  0  0
   47.0430   31.5890   38.6140 C   0  0  0  0  0  0  0  0  0  0  0  0
   46.6700   32.9170   38.6750 C   0  0  0  0  0  0  0  0  0  0  0  0
   45.7750   33.3570   37.7220 C   0  0  0  0  0  0  0  0  0  0  0  0
   45.4300   34.3820   37.6970 H   0  0  0  0  0  0  0  0  0  0  0  0
   45.2500   32.5260   36.7300 C   0  0  0  0  0  0  0  0  0  0  0  0
   44.5450   32.9130   35.9940 H   0  0  0  0  0  0  0  0  0  0  0  0
   45.6510   31.2110   36.7080 C   0  0  0  0  0  0  0  0  0  0  0  0
   45.2380   30.5830   35.9370 H   0  0  0  0  0  0  0  0  0  0  0  0
   46.5310   30.7510   37.6360 C   0  0  0  0  0  0  0  0  0  0  0  0
   47.0630   29.0740   37.6350 Cl  0  0  0  0  0  0  0  0  0  0  0  0
  1  7  1  0  0  0  0
  1  6  1  0  0  0  0
  2  1  2  0  0  0  0
  3  2  1  0  0  0  0
  3  4  2  0  0  0  0
  4  5  1  0  0  0  0
  5  6  2  0  0  0  0
  5  9  1  0  0  0  0
  8  2  1  0  0  0  0
  9 15  1  1  0  0  0
  9 14  1  0  0  0  0
 10 11  1  0  0  0  0
 10 16  1  0  0  0  0
 10  9  1  0  0  0  0
 11 12  1  0  0  0  0
 12 20  1  0  0  0  0
 12 13  1  0  0  0  0
 13 22  1  0  0  0  0
 14 13  2  0  0  0  0
 14 23  1  0  0  0  0
 17 10  1  0  0  0  0
 18 11  1  0  0  0  0
 19 11  1  0  0  0  0
 21 12  1  0  0  0  0
 23 25  1  0  0  0  0
 24 23  1  0  0  0  0
 26  3  1  0  0  0  0
 27 26  1  0  0  0  0
 27 32  1  0  0  0  0
 28 27  2  0  0  0  0
 29 30  2  0  0  0  0
 29 28  1  0  0  0  0
 30 31  1  0  0  0  0
 31 26  2  0  0  0  0
 33 28  1  0  0  0  0
 34 29  1  0  0  0  0
 36 37  1  0  0  0  0
 36 35  1  0  0  0  0
 37 30  1  0  0  0  0
 38 37  2  0  0  0  0
 39 38  1  0  0  0  0
 40 38  1  0  0  0  0
 41 40  1  0  0  0  0
 42 40  2  0  0  0  0
 42 44  1  0  0  0  0
 43 42  1  0  0  0  0
 44 36  2  0  0  0  0
 45 44  1  0  0  0  0
M  END
>  <minimizedAffinity>
-7.23408842

>  <minimizedRMSD>
1.12304068

$$$$
