
 OpenBabel03242523073D

 47 51  0  0  1  0  0  0  0  0999 V2000
   46.4220   32.0000   45.4230 C   0  0  0  0  0  0  0  0  0  0  0  0
   46.8200   32.8340   44.3450 C   0  0  0  0  0  0  0  0  0  0  0  0
   47.8740   32.2620   43.6520 C   0  0  0  0  0  0  0  0  0  0  0  0
   48.4830   31.0670   43.9190 C   0  0  0  0  0  0  0  0  0  0  0  0
   48.0330   30.3310   44.9730 C   0  0  0  0  0  0  0  0  0  0  0  0
   47.0000   30.7910   45.7340 C   0  0  0  0  0  0  0  0  0  0  0  0
   48.8230   29.1990   44.9910 O   0  0  0  0  0  0  0  0  0  0  0  0
   49.7840   29.2600   43.9770 C   0  0  1  0  0  0  0  0  0  0  0  0
   49.5320   30.4610   43.2640 O   0  0  0  0  0  0  0  0  0  0  0  0
   45.6260   32.1550   46.1600 H   0  0  0  0  0  0  0  0  0  0  0  0
   48.1740   32.8780   42.8620 H   0  0  0  0  0  0  0  0  0  0  0  0
   46.7190   30.1390   46.5410 H   0  0  0  0  0  0  0  0  0  0  0  0
   49.6250   28.4090   43.2700 H   0  0  0  0  0  0  0  0  0  0  0  0
   52.3000   29.6900   42.2200 Cl  0  0  0  0  0  0  0  0  0  0  0  0
   52.3340   29.3580   43.9370 C   0  0  0  0  0  0  0  0  0  0  0  0
   51.1240   29.1930   44.5640 C   0  0  0  0  0  0  0  0  0  0  0  0
   51.2430   28.9300   45.9290 C   0  0  0  0  0  0  0  0  0  0  0  0
   50.3220   28.7860   46.5030 H   0  0  0  0  0  0  0  0  0  0  0  0
   52.4230   28.8350   46.6370 C   0  0  0  0  0  0  0  0  0  0  0  0
   52.3990   28.6280   47.6970 H   0  0  0  0  0  0  0  0  0  0  0  0
   53.5970   29.0140   45.9350 C   0  0  0  0  0  0  0  0  0  0  0  0
   54.5520   28.9520   46.4280 H   0  0  0  0  0  0  0  0  0  0  0  0
   53.5460   29.2750   44.5870 C   0  0  0  0  0  0  0  0  0  0  0  0
   55.0340   29.4990   43.7110 Cl  0  0  0  0  0  0  0  0  0  0  0  0
   45.1020   36.0410   43.4700 C   0  0  0  0  0  0  0  0  0  0  0  0
   45.9300   34.9410   43.2370 C   0  0  0  0  0  0  0  0  0  0  0  0
   46.0570   34.0170   44.2330 C   0  0  0  0  0  0  0  0  0  0  0  0
   45.3760   34.2130   45.3770 N   0  0  0  0  0  0  0  0  0  0  0  0
   44.5820   35.2720   45.5950 C   0  0  0  0  0  0  0  0  0  0  0  0
   44.4510   36.1750   44.6460 N   0  0  0  0  0  0  0  0  0  0  0  0
   44.9920   36.7940   42.6800 H   0  0  0  0  0  0  0  0  0  0  0  0
   44.0120   35.4850   46.4870 H   0  0  0  0  0  0  0  0  0  0  0  0
   46.5380   34.8320   41.9810 N   0  0  0  0  0  0  0  0  0  0  0  0
   47.8210   35.2510   41.6930 C   0  0  0  0  0  0  0  0  0  0  0  0
   48.3150   34.8890   40.3090 C   0  0  0  0  0  0  0  0  0  0  0  0
   47.9640   33.6110   39.8500 N   0  0  0  0  0  0  0  0  0  0  0  0
   46.6490   33.1870   40.1250 C   0  0  0  0  0  0  0  0  0  0  0  0
   45.8560   34.2610   40.8330 C   0  0  0  0  0  0  0  0  0  0  0  0
   47.8680   36.3800   41.7380 H   0  0  0  0  0  0  0  0  0  0  0  0
   48.6130   34.9430   42.4250 H   0  0  0  0  0  0  0  0  0  0  0  0
   47.9160   35.6580   39.5920 H   0  0  0  0  0  0  0  0  0  0  0  0
   49.4060   35.0070   40.3100 H   0  0  0  0  0  0  0  0  0  0  0  0
   48.3380   33.4750   38.9100 H   0  0  0  0  0  0  0  0  0  0  0  0
   46.5520   32.1920   40.6070 H   0  0  0  0  0  0  0  0  0  0  0  0
   46.1170   33.0520   39.1380 H   0  0  0  0  0  0  0  0  0  0  0  0
   45.7410   35.1120   40.1050 H   0  0  0  0  0  0  0  0  0  0  0  0
   44.8340   33.9330   41.0820 H   0  0  0  0  0  0  0  0  0  0  0  0
  1  6  1  0  0  0  0
  1 10  1  0  0  0  0
  2  1  2  0  0  0  0
  3  4  2  0  0  0  0
  3  2  1  0  0  0  0
  4  5  1  0  0  0  0
  5  7  1  0  0  0  0
  5  6  2  0  0  0  0
  6 12  1  0  0  0  0
  8 13  1  6  0  0  0
  8 16  1  0  0  0  0
  8  7  1  0  0  0  0
  9  4  1  0  0  0  0
  9  8  1  0  0  0  0
 11  3  1  0  0  0  0
 14 15  1  0  0  0  0
 15 16  2  0  0  0  0
 15 23  1  0  0  0  0
 16 17  1  0  0  0  0
 17 18  1  0  0  0  0
 17 19  2  0  0  0  0
 19 20  1  0  0  0  0
 21 22  1  0  0  0  0
 21 19  1  0  0  0  0
 23 21  2  0  0  0  0
 24 23  1  0  0  0  0
 25 30  1  0  0  0  0
 26 25  2  0  0  0  0
 26 27  1  0  0  0  0
 27  2  1  0  0  0  0
 27 28  2  0  0  0  0
 28 29  1  0  0  0  0
 29 32  1  0  0  0  0
 30 29  2  0  0  0  0
 31 25  1  0  0  0  0
 33 26  1  0  0  0  0
 34 39  1  0  0  0  0
 34 33  1  0  0  0  0
 34 40  1  0  0  0  0
 35 42  1  0  0  0  0
 35 34  1  0  0  0  0
 36 37  1  0  0  0  0
 36 35  1  0  0  0  0
 37 44  1  0  0  0  0
 37 38  1  0  0  0  0
 38 47  1  0  0  0  0
 38 33  1  0  0  0  0
 41 35  1  0  0  0  0
 43 36  1  0  0  0  0
 45 37  1  0  0  0  0
 46 38  1  0  0  0  0
M  END
>  <minimizedAffinity>
-5.49711323

>  <minimizedRMSD>
0.804741204

$$$$
