
 OpenBabel03242518213D

 41 44  0  0  0  0  0  0  0  0999 V2000
   47.9450   33.7360   43.0740 C   0  0  0  0  0  0  0  0  0  0  0  0
   48.2790   33.4630   41.7480 C   0  0  0  0  0  0  0  0  0  0  0  0
   47.4340   33.9450   40.7780 C   0  0  0  0  0  0  0  0  0  0  0  0
   46.3270   34.6540   41.1380 N   0  0  0  0  0  0  0  0  0  0  0  0
   46.0450   34.8910   42.4360 C   0  0  0  0  0  0  0  0  0  0  0  0
   46.8550   34.4330   43.4100 N   0  0  0  0  0  0  0  0  0  0  0  0
   48.5510   33.3980   43.9210 H   0  0  0  0  0  0  0  0  0  0  0  0
   46.1060   31.5000   39.6450 Cl  0  0  0  0  0  0  0  0  0  0  0  0
   47.0820   32.6540   38.7620 C   0  0  0  0  0  0  0  0  0  0  0  0
   47.6480   33.7540   39.3750 C   0  0  0  0  0  0  0  0  0  0  0  0
   48.3610   34.5130   38.4840 C   0  0  0  0  0  0  0  0  0  0  0  0
   48.8400   35.3850   38.8470 H   0  0  0  0  0  0  0  0  0  0  0  0
   48.5340   34.2740   37.1410 C   0  0  0  0  0  0  0  0  0  0  0  0
   49.1090   34.9200   36.5160 H   0  0  0  0  0  0  0  0  0  0  0  0
   47.9490   33.1660   36.5870 C   0  0  0  0  0  0  0  0  0  0  0  0
   48.0640   32.9490   35.5420 H   0  0  0  0  0  0  0  0  0  0  0  0
   47.2150   32.3490   37.4110 C   0  0  0  0  0  0  0  0  0  0  0  0
   46.4810   30.9450   36.6740 Cl  0  0  0  0  0  0  0  0  0  0  0  0
   44.8320   35.6680   42.7950 C   0  0  0  0  0  0  0  0  0  0  0  0
   44.6240   35.5520   43.8760 H   0  0  0  0  0  0  0  0  0  0  0  0
   45.0370   36.7330   42.6270 H   0  0  0  0  0  0  0  0  0  0  0  0
   43.6480   35.2310   41.9860 C   0  0  0  0  0  0  0  0  0  0  0  0
   43.2830   35.8080   40.7940 C   0  0  0  0  0  0  0  0  0  0  0  0
   42.1660   35.1740   40.3230 C   0  0  0  0  0  0  0  0  0  0  0  0
   41.8830   34.2000   41.2800 C   0  0  0  0  0  0  0  0  0  0  0  0
   42.7780   34.3020   42.1950 O   0  0  0  0  0  0  0  0  0  0  0  0
   43.7120   36.6230   40.2180 H   0  0  0  0  0  0  0  0  0  0  0  0
   41.5970   35.3470   39.4260 H   0  0  0  0  0  0  0  0  0  0  0  0
   40.7670   33.2620   41.2140 C   0  0  0  0  0  0  0  0  0  0  0  0
   40.9110   31.9840   41.6810 C   0  0  0  0  0  0  0  0  0  0  0  0
   39.8860   31.0440   41.6460 C   0  0  0  0  0  0  0  0  0  0  0  0
   38.6930   31.5330   41.0880 C   0  0  0  0  0  0  0  0  0  0  0  0
   38.5280   32.8070   40.6150 C   0  0  0  0  0  0  0  0  0  0  0  0
   39.5880   33.6280   40.7000 N   0  0  0  0  0  0  0  0  0  0  0  0
   41.8640   31.6850   42.0980 H   0  0  0  0  0  0  0  0  0  0  0  0
   39.9950   30.0460   42.0100 H   0  0  0  0  0  0  0  0  0  0  0  0
   37.8640   30.8430   41.0360 H   0  0  0  0  0  0  0  0  0  0  0  0
   37.5660   33.0810   40.2020 H   0  0  0  0  0  0  0  0  0  0  0  0
   49.4420   32.7330   41.5030 N   0  0  0  0  0  0  0  0  0  0  0  0
   50.0890   33.5700   41.3900 H   0  0  0  0  0  0  0  0  0  0  0  0
   49.1970   31.7190   41.5310 H   0  0  0  0  0  0  0  0  0  0  0  0
  1  6  1  0  0  0  0
  1  7  1  0  0  0  0
  2  1  2  0  0  0  0
  3  4  2  0  0  0  0
  3  2  1  0  0  0  0
  4  5  1  0  0  0  0
  5 19  1  0  0  0  0
  5  6  2  0  0  0  0
  9 10  1  0  0  0  0
  9  8  1  0  0  0  0
 10  3  1  0  0  0  0
 11 12  1  0  0  0  0
 11 10  2  0  0  0  0
 13 11  1  0  0  0  0
 14 13  1  0  0  0  0
 15 13  2  0  0  0  0
 15 17  1  0  0  0  0
 16 15  1  0  0  0  0
 17  9  2  0  0  0  0
 18 17  1  0  0  0  0
 19 20  1  0  0  0  0
 21 19  1  0  0  0  0
 22 26  1  0  0  0  0
 22 19  1  0  0  0  0
 23 22  2  0  0  0  0
 24 23  1  0  0  0  0
 24 25  2  0  0  0  0
 25 26  1  0  0  0  0
 27 23  1  0  0  0  0
 28 24  1  0  0  0  0
 29 25  1  0  0  0  0
 29 30  1  0  0  0  0
 30 35  1  0  0  0  0
 31 30  2  0  0  0  0
 31 36  1  0  0  0  0
 32 31  1  0  0  0  0
 33 34  1  0  0  0  0
 33 32  2  0  0  0  0
 34 29  2  0  0  0  0
 37 32  1  0  0  0  0
 38 33  1  0  0  0  0
 39 41  1  0  0  0  0
 39  2  1  0  0  0  0
 40 39  1  0  0  0  0
M  END
>  <minimizedAffinity>
-5.85036469

>  <minimizedRMSD>
4.51415586

$$$$
