
 OpenBabel03252507203D

 46 49  0  0  1  0  0  0  0  0999 V2000
   47.0420   33.4320   43.0490 C   0  0  0  0  0  0  0  0  0  0  0  0
   48.1310   33.1390   43.6250 O   0  0  0  0  0  0  0  0  0  0  0  0
   46.6590   32.9420   41.7640 N   0  0  0  0  0  0  0  0  0  0  0  0
   45.3800   32.4140   41.2910 C   0  0  0  0  0  0  0  0  0  0  0  0
   44.9630   33.1460   40.0100 C   0  0  0  0  0  0  0  0  0  0  0  0
   45.9680   32.8710   38.9200 C   0  0  0  0  0  0  0  0  0  0  0  0
   47.2080   32.2570   39.5100 C   0  0  0  0  0  0  0  0  0  0  0  0
   47.6740   32.9660   40.7460 C   0  0  2  0  0  0  0  0  0  0  0  0
   45.3770   31.3280   41.1850 H   0  0  0  0  0  0  0  0  0  0  0  0
   44.6480   32.7350   42.0820 H   0  0  0  0  0  0  0  0  0  0  0  0
   43.9340   32.8930   39.7600 H   0  0  0  0  0  0  0  0  0  0  0  0
   44.9730   34.2230   40.3040 H   0  0  0  0  0  0  0  0  0  0  0  0
   45.5190   32.1250   38.2330 H   0  0  0  0  0  0  0  0  0  0  0  0
   46.1910   33.7830   38.3280 H   0  0  0  0  0  0  0  0  0  0  0  0
   48.0390   32.2680   38.7660 H   0  0  0  0  0  0  0  0  0  0  0  0
   46.9850   31.1900   39.7550 H   0  0  0  0  0  0  0  0  0  0  0  0
   47.8240   34.0340   40.4840 H   0  0  0  0  0  0  0  0  0  0  0  0
   47.6600   30.0390   41.0720 Cl  0  0  0  0  0  0  0  0  0  0  0  0
   49.0980   31.0230   41.3480 C   0  0  0  0  0  0  0  0  0  0  0  0
   48.9810   32.4050   41.1560 C   0  0  0  0  0  0  0  0  0  0  0  0
   50.1540   33.0910   41.3950 C   0  0  0  0  0  0  0  0  0  0  0  0
   50.0910   34.1770   41.2550 H   0  0  0  0  0  0  0  0  0  0  0  0
   51.3090   32.4470   41.7830 C   0  0  0  0  0  0  0  0  0  0  0  0
   52.1910   33.0760   41.9490 H   0  0  0  0  0  0  0  0  0  0  0  0
   51.3640   31.0820   41.9560 C   0  0  0  0  0  0  0  0  0  0  0  0
   52.2550   30.5760   42.2560 H   0  0  0  0  0  0  0  0  0  0  0  0
   50.2260   30.3380   41.7330 C   0  0  0  0  0  0  0  0  0  0  0  0
   50.2410   28.6210   41.9370 Cl  0  0  0  0  0  0  0  0  0  0  0  0
   45.7500   35.5110   43.0930 C   0  0  0  0  0  0  0  0  0  0  0  0
   46.1430   34.3150   43.7440 C   0  0  0  0  0  0  0  0  0  0  0  0
   45.6560   34.0470   45.0050 C   0  0  0  0  0  0  0  0  0  0  0  0
   44.8170   34.9380   45.5770 N   0  0  0  0  0  0  0  0  0  0  0  0
   44.4320   36.0850   44.9680 C   0  0  0  0  0  0  0  0  0  0  0  0
   44.9090   36.3490   43.7320 N   0  0  0  0  0  0  0  0  0  0  0  0
   46.1340   35.7070   42.1140 H   0  0  0  0  0  0  0  0  0  0  0  0
   43.7600   36.7860   45.4430 H   0  0  0  0  0  0  0  0  0  0  0  0
   46.0710   32.8260   45.6630 C   0  0  0  0  0  0  0  0  0  0  0  0
   45.6360   31.6170   45.2050 C   0  0  0  0  0  0  0  0  0  0  0  0
   46.0410   30.4670   45.8410 C   0  0  0  0  0  0  0  0  0  0  0  0
   46.8840   30.4710   46.9450 C   0  0  0  0  0  0  0  0  0  0  0  0
   47.2940   31.7250   47.3670 C   0  0  0  0  0  0  0  0  0  0  0  0
   46.8810   32.8240   46.7230 N   0  0  0  0  0  0  0  0  0  0  0  0
   44.9810   31.4240   44.3750 H   0  0  0  0  0  0  0  0  0  0  0  0
   45.7320   29.4590   45.5300 H   0  0  0  0  0  0  0  0  0  0  0  0
   47.2040   29.5810   47.4480 H   0  0  0  0  0  0  0  0  0  0  0  0
   47.9600   31.8080   48.2310 H   0  0  0  0  0  0  0  0  0  0  0  0
  1  2  2  0  0  0  0
  1 30  1  0  0  0  0
  3  1  1  0  0  0  0
  4  3  1  0  0  0  0
  4 10  1  0  0  0  0
  5 12  1  0  0  0  0
  5  4  1  0  0  0  0
  6  7  1  0  0  0  0
  6  5  1  0  0  0  0
  7 16  1  0  0  0  0
  7  8  1  0  0  0  0
  8 17  1  6  0  0  0
  8 20  1  0  0  0  0
  8  3  1  0  0  0  0
  9  4  1  0  0  0  0
 11  5  1  0  0  0  0
 13  6  1  0  0  0  0
 14  6  1  0  0  0  0
 15  7  1  0  0  0  0
 18 19  1  0  0  0  0
 19 27  1  0  0  0  0
 20 19  2  0  0  0  0
 20 21  1  0  0  0  0
 21 23  2  0  0  0  0
 22 21  1  0  0  0  0
 23 24  1  0  0  0  0
 23 25  1  0  0  0  0
 25 26  1  0  0  0  0
 27 28  1  0  0  0  0
 27 25  2  0  0  0  0
 29 34  2  0  0  0  0
 29 30  1  0  0  0  0
 30 31  2  0  0  0  0
 31 32  1  0  0  0  0
 31 37  1  0  0  0  0
 33 36  1  0  0  0  0
 33 32  2  0  0  0  0
 34 33  1  0  0  0  0
 35 29  1  0  0  0  0
 37 42  1  0  0  0  0
 38 37  2  0  0  0  0
 38 39  1  0  0  0  0
 39 40  2  0  0  0  0
 40 41  1  0  0  0  0
 40 45  1  0  0  0  0
 41 46  1  0  0  0  0
 42 41  2  0  0  0  0
 43 38  1  0  0  0  0
 44 39  1  0  0  0  0
M  END
>  <minimizedAffinity>
-5.46572828

>  <minimizedRMSD>
1.11842406

$$$$
