REMARK  Name = 
REMARK  3 active torsions:
REMARK  status: ('A' for Active; 'I' for Inactive)
REMARK    1  A    between atoms: N_1  and  C_9
REMARK    2  A    between atoms: C_6  and  O_13
REMARK    3  A    between atoms: O_13  and  C_28
REMARK                            x       y       z     vdW  Elec       q    Type
REMARK                         _______ _______ _______ _____ _____    ______ ____
ROOT
ATOM      1  N   UNL     1      46.885  34.604  42.222  0.00  0.00    +0.000 N 
ATOM      2  C   UNL     1      48.337  34.785  42.268  0.00  0.00    +0.000 C 
ATOM      3  C   UNL     1      48.632  35.538  40.951  0.00  0.00    +0.000 C 
ATOM      4  C   UNL     1      48.359  34.623  39.793  0.00  0.00    +0.000 C 
ATOM      5  C   UNL     1      47.102  33.840  39.915  0.00  0.00    +0.000 C 
ATOM      6  C   UNL     1      46.165  34.244  41.020  0.00  0.00    +0.000 C 
ATOM      7  H   UNL     1      48.889  33.838  42.263  0.00  0.00    +0.000 HD
ATOM      8  H   UNL     1      48.583  35.461  43.097  0.00  0.00    +0.000 HD
ATOM      9  H   UNL     1      49.698  35.805  40.989  0.00  0.00    +0.000 HD
ATOM     10  H   UNL     1      47.980  36.437  40.950  0.00  0.00    +0.000 HD
ATOM     11  H   UNL     1      48.396  35.264  38.878  0.00  0.00    +0.000 HD
ATOM     12  H   UNL     1      49.230  33.938  39.709  0.00  0.00    +0.000 HD
ATOM     13  H   UNL     1      47.325  32.750  40.042  0.00  0.00    +0.000 HD
ATOM     14  H   UNL     1      46.541  33.920  38.960  0.00  0.00    +0.000 HD
ATOM     15  H   UNL     1      45.676  35.178  40.685  0.00  0.00    +0.000 HD
ENDROOT
BRANCH   1  18
ATOM     16  C   UNL     1      44.510  35.984  44.771  0.00  0.00    +0.000 A 
ATOM     17  C   UNL     1      45.228  35.892  43.563  0.00  0.00    +0.000 A 
ATOM     18  C   UNL     1      46.110  34.786  43.412  0.00  0.00    +0.000 A 
ATOM     19  N   UNL     1      46.190  33.908  44.441  0.00  0.00    +0.000 NA
ATOM     20  C   UNL     1      45.484  34.032  45.582  0.00  0.00    +0.000 A 
ATOM     21  N   UNL     1      44.639  35.079  45.744  0.00  0.00    +0.000 NA
ATOM     22  H   UNL     1      43.828  36.822  44.911  0.00  0.00    +0.000 HD
ATOM     23  H   UNL     1      45.142  36.602  42.773  0.00  0.00    +0.000 HD
ATOM     24  H   UNL     1      45.664  33.234  46.316  0.00  0.00    +0.000 HD
ENDBRANCH   1  18
BRANCH   6  25
ATOM     25  O   UNL     1      45.330  33.201  41.296  0.00  0.00    +0.000 OA
BRANCH  25  28
ATOM     26 CL   UNL     1      43.175  35.383  41.817  0.00  0.00    +0.000 Cl
ATOM     27  C   UNL     1      42.876  33.717  41.474  0.00  0.00    +0.000 A 
ATOM     28  C   UNL     1      44.014  32.965  41.283  0.00  0.00    +0.000 A 
ATOM     29  C   UNL     1      43.781  31.607  41.003  0.00  0.00    +0.000 A 
ATOM     30  H   UNL     1      44.529  30.819  40.816  0.00  0.00    +0.000 HD
ATOM     31  C   UNL     1      42.492  31.080  40.928  0.00  0.00    +0.000 A 
ATOM     32  H   UNL     1      42.260  30.047  40.717  0.00  0.00    +0.000 HD
ATOM     33  C   UNL     1      41.435  31.907  41.133  0.00  0.00    +0.000 A 
ATOM     34  H   UNL     1      40.408  31.547  41.086  0.00  0.00    +0.000 HD
ATOM     35  C   UNL     1      41.590  33.242  41.410  0.00  0.00    +0.000 A 
ATOM     36 CL   UNL     1      40.283  34.366  41.684  0.00  0.00    +0.000 Cl
ENDBRANCH  25  28
ENDBRANCH   6  25
TORSDOF 3
