
 OpenBabel03252505083D

 45 48  0  0  1  0  0  0  0  0999 V2000
   44.5630   35.5580   44.6010 C   0  0  0  0  0  0  0  0  0  0  0  0
   45.2380   35.6080   43.3630 C   0  0  0  0  0  0  0  0  0  0  0  0
   46.3420   34.7280   43.1900 C   0  0  0  0  0  0  0  0  0  0  0  0
   46.6810   33.8990   44.2120 N   0  0  0  0  0  0  0  0  0  0  0  0
   46.0050   33.8900   45.3730 C   0  0  0  0  0  0  0  0  0  0  0  0
   44.9430   34.7170   45.5760 N   0  0  0  0  0  0  0  0  0  0  0  0
   43.7420   36.2410   44.6730 H   0  0  0  0  0  0  0  0  0  0  0  0
   44.9530   36.2740   42.5640 H   0  0  0  0  0  0  0  0  0  0  0  0
   46.4290   32.9620   46.4560 C   0  0  2  0  0  0  0  0  0  0  0  0
   46.9490   31.7330   45.7610 C   0  0  0  0  0  0  0  0  0  0  0  0
   46.0710   30.5530   45.7850 C   0  0  0  0  0  0  0  0  0  0  0  0
   45.7780   30.2920   47.2570 C   0  0  0  0  0  0  0  0  0  0  0  0
   45.0010   31.3700   47.8620 C   0  0  0  0  0  0  0  0  0  0  0  0
   45.3720   32.7390   47.4180 C   0  0  0  0  0  0  0  0  0  0  0  0
   47.2720   33.4860   46.9650 H   0  0  0  0  0  0  0  0  0  0  0  0
   47.9130   31.4580   46.2410 H   0  0  0  0  0  0  0  0  0  0  0  0
   47.2240   31.9320   44.6920 H   0  0  0  0  0  0  0  0  0  0  0  0
   45.1580   30.6760   45.1930 H   0  0  0  0  0  0  0  0  0  0  0  0
   46.6320   29.6810   45.4350 H   0  0  0  0  0  0  0  0  0  0  0  0
   46.7140   30.1030   47.7830 H   0  0  0  0  0  0  0  0  0  0  0  0
   45.0810   29.4170   47.2380 H   0  0  0  0  0  0  0  0  0  0  0  0
   44.2060   31.4290   48.5660 H   0  0  0  0  0  0  0  0  0  0  0  0
   44.6910   33.8660   47.9320 N   0  0  0  0  0  0  0  0  0  0  0  0
   43.8500   34.4410   47.7080 H   0  0  0  0  0  0  0  0  0  0  0  0
   45.3040   34.0780   48.7540 H   0  0  0  0  0  0  0  0  0  0  0  0
   47.0600   34.7480   41.9290 C   0  0  0  0  0  0  0  0  0  0  0  0
   48.2160   35.4540   41.8560 C   0  0  0  0  0  0  0  0  0  0  0  0
   48.8840   35.4500   40.6210 C   0  0  0  0  0  0  0  0  0  0  0  0
   48.2910   34.7260   39.6100 C   0  0  0  0  0  0  0  0  0  0  0  0
   47.1360   34.0210   39.6830 C   0  0  0  0  0  0  0  0  0  0  0  0
   46.5230   34.0560   40.9050 N   0  0  0  0  0  0  0  0  0  0  0  0
   48.6250   36.0010   42.6930 H   0  0  0  0  0  0  0  0  0  0  0  0
   49.8120   35.9920   40.4930 H   0  0  0  0  0  0  0  0  0  0  0  0
   48.8420   34.7520   38.6790 H   0  0  0  0  0  0  0  0  0  0  0  0
   48.7810   33.8940   37.2320 Cl  0  0  0  0  0  0  0  0  0  0  0  0
   47.1980   33.1320   37.4040 C   0  0  0  0  0  0  0  0  0  0  0  0
   46.5430   33.2770   38.6110 C   0  0  0  0  0  0  0  0  0  0  0  0
   45.3070   32.6750   38.7250 C   0  0  0  0  0  0  0  0  0  0  0  0
   44.7260   32.7370   39.6340 H   0  0  0  0  0  0  0  0  0  0  0  0
   44.7180   31.9460   37.6890 C   0  0  0  0  0  0  0  0  0  0  0  0
   43.7380   31.4840   37.8170 H   0  0  0  0  0  0  0  0  0  0  0  0
   45.4080   31.8290   36.5040 C   0  0  0  0  0  0  0  0  0  0  0  0
   44.9400   31.2650   35.7150 H   0  0  0  0  0  0  0  0  0  0  0  0
   46.6270   32.4130   36.3660 C   0  0  0  0  0  0  0  0  0  0  0  0
   47.5350   32.2830   34.8650 Cl  0  0  0  0  0  0  0  0  0  0  0  0
  1  7  1  0  0  0  0
  1  6  1  0  0  0  0
  2  1  2  0  0  0  0
  3  2  1  0  0  0  0
  3  4  2  0  0  0  0
  4  5  1  0  0  0  0
  5  6  2  0  0  0  0
  5  9  1  0  0  0  0
  8  2  1  0  0  0  0
  9 15  1  1  0  0  0
  9 14  1  0  0  0  0
 10 11  1  0  0  0  0
 10 16  1  0  0  0  0
 10  9  1  0  0  0  0
 11 12  1  0  0  0  0
 12 20  1  0  0  0  0
 12 13  1  0  0  0  0
 13 22  1  0  0  0  0
 14 13  2  0  0  0  0
 14 23  1  0  0  0  0
 17 10  1  0  0  0  0
 18 11  1  0  0  0  0
 19 11  1  0  0  0  0
 21 12  1  0  0  0  0
 23 25  1  0  0  0  0
 24 23  1  0  0  0  0
 26  3  1  0  0  0  0
 27 26  1  0  0  0  0
 27 32  1  0  0  0  0
 28 27  2  0  0  0  0
 29 30  2  0  0  0  0
 29 28  1  0  0  0  0
 30 31  1  0  0  0  0
 31 26  2  0  0  0  0
 33 28  1  0  0  0  0
 34 29  1  0  0  0  0
 35 36  1  0  0  0  0
 36 37  1  0  0  0  0
 37 38  2  0  0  0  0
 37 30  1  0  0  0  0
 38 39  1  0  0  0  0
 40 41  1  0  0  0  0
 40 38  1  0  0  0  0
 42 40  2  0  0  0  0
 43 42  1  0  0  0  0
 44 42  1  0  0  0  0
 44 36  2  0  0  0  0
 45 44  1  0  0  0  0
M  END
>  <minimizedAffinity>
-7.83757973

>  <minimizedRMSD>
0.284892648

$$$$
