
     RDKit          3D

 46 49  0  0  0  0  0  0  0  0999 V2000
   44.4973   35.5343   45.1238 C   0  0  0  0  0  0  0  0  0  0  0  0
   45.1636   35.5071   43.8768 C   0  0  0  0  0  0  0  0  0  0  0  0
   46.0836   34.5448   43.6421 C   0  0  0  0  0  0  0  0  0  0  0  0
   46.3149   33.6487   44.6348 N   0  0  0  0  0  0  0  0  0  0  0  0
   45.6872   33.6787   45.8021 C   0  0  0  0  0  0  0  0  0  0  0  0
   44.7748   34.6159   46.0627 N   0  0  0  0  0  0  0  0  0  0  0  0
   46.0128   32.6795   46.7847 N   0  0  0  0  0  0  0  0  0  0  0  0
   45.2680   32.4496   47.9682 C   0  0  0  0  0  0  0  0  0  0  0  0
   46.3372   32.1175   48.9931 C   0  0  0  0  0  0  0  0  0  0  0  0
   47.6235   32.0041   48.2318 C   0  0  0  0  0  0  0  0  0  0  0  0
   47.1317   31.7716   46.8041 C   0  0  1  0  0  0  0  0  0  0  0  0
   44.8146   36.5210   42.9222 N   0  0  0  0  0  0  0  0  0  0  0  0
   46.6225   30.0751   46.6405 S   0  0  0  0  0  0  0  0  0  0  0  0
   45.6237   30.5078   43.4909 O   0  0  0  0  0  0  0  0  0  0  0  0
   44.9834   29.9859   44.4193 C   0  0  0  0  0  0  0  0  0  0  0  0
   45.0763   29.7820   45.8876 C   0  0  1  0  0  0  0  0  0  0  0  0
   44.5284   28.3856   46.0386 C   0  0  0  0  0  0  0  0  0  0  0  0
   43.2197   28.5846   45.2717 C   0  0  0  0  0  0  0  0  0  0  0  0
   43.7329   29.3351   44.1248 N   0  0  0  0  0  0  0  0  0  0  0  0
   43.7526   36.2946   45.3437 H   0  0  0  0  0  0  0  0  0  0  0  0
   46.6063   34.4999   42.7017 H   0  0  0  0  0  0  0  0  0  0  0  0
   44.8974   33.4679   48.3115 H   0  0  0  0  0  0  0  0  0  0  0  0
   44.4632   31.8004   48.0740 H   0  0  0  0  0  0  0  0  0  0  0  0
   46.3527   32.7675   49.8654 H   0  0  0  0  0  0  0  0  0  0  0  0
   46.1385   31.0834   49.4012 H   0  0  0  0  0  0  0  0  0  0  0  0
   48.1552   32.9679   48.3066 H   0  0  0  0  0  0  0  0  0  0  0  0
   48.2441   31.1411   48.5568 H   0  0  0  0  0  0  0  0  0  0  0  0
   47.9570   32.0747   46.1393 H   0  0  0  0  0  0  0  0  0  0  0  0
   44.5759   37.4744   43.2269 H   0  0  0  0  0  0  0  0  0  0  0  0
   44.7946   36.3135   41.8900 H   0  0  0  0  0  0  0  0  0  0  0  0
   44.1937   30.3941   46.2216 H   0  0  0  0  0  0  0  0  0  0  0  0
   45.1294   27.6351   45.5061 H   0  0  0  0  0  0  0  0  0  0  0  0
   44.3289   28.1173   47.0959 H   0  0  0  0  0  0  0  0  0  0  0  0
   42.4749   29.1235   45.8559 H   0  0  0  0  0  0  0  0  0  0  0  0
   42.9000   27.5626   44.9710 H   0  0  0  0  0  0  0  0  0  0  0  0
   41.1227   27.7861   44.0095 Cl  0  0  0  0  0  0  0  0  0  0  0  0
   41.7865   28.7040   42.6650 C   0  0  0  0  0  0  0  0  0  0  0  0
   42.9881   29.3536   42.8846 C   0  0  0  0  0  0  0  0  0  0  0  0
   43.5949   30.0989   41.9014 C   0  0  0  0  0  0  0  0  0  0  0  0
   44.5365   30.6340   42.0052 H   0  0  0  0  0  0  0  0  0  0  0  0
   42.9912   30.2021   40.6648 C   0  0  0  0  0  0  0  0  0  0  0  0
   43.4419   30.7809   39.8683 H   0  0  0  0  0  0  0  0  0  0  0  0
   41.7881   29.5548   40.4365 C   0  0  0  0  0  0  0  0  0  0  0  0
   41.2532   29.5875   39.4952 H   0  0  0  0  0  0  0  0  0  0  0  0
   41.1856   28.8037   41.4422 C   0  0  0  0  0  0  0  0  0  0  0  0
   39.6627   27.9567   41.2261 Cl  0  0  0  0  0  0  0  0  0  0  0  0
  1  6  2  0
  2  1  1  0
  3  2  2  0
  3  4  1  0
  4  5  2  0
  5  6  1  0
  5  7  1  0
  7 11  1  0
  7  8  1  0
  8  9  1  0
 10  9  1  0
 11 10  1  0
 12  2  1  0
 13 11  1  0
 14 15  2  0
 15 16  1  0
 16 17  1  0
 16 13  1  0
 18 17  1  0
 19 15  1  0
 19 18  1  0
  1 20  1  0
  3 21  1  0
  8 22  1  0
  8 23  1  0
  9 24  1  0
  9 25  1  0
 10 26  1  0
 10 27  1  0
 11 28  1  6
 12 29  1  0
 12 30  1  0
 16 31  1  1
 17 32  1  0
 17 33  1  0
 18 34  1  0
 18 35  1  0
 36 37  1  0
 37 38  2  0
 38 39  1  0
 39 40  1  0
 39 41  2  0
 41 42  1  0
 41 43  1  0
 43 44  1  0
 43 45  2  0
 45 46  1  0
 45 37  1  0
 19 38  1  0
M  ISO  8  20  14  21  14  22  13  23  13  24  13  25  13  26  13  27  13
M  ISO  8  28  13  31  13  32  13  33  13  34  13  35  13  40  15  42  15
M  ISO  1  44  15
M  END
>  <DihAtoms>  (1) 
14,18,37,36

>  <DihDeg>  (1) 
-90.0015855983024

$$$$
