REMARK  Name = 
REMARK  2 active torsions:
REMARK  status: ('A' for Active; 'I' for Inactive)
REMARK    1  A    between atoms: C_2  and  C_14
REMARK    2  A    between atoms: C_9  and  C_25
REMARK                            x       y       z     vdW  Elec       q    Type
REMARK                         _______ _______ _______ _____ _____    ______ ____
ROOT
ATOM      1  C   UNL     1      47.225  31.358  45.080  0.00  0.00    +0.000 A 
ATOM      2  C   UNL     1      46.881  32.705  45.092  0.00  0.00    +0.000 A 
ATOM      3  C   UNL     1      46.276  33.320  46.188  0.00  0.00    +0.000 A 
ATOM      4  C   UNL     1      46.001  32.562  47.324  0.00  0.00    +0.000 A 
ATOM      5  N   UNL     1      45.437  32.814  48.542  0.00  0.00    +0.000 N 
ATOM      6  C   UNL     1      45.433  31.660  49.260  0.00  0.00    +0.000 A 
ATOM      7  N   UNL     1      45.999  30.701  48.469  0.00  0.00    +0.000 NA
ATOM      8  C   UNL     1      46.349  31.235  47.290  0.00  0.00    +0.000 A 
ATOM      9  C   UNL     1      46.943  30.607  46.227  0.00  0.00    +0.000 A 
ATOM     10  H   UNL     1      47.691  30.940  44.202  0.00  0.00    +0.000 HD
ATOM     11  H   UNL     1      46.013  34.368  46.186  0.00  0.00    +0.000 HD
ATOM     12  H   UNL     1      45.079  33.747  48.844  0.00  0.00    +0.000 HD
ATOM     13  H   UNL     1      45.056  31.539  50.252  0.00  0.00    +0.000 HD
ENDROOT
BRANCH   9  16
ATOM     14 CL   UNL     1      45.156  28.961  47.903  0.00  0.00    +0.000 Cl
ATOM     15  C   UNL     1      46.524  28.338  46.969  0.00  0.00    +0.000 A 
ATOM     16  C   UNL     1      47.307  29.192  46.210  0.00  0.00    +0.000 A 
ATOM     17  C   UNL     1      48.369  28.690  45.487  0.00  0.00    +0.000 A 
ATOM     18  H   UNL     1      48.976  29.363  44.897  0.00  0.00    +0.000 HD
ATOM     19  C   UNL     1      48.600  27.339  45.559  0.00  0.00    +0.000 A 
ATOM     20  H   UNL     1      49.453  26.967  44.973  0.00  0.00    +0.000 HD
ATOM     21  C   UNL     1      47.848  26.448  46.301  0.00  0.00    +0.000 A 
ATOM     22  H   UNL     1      48.148  25.401  46.264  0.00  0.00    +0.000 HD
ATOM     23  C   UNL     1      46.793  27.000  47.009  0.00  0.00    +0.000 A 
ATOM     24 CL   UNL     1      45.828  25.876  47.957  0.00  0.00    +0.000 Cl
ENDBRANCH   9  16
BRANCH   2  29
ATOM     25  C   UNL     1      46.517  35.204  42.423  0.00  0.00    +0.000 A 
ATOM     26  C   UNL     1      47.714  35.059  41.710  0.00  0.00    +0.000 A 
ATOM     27  C   UNL     1      48.639  34.103  42.150  0.00  0.00    +0.000 A 
ATOM     28  N   UNL     1      48.321  33.361  43.257  0.00  0.00    +0.000 NA
ATOM     29  C   UNL     1      47.153  33.526  43.926  0.00  0.00    +0.000 A 
ATOM     30  N   UNL     1      46.275  34.436  43.505  0.00  0.00    +0.000 NA
ATOM     31  H   UNL     1      45.751  35.916  42.152  0.00  0.00    +0.000 HD
ATOM     32  H   UNL     1      47.895  35.678  40.848  0.00  0.00    +0.000 HD
ATOM     33  H   UNL     1      49.572  33.964  41.624  0.00  0.00    +0.000 HD
ENDBRANCH   2  29
TORSDOF 2
