
 OpenBabel03252505093D

 45 48  0  0  1  0  0  0  0  0999 V2000
   36.5580   29.9550   38.6770 C   0  0  0  0  0  0  0  0  0  0  0  0
   37.1330   31.2410   38.7620 C   0  0  0  0  0  0  0  0  0  0  0  0
   38.1060   31.4500   39.7780 C   0  0  0  0  0  0  0  0  0  0  0  0
   38.4240   30.4160   40.6000 N   0  0  0  0  0  0  0  0  0  0  0  0
   37.8460   29.2080   40.4760 C   0  0  0  0  0  0  0  0  0  0  0  0
   36.9110   28.9690   39.5160 N   0  0  0  0  0  0  0  0  0  0  0  0
   35.8340   29.8570   37.8940 H   0  0  0  0  0  0  0  0  0  0  0  0
   36.8670   32.0500   38.1000 H   0  0  0  0  0  0  0  0  0  0  0  0
   38.2340   28.1160   41.4110 C   0  0  2  0  0  0  0  0  0  0  0  0
   38.2440   26.8570   40.5870 C   0  0  0  0  0  0  0  0  0  0  0  0
   37.1110   25.9410   40.7890 C   0  0  0  0  0  0  0  0  0  0  0  0
   37.0880   25.6430   42.2830 C   0  0  0  0  0  0  0  0  0  0  0  0
   36.7770   26.8300   43.0760 C   0  0  0  0  0  0  0  0  0  0  0  0
   37.3930   28.0910   42.5870 C   0  0  0  0  0  0  0  0  0  0  0  0
   39.2770   28.3660   41.7210 H   0  0  0  0  0  0  0  0  0  0  0  0
   39.1800   26.3080   40.8240 H   0  0  0  0  0  0  0  0  0  0  0  0
   38.3210   27.0680   39.4880 H   0  0  0  0  0  0  0  0  0  0  0  0
   36.1560   26.3400   40.4280 H   0  0  0  0  0  0  0  0  0  0  0  0
   37.3290   24.9870   40.3000 H   0  0  0  0  0  0  0  0  0  0  0  0
   38.0310   25.1810   42.5720 H   0  0  0  0  0  0  0  0  0  0  0  0
   36.1960   24.9780   42.4070 H   0  0  0  0  0  0  0  0  0  0  0  0
   36.2010   27.0300   43.9460 H   0  0  0  0  0  0  0  0  0  0  0  0
   37.1660   29.3080   43.2700 N   0  0  0  0  0  0  0  0  0  0  0  0
   36.4800   30.0940   43.2600 H   0  0  0  0  0  0  0  0  0  0  0  0
   37.9770   29.2890   43.9310 H   0  0  0  0  0  0  0  0  0  0  0  0
   38.7230   32.7590   39.8960 C   0  0  0  0  0  0  0  0  0  0  0  0
   37.9170   33.8500   39.9420 C   0  0  0  0  0  0  0  0  0  0  0  0
   38.5480   35.0990   40.0570 C   0  0  0  0  0  0  0  0  0  0  0  0
   39.9240   35.0830   40.1110 C   0  0  0  0  0  0  0  0  0  0  0  0
   40.7280   33.9940   40.0650 C   0  0  0  0  0  0  0  0  0  0  0  0
   40.0680   32.8020   39.9530 N   0  0  0  0  0  0  0  0  0  0  0  0
   36.8390   33.7870   39.8940 H   0  0  0  0  0  0  0  0  0  0  0  0
   37.9660   36.0100   40.0990 H   0  0  0  0  0  0  0  0  0  0  0  0
   40.3640   36.0680   40.2000 H   0  0  0  0  0  0  0  0  0  0  0  0
   42.0590   33.6130   37.4550 Cl  0  0  0  0  0  0  0  0  0  0  0  0
   42.9160   33.8440   38.9810 C   0  0  0  0  0  0  0  0  0  0  0  0
   42.1610   34.0100   40.1240 C   0  0  0  0  0  0  0  0  0  0  0  0
   42.8500   34.1880   41.3060 C   0  0  0  0  0  0  0  0  0  0  0  0
   42.3370   34.3250   42.2470 H   0  0  0  0  0  0  0  0  0  0  0  0
   44.2450   34.2060   41.3780 C   0  0  0  0  0  0  0  0  0  0  0  0
   44.7540   34.3500   42.3320 H   0  0  0  0  0  0  0  0  0  0  0  0
   44.9570   34.0360   40.2120 C   0  0  0  0  0  0  0  0  0  0  0  0
   46.0300   34.0520   40.2840 H   0  0  0  0  0  0  0  0  0  0  0  0
   44.3020   33.8580   39.0350 C   0  0  0  0  0  0  0  0  0  0  0  0
   45.1810   33.6390   37.5270 Cl  0  0  0  0  0  0  0  0  0  0  0  0
  1  2  2  0  0  0  0
  1  6  1  0  0  0  0
  2  3  1  0  0  0  0
  3 26  1  0  0  0  0
  3  4  2  0  0  0  0
  5  4  1  0  0  0  0
  5  9  1  0  0  0  0
  6  5  2  0  0  0  0
  7  1  1  0  0  0  0
  8  2  1  0  0  0  0
  9 15  1  1  0  0  0
  9 14  1  0  0  0  0
 10 11  1  0  0  0  0
 10 16  1  0  0  0  0
 10  9  1  0  0  0  0
 11 12  1  0  0  0  0
 12 21  1  0  0  0  0
 12 20  1  0  0  0  0
 12 13  1  0  0  0  0
 13 22  1  0  0  0  0
 14 13  2  0  0  0  0
 14 23  1  0  0  0  0
 17 10  1  0  0  0  0
 18 11  1  0  0  0  0
 19 11  1  0  0  0  0
 23 25  1  0  0  0  0
 24 23  1  0  0  0  0
 26 27  2  0  0  0  0
 26 31  1  0  0  0  0
 27 28  1  0  0  0  0
 28 33  1  0  0  0  0
 28 29  2  0  0  0  0
 29 34  1  0  0  0  0
 30 29  1  0  0  0  0
 30 37  1  0  0  0  0
 31 30  2  0  0  0  0
 32 27  1  0  0  0  0
 35 36  1  0  0  0  0
 36 44  2  0  0  0  0
 36 37  1  0  0  0  0
 37 38  2  0  0  0  0
 38 40  1  0  0  0  0
 38 39  1  0  0  0  0
 40 41  1  0  0  0  0
 42 43  1  0  0  0  0
 42 40  2  0  0  0  0
 44 42  1  0  0  0  0
 45 44  1  0  0  0  0
M  END
>  <minimizedAffinity>
-7.20303631

$$$$

 OpenBabel03252505093D

 45 48  0  0  1  0  0  0  0  0999 V2000
   37.5180   32.6420   40.0080 C   0  0  0  0  0  0  0  0  0  0  0  0
   37.1150   31.4590   40.6640 C   0  0  0  0  0  0  0  0  0  0  0  0
   38.0810   30.4230   40.7850 C   0  0  0  0  0  0  0  0  0  0  0  0
   39.3220   30.6250   40.2690 N   0  0  0  0  0  0  0  0  0  0  0  0
   39.6560   31.7720   39.6530 C   0  0  0  0  0  0  0  0  0  0  0  0
   38.7590   32.7870   39.5180 N   0  0  0  0  0  0  0  0  0  0  0  0
   36.7500   33.3860   39.9480 H   0  0  0  0  0  0  0  0  0  0  0  0
   36.1240   31.3190   41.0660 H   0  0  0  0  0  0  0  0  0  0  0  0
   41.0310   31.9300   39.1050 C   0  0  2  0  0  0  0  0  0  0  0  0
   41.8540   32.5050   40.2250 C   0  0  0  0  0  0  0  0  0  0  0  0
   42.1920   33.9320   40.1170 C   0  0  0  0  0  0  0  0  0  0  0  0
   42.8810   34.0880   38.7670 C   0  0  0  0  0  0  0  0  0  0  0  0
   41.9780   33.8140   37.6530 C   0  0  0  0  0  0  0  0  0  0  0  0
   41.0350   32.6860   37.8710 C   0  0  0  0  0  0  0  0  0  0  0  0
   41.3720   30.8900   38.8880 H   0  0  0  0  0  0  0  0  0  0  0  0
   42.8030   31.9270   40.2760 H   0  0  0  0  0  0  0  0  0  0  0  0
   41.3810   32.3410   41.2290 H   0  0  0  0  0  0  0  0  0  0  0  0
   41.3260   34.5960   40.2220 H   0  0  0  0  0  0  0  0  0  0  0  0
   42.9480   34.1810   40.8670 H   0  0  0  0  0  0  0  0  0  0  0  0
   43.7750   33.4650   38.7450 H   0  0  0  0  0  0  0  0  0  0  0  0
   43.0890   35.1860   38.7000 H   0  0  0  0  0  0  0  0  0  0  0  0
   41.8150   34.2310   36.6890 H   0  0  0  0  0  0  0  0  0  0  0  0
   40.1090   32.3250   36.8660 N   0  0  0  0  0  0  0  0  0  0  0  0
   39.1390   32.5700   36.5710 H   0  0  0  0  0  0  0  0  0  0  0  0
   40.6810   31.6130   36.3530 H   0  0  0  0  0  0  0  0  0  0  0  0
   37.7050   29.1920   41.4550 C   0  0  0  0  0  0  0  0  0  0  0  0
   37.5720   29.2090   42.8060 C   0  0  0  0  0  0  0  0  0  0  0  0
   37.2060   28.0000   43.4210 C   0  0  0  0  0  0  0  0  0  0  0  0
   37.0200   26.9230   42.5830 C   0  0  0  0  0  0  0  0  0  0  0  0
   37.1530   26.9070   41.2350 C   0  0  0  0  0  0  0  0  0  0  0  0
   37.5100   28.1060   40.6830 N   0  0  0  0  0  0  0  0  0  0  0  0
   37.7340   30.0950   43.4020 H   0  0  0  0  0  0  0  0  0  0  0  0
   37.0830   27.9420   44.4940 H   0  0  0  0  0  0  0  0  0  0  0  0
   36.7390   26.0150   43.1020 H   0  0  0  0  0  0  0  0  0  0  0  0
   38.5120   24.4510   42.1580 Cl  0  0  0  0  0  0  0  0  0  0  0  0
   37.5270   24.5500   40.6960 C   0  0  0  0  0  0  0  0  0  0  0  0
   36.9520   25.7670   40.3890 C   0  0  0  0  0  0  0  0  0  0  0  0
   36.1870   25.8230   39.2430 C   0  0  0  0  0  0  0  0  0  0  0  0
   35.7010   26.7350   38.9280 H   0  0  0  0  0  0  0  0  0  0  0  0
   35.9830   24.7200   38.4090 C   0  0  0  0  0  0  0  0  0  0  0  0
   35.3710   24.8040   37.5100 H   0  0  0  0  0  0  0  0  0  0  0  0
   36.5770   23.5280   38.7550 C   0  0  0  0  0  0  0  0  0  0  0  0
   36.4100   22.6880   38.1030 H   0  0  0  0  0  0  0  0  0  0  0  0
   37.3350   23.4460   39.8790 C   0  0  0  0  0  0  0  0  0  0  0  0
   38.1080   21.9370   40.3500 Cl  0  0  0  0  0  0  0  0  0  0  0  0
  1  2  1  0  0  0  0
  2  3  2  0  0  0  0
  2  8  1  0  0  0  0
  3 26  1  0  0  0  0
  4  3  1  0  0  0  0
  5  4  2  0  0  0  0
  6  5  1  0  0  0  0
  6  1  2  0  0  0  0
  7  1  1  0  0  0  0
  9 15  1  6  0  0  0
  9  5  1  0  0  0  0
  9 10  1  0  0  0  0
 10 16  1  0  0  0  0
 10 17  1  0  0  0  0
 11 18  1  0  0  0  0
 11 10  1  0  0  0  0
 11 19  1  0  0  0  0
 12 11  1  0  0  0  0
 13 14  2  0  0  0  0
 13 12  1  0  0  0  0
 14  9  1  0  0  0  0
 20 12  1  0  0  0  0
 21 12  1  0  0  0  0
 22 13  1  0  0  0  0
 23 14  1  0  0  0  0
 24 23  1  0  0  0  0
 25 23  1  0  0  0  0
 26 27  1  0  0  0  0
 27 32  1  0  0  0  0
 27 28  2  0  0  0  0
 28 33  1  0  0  0  0
 29 34  1  0  0  0  0
 29 28  1  0  0  0  0
 30 29  2  0  0  0  0
 31 30  1  0  0  0  0
 31 26  2  0  0  0  0
 36 35  1  0  0  0  0
 37 36  1  0  0  0  0
 37 30  1  0  0  0  0
 38 37  2  0  0  0  0
 39 38  1  0  0  0  0
 40 42  2  0  0  0  0
 40 38  1  0  0  0  0
 41 40  1  0  0  0  0
 42 44  1  0  0  0  0
 43 42  1  0  0  0  0
 44 45  1  0  0  0  0
 44 36  2  0  0  0  0
M  END
>  <minimizedAffinity>
-7.10204935

$$$$

 OpenBabel03252505093D

 45 48  0  0  1  0  0  0  0  0999 V2000
   40.0730   34.9730   39.9450 C   0  0  0  0  0  0  0  0  0  0  0  0
   39.0900   34.0370   40.3320 C   0  0  0  0  0  0  0  0  0  0  0  0
   39.4190   32.6600   40.2010 C   0  0  0  0  0  0  0  0  0  0  0  0
   40.6450   32.3250   39.7170 N   0  0  0  0  0  0  0  0  0  0  0  0
   41.5460   33.2570   39.3640 C   0  0  0  0  0  0  0  0  0  0  0  0
   41.2680   34.5850   39.4750 N   0  0  0  0  0  0  0  0  0  0  0  0
   39.7690   35.9930   40.0670 H   0  0  0  0  0  0  0  0  0  0  0  0
   38.1220   34.3230   40.7120 H   0  0  0  0  0  0  0  0  0  0  0  0
   42.8700   32.8260   38.8370 C   0  0  2  0  0  0  0  0  0  0  0  0
   43.6990   32.4840   40.0450 C   0  0  0  0  0  0  0  0  0  0  0  0
   44.7330   33.4610   40.4210 C   0  0  0  0  0  0  0  0  0  0  0  0
   45.5910   33.6470   39.1760 C   0  0  0  0  0  0  0  0  0  0  0  0
   44.8470   34.2660   38.0820 C   0  0  0  0  0  0  0  0  0  0  0  0
   43.4390   33.8110   37.9430 C   0  0  0  0  0  0  0  0  0  0  0  0
   42.6560   31.8970   38.2570 H   0  0  0  0  0  0  0  0  0  0  0  0
   44.1980   31.5110   39.8450 H   0  0  0  0  0  0  0  0  0  0  0  0
   43.0700   32.2870   40.9520 H   0  0  0  0  0  0  0  0  0  0  0  0
   44.3250   34.4080   40.7920 H   0  0  0  0  0  0  0  0  0  0  0  0
   45.3920   33.0150   41.1720 H   0  0  0  0  0  0  0  0  0  0  0  0
   46.0310   32.6900   38.8950 H   0  0  0  0  0  0  0  0  0  0  0  0
   46.3400   34.4210   39.4830 H   0  0  0  0  0  0  0  0  0  0  0  0
   45.0630   34.9870   37.3320 H   0  0  0  0  0  0  0  0  0  0  0  0
   42.6160   34.3380   36.9220 N   0  0  0  0  0  0  0  0  0  0  0  0
   41.9640   35.1400   36.7790 H   0  0  0  0  0  0  0  0  0  0  0  0
   42.8090   33.6390   36.1670 H   0  0  0  0  0  0  0  0  0  0  0  0
   38.4360   31.6660   40.5900 C   0  0  0  0  0  0  0  0  0  0  0  0
   37.1210   31.9690   40.4440 C   0  0  0  0  0  0  0  0  0  0  0  0
   36.1980   30.9840   40.8300 C   0  0  0  0  0  0  0  0  0  0  0  0
   36.7280   29.8100   41.3170 C   0  0  0  0  0  0  0  0  0  0  0  0
   38.0410   29.5070   41.4620 C   0  0  0  0  0  0  0  0  0  0  0  0
   38.9000   30.4980   41.0740 N   0  0  0  0  0  0  0  0  0  0  0  0
   36.7750   32.9150   40.0530 H   0  0  0  0  0  0  0  0  0  0  0  0
   35.1340   31.1580   40.7410 H   0  0  0  0  0  0  0  0  0  0  0  0
   35.9790   29.0810   41.6010 H   0  0  0  0  0  0  0  0  0  0  0  0
   38.5510   27.4540   39.4010 Cl  0  0  0  0  0  0  0  0  0  0  0  0
   38.8490   27.2230   41.1250 C   0  0  0  0  0  0  0  0  0  0  0  0
   38.5630   28.2740   41.9740 C   0  0  0  0  0  0  0  0  0  0  0  0
   38.8030   28.0730   43.3170 C   0  0  0  0  0  0  0  0  0  0  0  0
   38.6070   28.8420   44.0500 H   0  0  0  0  0  0  0  0  0  0  0  0
   39.3110   26.8770   43.8280 C   0  0  0  0  0  0  0  0  0  0  0  0
   39.4870   26.7560   44.8980 H   0  0  0  0  0  0  0  0  0  0  0  0
   39.5820   25.8570   42.9450 C   0  0  0  0  0  0  0  0  0  0  0  0
   39.9720   24.9410   43.3550 H   0  0  0  0  0  0  0  0  0  0  0  0
   39.3540   26.0290   41.6170 C   0  0  0  0  0  0  0  0  0  0  0  0
   39.6880   24.7450   40.4610 Cl  0  0  0  0  0  0  0  0  0  0  0  0
  1  7  1  0  0  0  0
  1  2  1  0  0  0  0
  2  8  1  0  0  0  0
  3  2  2  0  0  0  0
  3 26  1  0  0  0  0
  4  3  1  0  0  0  0
  5  6  1  0  0  0  0
  5  4  2  0  0  0  0
  6  1  2  0  0  0  0
  9 15  1  6  0  0  0
  9  5  1  0  0  0  0
  9 10  1  0  0  0  0
 10 11  1  0  0  0  0
 10 17  1  0  0  0  0
 11 18  1  0  0  0  0
 11 19  1  0  0  0  0
 12 21  1  0  0  0  0
 12 11  1  0  0  0  0
 13 12  1  0  0  0  0
 14 13  2  0  0  0  0
 14  9  1  0  0  0  0
 16 10  1  0  0  0  0
 20 12  1  0  0  0  0
 22 13  1  0  0  0  0
 23 14  1  0  0  0  0
 24 23  1  0  0  0  0
 25 23  1  0  0  0  0
 26 31  1  0  0  0  0
 27 26  2  0  0  0  0
 27 28  1  0  0  0  0
 28 29  2  0  0  0  0
 29 30  1  0  0  0  0
 29 34  1  0  0  0  0
 30 37  1  0  0  0  0
 31 30  2  0  0  0  0
 32 27  1  0  0  0  0
 33 28  1  0  0  0  0
 35 36  1  0  0  0  0
 36 44  2  0  0  0  0
 36 37  1  0  0  0  0
 37 38  2  0  0  0  0
 38 40  1  0  0  0  0
 38 39  1  0  0  0  0
 40 41  1  0  0  0  0
 42 43  1  0  0  0  0
 42 40  2  0  0  0  0
 44 42  1  0  0  0  0
 45 44  1  0  0  0  0
M  END
>  <minimizedAffinity>
-6.94952965

$$$$

 OpenBabel03252505093D

 45 48  0  0  1  0  0  0  0  0999 V2000
   36.0950   24.4460   39.0110 C   0  0  0  0  0  0  0  0  0  0  0  0
   36.1810   25.6000   38.2030 C   0  0  0  0  0  0  0  0  0  0  0  0
   36.6710   26.7860   38.8150 C   0  0  0  0  0  0  0  0  0  0  0  0
   37.0240   26.7440   40.1260 N   0  0  0  0  0  0  0  0  0  0  0  0
   36.9240   25.6180   40.8530 C   0  0  0  0  0  0  0  0  0  0  0  0
   36.4610   24.4630   40.3020 N   0  0  0  0  0  0  0  0  0  0  0  0
   35.7210   23.5850   38.4960 H   0  0  0  0  0  0  0  0  0  0  0  0
   35.8940   25.6120   37.1630 H   0  0  0  0  0  0  0  0  0  0  0  0
   37.3250   25.6390   42.2870 C   0  0  2  0  0  0  0  0  0  0  0  0
   37.3160   27.0870   42.6930 C   0  0  0  0  0  0  0  0  0  0  0  0
   38.6310   27.7290   42.8400 C   0  0  0  0  0  0  0  0  0  0  0  0
   39.3990   26.8640   43.8320 C   0  0  0  0  0  0  0  0  0  0  0  0
   39.6700   25.5300   43.3040 C   0  0  0  0  0  0  0  0  0  0  0  0
   38.5670   24.9320   42.5080 C   0  0  0  0  0  0  0  0  0  0  0  0
   36.5050   25.0980   42.8170 H   0  0  0  0  0  0  0  0  0  0  0  0
   36.7840   27.1600   43.6670 H   0  0  0  0  0  0  0  0  0  0  0  0
   36.7030   27.7210   42.0000 H   0  0  0  0  0  0  0  0  0  0  0  0
   39.1660   27.8500   41.8910 H   0  0  0  0  0  0  0  0  0  0  0  0
   38.5060   28.7000   43.3270 H   0  0  0  0  0  0  0  0  0  0  0  0
   38.8610   26.8390   44.7790 H   0  0  0  0  0  0  0  0  0  0  0  0
   40.4030   27.3550   43.8910 H   0  0  0  0  0  0  0  0  0  0  0  0
   40.4870   24.8510   43.3440 H   0  0  0  0  0  0  0  0  0  0  0  0
   38.7110   23.6440   41.9430 N   0  0  0  0  0  0  0  0  0  0  0  0
   39.0610   23.2120   41.0610 H   0  0  0  0  0  0  0  0  0  0  0  0
   38.3210   23.0680   42.7260 H   0  0  0  0  0  0  0  0  0  0  0  0
   36.7750   27.9920   38.0150 C   0  0  0  0  0  0  0  0  0  0  0  0
   36.3770   27.9430   36.7190 C   0  0  0  0  0  0  0  0  0  0  0  0
   36.4920   29.1300   35.9770 C   0  0  0  0  0  0  0  0  0  0  0  0
   36.9990   30.2210   36.6460 C   0  0  0  0  0  0  0  0  0  0  0  0
   37.3960   30.2700   37.9410 C   0  0  0  0  0  0  0  0  0  0  0  0
   37.2650   29.0910   38.6220 N   0  0  0  0  0  0  0  0  0  0  0  0
   35.9870   27.0480   36.2570 H   0  0  0  0  0  0  0  0  0  0  0  0
   36.1930   29.1620   34.9370 H   0  0  0  0  0  0  0  0  0  0  0  0
   37.0680   31.1110   36.0340 H   0  0  0  0  0  0  0  0  0  0  0  0
   40.3450   30.4530   37.9240 Cl  0  0  0  0  0  0  0  0  0  0  0  0
   39.2820   31.6400   38.6830 C   0  0  0  0  0  0  0  0  0  0  0  0
   37.9210   31.4230   38.6110 C   0  0  0  0  0  0  0  0  0  0  0  0
   37.1080   32.3620   39.2110 C   0  0  0  0  0  0  0  0  0  0  0  0
   36.0310   32.2710   39.2020 H   0  0  0  0  0  0  0  0  0  0  0  0
   37.6050   33.4910   39.8670 C   0  0  0  0  0  0  0  0  0  0  0  0
   36.9300   34.2120   40.3300 H   0  0  0  0  0  0  0  0  0  0  0  0
   38.9700   33.6660   39.9140 C   0  0  0  0  0  0  0  0  0  0  0  0
   39.3370   34.5390   40.4240 H   0  0  0  0  0  0  0  0  0  0  0  0
   39.7920   32.7550   39.3310 C   0  0  0  0  0  0  0  0  0  0  0  0
   41.5400   32.9480   39.3720 Cl  0  0  0  0  0  0  0  0  0  0  0  0
  1  6  1  0  0  0  0
  2  3  1  0  0  0  0
  2  1  2  0  0  0  0
  3  4  2  0  0  0  0
  4  5  1  0  0  0  0
  5  9  1  0  0  0  0
  6  5  2  0  0  0  0
  7  1  1  0  0  0  0
  8  2  1  0  0  0  0
  9 14  1  0  0  0  0
  9 10  1  0  0  0  0
  9 15  1  1  0  0  0
 10 11  1  0  0  0  0
 10 16  1  0  0  0  0
 11 19  1  0  0  0  0
 11 12  1  0  0  0  0
 12 21  1  0  0  0  0
 12 20  1  0  0  0  0
 13 22  1  0  0  0  0
 13 12  1  0  0  0  0
 14 13  2  0  0  0  0
 17 10  1  0  0  0  0
 18 11  1  0  0  0  0
 23 14  1  0  0  0  0
 23 25  1  0  0  0  0
 24 23  1  0  0  0  0
 26 31  1  0  0  0  0
 26  3  1  0  0  0  0
 27 26  2  0  0  0  0
 28 29  2  0  0  0  0
 28 27  1  0  0  0  0
 29 30  1  0  0  0  0
 30 37  1  0  0  0  0
 30 31  2  0  0  0  0
 32 27  1  0  0  0  0
 33 28  1  0  0  0  0
 34 29  1  0  0  0  0
 35 36  1  0  0  0  0
 36 44  1  0  0  0  0
 37 36  2  0  0  0  0
 37 38  1  0  0  0  0
 38 40  2  0  0  0  0
 39 38  1  0  0  0  0
 40 42  1  0  0  0  0
 40 41  1  0  0  0  0
 42 43  1  0  0  0  0
 44 45  1  0  0  0  0
 44 42  2  0  0  0  0
M  END
>  <minimizedAffinity>
-6.72936535

$$$$

 OpenBabel03252505093D

 45 48  0  0  1  0  0  0  0  0999 V2000
   32.2440   26.6970   35.8130 C   0  0  0  0  0  0  0  0  0  0  0  0
   33.5050   27.0110   36.3630 C   0  0  0  0  0  0  0  0  0  0  0  0
   33.6490   28.2900   36.9660 C   0  0  0  0  0  0  0  0  0  0  0  0
   32.5800   29.1280   36.9810 N   0  0  0  0  0  0  0  0  0  0  0  0
   31.3980   28.7800   36.4430 C   0  0  0  0  0  0  0  0  0  0  0  0
   31.2220   27.5640   35.8570 N   0  0  0  0  0  0  0  0  0  0  0  0
   32.1960   25.7220   35.3740 H   0  0  0  0  0  0  0  0  0  0  0  0
   34.3430   26.3310   36.3400 H   0  0  0  0  0  0  0  0  0  0  0  0
   30.2650   29.7450   36.4880 C   0  0  2  0  0  0  0  0  0  0  0  0
   30.3150   30.4950   35.1840 C   0  0  0  0  0  0  0  0  0  0  0  0
   30.8290   31.8720   35.2460 C   0  0  0  0  0  0  0  0  0  0  0  0
   29.9640   32.5840   36.2790 C   0  0  0  0  0  0  0  0  0  0  0  0
   30.1470   32.0370   37.6210 C   0  0  0  0  0  0  0  0  0  0  0  0
   30.2990   30.5600   37.6820 C   0  0  0  0  0  0  0  0  0  0  0  0
   29.3500   29.1070   36.5150 H   0  0  0  0  0  0  0  0  0  0  0  0
   29.2820   30.5280   34.7760 H   0  0  0  0  0  0  0  0  0  0  0  0
   30.9010   29.9470   34.4000 H   0  0  0  0  0  0  0  0  0  0  0  0
   31.8970   31.9290   35.4850 H   0  0  0  0  0  0  0  0  0  0  0  0
   30.6290   32.3730   34.2950 H   0  0  0  0  0  0  0  0  0  0  0  0
   28.9240   32.5610   35.9550 H   0  0  0  0  0  0  0  0  0  0  0  0
   30.4040   33.6120   36.3300 H   0  0  0  0  0  0  0  0  0  0  0  0
   30.2030   32.4400   38.6030 H   0  0  0  0  0  0  0  0  0  0  0  0
   30.4840   29.9120   38.9250 N   0  0  0  0  0  0  0  0  0  0  0  0
   31.2690   29.6310   39.5520 H   0  0  0  0  0  0  0  0  0  0  0  0
   29.4840   29.7160   39.1680 H   0  0  0  0  0  0  0  0  0  0  0  0
   34.9310   28.6500   37.5450 C   0  0  0  0  0  0  0  0  0  0  0  0
   35.7500   29.4700   36.8390 C   0  0  0  0  0  0  0  0  0  0  0  0
   36.9810   29.7960   37.4300 C   0  0  0  0  0  0  0  0  0  0  0  0
   37.2260   29.2470   38.6690 C   0  0  0  0  0  0  0  0  0  0  0  0
   36.4080   28.4290   39.3740 C   0  0  0  0  0  0  0  0  0  0  0  0
   35.2230   28.1400   38.7570 N   0  0  0  0  0  0  0  0  0  0  0  0
   35.4910   29.8650   35.8680 H   0  0  0  0  0  0  0  0  0  0  0  0
   37.6820   30.4450   36.9230 H   0  0  0  0  0  0  0  0  0  0  0  0
   38.1860   29.5280   39.0840 H   0  0  0  0  0  0  0  0  0  0  0  0
   37.0120   25.5370   39.3460 Cl  0  0  0  0  0  0  0  0  0  0  0  0
   36.9920   26.5320   40.8040 C   0  0  0  0  0  0  0  0  0  0  0  0
   36.6930   27.8720   40.6640 C   0  0  0  0  0  0  0  0  0  0  0  0
   36.6820   28.6320   41.8150 C   0  0  0  0  0  0  0  0  0  0  0  0
   36.4570   29.6890   41.7960 H   0  0  0  0  0  0  0  0  0  0  0  0
   36.9570   28.1030   43.0790 C   0  0  0  0  0  0  0  0  0  0  0  0
   36.9380   28.7360   43.9670 H   0  0  0  0  0  0  0  0  0  0  0  0
   37.2500   26.7610   43.1700 C   0  0  0  0  0  0  0  0  0  0  0  0
   37.4590   26.3690   44.1500 H   0  0  0  0  0  0  0  0  0  0  0  0
   37.2670   25.9910   42.0510 C   0  0  0  0  0  0  0  0  0  0  0  0
   37.6380   24.2730   42.1330 Cl  0  0  0  0  0  0  0  0  0  0  0  0
  1  6  2  0  0  0  0
  1  2  1  0  0  0  0
  2  3  2  0  0  0  0
  3  4  1  0  0  0  0
  3 26  1  0  0  0  0
  5  9  1  0  0  0  0
  5  4  2  0  0  0  0
  6  5  1  0  0  0  0
  7  1  1  0  0  0  0
  8  2  1  0  0  0  0
  9 15  1  1  0  0  0
  9 14  1  0  0  0  0
 10 11  1  0  0  0  0
 10  9  1  0  0  0  0
 11 18  1  0  0  0  0
 11 12  1  0  0  0  0
 12 21  1  0  0  0  0
 12 13  1  0  0  0  0
 13 14  2  0  0  0  0
 13 22  1  0  0  0  0
 14 23  1  0  0  0  0
 16 10  1  0  0  0  0
 17 10  1  0  0  0  0
 19 11  1  0  0  0  0
 20 12  1  0  0  0  0
 23 25  1  0  0  0  0
 23 24  1  0  0  0  0
 26 31  1  0  0  0  0
 27 28  1  0  0  0  0
 27 26  2  0  0  0  0
 28 29  2  0  0  0  0
 29 34  1  0  0  0  0
 29 30  1  0  0  0  0
 30 37  1  0  0  0  0
 31 30  2  0  0  0  0
 32 27  1  0  0  0  0
 33 28  1  0  0  0  0
 35 36  1  0  0  0  0
 36 44  1  0  0  0  0
 37 36  2  0  0  0  0
 37 38  1  0  0  0  0
 38 40  2  0  0  0  0
 39 38  1  0  0  0  0
 40 42  1  0  0  0  0
 40 41  1  0  0  0  0
 42 43  1  0  0  0  0
 44 45  1  0  0  0  0
 44 42  2  0  0  0  0
M  END
>  <minimizedAffinity>
-6.68745136

$$$$

 OpenBabel03252505093D

 45 48  0  0  1  0  0  0  0  0999 V2000
   36.3200   29.8540   38.3850 C   0  0  0  0  0  0  0  0  0  0  0  0
   36.9460   31.1070   38.5590 C   0  0  0  0  0  0  0  0  0  0  0  0
   37.8740   31.2250   39.6290 C   0  0  0  0  0  0  0  0  0  0  0  0
   38.1050   30.1400   40.4150 N   0  0  0  0  0  0  0  0  0  0  0  0
   37.4830   28.9670   40.2060 C   0  0  0  0  0  0  0  0  0  0  0  0
   36.5880   28.8150   39.1910 N   0  0  0  0  0  0  0  0  0  0  0  0
   35.6330   29.8240   37.5640 H   0  0  0  0  0  0  0  0  0  0  0  0
   36.7480   31.9560   37.9240 H   0  0  0  0  0  0  0  0  0  0  0  0
   37.7760   27.8170   41.1040 C   0  0  2  0  0  0  0  0  0  0  0  0
   36.7850   27.9160   42.2320 C   0  0  0  0  0  0  0  0  0  0  0  0
   37.3110   28.4030   43.5170 C   0  0  0  0  0  0  0  0  0  0  0  0
   38.4720   27.4780   43.8600 C   0  0  0  0  0  0  0  0  0  0  0  0
   39.5750   27.6060   42.9120 C   0  0  0  0  0  0  0  0  0  0  0  0
   39.1690   27.7810   41.4930 C   0  0  0  0  0  0  0  0  0  0  0  0
   37.5520   26.9130   40.4900 H   0  0  0  0  0  0  0  0  0  0  0  0
   36.3580   26.9030   42.3930 H   0  0  0  0  0  0  0  0  0  0  0  0
   35.8980   28.5480   41.9660 H   0  0  0  0  0  0  0  0  0  0  0  0
   37.6090   29.4570   43.4970 H   0  0  0  0  0  0  0  0  0  0  0  0
   36.5610   28.2390   44.2970 H   0  0  0  0  0  0  0  0  0  0  0  0
   38.1060   26.4550   43.9410 H   0  0  0  0  0  0  0  0  0  0  0  0
   38.8710   27.8960   44.8180 H   0  0  0  0  0  0  0  0  0  0  0  0
   40.6360   27.6080   42.9800 H   0  0  0  0  0  0  0  0  0  0  0  0
   40.1470   27.9170   40.4820 N   0  0  0  0  0  0  0  0  0  0  0  0
   40.6890   28.6760   40.0150 H   0  0  0  0  0  0  0  0  0  0  0  0
   40.2630   26.9110   40.2170 H   0  0  0  0  0  0  0  0  0  0  0  0
   38.5390   32.4970   39.8390 C   0  0  0  0  0  0  0  0  0  0  0  0
   37.7770   33.6170   39.9300 C   0  0  0  0  0  0  0  0  0  0  0  0
   38.4550   34.8290   40.1340 C   0  0  0  0  0  0  0  0  0  0  0  0
   39.8270   34.7530   40.2210 C   0  0  0  0  0  0  0  0  0  0  0  0
   40.5880   33.6350   40.1310 C   0  0  0  0  0  0  0  0  0  0  0  0
   39.8830   32.4810   39.9320 N   0  0  0  0  0  0  0  0  0  0  0  0
   36.7000   33.6020   39.8520 H   0  0  0  0  0  0  0  0  0  0  0  0
   37.9090   35.7600   40.2150 H   0  0  0  0  0  0  0  0  0  0  0  0
   40.3050   35.7110   40.3800 H   0  0  0  0  0  0  0  0  0  0  0  0
   41.9850   33.7010   37.5290 Cl  0  0  0  0  0  0  0  0  0  0  0  0
   42.8020   33.6110   39.0910 C   0  0  0  0  0  0  0  0  0  0  0  0
   42.0180   33.5880   40.2270 C   0  0  0  0  0  0  0  0  0  0  0  0
   42.6760   33.5170   41.4360 C   0  0  0  0  0  0  0  0  0  0  0  0
   42.1390   33.4940   42.3740 H   0  0  0  0  0  0  0  0  0  0  0  0
   44.0680   33.4700   41.5440 C   0  0  0  0  0  0  0  0  0  0  0  0
   44.5520   33.4140   42.5200 H   0  0  0  0  0  0  0  0  0  0  0  0
   44.8090   33.4960   40.3850 C   0  0  0  0  0  0  0  0  0  0  0  0
   45.8800   33.4580   40.4840 H   0  0  0  0  0  0  0  0  0  0  0  0
   44.1850   33.5650   39.1800 C   0  0  0  0  0  0  0  0  0  0  0  0
   45.1030   33.5990   37.6790 Cl  0  0  0  0  0  0  0  0  0  0  0  0
  1  2  2  0  0  0  0
  1  6  1  0  0  0  0
  2  3  1  0  0  0  0
  3 26  1  0  0  0  0
  3  4  2  0  0  0  0
  5  4  1  0  0  0  0
  5  9  1  0  0  0  0
  6  5  2  0  0  0  0
  7  1  1  0  0  0  0
  8  2  1  0  0  0  0
  9 15  1  6  0  0  0
  9 14  1  0  0  0  0
  9 10  1  0  0  0  0
 10 16  1  0  0  0  0
 10 11  1  0  0  0  0
 11 12  1  0  0  0  0
 11 19  1  0  0  0  0
 12 20  1  0  0  0  0
 12 21  1  0  0  0  0
 13 22  1  0  0  0  0
 13 12  1  0  0  0  0
 14 13  2  0  0  0  0
 17 10  1  0  0  0  0
 18 11  1  0  0  0  0
 23 14  1  0  0  0  0
 24 23  1  0  0  0  0
 25 23  1  0  0  0  0
 26 27  2  0  0  0  0
 26 31  1  0  0  0  0
 27 28  1  0  0  0  0
 28 33  1  0  0  0  0
 28 29  2  0  0  0  0
 29 34  1  0  0  0  0
 30 29  1  0  0  0  0
 30 37  1  0  0  0  0
 31 30  2  0  0  0  0
 32 27  1  0  0  0  0
 35 36  1  0  0  0  0
 36 44  2  0  0  0  0
 36 37  1  0  0  0  0
 37 38  2  0  0  0  0
 38 40  1  0  0  0  0
 38 39  1  0  0  0  0
 40 41  1  0  0  0  0
 42 43  1  0  0  0  0
 42 40  2  0  0  0  0
 44 42  1  0  0  0  0
 45 44  1  0  0  0  0
M  END
>  <minimizedAffinity>
-6.62129021

$$$$

 OpenBabel03252505093D

 45 48  0  0  1  0  0  0  0  0999 V2000
   39.3980   35.0930   40.2650 C   0  0  0  0  0  0  0  0  0  0  0  0
   38.5440   33.9870   40.4600 C   0  0  0  0  0  0  0  0  0  0  0  0
   39.1580   32.7280   40.7030 C   0  0  0  0  0  0  0  0  0  0  0  0
   40.5150   32.6600   40.7340 N   0  0  0  0  0  0  0  0  0  0  0  0
   41.2850   33.7450   40.5430 C   0  0  0  0  0  0  0  0  0  0  0  0
   40.7340   34.9670   40.3080 N   0  0  0  0  0  0  0  0  0  0  0  0
   38.8800   36.0130   40.0870 H   0  0  0  0  0  0  0  0  0  0  0  0
   37.4680   34.0620   40.4310 H   0  0  0  0  0  0  0  0  0  0  0  0
   42.7660   33.6030   40.5850 C   0  0  2  0  0  0  0  0  0  0  0  0
   43.0600   32.2220   40.0660 C   0  0  0  0  0  0  0  0  0  0  0  0
   43.4420   31.2190   41.0710 C   0  0  0  0  0  0  0  0  0  0  0  0
   44.6330   31.8140   41.8110 C   0  0  0  0  0  0  0  0  0  0  0  0
   44.2700   33.0080   42.5690 C   0  0  0  0  0  0  0  0  0  0  0  0
   43.2980   33.9090   41.8950 C   0  0  0  0  0  0  0  0  0  0  0  0
   43.1440   34.3620   39.8590 H   0  0  0  0  0  0  0  0  0  0  0  0
   43.8890   32.3090   39.3310 H   0  0  0  0  0  0  0  0  0  0  0  0
   42.2090   31.8010   39.4690 H   0  0  0  0  0  0  0  0  0  0  0  0
   42.6250   30.9450   41.7480 H   0  0  0  0  0  0  0  0  0  0  0  0
   43.8230   30.3280   40.5630 H   0  0  0  0  0  0  0  0  0  0  0  0
   45.4420   31.9960   41.1030 H   0  0  0  0  0  0  0  0  0  0  0  0
   44.8730   31.0470   42.5900 H   0  0  0  0  0  0  0  0  0  0  0  0
   44.5310   33.4130   43.5160 H   0  0  0  0  0  0  0  0  0  0  0  0
   42.8670   35.0960   42.5290 N   0  0  0  0  0  0  0  0  0  0  0  0
   42.1140   35.4070   43.1790 H   0  0  0  0  0  0  0  0  0  0  0  0
   43.5860   35.7610   42.1560 H   0  0  0  0  0  0  0  0  0  0  0  0
   38.3130   31.5670   40.9110 C   0  0  0  0  0  0  0  0  0  0  0  0
   36.9890   31.6750   40.6320 C   0  0  0  0  0  0  0  0  0  0  0  0
   36.2020   30.5310   40.8440 C   0  0  0  0  0  0  0  0  0  0  0  0
   36.8610   29.4170   41.3150 C   0  0  0  0  0  0  0  0  0  0  0  0
   38.1830   29.3100   41.5940 C   0  0  0  0  0  0  0  0  0  0  0  0
   38.9060   30.4480   41.3710 N   0  0  0  0  0  0  0  0  0  0  0  0
   36.5380   32.5840   40.2640 H   0  0  0  0  0  0  0  0  0  0  0  0
   35.1400   30.5470   40.6420 H   0  0  0  0  0  0  0  0  0  0  0  0
   36.2140   28.5620   41.4620 H   0  0  0  0  0  0  0  0  0  0  0  0
   39.5940   27.7500   39.5190 Cl  0  0  0  0  0  0  0  0  0  0  0  0
   39.5400   27.3070   41.2270 C   0  0  0  0  0  0  0  0  0  0  0  0
   38.8410   28.1340   42.0840 C   0  0  0  0  0  0  0  0  0  0  0  0
   38.8110   27.7700   43.4140 C   0  0  0  0  0  0  0  0  0  0  0  0
   38.2870   28.3600   44.1520 H   0  0  0  0  0  0  0  0  0  0  0  0
   39.4470   26.6280   43.9040 C   0  0  0  0  0  0  0  0  0  0  0  0
   39.4010   26.3730   44.9640 H   0  0  0  0  0  0  0  0  0  0  0  0
   40.1330   25.8340   43.0130 C   0  0  0  0  0  0  0  0  0  0  0  0
   40.6170   24.9570   43.4070 H   0  0  0  0  0  0  0  0  0  0  0  0
   40.1770   26.1690   41.6980 C   0  0  0  0  0  0  0  0  0  0  0  0
   41.0440   25.1760   40.5320 Cl  0  0  0  0  0  0  0  0  0  0  0  0
  1  6  2  0  0  0  0
  1  2  1  0  0  0  0
  2  3  2  0  0  0  0
  3  4  1  0  0  0  0
  3 26  1  0  0  0  0
  5  9  1  0  0  0  0
  5  4  2  0  0  0  0
  6  5  1  0  0  0  0
  7  1  1  0  0  0  0
  8  2  1  0  0  0  0
  9 15  1  6  0  0  0
  9 14  1  0  0  0  0
 10  9  1  0  0  0  0
 10 11  1  0  0  0  0
 11 18  1  0  0  0  0
 11 12  1  0  0  0  0
 12 13  1  0  0  0  0
 12 21  1  0  0  0  0
 13 22  1  0  0  0  0
 14 23  1  0  0  0  0
 14 13  2  0  0  0  0
 16 10  1  0  0  0  0
 17 10  1  0  0  0  0
 19 11  1  0  0  0  0
 20 12  1  0  0  0  0
 23 24  1  0  0  0  0
 25 23  1  0  0  0  0
 26 31  1  0  0  0  0
 27 28  1  0  0  0  0
 27 26  2  0  0  0  0
 28 29  2  0  0  0  0
 29 34  1  0  0  0  0
 29 30  1  0  0  0  0
 30 37  1  0  0  0  0
 31 30  2  0  0  0  0
 32 27  1  0  0  0  0
 33 28  1  0  0  0  0
 35 36  1  0  0  0  0
 36 44  2  0  0  0  0
 36 37  1  0  0  0  0
 37 38  2  0  0  0  0
 38 40  1  0  0  0  0
 38 39  1  0  0  0  0
 40 41  1  0  0  0  0
 42 43  1  0  0  0  0
 42 40  2  0  0  0  0
 44 42  1  0  0  0  0
 45 44  1  0  0  0  0
M  END
>  <minimizedAffinity>
-6.60730934

$$$$

 OpenBabel03252505093D

 45 48  0  0  1  0  0  0  0  0999 V2000
   37.7280   29.3610   38.4980 C   0  0  0  0  0  0  0  0  0  0  0  0
   36.5870   29.1510   37.6950 C   0  0  0  0  0  0  0  0  0  0  0  0
   35.4860   28.4800   38.2940 C   0  0  0  0  0  0  0  0  0  0  0  0
   35.5910   28.0840   39.5890 N   0  0  0  0  0  0  0  0  0  0  0  0
   36.7000   28.3090   40.3130 C   0  0  0  0  0  0  0  0  0  0  0  0
   37.7750   28.9480   39.7740 N   0  0  0  0  0  0  0  0  0  0  0  0
   38.5240   29.8700   37.9940 H   0  0  0  0  0  0  0  0  0  0  0  0
   36.5250   29.4730   36.6670 H   0  0  0  0  0  0  0  0  0  0  0  0
   36.7550   27.8460   41.7270 C   0  0  2  0  0  0  0  0  0  0  0  0
   37.4090   28.9610   42.4970 C   0  0  0  0  0  0  0  0  0  0  0  0
   38.8060   28.7380   42.9010 C   0  0  0  0  0  0  0  0  0  0  0  0
   38.8010   27.4310   43.6840 C   0  0  0  0  0  0  0  0  0  0  0  0
   38.4490   26.2880   42.8460 C   0  0  0  0  0  0  0  0  0  0  0  0
   37.3830   26.5480   41.8440 C   0  0  0  0  0  0  0  0  0  0  0  0
   35.6860   27.7560   42.0370 H   0  0  0  0  0  0  0  0  0  0  0  0
   36.8060   29.1330   43.4150 H   0  0  0  0  0  0  0  0  0  0  0  0
   37.3630   29.9400   41.9520 H   0  0  0  0  0  0  0  0  0  0  0  0
   39.5060   28.7170   42.0580 H   0  0  0  0  0  0  0  0  0  0  0  0
   39.1010   29.5110   43.6160 H   0  0  0  0  0  0  0  0  0  0  0  0
   38.1470   27.5330   44.5500 H   0  0  0  0  0  0  0  0  0  0  0  0
   39.8780   27.2720   43.9420 H   0  0  0  0  0  0  0  0  0  0  0  0
   38.7730   25.2790   42.7650 H   0  0  0  0  0  0  0  0  0  0  0  0
   36.9550   25.5210   40.9730 N   0  0  0  0  0  0  0  0  0  0  0  0
   37.2040   25.1360   40.0360 H   0  0  0  0  0  0  0  0  0  0  0  0
   36.1760   25.1210   41.5470 H   0  0  0  0  0  0  0  0  0  0  0  0
   34.2940   28.2480   37.5000 C   0  0  0  0  0  0  0  0  0  0  0  0
   34.1130   27.0200   36.9510 C   0  0  0  0  0  0  0  0  0  0  0  0
   32.9480   26.8310   36.1910 C   0  0  0  0  0  0  0  0  0  0  0  0
   32.1090   27.9180   36.0820 C   0  0  0  0  0  0  0  0  0  0  0  0
   32.2900   29.1440   36.6290 C   0  0  0  0  0  0  0  0  0  0  0  0
   33.4370   29.2790   37.3600 N   0  0  0  0  0  0  0  0  0  0  0  0
   34.8160   26.2100   37.0790 H   0  0  0  0  0  0  0  0  0  0  0  0
   32.7410   25.8770   35.7250 H   0  0  0  0  0  0  0  0  0  0  0  0
   31.2250   27.7250   35.4870 H   0  0  0  0  0  0  0  0  0  0  0  0
   30.6650   29.6930   39.0350 Cl  0  0  0  0  0  0  0  0  0  0  0  0
   30.5750   30.6310   37.5430 C   0  0  0  0  0  0  0  0  0  0  0  0
   31.3960   30.2580   36.4980 C   0  0  0  0  0  0  0  0  0  0  0  0
   31.3100   31.0030   35.3410 C   0  0  0  0  0  0  0  0  0  0  0  0
   31.9170   30.7800   34.4750 H   0  0  0  0  0  0  0  0  0  0  0  0
   30.4440   32.0910   35.1990 C   0  0  0  0  0  0  0  0  0  0  0  0
   30.4040   32.6560   34.2670 H   0  0  0  0  0  0  0  0  0  0  0  0
   29.6440   32.4260   36.2680 C   0  0  0  0  0  0  0  0  0  0  0  0
   28.9820   33.2650   36.1420 H   0  0  0  0  0  0  0  0  0  0  0  0
   29.7100   31.7070   37.4180 C   0  0  0  0  0  0  0  0  0  0  0  0
   28.7000   32.1090   38.8030 Cl  0  0  0  0  0  0  0  0  0  0  0  0
  1  6  1  0  0  0  0
  2  3  1  0  0  0  0
  2  1  2  0  0  0  0
  3  4  2  0  0  0  0
  4  5  1  0  0  0  0
  5  9  1  0  0  0  0
  6  5  2  0  0  0  0
  7  1  1  0  0  0  0
  8  2  1  0  0  0  0
  9 14  1  0  0  0  0
  9 15  1  1  0  0  0
  9 10  1  0  0  0  0
 10 11  1  0  0  0  0
 10 16  1  0  0  0  0
 11 19  1  0  0  0  0
 11 12  1  0  0  0  0
 12 21  1  0  0  0  0
 12 20  1  0  0  0  0
 13 12  1  0  0  0  0
 14 13  2  0  0  0  0
 17 10  1  0  0  0  0
 18 11  1  0  0  0  0
 22 13  1  0  0  0  0
 23 25  1  0  0  0  0
 23 14  1  0  0  0  0
 24 23  1  0  0  0  0
 26  3  1  0  0  0  0
 27 32  1  0  0  0  0
 27 26  2  0  0  0  0
 28 27  1  0  0  0  0
 29 28  2  0  0  0  0
 29 30  1  0  0  0  0
 30 31  2  0  0  0  0
 31 26  1  0  0  0  0
 33 28  1  0  0  0  0
 34 29  1  0  0  0  0
 36 35  1  0  0  0  0
 37 30  1  0  0  0  0
 37 36  2  0  0  0  0
 38 37  1  0  0  0  0
 39 38  1  0  0  0  0
 40 38  2  0  0  0  0
 40 42  1  0  0  0  0
 41 40  1  0  0  0  0
 42 44  2  0  0  0  0
 43 42  1  0  0  0  0
 44 36  1  0  0  0  0
 44 45  1  0  0  0  0
M  END
>  <minimizedAffinity>
-6.54273081

$$$$

 OpenBabel03252505093D

 45 48  0  0  1  0  0  0  0  0999 V2000
   40.9750   32.7590   40.7570 C   0  0  0  0  0  0  0  0  0  0  0  0
   41.2230   31.5620   41.4620 C   0  0  0  0  0  0  0  0  0  0  0  0
   40.3070   30.4920   41.2670 C   0  0  0  0  0  0  0  0  0  0  0  0
   39.2560   30.6790   40.4250 N   0  0  0  0  0  0  0  0  0  0  0  0
   39.0650   31.8400   39.7760 C   0  0  0  0  0  0  0  0  0  0  0  0
   39.9200   32.8870   39.9370 N   0  0  0  0  0  0  0  0  0  0  0  0
   41.6970   33.5270   40.9420 H   0  0  0  0  0  0  0  0  0  0  0  0
   42.0630   31.4340   42.1270 H   0  0  0  0  0  0  0  0  0  0  0  0
   37.8920   31.9830   38.8710 C   0  0  2  0  0  0  0  0  0  0  0  0
   36.7720   31.2250   39.5290 C   0  0  0  0  0  0  0  0  0  0  0  0
   36.4320   29.9230   38.9360 C   0  0  0  0  0  0  0  0  0  0  0  0
   36.1410   30.2070   37.4670 C   0  0  0  0  0  0  0  0  0  0  0  0
   37.3270   30.6660   36.7500 C   0  0  0  0  0  0  0  0  0  0  0  0
   38.2080   31.5860   37.5160 C   0  0  0  0  0  0  0  0  0  0  0  0
   37.6590   33.0740   38.8790 H   0  0  0  0  0  0  0  0  0  0  0  0
   35.8660   31.8680   39.4950 H   0  0  0  0  0  0  0  0  0  0  0  0
   36.9520   31.0640   40.6240 H   0  0  0  0  0  0  0  0  0  0  0  0
   37.2130   29.1650   39.0670 H   0  0  0  0  0  0  0  0  0  0  0  0
   35.4890   29.5680   39.3620 H   0  0  0  0  0  0  0  0  0  0  0  0
   35.3090   30.9070   37.3940 H   0  0  0  0  0  0  0  0  0  0  0  0
   35.9250   29.1950   37.0390 H   0  0  0  0  0  0  0  0  0  0  0  0
   37.7380   30.5040   35.7830 H   0  0  0  0  0  0  0  0  0  0  0  0
   39.3870   32.0990   36.9300 N   0  0  0  0  0  0  0  0  0  0  0  0
   40.3930   31.8370   36.8380 H   0  0  0  0  0  0  0  0  0  0  0  0
   39.0040   32.9790   36.5120 H   0  0  0  0  0  0  0  0  0  0  0  0
   40.5300   29.2440   41.9730 C   0  0  0  0  0  0  0  0  0  0  0  0
   41.5160   29.1970   42.9040 C   0  0  0  0  0  0  0  0  0  0  0  0
   41.7030   27.9740   43.5670 C   0  0  0  0  0  0  0  0  0  0  0  0
   40.8610   26.9470   43.2000 C   0  0  0  0  0  0  0  0  0  0  0  0
   39.8770   26.9940   42.2700 C   0  0  0  0  0  0  0  0  0  0  0  0
   39.7340   28.2050   41.6520 N   0  0  0  0  0  0  0  0  0  0  0  0
   42.1410   30.0460   43.1420 H   0  0  0  0  0  0  0  0  0  0  0  0
   42.4710   27.8660   44.3210 H   0  0  0  0  0  0  0  0  0  0  0  0
   41.0420   26.0260   43.7380 H   0  0  0  0  0  0  0  0  0  0  0  0
   40.9320   25.2680   40.1170 Cl  0  0  0  0  0  0  0  0  0  0  0  0
   39.3790   25.0170   40.9180 C   0  0  0  0  0  0  0  0  0  0  0  0
   39.0160   25.9060   41.9090 C   0  0  0  0  0  0  0  0  0  0  0  0
   37.7980   25.6930   42.5210 C   0  0  0  0  0  0  0  0  0  0  0  0
   37.4360   26.3410   43.3070 H   0  0  0  0  0  0  0  0  0  0  0  0
   36.9490   24.6370   42.1800 C   0  0  0  0  0  0  0  0  0  0  0  0
   35.9930   24.5020   42.6870 H   0  0  0  0  0  0  0  0  0  0  0  0
   37.3540   23.7760   41.1850 C   0  0  0  0  0  0  0  0  0  0  0  0
   36.6880   22.9680   40.9330 H   0  0  0  0  0  0  0  0  0  0  0  0
   38.5480   23.9640   40.5660 C   0  0  0  0  0  0  0  0  0  0  0  0
   39.0940   22.8820   39.2910 Cl  0  0  0  0  0  0  0  0  0  0  0  0
  1  7  1  0  0  0  0
  1  2  1  0  0  0  0
  2  8  1  0  0  0  0
  3  2  2  0  0  0  0
  3 26  1  0  0  0  0
  4  3  1  0  0  0  0
  5  6  1  0  0  0  0
  5  4  2  0  0  0  0
  6  1  2  0  0  0  0
  9 15  1  6  0  0  0
  9 10  1  0  0  0  0
  9  5  1  0  0  0  0
 10 17  1  0  0  0  0
 11 18  1  0  0  0  0
 11 19  1  0  0  0  0
 11 10  1  0  0  0  0
 12 11  1  0  0  0  0
 13 12  1  0  0  0  0
 13 14  2  0  0  0  0
 14  9  1  0  0  0  0
 16 10  1  0  0  0  0
 20 12  1  0  0  0  0
 21 12  1  0  0  0  0
 22 13  1  0  0  0  0
 23 14  1  0  0  0  0
 24 23  1  0  0  0  0
 25 23  1  0  0  0  0
 26 27  1  0  0  0  0
 27 32  1  0  0  0  0
 27 28  2  0  0  0  0
 28 33  1  0  0  0  0
 29 28  1  0  0  0  0
 29 34  1  0  0  0  0
 30 29  2  0  0  0  0
 31 26  2  0  0  0  0
 31 30  1  0  0  0  0
 35 36  1  0  0  0  0
 36 37  1  0  0  0  0
 37 30  1  0  0  0  0
 37 38  2  0  0  0  0
 38 39  1  0  0  0  0
 40 38  1  0  0  0  0
 40 41  1  0  0  0  0
 42 40  2  0  0  0  0
 43 42  1  0  0  0  0
 44 36  2  0  0  0  0
 44 42  1  0  0  0  0
 45 44  1  0  0  0  0
M  END
>  <minimizedAffinity>
-6.38837719

$$$$
