
 OpenBabel03252506463D

 44 47  0  0  1  0  0  0  0  0999 V2000
   49.3850   33.3280   41.4000 N   0  0  1  0  0  0  0  0  0  0  0  0
   50.6710   33.0990   42.0030 C   0  0  0  0  0  0  0  0  0  0  0  0
   51.2790   31.7800   41.6390 C   0  0  0  0  0  0  0  0  0  0  0  0
   50.4400   30.6710   42.2410 C   0  0  0  0  0  0  0  0  0  0  0  0
   48.9680   31.0200   42.1710 C   0  0  0  0  0  0  0  0  0  0  0  0
   48.7450   32.0750   41.1000 C   0  0  2  0  0  0  0  0  0  0  0  0
   51.3500   33.8840   41.5860 H   0  0  0  0  0  0  0  0  0  0  0  0
   50.6550   33.1940   43.1030 H   0  0  0  0  0  0  0  0  0  0  0  0
   52.2530   31.7350   42.1760 H   0  0  0  0  0  0  0  0  0  0  0  0
   51.5030   31.6560   40.5800 H   0  0  0  0  0  0  0  0  0  0  0  0
   50.6020   29.7810   41.6040 H   0  0  0  0  0  0  0  0  0  0  0  0
   50.7560   30.4000   43.2640 H   0  0  0  0  0  0  0  0  0  0  0  0
   48.5960   31.4570   43.1200 H   0  0  0  0  0  0  0  0  0  0  0  0
   48.3610   30.1410   41.8840 H   0  0  0  0  0  0  0  0  0  0  0  0
   47.6470   32.2680   41.0800 H   0  0  0  0  0  0  0  0  0  0  0  0
   47.2550   34.6770   41.9800 C   0  0  1  0  0  0  0  0  0  0  0  0
   48.4220   35.5730   41.8000 C   0  0  0  0  0  0  0  0  0  0  0  0
   48.6310   34.1810   42.2430 C   0  0  2  0  0  0  0  0  0  0  0  0
   46.7350   34.3210   41.0760 H   0  0  0  0  0  0  0  0  0  0  0  0
   48.6630   35.8580   40.7610 H   0  0  0  0  0  0  0  0  0  0  0  0
   48.4960   36.4430   42.4970 H   0  0  0  0  0  0  0  0  0  0  0  0
   48.8760   34.0810   43.3390 H   0  0  0  0  0  0  0  0  0  0  0  0
   45.5150   36.0530   43.1560 C   0  0  0  0  0  0  0  0  0  0  0  0
   46.3330   34.9040   43.1140 C   0  0  0  0  0  0  0  0  0  0  0  0
   46.2340   33.9870   44.1720 C   0  0  0  0  0  0  0  0  0  0  0  0
   45.3630   34.2570   45.1760 N   0  0  0  0  0  0  0  0  0  0  0  0
   44.5970   35.3660   45.1860 C   0  0  0  0  0  0  0  0  0  0  0  0
   44.6620   36.2770   44.1790 N   0  0  0  0  0  0  0  0  0  0  0  0
   45.5700   36.7740   42.3560 H   0  0  0  0  0  0  0  0  0  0  0  0
   46.8470   33.1020   44.1630 H   0  0  0  0  0  0  0  0  0  0  0  0
   43.9690   35.3940   46.0740 H   0  0  0  0  0  0  0  0  0  0  0  0
   49.0900   31.5250   39.8290 N   0  0  0  0  0  0  0  0  0  0  0  0
   50.1150   31.3250   39.6160 H   0  0  0  0  0  0  0  0  0  0  0  0
   47.5000   33.6790   38.3930 Cl  0  0  0  0  0  0  0  0  0  0  0  0
   47.5170   31.9960   37.9110 C   0  0  0  0  0  0  0  0  0  0  0  0
   48.3140   31.1560   38.6980 C   0  0  0  0  0  0  0  0  0  0  0  0
   48.3260   29.8230   38.3150 C   0  0  0  0  0  0  0  0  0  0  0  0
   48.9050   29.1240   38.8670 H   0  0  0  0  0  0  0  0  0  0  0  0
   47.6320   29.2850   37.2510 C   0  0  0  0  0  0  0  0  0  0  0  0
   47.6780   28.2460   36.9990 H   0  0  0  0  0  0  0  0  0  0  0  0
   46.8530   30.1440   36.4920 C   0  0  0  0  0  0  0  0  0  0  0  0
   46.2750   29.8180   35.6410 H   0  0  0  0  0  0  0  0  0  0  0  0
   46.8190   31.4760   36.8450 C   0  0  0  0  0  0  0  0  0  0  0  0
   45.8810   32.6840   35.9840 Cl  0  0  0  0  0  0  0  0  0  0  0  0
  1  2  1  1  0  0  0
  1 18  1  0  0  0  0
  2  8  1  0  0  0  0
  3  2  1  0  0  0  0
  3  9  1  0  0  0  0
  3  4  1  0  0  0  0
  4 12  1  0  0  0  0
  5  4  1  0  0  0  0
  5 13  1  0  0  0  0
  6 15  1  6  0  0  0
  6  1  1  0  0  0  0
  6  5  1  0  0  0  0
  7  2  1  0  0  0  0
 10  3  1  0  0  0  0
 11  4  1  0  0  0  0
 14  5  1  0  0  0  0
 16 19  1  6  0  0  0
 16 18  1  0  0  0  0
 16 24  1  0  0  0  0
 17 16  1  0  0  0  0
 17 18  1  0  0  0  0
 17 21  1  0  0  0  0
 18 22  1  1  0  0  0
 20 17  1  0  0  0  0
 23 28  1  0  0  0  0
 24 23  2  0  0  0  0
 24 25  1  0  0  0  0
 25 26  2  0  0  0  0
 26 27  1  0  0  0  0
 27 31  1  0  0  0  0
 28 27  2  0  0  0  0
 29 23  1  0  0  0  0
 30 25  1  0  0  0  0
 32  6  1  0  0  0  0
 33 32  1  0  0  0  0
 35 34  1  0  0  0  0
 35 36  1  0  0  0  0
 36 32  1  0  0  0  0
 37 36  2  0  0  0  0
 37 38  1  0  0  0  0
 39 37  1  0  0  0  0
 40 39  1  0  0  0  0
 41 43  1  0  0  0  0
 41 39  2  0  0  0  0
 42 41  1  0  0  0  0
 43 35  2  0  0  0  0
 44 43  1  0  0  0  0
M  END
>  <minimizedAffinity>
-5.05324554

>  <minimizedRMSD>
1.21112692

$$$$
