
     RDKit          3D

 31 33  0  0  0  0  0  0  0  0999 V2000
   42.1024   31.9293   41.7009 Cl  0  0  0  0  0  0  0  0  0  0  0  0
   41.2663   33.3655   41.1067 C   0  0  0  0  0  0  0  0  0  0  0  0
   42.0774   34.4294   40.8407 C   0  0  0  0  0  0  0  0  0  0  0  0
   41.4656   35.5903   40.3681 C   0  0  0  0  0  0  0  0  0  0  0  0
   40.0882   35.6165   40.1914 C   0  0  0  0  0  0  0  0  0  0  0  0
   39.2771   34.5407   40.4615 C   0  0  0  0  0  0  0  0  0  0  0  0
   39.9026   33.3925   40.9314 C   0  0  0  0  0  0  0  0  0  0  0  0
   38.9804   31.9412   41.3167 Cl  0  0  0  0  0  0  0  0  0  0  0  0
   43.8334   34.5321   41.0193 S   0  0  0  0  0  0  0  0  0  0  0  0
   44.3629   34.6243   42.7358 C   0  0  0  0  0  0  0  0  0  0  0  0
   45.0270   33.4874   43.2071 C   0  0  0  0  0  0  0  0  0  0  0  0
   45.4717   33.4892   44.5469 C   0  0  0  0  0  0  0  0  0  0  0  0
   45.2254   34.5976   45.2944 N   0  0  0  0  0  0  0  0  0  0  0  0
   44.5814   35.6717   44.7992 C   0  0  0  0  0  0  0  0  0  0  0  0
   44.1412   35.7014   43.5149 N   0  0  0  0  0  0  0  0  0  0  0  0
   42.0140   36.4881   40.1271 H   0  0  0  0  0  0  0  0  0  0  0  0
   39.5961   36.5056   39.8266 H   0  0  0  0  0  0  0  0  0  0  0  0
   38.2225   34.4760   40.3553 H   0  0  0  0  0  0  0  0  0  0  0  0
   45.2039   32.6166   42.5700 H   0  0  0  0  0  0  0  0  0  0  0  0
   45.9821   32.6113   44.9037 H   0  0  0  0  0  0  0  0  0  0  0  0
   46.3334   38.0056   44.3044 Cl  0  0  0  0  0  0  0  0  0  0  0  0
   45.1152   37.9657   45.5661 C   0  0  0  0  0  0  0  0  0  0  0  0
   44.3674   36.8114   45.6856 C   0  0  0  0  0  0  0  0  0  0  0  0
   43.3875   36.6935   46.6509 C   0  0  0  0  0  0  0  0  0  0  0  0
   42.7765   35.7857   46.7689 H   0  0  0  0  0  0  0  0  0  0  0  0
   43.1085   37.7255   47.5433 C   0  0  0  0  0  0  0  0  0  0  0  0
   42.3716   37.7135   48.3134 H   0  0  0  0  0  0  0  0  0  0  0  0
   43.8832   38.8728   47.3914 C   0  0  0  0  0  0  0  0  0  0  0  0
   43.7008   39.6973   48.0617 H   0  0  0  0  0  0  0  0  0  0  0  0
   44.8463   38.9860   46.4410 C   0  0  0  0  0  0  0  0  0  0  0  0
   45.8042   40.4448   46.2766 Cl  0  0  0  0  0  0  0  0  0  0  0  0
  2  1  1  0
  3  9  1  0
  3  2  2  0
  4  3  1  0
  5  4  2  0
  5  6  1  0
  6  7  2  0
  7  2  1  0
  7  8  1  0
  9 10  1  0
 10 11  2  0
 10 15  1  0
 11 12  1  0
 12 13  2  0
 14 13  1  0
 15 14  2  0
  4 16  1  0
  5 17  1  0
  6 18  1  0
 11 19  1  0
 12 20  1  0
 21 22  1  0
 22 23  2  0
 23 24  1  0
 24 25  1  0
 24 26  2  0
 26 27  1  0
 26 28  1  0
 28 29  1  0
 28 30  2  0
 30 31  1  0
 30 22  1  0
 14 23  1  0
M  ISO  8  16  14  17  14  18  14  19  14  20  14  25  15  27  15  29  15
M  END
>  <DihAtoms>  (1) 
12,13,22,21

>  <DihDeg>  (1) 
-179.99740980680244

$$$$
