
 OpenBabel03242516463D

 44 48  0  0  1  0  0  0  0  0999 V2000
   45.5940   32.9310   42.3240 C   0  0  0  0  0  0  0  0  0  0  0  0
   44.7610   31.8760   42.3880 N   0  0  0  0  0  0  0  0  0  0  0  0
   43.5130   32.2320   42.0500 C   0  0  0  0  0  0  0  0  0  0  0  0
   43.5650   33.5600   41.7640 N   0  0  0  0  0  0  0  0  0  0  0  0
   44.7950   33.9920   41.9220 N   0  0  0  0  0  0  0  0  0  0  0  0
   42.6150   31.6290   41.9990 H   0  0  0  0  0  0  0  0  0  0  0  0
   40.5340   32.9510   41.5710 O   0  0  0  0  0  0  0  0  0  0  0  0
   41.3220   33.6240   40.8320 C   0  0  0  0  0  0  0  0  0  0  0  0
   42.4670   34.4150   41.3440 C   0  0  2  0  0  0  0  0  0  0  0  0
   42.8620   35.2640   40.1490 C   0  0  0  0  0  0  0  0  0  0  0  0
   42.5740   34.3080   38.9900 C   0  0  0  0  0  0  0  0  0  0  0  0
   41.2870   33.7650   39.3950 N   0  0  0  0  0  0  0  0  0  0  0  0
   42.1750   35.0560   42.1930 H   0  0  0  0  0  0  0  0  0  0  0  0
   42.1130   36.0790   40.0950 H   0  0  0  0  0  0  0  0  0  0  0  0
   43.9010   35.6040   40.1720 H   0  0  0  0  0  0  0  0  0  0  0  0
   43.3780   33.5730   38.9820 H   0  0  0  0  0  0  0  0  0  0  0  0
   42.4940   34.9000   38.0570 H   0  0  0  0  0  0  0  0  0  0  0  0
   41.4510   30.9490   38.6430 Cl  0  0  0  0  0  0  0  0  0  0  0  0
   40.1780   32.0580   38.2550 C   0  0  0  0  0  0  0  0  0  0  0  0
   40.1400   33.4030   38.6360 C   0  0  0  0  0  0  0  0  0  0  0  0
   39.0940   34.2360   38.2920 C   0  0  0  0  0  0  0  0  0  0  0  0
   39.1560   35.2520   38.6320 H   0  0  0  0  0  0  0  0  0  0  0  0
   38.0360   33.7180   37.5360 C   0  0  0  0  0  0  0  0  0  0  0  0
   37.2210   34.3790   37.2730 H   0  0  0  0  0  0  0  0  0  0  0  0
   38.0890   32.3880   37.1690 C   0  0  0  0  0  0  0  0  0  0  0  0
   37.2690   31.9600   36.5750 H   0  0  0  0  0  0  0  0  0  0  0  0
   39.1250   31.5360   37.5010 C   0  0  0  0  0  0  0  0  0  0  0  0
   39.1080   29.8500   36.9860 Cl  0  0  0  0  0  0  0  0  0  0  0  0
   47.6840   32.9210   43.9160 C   0  0  1  0  0  0  0  0  0  0  0  0
   47.0340   33.0460   42.5830 C   0  0  2  0  0  0  0  0  0  0  0  0
   47.5170   34.2300   43.2560 C   0  0  0  0  0  0  0  0  0  0  0  0
   48.6740   32.4160   43.8880 H   0  0  0  0  0  0  0  0  0  0  0  0
   47.6270   32.6620   41.6990 H   0  0  0  0  0  0  0  0  0  0  0  0
   48.4570   34.7090   42.8510 H   0  0  0  0  0  0  0  0  0  0  0  0
   46.8240   34.9980   43.6270 H   0  0  0  0  0  0  0  0  0  0  0  0
   46.9270   31.2310   45.5680 C   0  0  0  0  0  0  0  0  0  0  0  0
   46.9210   32.5540   45.1320 C   0  0  0  0  0  0  0  0  0  0  0  0
   46.2110   33.4680   45.8710 C   0  0  0  0  0  0  0  0  0  0  0  0
   45.5620   33.0210   46.9780 N   0  0  0  0  0  0  0  0  0  0  0  0
   45.5780   31.7590   47.3800 C   0  0  0  0  0  0  0  0  0  0  0  0
   46.2690   30.8560   46.6640 N   0  0  0  0  0  0  0  0  0  0  0  0
   47.4690   30.4390   45.0350 H   0  0  0  0  0  0  0  0  0  0  0  0
   46.2020   34.4960   45.5390 H   0  0  0  0  0  0  0  0  0  0  0  0
   44.9850   31.6560   48.2890 H   0  0  0  0  0  0  0  0  0  0  0  0
  1  2  1  0  0  0  0
  1 30  1  0  0  0  0
  3  2  2  0  0  0  0
  4  5  1  0  0  0  0
  4  3  1  0  0  0  0
  5  1  2  0  0  0  0
  6  3  1  0  0  0  0
  8  9  1  0  0  0  0
  8  7  2  0  0  0  0
  9  4  1  0  0  0  0
  9 13  1  1  0  0  0
 10 15  1  0  0  0  0
 10  9  1  0  0  0  0
 11 12  1  0  0  0  0
 11 10  1  0  0  0  0
 12  8  1  0  0  0  0
 14 10  1  0  0  0  0
 16 11  1  0  0  0  0
 17 11  1  0  0  0  0
 19 20  1  0  0  0  0
 19 18  1  0  0  0  0
 20 12  1  0  0  0  0
 21 22  1  0  0  0  0
 21 20  2  0  0  0  0
 23 21  1  0  0  0  0
 24 23  1  0  0  0  0
 25 27  1  0  0  0  0
 25 23  2  0  0  0  0
 26 25  1  0  0  0  0
 27 19  2  0  0  0  0
 28 27  1  0  0  0  0
 29 32  1  6  0  0  0
 29 37  1  0  0  0  0
 30 33  1  6  0  0  0
 30 31  1  0  0  0  0
 30 29  1  0  0  0  0
 31 35  1  0  0  0  0
 31 29  1  0  0  0  0
 34 31  1  0  0  0  0
 36 41  1  0  0  0  0
 37 36  2  0  0  0  0
 37 38  1  0  0  0  0
 38 39  2  0  0  0  0
 39 40  1  0  0  0  0
 40 44  1  0  0  0  0
 41 40  2  0  0  0  0
 42 36  1  0  0  0  0
 43 38  1  0  0  0  0
M  END
>  <minimizedAffinity>
-6.17378998

>  <minimizedRMSD>
1.68053889

$$$$
