
 OpenBabel03252507493D

 47 49  0  0  0  0  0  0  0  0999 V2000
   46.7580   35.0190   41.9800 C   0  0  0  0  0  0  0  0  0  0  0  0
   46.9050   36.0980   42.1230 H   0  0  0  0  0  0  0  0  0  0  0  0
   47.2210   34.5450   42.8910 H   0  0  0  0  0  0  0  0  0  0  0  0
   45.3260   34.6650   42.0010 C   0  0  0  0  0  0  0  0  0  0  0  0
   44.3350   35.6840   41.8970 C   0  0  0  0  0  0  0  0  0  0  0  0
   42.7630   34.7680   41.9690 S   0  0  0  0  0  0  0  0  0  0  0  0
   43.7140   33.1080   42.1350 C   0  0  0  0  0  0  0  0  0  0  0  0
   44.7920   33.4760   42.1090 N   0  0  0  0  0  0  0  0  0  0  0  0
   44.4690   36.7520   41.7960 H   0  0  0  0  0  0  0  0  0  0  0  0
   43.0800   31.8780   42.2460 O   0  0  0  0  0  0  0  0  0  0  0  0
   41.0880   30.2590   41.6500 O   0  0  0  0  0  0  0  0  0  0  0  0
   41.5720   31.7060   41.4590 P   0  0  1  0  0  0  0  0  0  0  0  0
   40.4840   32.7390   42.2430 O   0  0  0  0  0  0  0  0  0  0  0  0
   40.5740   33.6600   41.9550 H   0  0  0  0  0  0  0  0  0  0  0  0
   41.7240   32.1290   39.8490 O   0  0  0  0  0  0  0  0  0  0  0  0
   42.9500   34.6160   38.5610 Cl  0  0  0  0  0  0  0  0  0  0  0  0
   41.2660   34.1600   38.4260 C   0  0  0  0  0  0  0  0  0  0  0  0
   40.9770   32.9940   39.1030 C   0  0  0  0  0  0  0  0  0  0  0  0
   39.6510   32.5420   39.0570 C   0  0  0  0  0  0  0  0  0  0  0  0
   39.2290   31.6400   39.5290 H   0  0  0  0  0  0  0  0  0  0  0  0
   38.6660   33.2450   38.3550 C   0  0  0  0  0  0  0  0  0  0  0  0
   37.6340   32.9340   38.2930 H   0  0  0  0  0  0  0  0  0  0  0  0
   38.9870   34.4090   37.6890 C   0  0  0  0  0  0  0  0  0  0  0  0
   38.2630   34.9960   37.1270 H   0  0  0  0  0  0  0  0  0  0  0  0
   40.2920   34.8490   37.7370 C   0  0  0  0  0  0  0  0  0  0  0  0
   40.8460   36.3020   36.9430 Cl  0  0  0  0  0  0  0  0  0  0  0  0
   47.5160   34.4740   40.8050 C   0  0  0  0  0  0  0  0  0  0  0  0
   46.8180   33.8120   40.2580 H   0  0  0  0  0  0  0  0  0  0  0  0
   47.7480   35.3280   40.1200 H   0  0  0  0  0  0  0  0  0  0  0  0
   48.7660   33.8030   41.1600 C   0  0  0  0  0  0  0  0  0  0  0  0
   49.0930   32.6610   40.4410 C   0  0  0  0  0  0  0  0  0  0  0  0
   50.2520   31.9570   40.7010 C   0  0  0  0  0  0  0  0  0  0  0  0
   51.0610   32.4540   41.7140 N   0  0  0  0  0  0  0  0  0  0  0  0
   50.7010   33.5750   42.3920 C   0  0  0  0  0  0  0  0  0  0  0  0
   49.5750   34.2390   42.1210 N   0  0  0  0  0  0  0  0  0  0  0  0
   50.5280   31.0760   40.1640 H   0  0  0  0  0  0  0  0  0  0  0  0
   51.4130   33.8760   43.1690 H   0  0  0  0  0  0  0  0  0  0  0  0
   47.9970   32.0850   39.1510 S   0  0  0  0  0  0  0  0  0  0  0  0
   48.7930   32.2300   37.5420 C   0  0  0  0  0  0  0  0  0  0  0  0
   48.4590   31.3910   36.8730 H   0  0  0  0  0  0  0  0  0  0  0  0
   49.8980   32.0840   37.6860 H   0  0  0  0  0  0  0  0  0  0  0  0
   48.4700   33.5800   36.9590 C   0  0  0  0  0  0  0  0  0  0  0  0
   47.6500   34.0700   37.5050 H   0  0  0  0  0  0  0  0  0  0  0  0
   49.3550   34.2630   37.0300 H   0  0  0  0  0  0  0  0  0  0  0  0
   48.0400   33.4080   35.6080 N   0  0  0  0  0  0  0  0  0  0  0  0
   48.2570   32.4650   35.2650 H   0  0  0  0  0  0  0  0  0  0  0  0
   48.5410   34.0720   34.9460 H   0  0  0  0  0  0  0  0  0  0  0  0
  1  4  1  0  0  0  0
  1  2  1  0  0  0  0
  1  3  1  0  0  0  0
  4  8  1  0  0  0  0
  5  6  1  0  0  0  0
  5  4  2  0  0  0  0
  6  7  1  0  0  0  0
  7 10  1  0  0  0  0
  8  7  2  0  0  0  0
  9  5  1  0  0  0  0
 12 11  2  1  0  0  0
 12 13  1  0  0  0  0
 12 10  1  0  0  0  0
 14 13  1  0  0  0  0
 15 12  1  0  0  0  0
 17 16  1  0  0  0  0
 17 18  1  0  0  0  0
 18 15  1  0  0  0  0
 19 18  2  0  0  0  0
 19 20  1  0  0  0  0
 21 19  1  0  0  0  0
 22 21  1  0  0  0  0
 23 25  1  0  0  0  0
 23 21  2  0  0  0  0
 24 23  1  0  0  0  0
 25 17  2  0  0  0  0
 26 25  1  0  0  0  0
 27 30  1  0  0  0  0
 27  1  1  0  0  0  0
 28 27  1  0  0  0  0
 29 27  1  0  0  0  0
 30 35  1  0  0  0  0
 31 32  1  0  0  0  0
 31 30  2  0  0  0  0
 32 33  2  0  0  0  0
 33 34  1  0  0  0  0
 34 37  1  0  0  0  0
 35 34  2  0  0  0  0
 36 32  1  0  0  0  0
 38 31  1  0  0  0  0
 39 41  1  0  0  0  0
 39 38  1  0  0  0  0
 40 39  1  0  0  0  0
 42 44  1  0  0  0  0
 42 43  1  0  0  0  0
 42 39  1  0  0  0  0
 45 42  1  0  0  0  0
 46 45  1  0  0  0  0
 47 45  1  0  0  0  0
M  END
>  <minimizedAffinity>
-5.53569651

>  <minimizedRMSD>
3.14666677

$$$$
