
 OpenBabel03242510203D

 38 41  0  0  1  0  0  0  0  0999 V2000
   46.0180   32.9940   44.1600 N   0  0  0  0  0  0  0  0  0  0  0  0
   45.5980   34.0120   43.3210 C   0  0  0  0  0  0  0  0  0  0  0  0
   46.1710   35.0870   42.9950 O   0  0  0  0  0  0  0  0  0  0  0  0
   45.3000   32.6210   44.8410 H   0  0  0  0  0  0  0  0  0  0  0  0
   47.7010   31.5750   45.2940 C   0  0  1  0  0  0  0  0  0  0  0  0
   47.3890   30.9130   44.0810 C   0  0  0  0  0  0  0  0  0  0  0  0
   47.3360   32.4490   44.1410 C   0  0  1  0  0  0  0  0  0  0  0  0
   48.7320   31.6250   45.6960 H   0  0  0  0  0  0  0  0  0  0  0  0
   48.2450   30.4970   43.4860 H   0  0  0  0  0  0  0  0  0  0  0  0
   46.4490   30.4560   43.7740 H   0  0  0  0  0  0  0  0  0  0  0  0
   48.0270   32.8890   43.4150 H   0  0  0  0  0  0  0  0  0  0  0  0
   45.7380   30.4430   46.5500 C   0  0  0  0  0  0  0  0  0  0  0  0
   46.6870   31.4960   46.4370 C   0  0  0  0  0  0  0  0  0  0  0  0
   46.6710   32.4850   47.3920 C   0  0  0  0  0  0  0  0  0  0  0  0
   45.7570   32.4140   48.3910 N   0  0  0  0  0  0  0  0  0  0  0  0
   44.8580   31.4120   48.4940 C   0  0  0  0  0  0  0  0  0  0  0  0
   44.8530   30.3940   47.5370 N   0  0  0  0  0  0  0  0  0  0  0  0
   45.7750   29.6890   45.7960 H   0  0  0  0  0  0  0  0  0  0  0  0
   47.3680   33.3090   47.3560 H   0  0  0  0  0  0  0  0  0  0  0  0
   44.1720   31.4390   49.3180 H   0  0  0  0  0  0  0  0  0  0  0  0
   44.2450   33.9120   42.6260 C   0  0  2  0  0  0  0  0  0  0  0  0
   44.0960   32.7790   41.5680 C   0  0  0  0  0  0  0  0  0  0  0  0
   44.0820   34.2590   41.2210 C   0  0  1  0  0  0  0  0  0  0  0  0
   43.3600   33.8450   43.3050 H   0  0  0  0  0  0  0  0  0  0  0  0
   43.1420   32.2640   41.4810 H   0  0  0  0  0  0  0  0  0  0  0  0
   44.9670   32.1560   41.3890 H   0  0  0  0  0  0  0  0  0  0  0  0
   44.8370   34.4490   40.4830 H   0  0  0  0  0  0  0  0  0  0  0  0
   43.1600   33.9970   38.2650 Cl  0  0  0  0  0  0  0  0  0  0  0  0
   42.2350   34.7690   39.5220 C   0  0  0  0  0  0  0  0  0  0  0  0
   42.7550   34.8250   40.7930 C   0  0  0  0  0  0  0  0  0  0  0  0
   41.9340   35.4610   41.6970 C   0  0  0  0  0  0  0  0  0  0  0  0
   42.1870   35.5860   42.7280 H   0  0  0  0  0  0  0  0  0  0  0  0
   40.7010   35.9990   41.3920 C   0  0  0  0  0  0  0  0  0  0  0  0
   40.0580   36.4970   42.1040 H   0  0  0  0  0  0  0  0  0  0  0  0
   40.2330   35.9100   40.0980 C   0  0  0  0  0  0  0  0  0  0  0  0
   39.2830   36.3120   39.8090 H   0  0  0  0  0  0  0  0  0  0  0  0
   41.0140   35.2850   39.1520 C   0  0  0  0  0  0  0  0  0  0  0  0
   40.4300   35.1680   37.5140 Cl  0  0  0  0  0  0  0  0  0  0  0  0
  1  4  1  0  0  0  0
  2  1  1  0  0  0  0
  3  2  2  0  0  0  0
  5  8  1  1  0  0  0
  5 13  1  0  0  0  0
  6  7  1  0  0  0  0
  6  5  1  0  0  0  0
  7 11  1  6  0  0  0
  7  1  1  0  0  0  0
  7  5  1  0  0  0  0
  9  6  1  0  0  0  0
 10  6  1  0  0  0  0
 12 17  1  0  0  0  0
 13 12  2  0  0  0  0
 13 14  1  0  0  0  0
 14 15  2  0  0  0  0
 15 16  1  0  0  0  0
 16 20  1  0  0  0  0
 17 16  2  0  0  0  0
 18 12  1  0  0  0  0
 19 14  1  0  0  0  0
 21 24  1  1  0  0  0
 21  2  1  0  0  0  0
 22 21  1  0  0  0  0
 23 27  1  6  0  0  0
 23 22  1  0  0  0  0
 23 21  1  0  0  0  0
 25 22  1  0  0  0  0
 26 22  1  0  0  0  0
 28 29  1  0  0  0  0
 29 30  1  0  0  0  0
 30 23  1  0  0  0  0
 30 31  2  0  0  0  0
 31 32  1  0  0  0  0
 33 31  1  0  0  0  0
 33 34  1  0  0  0  0
 35 33  2  0  0  0  0
 36 35  1  0  0  0  0
 37 29  2  0  0  0  0
 37 35  1  0  0  0  0
 38 37  1  0  0  0  0
M  END
>  <minimizedAffinity>
-5.3955102

>  <minimizedRMSD>
4.82551146

$$$$
