
 OpenBabel03242518393D

 41 44  0  0  1  0  0  0  0  0999 V2000
   47.2970   34.7090   42.0840 C   0  0  0  0  0  0  0  0  0  0  0  0
   48.0930   35.5930   41.7160 O   0  0  0  0  0  0  0  0  0  0  0  0
   46.4540   34.7120   43.2360 C   0  0  0  0  0  0  0  0  0  0  0  0
   45.4930   35.6800   43.2720 C   0  0  0  0  0  0  0  0  0  0  0  0
   44.6370   35.7390   44.3680 C   0  0  0  0  0  0  0  0  0  0  0  0
   44.8000   34.8380   45.3390 N   0  0  0  0  0  0  0  0  0  0  0  0
   45.7420   33.8960   45.2970 C   0  0  0  0  0  0  0  0  0  0  0  0
   46.5520   33.8650   44.2270 N   0  0  0  0  0  0  0  0  0  0  0  0
   45.3520   36.4160   42.4900 H   0  0  0  0  0  0  0  0  0  0  0  0
   43.8670   36.4990   44.4160 H   0  0  0  0  0  0  0  0  0  0  0  0
   47.5000   31.6430   44.5430 Cl  0  0  0  0  0  0  0  0  0  0  0  0
   46.7200   31.8090   46.1180 C   0  0  0  0  0  0  0  0  0  0  0  0
   45.9080   32.9100   46.3770 C   0  0  0  0  0  0  0  0  0  0  0  0
   45.2640   33.1100   47.5800 C   0  0  0  0  0  0  0  0  0  0  0  0
   44.6410   33.9750   47.7460 H   0  0  0  0  0  0  0  0  0  0  0  0
   45.4420   32.1550   48.5870 C   0  0  0  0  0  0  0  0  0  0  0  0
   44.9540   32.2650   49.5620 H   0  0  0  0  0  0  0  0  0  0  0  0
   46.2390   31.0580   48.3590 C   0  0  0  0  0  0  0  0  0  0  0  0
   46.4230   30.2790   49.0870 H   0  0  0  0  0  0  0  0  0  0  0  0
   46.8730   30.8800   47.1420 C   0  0  0  0  0  0  0  0  0  0  0  0
   47.9140   29.5130   46.7450 Cl  0  0  0  0  0  0  0  0  0  0  0  0
   47.2130   33.5530   41.2590 O   0  0  0  0  0  0  0  0  0  0  0  0
   47.3640   33.7100   39.8580 C   0  0  0  0  0  0  0  0  0  0  0  0
   48.3420   34.3740   39.1030 C   0  0  0  0  0  0  0  0  0  0  0  0
   48.0350   34.2330   37.7580 C   0  0  0  0  0  0  0  0  0  0  0  0
   46.8950   33.4950   37.7650 C   0  0  0  0  0  0  0  0  0  0  0  0
   46.5030   33.1890   38.9910 O   0  0  0  0  0  0  0  0  0  0  0  0
   49.1590   34.8810   39.5930 H   0  0  0  0  0  0  0  0  0  0  0  0
   48.6200   34.6450   36.9530 H   0  0  0  0  0  0  0  0  0  0  0  0
   46.1670   33.0790   36.5440 C   0  0  2  0  0  0  0  0  0  0  0  0
   45.7910   31.6830   36.3340 C   0  0  0  0  0  0  0  0  0  0  0  0
   47.0040   32.1550   35.6170 C   0  0  1  0  0  0  0  0  0  0  0  0
   45.6590   33.9220   36.0300 H   0  0  0  0  0  0  0  0  0  0  0  0
   45.8880   30.9590   37.1810 H   0  0  0  0  0  0  0  0  0  0  0  0
   44.8710   31.4510   35.7380 H   0  0  0  0  0  0  0  0  0  0  0  0
   48.0120   31.9150   35.9450 H   0  0  0  0  0  0  0  0  0  0  0  0
   47.9540   32.5370   33.3500 C   0  0  0  0  0  0  0  0  0  0  0  0
   49.1380   32.3640   33.7600 O   0  0  0  0  0  0  0  0  0  0  0  0
   46.8210   32.4690   34.2020 N   0  0  0  0  0  0  0  0  0  0  0  0
   47.7920   32.7510   32.2890 H   0  0  0  0  0  0  0  0  0  0  0  0
   45.8580   32.6390   33.8350 H   0  0  0  0  0  0  0  0  0  0  0  0
  1  3  1  0  0  0  0
  2  1  2  0  0  0  0
  3  4  2  0  0  0  0
  3  8  1  0  0  0  0
  4  5  1  0  0  0  0
  5 10  1  0  0  0  0
  5  6  2  0  0  0  0
  7  6  1  0  0  0  0
  7 13  1  0  0  0  0
  8  7  2  0  0  0  0
  9  4  1  0  0  0  0
 11 12  1  0  0  0  0
 12 13  2  0  0  0  0
 12 20  1  0  0  0  0
 13 14  1  0  0  0  0
 14 15  1  0  0  0  0
 14 16  2  0  0  0  0
 16 17  1  0  0  0  0
 18 16  1  0  0  0  0
 18 19  1  0  0  0  0
 20 18  2  0  0  0  0
 21 20  1  0  0  0  0
 22  1  1  0  0  0  0
 23 22  1  0  0  0  0
 24 28  1  0  0  0  0
 24 23  2  0  0  0  0
 25 26  2  0  0  0  0
 25 24  1  0  0  0  0
 26 27  1  0  0  0  0
 27 23  1  0  0  0  0
 29 25  1  0  0  0  0
 30 33  1  6  0  0  0
 30 26  1  0  0  0  0
 31 30  1  0  0  0  0
 31 34  1  0  0  0  0
 32 36  1  1  0  0  0
 32 31  1  0  0  0  0
 32 30  1  0  0  0  0
 35 31  1  0  0  0  0
 37 38  2  0  0  0  0
 37 39  1  0  0  0  0
 39 32  1  0  0  0  0
 40 37  1  0  0  0  0
 41 39  1  0  0  0  0
M  END
>  <minimizedAffinity>
-6.42966938

>  <minimizedRMSD>
0.657984912

$$$$
