
 OpenBabel03252507333D

 51 54  0  0  1  0  0  0  0  0999 V2000
   46.9390   32.8210   45.4930 C   0  0  0  0  0  0  0  0  0  0  0  0
   45.8400   33.4930   46.0040 C   0  0  0  0  0  0  0  0  0  0  0  0
   45.1580   34.4350   45.1980 C   0  0  0  0  0  0  0  0  0  0  0  0
   45.6590   34.6240   43.9110 N   0  0  0  0  0  0  0  0  0  0  0  0
   46.7270   33.9430   43.4800 C   0  0  0  0  0  0  0  0  0  0  0  0
   47.3550   33.0580   44.2540 N   0  0  0  0  0  0  0  0  0  0  0  0
   45.3230   33.5320   46.9380 H   0  0  0  0  0  0  0  0  0  0  0  0
   44.3130   35.0320   45.4120 H   0  0  0  0  0  0  0  0  0  0  0  0
   47.5870   31.8470   46.3500 C   0  0  2  0  0  0  0  0  0  0  0  0
   47.3560   30.3940   45.8380 C   0  0  0  0  0  0  0  0  0  0  0  0
   48.1610   29.4450   46.6550 C   0  0  0  0  0  0  0  0  0  0  0  0
   48.1420   29.6670   48.1300 C   0  0  0  0  0  0  0  0  0  0  0  0
   48.1300   31.0540   48.5250 C   0  0  0  0  0  0  0  0  0  0  0  0
   47.1330   31.9200   47.7240 C   0  0  2  0  0  0  0  0  0  0  0  0
   48.6910   31.9600   46.2410 H   0  0  0  0  0  0  0  0  0  0  0  0
   46.2840   30.1640   45.7790 H   0  0  0  0  0  0  0  0  0  0  0  0
   47.7310   30.4230   44.7940 H   0  0  0  0  0  0  0  0  0  0  0  0
   47.7050   28.4250   46.4920 H   0  0  0  0  0  0  0  0  0  0  0  0
   49.1550   29.3760   46.1730 H   0  0  0  0  0  0  0  0  0  0  0  0
   47.7710   28.8640   48.7680 H   0  0  0  0  0  0  0  0  0  0  0  0
   49.2550   29.4200   48.3630 H   0  0  0  0  0  0  0  0  0  0  0  0
   49.0810   31.6360   48.4860 H   0  0  0  0  0  0  0  0  0  0  0  0
   47.8050   31.1510   49.5980 H   0  0  0  0  0  0  0  0  0  0  0  0
   47.2390   32.8820   48.2290 H   0  0  0  0  0  0  0  0  0  0  0  0
   45.7990   31.3290   47.8450 N   0  0  0  0  0  0  0  0  0  0  0  0
   45.1360   30.7340   48.9320 C   0  0  0  0  0  0  0  0  0  0  0  0
   44.6100   31.4120   49.8870 O   0  0  0  0  0  0  0  0  0  0  0  0
   45.0830   29.3070   48.8910 N   0  0  0  0  0  0  0  0  0  0  0  0
   45.1390   31.2240   46.9850 H   0  0  0  0  0  0  0  0  0  0  0  0
   44.5890   28.5630   48.3530 H   0  0  0  0  0  0  0  0  0  0  0  0
   45.3560   28.3370   49.2040 H   0  0  0  0  0  0  0  0  0  0  0  0
   47.2140   34.2060   42.1220 C   0  0  0  0  0  0  0  0  0  0  0  0
   48.2170   35.1220   41.8950 C   0  0  0  0  0  0  0  0  0  0  0  0
   48.7260   35.4200   40.6460 C   0  0  0  0  0  0  0  0  0  0  0  0
   48.1490   34.7200   39.6030 C   0  0  0  0  0  0  0  0  0  0  0  0
   47.1480   33.8040   39.8160 C   0  0  0  0  0  0  0  0  0  0  0  0
   46.6840   33.5500   41.0780 N   0  0  0  0  0  0  0  0  0  0  0  0
   48.6110   35.6230   42.7680 H   0  0  0  0  0  0  0  0  0  0  0  0
   49.5240   36.1580   40.5280 H   0  0  0  0  0  0  0  0  0  0  0  0
   48.5310   34.9370   38.6160 H   0  0  0  0  0  0  0  0  0  0  0  0
   45.6320   31.3550   40.6020 Cl  0  0  0  0  0  0  0  0  0  0  0  0
   45.8070   31.9150   38.9420 C   0  0  0  0  0  0  0  0  0  0  0  0
   46.5330   33.0620   38.7240 C   0  0  0  0  0  0  0  0  0  0  0  0
   46.6220   33.4330   37.3990 C   0  0  0  0  0  0  0  0  0  0  0  0
   47.1610   34.3040   37.1200 H   0  0  0  0  0  0  0  0  0  0  0  0
   46.0490   32.7440   36.3660 C   0  0  0  0  0  0  0  0  0  0  0  0
   46.1360   33.0610   35.3240 H   0  0  0  0  0  0  0  0  0  0  0  0
   45.3260   31.5950   36.6270 C   0  0  0  0  0  0  0  0  0  0  0  0
   44.8500   31.0050   35.8620 H   0  0  0  0  0  0  0  0  0  0  0  0
   45.2090   31.1840   37.9380 C   0  0  0  0  0  0  0  0  0  0  0  0
   44.2990   29.7250   38.3430 Cl  0  0  0  0  0  0  0  0  0  0  0  0
  1  2  1  0  0  0  0
  1  9  1  0  0  0  0
  2  7  1  0  0  0  0
  3  8  1  0  0  0  0
  3  2  2  0  0  0  0
  4  3  1  0  0  0  0
  5  4  2  0  0  0  0
  5  6  1  0  0  0  0
  6  1  2  0  0  0  0
  9 15  1  6  0  0  0
  9 14  1  0  0  0  0
 10  9  1  0  0  0  0
 10 11  1  0  0  0  0
 11 12  1  0  0  0  0
 12 21  1  0  0  0  0
 12 13  1  0  0  0  0
 12 20  1  0  0  0  0
 13 23  1  0  0  0  0
 14 25  1  0  0  0  0
 14 24  1  1  0  0  0
 14 13  1  0  0  0  0
 16 10  1  0  0  0  0
 17 10  1  0  0  0  0
 18 11  1  0  0  0  0
 19 11  1  0  0  0  0
 22 13  1  0  0  0  0
 25 26  1  0  0  0  0
 26 27  2  0  0  0  0
 28 26  1  0  0  0  0
 28 31  1  0  0  0  0
 29 25  1  0  0  0  0
 30 28  1  0  0  0  0
 32  5  1  0  0  0  0
 33 32  1  0  0  0  0
 33 38  1  0  0  0  0
 34 33  2  0  0  0  0
 35 36  2  0  0  0  0
 35 34  1  0  0  0  0
 36 37  1  0  0  0  0
 37 32  2  0  0  0  0
 39 34  1  0  0  0  0
 40 35  1  0  0  0  0
 42 41  1  0  0  0  0
 43 42  1  0  0  0  0
 43 36  1  0  0  0  0
 44 43  2  0  0  0  0
 45 44  1  0  0  0  0
 46 48  2  0  0  0  0
 46 44  1  0  0  0  0
 47 46  1  0  0  0  0
 48 50  1  0  0  0  0
 49 48  1  0  0  0  0
 50 51  1  0  0  0  0
 50 42  2  0  0  0  0
M  END
>  <minimizedAffinity>
-6.53151751

>  <minimizedRMSD>
0.143162161

$$$$
