
 OpenBabel03252505043D

 36 38  0  0  1  0  0  0  0  0999 V2000
   45.1320   35.0700   44.1610 C   0  0  0  0  0  0  0  0  0  0  0  0
   45.6990   34.5440   42.9960 C   0  0  0  0  0  0  0  0  0  0  0  0
   46.5210   33.4320   43.0920 C   0  0  0  0  0  0  0  0  0  0  0  0
   46.7110   32.9360   44.3440 N   0  0  0  0  0  0  0  0  0  0  0  0
   46.1660   33.4440   45.4490 C   0  0  0  0  0  0  0  0  0  0  0  0
   45.3600   34.5320   45.3620 N   0  0  0  0  0  0  0  0  0  0  0  0
   44.4990   35.9410   44.0170 H   0  0  0  0  0  0  0  0  0  0  0  0
   45.5230   34.9800   42.0620 H   0  0  0  0  0  0  0  0  0  0  0  0
   46.4630   32.8160   46.7600 C   0  0  2  0  0  0  0  0  0  0  0  0
   47.1340   31.5220   46.4820 C   0  0  0  0  0  0  0  0  0  0  0  0
   46.2990   30.3230   46.6780 C   0  0  0  0  0  0  0  0  0  0  0  0
   45.7990   30.3840   48.1070 C   0  0  0  0  0  0  0  0  0  0  0  0
   44.8910   31.5170   48.3200 C   0  0  0  0  0  0  0  0  0  0  0  0
   45.2700   32.7820   47.5930 C   0  0  0  0  0  0  0  0  0  0  0  0
   47.1970   33.5220   47.2500 H   0  0  0  0  0  0  0  0  0  0  0  0
   48.0190   31.4310   47.1510 H   0  0  0  0  0  0  0  0  0  0  0  0
   47.5890   31.5060   45.4490 H   0  0  0  0  0  0  0  0  0  0  0  0
   45.4150   30.3590   46.0070 H   0  0  0  0  0  0  0  0  0  0  0  0
   46.8910   29.4190   46.5220 H   0  0  0  0  0  0  0  0  0  0  0  0
   45.1520   29.4850   48.2180 H   0  0  0  0  0  0  0  0  0  0  0  0
   46.6320   30.2880   48.7980 H   0  0  0  0  0  0  0  0  0  0  0  0
   44.0070   31.6230   48.8910 H   0  0  0  0  0  0  0  0  0  0  0  0
   44.4670   33.9540   47.7110 N   0  0  0  0  0  0  0  0  0  0  0  0
   44.7450   34.7470   48.3340 H   0  0  0  0  0  0  0  0  0  0  0  0
   43.6080   34.4260   47.4060 H   0  0  0  0  0  0  0  0  0  0  0  0
   49.6550   33.5770   42.7700 Cl  0  0  0  0  0  0  0  0  0  0  0  0
   48.5580   32.6980   41.7750 C   0  0  0  0  0  0  0  0  0  0  0  0
   47.2210   32.7320   42.0360 C   0  0  0  0  0  0  0  0  0  0  0  0
   46.4810   31.9970   41.1360 C   0  0  0  0  0  0  0  0  0  0  0  0
   45.3990   31.9120   41.1900 H   0  0  0  0  0  0  0  0  0  0  0  0
   47.0200   31.2970   40.0810 C   0  0  0  0  0  0  0  0  0  0  0  0
   46.4150   30.7360   39.4020 H   0  0  0  0  0  0  0  0  0  0  0  0
   48.3740   31.2950   39.8650 C   0  0  0  0  0  0  0  0  0  0  0  0
   48.7860   30.7420   39.0340 H   0  0  0  0  0  0  0  0  0  0  0  0
   49.1460   32.0180   40.7420 C   0  0  0  0  0  0  0  0  0  0  0  0
   50.8730   32.0180   40.4700 Cl  0  0  0  0  0  0  0  0  0  0  0  0
  1  6  1  0  0  0  0
  2  3  1  0  0  0  0
  2  1  2  0  0  0  0
  3  4  2  0  0  0  0
  4  5  1  0  0  0  0
  5  9  1  0  0  0  0
  6  5  2  0  0  0  0
  7  1  1  0  0  0  0
  8  2  1  0  0  0  0
  9 15  1  1  0  0  0
  9 14  1  0  0  0  0
 10 11  1  0  0  0  0
 10  9  1  0  0  0  0
 10 16  1  0  0  0  0
 11 12  1  0  0  0  0
 12 20  1  0  0  0  0
 12 13  1  0  0  0  0
 12 21  1  0  0  0  0
 13 22  1  0  0  0  0
 14 23  1  0  0  0  0
 14 13  2  0  0  0  0
 17 10  1  0  0  0  0
 18 11  1  0  0  0  0
 19 11  1  0  0  0  0
 23 24  1  0  0  0  0
 25 23  1  0  0  0  0
 27 28  1  0  0  0  0
 27 26  1  0  0  0  0
 28  3  1  0  0  0  0
 29 30  1  0  0  0  0
 29 28  2  0  0  0  0
 31 29  1  0  0  0  0
 32 31  1  0  0  0  0
 33 31  2  0  0  0  0
 33 35  1  0  0  0  0
 34 33  1  0  0  0  0
 35 27  2  0  0  0  0
 36 35  1  0  0  0  0
M  END
>  <minimizedAffinity>
-5.75880384

>  <minimizedRMSD>
1.15793788

$$$$
