
 OpenBabel03252508543D

 45 49  0  0  1  0  0  0  0  0999 V2000
   42.9280   34.2190   40.4890 C   0  0  0  0  0  0  0  0  0  0  0  0
   42.9070   35.2690   39.7630 O   0  0  0  0  0  0  0  0  0  0  0  0
   41.5700   33.7490   40.2890 N   0  0  0  0  0  0  0  0  0  0  0  0
   41.2350   33.4370   38.9150 C   0  0  0  0  0  0  0  0  0  0  0  0
   40.4600   34.6720   38.4070 C   0  0  0  0  0  0  0  0  0  0  0  0
   39.6370   35.1830   39.6000 C   0  0  0  0  0  0  0  0  0  0  0  0
   39.2520   34.0460   40.5190 C   0  0  0  0  0  0  0  0  0  0  0  0
   40.5100   33.5500   41.2530 C   0  0  1  0  0  0  0  0  0  0  0  0
   42.1100   33.3420   38.2510 H   0  0  0  0  0  0  0  0  0  0  0  0
   40.6100   32.5360   38.8020 H   0  0  0  0  0  0  0  0  0  0  0  0
   41.1910   35.4800   38.1760 H   0  0  0  0  0  0  0  0  0  0  0  0
   39.8520   34.4520   37.5300 H   0  0  0  0  0  0  0  0  0  0  0  0
   38.6890   35.5690   39.1710 H   0  0  0  0  0  0  0  0  0  0  0  0
   40.1820   35.9400   40.1890 H   0  0  0  0  0  0  0  0  0  0  0  0
   38.9040   33.2190   39.8510 H   0  0  0  0  0  0  0  0  0  0  0  0
   38.5030   34.4220   41.2130 H   0  0  0  0  0  0  0  0  0  0  0  0
   40.7340   34.1700   42.1270 H   0  0  0  0  0  0  0  0  0  0  0  0
   39.2180   31.3770   41.4180 C   0  0  0  0  0  3  0  0  0  0  0  0
   40.3380   32.1380   41.6700 C   0  0  0  0  0  0  0  0  0  0  0  0
   41.3830   31.5460   42.3600 C   0  0  0  0  0  0  0  0  0  0  0  0
   42.3220   32.0570   42.6160 H   0  0  0  0  0  0  0  0  0  0  0  0
   41.3180   30.2350   42.7910 C   0  0  0  0  0  0  0  0  0  0  0  0
   40.1740   29.4800   42.5270 C   0  0  0  0  0  0  0  0  0  0  0  0
   39.1270   30.0530   41.8420 C   0  0  0  0  0  3  0  0  0  0  0  0
   40.3680   28.1970   43.0670 O   0  0  0  0  0  0  0  0  0  0  0  0
   41.7920   28.0290   43.0890 C   0  0  0  0  0  3  0  0  0  0  0  0
   42.1190   27.2590   43.7870 H   0  0  0  0  0  0  0  0  0  0  0  0
   42.1650   29.3560   43.4910 O   0  0  0  0  0  0  0  0  0  0  0  0
   43.9810   33.7530   41.2120 O   0  0  0  0  0  0  0  0  0  0  0  0
   45.3190   33.9320   40.9590 C   0  0  0  0  0  0  0  0  0  0  0  0
   46.0930   34.5250   41.9550 C   0  0  0  0  0  0  0  0  0  0  0  0
   47.4570   34.6970   41.6730 C   0  0  0  0  0  0  0  0  0  0  0  0
   47.9360   34.2800   40.4580 N   0  0  0  0  0  0  0  0  0  0  0  0
   47.1440   33.7200   39.5470 C   0  0  0  0  0  0  0  0  0  0  0  0
   45.8380   33.5410   39.7840 N   0  0  0  0  0  0  0  0  0  0  0  0
   48.0580   35.1560   42.4430 H   0  0  0  0  0  0  0  0  0  0  0  0
   47.5440   33.3940   38.5850 H   0  0  0  0  0  0  0  0  0  0  0  0
   45.4860   34.9300   43.2050 C   0  0  0  0  0  0  0  0  0  0  0  0
   45.0120   36.2240   43.4280 C   0  0  0  0  0  0  0  0  0  0  0  0
   44.5300   36.1720   44.7090 C   0  0  0  0  0  0  0  0  0  0  0  0
   44.6930   34.9350   45.2400 N   0  0  0  0  0  0  0  0  0  0  0  0
   45.2720   34.2150   44.3050 N   0  0  0  0  0  0  0  0  0  0  0  0
   45.0390   37.0470   42.7280 H   0  0  0  0  0  0  0  0  0  0  0  0
   44.0780   37.0380   45.2020 H   0  0  0  0  0  0  0  0  0  0  0  0
   44.3800   34.7080   46.2180 H   0  0  0  0  0  0  0  0  0  0  0  0
  1 29  1  0  0  0  0
  2  1  2  0  0  0  0
  3  1  1  0  0  0  0
  3  8  1  0  0  0  0
  4  3  1  0  0  0  0
  5  4  1  0  0  0  0
  5  6  1  0  0  0  0
  6 14  1  0  0  0  0
  6  7  1  0  0  0  0
  7 16  1  0  0  0  0
  7  8  1  0  0  0  0
  8 19  1  0  0  0  0
  8 17  1  1  0  0  0
  9  4  1  0  0  0  0
 10  4  1  0  0  0  0
 11  5  1  0  0  0  0
 12  5  1  0  0  0  0
 13  6  1  0  0  0  0
 15  7  1  0  0  0  0
 18 19  2  0  0  0  0
 18 24  1  0  0  0  0
 19 20  1  0  0  0  0
 20 21  1  0  0  0  0
 20 22  2  0  0  0  0
 22 28  1  0  0  0  0
 23 22  1  0  0  0  0
 23 25  1  0  0  0  0
 24 23  2  0  0  0  0
 25 26  1  0  0  0  0
 26 28  1  0  0  0  0
 26 27  1  0  0  0  0
 30 29  1  0  0  0  0
 30 31  1  0  0  0  0
 31 38  1  0  0  0  0
 32 31  2  0  0  0  0
 32 36  1  0  0  0  0
 33 32  1  0  0  0  0
 34 35  1  0  0  0  0
 34 33  2  0  0  0  0
 35 30  2  0  0  0  0
 37 34  1  0  0  0  0
 38 39  1  0  0  0  0
 38 42  2  0  0  0  0
 39 40  2  0  0  0  0
 40 44  1  0  0  0  0
 40 41  1  0  0  0  0
 41 45  1  0  0  0  0
 42 41  1  0  0  0  0
 43 39  1  0  0  0  0
M  END
>  <minimizedAffinity>
-7.01793337

>  <minimizedRMSD>
1.7482729

$$$$
