
 OpenBabel03242510113D

 44 48  0  0  1  0  0  0  0  0999 V2000
   46.8600   33.0240   38.7430 N   0  0  0  0  0  0  0  0  0  0  0  0
   45.9910   33.3570   37.6110 C   0  0  0  0  0  0  0  0  0  0  0  0
   45.1860   32.1760   37.1520 C   0  0  0  0  0  0  0  0  0  0  0  0
   46.0220   31.1260   36.6330 N   0  0  0  0  0  0  0  0  0  0  0  0
   47.3890   31.3210   37.1400 C   0  0  0  0  0  0  0  0  0  0  0  0
   47.3480   31.6660   38.6100 C   0  0  1  0  0  0  0  0  0  0  0  0
   46.6340   33.6640   36.7570 H   0  0  0  0  0  0  0  0  0  0  0  0
   45.3290   34.1740   37.9180 H   0  0  0  0  0  0  0  0  0  0  0  0
   44.3870   32.4970   36.4890 H   0  0  0  0  0  0  0  0  0  0  0  0
   44.7160   31.7440   38.0860 H   0  0  0  0  0  0  0  0  0  0  0  0
   45.9990   31.1870   35.6100 H   0  0  0  0  0  0  0  0  0  0  0  0
   47.9630   32.0050   36.5160 H   0  0  0  0  0  0  0  0  0  0  0  0
   47.8350   30.2880   37.0870 H   0  0  0  0  0  0  0  0  0  0  0  0
   46.5230   31.0210   39.0280 H   0  0  0  0  0  0  0  0  0  0  0  0
   48.8150   31.0200   40.5990 C   0  0  0  0  0  0  0  0  0  0  0  0
   48.6130   31.3840   39.2920 C   0  0  0  0  0  0  0  0  0  0  0  0
   49.7870   31.5090   38.5730 C   0  0  0  0  0  0  0  0  0  0  0  0
   49.8870   31.7870   37.5360 H   0  0  0  0  0  0  0  0  0  0  0  0
   51.0630   31.2910   39.1080 C   0  0  0  0  0  0  0  0  0  0  0  0
   51.1710   30.9230   40.4540 C   0  0  0  0  0  0  0  0  0  0  0  0
   50.0330   30.7890   41.1960 C   0  0  0  0  0  0  0  0  0  0  0  0
   52.4900   30.7420   40.8420 O   0  0  0  0  0  0  0  0  0  0  0  0
   53.2660   31.2060   39.7540 C   0  0  0  0  0  0  0  0  0  0  0  0
   53.7100   32.1720   40.0580 H   0  0  0  0  0  0  0  0  0  0  0  0
   52.3730   31.3340   38.6640 O   0  0  0  0  0  0  0  0  0  0  0  0
   44.9670   32.8850   41.2250 Br  0  0  0  0  0  0  0  0  0  0  0  0
   46.5190   33.9520   41.0030 C   0  0  0  0  0  0  0  0  0  0  0  0
   46.9450   34.7910   42.0020 C   0  0  0  0  0  0  0  0  0  0  0  0
   48.1060   35.5870   41.8450 C   0  0  0  0  0  0  0  0  0  0  0  0
   48.7890   35.4960   40.6730 C   0  0  0  0  0  0  0  0  0  0  0  0
   48.3290   34.6410   39.6930 C   0  0  0  0  0  0  0  0  0  0  0  0
   47.2100   33.8620   39.8240 C   0  0  0  0  0  0  0  0  0  0  0  0
   48.3430   36.2090   42.6990 H   0  0  0  0  0  0  0  0  0  0  0  0
   49.6690   36.1180   40.5880 H   0  0  0  0  0  0  0  0  0  0  0  0
   48.9140   34.6090   38.7770 H   0  0  0  0  0  0  0  0  0  0  0  0
   45.7540   33.9420   45.3540 C   0  0  0  0  0  0  0  0  0  0  0  0
   44.7630   34.9100   45.6110 C   0  0  0  0  0  0  0  0  0  0  0  0
   44.5270   35.8530   44.5980 C   0  0  0  0  0  0  0  0  0  0  0  0
   45.2380   35.7920   43.4520 N   0  0  0  0  0  0  0  0  0  0  0  0
   46.1850   34.8450   43.2390 C   0  0  0  0  0  0  0  0  0  0  0  0
   46.4240   33.9260   44.2130 N   0  0  0  0  0  0  0  0  0  0  0  0
   45.8750   33.2580   46.1780 H   0  0  0  0  0  0  0  0  0  0  0  0
   44.1530   35.0340   46.4850 H   0  0  0  0  0  0  0  0  0  0  0  0
   43.7920   36.6440   44.6790 H   0  0  0  0  0  0  0  0  0  0  0  0
  1 32  1  0  0  0  0
  2  8  1  0  0  0  0
  2  1  1  0  0  0  0
  3  2  1  0  0  0  0
  3 10  1  0  0  0  0
  4  5  1  0  0  0  0
  4  3  1  0  0  0  0
  5  6  1  0  0  0  0
  6  1  1  0  0  0  0
  6 14  1  1  0  0  0
  6 16  1  0  0  0  0
  7  2  1  0  0  0  0
  9  3  1  0  0  0  0
 11  4  1  0  0  0  0
 12  5  1  0  0  0  0
 13  5  1  0  0  0  0
 15 21  1  0  0  0  0
 16 15  2  0  0  0  0
 17 19  2  0  0  0  0
 17 16  1  0  0  0  0
 18 17  1  0  0  0  0
 19 20  1  0  0  0  0
 20 22  1  0  0  0  0
 20 21  2  0  0  0  0
 23 24  1  0  0  0  0
 23 22  1  0  0  0  0
 25 19  1  0  0  0  0
 25 23  1  0  0  0  0
 27 26  1  0  0  0  0
 27 28  1  0  0  0  0
 28 40  1  0  0  0  0
 29 28  2  0  0  0  0
 29 33  1  0  0  0  0
 30 29  1  0  0  0  0
 31 32  1  0  0  0  0
 31 30  2  0  0  0  0
 32 27  2  0  0  0  0
 34 30  1  0  0  0  0
 35 31  1  0  0  0  0
 36 37  1  0  0  0  0
 36 42  1  0  0  0  0
 37 43  1  0  0  0  0
 38 44  1  0  0  0  0
 38 37  2  0  0  0  0
 39 38  1  0  0  0  0
 40 39  2  0  0  0  0
 40 41  1  0  0  0  0
 41 36  2  0  0  0  0
M  END
>  <minimizedAffinity>
-6.28192568

>  <minimizedRMSD>
0.539115429

$$$$
