
     RDKit          3D

 32 35  0  0  0  0  0  0  0  0999 V2000
   44.6230   35.4597   45.1322 C   0  0  0  0  0  0  0  0  0  0  0  0
   45.0961   35.7159   43.7994 C   0  0  0  0  0  0  0  0  0  0  0  0
   46.0423   34.8288   43.3570 C   0  0  0  0  0  0  0  0  0  0  0  0
   46.4917   33.7835   44.1456 N   0  0  0  0  0  0  0  0  0  0  0  0
   46.0129   33.5984   45.3780 C   0  0  0  0  0  0  0  0  0  0  0  0
   45.0795   34.4290   45.8799 N   0  0  0  0  0  0  0  0  0  0  0  0
   46.5410   34.9756   41.9395 C   0  0  1  0  0  0  0  0  0  0  0  0
   48.0673   35.2689   41.9437 C   0  0  0  0  0  0  0  0  0  0  0  0
   47.3822   33.9733   41.3926 C   0  0  2  0  0  0  0  0  0  0  0  0
   44.6469   36.8079   43.0202 N   0  0  0  0  0  0  0  0  0  0  0  0
   43.8780   36.1280   45.5252 H   0  0  0  0  0  0  0  0  0  0  0  0
   46.4709   32.7395   45.8517 H   0  0  0  0  0  0  0  0  0  0  0  0
   45.9636   35.7124   41.3505 H   0  0  0  0  0  0  0  0  0  0  0  0
   48.6382   35.1050   42.8541 H   0  0  0  0  0  0  0  0  0  0  0  0
   48.4306   35.9662   41.1656 H   0  0  0  0  0  0  0  0  0  0  0  0
   47.5576   33.0466   41.9787 H   0  0  0  0  0  0  0  0  0  0  0  0
   45.3125   37.6007   42.8088 H   0  0  0  0  0  0  0  0  0  0  0  0
   43.6662   36.8612   42.6396 H   0  0  0  0  0  0  0  0  0  0  0  0
   47.3278   34.8074   38.9946 C   0  0  0  0  0  0  0  0  0  0  0  0
   47.5041   33.7940   39.9130 C   0  0  0  0  0  0  0  0  0  0  0  0
   47.8142   32.5435   39.3699 C   0  0  0  0  0  0  0  0  0  0  0  0
   47.9584   31.7260   40.0752 H   0  0  0  0  0  0  0  0  0  0  0  0
   47.9463   32.2841   38.0302 C   0  0  0  0  0  0  0  0  0  0  0  0
   47.7616   33.3266   37.1451 C   0  0  0  0  0  0  0  0  0  0  0  0
   47.4502   34.5960   37.6345 C   0  0  0  0  0  0  0  0  0  0  0  0
   47.9501   32.7958   35.8846 O   0  0  0  0  0  0  0  0  0  0  0  0
   48.4392   31.4750   35.9796 C   0  0  1  0  0  0  0  0  0  0  0  0
   47.8474   30.8391   35.2964 H   0  0  0  0  0  0  0  0  0  0  0  0
   48.2444   31.1266   37.3281 O   0  0  0  0  0  0  0  0  0  0  0  0
   47.0896   35.7776   39.3715 H   0  0  0  0  0  0  0  0  0  0  0  0
   47.3064   35.4119   36.9274 H   0  0  0  0  0  0  0  0  0  0  0  0
   49.5123   31.4031   35.6962 H   0  0  0  0  0  0  0  0  0  0  0  0
  1  6  2  0
  2  1  1  0
  3  2  2  0
  3  4  1  0
  4  5  2  0
  5  6  1  0
  7  3  1  0
  8  7  1  0
  9  8  1  0
  9  7  1  0
 10  2  1  0
  1 11  1  0
  5 12  1  0
  7 13  1  6
  8 14  1  0
  8 15  1  0
  9 16  1  1
 10 17  1  0
 10 18  1  0
 19 20  2  0
 20 21  1  0
 21 22  1  0
 21 23  2  0
 23 24  1  0
 24 25  2  0
 24 26  1  0
 26 27  1  0
 27 28  1  6
 27 29  1  0
 25 19  1  0
 29 23  1  0
 19 30  1  0
 25 31  1  0
 27 32  1  0
  9 20  1  0
M  ISO  8  11  14  12  14  13  13  14  13  15  13  16  13  22  16  28   8
M  END
>  <DihAtoms>  (1) 
7,8,19,18

>  <DihDeg>  (1) 
-43.383651417771745

$$$$
