
 OpenBabel03242519593D

 30 33  0  0  0  0  0  0  0  0999 V2000
   38.2990   27.9970   39.1680 Br  0  0  0  0  0  0  0  0  0  0  0  0
   37.7860   27.7670   41.0040 C   0  0  0  0  0  0  0  0  0  0  0  0
   37.5290   26.5260   41.5630 C   0  0  0  0  0  0  0  0  0  0  0  0
   37.1760   26.4730   42.8900 C   0  0  0  0  0  0  0  0  0  0  0  0
   37.0690   27.5990   43.6800 C   0  0  0  0  0  0  0  0  0  0  0  0
   37.3240   28.8460   43.1270 C   0  0  0  0  0  0  0  0  0  0  0  0
   37.6800   28.8970   41.7870 C   0  0  0  0  0  0  0  0  0  0  0  0
   36.9900   25.4720   43.2630 H   0  0  0  0  0  0  0  0  0  0  0  0
   36.7870   27.4740   44.7120 H   0  0  0  0  0  0  0  0  0  0  0  0
   37.2330   29.6930   43.7610 H   0  0  0  0  0  0  0  0  0  0  0  0
   36.8570   30.9550   40.7340 C   0  0  0  0  0  3  0  0  0  0  0  0
   37.9250   30.2560   41.3090 C   0  0  0  0  0  0  0  0  0  0  0  0
   39.1120   30.9580   41.3560 C   0  0  0  0  0  0  0  0  0  0  0  0
   39.9430   30.4270   41.7990 H   0  0  0  0  0  0  0  0  0  0  0  0
   39.2030   32.2370   40.8680 C   0  0  0  0  0  0  0  0  0  0  0  0
   38.1450   32.8940   40.3110 C   0  0  0  0  0  0  0  0  0  0  0  0
   36.9500   32.2420   40.2430 C   0  0  0  0  0  3  0  0  0  0  0  0
   38.5290   34.1660   39.9070 O   0  0  0  0  0  0  0  0  0  0  0  0
   39.9300   34.2660   40.1470 C   0  0  0  0  0  3  0  0  0  0  0  0
   40.5040   34.4370   39.2170 H   0  0  0  0  0  0  0  0  0  0  0  0
   40.3050   33.0980   40.8270 O   0  0  0  0  0  0  0  0  0  0  0  0
   36.7160   23.7450   39.1200 C   0  0  0  0  0  0  0  0  0  0  0  0
   36.5750   24.8600   39.9560 C   0  0  0  0  0  0  0  0  0  0  0  0
   37.6550   25.3730   40.6910 C   0  0  0  0  0  0  0  0  0  0  0  0
   38.8220   24.7070   40.5240 N   0  0  0  0  0  0  0  0  0  0  0  0
   38.9480   23.6360   39.7190 C   0  0  0  0  0  0  0  0  0  0  0  0
   37.9100   23.1580   39.0230 N   0  0  0  0  0  0  0  0  0  0  0  0
   35.8490   23.3820   38.5680 H   0  0  0  0  0  0  0  0  0  0  0  0
   35.6180   25.3540   40.0520 H   0  0  0  0  0  0  0  0  0  0  0  0
   39.9650   23.2440   39.7220 H   0  0  0  0  0  0  0  0  0  0  0  0
  1  2  1  0  0  0  0
  2  3  2  0  0  0  0
  2  7  1  0  0  0  0
  3  4  1  0  0  0  0
  4  8  1  0  0  0  0
  4  5  2  0  0  0  0
  5  9  1  0  0  0  0
  6  5  1  0  0  0  0
  6 10  1  0  0  0  0
  7  6  2  0  0  0  0
 11 12  1  0  0  0  0
 12 13  2  0  0  0  0
 12  7  1  0  0  0  0
 13 14  1  0  0  0  0
 15 13  1  0  0  0  0
 16 15  2  0  0  0  0
 17 16  1  0  0  0  0
 17 11  2  0  0  0  0
 18 19  1  0  0  0  0
 18 16  1  0  0  0  0
 19 21  1  0  0  0  0
 20 19  1  0  0  0  0
 21 15  1  0  0  0  0
 22 23  1  0  0  0  0
 23 29  1  0  0  0  0
 23 24  2  0  0  0  0
 24  3  1  0  0  0  0
 25 24  1  0  0  0  0
 26 30  1  0  0  0  0
 26 25  2  0  0  0  0
 27 22  2  0  0  0  0
 27 26  1  0  0  0  0
 28 22  1  0  0  0  0
M  END
>  <minimizedAffinity>
-5.75093126

$$$$

 OpenBabel03242519593D

 30 33  0  0  0  0  0  0  0  0999 V2000
   39.2960   27.3040   39.8220 Br  0  0  0  0  0  0  0  0  0  0  0  0
   38.1840   27.3870   41.3860 C   0  0  0  0  0  0  0  0  0  0  0  0
   37.3830   26.3340   41.7950 C   0  0  0  0  0  0  0  0  0  0  0  0
   36.6320   26.4960   42.9340 C   0  0  0  0  0  0  0  0  0  0  0  0
   36.6450   27.6570   43.6790 C   0  0  0  0  0  0  0  0  0  0  0  0
   37.4440   28.7170   43.2750 C   0  0  0  0  0  0  0  0  0  0  0  0
   38.2020   28.5520   42.1240 C   0  0  0  0  0  0  0  0  0  0  0  0
   36.0290   25.6340   43.1980 H   0  0  0  0  0  0  0  0  0  0  0  0
   36.0280   27.7060   44.5600 H   0  0  0  0  0  0  0  0  0  0  0  0
   37.4320   29.5970   43.8690 H   0  0  0  0  0  0  0  0  0  0  0  0
   40.2470   29.8760   42.4170 C   0  0  0  0  0  3  0  0  0  0  0  0
   39.0040   29.7270   41.7910 C   0  0  0  0  0  0  0  0  0  0  0  0
   38.6810   30.7380   40.9090 C   0  0  0  0  0  0  0  0  0  0  0  0
   37.7220   30.6320   40.4200 H   0  0  0  0  0  0  0  0  0  0  0  0
   39.5320   31.7900   40.6890 C   0  0  0  0  0  0  0  0  0  0  0  0
   40.7380   31.9100   41.3150 C   0  0  0  0  0  0  0  0  0  0  0  0
   41.1030   30.9350   42.1950 C   0  0  0  0  0  3  0  0  0  0  0  0
   41.3810   33.0700   40.8990 O   0  0  0  0  0  0  0  0  0  0  0  0
   40.4780   33.7510   40.0330 C   0  0  0  0  0  3  0  0  0  0  0  0
   40.1960   34.7470   40.4200 H   0  0  0  0  0  0  0  0  0  0  0  0
   39.3810   32.8960   39.8450 O   0  0  0  0  0  0  0  0  0  0  0  0
   38.1980   22.8680   40.4960 C   0  0  0  0  0  0  0  0  0  0  0  0
   38.1910   24.0170   41.2980 C   0  0  0  0  0  0  0  0  0  0  0  0
   37.4040   25.1350   40.9790 C   0  0  0  0  0  0  0  0  0  0  0  0
   36.6690   25.0070   39.8490 N   0  0  0  0  0  0  0  0  0  0  0  0
   36.6830   23.9000   39.0840 C   0  0  0  0  0  0  0  0  0  0  0  0
   37.4360   22.8400   39.4010 N   0  0  0  0  0  0  0  0  0  0  0  0
   38.8240   22.0240   40.7850 H   0  0  0  0  0  0  0  0  0  0  0  0
   38.7980   24.0650   42.1910 H   0  0  0  0  0  0  0  0  0  0  0  0
   36.0250   23.9940   38.2210 H   0  0  0  0  0  0  0  0  0  0  0  0
  1  2  1  0  0  0  0
  2  3  2  0  0  0  0
  2  7  1  0  0  0  0
  3  4  1  0  0  0  0
  4  8  1  0  0  0  0
  4  5  2  0  0  0  0
  5  9  1  0  0  0  0
  6  5  1  0  0  0  0
  6 10  1  0  0  0  0
  7  6  2  0  0  0  0
 12  7  1  0  0  0  0
 12 11  2  0  0  0  0
 13 12  1  0  0  0  0
 14 13  1  0  0  0  0
 15 13  2  0  0  0  0
 15 16  1  0  0  0  0
 16 17  2  0  0  0  0
 17 11  1  0  0  0  0
 18 16  1  0  0  0  0
 19 20  1  0  0  0  0
 19 18  1  0  0  0  0
 21 19  1  0  0  0  0
 21 15  1  0  0  0  0
 22 28  1  0  0  0  0
 22 23  1  0  0  0  0
 23 29  1  0  0  0  0
 24 23  2  0  0  0  0
 24  3  1  0  0  0  0
 25 24  1  0  0  0  0
 26 27  1  0  0  0  0
 26 25  2  0  0  0  0
 27 22  2  0  0  0  0
 30 26  1  0  0  0  0
M  END
>  <minimizedAffinity>
-5.41978931

$$$$

 OpenBabel03242519593D

 30 33  0  0  0  0  0  0  0  0999 V2000
   38.0270   27.7850   39.0640 Br  0  0  0  0  0  0  0  0  0  0  0  0
   37.7080   27.9820   40.9480 C   0  0  0  0  0  0  0  0  0  0  0  0
   37.7010   29.2120   41.5840 C   0  0  0  0  0  0  0  0  0  0  0  0
   37.4540   29.2420   42.9350 C   0  0  0  0  0  0  0  0  0  0  0  0
   37.2160   28.1030   43.6760 C   0  0  0  0  0  0  0  0  0  0  0  0
   37.2220   26.8660   43.0460 C   0  0  0  0  0  0  0  0  0  0  0  0
   37.4720   26.8390   41.6810 C   0  0  0  0  0  0  0  0  0  0  0  0
   37.4620   30.2350   43.3700 H   0  0  0  0  0  0  0  0  0  0  0  0
   37.0310   28.2090   44.7310 H   0  0  0  0  0  0  0  0  0  0  0  0
   37.0360   26.0080   43.6430 H   0  0  0  0  0  0  0  0  0  0  0  0
   38.6100   24.7070   41.2530 C   0  0  0  0  0  3  0  0  0  0  0  0
   37.4560   25.4890   41.1210 C   0  0  0  0  0  0  0  0  0  0  0  0
   36.4150   24.8700   40.4600 C   0  0  0  0  0  0  0  0  0  0  0  0
   35.5190   25.4660   40.3530 H   0  0  0  0  0  0  0  0  0  0  0  0
   36.5360   23.5900   39.9820 C   0  0  0  0  0  0  0  0  0  0  0  0
   37.6740   22.8510   40.1240 C   0  0  0  0  0  0  0  0  0  0  0  0
   38.7300   23.4200   40.7720 C   0  0  0  0  0  3  0  0  0  0  0  0
   37.5080   21.5990   39.5450 O   0  0  0  0  0  0  0  0  0  0  0  0
   36.2230   21.5990   38.9310 C   0  0  0  0  0  3  0  0  0  0  0  0
   36.2800   21.4470   37.8370 H   0  0  0  0  0  0  0  0  0  0  0  0
   35.6050   22.8050   39.2940 O   0  0  0  0  0  0  0  0  0  0  0  0
   37.1930   32.2890   39.4290 C   0  0  0  0  0  0  0  0  0  0  0  0
   36.9250   31.1650   40.2210 C   0  0  0  0  0  0  0  0  0  0  0  0
   37.9560   30.3800   40.7620 C   0  0  0  0  0  0  0  0  0  0  0  0
   39.2070   30.7980   40.4550 N   0  0  0  0  0  0  0  0  0  0  0  0
   39.4550   31.8790   39.6920 C   0  0  0  0  0  0  0  0  0  0  0  0
   38.4620   32.6180   39.1840 N   0  0  0  0  0  0  0  0  0  0  0  0
   36.3590   32.8680   39.0310 H   0  0  0  0  0  0  0  0  0  0  0  0
   35.9050   30.8760   40.4350 H   0  0  0  0  0  0  0  0  0  0  0  0
   40.5230   32.0480   39.5630 H   0  0  0  0  0  0  0  0  0  0  0  0
  1  2  1  0  0  0  0
  2  3  2  0  0  0  0
  2  7  1  0  0  0  0
  3  4  1  0  0  0  0
  4  8  1  0  0  0  0
  4  5  2  0  0  0  0
  5  9  1  0  0  0  0
  6 10  1  0  0  0  0
  6  5  1  0  0  0  0
  7  6  2  0  0  0  0
 12 11  1  0  0  0  0
 12  7  1  0  0  0  0
 13 12  2  0  0  0  0
 14 13  1  0  0  0  0
 15 16  2  0  0  0  0
 15 13  1  0  0  0  0
 16 17  1  0  0  0  0
 17 11  2  0  0  0  0
 18 16  1  0  0  0  0
 19 21  1  0  0  0  0
 19 18  1  0  0  0  0
 20 19  1  0  0  0  0
 21 15  1  0  0  0  0
 22 23  1  0  0  0  0
 23 29  1  0  0  0  0
 23 24  2  0  0  0  0
 24  3  1  0  0  0  0
 25 24  1  0  0  0  0
 26 25  2  0  0  0  0
 27 22  2  0  0  0  0
 27 26  1  0  0  0  0
 28 22  1  0  0  0  0
 30 26  1  0  0  0  0
M  END
>  <minimizedAffinity>
-5.41192865

$$$$

 OpenBabel03242519593D

 30 33  0  0  0  0  0  0  0  0999 V2000
   40.7350   29.9970   40.2070 Br  0  0  0  0  0  0  0  0  0  0  0  0
   39.2420   31.1940   40.0460 C   0  0  0  0  0  0  0  0  0  0  0  0
   39.3620   32.4850   39.5590 C   0  0  0  0  0  0  0  0  0  0  0  0
   38.2280   33.2560   39.4790 C   0  0  0  0  0  0  0  0  0  0  0  0
   36.9850   32.7970   39.8610 C   0  0  0  0  0  0  0  0  0  0  0  0
   36.8560   31.5050   40.3510 C   0  0  0  0  0  0  0  0  0  0  0  0
   38.0020   30.7280   40.4320 C   0  0  0  0  0  0  0  0  0  0  0  0
   38.3930   34.2540   39.0890 H   0  0  0  0  0  0  0  0  0  0  0  0
   36.1430   33.4630   39.7680 H   0  0  0  0  0  0  0  0  0  0  0  0
   35.8850   31.1820   40.6370 H   0  0  0  0  0  0  0  0  0  0  0  0
   37.7680   29.2150   42.3490 C   0  0  0  0  0  3  0  0  0  0  0  0
   37.7530   29.3890   40.9600 C   0  0  0  0  0  0  0  0  0  0  0  0
   37.4970   28.2400   40.2410 C   0  0  0  0  0  0  0  0  0  0  0  0
   37.4840   28.3640   39.1660 H   0  0  0  0  0  0  0  0  0  0  0  0
   37.2790   27.0400   40.8680 C   0  0  0  0  0  0  0  0  0  0  0  0
   37.3000   26.8990   42.2250 C   0  0  0  0  0  0  0  0  0  0  0  0
   37.5490   28.0070   42.9800 C   0  0  0  0  0  3  0  0  0  0  0  0
   37.0490   25.5790   42.5750 O   0  0  0  0  0  0  0  0  0  0  0  0
   36.9560   24.8440   41.3580 C   0  0  0  0  0  3  0  0  0  0  0  0
   37.7310   24.0600   41.2810 H   0  0  0  0  0  0  0  0  0  0  0  0
   37.0080   25.7830   40.3170 O   0  0  0  0  0  0  0  0  0  0  0  0
   42.4280   33.3040   37.4860 C   0  0  0  0  0  0  0  0  0  0  0  0
   41.1410   32.8790   37.8420 C   0  0  0  0  0  0  0  0  0  0  0  0
   40.6910   32.9200   39.1710 C   0  0  0  0  0  0  0  0  0  0  0  0
   41.5930   33.3970   40.0600 N   0  0  0  0  0  0  0  0  0  0  0  0
   42.8280   33.8020   39.7100 C   0  0  0  0  0  0  0  0  0  0  0  0
   43.2440   33.7580   38.4390 N   0  0  0  0  0  0  0  0  0  0  0  0
   42.7330   33.2540   36.4400 H   0  0  0  0  0  0  0  0  0  0  0  0
   40.4590   32.5070   37.0890 H   0  0  0  0  0  0  0  0  0  0  0  0
   43.4000   34.1510   40.5690 H   0  0  0  0  0  0  0  0  0  0  0  0
  2  1  1  0  0  0  0
  2  7  1  0  0  0  0
  3  2  2  0  0  0  0
  4  3  1  0  0  0  0
  4  5  2  0  0  0  0
  5  6  1  0  0  0  0
  6  7  2  0  0  0  0
  6 10  1  0  0  0  0
  7 12  1  0  0  0  0
  8  4  1  0  0  0  0
  9  5  1  0  0  0  0
 11 17  1  0  0  0  0
 12 11  2  0  0  0  0
 13 15  2  0  0  0  0
 13 12  1  0  0  0  0
 14 13  1  0  0  0  0
 15 16  1  0  0  0  0
 16 18  1  0  0  0  0
 16 17  2  0  0  0  0
 19 18  1  0  0  0  0
 20 19  1  0  0  0  0
 21 15  1  0  0  0  0
 21 19  1  0  0  0  0
 22 23  2  0  0  0  0
 22 27  1  0  0  0  0
 23 24  1  0  0  0  0
 24  3  1  0  0  0  0
 24 25  2  0  0  0  0
 26 25  1  0  0  0  0
 26 30  1  0  0  0  0
 27 26  2  0  0  0  0
 28 22  1  0  0  0  0
 29 23  1  0  0  0  0
M  END
>  <minimizedAffinity>
-5.3850503

$$$$

 OpenBabel03242519593D

 30 33  0  0  0  0  0  0  0  0999 V2000
   40.5810   29.7180   40.6760 Br  0  0  0  0  0  0  0  0  0  0  0  0
   39.0860   30.8820   40.3590 C   0  0  0  0  0  0  0  0  0  0  0  0
   37.8120   30.6120   40.8270 C   0  0  0  0  0  0  0  0  0  0  0  0
   36.8140   31.5160   40.5500 C   0  0  0  0  0  0  0  0  0  0  0  0
   37.0330   32.6710   39.8290 C   0  0  0  0  0  0  0  0  0  0  0  0
   38.3080   32.9490   39.3550 C   0  0  0  0  0  0  0  0  0  0  0  0
   39.3130   32.0340   39.6360 C   0  0  0  0  0  0  0  0  0  0  0  0
   35.8420   31.2440   40.9450 H   0  0  0  0  0  0  0  0  0  0  0  0
   36.1990   33.3300   39.6540 H   0  0  0  0  0  0  0  0  0  0  0  0
   38.4430   33.8460   38.8040 H   0  0  0  0  0  0  0  0  0  0  0  0
   40.8980   32.0830   37.7640 C   0  0  0  0  0  3  0  0  0  0  0  0
   40.6120   32.4240   39.0910 C   0  0  0  0  0  0  0  0  0  0  0  0
   41.6210   33.1050   39.7400 C   0  0  0  0  0  0  0  0  0  0  0  0
   41.4090   33.3730   40.7670 H   0  0  0  0  0  0  0  0  0  0  0  0
   42.7980   33.4080   39.1060 C   0  0  0  0  0  0  0  0  0  0  0  0
   43.0510   33.0630   37.8100 C   0  0  0  0  0  0  0  0  0  0  0  0
   42.0840   32.3880   37.1260 C   0  0  0  0  0  3  0  0  0  0  0  0
   44.3170   33.4970   37.4360 O   0  0  0  0  0  0  0  0  0  0  0  0
   44.9150   34.0650   38.5980 C   0  0  0  0  0  3  0  0  0  0  0  0
   45.8320   33.5280   38.9030 H   0  0  0  0  0  0  0  0  0  0  0  0
   43.9230   34.0830   39.5910 O   0  0  0  0  0  0  0  0  0  0  0  0
   37.0750   27.0030   41.7200 C   0  0  0  0  0  0  0  0  0  0  0  0
   37.2430   28.1780   40.9760 C   0  0  0  0  0  0  0  0  0  0  0  0
   37.6330   29.3840   41.5790 C   0  0  0  0  0  0  0  0  0  0  0  0
   37.8280   29.3120   42.9170 N   0  0  0  0  0  0  0  0  0  0  0  0
   37.6630   28.1790   43.6240 C   0  0  0  0  0  0  0  0  0  0  0  0
   37.2920   27.0360   43.0360 N   0  0  0  0  0  0  0  0  0  0  0  0
   36.7710   26.0900   41.2080 H   0  0  0  0  0  0  0  0  0  0  0  0
   37.0740   28.1790   39.9080 H   0  0  0  0  0  0  0  0  0  0  0  0
   37.8670   28.3280   44.6830 H   0  0  0  0  0  0  0  0  0  0  0  0
  2  1  1  0  0  0  0
  2  3  1  0  0  0  0
  3 24  1  0  0  0  0
  4  3  2  0  0  0  0
  4  8  1  0  0  0  0
  5  4  1  0  0  0  0
  6  7  1  0  0  0  0
  6  5  2  0  0  0  0
  7  2  2  0  0  0  0
  9  5  1  0  0  0  0
 10  6  1  0  0  0  0
 11 12  1  0  0  0  0
 12  7  1  0  0  0  0
 12 13  2  0  0  0  0
 13 14  1  0  0  0  0
 15 21  1  0  0  0  0
 15 13  1  0  0  0  0
 16 15  2  0  0  0  0
 17 11  2  0  0  0  0
 17 16  1  0  0  0  0
 18 16  1  0  0  0  0
 18 19  1  0  0  0  0
 19 20  1  0  0  0  0
 19 21  1  0  0  0  0
 22 27  1  0  0  0  0
 23 24  1  0  0  0  0
 23 22  2  0  0  0  0
 24 25  2  0  0  0  0
 25 26  1  0  0  0  0
 26 30  1  0  0  0  0
 27 26  2  0  0  0  0
 28 22  1  0  0  0  0
 29 23  1  0  0  0  0
M  END
>  <minimizedAffinity>
-5.3655076

$$$$

 OpenBabel03242519593D

 30 33  0  0  0  0  0  0  0  0999 V2000
   36.3750   26.1890   38.7290 Br  0  0  0  0  0  0  0  0  0  0  0  0
   36.4350   27.7510   39.8450 C   0  0  0  0  0  0  0  0  0  0  0  0
   37.1570   27.8040   41.0250 C   0  0  0  0  0  0  0  0  0  0  0  0
   37.1390   28.9740   41.7450 C   0  0  0  0  0  0  0  0  0  0  0  0
   36.4330   30.0880   41.3410 C   0  0  0  0  0  0  0  0  0  0  0  0
   35.7050   30.0430   40.1600 C   0  0  0  0  0  0  0  0  0  0  0  0
   35.7260   28.8600   39.4350 C   0  0  0  0  0  0  0  0  0  0  0  0
   37.7250   28.9470   42.6570 H   0  0  0  0  0  0  0  0  0  0  0  0
   36.4680   30.9680   41.9610 H   0  0  0  0  0  0  0  0  0  0  0  0
   35.1730   30.9170   39.8760 H   0  0  0  0  0  0  0  0  0  0  0  0
   35.5950   29.1430   37.0010 C   0  0  0  0  0  3  0  0  0  0  0  0
   34.9280   28.9220   38.2120 C   0  0  0  0  0  0  0  0  0  0  0  0
   33.5600   28.7860   38.0980 C   0  0  0  0  0  0  0  0  0  0  0  0
   33.0360   28.6150   39.0290 H   0  0  0  0  0  0  0  0  0  0  0  0
   32.9350   28.8670   36.8800 C   0  0  0  0  0  0  0  0  0  0  0  0
   33.6100   29.0840   35.7140 C   0  0  0  0  0  0  0  0  0  0  0  0
   34.9640   29.2250   35.7750 C   0  0  0  0  0  3  0  0  0  0  0  0
   32.7230   29.1180   34.6460 O   0  0  0  0  0  0  0  0  0  0  0  0
   31.4140   29.0040   35.1960 C   0  0  0  0  0  3  0  0  0  0  0  0
   30.7900   29.8910   34.9810 H   0  0  0  0  0  0  0  0  0  0  0  0
   31.5760   28.7570   36.5680 O   0  0  0  0  0  0  0  0  0  0  0  0
   37.9840   24.3760   42.4160 C   0  0  0  0  0  0  0  0  0  0  0  0
   37.2660   25.5240   42.0540 C   0  0  0  0  0  0  0  0  0  0  0  0
   37.8830   26.6070   41.4070 C   0  0  0  0  0  0  0  0  0  0  0  0
   39.2050   26.4460   41.1700 N   0  0  0  0  0  0  0  0  0  0  0  0
   39.8880   25.3400   41.5210 C   0  0  0  0  0  0  0  0  0  0  0  0
   39.2870   24.3150   42.1370 N   0  0  0  0  0  0  0  0  0  0  0  0
   37.4620   23.5600   42.9160 H   0  0  0  0  0  0  0  0  0  0  0  0
   36.2090   25.5980   42.2680 H   0  0  0  0  0  0  0  0  0  0  0  0
   40.9390   25.4060   41.2430 H   0  0  0  0  0  0  0  0  0  0  0  0
  1  2  1  0  0  0  0
  2  3  1  0  0  0  0
  3 24  1  0  0  0  0
  3  4  2  0  0  0  0
  4  8  1  0  0  0  0
  5  4  1  0  0  0  0
  5  9  1  0  0  0  0
  6  5  2  0  0  0  0
  7  2  2  0  0  0  0
  7  6  1  0  0  0  0
 10  6  1  0  0  0  0
 11 12  1  0  0  0  0
 12  7  1  0  0  0  0
 13 12  2  0  0  0  0
 13 14  1  0  0  0  0
 15 13  1  0  0  0  0
 16 17  1  0  0  0  0
 16 15  2  0  0  0  0
 17 11  2  0  0  0  0
 18 19  1  0  0  0  0
 18 16  1  0  0  0  0
 19 21  1  0  0  0  0
 20 19  1  0  0  0  0
 21 15  1  0  0  0  0
 22 28  1  0  0  0  0
 23 29  1  0  0  0  0
 23 22  2  0  0  0  0
 24 23  1  0  0  0  0
 25 24  2  0  0  0  0
 25 26  1  0  0  0  0
 26 27  2  0  0  0  0
 27 22  1  0  0  0  0
 30 26  1  0  0  0  0
M  END
>  <minimizedAffinity>
-5.24323606

$$$$

 OpenBabel03242519593D

 30 33  0  0  0  0  0  0  0  0999 V2000
   37.2720   30.9020   38.2470 Br  0  0  0  0  0  0  0  0  0  0  0  0
   37.2560   30.0510   39.9690 C   0  0  0  0  0  0  0  0  0  0  0  0
   38.0400   30.4790   41.0260 C   0  0  0  0  0  0  0  0  0  0  0  0
   37.9460   29.8040   42.2190 C   0  0  0  0  0  0  0  0  0  0  0  0
   37.1080   28.7230   42.4010 C   0  0  0  0  0  0  0  0  0  0  0  0
   36.3190   28.2870   41.3460 C   0  0  0  0  0  0  0  0  0  0  0  0
   36.4160   28.9710   40.1420 C   0  0  0  0  0  0  0  0  0  0  0  0
   38.5860   30.1910   43.0040 H   0  0  0  0  0  0  0  0  0  0  0  0
   37.0910   28.2460   43.3660 H   0  0  0  0  0  0  0  0  0  0  0  0
   35.6850   27.4530   41.5170 H   0  0  0  0  0  0  0  0  0  0  0  0
   35.8890   27.1980   38.5300 C   0  0  0  0  0  3  0  0  0  0  0  0
   35.5450   28.4280   39.1020 C   0  0  0  0  0  0  0  0  0  0  0  0
   34.3920   28.9940   38.5980 C   0  0  0  0  0  0  0  0  0  0  0  0
   34.1180   29.9450   39.0330 H   0  0  0  0  0  0  0  0  0  0  0  0
   33.6650   28.3730   37.6150 C   0  0  0  0  0  0  0  0  0  0  0  0
   34.0240   27.1730   37.0740 C   0  0  0  0  0  0  0  0  0  0  0  0
   35.1570   26.5740   37.5400 C   0  0  0  0  0  3  0  0  0  0  0  0
   33.1060   26.7890   36.1050 O   0  0  0  0  0  0  0  0  0  0  0  0
   32.1740   27.8590   35.9770 C   0  0  0  0  0  3  0  0  0  0  0  0
   32.1760   28.2980   34.9620 H   0  0  0  0  0  0  0  0  0  0  0  0
   32.4850   28.7840   36.9850 O   0  0  0  0  0  0  0  0  0  0  0  0
   41.0860   32.5950   40.2440 C   0  0  0  0  0  0  0  0  0  0  0  0
   40.2670   31.4820   40.4730 C   0  0  0  0  0  0  0  0  0  0  0  0
   38.9050   31.6190   40.7850 C   0  0  0  0  0  0  0  0  0  0  0  0
   38.4630   32.8970   40.8430 N   0  0  0  0  0  0  0  0  0  0  0  0
   39.2570   33.9610   40.6220 C   0  0  0  0  0  0  0  0  0  0  0  0
   40.5540   33.8160   40.3250 N   0  0  0  0  0  0  0  0  0  0  0  0
   42.1380   32.4390   40.0050 H   0  0  0  0  0  0  0  0  0  0  0  0
   40.6730   30.4810   40.4130 H   0  0  0  0  0  0  0  0  0  0  0  0
   38.7140   34.9000   40.7160 H   0  0  0  0  0  0  0  0  0  0  0  0
  1  2  1  0  0  0  0
  2  7  2  0  0  0  0
  2  3  1  0  0  0  0
  3  4  2  0  0  0  0
  4  5  1  0  0  0  0
  4  8  1  0  0  0  0
  5  9  1  0  0  0  0
  6 10  1  0  0  0  0
  6  5  2  0  0  0  0
  7  6  1  0  0  0  0
 11 12  1  0  0  0  0
 12  7  1  0  0  0  0
 13 14  1  0  0  0  0
 13 12  2  0  0  0  0
 15 13  1  0  0  0  0
 16 17  1  0  0  0  0
 16 15  2  0  0  0  0
 17 11  2  0  0  0  0
 18 16  1  0  0  0  0
 19 18  1  0  0  0  0
 19 21  1  0  0  0  0
 20 19  1  0  0  0  0
 21 15  1  0  0  0  0
 22 27  2  0  0  0  0
 22 23  1  0  0  0  0
 23 24  2  0  0  0  0
 24 25  1  0  0  0  0
 24  3  1  0  0  0  0
 26 30  1  0  0  0  0
 26 25  2  0  0  0  0
 27 26  1  0  0  0  0
 28 22  1  0  0  0  0
 29 23  1  0  0  0  0
M  END
>  <minimizedAffinity>
-5.22375107

$$$$

 OpenBabel03242519593D

 30 33  0  0  0  0  0  0  0  0999 V2000
   39.7270   28.1730   40.1730 Br  0  0  0  0  0  0  0  0  0  0  0  0
   37.9560   28.9020   40.3140 C   0  0  0  0  0  0  0  0  0  0  0  0
   36.8440   28.1260   40.5930 C   0  0  0  0  0  0  0  0  0  0  0  0
   35.6230   28.7500   40.6800 C   0  0  0  0  0  0  0  0  0  0  0  0
   35.4650   30.1080   40.5010 C   0  0  0  0  0  0  0  0  0  0  0  0
   36.5740   30.8930   40.2200 C   0  0  0  0  0  0  0  0  0  0  0  0
   37.8060   30.2610   40.1330 C   0  0  0  0  0  0  0  0  0  0  0  0
   34.7960   28.0850   40.9000 H   0  0  0  0  0  0  0  0  0  0  0  0
   34.4740   30.5230   40.5850 H   0  0  0  0  0  0  0  0  0  0  0  0
   36.4190   31.9350   40.0880 H   0  0  0  0  0  0  0  0  0  0  0  0
   39.4840   31.8800   40.8980 C   0  0  0  0  0  3  0  0  0  0  0  0
   38.9030   31.1790   39.8340 C   0  0  0  0  0  0  0  0  0  0  0  0
   39.4550   31.4490   38.5990 C   0  0  0  0  0  0  0  0  0  0  0  0
   39.0120   30.9120   37.7700 H   0  0  0  0  0  0  0  0  0  0  0  0
   40.4880   32.3390   38.4590 C   0  0  0  0  0  0  0  0  0  0  0  0
   41.0360   33.0100   39.5140 C   0  0  0  0  0  0  0  0  0  0  0  0
   40.5240   32.7760   40.7560 C   0  0  0  0  0  3  0  0  0  0  0  0
   42.0600   33.8390   39.0760 O   0  0  0  0  0  0  0  0  0  0  0  0
   42.0870   33.7420   37.6550 C   0  0  0  0  0  3  0  0  0  0  0  0
   41.8850   34.7110   37.1640 H   0  0  0  0  0  0  0  0  0  0  0  0
   41.1700   32.7390   37.3050 O   0  0  0  0  0  0  0  0  0  0  0  0
   37.5330   24.7530   42.1800 C   0  0  0  0  0  0  0  0  0  0  0  0
   37.3240   26.1300   42.0270 C   0  0  0  0  0  0  0  0  0  0  0  0
   37.0630   26.7030   40.7720 C   0  0  0  0  0  0  0  0  0  0  0  0
   37.0310   25.8230   39.7440 N   0  0  0  0  0  0  0  0  0  0  0  0
   37.2340   24.5020   39.8990 C   0  0  0  0  0  0  0  0  0  0  0  0
   37.4820   23.9690   41.1010 N   0  0  0  0  0  0  0  0  0  0  0  0
   37.7330   24.3540   43.1740 H   0  0  0  0  0  0  0  0  0  0  0  0
   37.3600   26.7880   42.8850 H   0  0  0  0  0  0  0  0  0  0  0  0
   37.1680   23.9660   38.9530 H   0  0  0  0  0  0  0  0  0  0  0  0
  1  2  1  0  0  0  0
  2  3  1  0  0  0  0
  3  4  2  0  0  0  0
  3 24  1  0  0  0  0
  4  8  1  0  0  0  0
  5  9  1  0  0  0  0
  5  4  1  0  0  0  0
  6  5  2  0  0  0  0
  7  6  1  0  0  0  0
  7  2  2  0  0  0  0
 10  6  1  0  0  0  0
 12  7  1  0  0  0  0
 12 11  2  0  0  0  0
 13 12  1  0  0  0  0
 14 13  1  0  0  0  0
 15 13  2  0  0  0  0
 15 16  1  0  0  0  0
 16 17  2  0  0  0  0
 17 11  1  0  0  0  0
 18 16  1  0  0  0  0
 19 18  1  0  0  0  0
 20 19  1  0  0  0  0
 21 19  1  0  0  0  0
 21 15  1  0  0  0  0
 22 28  1  0  0  0  0
 23 22  1  0  0  0  0
 23 29  1  0  0  0  0
 24 23  2  0  0  0  0
 25 26  2  0  0  0  0
 25 24  1  0  0  0  0
 26 27  1  0  0  0  0
 27 22  2  0  0  0  0
 30 26  1  0  0  0  0
M  END
>  <minimizedAffinity>
-5.21747494

$$$$

 OpenBabel03242519593D

 30 33  0  0  0  0  0  0  0  0999 V2000
   38.8460   29.5340   39.7730 Br  0  0  0  0  0  0  0  0  0  0  0  0
   38.1390   28.7560   41.3810 C   0  0  0  0  0  0  0  0  0  0  0  0
   38.8250   28.7620   42.5830 C   0  0  0  0  0  0  0  0  0  0  0  0
   38.2250   28.1840   43.6760 C   0  0  0  0  0  0  0  0  0  0  0  0
   36.9750   27.6020   43.6200 C   0  0  0  0  0  0  0  0  0  0  0  0
   36.2810   27.5910   42.4180 C   0  0  0  0  0  0  0  0  0  0  0  0
   36.8900   28.1750   41.3160 C   0  0  0  0  0  0  0  0  0  0  0  0
   38.8150   28.2240   44.5840 H   0  0  0  0  0  0  0  0  0  0  0  0
   36.5720   27.1700   44.5200 H   0  0  0  0  0  0  0  0  0  0  0  0
   35.3220   27.1350   42.4070 H   0  0  0  0  0  0  0  0  0  0  0  0
   35.0500   29.0480   39.9480 C   0  0  0  0  0  3  0  0  0  0  0  0
   36.0740   28.1070   40.1060 C   0  0  0  0  0  0  0  0  0  0  0  0
   36.1910   27.2050   39.0680 C   0  0  0  0  0  0  0  0  0  0  0  0
   36.9800   26.4740   39.1810 H   0  0  0  0  0  0  0  0  0  0  0  0
   35.3530   27.2550   37.9840 C   0  0  0  0  0  0  0  0  0  0  0  0
   34.3620   28.1830   37.8560 C   0  0  0  0  0  0  0  0  0  0  0  0
   34.2070   29.0960   38.8560 C   0  0  0  0  0  3  0  0  0  0  0  0
   33.6760   27.9920   36.6630 O   0  0  0  0  0  0  0  0  0  0  0  0
   34.2200   26.8210   36.0610 C   0  0  0  0  0  3  0  0  0  0  0  0
   33.4660   26.0220   35.9400 H   0  0  0  0  0  0  0  0  0  0  0  0
   35.3160   26.4370   36.8490 O   0  0  0  0  0  0  0  0  0  0  0  0
   42.5810   29.2660   42.5150 C   0  0  0  0  0  0  0  0  0  0  0  0
   41.3250   28.6460   42.5050 C   0  0  0  0  0  0  0  0  0  0  0  0
   40.1350   29.3860   42.5910 C   0  0  0  0  0  0  0  0  0  0  0  0
   40.3060   30.7250   42.6820 N   0  0  0  0  0  0  0  0  0  0  0  0
   41.5170   31.3140   42.6910 C   0  0  0  0  0  0  0  0  0  0  0  0
   42.6430   30.5960   42.6080 N   0  0  0  0  0  0  0  0  0  0  0  0
   43.4780   28.6500   42.4450 H   0  0  0  0  0  0  0  0  0  0  0  0
   41.2470   27.5700   42.4300 H   0  0  0  0  0  0  0  0  0  0  0  0
   41.4420   32.3970   42.7700 H   0  0  0  0  0  0  0  0  0  0  0  0
  1  2  1  0  0  0  0
  2  3  1  0  0  0  0
  3 24  1  0  0  0  0
  3  4  2  0  0  0  0
  4  8  1  0  0  0  0
  5  4  1  0  0  0  0
  5  9  1  0  0  0  0
  6  5  2  0  0  0  0
  7  2  2  0  0  0  0
  7  6  1  0  0  0  0
 10  6  1  0  0  0  0
 11 12  1  0  0  0  0
 12  7  1  0  0  0  0
 13 14  1  0  0  0  0
 13 12  2  0  0  0  0
 15 13  1  0  0  0  0
 16 15  2  0  0  0  0
 16 17  1  0  0  0  0
 17 11  2  0  0  0  0
 18 16  1  0  0  0  0
 19 18  1  0  0  0  0
 19 21  1  0  0  0  0
 20 19  1  0  0  0  0
 21 15  1  0  0  0  0
 22 27  1  0  0  0  0
 23 22  2  0  0  0  0
 23 24  1  0  0  0  0
 24 25  2  0  0  0  0
 25 26  1  0  0  0  0
 26 30  1  0  0  0  0
 27 26  2  0  0  0  0
 28 22  1  0  0  0  0
 29 23  1  0  0  0  0
M  END
>  <minimizedAffinity>
-5.20190144

$$$$
