
 OpenBabel03252508543D

 45 49  0  0  1  0  0  0  0  0999 V2000
   42.9290   34.2190   40.4890 C   0  0  0  0  0  0  0  0  0  0  0  0
   42.9070   35.2690   39.7630 O   0  0  0  0  0  0  0  0  0  0  0  0
   41.5700   33.7490   40.2890 N   0  0  0  0  0  0  0  0  0  0  0  0
   41.2360   33.4370   38.9150 C   0  0  0  0  0  0  0  0  0  0  0  0
   40.4610   34.6720   38.4070 C   0  0  0  0  0  0  0  0  0  0  0  0
   39.6380   35.1830   39.5990 C   0  0  0  0  0  0  0  0  0  0  0  0
   39.2520   34.0460   40.5190 C   0  0  0  0  0  0  0  0  0  0  0  0
   40.5110   33.5500   41.2530 C   0  0  1  0  0  0  0  0  0  0  0  0
   42.1110   33.3420   38.2510 H   0  0  0  0  0  0  0  0  0  0  0  0
   40.6110   32.5360   38.8010 H   0  0  0  0  0  0  0  0  0  0  0  0
   41.1920   35.4800   38.1760 H   0  0  0  0  0  0  0  0  0  0  0  0
   39.8530   34.4530   37.5300 H   0  0  0  0  0  0  0  0  0  0  0  0
   38.6900   35.5690   39.1710 H   0  0  0  0  0  0  0  0  0  0  0  0
   40.1830   35.9400   40.1890 H   0  0  0  0  0  0  0  0  0  0  0  0
   38.9050   33.2190   39.8500 H   0  0  0  0  0  0  0  0  0  0  0  0
   38.5030   34.4220   41.2130 H   0  0  0  0  0  0  0  0  0  0  0  0
   40.7350   34.1690   42.1270 H   0  0  0  0  0  0  0  0  0  0  0  0
   39.2170   31.3770   41.4180 C   0  0  0  0  0  3  0  0  0  0  0  0
   40.3380   32.1370   41.6700 C   0  0  0  0  0  0  0  0  0  0  0  0
   41.3830   31.5460   42.3610 C   0  0  0  0  0  0  0  0  0  0  0  0
   42.3220   32.0570   42.6160 H   0  0  0  0  0  0  0  0  0  0  0  0
   41.3170   30.2340   42.7910 C   0  0  0  0  0  0  0  0  0  0  0  0
   40.1740   29.4810   42.5270 C   0  0  0  0  0  0  0  0  0  0  0  0
   39.1270   30.0540   41.8410 C   0  0  0  0  0  3  0  0  0  0  0  0
   40.3650   28.1970   43.0680 O   0  0  0  0  0  0  0  0  0  0  0  0
   41.7910   28.0280   43.0910 C   0  0  0  0  0  3  0  0  0  0  0  0
   42.1170   27.2580   43.7880 H   0  0  0  0  0  0  0  0  0  0  0  0
   42.1640   29.3560   43.4920 O   0  0  0  0  0  0  0  0  0  0  0  0
   43.9820   33.7530   41.2120 O   0  0  0  0  0  0  0  0  0  0  0  0
   45.3200   33.9320   40.9600 C   0  0  0  0  0  0  0  0  0  0  0  0
   46.0940   34.5250   41.9560 C   0  0  0  0  0  0  0  0  0  0  0  0
   47.4570   34.6970   41.6740 C   0  0  0  0  0  0  0  0  0  0  0  0
   47.9370   34.2800   40.4580 N   0  0  0  0  0  0  0  0  0  0  0  0
   47.1440   33.7200   39.5470 C   0  0  0  0  0  0  0  0  0  0  0  0
   45.8390   33.5420   39.7840 N   0  0  0  0  0  0  0  0  0  0  0  0
   48.0590   35.1560   42.4430 H   0  0  0  0  0  0  0  0  0  0  0  0
   47.5450   33.3950   38.5850 H   0  0  0  0  0  0  0  0  0  0  0  0
   45.4870   34.9290   43.2050 C   0  0  0  0  0  0  0  0  0  0  0  0
   45.0120   36.2230   43.4280 C   0  0  0  0  0  0  0  0  0  0  0  0
   44.5300   36.1720   44.7100 C   0  0  0  0  0  0  0  0  0  0  0  0
   44.6940   34.9340   45.2400 N   0  0  0  0  0  0  0  0  0  0  0  0
   45.2730   34.2140   44.3050 N   0  0  0  0  0  0  0  0  0  0  0  0
   45.0380   37.0460   42.7280 H   0  0  0  0  0  0  0  0  0  0  0  0
   44.0780   37.0370   45.2030 H   0  0  0  0  0  0  0  0  0  0  0  0
   44.3800   34.7080   46.2190 H   0  0  0  0  0  0  0  0  0  0  0  0
  1 29  1  0  0  0  0
  2  1  2  0  0  0  0
  3  1  1  0  0  0  0
  3  8  1  0  0  0  0
  4  3  1  0  0  0  0
  5  4  1  0  0  0  0
  5  6  1  0  0  0  0
  6 14  1  0  0  0  0
  6  7  1  0  0  0  0
  7 16  1  0  0  0  0
  7  8  1  0  0  0  0
  8 19  1  0  0  0  0
  8 17  1  1  0  0  0
  9  4  1  0  0  0  0
 10  4  1  0  0  0  0
 11  5  1  0  0  0  0
 12  5  1  0  0  0  0
 13  6  1  0  0  0  0
 15  7  1  0  0  0  0
 18 19  2  0  0  0  0
 18 24  1  0  0  0  0
 19 20  1  0  0  0  0
 20 21  1  0  0  0  0
 20 22  2  0  0  0  0
 22 28  1  0  0  0  0
 23 22  1  0  0  0  0
 23 25  1  0  0  0  0
 24 23  2  0  0  0  0
 25 26  1  0  0  0  0
 26 28  1  0  0  0  0
 26 27  1  0  0  0  0
 30 29  1  0  0  0  0
 30 31  1  0  0  0  0
 31 38  1  0  0  0  0
 32 31  2  0  0  0  0
 32 36  1  0  0  0  0
 33 32  1  0  0  0  0
 34 35  1  0  0  0  0
 34 33  2  0  0  0  0
 35 30  2  0  0  0  0
 37 34  1  0  0  0  0
 38 39  1  0  0  0  0
 38 42  2  0  0  0  0
 39 40  2  0  0  0  0
 40 44  1  0  0  0  0
 40 41  1  0  0  0  0
 41 45  1  0  0  0  0
 42 41  1  0  0  0  0
 43 39  1  0  0  0  0
M  END
>  <minimizedAffinity>
-7.01788473

>  <minimizedRMSD>
1.13072741

$$$$
