
 OpenBabel03252506423D

 42 46  0  0  1  0  0  0  0  0999 V2000
   49.4040   33.3070   41.4970 N   0  0  1  0  0  0  0  0  0  0  0  0
   50.7060   33.1480   42.1000 C   0  0  0  0  0  0  0  0  0  0  0  0
   51.3430   31.8300   41.7340 C   0  0  0  0  0  0  0  0  0  0  0  0
   50.5760   30.7510   42.4540 C   0  0  0  0  0  0  0  0  0  0  0  0
   49.0930   31.0230   42.3690 C   0  0  0  0  0  0  0  0  0  0  0  0
   48.7850   32.0090   41.2910 C   0  0  2  0  0  0  0  0  0  0  0  0
   51.3750   34.0150   41.9100 H   0  0  0  0  0  0  0  0  0  0  0  0
   50.5660   33.1110   43.2090 H   0  0  0  0  0  0  0  0  0  0  0  0
   51.3630   31.7040   40.6520 H   0  0  0  0  0  0  0  0  0  0  0  0
   52.3990   31.8970   42.0700 H   0  0  0  0  0  0  0  0  0  0  0  0
   50.9140   30.6210   43.5020 H   0  0  0  0  0  0  0  0  0  0  0  0
   50.7780   29.7900   41.9560 H   0  0  0  0  0  0  0  0  0  0  0  0
   48.5070   30.1100   42.1600 H   0  0  0  0  0  0  0  0  0  0  0  0
   48.7810   31.4840   43.3220 H   0  0  0  0  0  0  0  0  0  0  0  0
   47.6800   32.2360   41.4310 H   0  0  0  0  0  0  0  0  0  0  0  0
   48.3980   30.2250   39.8170 C   0  0  0  0  0  3  0  0  0  0  0  0
   48.9040   31.5300   39.9140 C   0  0  0  0  0  0  0  0  0  0  0  0
   49.3990   32.0960   38.7800 C   0  0  0  0  0  0  0  0  0  0  0  0
   49.7710   33.0860   38.9320 H   0  0  0  0  0  0  0  0  0  0  0  0
   49.4020   31.4160   37.5830 C   0  0  0  0  0  0  0  0  0  0  0  0
   48.9170   30.1340   37.4290 C   0  0  0  0  0  0  0  0  0  0  0  0
   48.4130   29.5550   38.5880 C   0  0  0  0  0  3  0  0  0  0  0  0
   49.0540   29.7150   36.1130 O   0  0  0  0  0  0  0  0  0  0  0  0
   49.9540   30.6080   35.5050 C   0  0  0  0  0  3  0  0  0  0  0  0
   49.5650   30.8750   34.5070 H   0  0  0  0  0  0  0  0  0  0  0  0
   49.8430   31.7750   36.3170 O   0  0  0  0  0  0  0  0  0  0  0  0
   47.2400   34.6340   41.9970 C   0  0  1  0  0  0  0  0  0  0  0  0
   48.3500   35.5210   41.7160 C   0  0  0  0  0  0  0  0  0  0  0  0
   48.6580   34.1920   42.3330 C   0  0  2  0  0  0  0  0  0  0  0  0
   46.7890   33.9520   41.2400 H   0  0  0  0  0  0  0  0  0  0  0  0
   48.5820   35.6700   40.6210 H   0  0  0  0  0  0  0  0  0  0  0  0
   48.4910   36.4550   42.2730 H   0  0  0  0  0  0  0  0  0  0  0  0
   48.8980   34.2340   43.4180 H   0  0  0  0  0  0  0  0  0  0  0  0
   45.5110   36.0500   43.1820 C   0  0  0  0  0  0  0  0  0  0  0  0
   46.3120   34.8800   43.1380 C   0  0  0  0  0  0  0  0  0  0  0  0
   46.2030   33.9850   44.1850 C   0  0  0  0  0  0  0  0  0  0  0  0
   45.3310   34.2900   45.1880 N   0  0  0  0  0  0  0  0  0  0  0  0
   44.5810   35.4070   45.2080 C   0  0  0  0  0  0  0  0  0  0  0  0
   44.6630   36.3030   44.2020 N   0  0  0  0  0  0  0  0  0  0  0  0
   45.5710   36.7750   42.3790 H   0  0  0  0  0  0  0  0  0  0  0  0
   46.7820   33.0800   44.2100 H   0  0  0  0  0  0  0  0  0  0  0  0
   43.9360   35.4970   46.0840 H   0  0  0  0  0  0  0  0  0  0  0  0
  1  2  1  1  0  0  0
  1 29  1  0  0  0  0
  2  8  1  0  0  0  0
  3 10  1  0  0  0  0
  3  2  1  0  0  0  0
  3  4  1  0  0  0  0
  4 11  1  0  0  0  0
  5  4  1  0  0  0  0
  5 14  1  0  0  0  0
  6 15  1  1  0  0  0
  6  1  1  0  0  0  0
  6  5  1  0  0  0  0
  7  2  1  0  0  0  0
  9  3  1  0  0  0  0
 12  4  1  0  0  0  0
 13  5  1  0  0  0  0
 16 17  1  0  0  0  0
 17  6  1  0  0  0  0
 18 19  1  0  0  0  0
 18 17  2  0  0  0  0
 20 18  1  0  0  0  0
 21 20  2  0  0  0  0
 21 22  1  0  0  0  0
 22 16  2  0  0  0  0
 23 21  1  0  0  0  0
 24 23  1  0  0  0  0
 24 26  1  0  0  0  0
 25 24  1  0  0  0  0
 26 20  1  0  0  0  0
 27 30  1  6  0  0  0
 27 29  1  0  0  0  0
 27 35  1  0  0  0  0
 28 27  1  0  0  0  0
 28 32  1  0  0  0  0
 28 29  1  0  0  0  0
 29 33  1  1  0  0  0
 31 28  1  0  0  0  0
 34 39  1  0  0  0  0
 35 34  2  0  0  0  0
 35 36  1  0  0  0  0
 36 41  1  0  0  0  0
 36 37  2  0  0  0  0
 37 38  1  0  0  0  0
 38 42  1  0  0  0  0
 39 38  2  0  0  0  0
 40 34  1  0  0  0  0
M  END
>  <minimizedAffinity>
-5.14467716

>  <minimizedRMSD>
0.509757519

$$$$
