
 OpenBabel03242518273D

 47 52  0  0  1  0  0  0  0  0999 V2000
   37.4330   28.9430   42.6450 C   0  0  0  0  0  0  0  0  0  0  0  0
   38.1150   29.2530   41.5230 C   0  0  0  0  0  0  0  0  0  0  0  0
   38.3610   28.2470   40.6010 C   0  0  0  0  0  0  0  0  0  0  0  0
   37.9100   26.9640   40.8410 C   0  0  0  0  0  0  0  0  0  0  0  0
   37.2110   26.6620   41.9970 C   0  0  0  0  0  0  0  0  0  0  0  0
   36.9650   27.6670   42.9200 C   0  0  0  0  0  0  0  0  0  0  0  0
   36.8870   25.2990   41.9630 O   0  0  0  0  0  0  0  0  0  0  0  0
   37.6990   24.7060   40.9590 C   0  0  2  0  0  0  0  0  0  0  0  0
   38.0120   25.7750   40.0980 O   0  0  0  0  0  0  0  0  0  0  0  0
   37.2270   29.7180   43.3870 H   0  0  0  0  0  0  0  0  0  0  0  0
   38.9050   28.4280   39.6750 H   0  0  0  0  0  0  0  0  0  0  0  0
   36.4180   27.4620   43.8380 H   0  0  0  0  0  0  0  0  0  0  0  0
   38.6370   24.4010   41.5030 H   0  0  0  0  0  0  0  0  0  0  0  0
   37.8160   22.4010   40.1030 C   0  0  0  0  0  3  0  0  0  0  0  0
   37.1010   23.5480   40.3020 C   0  0  0  0  0  0  0  0  0  0  0  0
   35.7870   23.6190   39.8760 C   0  0  0  0  0  0  0  0  0  0  0  0
   35.1780   24.5130   40.0130 H   0  0  0  0  0  0  0  0  0  0  0  0
   35.2420   22.4970   39.2510 C   0  0  0  0  0  0  0  0  0  0  0  0
   35.9600   21.3360   39.0470 C   0  0  0  0  0  0  0  0  0  0  0  0
   37.2740   21.2760   39.4770 C   0  0  0  0  0  3  0  0  0  0  0  0
   35.1000   20.4330   38.3980 O   0  0  0  0  0  0  0  0  0  0  0  0
   33.7750   20.8520   38.7530 C   0  0  0  0  0  3  0  0  0  0  0  0
   33.0100   20.5010   38.0570 H   0  0  0  0  0  0  0  0  0  0  0  0
   33.9630   22.2680   38.7200 O   0  0  0  0  0  0  0  0  0  0  0  0
   40.2790   32.2400   41.2770 C   0  0  0  0  0  0  0  0  0  0  0  0
   39.4110   33.1900   40.7590 C   0  0  0  0  0  0  0  0  0  0  0  0
   38.1060   32.7930   40.5050 C   0  0  0  0  0  0  0  0  0  0  0  0
   37.7240   31.5200   40.7620 N   0  0  0  0  0  0  0  0  0  0  0  0
   38.5950   30.6180   41.2670 C   0  0  0  0  0  0  0  0  0  0  0  0
   39.8580   30.9790   41.5200 N   0  0  0  0  0  0  0  0  0  0  0  0
   41.3340   32.4180   41.5240 H   0  0  0  0  0  0  0  0  0  0  0  0
   37.4450   33.5490   40.1020 H   0  0  0  0  0  0  0  0  0  0  0  0
   39.9410   34.4770   40.5390 N   0  0  0  0  0  0  0  0  0  0  0  0
   39.0250   35.5410   40.2710 C   0  0  0  0  0  0  0  0  0  0  0  0
   39.6710   36.8450   39.9660 C   0  0  0  0  0  0  0  0  0  0  0  0
   40.7190   37.1850   40.8600 N   0  0  0  0  0  0  0  0  0  0  0  0
   41.5120   36.1440   41.3760 C   0  0  0  0  0  0  0  0  0  0  0  0
   41.3240   34.8710   40.5500 C   0  0  0  0  0  0  0  0  0  0  0  0
   38.3230   35.7100   41.1270 H   0  0  0  0  0  0  0  0  0  0  0  0
   38.3690   35.2400   39.4150 H   0  0  0  0  0  0  0  0  0  0  0  0
   38.9060   37.6410   39.9790 H   0  0  0  0  0  0  0  0  0  0  0  0
   40.0530   36.8040   38.9050 H   0  0  0  0  0  0  0  0  0  0  0  0
   41.2260   38.0340   40.5170 H   0  0  0  0  0  0  0  0  0  0  0  0
   42.5860   36.4290   41.3290 H   0  0  0  0  0  0  0  0  0  0  0  0
   41.2680   35.8670   42.4210 H   0  0  0  0  0  0  0  0  0  0  0  0
   41.9710   34.1040   41.0220 H   0  0  0  0  0  0  0  0  0  0  0  0
   41.7430   35.0850   39.5580 H   0  0  0  0  0  0  0  0  0  0  0  0
  1  6  1  0  0  0  0
  1 10  1  0  0  0  0
  2  1  2  0  0  0  0
  3  4  2  0  0  0  0
  3  2  1  0  0  0  0
  4  5  1  0  0  0  0
  5  6  2  0  0  0  0
  6 12  1  0  0  0  0
  7  5  1  0  0  0  0
  8 13  1  1  0  0  0
  8  7  1  0  0  0  0
  9  4  1  0  0  0  0
  9  8  1  0  0  0  0
 11  3  1  0  0  0  0
 14 15  1  0  0  0  0
 15  8  1  0  0  0  0
 16 17  1  0  0  0  0
 16 15  2  0  0  0  0
 18 16  1  0  0  0  0
 19 18  2  0  0  0  0
 19 20  1  0  0  0  0
 20 14  2  0  0  0  0
 21 22  1  0  0  0  0
 21 19  1  0  0  0  0
 23 22  1  0  0  0  0
 24 22  1  0  0  0  0
 24 18  1  0  0  0  0
 25 30  1  0  0  0  0
 25 31  1  0  0  0  0
 26 25  2  0  0  0  0
 27 26  1  0  0  0  0
 27 28  2  0  0  0  0
 28 29  1  0  0  0  0
 29 30  2  0  0  0  0
 29  2  1  0  0  0  0
 32 27  1  0  0  0  0
 33 38  1  0  0  0  0
 33 26  1  0  0  0  0
 34 33  1  0  0  0  0
 34 39  1  0  0  0  0
 35 41  1  0  0  0  0
 35 34  1  0  0  0  0
 35 36  1  0  0  0  0
 36 37  1  0  0  0  0
 37 45  1  0  0  0  0
 38 46  1  0  0  0  0
 38 37  1  0  0  0  0
 40 34  1  0  0  0  0
 42 35  1  0  0  0  0
 43 36  1  0  0  0  0
 44 37  1  0  0  0  0
 47 38  1  0  0  0  0
M  END
>  <minimizedAffinity>
-7.17585945

$$$$

 OpenBabel03242518273D

 47 52  0  0  1  0  0  0  0  0999 V2000
   37.3210   28.9650   42.5440 C   0  0  0  0  0  0  0  0  0  0  0  0
   38.1020   29.2510   41.4820 C   0  0  0  0  0  0  0  0  0  0  0  0
   38.4410   28.2230   40.6150 C   0  0  0  0  0  0  0  0  0  0  0  0
   37.9790   26.9420   40.8480 C   0  0  0  0  0  0  0  0  0  0  0  0
   37.1780   26.6640   41.9420 C   0  0  0  0  0  0  0  0  0  0  0  0
   36.8400   27.6910   42.8100 C   0  0  0  0  0  0  0  0  0  0  0  0
   36.8700   25.2970   41.9170 O   0  0  0  0  0  0  0  0  0  0  0  0
   37.7770   24.6860   41.0090 C   0  0  2  0  0  0  0  0  0  0  0  0
   38.1600   25.7350   40.1520 O   0  0  0  0  0  0  0  0  0  0  0  0
   37.0400   29.7570   43.2420 H   0  0  0  0  0  0  0  0  0  0  0  0
   39.0670   28.3850   39.7390 H   0  0  0  0  0  0  0  0  0  0  0  0
   36.2120   27.5060   43.6790 H   0  0  0  0  0  0  0  0  0  0  0  0
   38.6620   24.4060   41.6460 H   0  0  0  0  0  0  0  0  0  0  0  0
   36.0140   23.5140   39.7540 C   0  0  0  0  0  3  0  0  0  0  0  0
   37.2520   23.5050   40.3320 C   0  0  0  0  0  0  0  0  0  0  0  0
   38.0240   22.3590   40.2790 C   0  0  0  0  0  0  0  0  0  0  0  0
   39.0170   22.3060   40.7260 H   0  0  0  0  0  0  0  0  0  0  0  0
   37.4960   21.2460   39.6260 C   0  0  0  0  0  0  0  0  0  0  0  0
   36.2470   21.2490   39.0400 C   0  0  0  0  0  0  0  0  0  0  0  0
   35.4820   22.4000   39.0990 C   0  0  0  0  0  3  0  0  0  0  0  0
   36.0530   19.9730   38.4840 O   0  0  0  0  0  0  0  0  0  0  0  0
   37.3710   19.4590   38.2470 C   0  0  0  0  0  3  0  0  0  0  0  0
   37.4030   18.3700   38.1710 H   0  0  0  0  0  0  0  0  0  0  0  0
   38.0290   19.9640   39.4100 O   0  0  0  0  0  0  0  0  0  0  0  0
   40.2940   32.2180   41.2350 C   0  0  0  0  0  0  0  0  0  0  0  0
   39.4280   33.1820   40.7410 C   0  0  0  0  0  0  0  0  0  0  0  0
   38.1160   32.8020   40.5020 C   0  0  0  0  0  0  0  0  0  0  0  0
   37.7240   31.5300   40.7520 N   0  0  0  0  0  0  0  0  0  0  0  0
   38.5920   30.6140   41.2330 C   0  0  0  0  0  0  0  0  0  0  0  0
   39.8630   30.9580   41.4710 N   0  0  0  0  0  0  0  0  0  0  0  0
   41.3540   32.3820   41.4680 H   0  0  0  0  0  0  0  0  0  0  0  0
   37.4560   33.5690   40.1170 H   0  0  0  0  0  0  0  0  0  0  0  0
   39.9680   34.4660   40.5270 N   0  0  0  0  0  0  0  0  0  0  0  0
   39.0610   35.5400   40.2690 C   0  0  0  0  0  0  0  0  0  0  0  0
   39.7170   36.8400   39.9700 C   0  0  0  0  0  0  0  0  0  0  0  0
   40.7710   37.1650   40.8620 N   0  0  0  0  0  0  0  0  0  0  0  0
   41.5580   36.1130   41.3680 C   0  0  0  0  0  0  0  0  0  0  0  0
   41.3550   34.8470   40.5340 C   0  0  0  0  0  0  0  0  0  0  0  0
   38.3640   35.7090   41.1290 H   0  0  0  0  0  0  0  0  0  0  0  0
   38.3980   35.2500   39.4150 H   0  0  0  0  0  0  0  0  0  0  0  0
   38.9590   37.6420   39.9910 H   0  0  0  0  0  0  0  0  0  0  0  0
   40.0940   36.8020   38.9070 H   0  0  0  0  0  0  0  0  0  0  0  0
   41.2850   38.0120   40.5210 H   0  0  0  0  0  0  0  0  0  0  0  0
   42.6340   36.3900   41.3180 H   0  0  0  0  0  0  0  0  0  0  0  0
   41.3160   35.8320   42.4110 H   0  0  0  0  0  0  0  0  0  0  0  0
   41.9970   34.0720   40.9980 H   0  0  0  0  0  0  0  0  0  0  0  0
   41.7710   35.0640   39.5410 H   0  0  0  0  0  0  0  0  0  0  0  0
  1  6  1  0  0  0  0
  1 10  1  0  0  0  0
  2  1  2  0  0  0  0
  3  4  2  0  0  0  0
  3  2  1  0  0  0  0
  4  5  1  0  0  0  0
  5  6  2  0  0  0  0
  6 12  1  0  0  0  0
  7  5  1  0  0  0  0
  8 13  1  1  0  0  0
  8  7  1  0  0  0  0
  9  4  1  0  0  0  0
  9  8  1  0  0  0  0
 11  3  1  0  0  0  0
 14 15  1  0  0  0  0
 15  8  1  0  0  0  0
 16 15  2  0  0  0  0
 16 17  1  0  0  0  0
 18 16  1  0  0  0  0
 19 20  1  0  0  0  0
 19 18  2  0  0  0  0
 20 14  2  0  0  0  0
 21 19  1  0  0  0  0
 22 21  1  0  0  0  0
 22 24  1  0  0  0  0
 23 22  1  0  0  0  0
 24 18  1  0  0  0  0
 25 31  1  0  0  0  0
 25 30  1  0  0  0  0
 26 25  2  0  0  0  0
 27 26  1  0  0  0  0
 27 28  2  0  0  0  0
 28 29  1  0  0  0  0
 29 30  2  0  0  0  0
 29  2  1  0  0  0  0
 32 27  1  0  0  0  0
 33 38  1  0  0  0  0
 33 26  1  0  0  0  0
 34 33  1  0  0  0  0
 34 39  1  0  0  0  0
 35 41  1  0  0  0  0
 35 34  1  0  0  0  0
 35 36  1  0  0  0  0
 36 37  1  0  0  0  0
 37 45  1  0  0  0  0
 38 46  1  0  0  0  0
 38 37  1  0  0  0  0
 40 34  1  0  0  0  0
 42 35  1  0  0  0  0
 43 36  1  0  0  0  0
 44 37  1  0  0  0  0
 47 38  1  0  0  0  0
M  END
>  <minimizedAffinity>
-7.10889721

$$$$

 OpenBabel03242518273D

 47 52  0  0  1  0  0  0  0  0999 V2000
   37.1370   33.2610   39.2630 C   0  0  0  0  0  0  0  0  0  0  0  0
   37.8080   32.1550   38.8780 C   0  0  0  0  0  0  0  0  0  0  0  0
   39.1770   32.1060   39.0890 C   0  0  0  0  0  0  0  0  0  0  0  0
   39.8240   33.1720   39.6840 C   0  0  0  0  0  0  0  0  0  0  0  0
   39.1220   34.3000   40.0740 C   0  0  0  0  0  0  0  0  0  0  0  0
   37.7520   34.3500   39.8620 C   0  0  0  0  0  0  0  0  0  0  0  0
   40.0330   35.2030   40.6400 O   0  0  0  0  0  0  0  0  0  0  0  0
   41.3320   34.7670   40.2640 C   0  0  2  0  0  0  0  0  0  0  0  0
   41.1720   33.3910   40.0140 O   0  0  0  0  0  0  0  0  0  0  0  0
   36.0580   33.3240   39.1070 H   0  0  0  0  0  0  0  0  0  0  0  0
   39.7790   31.2450   38.8020 H   0  0  0  0  0  0  0  0  0  0  0  0
   37.1720   35.2220   40.1580 H   0  0  0  0  0  0  0  0  0  0  0  0
   41.5290   35.2860   39.2850 H   0  0  0  0  0  0  0  0  0  0  0  0
   43.5610   34.4050   41.2460 C   0  0  0  0  0  3  0  0  0  0  0  0
   42.3810   35.0950   41.2250 C   0  0  0  0  0  0  0  0  0  0  0  0
   42.1720   36.1210   42.1280 C   0  0  0  0  0  0  0  0  0  0  0  0
   41.2470   36.6980   42.1480 H   0  0  0  0  0  0  0  0  0  0  0  0
   43.1920   36.4110   43.0340 C   0  0  0  0  0  0  0  0  0  0  0  0
   44.3850   35.7190   43.0600 C   0  0  0  0  0  0  0  0  0  0  0  0
   44.5840   34.6930   42.1520 C   0  0  0  0  0  3  0  0  0  0  0  0
   45.1600   36.2790   44.0890 O   0  0  0  0  0  0  0  0  0  0  0  0
   44.6690   37.6170   44.2470 C   0  0  0  0  0  3  0  0  0  0  0  0
   44.9000   38.0490   45.2230 H   0  0  0  0  0  0  0  0  0  0  0  0
   43.2740   37.3760   44.0510 O   0  0  0  0  0  0  0  0  0  0  0  0
   36.6750   29.6570   36.3990 C   0  0  0  0  0  0  0  0  0  0  0  0
   35.7970   28.8830   37.1430 C   0  0  0  0  0  0  0  0  0  0  0  0
   35.6080   29.2280   38.4730 C   0  0  0  0  0  0  0  0  0  0  0  0
   36.2710   30.2860   38.9980 N   0  0  0  0  0  0  0  0  0  0  0  0
   37.1210   31.0200   38.2460 C   0  0  0  0  0  0  0  0  0  0  0  0
   37.3170   30.7060   36.9610 N   0  0  0  0  0  0  0  0  0  0  0  0
   36.9160   29.4960   35.3400 H   0  0  0  0  0  0  0  0  0  0  0  0
   34.9190   28.6120   39.0350 H   0  0  0  0  0  0  0  0  0  0  0  0
   35.1750   27.8120   36.4710 N   0  0  0  0  0  0  0  0  0  0  0  0
   34.3860   26.9050   37.2440 C   0  0  0  0  0  0  0  0  0  0  0  0
   33.8370   25.7580   36.4730 C   0  0  0  0  0  0  0  0  0  0  0  0
   33.2570   26.1290   35.2330 N   0  0  0  0  0  0  0  0  0  0  0  0
   33.8350   27.2010   34.5270 C   0  0  0  0  0  0  0  0  0  0  0  0
   35.2330   27.5030   35.0680 C   0  0  0  0  0  0  0  0  0  0  0  0
   33.5200   27.4210   37.7330 H   0  0  0  0  0  0  0  0  0  0  0  0
   35.0080   26.5230   38.0920 H   0  0  0  0  0  0  0  0  0  0  0  0
   33.0830   25.2340   37.0880 H   0  0  0  0  0  0  0  0  0  0  0  0
   34.6720   25.0150   36.3140 H   0  0  0  0  0  0  0  0  0  0  0  0
   33.0190   25.2750   34.6750 H   0  0  0  0  0  0  0  0  0  0  0  0
   33.9310   26.9360   33.4510 H   0  0  0  0  0  0  0  0  0  0  0  0
   33.2670   28.1490   34.6050 H   0  0  0  0  0  0  0  0  0  0  0  0
   35.6110   28.3560   34.4700 H   0  0  0  0  0  0  0  0  0  0  0  0
   35.8520   26.6300   34.8200 H   0  0  0  0  0  0  0  0  0  0  0  0
  1  6  1  0  0  0  0
  2  3  1  0  0  0  0
  2  1  2  0  0  0  0
  3  4  2  0  0  0  0
  4  9  1  0  0  0  0
  4  5  1  0  0  0  0
  5  7  1  0  0  0  0
  6  5  2  0  0  0  0
  6 12  1  0  0  0  0
  8 13  1  6  0  0  0
  8  7  1  0  0  0  0
  8 15  1  0  0  0  0
  9  8  1  0  0  0  0
 10  1  1  0  0  0  0
 11  3  1  0  0  0  0
 14 20  1  0  0  0  0
 15 14  2  0  0  0  0
 15 16  1  0  0  0  0
 16 17  1  0  0  0  0
 16 18  2  0  0  0  0
 18 19  1  0  0  0  0
 18 24  1  0  0  0  0
 19 21  1  0  0  0  0
 20 19  2  0  0  0  0
 21 22  1  0  0  0  0
 22 23  1  0  0  0  0
 24 22  1  0  0  0  0
 25 30  2  0  0  0  0
 25 26  1  0  0  0  0
 26 27  2  0  0  0  0
 27 28  1  0  0  0  0
 27 32  1  0  0  0  0
 29  2  1  0  0  0  0
 29 28  2  0  0  0  0
 30 29  1  0  0  0  0
 31 25  1  0  0  0  0
 33 26  1  0  0  0  0
 33 34  1  0  0  0  0
 34 39  1  0  0  0  0
 34 40  1  0  0  0  0
 35 41  1  0  0  0  0
 35 34  1  0  0  0  0
 36 35  1  0  0  0  0
 37 45  1  0  0  0  0
 37 38  1  0  0  0  0
 37 36  1  0  0  0  0
 38 33  1  0  0  0  0
 42 35  1  0  0  0  0
 43 36  1  0  0  0  0
 44 37  1  0  0  0  0
 46 38  1  0  0  0  0
 47 38  1  0  0  0  0
M  END
>  <minimizedAffinity>
-7.08175945

$$$$

 OpenBabel03242518273D

 47 52  0  0  1  0  0  0  0  0999 V2000
   37.1610   33.0240   39.1620 C   0  0  0  0  0  0  0  0  0  0  0  0
   37.9490   31.9590   38.9080 C   0  0  0  0  0  0  0  0  0  0  0  0
   39.2930   32.0390   39.2390 C   0  0  0  0  0  0  0  0  0  0  0  0
   39.7960   33.1890   39.8150 C   0  0  0  0  0  0  0  0  0  0  0  0
   38.9750   34.2730   40.0690 C   0  0  0  0  0  0  0  0  0  0  0  0
   37.6300   34.1940   39.7380 C   0  0  0  0  0  0  0  0  0  0  0  0
   39.7560   35.2820   40.6500 O   0  0  0  0  0  0  0  0  0  0  0  0
   41.1150   34.9370   40.4160 C   0  0  2  0  0  0  0  0  0  0  0  0
   41.0880   33.5400   40.2430 O   0  0  0  0  0  0  0  0  0  0  0  0
   36.0980   32.9860   38.9110 H   0  0  0  0  0  0  0  0  0  0  0  0
   39.9850   31.2160   39.0610 H   0  0  0  0  0  0  0  0  0  0  0  0
   36.9580   35.0290   39.9260 H   0  0  0  0  0  0  0  0  0  0  0  0
   41.3570   35.4130   39.4250 H   0  0  0  0  0  0  0  0  0  0  0  0
   41.8380   36.5940   42.0870 C   0  0  0  0  0  3  0  0  0  0  0  0
   42.0430   35.4080   41.4390 C   0  0  0  0  0  0  0  0  0  0  0  0
   43.1470   34.6380   41.7540 C   0  0  0  0  0  0  0  0  0  0  0  0
   43.3510   33.6860   41.2640 H   0  0  0  0  0  0  0  0  0  0  0  0
   44.0160   35.1130   42.7360 C   0  0  0  0  0  0  0  0  0  0  0  0
   43.8150   36.3100   43.3930 C   0  0  0  0  0  0  0  0  0  0  0  0
   42.7070   37.0730   43.0700 C   0  0  0  0  0  3  0  0  0  0  0  0
   44.8770   36.4610   44.3010 O   0  0  0  0  0  0  0  0  0  0  0  0
   45.3370   35.1300   44.5700 C   0  0  0  0  0  3  0  0  0  0  0  0
   46.3610   35.0950   44.9490 H   0  0  0  0  0  0  0  0  0  0  0  0
   45.1990   34.5690   43.2630 O   0  0  0  0  0  0  0  0  0  0  0  0
   37.6150   28.8950   36.8670 C   0  0  0  0  0  0  0  0  0  0  0  0
   36.3410   28.4590   37.1980 C   0  0  0  0  0  0  0  0  0  0  0  0
   35.6220   29.2180   38.1090 C   0  0  0  0  0  0  0  0  0  0  0  0
   36.1700   30.3370   38.6400 N   0  0  0  0  0  0  0  0  0  0  0  0
   37.4140   30.7340   38.2960 C   0  0  0  0  0  0  0  0  0  0  0  0
   38.1260   30.0180   37.4190 N   0  0  0  0  0  0  0  0  0  0  0  0
   38.2910   28.3920   36.1620 H   0  0  0  0  0  0  0  0  0  0  0  0
   34.6300   28.8600   38.3540 H   0  0  0  0  0  0  0  0  0  0  0  0
   35.8950   27.2770   36.5720 N   0  0  0  0  0  0  0  0  0  0  0  0
   36.7070   26.7220   35.5350 C   0  0  0  0  0  0  0  0  0  0  0  0
   36.1220   25.5270   34.8710 C   0  0  0  0  0  0  0  0  0  0  0  0
   35.5930   24.5720   35.7770 N   0  0  0  0  0  0  0  0  0  0  0  0
   34.9990   25.0430   36.9630 C   0  0  0  0  0  0  0  0  0  0  0  0
   34.6930   26.5380   36.8480 C   0  0  0  0  0  0  0  0  0  0  0  0
   37.7200   26.4280   35.9140 H   0  0  0  0  0  0  0  0  0  0  0  0
   36.9040   27.5160   34.7720 H   0  0  0  0  0  0  0  0  0  0  0  0
   36.8930   25.0480   34.2420 H   0  0  0  0  0  0  0  0  0  0  0  0
   35.3220   25.8820   34.1590 H   0  0  0  0  0  0  0  0  0  0  0  0
   35.0720   23.8280   35.2560 H   0  0  0  0  0  0  0  0  0  0  0  0
   34.0400   24.5080   37.1420 H   0  0  0  0  0  0  0  0  0  0  0  0
   35.6360   24.9310   37.8610 H   0  0  0  0  0  0  0  0  0  0  0  0
   34.2390   26.8290   37.8160 H   0  0  0  0  0  0  0  0  0  0  0  0
   33.9140   26.6330   36.0800 H   0  0  0  0  0  0  0  0  0  0  0  0
  1  6  1  0  0  0  0
  2  1  2  0  0  0  0
  2  3  1  0  0  0  0
  3  4  2  0  0  0  0
  4  5  1  0  0  0  0
  4  9  1  0  0  0  0
  5  7  1  0  0  0  0
  6 12  1  0  0  0  0
  6  5  2  0  0  0  0
  8 13  1  6  0  0  0
  8  7  1  0  0  0  0
  8 15  1  0  0  0  0
  9  8  1  0  0  0  0
 10  1  1  0  0  0  0
 11  3  1  0  0  0  0
 14 20  1  0  0  0  0
 15 16  1  0  0  0  0
 15 14  2  0  0  0  0
 16 18  2  0  0  0  0
 17 16  1  0  0  0  0
 18 24  1  0  0  0  0
 18 19  1  0  0  0  0
 19 21  1  0  0  0  0
 20 19  2  0  0  0  0
 21 22  1  0  0  0  0
 22 23  1  0  0  0  0
 24 22  1  0  0  0  0
 25 26  2  0  0  0  0
 25 30  1  0  0  0  0
 26 27  1  0  0  0  0
 27 32  1  0  0  0  0
 27 28  2  0  0  0  0
 29 28  1  0  0  0  0
 29  2  1  0  0  0  0
 30 29  2  0  0  0  0
 31 25  1  0  0  0  0
 33 38  1  0  0  0  0
 33 26  1  0  0  0  0
 34 39  1  0  0  0  0
 34 33  1  0  0  0  0
 35 34  1  0  0  0  0
 35 36  1  0  0  0  0
 36 37  1  0  0  0  0
 37 44  1  0  0  0  0
 37 45  1  0  0  0  0
 38 37  1  0  0  0  0
 38 46  1  0  0  0  0
 40 34  1  0  0  0  0
 41 35  1  0  0  0  0
 42 35  1  0  0  0  0
 43 36  1  0  0  0  0
 47 38  1  0  0  0  0
M  END
>  <minimizedAffinity>
-6.98284197

$$$$

 OpenBabel03242518273D

 47 52  0  0  1  0  0  0  0  0999 V2000
   36.9440   31.7110   39.4420 C   0  0  0  0  0  0  0  0  0  0  0  0
   37.7720   30.6500   39.5270 C   0  0  0  0  0  0  0  0  0  0  0  0
   39.1000   30.8730   39.8600 C   0  0  0  0  0  0  0  0  0  0  0  0
   39.5470   32.1590   40.0970 C   0  0  0  0  0  0  0  0  0  0  0  0
   38.6840   33.2370   40.0060 C   0  0  0  0  0  0  0  0  0  0  0  0
   37.3570   33.0150   39.6730 C   0  0  0  0  0  0  0  0  0  0  0  0
   39.4120   34.4000   40.2960 O   0  0  0  0  0  0  0  0  0  0  0  0
   40.7890   34.0560   40.2110 C   0  0  2  0  0  0  0  0  0  0  0  0
   40.8090   32.6680   40.4450 O   0  0  0  0  0  0  0  0  0  0  0  0
   35.8930   31.5620   39.1810 H   0  0  0  0  0  0  0  0  0  0  0  0
   39.8220   30.0620   39.9460 H   0  0  0  0  0  0  0  0  0  0  0  0
   36.6540   33.8420   39.5930 H   0  0  0  0  0  0  0  0  0  0  0  0
   41.0560   34.2390   39.1320 H   0  0  0  0  0  0  0  0  0  0  0  0
   41.3190   36.0960   41.4830 C   0  0  0  0  0  3  0  0  0  0  0  0
   41.6620   34.8350   41.0830 C   0  0  0  0  0  0  0  0  0  0  0  0
   42.8570   34.2830   41.5090 C   0  0  0  0  0  0  0  0  0  0  0  0
   43.1720   33.2820   41.2150 H   0  0  0  0  0  0  0  0  0  0  0  0
   43.6710   35.0510   42.3410 C   0  0  0  0  0  0  0  0  0  0  0  0
   43.3290   36.3250   42.7480 C   0  0  0  0  0  0  0  0  0  0  0  0
   42.1320   36.8680   42.3160 C   0  0  0  0  0  3  0  0  0  0  0  0
   44.3740   36.7860   43.5670 O   0  0  0  0  0  0  0  0  0  0  0  0
   44.9980   35.6030   44.0850 C   0  0  0  0  0  3  0  0  0  0  0  0
   46.0220   35.7690   44.4260 H   0  0  0  0  0  0  0  0  0  0  0  0
   44.9170   34.7720   42.9250 O   0  0  0  0  0  0  0  0  0  0  0  0
   37.5450   26.9620   39.4240 C   0  0  0  0  0  0  0  0  0  0  0  0
   36.3410   26.7600   38.7670 C   0  0  0  0  0  0  0  0  0  0  0  0
   35.6310   27.8840   38.3720 C   0  0  0  0  0  0  0  0  0  0  0  0
   36.1210   29.1200   38.6330 N   0  0  0  0  0  0  0  0  0  0  0  0
   37.2980   29.2820   39.2760 C   0  0  0  0  0  0  0  0  0  0  0  0
   38.0000   28.2120   39.6650 N   0  0  0  0  0  0  0  0  0  0  0  0
   38.2060   26.1640   39.7890 H   0  0  0  0  0  0  0  0  0  0  0  0
   34.6940   27.7050   37.8610 H   0  0  0  0  0  0  0  0  0  0  0  0
   35.9500   25.4220   38.5600 N   0  0  0  0  0  0  0  0  0  0  0  0
   36.2000   24.4820   39.6080 C   0  0  0  0  0  0  0  0  0  0  0  0
   35.8360   23.0800   39.2750 C   0  0  0  0  0  0  0  0  0  0  0  0
   34.5620   22.9510   38.6640 N   0  0  0  0  0  0  0  0  0  0  0  0
   34.1330   23.9810   37.8060 C   0  0  0  0  0  0  0  0  0  0  0  0
   35.3150   24.8620   37.3980 C   0  0  0  0  0  0  0  0  0  0  0  0
   35.6530   24.7530   40.5470 H   0  0  0  0  0  0  0  0  0  0  0  0
   37.2840   24.5330   39.8820 H   0  0  0  0  0  0  0  0  0  0  0  0
   35.8640   22.4690   40.1950 H   0  0  0  0  0  0  0  0  0  0  0  0
   36.6410   22.6610   38.6040 H   0  0  0  0  0  0  0  0  0  0  0  0
   34.4210   21.9700   38.3250 H   0  0  0  0  0  0  0  0  0  0  0  0
   33.6940   23.5440   36.8820 H   0  0  0  0  0  0  0  0  0  0  0  0
   33.3870   24.6630   38.2600 H   0  0  0  0  0  0  0  0  0  0  0  0
   34.8940   25.6450   36.7360 H   0  0  0  0  0  0  0  0  0  0  0  0
   35.9680   24.2310   36.7820 H   0  0  0  0  0  0  0  0  0  0  0  0
  1  2  2  0  0  0  0
  1  6  1  0  0  0  0
  2  3  1  0  0  0  0
  3 11  1  0  0  0  0
  3  4  2  0  0  0  0
  4  9  1  0  0  0  0
  5  4  1  0  0  0  0
  5  7  1  0  0  0  0
  6  5  2  0  0  0  0
  8 13  1  6  0  0  0
  8  7  1  0  0  0  0
  8  9  1  0  0  0  0
  8 15  1  0  0  0  0
 10  1  1  0  0  0  0
 12  6  1  0  0  0  0
 14 20  1  0  0  0  0
 15 14  2  0  0  0  0
 15 16  1  0  0  0  0
 16 18  2  0  0  0  0
 17 16  1  0  0  0  0
 18 19  1  0  0  0  0
 18 24  1  0  0  0  0
 19 21  1  0  0  0  0
 20 19  2  0  0  0  0
 21 22  1  0  0  0  0
 22 23  1  0  0  0  0
 24 22  1  0  0  0  0
 25 30  1  0  0  0  0
 25 31  1  0  0  0  0
 26 25  2  0  0  0  0
 27 28  2  0  0  0  0
 27 26  1  0  0  0  0
 28 29  1  0  0  0  0
 29  2  1  0  0  0  0
 29 30  2  0  0  0  0
 32 27  1  0  0  0  0
 33 26  1  0  0  0  0
 33 34  1  0  0  0  0
 34 40  1  0  0  0  0
 34 39  1  0  0  0  0
 35 34  1  0  0  0  0
 35 41  1  0  0  0  0
 36 35  1  0  0  0  0
 37 45  1  0  0  0  0
 37 36  1  0  0  0  0
 38 37  1  0  0  0  0
 38 33  1  0  0  0  0
 42 35  1  0  0  0  0
 43 36  1  0  0  0  0
 44 37  1  0  0  0  0
 46 38  1  0  0  0  0
 47 38  1  0  0  0  0
M  END
>  <minimizedAffinity>
-6.61008263

$$$$

 OpenBabel03242518273D

 47 52  0  0  1  0  0  0  0  0999 V2000
   36.4080   29.6520   38.5780 C   0  0  0  0  0  0  0  0  0  0  0  0
   37.5210   29.7820   39.3300 C   0  0  0  0  0  0  0  0  0  0  0  0
   38.0400   28.6520   39.9430 C   0  0  0  0  0  0  0  0  0  0  0  0
   37.4210   27.4290   39.7760 C   0  0  0  0  0  0  0  0  0  0  0  0
   36.2800   27.3110   39.0010 C   0  0  0  0  0  0  0  0  0  0  0  0
   35.7600   28.4410   38.3880 C   0  0  0  0  0  0  0  0  0  0  0  0
   35.8830   25.9660   39.0160 O   0  0  0  0  0  0  0  0  0  0  0  0
   36.5780   25.3440   40.0880 C   0  0  2  0  0  0  0  0  0  0  0  0
   37.7200   26.1470   40.2670 O   0  0  0  0  0  0  0  0  0  0  0  0
   35.9800   30.5270   38.0850 H   0  0  0  0  0  0  0  0  0  0  0  0
   38.9350   28.6860   40.5640 H   0  0  0  0  0  0  0  0  0  0  0  0
   34.8650   28.3810   37.7720 H   0  0  0  0  0  0  0  0  0  0  0  0
   35.9020   25.4830   40.9770 H   0  0  0  0  0  0  0  0  0  0  0  0
   38.0080   23.3570   40.3480 C   0  0  0  0  0  3  0  0  0  0  0  0
   36.8540   23.9240   39.8860 C   0  0  0  0  0  0  0  0  0  0  0  0
   35.9300   23.1460   39.2140 C   0  0  0  0  0  0  0  0  0  0  0  0
   34.9960   23.5550   38.8280 H   0  0  0  0  0  0  0  0  0  0  0  0
   36.2210   21.7940   39.0360 C   0  0  0  0  0  0  0  0  0  0  0  0
   37.3840   21.2150   39.5000 C   0  0  0  0  0  0  0  0  0  0  0  0
   38.3040   22.0030   40.1710 C   0  0  0  0  0  3  0  0  0  0  0  0
   37.3360   19.8570   39.1440 O   0  0  0  0  0  0  0  0  0  0  0  0
   35.9410   19.5510   39.0080 C   0  0  0  0  0  3  0  0  0  0  0  0
   35.7500   18.6700   38.3910 H   0  0  0  0  0  0  0  0  0  0  0  0
   35.4950   20.7690   38.4080 O   0  0  0  0  0  0  0  0  0  0  0  0
   40.0800   32.4470   39.4680 C   0  0  0  0  0  0  0  0  0  0  0  0
   39.3360   33.5480   39.8650 C   0  0  0  0  0  0  0  0  0  0  0  0
   37.9780   33.3600   40.0790 C   0  0  0  0  0  0  0  0  0  0  0  0
   37.4280   32.1360   39.8970 N   0  0  0  0  0  0  0  0  0  0  0  0
   38.1810   31.0830   39.5080 C   0  0  0  0  0  0  0  0  0  0  0  0
   39.4920   31.2410   39.2980 N   0  0  0  0  0  0  0  0  0  0  0  0
   41.1590   32.4550   39.2650 H   0  0  0  0  0  0  0  0  0  0  0  0
   37.4160   34.2310   40.3890 H   0  0  0  0  0  0  0  0  0  0  0  0
   40.0350   34.7620   40.0160 N   0  0  0  0  0  0  0  0  0  0  0  0
   39.2740   35.9700   40.0830 C   0  0  0  0  0  0  0  0  0  0  0  0
   40.0930   37.2080   40.1560 C   0  0  0  0  0  0  0  0  0  0  0  0
   41.1570   37.1350   41.0900 N   0  0  0  0  0  0  0  0  0  0  0  0
   41.7950   35.8930   41.2690 C   0  0  0  0  0  0  0  0  0  0  0  0
   41.4580   34.9490   40.1140 C   0  0  0  0  0  0  0  0  0  0  0  0
   38.5830   35.9760   40.9640 H   0  0  0  0  0  0  0  0  0  0  0  0
   38.6010   36.0170   39.1890 H   0  0  0  0  0  0  0  0  0  0  0  0
   39.4390   38.0610   40.4110 H   0  0  0  0  0  0  0  0  0  0  0  0
   40.4880   37.4250   39.1210 H   0  0  0  0  0  0  0  0  0  0  0  0
   41.7790   37.9720   40.9960 H   0  0  0  0  0  0  0  0  0  0  0  0
   42.8990   36.0350   41.2870 H   0  0  0  0  0  0  0  0  0  0  0  0
   41.4960   35.3620   42.1940 H   0  0  0  0  0  0  0  0  0  0  0  0
   41.9880   34.0000   40.3340 H   0  0  0  0  0  0  0  0  0  0  0  0
   41.9220   35.3830   39.2180 H   0  0  0  0  0  0  0  0  0  0  0  0
  1  2  1  0  0  0  0
  2 29  1  0  0  0  0
  2  3  2  0  0  0  0
  3 11  1  0  0  0  0
  4  3  1  0  0  0  0
  4  9  1  0  0  0  0
  5  7  1  0  0  0  0
  5  4  2  0  0  0  0
  6  1  2  0  0  0  0
  6  5  1  0  0  0  0
  7  8  1  0  0  0  0
  8  9  1  0  0  0  0
  8 13  1  1  0  0  0
 10  1  1  0  0  0  0
 12  6  1  0  0  0  0
 15  8  1  0  0  0  0
 15 14  2  0  0  0  0
 16 15  1  0  0  0  0
 17 16  1  0  0  0  0
 18 16  2  0  0  0  0
 18 19  1  0  0  0  0
 19 20  2  0  0  0  0
 20 14  1  0  0  0  0
 21 19  1  0  0  0  0
 22 21  1  0  0  0  0
 23 22  1  0  0  0  0
 24 22  1  0  0  0  0
 24 18  1  0  0  0  0
 25 26  1  0  0  0  0
 26 33  1  0  0  0  0
 26 27  2  0  0  0  0
 27 32  1  0  0  0  0
 28 27  1  0  0  0  0
 29 28  2  0  0  0  0
 30 25  2  0  0  0  0
 30 29  1  0  0  0  0
 31 25  1  0  0  0  0
 33 34  1  0  0  0  0
 33 38  1  0  0  0  0
 34 35  1  0  0  0  0
 34 39  1  0  0  0  0
 35 41  1  0  0  0  0
 35 36  1  0  0  0  0
 36 37  1  0  0  0  0
 37 44  1  0  0  0  0
 37 45  1  0  0  0  0
 38 46  1  0  0  0  0
 38 37  1  0  0  0  0
 40 34  1  0  0  0  0
 42 35  1  0  0  0  0
 43 36  1  0  0  0  0
 47 38  1  0  0  0  0
M  END
>  <minimizedAffinity>
-6.60545254

$$$$

 OpenBabel03242518273D

 47 52  0  0  1  0  0  0  0  0999 V2000
   35.8110   28.8820   40.5410 C   0  0  0  0  0  0  0  0  0  0  0  0
   36.9030   28.2180   40.1070 C   0  0  0  0  0  0  0  0  0  0  0  0
   38.0360   28.9500   39.7860 C   0  0  0  0  0  0  0  0  0  0  0  0
   38.0310   30.3250   39.9150 C   0  0  0  0  0  0  0  0  0  0  0  0
   36.9030   30.9910   40.3620 C   0  0  0  0  0  0  0  0  0  0  0  0
   35.7690   30.2610   40.6820 C   0  0  0  0  0  0  0  0  0  0  0  0
   37.1930   32.3630   40.3890 O   0  0  0  0  0  0  0  0  0  0  0  0
   38.3730   32.5500   39.6200 C   0  0  2  0  0  0  0  0  0  0  0  0
   39.0140   31.2980   39.6680 O   0  0  0  0  0  0  0  0  0  0  0  0
   34.9060   28.3280   40.8000 H   0  0  0  0  0  0  0  0  0  0  0  0
   38.9510   28.4780   39.4290 H   0  0  0  0  0  0  0  0  0  0  0  0
   34.8660   30.7550   41.0370 H   0  0  0  0  0  0  0  0  0  0  0  0
   37.9990   32.7190   38.5720 H   0  0  0  0  0  0  0  0  0  0  0  0
   38.6900   34.9420   40.1070 C   0  0  0  0  0  3  0  0  0  0  0  0
   39.1990   33.6760   40.0450 C   0  0  0  0  0  0  0  0  0  0  0  0
   40.5190   33.4510   40.3900 C   0  0  0  0  0  0  0  0  0  0  0  0
   40.9680   32.4580   40.3560 H   0  0  0  0  0  0  0  0  0  0  0  0
   41.2850   34.5460   40.7920 C   0  0  0  0  0  0  0  0  0  0  0  0
   40.7760   35.8270   40.8560 C   0  0  0  0  0  0  0  0  0  0  0  0
   39.4540   36.0410   40.5090 C   0  0  0  0  0  3  0  0  0  0  0  0
   41.8200   36.6590   41.2960 O   0  0  0  0  0  0  0  0  0  0  0  0
   42.7100   35.7990   42.0180 C   0  0  0  0  0  3  0  0  0  0  0  0
   43.7240   36.1980   42.1010 H   0  0  0  0  0  0  0  0  0  0  0  0
   42.6270   34.6340   41.1950 O   0  0  0  0  0  0  0  0  0  0  0  0
   37.5850   24.6290   40.6700 C   0  0  0  0  0  0  0  0  0  0  0  0
   36.8710   24.0290   39.6430 C   0  0  0  0  0  0  0  0  0  0  0  0
   36.1730   24.8600   38.7790 C   0  0  0  0  0  0  0  0  0  0  0  0
   36.2050   26.2030   38.9580 N   0  0  0  0  0  0  0  0  0  0  0  0
   36.9100   26.7550   39.9700 C   0  0  0  0  0  0  0  0  0  0  0  0
   37.5910   25.9730   40.8140 N   0  0  0  0  0  0  0  0  0  0  0  0
   38.1790   24.0920   41.4220 H   0  0  0  0  0  0  0  0  0  0  0  0
   35.6230   24.3730   37.9850 H   0  0  0  0  0  0  0  0  0  0  0  0
   36.9240   22.6230   39.5730 N   0  0  0  0  0  0  0  0  0  0  0  0
   35.8910   21.9490   38.8530 C   0  0  0  0  0  0  0  0  0  0  0  0
   35.9750   20.4650   38.9010 C   0  0  0  0  0  0  0  0  0  0  0  0
   37.2790   19.9600   38.6650 N   0  0  0  0  0  0  0  0  0  0  0  0
   38.3740   20.7130   39.1280 C   0  0  0  0  0  0  0  0  0  0  0  0
   37.9120   21.7520   40.1510 C   0  0  0  0  0  0  0  0  0  0  0  0
   35.8770   22.2450   37.7730 H   0  0  0  0  0  0  0  0  0  0  0  0
   34.9000   22.2810   39.2550 H   0  0  0  0  0  0  0  0  0  0  0  0
   35.2760   20.0370   38.1610 H   0  0  0  0  0  0  0  0  0  0  0  0
   35.5960   20.1290   39.9100 H   0  0  0  0  0  0  0  0  0  0  0  0
   37.3070   18.9300   38.8520 H   0  0  0  0  0  0  0  0  0  0  0  0
   39.1100   20.0430   39.6260 H   0  0  0  0  0  0  0  0  0  0  0  0
   38.8980   21.2810   38.3340 H   0  0  0  0  0  0  0  0  0  0  0  0
   38.8250   22.3030   40.4570 H   0  0  0  0  0  0  0  0  0  0  0  0
   37.5640   21.1870   41.0260 H   0  0  0  0  0  0  0  0  0  0  0  0
  1  6  1  0  0  0  0
  1 10  1  0  0  0  0
  2  1  2  0  0  0  0
  3  4  2  0  0  0  0
  3  2  1  0  0  0  0
  4  5  1  0  0  0  0
  5  7  1  0  0  0  0
  5  6  2  0  0  0  0
  6 12  1  0  0  0  0
  8 13  1  6  0  0  0
  8  9  1  0  0  0  0
  8 15  1  0  0  0  0
  8  7  1  0  0  0  0
  9  4  1  0  0  0  0
 11  3  1  0  0  0  0
 14 20  1  0  0  0  0
 15 14  2  0  0  0  0
 15 16  1  0  0  0  0
 16 18  2  0  0  0  0
 17 16  1  0  0  0  0
 18 19  1  0  0  0  0
 18 24  1  0  0  0  0
 19 21  1  0  0  0  0
 20 19  2  0  0  0  0
 21 22  1  0  0  0  0
 22 23  1  0  0  0  0
 24 22  1  0  0  0  0
 25 30  1  0  0  0  0
 25 31  1  0  0  0  0
 26 25  2  0  0  0  0
 27 28  2  0  0  0  0
 27 26  1  0  0  0  0
 28 29  1  0  0  0  0
 29  2  1  0  0  0  0
 29 30  2  0  0  0  0
 32 27  1  0  0  0  0
 33 26  1  0  0  0  0
 33 38  1  0  0  0  0
 34 35  1  0  0  0  0
 34 40  1  0  0  0  0
 34 33  1  0  0  0  0
 35 42  1  0  0  0  0
 36 43  1  0  0  0  0
 36 35  1  0  0  0  0
 36 37  1  0  0  0  0
 37 44  1  0  0  0  0
 37 38  1  0  0  0  0
 38 46  1  0  0  0  0
 38 47  1  0  0  0  0
 39 34  1  0  0  0  0
 41 35  1  0  0  0  0
 45 37  1  0  0  0  0
M  END
>  <minimizedAffinity>
-6.58844614

$$$$

 OpenBabel03242518273D

 47 52  0  0  1  0  0  0  0  0999 V2000
   38.2540   28.7020   41.9930 C   0  0  0  0  0  0  0  0  0  0  0  0
   38.3440   29.3630   40.8210 C   0  0  0  0  0  0  0  0  0  0  0  0
   37.8760   28.7400   39.6740 C   0  0  0  0  0  0  0  0  0  0  0  0
   37.3330   27.4720   39.7480 C   0  0  0  0  0  0  0  0  0  0  0  0
   37.2470   26.8070   40.9580 C   0  0  0  0  0  0  0  0  0  0  0  0
   37.7150   27.4290   42.1060 C   0  0  0  0  0  0  0  0  0  0  0  0
   36.6590   25.5560   40.7240 O   0  0  0  0  0  0  0  0  0  0  0  0
   36.7180   25.3280   39.3230 C   0  0  2  0  0  0  0  0  0  0  0  0
   36.7930   26.6210   38.7700 O   0  0  0  0  0  0  0  0  0  0  0  0
   38.6160   29.1710   42.9110 H   0  0  0  0  0  0  0  0  0  0  0  0
   37.9190   29.2170   38.6950 H   0  0  0  0  0  0  0  0  0  0  0  0
   37.6620   26.9330   43.0730 H   0  0  0  0  0  0  0  0  0  0  0  0
   37.7090   24.8170   39.1660 H   0  0  0  0  0  0  0  0  0  0  0  0
   34.9410   24.8710   37.6820 C   0  0  0  0  0  3  0  0  0  0  0  0
   35.6370   24.5000   38.7980 C   0  0  0  0  0  0  0  0  0  0  0  0
   35.3150   23.3210   39.4450 C   0  0  0  0  0  0  0  0  0  0  0  0
   35.8430   22.9850   40.3380 H   0  0  0  0  0  0  0  0  0  0  0  0
   34.2770   22.5510   38.9210 C   0  0  0  0  0  0  0  0  0  0  0  0
   33.5710   22.9210   37.7950 C   0  0  0  0  0  0  0  0  0  0  0  0
   33.9010   24.1030   37.1550 C   0  0  0  0  0  3  0  0  0  0  0  0
   32.6140   21.9170   37.5650 O   0  0  0  0  0  0  0  0  0  0  0  0
   33.1470   20.7380   38.1830 C   0  0  0  0  0  3  0  0  0  0  0  0
   32.3860   19.9900   38.4140 H   0  0  0  0  0  0  0  0  0  0  0  0
   33.7300   21.3300   39.3460 O   0  0  0  0  0  0  0  0  0  0  0  0
   38.7130   33.0410   40.7570 C   0  0  0  0  0  0  0  0  0  0  0  0
   40.0800   33.1960   40.5800 C   0  0  0  0  0  0  0  0  0  0  0  0
   40.8470   32.0440   40.4850 C   0  0  0  0  0  0  0  0  0  0  0  0
   40.2560   30.8280   40.5670 N   0  0  0  0  0  0  0  0  0  0  0  0
   38.9210   30.7120   40.7400 C   0  0  0  0  0  0  0  0  0  0  0  0
   38.1620   31.8090   40.8340 N   0  0  0  0  0  0  0  0  0  0  0  0
   37.9920   33.8640   40.8470 H   0  0  0  0  0  0  0  0  0  0  0  0
   41.9110   32.1870   40.3460 H   0  0  0  0  0  0  0  0  0  0  0  0
   40.5630   34.5180   40.5120 N   0  0  0  0  0  0  0  0  0  0  0  0
   39.6330   35.5540   40.1870 C   0  0  0  0  0  0  0  0  0  0  0  0
   40.2400   36.9040   40.0530 C   0  0  0  0  0  0  0  0  0  0  0  0
   41.1420   37.2320   41.0980 N   0  0  0  0  0  0  0  0  0  0  0  0
   41.9170   36.1960   41.6520 C   0  0  0  0  0  0  0  0  0  0  0  0
   41.9090   34.9740   40.7310 C   0  0  0  0  0  0  0  0  0  0  0  0
   38.8170   35.6320   40.9510 H   0  0  0  0  0  0  0  0  0  0  0  0
   39.1120   35.2810   39.2350 H   0  0  0  0  0  0  0  0  0  0  0  0
   39.4370   37.6610   40.0100 H   0  0  0  0  0  0  0  0  0  0  0  0
   40.7600   36.9530   39.0520 H   0  0  0  0  0  0  0  0  0  0  0  0
   41.6420   38.1250   40.8780 H   0  0  0  0  0  0  0  0  0  0  0  0
   42.9700   36.5330   41.7670 H   0  0  0  0  0  0  0  0  0  0  0  0
   41.5540   35.8380   42.6350 H   0  0  0  0  0  0  0  0  0  0  0  0
   42.5290   34.2080   41.2390 H   0  0  0  0  0  0  0  0  0  0  0  0
   42.4420   35.2740   39.8190 H   0  0  0  0  0  0  0  0  0  0  0  0
  1  6  1  0  0  0  0
  1 10  1  0  0  0  0
  2  1  2  0  0  0  0
  3  4  2  0  0  0  0
  3  2  1  0  0  0  0
  4  5  1  0  0  0  0
  5  6  2  0  0  0  0
  6 12  1  0  0  0  0
  7  5  1  0  0  0  0
  8 13  1  6  0  0  0
  8  7  1  0  0  0  0
  9  8  1  0  0  0  0
  9  4  1  0  0  0  0
 11  3  1  0  0  0  0
 14 15  1  0  0  0  0
 15  8  1  0  0  0  0
 15 16  2  0  0  0  0
 16 17  1  0  0  0  0
 18 24  1  0  0  0  0
 18 16  1  0  0  0  0
 19 18  2  0  0  0  0
 20 14  2  0  0  0  0
 20 19  1  0  0  0  0
 21 19  1  0  0  0  0
 21 22  1  0  0  0  0
 22 23  1  0  0  0  0
 22 24  1  0  0  0  0
 25 30  1  0  0  0  0
 25 31  1  0  0  0  0
 26 25  2  0  0  0  0
 27 28  2  0  0  0  0
 27 26  1  0  0  0  0
 28 29  1  0  0  0  0
 29  2  1  0  0  0  0
 29 30  2  0  0  0  0
 32 27  1  0  0  0  0
 33 26  1  0  0  0  0
 33 38  1  0  0  0  0
 34 33  1  0  0  0  0
 34 39  1  0  0  0  0
 35 34  1  0  0  0  0
 35 36  1  0  0  0  0
 36 37  1  0  0  0  0
 37 44  1  0  0  0  0
 37 45  1  0  0  0  0
 38 46  1  0  0  0  0
 38 37  1  0  0  0  0
 40 34  1  0  0  0  0
 41 35  1  0  0  0  0
 42 35  1  0  0  0  0
 43 36  1  0  0  0  0
 47 38  1  0  0  0  0
M  END
>  <minimizedAffinity>
-6.46106529

$$$$

 OpenBabel03242518273D

 47 52  0  0  1  0  0  0  0  0999 V2000
   37.1260   26.7930   42.3570 C   0  0  0  0  0  0  0  0  0  0  0  0
   37.3030   26.4480   41.0650 C   0  0  0  0  0  0  0  0  0  0  0  0
   37.5440   27.4530   40.1400 C   0  0  0  0  0  0  0  0  0  0  0  0
   37.6010   28.7710   40.5500 C   0  0  0  0  0  0  0  0  0  0  0  0
   37.4180   29.1080   41.8800 C   0  0  0  0  0  0  0  0  0  0  0  0
   37.1760   28.1050   42.8050 C   0  0  0  0  0  0  0  0  0  0  0  0
   37.5300   30.5010   41.9920 O   0  0  0  0  0  0  0  0  0  0  0  0
   37.4240   31.0310   40.6770 C   0  0  2  0  0  0  0  0  0  0  0  0
   37.8250   29.9670   39.8480 O   0  0  0  0  0  0  0  0  0  0  0  0
   36.9340   26.0200   43.1050 H   0  0  0  0  0  0  0  0  0  0  0  0
   37.6960   27.2440   39.0820 H   0  0  0  0  0  0  0  0  0  0  0  0
   37.0280   28.3370   43.8580 H   0  0  0  0  0  0  0  0  0  0  0  0
   36.3200   31.1980   40.5320 H   0  0  0  0  0  0  0  0  0  0  0  0
   37.5120   33.4070   40.0420 C   0  0  0  0  0  3  0  0  0  0  0  0
   38.1530   32.2780   40.4670 C   0  0  0  0  0  0  0  0  0  0  0  0
   39.5150   32.3110   40.7030 C   0  0  0  0  0  0  0  0  0  0  0  0
   40.0670   31.4350   41.0430 H   0  0  0  0  0  0  0  0  0  0  0  0
   40.1840   33.5160   40.4930 C   0  0  0  0  0  0  0  0  0  0  0  0
   39.5430   34.6600   40.0640 C   0  0  0  0  0  0  0  0  0  0  0  0
   38.1790   34.6160   39.8300 C   0  0  0  0  0  3  0  0  0  0  0  0
   40.5210   35.6640   39.9650 O   0  0  0  0  0  0  0  0  0  0  0  0
   41.5620   35.2680   40.8670 C   0  0  0  0  0  3  0  0  0  0  0  0
   42.5280   35.7250   40.6400 H   0  0  0  0  0  0  0  0  0  0  0  0
   41.5380   33.8570   40.6430 O   0  0  0  0  0  0  0  0  0  0  0  0
   37.9410   22.8190   40.7670 C   0  0  0  0  0  0  0  0  0  0  0  0
   37.0720   22.4500   39.7510 C   0  0  0  0  0  0  0  0  0  0  0  0
   36.2870   23.4460   39.1890 C   0  0  0  0  0  0  0  0  0  0  0  0
   36.3860   24.7200   39.6360 N   0  0  0  0  0  0  0  0  0  0  0  0
   37.2440   25.0460   40.6280 C   0  0  0  0  0  0  0  0  0  0  0  0
   38.0110   24.1030   41.1840 N   0  0  0  0  0  0  0  0  0  0  0  0
   38.6180   22.1350   41.2970 H   0  0  0  0  0  0  0  0  0  0  0  0
   35.6150   23.1370   38.3980 H   0  0  0  0  0  0  0  0  0  0  0  0
   37.0690   21.0900   39.3840 N   0  0  0  0  0  0  0  0  0  0  0  0
   38.1950   20.2930   39.7590 C   0  0  0  0  0  0  0  0  0  0  0  0
   38.1510   18.8940   39.2590 C   0  0  0  0  0  0  0  0  0  0  0  0
   36.8960   18.2600   39.4480 N   0  0  0  0  0  0  0  0  0  0  0  0
   35.7350   19.0480   39.3480 C   0  0  0  0  0  0  0  0  0  0  0  0
   36.0510   20.3770   38.6610 C   0  0  0  0  0  0  0  0  0  0  0  0
   38.3180   20.2450   40.8710 H   0  0  0  0  0  0  0  0  0  0  0  0
   39.1260   20.7940   39.3880 H   0  0  0  0  0  0  0  0  0  0  0  0
   38.9390   18.3040   39.7610 H   0  0  0  0  0  0  0  0  0  0  0  0
   38.4280   18.9060   38.1650 H   0  0  0  0  0  0  0  0  0  0  0  0
   36.8800   17.3360   38.9540 H   0  0  0  0  0  0  0  0  0  0  0  0
   34.9710   18.5180   38.7390 H   0  0  0  0  0  0  0  0  0  0  0  0
   35.2840   19.3110   40.3250 H   0  0  0  0  0  0  0  0  0  0  0  0
   35.0950   20.9370   38.6290 H   0  0  0  0  0  0  0  0  0  0  0  0
   36.3190   20.1300   37.6250 H   0  0  0  0  0  0  0  0  0  0  0  0
  1  6  1  0  0  0  0
  1 10  1  0  0  0  0
  2  1  2  0  0  0  0
  3  4  2  0  0  0  0
  3  2  1  0  0  0  0
  4  5  1  0  0  0  0
  5  7  1  0  0  0  0
  5  6  2  0  0  0  0
  6 12  1  0  0  0  0
  8 13  1  6  0  0  0
  8  7  1  0  0  0  0
  9  4  1  0  0  0  0
  9  8  1  0  0  0  0
 11  3  1  0  0  0  0
 14 15  1  0  0  0  0
 15  8  1  0  0  0  0
 15 16  2  0  0  0  0
 16 17  1  0  0  0  0
 18 24  1  0  0  0  0
 18 16  1  0  0  0  0
 19 18  2  0  0  0  0
 20 14  2  0  0  0  0
 20 19  1  0  0  0  0
 21 19  1  0  0  0  0
 21 22  1  0  0  0  0
 23 22  1  0  0  0  0
 24 22  1  0  0  0  0
 25 30  1  0  0  0  0
 25 31  1  0  0  0  0
 26 25  2  0  0  0  0
 27 28  2  0  0  0  0
 27 26  1  0  0  0  0
 28 29  1  0  0  0  0
 29  2  1  0  0  0  0
 29 30  2  0  0  0  0
 32 27  1  0  0  0  0
 33 26  1  0  0  0  0
 33 34  1  0  0  0  0
 34 39  1  0  0  0  0
 35 36  1  0  0  0  0
 35 34  1  0  0  0  0
 35 41  1  0  0  0  0
 37 36  1  0  0  0  0
 37 45  1  0  0  0  0
 38 37  1  0  0  0  0
 38 33  1  0  0  0  0
 40 34  1  0  0  0  0
 42 35  1  0  0  0  0
 43 36  1  0  0  0  0
 44 37  1  0  0  0  0
 46 38  1  0  0  0  0
 47 38  1  0  0  0  0
M  END
>  <minimizedAffinity>
-6.43205976

$$$$
