
 OpenBabel03242510233D

 40 44  0  0  1  0  0  0  0  0999 V2000
   48.0550   33.1980   43.2220 N   0  0  0  0  0  0  0  0  0  0  0  0
   49.2120   33.2280   42.4540 C   0  0  0  0  0  0  0  0  0  0  0  0
   50.3600   32.7580   42.6740 O   0  0  0  0  0  0  0  0  0  0  0  0
   47.5530   34.1110   43.2030 H   0  0  0  0  0  0  0  0  0  0  0  0
   46.2430   32.0680   44.4590 C   0  0  1  0  0  0  0  0  0  0  0  0
   46.4030   31.3490   43.2700 C   0  0  0  0  0  0  0  0  0  0  0  0
   47.6280   32.0510   43.9390 C   0  0  1  0  0  0  0  0  0  0  0  0
   46.0480   31.5880   45.4490 H   0  0  0  0  0  0  0  0  0  0  0  0
   46.1650   31.6610   42.2390 H   0  0  0  0  0  0  0  0  0  0  0  0
   46.4200   30.2170   43.3270 H   0  0  0  0  0  0  0  0  0  0  0  0
   48.3620   31.3110   44.3170 H   0  0  0  0  0  0  0  0  0  0  0  0
   45.0350   33.9740   43.1590 C   0  0  0  0  0  0  0  0  0  0  0  0
   45.5210   33.4250   44.3890 C   0  0  0  0  0  0  0  0  0  0  0  0
   45.3410   34.1710   45.5340 C   0  0  0  0  0  0  0  0  0  0  0  0
   44.7250   35.3690   45.4490 N   0  0  0  0  0  0  0  0  0  0  0  0
   44.2700   35.8780   44.2750 C   0  0  0  0  0  0  0  0  0  0  0  0
   44.4370   35.1470   43.0950 N   0  0  0  0  0  0  0  0  0  0  0  0
   45.1590   33.3850   42.2720 H   0  0  0  0  0  0  0  0  0  0  0  0
   45.6960   33.7830   46.4850 H   0  0  0  0  0  0  0  0  0  0  0  0
   43.7850   36.8450   44.2690 H   0  0  0  0  0  0  0  0  0  0  0  0
   49.1840   33.9170   41.0990 C   0  0  2  0  0  0  0  0  0  0  0  0
   48.6650   35.4030   41.0920 C   0  0  0  0  0  0  0  0  0  0  0  0
   47.9200   34.2720   40.4470 C   0  0  1  0  0  0  0  0  0  0  0  0
   50.1000   33.8520   40.4780 H   0  0  0  0  0  0  0  0  0  0  0  0
   48.3150   35.7210   42.0950 H   0  0  0  0  0  0  0  0  0  0  0  0
   49.1440   36.1060   40.4160 H   0  0  0  0  0  0  0  0  0  0  0  0
   47.0510   33.7560   40.9090 H   0  0  0  0  0  0  0  0  0  0  0  0
   47.8820   34.2380   38.9380 C   0  0  0  0  0  0  0  0  0  0  0  0
   48.7200   34.8690   38.3010 O   0  0  0  0  0  0  0  0  0  0  0  0
   46.9200   33.1490   36.8720 C   0  0  0  0  0  3  0  0  0  0  0  0
   46.8760   33.4730   38.2110 C   0  0  0  0  0  0  0  0  0  0  0  0
   45.7570   33.0040   38.8660 C   0  0  0  0  0  0  0  0  0  0  0  0
   45.5850   33.1820   39.9240 H   0  0  0  0  0  0  0  0  0  0  0  0
   44.7590   32.2740   38.2560 C   0  0  0  0  0  0  0  0  0  0  0  0
   44.8480   31.9750   36.9150 C   0  0  0  0  0  0  0  0  0  0  0  0
   45.9450   32.4220   36.2250 C   0  0  0  0  0  3  0  0  0  0  0  0
   43.7170   31.2370   36.5670 O   0  0  0  0  0  0  0  0  0  0  0  0
   42.7060   31.5100   37.5480 C   0  0  0  0  0  3  0  0  0  0  0  0
   42.2550   32.5250   37.3870 H   0  0  0  0  0  0  0  0  0  0  0  0
   43.5570   31.6990   38.6870 O   0  0  0  0  0  0  0  0  0  0  0  0
  1  7  1  0  0  0  0
  2  3  2  0  0  0  0
  2  1  1  0  0  0  0
  4  1  1  0  0  0  0
  5  8  1  1  0  0  0
  6 10  1  0  0  0  0
  6  7  1  0  0  0  0
  6  5  1  0  0  0  0
  7 11  1  1  0  0  0
  7  5  1  0  0  0  0
  9  6  1  0  0  0  0
 12 13  1  0  0  0  0
 13  5  1  0  0  0  0
 13 14  2  0  0  0  0
 14 19  1  0  0  0  0
 15 14  1  0  0  0  0
 16 15  2  0  0  0  0
 17 12  2  0  0  0  0
 17 16  1  0  0  0  0
 18 12  1  0  0  0  0
 20 16  1  0  0  0  0
 21 24  1  6  0  0  0
 21  2  1  0  0  0  0
 22 21  1  0  0  0  0
 22 25  1  0  0  0  0
 23 27  1  1  0  0  0
 23 22  1  0  0  0  0
 23 21  1  0  0  0  0
 26 22  1  0  0  0  0
 28 23  1  0  0  0  0
 29 28  2  0  0  0  0
 30 31  1  0  0  0  0
 31 32  2  0  0  0  0
 31 28  1  0  0  0  0
 32 33  1  0  0  0  0
 34 40  1  0  0  0  0
 34 32  1  0  0  0  0
 35 34  2  0  0  0  0
 36 30  2  0  0  0  0
 36 35  1  0  0  0  0
 37 35  1  0  0  0  0
 37 38  1  0  0  0  0
 38 40  1  0  0  0  0
 39 38  1  0  0  0  0
M  END
>  <minimizedAffinity>
-5.21303558

>  <minimizedRMSD>
0.316767216

$$$$
