
 OpenBabel03242510233D

 40 44  0  0  1  0  0  0  0  0999 V2000
   48.0550   33.1870   43.2700 N   0  0  0  0  0  0  0  0  0  0  0  0
   49.2040   33.1960   42.4900 C   0  0  0  0  0  0  0  0  0  0  0  0
   50.3480   32.7150   42.7020 O   0  0  0  0  0  0  0  0  0  0  0  0
   47.5630   34.1060   43.2470 H   0  0  0  0  0  0  0  0  0  0  0  0
   46.2330   32.0760   44.5090 C   0  0  1  0  0  0  0  0  0  0  0  0
   46.4050   31.3370   43.3340 C   0  0  0  0  0  0  0  0  0  0  0  0
   47.6220   32.0520   44.0030 C   0  0  1  0  0  0  0  0  0  0  0  0
   46.0280   31.6130   45.5050 H   0  0  0  0  0  0  0  0  0  0  0  0
   46.1770   31.6300   42.2950 H   0  0  0  0  0  0  0  0  0  0  0  0
   46.4230   30.2060   43.4100 H   0  0  0  0  0  0  0  0  0  0  0  0
   48.3540   31.3200   44.4010 H   0  0  0  0  0  0  0  0  0  0  0  0
   45.0240   33.9510   43.1650 C   0  0  0  0  0  0  0  0  0  0  0  0
   45.5090   33.4300   44.4070 C   0  0  0  0  0  0  0  0  0  0  0  0
   45.3260   34.2010   45.5360 C   0  0  0  0  0  0  0  0  0  0  0  0
   44.7090   35.3960   45.4230 N   0  0  0  0  0  0  0  0  0  0  0  0
   44.2560   35.8790   44.2370 C   0  0  0  0  0  0  0  0  0  0  0  0
   44.4240   35.1220   43.0740 N   0  0  0  0  0  0  0  0  0  0  0  0
   45.1490   33.3430   42.2920 H   0  0  0  0  0  0  0  0  0  0  0  0
   45.6810   33.8350   46.4950 H   0  0  0  0  0  0  0  0  0  0  0  0
   43.7700   36.8440   44.2100 H   0  0  0  0  0  0  0  0  0  0  0  0
   49.1690   33.8730   41.1290 C   0  0  2  0  0  0  0  0  0  0  0  0
   48.7140   35.3800   41.1190 C   0  0  0  0  0  0  0  0  0  0  0  0
   47.9050   34.2750   40.5060 C   0  0  1  0  0  0  0  0  0  0  0  0
   50.0640   33.7630   40.4840 H   0  0  0  0  0  0  0  0  0  0  0  0
   48.4040   35.7220   42.1280 H   0  0  0  0  0  0  0  0  0  0  0  0
   49.2040   36.0550   40.4230 H   0  0  0  0  0  0  0  0  0  0  0  0
   47.0270   33.8010   40.9960 H   0  0  0  0  0  0  0  0  0  0  0  0
   47.8250   34.2280   38.9990 C   0  0  0  0  0  0  0  0  0  0  0  0
   48.6690   34.8210   38.3330 O   0  0  0  0  0  0  0  0  0  0  0  0
   46.7490   33.1950   36.9610 C   0  0  0  0  0  3  0  0  0  0  0  0
   46.7720   33.4950   38.3070 C   0  0  0  0  0  0  0  0  0  0  0  0
   45.6770   33.0320   39.0050 C   0  0  0  0  0  0  0  0  0  0  0  0
   45.5580   33.1930   40.0730 H   0  0  0  0  0  0  0  0  0  0  0  0
   44.6380   32.3310   38.4300 C   0  0  0  0  0  0  0  0  0  0  0  0
   44.6600   32.0550   37.0810 C   0  0  0  0  0  0  0  0  0  0  0  0
   45.7320   32.4960   36.3470 C   0  0  0  0  0  3  0  0  0  0  0  0
   43.5010   31.3430   36.7730 O   0  0  0  0  0  0  0  0  0  0  0  0
   42.5410   31.6160   37.8050 C   0  0  0  0  0  3  0  0  0  0  0  0
   42.1010   32.6410   37.6830 H   0  0  0  0  0  0  0  0  0  0  0  0
   43.4490   31.7680   38.9070 O   0  0  0  0  0  0  0  0  0  0  0  0
  1  7  1  0  0  0  0
  2  3  2  0  0  0  0
  2  1  1  0  0  0  0
  4  1  1  0  0  0  0
  5  8  1  1  0  0  0
  6 10  1  0  0  0  0
  6  7  1  0  0  0  0
  6  5  1  0  0  0  0
  7 11  1  1  0  0  0
  7  5  1  0  0  0  0
  9  6  1  0  0  0  0
 12 13  1  0  0  0  0
 13  5  1  0  0  0  0
 13 14  2  0  0  0  0
 14 19  1  0  0  0  0
 15 14  1  0  0  0  0
 16 15  2  0  0  0  0
 17 12  2  0  0  0  0
 17 16  1  0  0  0  0
 18 12  1  0  0  0  0
 20 16  1  0  0  0  0
 21 24  1  6  0  0  0
 21  2  1  0  0  0  0
 22 21  1  0  0  0  0
 22 25  1  0  0  0  0
 23 27  1  1  0  0  0
 23 22  1  0  0  0  0
 23 21  1  0  0  0  0
 26 22  1  0  0  0  0
 28 23  1  0  0  0  0
 29 28  2  0  0  0  0
 30 31  1  0  0  0  0
 31 28  1  0  0  0  0
 31 32  2  0  0  0  0
 32 33  1  0  0  0  0
 34 40  1  0  0  0  0
 34 32  1  0  0  0  0
 35 34  2  0  0  0  0
 36 30  2  0  0  0  0
 36 35  1  0  0  0  0
 37 35  1  0  0  0  0
 37 38  1  0  0  0  0
 38 40  1  0  0  0  0
 39 38  1  0  0  0  0
M  END
>  <minimizedAffinity>
-5.19222116

>  <minimizedRMSD>
0.821102917

$$$$
