
     RDKit          3D

 24 26  0  0  0  0  0  0  0  0999 V2000
   44.5365   36.0321   44.5328 C   0  0  0  0  0  0  0  0  0  0  0  0
   45.2587   35.8936   43.3219 C   0  0  0  0  0  0  0  0  0  0  0  0
   46.1342   34.7899   43.2071 C   0  0  0  0  0  0  0  0  0  0  0  0
   46.2332   33.9356   44.2487 N   0  0  0  0  0  0  0  0  0  0  0  0
   45.5279   34.1051   45.3816 C   0  0  0  0  0  0  0  0  0  0  0  0
   44.6926   35.1367   45.5224 N   0  0  0  0  0  0  0  0  0  0  0  0
   47.0681   34.5601   41.7144 S   0  0  0  0  0  0  0  0  0  0  0  0
   43.9040   36.8939   44.5228 H   0  0  0  0  0  0  0  0  0  0  0  0
   45.1666   36.5846   42.5028 H   0  0  0  0  0  0  0  0  0  0  0  0
   47.5996   33.2380   41.7459 H   0  0  0  0  0  0  0  0  0  0  0  0
   44.5737   32.6498   47.1245 C   0  0  0  0  0  0  0  0  0  0  0  0
   45.6885   33.1291   46.4788 C   0  0  0  0  0  0  0  0  0  0  0  0
   46.9942   32.7428   46.8019 C   0  0  0  0  0  0  0  0  0  0  0  0
   47.8469   33.1215   46.2941 H   0  0  0  0  0  0  0  0  0  0  0  0
   47.0718   31.8223   47.8433 C   0  0  0  0  0  0  0  0  0  0  0  0
   46.0016   31.2978   48.5365 C   0  0  0  0  0  0  0  0  0  0  0  0
   44.7542   31.7502   48.1330 C   0  0  0  0  0  0  0  0  0  0  0  0
   46.5286   30.4282   49.4797 O   0  0  0  0  0  0  0  0  0  0  0  0
   47.9255   30.5596   49.4992 C   0  0  2  0  0  0  0  0  0  0  0  0
   48.4171   29.5629   49.4797 H   0  0  0  0  0  0  0  0  0  0  0  0
   48.2690   31.2829   48.3503 O   0  0  0  0  0  0  0  0  0  0  0  0
   43.6045   33.0050   46.8070 H   0  0  0  0  0  0  0  0  0  0  0  0
   43.8982   31.3448   48.6713 H   0  0  0  0  0  0  0  0  0  0  0  0
   48.2349   31.1862   50.3655 H   0  0  0  0  0  0  0  0  0  0  0  0
  1  6  2  0
  2  1  1  0
  3  2  2  0
  3  4  1  0
  4  5  2  0
  5  6  1  0
  7  3  1  0
  1  8  1  0
  2  9  1  0
  7 10  1  0
 11 12  2  0
 12 13  1  0
 13 14  1  0
 13 15  2  0
 15 16  1  0
 16 17  2  0
 16 18  1  0
 18 19  1  0
 19 20  1  6
 19 21  1  0
 17 11  1  0
 21 15  1  0
 11 22  1  0
 17 23  1  0
 19 24  1  0
  5 12  1  0
M  ISO  5   8  14   9  14  10  11  14  16  20   8
M  END
>  <DihAtoms>  (1) 
3,4,11,10

>  <DihDeg>  (1) 
-179.99973974013065

$$$$
