
 OpenBabel03252509223D

 29 32  0  0  1  0  0  0  0  0999 V2000
   46.3060   34.7890   41.9390 C   0  0  1  0  0  0  0  0  0  0  0  0
   47.8090   35.1740   41.8560 C   0  0  0  0  0  0  0  0  0  0  0  0
   47.1900   33.7970   41.4420 C   0  0  2  0  0  0  0  0  0  0  0  0
   45.6620   35.4360   41.3140 H   0  0  0  0  0  0  0  0  0  0  0  0
   48.4210   35.1230   42.7520 H   0  0  0  0  0  0  0  0  0  0  0  0
   48.0990   35.8240   41.0090 H   0  0  0  0  0  0  0  0  0  0  0  0
   47.4460   32.9360   42.0940 H   0  0  0  0  0  0  0  0  0  0  0  0
   48.4530   33.3820   39.2770 C   0  0  0  0  0  3  0  0  0  0  0  0
   47.2700   33.5010   39.9770 C   0  0  0  0  0  0  0  0  0  0  0  0
   46.1070   33.3250   39.2210 C   0  0  0  0  0  0  0  0  0  0  0  0
   45.1600   33.4140   39.7520 H   0  0  0  0  0  0  0  0  0  0  0  0
   46.0830   33.0520   37.8780 C   0  0  0  0  0  0  0  0  0  0  0  0
   47.2870   32.9410   37.2150 C   0  0  0  0  0  0  0  0  0  0  0  0
   48.4790   33.1080   37.9230 C   0  0  0  0  0  3  0  0  0  0  0  0
   46.9760   32.6670   35.8980 O   0  0  0  0  0  0  0  0  0  0  0  0
   45.5930   32.4160   35.7660 C   0  0  0  0  0  3  0  0  0  0  0  0
   45.2170   33.0030   34.9080 H   0  0  0  0  0  0  0  0  0  0  0  0
   45.0420   32.8510   36.9850 O   0  0  0  0  0  0  0  0  0  0  0  0
   44.6030   35.5430   45.1990 C   0  0  0  0  0  0  0  0  0  0  0  0
   45.0280   35.7140   43.8370 C   0  0  0  0  0  0  0  0  0  0  0  0
   45.8680   34.7310   43.3820 C   0  0  0  0  0  0  0  0  0  0  0  0
   46.2630   33.6740   44.1850 N   0  0  0  0  0  0  0  0  0  0  0  0
   45.8320   33.5710   45.4440 C   0  0  0  0  0  0  0  0  0  0  0  0
   45.0040   34.4980   45.9610 N   0  0  0  0  0  0  0  0  0  0  0  0
   43.9410   36.2870   45.6040 H   0  0  0  0  0  0  0  0  0  0  0  0
   46.2360   32.6890   45.9260 H   0  0  0  0  0  0  0  0  0  0  0  0
   44.6390   36.8170   43.0420 N   0  0  0  0  0  0  0  0  0  0  0  0
   45.3610   37.5400   42.7720 H   0  0  0  0  0  0  0  0  0  0  0  0
   43.6490   36.9470   42.7080 H   0  0  0  0  0  0  0  0  0  0  0  0
  1  4  1  6  0  0  0
  1 21  1  0  0  0  0
  2  1  1  0  0  0  0
  2  5  1  0  0  0  0
  3  2  1  0  0  0  0
  3  1  1  0  0  0  0
  3  7  1  1  0  0  0
  6  2  1  0  0  0  0
  8  9  1  0  0  0  0
  9  3  1  0  0  0  0
 10 11  1  0  0  0  0
 10  9  2  0  0  0  0
 12 10  1  0  0  0  0
 13 12  2  0  0  0  0
 13 14  1  0  0  0  0
 14  8  2  0  0  0  0
 15 13  1  0  0  0  0
 16 15  1  0  0  0  0
 16 18  1  0  0  0  0
 17 16  1  0  0  0  0
 18 12  1  0  0  0  0
 19 25  1  0  0  0  0
 19 24  1  0  0  0  0
 20 19  2  0  0  0  0
 21 20  1  0  0  0  0
 21 22  2  0  0  0  0
 22 23  1  0  0  0  0
 23 26  1  0  0  0  0
 23 24  2  0  0  0  0
 27 20  1  0  0  0  0
 28 27  1  0  0  0  0
 29 27  1  0  0  0  0
M  END
>  <minimizedAffinity>
-5.38740253

>  <minimizedRMSD>
0.614352465

$$$$
