
 OpenBabel03242523373D

 21 23  0  0  0  0  0  0  0  0999 V2000
   47.0780   31.8070   45.2560 C   0  0  0  0  0  3  0  0  0  0  0  0
   46.3090   32.9230   45.4860 C   0  0  0  0  0  0  0  0  0  0  0  0
   45.6330   33.1610   46.6870 C   0  0  0  0  0  0  0  0  0  0  0  0
   45.0430   34.0280   46.8520 H   0  0  0  0  0  0  0  0  0  0  0  0
   45.8050   32.1630   47.6430 C   0  0  0  0  0  0  0  0  0  0  0  0
   46.5580   31.0180   47.4840 C   0  0  0  0  0  0  0  0  0  0  0  0
   47.1840   30.8850   46.2540 C   0  0  0  0  0  3  0  0  0  0  0  0
   46.4530   30.3100   48.6720 O   0  0  0  0  0  0  0  0  0  0  0  0
   45.4870   30.9150   49.4880 C   0  0  0  0  0  3  0  0  0  0  0  0
   45.8660   31.0360   50.5270 H   0  0  0  0  0  0  0  0  0  0  0  0
   45.2290   32.1720   48.9270 O   0  0  0  0  0  0  0  0  0  0  0  0
   44.9940   35.7060   43.4700 C   0  0  0  0  0  0  0  0  0  0  0  0
   45.9580   35.8170   42.4370 C   0  0  0  0  0  0  0  0  0  0  0  0
   47.0480   34.9170   42.4630 C   0  0  0  0  0  0  0  0  0  0  0  0
   47.1110   34.0120   43.4630 N   0  0  0  0  0  0  0  0  0  0  0  0
   46.1730   33.9420   44.4250 C   0  0  0  0  0  0  0  0  0  0  0  0
   45.1310   34.7760   44.4290 N   0  0  0  0  0  0  0  0  0  0  0  0
   44.2120   36.4270   43.3630 H   0  0  0  0  0  0  0  0  0  0  0  0
   45.8900   36.5450   41.6480 H   0  0  0  0  0  0  0  0  0  0  0  0
   48.2890   35.0040   41.1960 S   0  0  0  0  0  0  0  0  0  0  0  0
   49.0670   33.8120   41.2820 H   0  0  0  0  0  0  0  0  0  0  0  0
  1  2  2  0  0  0  0
  1  7  1  0  0  0  0
  2  3  1  0  0  0  0
  3  4  1  0  0  0  0
  3  5  2  0  0  0  0
  5 11  1  0  0  0  0
  6  5  1  0  0  0  0
  6  8  1  0  0  0  0
  7  6  2  0  0  0  0
  8  9  1  0  0  0  0
  9 10  1  0  0  0  0
 11  9  1  0  0  0  0
 12 17  1  0  0  0  0
 13 14  1  0  0  0  0
 13 12  2  0  0  0  0
 14 15  2  0  0  0  0
 15 16  1  0  0  0  0
 16 17  2  0  0  0  0
 16  2  1  0  0  0  0
 18 12  1  0  0  0  0
 19 13  1  0  0  0  0
 20 21  1  0  0  0  0
 20 14  1  0  0  0  0
M  END
>  <minimizedAffinity>
-4.73219299

>  <minimizedRMSD>
1.28995848

$$$$
