REMARK  Name = 
REMARK  2 active torsions:
REMARK  status: ('A' for Active; 'I' for Inactive)
REMARK    1  A    between atoms: C_2  and  N_7
REMARK    2  A    between atoms: C_8  and  C_25
REMARK                            x       y       z     vdW  Elec       q    Type
REMARK                         _______ _______ _______ _____ _____    ______ ____
ROOT
ATOM      1  N   UNL     1      44.305  34.395  41.966  0.00  0.00    +0.000 N 
ATOM      2  C   UNL     1      44.477  33.429  40.950  0.00  0.00    +0.000 C 
ATOM      3  C   UNL     1      43.782  33.702  39.667  0.00  0.00    +0.000 C 
ATOM      4  N   UNL     1      42.556  34.381  39.732  0.00  0.00    +0.000 NA
ATOM      5  C   UNL     1      42.377  35.324  40.760  0.00  0.00    +0.000 C 
ATOM      6  C   UNL     1      43.662  35.593  41.519  0.00  0.00    +0.000 C 
ATOM      7  H   UNL     1      44.099  32.443  41.342  0.00  0.00    +0.000 HD
ATOM      8  H   UNL     1      43.674  32.761  39.090  0.00  0.00    +0.000 HD
ATOM      9  H   UNL     1      44.479  34.334  39.041  0.00  0.00    +0.000 HD
ATOM     10  H   UNL     1      41.789  33.653  39.844  0.00  0.00    +0.000 HD
ATOM     11  H   UNL     1      41.576  35.115  41.491  0.00  0.00    +0.000 HD
ATOM     12  H   UNL     1      42.106  36.299  40.279  0.00  0.00    +0.000 HD
ATOM     13  H   UNL     1      44.364  36.167  40.846  0.00  0.00    +0.000 HD
ATOM     14  H   UNL     1      43.377  36.309  42.311  0.00  0.00    +0.000 HD
ENDROOT
BRANCH   2  16
ATOM     15  C   UNL     1      46.447  33.492  39.358  0.00  0.00    +0.000 A 
ATOM     16  C   UNL     1      45.923  33.200  40.596  0.00  0.00    +0.000 A 
ATOM     17  C   UNL     1      46.852  32.656  41.490  0.00  0.00    +0.000 A 
ATOM     18  H   UNL     1      46.506  32.402  42.485  0.00  0.00    +0.000 HD
ATOM     19  C   UNL     1      48.173  32.428  41.177  0.00  0.00    +0.000 A 
ATOM     20  C   UNL     1      48.622  32.747  39.915  0.00  0.00    +0.000 A 
ATOM     21  C   UNL     1      47.751  33.286  38.991  0.00  0.00    +0.000 A 
ATOM     22  O   UNL     1      49.986  32.410  39.885  0.00  0.00    +0.000 OA
ATOM     23  C   UNL     1      50.286  31.584  41.002  0.00  0.00    +0.000 C 
ATOM     24  H   UNL     1      50.261  30.530  40.657  0.00  0.00    +0.000 HD
ATOM     25  O   UNL     1      49.238  31.910  41.894  0.00  0.00    +0.000 OA
ENDBRANCH   2  16
BRANCH   1  27
ATOM     26  C   UNL     1      44.633  35.132  44.216  0.00  0.00    +0.000 A 
ATOM     27  C   UNL     1      44.765  34.107  43.270  0.00  0.00    +0.000 A 
ATOM     28  C   UNL     1      45.330  32.918  43.692  0.00  0.00    +0.000 A 
ATOM     29  N   UNL     1      45.744  32.747  44.977  0.00  0.00    +0.000 NA
ATOM     30  C   UNL     1      45.599  33.772  45.872  0.00  0.00    +0.000 A 
ATOM     31  N   UNL     1      45.049  34.939  45.478  0.00  0.00    +0.000 NA
ATOM     32  H   UNL     1      44.227  36.123  44.098  0.00  0.00    +0.000 HD
ATOM     33  H   UNL     1      45.431  32.123  42.977  0.00  0.00    +0.000 HD
ATOM     34  H   UNL     1      45.935  33.614  46.890  0.00  0.00    +0.000 HD
ENDBRANCH   1  27
TORSDOF 2
