
 OpenBabel03252506413D

 42 46  0  0  1  0  0  0  0  0999 V2000
   49.1980   33.2900   41.2190 N   0  0  1  0  0  0  0  0  0  0  0  0
   50.5140   32.9870   41.7310 C   0  0  0  0  0  0  0  0  0  0  0  0
   51.0470   31.6840   41.1900 C   0  0  0  0  0  0  0  0  0  0  0  0
   50.2460   30.5780   41.8280 C   0  0  0  0  0  0  0  0  0  0  0  0
   48.7810   30.9450   41.8520 C   0  0  0  0  0  0  0  0  0  0  0  0
   48.4880   32.0620   40.9060 C   0  0  2  0  0  0  0  0  0  0  0  0
   51.2270   33.8290   41.6020 H   0  0  0  0  0  0  0  0  0  0  0  0
   50.4230   32.8350   42.8350 H   0  0  0  0  0  0  0  0  0  0  0  0
   51.0080   31.6780   40.1020 H   0  0  0  0  0  0  0  0  0  0  0  0
   52.1190   31.6500   41.4750 H   0  0  0  0  0  0  0  0  0  0  0  0
   50.6220   30.3110   42.8360 H   0  0  0  0  0  0  0  0  0  0  0  0
   50.3620   29.6680   41.2180 H   0  0  0  0  0  0  0  0  0  0  0  0
   48.1280   30.0970   41.5760 H   0  0  0  0  0  0  0  0  0  0  0  0
   48.5430   31.3130   42.8650 H   0  0  0  0  0  0  0  0  0  0  0  0
   47.4070   32.3360   41.1280 H   0  0  0  0  0  0  0  0  0  0  0  0
   48.0180   30.4360   39.2810 C   0  0  0  0  0  3  0  0  0  0  0  0
   48.5110   31.7340   39.4810 C   0  0  0  0  0  0  0  0  0  0  0  0
   48.9130   32.4290   38.3810 C   0  0  0  0  0  0  0  0  0  0  0  0
   49.2810   33.4050   38.6110 H   0  0  0  0  0  0  0  0  0  0  0  0
   48.8370   31.8780   37.1210 C   0  0  0  0  0  0  0  0  0  0  0  0
   48.3610   30.6090   36.8660 C   0  0  0  0  0  0  0  0  0  0  0  0
   47.9510   29.9000   37.9890 C   0  0  0  0  0  3  0  0  0  0  0  0
   48.4060   30.3340   35.5070 O   0  0  0  0  0  0  0  0  0  0  0  0
   49.2470   31.3060   34.9350 C   0  0  0  0  0  3  0  0  0  0  0  0
   48.7810   31.6690   34.0020 H   0  0  0  0  0  0  0  0  0  0  0  0
   49.1780   32.3790   35.8730 O   0  0  0  0  0  0  0  0  0  0  0  0
   47.1980   34.7700   41.9290 C   0  0  1  0  0  0  0  0  0  0  0  0
   48.4080   35.5520   41.7810 C   0  0  0  0  0  0  0  0  0  0  0  0
   48.5500   34.1180   42.1860 C   0  0  2  0  0  0  0  0  0  0  0  0
   46.6800   34.2700   41.0790 H   0  0  0  0  0  0  0  0  0  0  0  0
   48.6700   35.8390   40.7210 H   0  0  0  0  0  0  0  0  0  0  0  0
   48.6500   36.3670   42.4750 H   0  0  0  0  0  0  0  0  0  0  0  0
   48.7800   33.9640   43.2630 H   0  0  0  0  0  0  0  0  0  0  0  0
   45.4570   36.0880   43.2050 C   0  0  0  0  0  0  0  0  0  0  0  0
   46.2910   34.9460   43.1000 C   0  0  0  0  0  0  0  0  0  0  0  0
   46.2340   34.0110   44.1140 C   0  0  0  0  0  0  0  0  0  0  0  0
   45.3780   34.2520   45.1480 N   0  0  0  0  0  0  0  0  0  0  0  0
   44.5950   35.3440   45.2260 C   0  0  0  0  0  0  0  0  0  0  0  0
   44.6270   36.2780   44.2530 N   0  0  0  0  0  0  0  0  0  0  0  0
   45.4750   36.8440   42.4280 H   0  0  0  0  0  0  0  0  0  0  0  0
   46.8400   33.1230   44.0930 H   0  0  0  0  0  0  0  0  0  0  0  0
   43.9690   35.3820   46.1190 H   0  0  0  0  0  0  0  0  0  0  0  0
  1  2  1  1  0  0  0
  1 29  1  0  0  0  0
  2  8  1  0  0  0  0
  3 10  1  0  0  0  0
  3  2  1  0  0  0  0
  3  4  1  0  0  0  0
  4  5  1  0  0  0  0
  4 11  1  0  0  0  0
  5 14  1  0  0  0  0
  6 15  1  1  0  0  0
  6  1  1  0  0  0  0
  6  5  1  0  0  0  0
  7  2  1  0  0  0  0
  9  3  1  0  0  0  0
 12  4  1  0  0  0  0
 13  5  1  0  0  0  0
 16 17  1  0  0  0  0
 17  6  1  0  0  0  0
 18 19  1  0  0  0  0
 18 17  2  0  0  0  0
 20 18  1  0  0  0  0
 21 20  2  0  0  0  0
 21 22  1  0  0  0  0
 22 16  2  0  0  0  0
 23 21  1  0  0  0  0
 24 23  1  0  0  0  0
 24 26  1  0  0  0  0
 25 24  1  0  0  0  0
 26 20  1  0  0  0  0
 27 30  1  6  0  0  0
 27 29  1  0  0  0  0
 27 35  1  0  0  0  0
 28 27  1  0  0  0  0
 28 29  1  0  0  0  0
 28 32  1  0  0  0  0
 29 33  1  1  0  0  0
 31 28  1  0  0  0  0
 34 39  1  0  0  0  0
 35 34  2  0  0  0  0
 35 36  1  0  0  0  0
 36 37  2  0  0  0  0
 37 38  1  0  0  0  0
 38 42  1  0  0  0  0
 39 38  2  0  0  0  0
 40 34  1  0  0  0  0
 41 36  1  0  0  0  0
M  END
>  <minimizedAffinity>
-5.16286469

>  <minimizedRMSD>
1.20613277

$$$$
