
 OpenBabel03242520403D

 41 45  0  0  1  0  0  0  0  0999 V2000
   45.9670   33.4040   45.4700 C   0  0  0  0  0  0  0  0  0  0  0  0
   46.8540   33.5170   44.3680 C   0  0  0  0  0  0  0  0  0  0  0  0
   47.5710   32.3510   43.9650 C   0  0  0  0  0  0  0  0  0  0  0  0
   47.3740   31.1830   44.6500 N   0  0  0  0  0  0  0  0  0  0  0  0
   46.5130   31.1380   45.6960 C   0  0  0  0  0  0  0  0  0  0  0  0
   45.8240   32.2360   46.0950 N   0  0  0  0  0  0  0  0  0  0  0  0
   46.3730   29.9050   46.3420 N   0  0  0  0  0  0  0  0  0  0  0  0
   47.4960   29.2640   46.9420 C   0  0  2  0  0  0  0  0  0  0  0  0
   47.2690   27.8520   47.3550 C   0  0  0  0  0  0  0  0  0  0  0  0
   45.9550   27.4970   47.7340 N   0  0  0  0  0  0  0  0  0  0  0  0
   45.0290   28.5750   47.7460 C   0  0  0  0  0  0  0  0  0  0  0  0
   45.0770   29.2660   46.4080 C   0  0  0  0  0  0  0  0  0  0  0  0
   45.4680   34.3180   45.7120 H   0  0  0  0  0  0  0  0  0  0  0  0
   47.0610   34.3840   43.7850 H   0  0  0  0  0  0  0  0  0  0  0  0
   48.2580   32.3860   43.1300 H   0  0  0  0  0  0  0  0  0  0  0  0
   48.2710   29.1810   46.1170 H   0  0  0  0  0  0  0  0  0  0  0  0
   47.9400   27.6630   48.2420 H   0  0  0  0  0  0  0  0  0  0  0  0
   47.6080   27.1140   46.5990 H   0  0  0  0  0  0  0  0  0  0  0  0
   45.8850   26.8260   48.5280 H   0  0  0  0  0  0  0  0  0  0  0  0
   44.0020   28.1030   47.8100 H   0  0  0  0  0  0  0  0  0  0  0  0
   45.0960   29.2530   48.5960 H   0  0  0  0  0  0  0  0  0  0  0  0
   45.0760   28.4830   45.6420 H   0  0  0  0  0  0  0  0  0  0  0  0
   44.2640   30.0110   46.2690 H   0  0  0  0  0  0  0  0  0  0  0  0
   48.1020   30.0960   48.0170 C   0  0  0  0  0  0  0  0  0  0  0  0
   47.5630   30.8950   48.9930 C   0  0  0  0  0  0  0  0  0  0  0  0
   48.5060   31.4530   49.7580 N   0  0  0  0  0  0  0  0  0  0  0  0
   49.6620   31.0100   49.2750 C   0  0  0  0  0  0  0  0  0  0  0  0
   49.4240   30.1970   48.2310 N   0  0  0  0  0  0  0  0  0  0  0  0
   46.5030   31.0570   49.1240 H   0  0  0  0  0  0  0  0  0  0  0  0
   48.4000   32.0990   50.5690 H   0  0  0  0  0  0  0  0  0  0  0  0
   52.1630   31.1130   48.9220 C   0  0  0  0  0  3  0  0  0  0  0  0
   51.0400   31.2800   49.7080 C   0  0  0  0  0  0  0  0  0  0  0  0
   51.2160   31.7360   50.9990 C   0  0  0  0  0  0  0  0  0  0  0  0
   50.3620   31.8780   51.6420 H   0  0  0  0  0  0  0  0  0  0  0  0
   52.4660   32.0230   51.5150 C   0  0  0  0  0  0  0  0  0  0  0  0
   53.6010   31.8550   50.7240 C   0  0  0  0  0  0  0  0  0  0  0  0
   53.4130   31.4000   49.4350 C   0  0  0  0  0  3  0  0  0  0  0  0
   54.7350   32.2120   51.4730 O   0  0  0  0  0  0  0  0  0  0  0  0
   54.2950   32.0690   52.8310 C   0  0  0  0  0  3  0  0  0  0  0  0
   54.9340   32.7110   53.4380 H   0  0  0  0  0  0  0  0  0  0  0  0
   52.9440   32.4840   52.7440 O   0  0  0  0  0  0  0  0  0  0  0  0
  1 13  1  0  0  0  0
  1  6  1  0  0  0  0
  2  1  2  0  0  0  0
  3  2  1  0  0  0  0
  3  4  2  0  0  0  0
  4  5  1  0  0  0  0
  5  6  2  0  0  0  0
  5  7  1  0  0  0  0
  7 12  1  0  0  0  0
  7  8  1  0  0  0  0
  8 16  1  6  0  0  0
  8  9  1  0  0  0  0
  8 24  1  0  0  0  0
  9 10  1  0  0  0  0
  9 17  1  0  0  0  0
 10 11  1  0  0  0  0
 10 19  1  0  0  0  0
 11 20  1  0  0  0  0
 11 21  1  0  0  0  0
 12 11  1  0  0  0  0
 14  2  1  0  0  0  0
 15  3  1  0  0  0  0
 18  9  1  0  0  0  0
 22 12  1  0  0  0  0
 23 12  1  0  0  0  0
 24 28  1  0  0  0  0
 24 25  2  0  0  0  0
 25 29  1  0  0  0  0
 25 26  1  0  0  0  0
 26 30  1  0  0  0  0
 27 32  1  0  0  0  0
 27 26  1  0  0  0  0
 28 27  2  0  0  0  0
 31 37  2  0  0  0  0
 31 32  1  0  0  0  0
 32 33  2  0  0  0  0
 33 35  1  0  0  0  0
 33 34  1  0  0  0  0
 35 41  1  0  0  0  0
 36 38  1  0  0  0  0
 36 35  2  0  0  0  0
 37 36  1  0  0  0  0
 38 39  1  0  0  0  0
 39 40  1  0  0  0  0
 41 39  1  0  0  0  0
M  END
>  <minimizedAffinity>
-5.39724922

>  <minimizedRMSD>
0.544566035

$$$$
