
 OpenBabel03252509233D

 29 32  0  0  1  0  0  0  0  0999 V2000
   46.4940   34.9870   41.9400 C   0  0  1  0  0  0  0  0  0  0  0  0
   48.0160   35.2980   41.9200 C   0  0  0  0  0  0  0  0  0  0  0  0
   47.3370   33.9970   41.3730 C   0  0  2  0  0  0  0  0  0  0  0  0
   45.8990   35.7200   41.3640 H   0  0  0  0  0  0  0  0  0  0  0  0
   48.6040   35.1350   42.8190 H   0  0  0  0  0  0  0  0  0  0  0  0
   48.3590   36.0030   41.1400 H   0  0  0  0  0  0  0  0  0  0  0  0
   47.5330   33.0700   41.9500 H   0  0  0  0  0  0  0  0  0  0  0  0
   48.3110   34.5300   39.0890 C   0  0  0  0  0  0  0  0  0  0  0  0
   47.4360   33.8280   39.8900 C   0  0  0  0  0  0  0  0  0  0  0  0
   46.6150   32.9160   39.2210 C   0  0  0  0  0  0  0  0  0  0  0  0
   45.9140   32.3480   39.8320 H   0  0  0  0  0  0  0  0  0  0  0  0
   46.6340   32.6920   37.8680 C   0  0  0  0  0  0  0  0  0  0  0  0
   47.5260   33.4170   37.1030 C   0  0  0  0  0  0  0  0  0  0  0  0
   48.3690   34.3420   37.7210 C   0  0  0  0  0  0  0  0  0  0  0  0
   47.3360   33.0020   35.8000 O   0  0  0  0  0  0  0  0  0  0  0  0
   46.4700   31.8870   35.7640 C   0  0  0  0  0  0  0  0  0  0  0  0
   45.7090   32.0680   34.9830 H   0  0  0  0  0  0  0  0  0  0  0  0
   45.9050   31.8420   37.0510 O   0  0  0  0  0  0  0  0  0  0  0  0
   44.6400   35.4450   45.1730 C   0  0  0  0  0  0  0  0  0  0  0  0
   45.0900   35.7140   43.8350 C   0  0  0  0  0  0  0  0  0  0  0  0
   46.0210   34.8260   43.3640 C   0  0  0  0  0  0  0  0  0  0  0  0
   46.4780   33.7670   44.1320 N   0  0  0  0  0  0  0  0  0  0  0  0
   46.0200   33.5710   45.3700 C   0  0  0  0  0  0  0  0  0  0  0  0
   45.1030   34.4020   45.9000 N   0  0  0  0  0  0  0  0  0  0  0  0
   43.9070   36.1140   45.5880 H   0  0  0  0  0  0  0  0  0  0  0  0
   46.4810   32.7020   45.8250 H   0  0  0  0  0  0  0  0  0  0  0  0
   44.6340   36.8190   43.0780 N   0  0  0  0  0  0  0  0  0  0  0  0
   45.3010   37.6100   42.8640 H   0  0  0  0  0  0  0  0  0  0  0  0
   43.6470   36.8840   42.7170 H   0  0  0  0  0  0  0  0  0  0  0  0
  1  4  1  6  0  0  0
  1 21  1  0  0  0  0
  2  1  1  0  0  0  0
  2  5  1  0  0  0  0
  3  2  1  0  0  0  0
  3  1  1  0  0  0  0
  3  7  1  1  0  0  0
  6  2  1  0  0  0  0
  8  9  1  0  0  0  0
  9  3  1  0  0  0  0
 10 11  1  0  0  0  0
 10  9  2  0  0  0  0
 12 10  1  0  0  0  0
 13 14  1  0  0  0  0
 13 12  2  0  0  0  0
 14  8  2  0  0  0  0
 15 13  1  0  0  0  0
 16 15  1  0  0  0  0
 16 18  1  0  0  0  0
 17 16  1  0  0  0  0
 18 12  1  0  0  0  0
 19 25  1  0  0  0  0
 19 24  1  0  0  0  0
 20 19  2  0  0  0  0
 21 20  1  0  0  0  0
 21 22  2  0  0  0  0
 22 23  1  0  0  0  0
 23 26  1  0  0  0  0
 23 24  2  0  0  0  0
 27 20  1  0  0  0  0
 28 27  1  0  0  0  0
 29 27  1  0  0  0  0
M  END
>  <minimizedAffinity>
-5.76407957

>  <minimizedRMSD>
0.0802571401

$$$$
