REMARK  Name = 
REMARK  3 active torsions:
REMARK  status: ('A' for Active; 'I' for Inactive)
REMARK    1  A    between atoms: C_1  and  C_5
REMARK    2  A    between atoms: C_3  and  N_10
REMARK    3  A    between atoms: C_15  and  C_33
REMARK                            x       y       z     vdW  Elec       q    Type
REMARK                         _______ _______ _______ _____ _____    ______ ____
ROOT
ATOM      1  N   UNL     1      49.329  33.205  41.512  0.00  0.00    +0.000 NA
ATOM      2  C   UNL     1      50.665  33.126  42.054  0.00  0.00    +0.000 C 
ATOM      3  C   UNL     1      51.326  31.806  41.744  0.00  0.00    +0.000 C 
ATOM      4  C   UNL     1      50.633  30.757  42.575  0.00  0.00    +0.000 C 
ATOM      5  C   UNL     1      49.139  30.978  42.551  0.00  0.00    +0.000 C 
ATOM      6  C   UNL     1      48.744  31.878  41.427  0.00  0.00    +0.000 C 
ATOM      7  H   UNL     1      51.294  33.998  41.771  0.00  0.00    +0.000 HD
ATOM      8  H   UNL     1      50.583  33.162  43.169  0.00  0.00    +0.000 HD
ATOM      9  H   UNL     1      51.294  31.606  40.674  0.00  0.00    +0.000 HD
ATOM     10  H   UNL     1      52.395  31.927  42.018  0.00  0.00    +0.000 HD
ATOM     11  H   UNL     1      51.028  30.709  43.610  0.00  0.00    +0.000 HD
ATOM     12  H   UNL     1      50.841  29.770  42.132  0.00  0.00    +0.000 HD
ATOM     13  H   UNL     1      48.574  30.036  42.435  0.00  0.00    +0.000 HD
ATOM     14  H   UNL     1      48.861  31.494  43.486  0.00  0.00    +0.000 HD
ATOM     15  H   UNL     1      47.640  32.081  41.610  0.00  0.00    +0.000 HD
ENDROOT
BRANCH   6  17
ATOM     16  C   UNL     1      47.881  30.264  39.960  0.00  0.00    +0.000 A 
ATOM     17  C   UNL     1      48.808  31.309  40.081  0.00  0.00    +0.000 A 
ATOM     18  C   UNL     1      49.573  31.598  38.993  0.00  0.00    +0.000 A 
ATOM     19  H   UNL     1      50.259  32.400  39.162  0.00  0.00    +0.000 HD
ATOM     20  C   UNL     1      49.440  30.892  37.818  0.00  0.00    +0.000 A 
ATOM     21  C   UNL     1      48.547  29.857  37.642  0.00  0.00    +0.000 A 
ATOM     22  C   UNL     1      47.766  29.562  38.754  0.00  0.00    +0.000 A 
ATOM     23  O   UNL     1      48.642  29.342  36.358  0.00  0.00    +0.000 OA
ATOM     24  C   UNL     1      49.854  29.823  35.828  0.00  0.00    +0.000 C 
ATOM     25  H   UNL     1      49.677  30.152  34.790  0.00  0.00    +0.000 HD
ATOM     26  O   UNL     1      50.093  30.999  36.598  0.00  0.00    +0.000 OA
ENDBRANCH   6  17
BRANCH   1  29
ATOM     27  C   UNL     1      47.172  34.548  42.000  0.00  0.00    +0.000 C 
ATOM     28  C   UNL     1      48.274  35.424  41.660  0.00  0.00    +0.000 C 
ATOM     29  C   UNL     1      48.598  34.123  42.326  0.00  0.00    +0.000 C 
ATOM     30  H   UNL     1      46.708  33.834  41.282  0.00  0.00    +0.000 HD
ATOM     31  H   UNL     1      48.484  35.528  40.555  0.00  0.00    +0.000 HD
ATOM     32  H   UNL     1      48.424  36.381  42.175  0.00  0.00    +0.000 HD
ATOM     33  H   UNL     1      48.860  34.210  43.403  0.00  0.00    +0.000 HD
BRANCH  27  35
ATOM     34  C   UNL     1      45.522  36.046  43.196  0.00  0.00    +0.000 A 
ATOM     35  C   UNL     1      46.267  34.840  43.149  0.00  0.00    +0.000 A 
ATOM     36  C   UNL     1      46.126  33.954  44.199  0.00  0.00    +0.000 A 
ATOM     37  N   UNL     1      45.278  34.302  45.209  0.00  0.00    +0.000 NA
ATOM     38  C   UNL     1      44.581  35.453  45.232  0.00  0.00    +0.000 A 
ATOM     39  N   UNL     1      44.696  36.341  44.223  0.00  0.00    +0.000 NA
ATOM     40  H   UNL     1      45.608  36.766  42.390  0.00  0.00    +0.000 HD
ATOM     41  H   UNL     1      46.662  33.023  44.222  0.00  0.00    +0.000 HD
ATOM     42  H   UNL     1      43.949  35.575  46.113  0.00  0.00    +0.000 HD
ENDBRANCH  27  35
ENDBRANCH   1  29
TORSDOF 3
