
     RDKit          3D

 48 52  0  0  0  0  0  0  0  0999 V2000
   46.0867   34.4120   44.0732 C   0  0  1  0  0  0  0  0  0  0  0  0
   45.1385   34.5370   45.1168 C   0  0  0  0  0  0  0  0  0  0  0  0
   46.2899   33.6469   45.3968 C   0  0  1  0  0  0  0  0  0  0  0  0
   44.5808   33.3285   42.4109 C   0  0  0  0  0  0  0  0  0  0  0  0
   45.9110   33.5964   42.8439 C   0  0  0  0  0  0  0  0  0  0  0  0
   46.9465   33.0858   42.1061 C   0  0  0  0  0  0  0  0  0  0  0  0
   46.6344   32.3483   40.9950 N   0  0  0  0  0  0  0  0  0  0  0  0
   45.3714   32.1057   40.6003 C   0  0  0  0  0  0  0  0  0  0  0  0
   44.3081   32.5956   41.3073 N   0  0  0  0  0  0  0  0  0  0  0  0
   46.1025   32.1725   45.4087 C   0  0  0  0  0  0  0  0  0  0  0  0
   45.8154   31.7760   46.7325 N   0  0  0  0  0  0  0  0  0  0  0  0
   46.3703   32.5936   47.7590 C   0  0  0  0  0  0  0  0  0  0  0  0
   47.7108   32.0524   48.2349 C   0  0  0  0  0  0  0  0  0  0  0  0
   47.4201   30.7230   48.8957 C   0  0  0  0  0  0  0  0  0  0  0  0
   46.8656   29.8283   47.7931 C   0  0  0  0  0  0  0  0  0  0  0  0
   45.6580   30.4571   47.1189 C   0  0  2  0  0  0  0  0  0  0  0  0
   46.8135   35.2445   43.8725 H   0  0  0  0  0  0  0  0  0  0  0  0
   44.1526   34.0140   45.0162 H   0  0  0  0  0  0  0  0  0  0  0  0
   44.9952   35.4963   45.6765 H   0  0  0  0  0  0  0  0  0  0  0  0
   47.2194   33.9855   45.8782 H   0  0  0  0  0  0  0  0  0  0  0  0
   43.7653   33.7232   42.9824 H   0  0  0  0  0  0  0  0  0  0  0  0
   47.9407   33.2859   42.4303 H   0  0  0  0  0  0  0  0  0  0  0  0
   45.1818   31.5131   39.7083 H   0  0  0  0  0  0  0  0  0  0  0  0
   47.0917   31.7303   45.0789 H   0  0  0  0  0  0  0  0  0  0  0  0
   45.3635   31.8519   44.6525 H   0  0  0  0  0  0  0  0  0  0  0  0
   45.6847   32.3855   48.6419 H   0  0  0  0  0  0  0  0  0  0  0  0
   46.3032   33.6630   47.6618 H   0  0  0  0  0  0  0  0  0  0  0  0
   48.3583   31.8785   47.3538 H   0  0  0  0  0  0  0  0  0  0  0  0
   48.1571   32.7841   48.9414 H   0  0  0  0  0  0  0  0  0  0  0  0
   48.3741   30.2864   49.2221 H   0  0  0  0  0  0  0  0  0  0  0  0
   46.6857   30.8423   49.7061 H   0  0  0  0  0  0  0  0  0  0  0  0
   47.6664   29.5981   47.0782 H   0  0  0  0  0  0  0  0  0  0  0  0
   46.5578   28.8866   48.2923 H   0  0  0  0  0  0  0  0  0  0  0  0
   44.9409   30.5198   48.0122 H   0  0  0  0  0  0  0  0  0  0  0  0
   44.6948   28.1737   46.4789 C   0  0  0  0  0  0  0  0  0  0  0  0
   45.0652   29.4748   46.2279 C   0  0  0  0  0  0  0  0  0  0  0  0
   44.7994   29.7893   44.8835 C   0  0  0  0  0  0  0  0  0  0  0  0
   45.0363   30.7990   44.5078 H   0  0  0  0  0  0  0  0  0  0  0  0
   44.2607   28.9631   43.9444 C   0  0  0  0  0  0  0  0  0  0  0  0
   43.9302   27.6891   44.3044 C   0  0  0  0  0  0  0  0  0  0  0  0
   44.1465   27.2716   45.5966 C   0  0  0  0  0  0  0  0  0  0  0  0
   43.4075   27.0391   43.2068 O   0  0  0  0  0  0  0  0  0  0  0  0
   43.0468   28.0160   42.2443 C   0  0  2  0  0  0  0  0  0  0  0  0
   41.9919   28.3168   42.2859 H   0  0  0  0  0  0  0  0  0  0  0  0
   43.9316   29.0885   42.6025 O   0  0  0  0  0  0  0  0  0  0  0  0
   44.8283   27.7936   47.4774 H   0  0  0  0  0  0  0  0  0  0  0  0
   43.8894   26.2690   45.8911 H   0  0  0  0  0  0  0  0  0  0  0  0
   43.3371   27.7351   41.2112 H   0  0  0  0  0  0  0  0  0  0  0  0
  1  2  1  0
  1  3  1  0
  2  3  1  0
  3 10  1  0
  4  5  2  0
  5  1  1  0
  6  5  1  0
  7  6  2  0
  8  7  1  0
  8  9  2  0
  9  4  1  0
 10 11  1  0
 11 16  1  0
 11 12  1  0
 12 13  1  0
 13 14  1  0
 15 14  1  0
 16 15  1  0
  1 17  1  6
  2 18  1  0
  2 19  1  0
  3 20  1  1
  4 21  1  0
  6 22  1  0
  8 23  1  0
 10 24  1  0
 10 25  1  0
 12 26  1  0
 12 27  1  0
 13 28  1  0
 13 29  1  0
 14 30  1  0
 14 31  1  0
 15 32  1  0
 15 33  1  0
 16 34  1  1
 35 36  2  0
 36 37  1  0
 37 38  1  0
 37 39  2  0
 39 40  1  0
 40 41  2  0
 40 42  1  0
 42 43  1  0
 43 44  1  6
 43 45  1  0
 41 35  1  0
 45 39  1  0
 35 46  1  0
 41 47  1  0
 43 48  1  0
 16 36  1  0
M  ISO  8  17  13  18  13  19  13  20  13  21  14  22  14  23  14  24   8
M  ISO  8  25   8  26  13  27  13  28  13  29  13  30  13  31  13  32  13
M  ISO  4  33  13  34  13  38  16  44   8
M  END
>  <DihAtoms>  (1) 
10,15,35,34

>  <DihDeg>  (1) 
52.984049599587465

$$$$
