
 OpenBabel03252506413D

 42 46  0  0  1  0  0  0  0  0999 V2000
   49.4350   33.3790   41.4060 N   0  0  1  0  0  0  0  0  0  0  0  0
   50.7010   33.1140   42.0460 C   0  0  0  0  0  0  0  0  0  0  0  0
   51.2970   31.8000   41.6030 C   0  0  0  0  0  0  0  0  0  0  0  0
   50.4540   30.7060   42.2040 C   0  0  0  0  0  0  0  0  0  0  0  0
   48.9880   31.0510   42.0810 C   0  0  0  0  0  0  0  0  0  0  0  0
   48.7710   32.1310   41.0730 C   0  0  2  0  0  0  0  0  0  0  0  0
   51.4140   33.9620   41.9530 H   0  0  0  0  0  0  0  0  0  0  0  0
   50.5110   32.9980   43.1420 H   0  0  0  0  0  0  0  0  0  0  0  0
   51.3580   31.7570   40.5170 H   0  0  0  0  0  0  0  0  0  0  0  0
   52.3390   31.7920   41.9860 H   0  0  0  0  0  0  0  0  0  0  0  0
   50.7390   30.4790   43.2510 H   0  0  0  0  0  0  0  0  0  0  0  0
   50.6360   29.7770   41.6400 H   0  0  0  0  0  0  0  0  0  0  0  0
   48.3740   30.1850   41.7770 H   0  0  0  0  0  0  0  0  0  0  0  0
   48.6550   31.4510   43.0540 H   0  0  0  0  0  0  0  0  0  0  0  0
   47.6710   32.3970   41.1860 H   0  0  0  0  0  0  0  0  0  0  0  0
   48.8850   32.9000   38.8600 C   0  0  0  0  0  3  0  0  0  0  0  0
   48.9290   31.7540   39.6690 C   0  0  0  0  0  0  0  0  0  0  0  0
   49.0940   30.5540   39.0470 C   0  0  0  0  0  0  0  0  0  0  0  0
   49.1120   29.7290   39.7260 H   0  0  0  0  0  0  0  0  0  0  0  0
   49.2150   30.4690   37.6790 C   0  0  0  0  0  0  0  0  0  0  0  0
   49.1800   31.5590   36.8360 C   0  0  0  0  0  0  0  0  0  0  0  0
   49.0110   32.7850   37.4710 C   0  0  0  0  0  3  0  0  0  0  0  0
   49.3270   31.1600   35.5160 O   0  0  0  0  0  0  0  0  0  0  0  0
   49.0990   29.7720   35.4930 C   0  0  0  0  0  3  0  0  0  0  0  0
   49.8630   29.3020   34.8510 H   0  0  0  0  0  0  0  0  0  0  0  0
   49.3880   29.3810   36.8340 O   0  0  0  0  0  0  0  0  0  0  0  0
   47.2840   34.7100   41.9500 C   0  0  1  0  0  0  0  0  0  0  0  0
   48.4100   35.5940   41.7290 C   0  0  0  0  0  0  0  0  0  0  0  0
   48.6920   34.2300   42.2790 C   0  0  2  0  0  0  0  0  0  0  0  0
   46.8330   34.0760   41.1540 H   0  0  0  0  0  0  0  0  0  0  0  0
   48.6580   35.7970   40.6460 H   0  0  0  0  0  0  0  0  0  0  0  0
   48.5580   36.4950   42.3370 H   0  0  0  0  0  0  0  0  0  0  0  0
   48.9190   34.2110   43.3680 H   0  0  0  0  0  0  0  0  0  0  0  0
   45.5250   36.0640   43.1620 C   0  0  0  0  0  0  0  0  0  0  0  0
   46.3460   34.9100   43.0930 C   0  0  0  0  0  0  0  0  0  0  0  0
   46.2480   33.9860   44.1150 C   0  0  0  0  0  0  0  0  0  0  0  0
   45.3650   34.2500   45.1210 N   0  0  0  0  0  0  0  0  0  0  0  0
   44.5950   35.3530   45.1650 C   0  0  0  0  0  0  0  0  0  0  0  0
   44.6670   36.2760   44.1840 N   0  0  0  0  0  0  0  0  0  0  0  0
   45.5750   36.8120   42.3780 H   0  0  0  0  0  0  0  0  0  0  0  0
   46.8420   33.0910   44.1200 H   0  0  0  0  0  0  0  0  0  0  0  0
   43.9450   35.4080   46.0390 H   0  0  0  0  0  0  0  0  0  0  0  0
  1  2  1  1  0  0  0
  1 29  1  0  0  0  0
  2  8  1  0  0  0  0
  3 10  1  0  0  0  0
  3  2  1  0  0  0  0
  3  4  1  0  0  0  0
  4 11  1  0  0  0  0
  5  4  1  0  0  0  0
  5 14  1  0  0  0  0
  6 15  1  1  0  0  0
  6  1  1  0  0  0  0
  6  5  1  0  0  0  0
  7  2  1  0  0  0  0
  9  3  1  0  0  0  0
 12  4  1  0  0  0  0
 13  5  1  0  0  0  0
 16 17  1  0  0  0  0
 17  6  1  0  0  0  0
 18 17  2  0  0  0  0
 18 19  1  0  0  0  0
 20 18  1  0  0  0  0
 21 22  1  0  0  0  0
 21 20  2  0  0  0  0
 22 16  2  0  0  0  0
 23 21  1  0  0  0  0
 24 23  1  0  0  0  0
 24 26  1  0  0  0  0
 25 24  1  0  0  0  0
 26 20  1  0  0  0  0
 27 30  1  6  0  0  0
 27 29  1  0  0  0  0
 27 35  1  0  0  0  0
 28 27  1  0  0  0  0
 28 29  1  0  0  0  0
 28 32  1  0  0  0  0
 29 33  1  1  0  0  0
 31 28  1  0  0  0  0
 34 39  1  0  0  0  0
 35 34  2  0  0  0  0
 35 36  1  0  0  0  0
 36 41  1  0  0  0  0
 36 37  2  0  0  0  0
 37 38  1  0  0  0  0
 38 42  1  0  0  0  0
 39 38  2  0  0  0  0
 40 34  1  0  0  0  0
M  END
>  <minimizedAffinity>
-5.22639322

>  <minimizedRMSD>
0.63898176

$$$$
