
 OpenBabel03252508513D

 30 33  0  0  0  0  0  0  0  0999 V2000
   45.8300   34.2350   41.0460 C   0  0  0  0  0  0  0  0  0  0  0  0
   46.4550   34.7870   42.1580 C   0  0  0  0  0  0  0  0  0  0  0  0
   47.8240   35.0490   42.0320 C   0  0  0  0  0  0  0  0  0  0  0  0
   48.4500   34.7520   40.8490 N   0  0  0  0  0  0  0  0  0  0  0  0
   47.7990   34.2240   39.8200 C   0  0  0  0  0  0  0  0  0  0  0  0
   46.4860   33.9580   39.8980 N   0  0  0  0  0  0  0  0  0  0  0  0
   48.3370   35.4780   42.8810 H   0  0  0  0  0  0  0  0  0  0  0  0
   48.3010   33.9940   38.8930 H   0  0  0  0  0  0  0  0  0  0  0  0
   45.6980   35.0610   43.3610 C   0  0  0  0  0  0  0  0  0  0  0  0
   45.1070   36.2750   43.6200 C   0  0  0  0  0  0  0  0  0  0  0  0
   44.5080   36.0870   44.8490 C   0  0  0  0  0  0  0  0  0  0  0  0
   44.7220   34.8320   45.3070 N   0  0  0  0  0  0  0  0  0  0  0  0
   45.4450   34.2310   44.3890 N   0  0  0  0  0  0  0  0  0  0  0  0
   45.0690   37.1980   43.0630 H   0  0  0  0  0  0  0  0  0  0  0  0
   43.9160   36.7830   45.4610 H   0  0  0  0  0  0  0  0  0  0  0  0
   44.4250   34.3510   46.1800 H   0  0  0  0  0  0  0  0  0  0  0  0
   44.4760   33.9610   41.1270 O   0  0  0  0  0  0  0  0  0  0  0  0
   43.4460   34.7380   40.6750 C   0  0  0  0  0  0  0  0  0  0  0  0
   43.2880   36.0000   40.8590 O   0  0  0  0  0  0  0  0  0  0  0  0
   41.2390   34.9780   39.4500 C   0  0  0  0  0  3  0  0  0  0  0  0
   42.3100   34.1980   39.8700 C   0  0  0  0  0  0  0  0  0  0  0  0
   42.2060   32.8890   39.4650 C   0  0  0  0  0  0  0  0  0  0  0  0
   42.9950   32.1970   39.7430 H   0  0  0  0  0  0  0  0  0  0  0  0
   41.1710   32.3810   38.7280 C   0  0  0  0  0  0  0  0  0  0  0  0
   40.1530   33.2290   38.3580 C   0  0  0  0  0  0  0  0  0  0  0  0
   40.1610   34.5530   38.7100 C   0  0  0  0  0  3  0  0  0  0  0  0
   39.2530   32.4700   37.6340 O   0  0  0  0  0  0  0  0  0  0  0  0
   39.6710   31.1140   37.5570 C   0  0  0  0  0  3  0  0  0  0  0  0
   39.8740   30.7830   36.5180 H   0  0  0  0  0  0  0  0  0  0  0  0
   40.9050   31.1090   38.2390 O   0  0  0  0  0  0  0  0  0  0  0  0
  1 17  1  0  0  0  0
  1  2  1  0  0  0  0
  2  9  1  0  0  0  0
  3  2  2  0  0  0  0
  3  7  1  0  0  0  0
  4  3  1  0  0  0  0
  5  6  1  0  0  0  0
  5  4  2  0  0  0  0
  6  1  2  0  0  0  0
  8  5  1  0  0  0  0
  9 10  1  0  0  0  0
  9 13  2  0  0  0  0
 10 11  2  0  0  0  0
 11 12  1  0  0  0  0
 11 15  1  0  0  0  0
 12 16  1  0  0  0  0
 13 12  1  0  0  0  0
 14 10  1  0  0  0  0
 18 19  2  0  0  0  0
 18 17  1  0  0  0  0
 20 21  1  0  0  0  0
 21 18  1  0  0  0  0
 22 23  1  0  0  0  0
 22 21  2  0  0  0  0
 24 22  1  0  0  0  0
 25 26  1  0  0  0  0
 25 24  2  0  0  0  0
 26 20  2  0  0  0  0
 27 25  1  0  0  0  0
 28 27  1  0  0  0  0
 28 30  1  0  0  0  0
 29 28  1  0  0  0  0
 30 24  1  0  0  0  0
M  END
>  <minimizedAffinity>
-5.74345636

>  <minimizedRMSD>
1.10034144

$$$$
