
 OpenBabel03252507373D

 40 45  0  0  0  0  0  0  0  0999 V2000
   45.8370   34.7140   43.6590 C   0  0  0  0  0  0  0  0  0  0  0  0
   46.5450   33.6760   44.2960 C   0  0  0  0  0  0  0  0  0  0  0  0
   46.2400   33.4050   45.6160 C   0  0  0  0  0  0  0  0  0  0  0  0
   45.2920   34.1290   46.2310 N   0  0  0  0  0  0  0  0  0  0  0  0
   44.6150   35.1280   45.6020 C   0  0  0  0  0  0  0  0  0  0  0  0
   44.8920   35.4080   44.3350 N   0  0  0  0  0  0  0  0  0  0  0  0
   47.3060   33.0910   43.8080 H   0  0  0  0  0  0  0  0  0  0  0  0
   43.8810   35.6280   46.2210 H   0  0  0  0  0  0  0  0  0  0  0  0
   47.1750   32.6400   47.7310 C   0  0  0  0  0  0  0  0  0  0  0  0
   46.8960   32.3560   46.3970 C   0  0  0  0  0  0  0  0  0  0  0  0
   47.2490   31.1230   45.9020 C   0  0  0  0  0  0  0  0  0  0  0  0
   47.8640   30.1700   46.6830 C   0  0  0  0  0  0  0  0  0  0  0  0
   48.2920   28.9080   46.4050 N   0  0  0  0  0  0  0  0  0  0  0  0
   48.8390   28.4070   47.5740 C   0  0  0  0  0  0  0  0  0  0  0  0
   48.7380   29.3490   48.5170 N   0  0  0  0  0  0  0  0  0  0  0  0
   48.1420   30.4410   47.9960 C   0  0  0  0  0  0  0  0  0  0  0  0
   47.8000   31.6690   48.5160 C   0  0  0  0  0  0  0  0  0  0  0  0
   46.9320   33.5890   48.2090 H   0  0  0  0  0  0  0  0  0  0  0  0
   47.0280   30.9080   44.8600 H   0  0  0  0  0  0  0  0  0  0  0  0
   48.2130   28.4250   45.4740 H   0  0  0  0  0  0  0  0  0  0  0  0
   49.2700   27.4250   47.6920 H   0  0  0  0  0  0  0  0  0  0  0  0
   48.0240   31.8740   49.5580 H   0  0  0  0  0  0  0  0  0  0  0  0
   46.1340   34.9980   42.3280 O   0  0  0  0  0  0  0  0  0  0  0  0
   45.2630   34.6110   41.3180 C   0  0  0  0  0  0  0  0  0  0  0  0
   46.0040   33.6720   40.6940 C   0  0  0  0  0  0  0  0  0  0  0  0
   44.8160   33.1230   39.2980 S   0  0  0  0  0  0  0  0  0  0  0  0
   43.5420   34.3610   39.9300 C   0  0  0  0  0  0  0  0  0  0  0  0
   44.0820   34.7970   40.7810 N   0  0  0  0  0  0  0  0  0  0  0  0
   46.9310   32.9600   40.4550 H   0  0  0  0  0  0  0  0  0  0  0  0
   41.9680   35.4630   38.3180 C   0  0  0  0  0  0  0  0  0  0  0  0
   42.2280   34.4470   39.1940 C   0  0  0  0  0  0  0  0  0  0  0  0
   41.4070   33.4160   39.5270 C   0  0  0  0  0  0  0  0  0  0  0  0
   41.6440   32.6260   40.2250 H   0  0  0  0  0  0  0  0  0  0  0  0
   40.1590   33.4110   38.8920 C   0  0  0  0  0  0  0  0  0  0  0  0
   39.8350   34.4230   37.9880 C   0  0  0  0  0  0  0  0  0  0  0  0
   40.7320   35.4470   37.6990 C   0  0  0  0  0  0  0  0  0  0  0  0
   38.5370   34.1600   37.5150 O   0  0  0  0  0  0  0  0  0  0  0  0
   38.2210   32.8070   37.8380 C   0  0  0  0  0  0  0  0  0  0  0  0
   37.1610   32.6650   38.0720 H   0  0  0  0  0  0  0  0  0  0  0  0
   39.0510   32.5470   38.9570 O   0  0  0  0  0  0  0  0  0  0  0  0
  1  2  2  0  0  0  0
  1  6  1  0  0  0  0
  2  3  1  0  0  0  0
  3  4  2  0  0  0  0
  3 10  1  0  0  0  0
  5  8  1  0  0  0  0
  5  4  1  0  0  0  0
  6  5  2  0  0  0  0
  7  2  1  0  0  0  0
  9 18  1  0  0  0  0
  9 17  1  0  0  0  0
 10  9  2  0  0  0  0
 11 10  1  0  0  0  0
 11 12  2  0  0  0  0
 12 16  1  0  0  0  0
 13 12  1  0  0  0  0
 13 14  1  0  0  0  0
 14 21  1  0  0  0  0
 14 15  2  0  0  0  0
 16 17  2  0  0  0  0
 16 15  1  0  0  0  0
 17 22  1  0  0  0  0
 19 11  1  0  0  0  0
 20 13  1  0  0  0  0
 23  1  1  0  0  0  0
 24 23  1  0  0  0  0
 25 24  2  0  0  0  0
 26 27  1  0  0  0  0
 26 25  1  0  0  0  0
 27 28  2  0  0  0  0
 28 24  1  0  0  0  0
 29 25  1  0  0  0  0
 30 31  1  0  0  0  0
 31 32  2  0  0  0  0
 31 27  1  0  0  0  0
 32 33  1  0  0  0  0
 34 40  1  0  0  0  0
 34 32  1  0  0  0  0
 35 34  2  0  0  0  0
 36 35  1  0  0  0  0
 36 30  2  0  0  0  0
 37 38  1  0  0  0  0
 37 35  1  0  0  0  0
 38 39  1  0  0  0  0
 38 40  1  0  0  0  0
M  END
>  <minimizedAffinity>
-7.32141972

>  <minimizedRMSD>
1.52902365

$$$$
