
 OpenBabel03242520403D

 41 45  0  0  1  0  0  0  0  0999 V2000
   45.8380   33.4790   45.7270 C   0  0  0  0  0  0  0  0  0  0  0  0
   46.6680   33.6330   44.5860 C   0  0  0  0  0  0  0  0  0  0  0  0
   47.3640   32.4830   44.1070 C   0  0  0  0  0  0  0  0  0  0  0  0
   47.2020   31.2910   44.7590 N   0  0  0  0  0  0  0  0  0  0  0  0
   46.3940   31.2080   45.8450 C   0  0  0  0  0  0  0  0  0  0  0  0
   45.7250   32.2900   46.3160 N   0  0  0  0  0  0  0  0  0  0  0  0
   46.2870   29.9520   46.4530 N   0  0  0  0  0  0  0  0  0  0  0  0
   47.4380   29.2930   46.9740 C   0  0  2  0  0  0  0  0  0  0  0  0
   47.2330   27.8670   47.3470 C   0  0  0  0  0  0  0  0  0  0  0  0
   45.9390   27.4970   47.7790 N   0  0  0  0  0  0  0  0  0  0  0  0
   45.0150   28.5710   47.8740 C   0  0  0  0  0  0  0  0  0  0  0  0
   44.9950   29.3100   46.5610 C   0  0  0  0  0  0  0  0  0  0  0  0
   45.3510   34.3830   46.0250 H   0  0  0  0  0  0  0  0  0  0  0  0
   46.8460   34.5210   44.0240 H   0  0  0  0  0  0  0  0  0  0  0  0
   48.0080   32.5480   43.2410 H   0  0  0  0  0  0  0  0  0  0  0  0
   48.1710   29.2410   46.1080 H   0  0  0  0  0  0  0  0  0  0  0  0
   47.9470   27.6480   48.1920 H   0  0  0  0  0  0  0  0  0  0  0  0
   47.5330   27.1560   46.5490 H   0  0  0  0  0  0  0  0  0  0  0  0
   45.9080   26.7980   48.5510 H   0  0  0  0  0  0  0  0  0  0  0  0
   43.9920   28.0960   47.9740 H   0  0  0  0  0  0  0  0  0  0  0  0
   45.1240   29.2190   48.7440 H   0  0  0  0  0  0  0  0  0  0  0  0
   44.9560   28.5540   45.7690 H   0  0  0  0  0  0  0  0  0  0  0  0
   44.1770   30.0580   46.4900 H   0  0  0  0  0  0  0  0  0  0  0  0
   48.0980   30.0870   48.0450 C   0  0  0  0  0  0  0  0  0  0  0  0
   47.6080   30.8780   49.0540 C   0  0  0  0  0  0  0  0  0  0  0  0
   48.5880   31.3970   49.8000 N   0  0  0  0  0  0  0  0  0  0  0  0
   49.7180   30.9390   49.2710 C   0  0  0  0  0  0  0  0  0  0  0  0
   49.4280   30.1540   48.2190 N   0  0  0  0  0  0  0  0  0  0  0  0
   46.5570   31.0610   49.2220 H   0  0  0  0  0  0  0  0  0  0  0  0
   48.5230   32.0290   50.6270 H   0  0  0  0  0  0  0  0  0  0  0  0
   52.2120   30.9240   48.8640 C   0  0  0  0  0  3  0  0  0  0  0  0
   51.1150   31.1680   49.6650 C   0  0  0  0  0  0  0  0  0  0  0  0
   51.3370   31.6650   50.9330 C   0  0  0  0  0  0  0  0  0  0  0  0
   50.5040   31.8680   51.5870 H   0  0  0  0  0  0  0  0  0  0  0  0
   52.6080   31.9200   51.4130 C   0  0  0  0  0  0  0  0  0  0  0  0
   53.7180   31.6750   50.6060 C   0  0  0  0  0  0  0  0  0  0  0  0
   53.4830   31.1790   49.3400 C   0  0  0  0  0  3  0  0  0  0  0  0
   54.8810   32.0120   51.3170 O   0  0  0  0  0  0  0  0  0  0  0  0
   54.4660   31.9410   52.6880 C   0  0  0  0  0  3  0  0  0  0  0  0
   55.1440   32.5780   53.2560 H   0  0  0  0  0  0  0  0  0  0  0  0
   53.1320   32.4080   52.6120 O   0  0  0  0  0  0  0  0  0  0  0  0
  1 13  1  0  0  0  0
  1  6  1  0  0  0  0
  2  1  2  0  0  0  0
  3  2  1  0  0  0  0
  3  4  2  0  0  0  0
  4  5  1  0  0  0  0
  5  6  2  0  0  0  0
  5  7  1  0  0  0  0
  7 12  1  0  0  0  0
  7  8  1  0  0  0  0
  8 16  1  6  0  0  0
  8  9  1  0  0  0  0
  8 24  1  0  0  0  0
  9 10  1  0  0  0  0
  9 17  1  0  0  0  0
 10 11  1  0  0  0  0
 10 19  1  0  0  0  0
 11 20  1  0  0  0  0
 11 21  1  0  0  0  0
 12 11  1  0  0  0  0
 14  2  1  0  0  0  0
 15  3  1  0  0  0  0
 18  9  1  0  0  0  0
 22 12  1  0  0  0  0
 23 12  1  0  0  0  0
 24 28  1  0  0  0  0
 24 25  2  0  0  0  0
 25 29  1  0  0  0  0
 25 26  1  0  0  0  0
 26 30  1  0  0  0  0
 27 32  1  0  0  0  0
 27 26  1  0  0  0  0
 28 27  2  0  0  0  0
 31 37  2  0  0  0  0
 31 32  1  0  0  0  0
 32 33  2  0  0  0  0
 33 35  1  0  0  0  0
 33 34  1  0  0  0  0
 35 41  1  0  0  0  0
 36 38  1  0  0  0  0
 36 35  2  0  0  0  0
 37 36  1  0  0  0  0
 38 39  1  0  0  0  0
 39 40  1  0  0  0  0
 41 39  1  0  0  0  0
M  END
>  <minimizedAffinity>
-5.39577913

>  <minimizedRMSD>
0.458687067

$$$$
