REMARK  Name = 
REMARK  3 active torsions:
REMARK  status: ('A' for Active; 'I' for Inactive)
REMARK    1  A    between atoms: C_2  and  N_10
REMARK    2  A    between atoms: C_3  and  C_7
REMARK    3  A    between atoms: C_9  and  C_20
REMARK                            x       y       z     vdW  Elec       q    Type
REMARK                         _______ _______ _______ _____ _____    ______ ____
ROOT
ATOM      1  C   UNL     1      46.541  34.976  41.940  0.00  0.00    +0.000 C 
ATOM      2  C   UNL     1      48.067  35.269  41.944  0.00  0.00    +0.000 C 
ATOM      3  C   UNL     1      47.382  33.973  41.393  0.00  0.00    +0.000 C 
ATOM      4  H   UNL     1      45.964  35.712  41.350  0.00  0.00    +0.000 HD
ATOM      5  H   UNL     1      48.638  35.105  42.854  0.00  0.00    +0.000 HD
ATOM      6  H   UNL     1      48.431  35.966  41.166  0.00  0.00    +0.000 HD
ATOM      7  H   UNL     1      47.558  33.047  41.979  0.00  0.00    +0.000 HD
ENDROOT
BRANCH   3   9
ATOM      8  C   UNL     1      46.430  33.747  39.049  0.00  0.00    +0.000 A 
ATOM      9  C   UNL     1      47.504  33.794  39.913  0.00  0.00    +0.000 A 
ATOM     10  C   UNL     1      48.760  33.661  39.312  0.00  0.00    +0.000 A 
ATOM     11  H   UNL     1      49.624  33.695  39.974  0.00  0.00    +0.000 HD
ATOM     12  C   UNL     1      48.969  33.493  37.968  0.00  0.00    +0.000 A 
ATOM     13  C   UNL     1      47.867  33.451  37.139  0.00  0.00    +0.000 A 
ATOM     14  C   UNL     1      46.590  33.579  37.687  0.00  0.00    +0.000 A 
ATOM     15  O   UNL     1      48.357  33.277  35.860  0.00  0.00    +0.000 OA
ATOM     16  C   UNL     1      49.764  33.400  35.855  0.00  0.00    +0.000 C 
ATOM     17  H   UNL     1      50.181  32.554  35.281  0.00  0.00    +0.000 HD
ATOM     18  O   UNL     1      50.123  33.346  37.214  0.00  0.00    +0.000 OA
ENDBRANCH   3   9
BRANCH   1  21
ATOM     19  C   UNL     1      44.623  35.460  45.132  0.00  0.00    +0.000 A 
ATOM     20  C   UNL     1      45.096  35.716  43.799  0.00  0.00    +0.000 A 
ATOM     21  C   UNL     1      46.042  34.829  43.357  0.00  0.00    +0.000 A 
ATOM     22  N   UNL     1      46.492  33.783  44.146  0.00  0.00    +0.000 NA
ATOM     23  C   UNL     1      46.013  33.598  45.378  0.00  0.00    +0.000 A 
ATOM     24  N   UNL     1      45.080  34.429  45.880  0.00  0.00    +0.000 NA
ATOM     25  H   UNL     1      43.878  36.128  45.525  0.00  0.00    +0.000 HD
ATOM     26  H   UNL     1      46.471  32.739  45.852  0.00  0.00    +0.000 HD
BRANCH  20  27
ATOM     27  N   UNL     1      44.647  36.808  43.020  0.00  0.00    +0.000 N 
ATOM     28  H   UNL     1      45.312  37.601  42.809  0.00  0.00    +0.000 HD
ATOM     29  H   UNL     1      43.666  36.861  42.640  0.00  0.00    +0.000 HD
ENDBRANCH  20  27
ENDBRANCH   1  21
TORSDOF 3
