
 OpenBabel03252506413D

 42 46  0  0  1  0  0  0  0  0999 V2000
   49.4050   33.3070   41.4980 N   0  0  1  0  0  0  0  0  0  0  0  0
   50.7060   33.1480   42.1020 C   0  0  0  0  0  0  0  0  0  0  0  0
   51.3440   31.8300   41.7360 C   0  0  0  0  0  0  0  0  0  0  0  0
   50.5760   30.7510   42.4560 C   0  0  0  0  0  0  0  0  0  0  0  0
   49.0930   31.0230   42.3700 C   0  0  0  0  0  0  0  0  0  0  0  0
   48.7860   32.0090   41.2910 C   0  0  2  0  0  0  0  0  0  0  0  0
   51.3750   34.0150   41.9120 H   0  0  0  0  0  0  0  0  0  0  0  0
   50.5650   33.1110   43.2110 H   0  0  0  0  0  0  0  0  0  0  0  0
   51.3640   31.7040   40.6550 H   0  0  0  0  0  0  0  0  0  0  0  0
   52.3990   31.8970   42.0730 H   0  0  0  0  0  0  0  0  0  0  0  0
   50.9130   30.6210   43.5040 H   0  0  0  0  0  0  0  0  0  0  0  0
   50.7780   29.7900   41.9570 H   0  0  0  0  0  0  0  0  0  0  0  0
   48.5070   30.1110   42.1600 H   0  0  0  0  0  0  0  0  0  0  0  0
   48.7800   31.4840   43.3220 H   0  0  0  0  0  0  0  0  0  0  0  0
   47.6800   32.2360   41.4300 H   0  0  0  0  0  0  0  0  0  0  0  0
   48.4010   30.2260   39.8180 C   0  0  0  0  0  3  0  0  0  0  0  0
   48.9060   31.5300   39.9150 C   0  0  0  0  0  0  0  0  0  0  0  0
   49.4000   32.0980   38.7800 C   0  0  0  0  0  0  0  0  0  0  0  0
   49.7710   33.0880   38.9330 H   0  0  0  0  0  0  0  0  0  0  0  0
   49.4030   31.4160   37.5830 C   0  0  0  0  0  0  0  0  0  0  0  0
   48.9210   30.1340   37.4290 C   0  0  0  0  0  0  0  0  0  0  0  0
   48.4160   29.5550   38.5890 C   0  0  0  0  0  3  0  0  0  0  0  0
   49.0570   29.7150   36.1150 O   0  0  0  0  0  0  0  0  0  0  0  0
   49.9570   30.6100   35.5060 C   0  0  0  0  0  3  0  0  0  0  0  0
   49.5680   30.8760   34.5090 H   0  0  0  0  0  0  0  0  0  0  0  0
   49.8440   31.7760   36.3180 O   0  0  0  0  0  0  0  0  0  0  0  0
   47.2400   34.6330   41.9970 C   0  0  1  0  0  0  0  0  0  0  0  0
   48.3490   35.5200   41.7160 C   0  0  0  0  0  0  0  0  0  0  0  0
   48.6580   34.1930   42.3340 C   0  0  2  0  0  0  0  0  0  0  0  0
   46.7890   33.9500   41.2410 H   0  0  0  0  0  0  0  0  0  0  0  0
   48.5820   35.6690   40.6210 H   0  0  0  0  0  0  0  0  0  0  0  0
   48.4900   36.4550   42.2730 H   0  0  0  0  0  0  0  0  0  0  0  0
   48.8990   34.2350   43.4190 H   0  0  0  0  0  0  0  0  0  0  0  0
   45.5110   36.0490   43.1820 C   0  0  0  0  0  0  0  0  0  0  0  0
   46.3120   34.8790   43.1390 C   0  0  0  0  0  0  0  0  0  0  0  0
   46.2030   33.9850   44.1850 C   0  0  0  0  0  0  0  0  0  0  0  0
   45.3310   34.2900   45.1890 N   0  0  0  0  0  0  0  0  0  0  0  0
   44.5810   35.4070   45.2080 C   0  0  0  0  0  0  0  0  0  0  0  0
   44.6630   36.3020   44.2030 N   0  0  0  0  0  0  0  0  0  0  0  0
   45.5710   36.7750   42.3790 H   0  0  0  0  0  0  0  0  0  0  0  0
   46.7820   33.0800   44.2110 H   0  0  0  0  0  0  0  0  0  0  0  0
   43.9360   35.4970   46.0840 H   0  0  0  0  0  0  0  0  0  0  0  0
  1  2  1  1  0  0  0
  1 29  1  0  0  0  0
  2  8  1  0  0  0  0
  3 10  1  0  0  0  0
  3  2  1  0  0  0  0
  3  4  1  0  0  0  0
  4 11  1  0  0  0  0
  5  4  1  0  0  0  0
  5 14  1  0  0  0  0
  6 15  1  1  0  0  0
  6  1  1  0  0  0  0
  6  5  1  0  0  0  0
  7  2  1  0  0  0  0
  9  3  1  0  0  0  0
 12  4  1  0  0  0  0
 13  5  1  0  0  0  0
 16 17  1  0  0  0  0
 17  6  1  0  0  0  0
 18 19  1  0  0  0  0
 18 17  2  0  0  0  0
 20 18  1  0  0  0  0
 21 20  2  0  0  0  0
 21 22  1  0  0  0  0
 22 16  2  0  0  0  0
 23 21  1  0  0  0  0
 24 23  1  0  0  0  0
 24 26  1  0  0  0  0
 25 24  1  0  0  0  0
 26 20  1  0  0  0  0
 27 30  1  6  0  0  0
 27 29  1  0  0  0  0
 27 35  1  0  0  0  0
 28 27  1  0  0  0  0
 28 32  1  0  0  0  0
 28 29  1  0  0  0  0
 29 33  1  1  0  0  0
 31 28  1  0  0  0  0
 34 39  1  0  0  0  0
 35 34  2  0  0  0  0
 35 36  1  0  0  0  0
 36 41  1  0  0  0  0
 36 37  2  0  0  0  0
 37 38  1  0  0  0  0
 38 42  1  0  0  0  0
 39 38  2  0  0  0  0
 40 34  1  0  0  0  0
M  END
>  <minimizedAffinity>
-5.14465761

>  <minimizedRMSD>
0.396261424

$$$$
