
 OpenBabel03252508513D

 30 33  0  0  0  0  0  0  0  0999 V2000
   45.8700   34.2170   41.0240 C   0  0  0  0  0  0  0  0  0  0  0  0
   46.4840   34.7880   42.1330 C   0  0  0  0  0  0  0  0  0  0  0  0
   47.8460   35.0810   42.0040 C   0  0  0  0  0  0  0  0  0  0  0  0
   48.4770   34.7930   40.8210 N   0  0  0  0  0  0  0  0  0  0  0  0
   47.8370   34.2450   39.7960 C   0  0  0  0  0  0  0  0  0  0  0  0
   46.5310   33.9500   39.8760 N   0  0  0  0  0  0  0  0  0  0  0  0
   48.3500   35.5260   42.8500 H   0  0  0  0  0  0  0  0  0  0  0  0
   48.3430   34.0230   38.8690 H   0  0  0  0  0  0  0  0  0  0  0  0
   45.7220   35.0500   43.3350 C   0  0  0  0  0  0  0  0  0  0  0  0
   45.1050   36.2520   43.5910 C   0  0  0  0  0  0  0  0  0  0  0  0
   44.5110   36.0560   44.8200 C   0  0  0  0  0  0  0  0  0  0  0  0
   44.7530   34.8080   45.2840 N   0  0  0  0  0  0  0  0  0  0  0  0
   45.4880   34.2190   44.3670 N   0  0  0  0  0  0  0  0  0  0  0  0
   45.0460   37.1720   43.0300 H   0  0  0  0  0  0  0  0  0  0  0  0
   43.9050   36.7410   45.4310 H   0  0  0  0  0  0  0  0  0  0  0  0
   44.4670   34.3230   46.1590 H   0  0  0  0  0  0  0  0  0  0  0  0
   44.5220   33.9120   41.1080 O   0  0  0  0  0  0  0  0  0  0  0  0
   43.4750   34.6590   40.6480 C   0  0  0  0  0  0  0  0  0  0  0  0
   43.3040   35.9250   40.7900 O   0  0  0  0  0  0  0  0  0  0  0  0
   41.1370   34.7540   39.6710 C   0  0  0  0  0  3  0  0  0  0  0  0
   42.3320   34.0770   39.8830 C   0  0  0  0  0  0  0  0  0  0  0  0
   42.3420   32.8250   39.3160 C   0  0  0  0  0  0  0  0  0  0  0  0
   43.2340   32.2150   39.4250 H   0  0  0  0  0  0  0  0  0  0  0  0
   41.3010   32.2790   38.6140 C   0  0  0  0  0  0  0  0  0  0  0  0
   40.1560   33.0240   38.4550 C   0  0  0  0  0  0  0  0  0  0  0  0
   40.0440   34.2850   38.9830 C   0  0  0  0  0  3  0  0  0  0  0  0
   39.2810   32.2470   37.7190 O   0  0  0  0  0  0  0  0  0  0  0  0
   39.8480   30.9790   37.4230 C   0  0  0  0  0  3  0  0  0  0  0  0
   39.9770   30.8080   36.3340 H   0  0  0  0  0  0  0  0  0  0  0  0
   41.1390   31.0540   37.9830 O   0  0  0  0  0  0  0  0  0  0  0  0
  1 17  1  0  0  0  0
  1  2  1  0  0  0  0
  2  9  1  0  0  0  0
  3  2  2  0  0  0  0
  3  7  1  0  0  0  0
  4  3  1  0  0  0  0
  5  6  1  0  0  0  0
  5  4  2  0  0  0  0
  6  1  2  0  0  0  0
  8  5  1  0  0  0  0
  9 10  1  0  0  0  0
  9 13  2  0  0  0  0
 10 11  2  0  0  0  0
 11 12  1  0  0  0  0
 11 15  1  0  0  0  0
 12 16  1  0  0  0  0
 13 12  1  0  0  0  0
 14 10  1  0  0  0  0
 18 19  2  0  0  0  0
 18 17  1  0  0  0  0
 20 21  1  0  0  0  0
 21 18  1  0  0  0  0
 22 23  1  0  0  0  0
 22 21  2  0  0  0  0
 24 22  1  0  0  0  0
 25 24  2  0  0  0  0
 25 26  1  0  0  0  0
 26 20  2  0  0  0  0
 27 25  1  0  0  0  0
 28 27  1  0  0  0  0
 28 30  1  0  0  0  0
 29 28  1  0  0  0  0
 30 24  1  0  0  0  0
M  END
>  <minimizedAffinity>
-5.713552

>  <minimizedRMSD>
1.03821146

$$$$
