
 OpenBabel03252508543D

 45 49  0  0  1  0  0  0  0  0999 V2000
   43.2400   34.3400   40.6580 C   0  0  0  0  0  0  0  0  0  0  0  0
   43.1900   35.5500   40.2540 O   0  0  0  0  0  0  0  0  0  0  0  0
   41.8730   33.9300   40.3930 N   0  0  0  0  0  0  0  0  0  0  0  0
   41.4790   34.0080   39.0020 C   0  0  0  0  0  0  0  0  0  0  0  0
   40.6860   35.3280   38.8890 C   0  0  0  0  0  0  0  0  0  0  0  0
   39.9160   35.4810   40.2100 C   0  0  0  0  0  0  0  0  0  0  0  0
   39.5680   34.1290   40.7930 C   0  0  0  0  0  0  0  0  0  0  0  0
   40.8560   33.4620   41.3070 C   0  0  1  0  0  0  0  0  0  0  0  0
   42.3250   34.1100   38.3010 H   0  0  0  0  0  0  0  0  0  0  0  0
   40.8480   33.1680   38.6690 H   0  0  0  0  0  0  0  0  0  0  0  0
   41.4090   36.1750   38.8610 H   0  0  0  0  0  0  0  0  0  0  0  0
   40.0400   35.3540   38.0120 H   0  0  0  0  0  0  0  0  0  0  0  0
   38.9510   35.9600   39.9450 H   0  0  0  0  0  0  0  0  0  0  0  0
   40.4880   36.0490   40.9620 H   0  0  0  0  0  0  0  0  0  0  0  0
   39.1900   33.5160   39.9360 H   0  0  0  0  0  0  0  0  0  0  0  0
   38.8500   34.2910   41.5950 H   0  0  0  0  0  0  0  0  0  0  0  0
   41.1190   33.8170   42.3090 H   0  0  0  0  0  0  0  0  0  0  0  0
   40.7250   31.1840   40.2030 C   0  0  0  0  0  3  0  0  0  0  0  0
   40.6990   31.9870   41.3230 C   0  0  0  0  0  0  0  0  0  0  0  0
   40.5100   31.3800   42.5540 C   0  0  0  0  0  0  0  0  0  0  0  0
   40.4720   31.9220   43.5100 H   0  0  0  0  0  0  0  0  0  0  0  0
   40.3530   30.0130   42.6710 C   0  0  0  0  0  0  0  0  0  0  0  0
   40.3830   29.2170   41.5270 C   0  0  0  0  0  0  0  0  0  0  0  0
   40.5690   29.8030   40.2960 C   0  0  0  0  0  3  0  0  0  0  0  0
   40.2010   27.8800   41.9240 O   0  0  0  0  0  0  0  0  0  0  0  0
   40.6690   27.8430   43.2800 C   0  0  0  0  0  3  0  0  0  0  0  0
   40.2810   26.9930   43.8400 H   0  0  0  0  0  0  0  0  0  0  0  0
   40.1500   29.1050   43.7270 O   0  0  0  0  0  0  0  0  0  0  0  0
   44.3220   33.7020   41.1780 O   0  0  0  0  0  0  0  0  0  0  0  0
   45.6480   34.0030   40.9860 C   0  0  0  0  0  0  0  0  0  0  0  0
   46.3290   34.6300   42.0280 C   0  0  0  0  0  0  0  0  0  0  0  0
   47.6820   34.9260   41.8080 C   0  0  0  0  0  0  0  0  0  0  0  0
   48.2430   34.5880   40.6020 N   0  0  0  0  0  0  0  0  0  0  0  0
   47.5380   33.9900   39.6450 C   0  0  0  0  0  0  0  0  0  0  0  0
   46.2440   33.6930   39.8240 N   0  0  0  0  0  0  0  0  0  0  0  0
   48.2110   35.4120   42.6130 H   0  0  0  0  0  0  0  0  0  0  0  0
   48.0020   33.7280   38.6920 H   0  0  0  0  0  0  0  0  0  0  0  0
   45.6410   34.9440   43.2620 C   0  0  0  0  0  0  0  0  0  0  0  0
   45.0240   36.1750   43.4880 C   0  0  0  0  0  0  0  0  0  0  0  0
   44.5070   36.0480   44.7510 C   0  0  0  0  0  0  0  0  0  0  0  0
   44.7860   34.8250   45.2680 N   0  0  0  0  0  0  0  0  0  0  0  0
   45.4700   34.1890   44.3430 N   0  0  0  0  0  0  0  0  0  0  0  0
   44.9840   37.0090   42.8020 H   0  0  0  0  0  0  0  0  0  0  0  0
   43.9490   36.8500   45.2420 H   0  0  0  0  0  0  0  0  0  0  0  0
   44.4660   34.5480   46.2320 H   0  0  0  0  0  0  0  0  0  0  0  0
  1 29  1  0  0  0  0
  2  1  2  0  0  0  0
  3  1  1  0  0  0  0
  3  8  1  0  0  0  0
  4  3  1  0  0  0  0
  5  4  1  0  0  0  0
  5  6  1  0  0  0  0
  6  7  1  0  0  0  0
  6 14  1  0  0  0  0
  7  8  1  0  0  0  0
  7 16  1  0  0  0  0
  8 19  1  0  0  0  0
  8 17  1  1  0  0  0
  9  4  1  0  0  0  0
 10  4  1  0  0  0  0
 11  5  1  0  0  0  0
 12  5  1  0  0  0  0
 13  6  1  0  0  0  0
 15  7  1  0  0  0  0
 18 24  2  0  0  0  0
 18 19  1  0  0  0  0
 19 20  2  0  0  0  0
 20 22  1  0  0  0  0
 20 21  1  0  0  0  0
 22 28  1  0  0  0  0
 23 25  1  0  0  0  0
 23 22  2  0  0  0  0
 24 23  1  0  0  0  0
 25 26  1  0  0  0  0
 26 28  1  0  0  0  0
 26 27  1  0  0  0  0
 30 29  1  0  0  0  0
 30 31  1  0  0  0  0
 31 38  1  0  0  0  0
 32 31  2  0  0  0  0
 32 36  1  0  0  0  0
 33 32  1  0  0  0  0
 34 35  1  0  0  0  0
 34 33  2  0  0  0  0
 35 30  2  0  0  0  0
 37 34  1  0  0  0  0
 38 39  1  0  0  0  0
 38 42  2  0  0  0  0
 39 40  2  0  0  0  0
 40 44  1  0  0  0  0
 40 41  1  0  0  0  0
 41 45  1  0  0  0  0
 42 41  1  0  0  0  0
 43 39  1  0  0  0  0
M  END
>  <minimizedAffinity>
-7.14681911

>  <minimizedRMSD>
0.582029998

$$$$
