
 OpenBabel03252509253D

 29 32  0  0  1  0  0  0  0  0999 V2000
   37.2020   26.5170   41.8980 C   0  0  1  0  0  0  0  0  0  0  0  0
   36.5130   27.6340   42.7300 C   0  0  0  0  0  0  0  0  0  0  0  0
   37.1070   27.7960   41.2900 C   0  0  2  0  0  0  0  0  0  0  0  0
   36.5330   25.6630   41.6880 H   0  0  0  0  0  0  0  0  0  0  0  0
   37.0820   28.1550   43.4950 H   0  0  0  0  0  0  0  0  0  0  0  0
   35.4080   27.5970   42.7730 H   0  0  0  0  0  0  0  0  0  0  0  0
   38.0220   28.4190   41.2120 H   0  0  0  0  0  0  0  0  0  0  0  0
   35.1080   29.0350   40.3320 C   0  0  0  0  0  3  0  0  0  0  0  0
   36.0870   28.0700   40.2310 C   0  0  0  0  0  0  0  0  0  0  0  0
   36.0780   27.3330   39.0430 C   0  0  0  0  0  0  0  0  0  0  0  0
   36.8420   26.5630   38.9390 H   0  0  0  0  0  0  0  0  0  0  0  0
   35.1850   27.5120   38.0180 C   0  0  0  0  0  0  0  0  0  0  0  0
   34.2210   28.4890   38.1600 C   0  0  0  0  0  0  0  0  0  0  0  0
   34.1840   29.2540   39.3270 C   0  0  0  0  0  3  0  0  0  0  0  0
   33.4690   28.4550   37.0030 O   0  0  0  0  0  0  0  0  0  0  0  0
   34.0690   27.5970   36.0560 C   0  0  0  0  0  3  0  0  0  0  0  0
   33.2850   26.9350   35.6460 H   0  0  0  0  0  0  0  0  0  0  0  0
   35.0320   26.8840   36.7920 O   0  0  0  0  0  0  0  0  0  0  0  0
   40.1390   24.5000   43.0850 C   0  0  0  0  0  0  0  0  0  0  0  0
   38.8600   24.7900   42.4960 C   0  0  0  0  0  0  0  0  0  0  0  0
   38.4970   26.1090   42.5580 C   0  0  0  0  0  0  0  0  0  0  0  0
   39.3080   27.0660   43.1460 N   0  0  0  0  0  0  0  0  0  0  0  0
   40.4870   26.7340   43.6760 C   0  0  0  0  0  0  0  0  0  0  0  0
   40.9120   25.4570   43.6510 N   0  0  0  0  0  0  0  0  0  0  0  0
   40.4710   23.4780   43.0610 H   0  0  0  0  0  0  0  0  0  0  0  0
   40.9890   27.6000   44.0900 H   0  0  0  0  0  0  0  0  0  0  0  0
   38.0320   23.7930   41.9290 N   0  0  0  0  0  0  0  0  0  0  0  0
   37.1280   23.5360   42.4100 H   0  0  0  0  0  0  0  0  0  0  0  0
   38.2850   23.2930   41.0370 H   0  0  0  0  0  0  0  0  0  0  0  0
  1  4  1  6  0  0  0
  1 21  1  0  0  0  0
  1  2  1  0  0  0  0
  2  6  1  0  0  0  0
  2  5  1  0  0  0  0
  3  7  1  6  0  0  0
  3  1  1  0  0  0  0
  3  2  1  0  0  0  0
  9  8  1  0  0  0  0
  9  3  1  0  0  0  0
 10  9  2  0  0  0  0
 11 10  1  0  0  0  0
 12 13  2  0  0  0  0
 12 10  1  0  0  0  0
 13 14  1  0  0  0  0
 14  8  2  0  0  0  0
 15 13  1  0  0  0  0
 16 18  1  0  0  0  0
 16 15  1  0  0  0  0
 17 16  1  0  0  0  0
 18 12  1  0  0  0  0
 19 24  1  0  0  0  0
 20 21  1  0  0  0  0
 20 19  2  0  0  0  0
 21 22  2  0  0  0  0
 22 23  1  0  0  0  0
 23 26  1  0  0  0  0
 24 23  2  0  0  0  0
 25 19  1  0  0  0  0
 27 28  1  0  0  0  0
 27 20  1  0  0  0  0
 29 27  1  0  0  0  0
M  END
>  <minimizedAffinity>
-5.1417923

$$$$

 OpenBabel03252509253D

 29 32  0  0  1  0  0  0  0  0999 V2000
   37.2360   30.4200   41.3310 C   0  0  1  0  0  0  0  0  0  0  0  0
   35.8850   30.0770   40.6440 C   0  0  0  0  0  0  0  0  0  0  0  0
   37.2420   29.3250   40.4290 C   0  0  2  0  0  0  0  0  0  0  0  0
   37.1910   30.3340   42.4330 H   0  0  0  0  0  0  0  0  0  0  0  0
   35.5670   30.6540   39.7790 H   0  0  0  0  0  0  0  0  0  0  0  0
   35.1480   29.5330   41.2630 H   0  0  0  0  0  0  0  0  0  0  0  0
   37.7150   29.4570   39.4340 H   0  0  0  0  0  0  0  0  0  0  0  0
   37.0180   27.5600   42.2410 C   0  0  0  0  0  3  0  0  0  0  0  0
   37.2500   27.9150   40.9300 C   0  0  0  0  0  0  0  0  0  0  0  0
   37.5020   26.8520   40.0580 C   0  0  0  0  0  0  0  0  0  0  0  0
   37.6890   27.1070   39.0150 H   0  0  0  0  0  0  0  0  0  0  0  0
   37.5290   25.5310   40.4240 C   0  0  0  0  0  0  0  0  0  0  0  0
   37.2920   25.2180   41.7470 C   0  0  0  0  0  0  0  0  0  0  0  0
   37.0350   26.2420   42.6600 C   0  0  0  0  0  3  0  0  0  0  0  0
   37.3790   23.8440   41.8370 O   0  0  0  0  0  0  0  0  0  0  0  0
   37.4780   23.2760   40.5480 C   0  0  0  0  0  3  0  0  0  0  0  0
   38.3010   22.5380   40.5600 H   0  0  0  0  0  0  0  0  0  0  0  0
   37.7590   24.3670   39.7060 O   0  0  0  0  0  0  0  0  0  0  0  0
   39.3770   33.4460   40.7350 C   0  0  0  0  0  0  0  0  0  0  0  0
   38.9570   32.1880   41.2890 C   0  0  0  0  0  0  0  0  0  0  0  0
   37.7250   31.7670   40.8600 C   0  0  0  0  0  0  0  0  0  0  0  0
   36.9660   32.5090   39.9700 N   0  0  0  0  0  0  0  0  0  0  0  0
   37.4120   33.6720   39.4910 C   0  0  0  0  0  0  0  0  0  0  0  0
   38.6140   34.1490   39.8660 N   0  0  0  0  0  0  0  0  0  0  0  0
   40.3380   33.8200   41.0390 H   0  0  0  0  0  0  0  0  0  0  0  0
   36.6960   34.1170   38.8110 H   0  0  0  0  0  0  0  0  0  0  0  0
   39.7330   31.4600   42.2200 N   0  0  0  0  0  0  0  0  0  0  0  0
   39.3990   31.3760   43.2190 H   0  0  0  0  0  0  0  0  0  0  0  0
   40.6400   30.9950   41.9540 H   0  0  0  0  0  0  0  0  0  0  0  0
  1  4  1  1  0  0  0
  2  6  1  0  0  0  0
  2  1  1  0  0  0  0
  3  7  1  6  0  0  0
  3  2  1  0  0  0  0
  3  9  1  0  0  0  0
  3  1  1  0  0  0  0
  5  2  1  0  0  0  0
  8 14  1  0  0  0  0
  9  8  2  0  0  0  0
 10 12  2  0  0  0  0
 10  9  1  0  0  0  0
 11 10  1  0  0  0  0
 12 13  1  0  0  0  0
 13 15  1  0  0  0  0
 13 14  2  0  0  0  0
 16 17  1  0  0  0  0
 16 15  1  0  0  0  0
 18 12  1  0  0  0  0
 18 16  1  0  0  0  0
 19 25  1  0  0  0  0
 19 20  1  0  0  0  0
 20 27  1  0  0  0  0
 21 20  2  0  0  0  0
 21  1  1  0  0  0  0
 22 21  1  0  0  0  0
 23 24  1  0  0  0  0
 23 22  2  0  0  0  0
 24 19  2  0  0  0  0
 26 23  1  0  0  0  0
 27 28  1  0  0  0  0
 29 27  1  0  0  0  0
M  END
>  <minimizedAffinity>
-5.13568354

$$$$

 OpenBabel03252509253D

 29 32  0  0  1  0  0  0  0  0999 V2000
   37.6940   30.3220   41.4470 C   0  0  1  0  0  0  0  0  0  0  0  0
   36.1910   29.9700   41.2660 C   0  0  0  0  0  0  0  0  0  0  0  0
   37.3910   29.2780   40.5360 C   0  0  2  0  0  0  0  0  0  0  0  0
   38.0470   30.1770   42.4850 H   0  0  0  0  0  0  0  0  0  0  0  0
   35.5770   30.5800   40.6090 H   0  0  0  0  0  0  0  0  0  0  0  0
   35.7310   29.3680   42.0720 H   0  0  0  0  0  0  0  0  0  0  0  0
   37.4760   29.4790   39.4470 H   0  0  0  0  0  0  0  0  0  0  0  0
   36.9330   26.7890   40.3240 C   0  0  0  0  0  3  0  0  0  0  0  0
   37.5970   27.8450   40.9110 C   0  0  0  0  0  0  0  0  0  0  0  0
   38.5060   27.4950   41.9140 C   0  0  0  0  0  0  0  0  0  0  0  0
   39.0440   28.3120   42.3940 H   0  0  0  0  0  0  0  0  0  0  0  0
   38.7620   26.2120   42.3250 C   0  0  0  0  0  0  0  0  0  0  0  0
   38.0750   25.1840   41.7100 C   0  0  0  0  0  0  0  0  0  0  0  0
   37.1550   25.4780   40.7040 C   0  0  0  0  0  3  0  0  0  0  0  0
   38.5160   24.0200   42.3070 O   0  0  0  0  0  0  0  0  0  0  0  0
   39.6120   24.2910   43.1550 C   0  0  0  0  0  3  0  0  0  0  0  0
   39.4330   23.7840   44.1210 H   0  0  0  0  0  0  0  0  0  0  0  0
   39.6150   25.6910   43.2850 O   0  0  0  0  0  0  0  0  0  0  0  0
   39.3580   33.5930   40.6510 C   0  0  0  0  0  0  0  0  0  0  0  0
   39.1490   32.3060   41.2570 C   0  0  0  0  0  0  0  0  0  0  0  0
   37.9640   31.7090   40.9170 C   0  0  0  0  0  0  0  0  0  0  0  0
   37.0570   32.3140   40.0620 N   0  0  0  0  0  0  0  0  0  0  0  0
   37.3100   33.5120   39.5310 C   0  0  0  0  0  0  0  0  0  0  0  0
   38.4550   34.1590   39.8180 N   0  0  0  0  0  0  0  0  0  0  0  0
   40.2750   34.1020   40.8860 H   0  0  0  0  0  0  0  0  0  0  0  0
   36.5000   33.8350   38.8890 H   0  0  0  0  0  0  0  0  0  0  0  0
   40.0730   31.7180   42.1530 N   0  0  0  0  0  0  0  0  0  0  0  0
   39.8140   31.6190   43.1720 H   0  0  0  0  0  0  0  0  0  0  0  0
   41.0180   31.3730   41.8390 H   0  0  0  0  0  0  0  0  0  0  0  0
  1  4  1  1  0  0  0
  2  1  1  0  0  0  0
  2  6  1  0  0  0  0
  3  7  1  6  0  0  0
  3  9  1  0  0  0  0
  3  2  1  0  0  0  0
  3  1  1  0  0  0  0
  5  2  1  0  0  0  0
  8 14  2  0  0  0  0
  8  9  1  0  0  0  0
  9 10  2  0  0  0  0
 10 12  1  0  0  0  0
 10 11  1  0  0  0  0
 12 18  1  0  0  0  0
 13 15  1  0  0  0  0
 13 12  2  0  0  0  0
 14 13  1  0  0  0  0
 15 16  1  0  0  0  0
 16 18  1  0  0  0  0
 16 17  1  0  0  0  0
 19 25  1  0  0  0  0
 19 20  1  0  0  0  0
 20 27  1  0  0  0  0
 21 20  2  0  0  0  0
 21  1  1  0  0  0  0
 22 21  1  0  0  0  0
 23 24  1  0  0  0  0
 23 22  2  0  0  0  0
 24 19  2  0  0  0  0
 26 23  1  0  0  0  0
 27 28  1  0  0  0  0
 29 27  1  0  0  0  0
M  END
>  <minimizedAffinity>
-5.11835623

$$$$

 OpenBabel03252509253D

 29 32  0  0  1  0  0  0  0  0999 V2000
   38.2630   30.5080   40.5480 C   0  0  1  0  0  0  0  0  0  0  0  0
   38.1830   29.8370   39.1490 C   0  0  0  0  0  0  0  0  0  0  0  0
   38.9560   29.2800   40.3910 C   0  0  2  0  0  0  0  0  0  0  0  0
   37.2730   30.6220   41.0270 H   0  0  0  0  0  0  0  0  0  0  0  0
   38.8340   30.1870   38.3530 H   0  0  0  0  0  0  0  0  0  0  0  0
   37.2390   29.3080   38.9160 H   0  0  0  0  0  0  0  0  0  0  0  0
   40.0630   29.2980   40.3190 H   0  0  0  0  0  0  0  0  0  0  0  0
   37.5040   27.9430   41.9900 C   0  0  0  0  0  3  0  0  0  0  0  0
   38.3980   28.0060   40.9430 C   0  0  0  0  0  0  0  0  0  0  0  0
   38.7720   26.7730   40.4020 C   0  0  0  0  0  0  0  0  0  0  0  0
   39.4780   26.7950   39.5720 H   0  0  0  0  0  0  0  0  0  0  0  0
   38.3140   25.5560   40.8390 C   0  0  0  0  0  0  0  0  0  0  0  0
   37.4200   25.5380   41.8900 C   0  0  0  0  0  0  0  0  0  0  0  0
   37.0140   26.7420   42.4680 C   0  0  0  0  0  3  0  0  0  0  0  0
   37.1300   24.2090   42.1230 O   0  0  0  0  0  0  0  0  0  0  0  0
   37.6840   23.4030   41.1040 C   0  0  0  0  0  3  0  0  0  0  0  0
   38.2070   22.5550   41.5830 H   0  0  0  0  0  0  0  0  0  0  0  0
   38.5720   24.2580   40.4270 O   0  0  0  0  0  0  0  0  0  0  0  0
   39.1160   34.1600   40.3490 C   0  0  0  0  0  0  0  0  0  0  0  0
   38.3110   32.9690   40.3610 C   0  0  0  0  0  0  0  0  0  0  0  0
   39.0290   31.8050   40.4530 C   0  0  0  0  0  0  0  0  0  0  0  0
   40.4130   31.8010   40.5250 N   0  0  0  0  0  0  0  0  0  0  0  0
   41.1040   32.9420   40.5100 C   0  0  0  0  0  0  0  0  0  0  0  0
   40.4670   34.1250   40.4220 N   0  0  0  0  0  0  0  0  0  0  0  0
   38.5990   35.1000   40.2790 H   0  0  0  0  0  0  0  0  0  0  0  0
   42.1690   32.7570   40.5740 H   0  0  0  0  0  0  0  0  0  0  0  0
   36.9010   32.9920   40.2550 N   0  0  0  0  0  0  0  0  0  0  0  0
   36.4420   32.6230   39.3780 H   0  0  0  0  0  0  0  0  0  0  0  0
   36.2860   33.3670   41.0240 H   0  0  0  0  0  0  0  0  0  0  0  0
  1  4  1  1  0  0  0
  2  3  1  0  0  0  0
  2  1  1  0  0  0  0
  3  7  1  6  0  0  0
  3  1  1  0  0  0  0
  3  9  1  0  0  0  0
  5  2  1  0  0  0  0
  6  2  1  0  0  0  0
  8 14  1  0  0  0  0
  9  8  2  0  0  0  0
 10 12  2  0  0  0  0
 10  9  1  0  0  0  0
 11 10  1  0  0  0  0
 12 13  1  0  0  0  0
 13 15  1  0  0  0  0
 13 14  2  0  0  0  0
 16 17  1  0  0  0  0
 16 15  1  0  0  0  0
 18 12  1  0  0  0  0
 18 16  1  0  0  0  0
 19 20  2  0  0  0  0
 19 24  1  0  0  0  0
 20 21  1  0  0  0  0
 21 22  2  0  0  0  0
 21  1  1  0  0  0  0
 23 22  1  0  0  0  0
 23 26  1  0  0  0  0
 24 23  2  0  0  0  0
 25 19  1  0  0  0  0
 27 20  1  0  0  0  0
 27 29  1  0  0  0  0
 28 27  1  0  0  0  0
M  END
>  <minimizedAffinity>
-5.07059097

$$$$

 OpenBabel03252509253D

 29 32  0  0  1  0  0  0  0  0999 V2000
   39.2250   31.0030   39.2590 C   0  0  1  0  0  0  0  0  0  0  0  0
   39.0120   30.3730   40.6640 C   0  0  0  0  0  0  0  0  0  0  0  0
   37.9550   31.2030   39.8600 C   0  0  2  0  0  0  0  0  0  0  0  0
   39.4470   30.2510   38.4800 H   0  0  0  0  0  0  0  0  0  0  0  0
   39.3930   30.8880   41.5420 H   0  0  0  0  0  0  0  0  0  0  0  0
   38.8250   29.2830   40.6840 H   0  0  0  0  0  0  0  0  0  0  0  0
   37.7120   32.2050   40.2720 H   0  0  0  0  0  0  0  0  0  0  0  0
   35.7870   29.9470   40.2700 C   0  0  0  0  0  3  0  0  0  0  0  0
   36.7620   30.4170   39.4170 C   0  0  0  0  0  0  0  0  0  0  0  0
   36.5720   30.1110   38.0660 C   0  0  0  0  0  0  0  0  0  0  0  0
   37.3300   30.4720   37.3710 H   0  0  0  0  0  0  0  0  0  0  0  0
   35.5120   29.3990   37.5670 C   0  0  0  0  0  0  0  0  0  0  0  0
   34.5580   28.9460   38.4560 C   0  0  0  0  0  0  0  0  0  0  0  0
   34.7000   29.2230   39.8160 C   0  0  0  0  0  3  0  0  0  0  0  0
   33.6220   28.2710   37.6990 O   0  0  0  0  0  0  0  0  0  0  0  0
   33.8770   28.4590   36.3230 C   0  0  0  0  0  3  0  0  0  0  0  0
   33.8290   27.4730   35.8270 H   0  0  0  0  0  0  0  0  0  0  0  0
   35.1710   29.0100   36.2810 O   0  0  0  0  0  0  0  0  0  0  0  0
   41.5490   33.8110   38.3540 C   0  0  0  0  0  0  0  0  0  0  0  0
   40.6140   32.7330   38.1780 C   0  0  0  0  0  0  0  0  0  0  0  0
   40.2600   32.0990   39.3390 C   0  0  0  0  0  0  0  0  0  0  0  0
   40.7750   32.4790   40.5680 N   0  0  0  0  0  0  0  0  0  0  0  0
   41.6410   33.4900   40.6660 C   0  0  0  0  0  0  0  0  0  0  0  0
   42.0340   34.1610   39.5670 N   0  0  0  0  0  0  0  0  0  0  0  0
   41.8570   34.3420   37.4710 H   0  0  0  0  0  0  0  0  0  0  0  0
   41.9400   33.6520   41.6940 H   0  0  0  0  0  0  0  0  0  0  0  0
   40.1240   32.3400   36.9110 N   0  0  0  0  0  0  0  0  0  0  0  0
   40.4180   31.4090   36.5080 H   0  0  0  0  0  0  0  0  0  0  0  0
   39.4710   32.9460   36.3480 H   0  0  0  0  0  0  0  0  0  0  0  0
  1  4  1  6  0  0  0
  1 21  1  0  0  0  0
  1  3  1  0  0  0  0
  1  2  1  0  0  0  0
  2  6  1  0  0  0  0
  2  5  1  0  0  0  0
  3  7  1  1  0  0  0
  3  2  1  0  0  0  0
  9  3  1  0  0  0  0
  9  8  2  0  0  0  0
 10  9  1  0  0  0  0
 11 10  1  0  0  0  0
 12 10  2  0  0  0  0
 12 13  1  0  0  0  0
 13 14  2  0  0  0  0
 14  8  1  0  0  0  0
 15 13  1  0  0  0  0
 16 15  1  0  0  0  0
 17 16  1  0  0  0  0
 18 16  1  0  0  0  0
 18 12  1  0  0  0  0
 19 24  1  0  0  0  0
 20 19  2  0  0  0  0
 20 21  1  0  0  0  0
 21 22  2  0  0  0  0
 22 23  1  0  0  0  0
 23 26  1  0  0  0  0
 24 23  2  0  0  0  0
 25 19  1  0  0  0  0
 27 20  1  0  0  0  0
 28 27  1  0  0  0  0
 29 27  1  0  0  0  0
M  END
>  <minimizedAffinity>
-5.06499624

$$$$

 OpenBabel03252509253D

 29 32  0  0  1  0  0  0  0  0999 V2000
   35.0520   29.3530   39.0130 C   0  0  1  0  0  0  0  0  0  0  0  0
   35.9300   29.7180   37.7840 C   0  0  0  0  0  0  0  0  0  0  0  0
   34.7930   28.6410   37.8130 C   0  0  2  0  0  0  0  0  0  0  0  0
   34.4570   30.2070   39.3850 H   0  0  0  0  0  0  0  0  0  0  0  0
   36.9270   29.2940   37.6980 H   0  0  0  0  0  0  0  0  0  0  0  0
   35.6670   30.6550   37.2590 H   0  0  0  0  0  0  0  0  0  0  0  0
   35.1260   27.5850   37.7370 H   0  0  0  0  0  0  0  0  0  0  0  0
   33.6160   28.9420   35.5830 C   0  0  0  0  0  3  0  0  0  0  0  0
   33.6100   28.9730   36.9610 C   0  0  0  0  0  0  0  0  0  0  0  0
   32.3950   29.3450   37.5440 C   0  0  0  0  0  0  0  0  0  0  0  0
   32.3640   29.3770   38.6330 H   0  0  0  0  0  0  0  0  0  0  0  0
   31.2580   29.6650   36.8470 C   0  0  0  0  0  0  0  0  0  0  0  0
   31.3080   29.6210   35.4680 C   0  0  0  0  0  0  0  0  0  0  0  0
   32.4970   29.2570   34.8350 C   0  0  0  0  0  3  0  0  0  0  0  0
   30.0510   29.9840   35.0290 O   0  0  0  0  0  0  0  0  0  0  0  0
   29.1580   30.0690   36.1200 C   0  0  0  0  0  3  0  0  0  0  0  0
   28.5980   31.0180   36.0320 H   0  0  0  0  0  0  0  0  0  0  0  0
   29.9900   30.0480   37.2540 O   0  0  0  0  0  0  0  0  0  0  0  0
   36.9380   28.7370   42.2020 C   0  0  0  0  0  0  0  0  0  0  0  0
   36.1840   29.4470   41.2040 C   0  0  0  0  0  0  0  0  0  0  0  0
   35.9040   28.7120   40.0820 C   0  0  0  0  0  0  0  0  0  0  0  0
   36.3230   27.3990   39.9410 N   0  0  0  0  0  0  0  0  0  0  0  0
   37.0210   26.7950   40.9050 C   0  0  0  0  0  0  0  0  0  0  0  0
   37.3330   27.4530   42.0380 N   0  0  0  0  0  0  0  0  0  0  0  0
   37.1820   29.2700   43.1030 H   0  0  0  0  0  0  0  0  0  0  0  0
   37.2650   25.7760   40.6330 H   0  0  0  0  0  0  0  0  0  0  0  0
   35.7920   30.7980   41.3530 N   0  0  0  0  0  0  0  0  0  0  0  0
   36.2360   31.5360   40.7410 H   0  0  0  0  0  0  0  0  0  0  0  0
   35.0680   31.0980   42.0560 H   0  0  0  0  0  0  0  0  0  0  0  0
  1  4  1  1  0  0  0
  1 21  1  0  0  0  0
  2  3  1  0  0  0  0
  2  1  1  0  0  0  0
  3  7  1  6  0  0  0
  3  1  1  0  0  0  0
  5  2  1  0  0  0  0
  6  2  1  0  0  0  0
  8  9  1  0  0  0  0
  9 10  2  0  0  0  0
  9  3  1  0  0  0  0
 10 11  1  0  0  0  0
 12 18  1  0  0  0  0
 12 10  1  0  0  0  0
 13 12  2  0  0  0  0
 14 13  1  0  0  0  0
 14  8  2  0  0  0  0
 15 13  1  0  0  0  0
 15 16  1  0  0  0  0
 16 18  1  0  0  0  0
 17 16  1  0  0  0  0
 19 25  1  0  0  0  0
 20 27  1  0  0  0  0
 20 19  2  0  0  0  0
 21 20  1  0  0  0  0
 22 21  2  0  0  0  0
 22 23  1  0  0  0  0
 23 24  2  0  0  0  0
 24 19  1  0  0  0  0
 26 23  1  0  0  0  0
 27 29  1  0  0  0  0
 28 27  1  0  0  0  0
M  END
>  <minimizedAffinity>
-4.96306515

$$$$

 OpenBabel03252509253D

 29 32  0  0  1  0  0  0  0  0999 V2000
   38.5450   30.0650   40.8740 C   0  0  1  0  0  0  0  0  0  0  0  0
   39.0300   29.9600   42.3470 C   0  0  0  0  0  0  0  0  0  0  0  0
   37.6490   29.4670   41.7970 C   0  0  2  0  0  0  0  0  0  0  0  0
   39.1920   29.5130   40.1680 H   0  0  0  0  0  0  0  0  0  0  0  0
   38.9540   30.8290   42.9950 H   0  0  0  0  0  0  0  0  0  0  0  0
   39.7560   29.1540   42.5640 H   0  0  0  0  0  0  0  0  0  0  0  0
   36.7620   30.0450   42.1300 H   0  0  0  0  0  0  0  0  0  0  0  0
   36.9710   27.2960   42.9270 C   0  0  0  0  0  3  0  0  0  0  0  0
   37.4640   27.9830   41.8390 C   0  0  0  0  0  0  0  0  0  0  0  0
   37.7960   27.1930   40.7340 C   0  0  0  0  0  0  0  0  0  0  0  0
   38.1890   27.7130   39.8610 H   0  0  0  0  0  0  0  0  0  0  0  0
   37.6610   25.8300   40.6790 C   0  0  0  0  0  0  0  0  0  0  0  0
   37.1630   25.1810   41.7910 C   0  0  0  0  0  0  0  0  0  0  0  0
   36.8170   25.9220   42.9220 C   0  0  0  0  0  3  0  0  0  0  0  0
   37.1340   23.8390   41.4690 O   0  0  0  0  0  0  0  0  0  0  0  0
   37.4270   23.6590   40.1000 C   0  0  0  0  0  3  0  0  0  0  0  0
   38.1790   22.8530   40.0130 H   0  0  0  0  0  0  0  0  0  0  0  0
   37.9350   24.9030   39.6850 O   0  0  0  0  0  0  0  0  0  0  0  0
   37.2720   33.2160   39.2770 C   0  0  0  0  0  0  0  0  0  0  0  0
   37.4410   31.8100   39.5220 C   0  0  0  0  0  0  0  0  0  0  0  0
   38.3570   31.5150   40.4970 C   0  0  0  0  0  0  0  0  0  0  0  0
   39.0520   32.5040   41.1740 N   0  0  0  0  0  0  0  0  0  0  0  0
   38.8500   33.7940   40.9000 C   0  0  0  0  0  0  0  0  0  0  0  0
   37.9640   34.1610   39.9550 N   0  0  0  0  0  0  0  0  0  0  0  0
   36.5620   33.5010   38.5210 H   0  0  0  0  0  0  0  0  0  0  0  0
   39.4720   34.4290   41.5190 H   0  0  0  0  0  0  0  0  0  0  0  0
   36.7450   30.8140   38.7980 N   0  0  0  0  0  0  0  0  0  0  0  0
   37.2770   30.1930   38.1300 H   0  0  0  0  0  0  0  0  0  0  0  0
   35.7070   30.6670   38.9010 H   0  0  0  0  0  0  0  0  0  0  0  0
  1  4  1  6  0  0  0
  1  3  1  0  0  0  0
  1  2  1  0  0  0  0
  2  6  1  0  0  0  0
  2  5  1  0  0  0  0
  3  9  1  0  0  0  0
  3  7  1  1  0  0  0
  3  2  1  0  0  0  0
  9  8  2  0  0  0  0
 10  9  1  0  0  0  0
 11 10  1  0  0  0  0
 12 10  2  0  0  0  0
 12 13  1  0  0  0  0
 13 14  2  0  0  0  0
 14  8  1  0  0  0  0
 15 13  1  0  0  0  0
 16 15  1  0  0  0  0
 17 16  1  0  0  0  0
 18 16  1  0  0  0  0
 18 12  1  0  0  0  0
 19 20  2  0  0  0  0
 19 24  1  0  0  0  0
 20 21  1  0  0  0  0
 21  1  1  0  0  0  0
 21 22  2  0  0  0  0
 23 22  1  0  0  0  0
 23 26  1  0  0  0  0
 24 23  2  0  0  0  0
 25 19  1  0  0  0  0
 27 29  1  0  0  0  0
 27 20  1  0  0  0  0
 28 27  1  0  0  0  0
M  END
>  <minimizedAffinity>
-4.94791698

$$$$

 OpenBabel03252509253D

 29 32  0  0  1  0  0  0  0  0999 V2000
   39.7380   30.3110   41.1530 C   0  0  1  0  0  0  0  0  0  0  0  0
   40.0950   30.2960   42.6650 C   0  0  0  0  0  0  0  0  0  0  0  0
   38.6620   30.1250   42.0590 C   0  0  2  0  0  0  0  0  0  0  0  0
   40.2360   29.5040   40.5860 H   0  0  0  0  0  0  0  0  0  0  0  0
   40.2370   31.2380   43.1890 H   0  0  0  0  0  0  0  0  0  0  0  0
   40.5490   29.3620   43.0490 H   0  0  0  0  0  0  0  0  0  0  0  0
   37.9600   30.9680   42.2330 H   0  0  0  0  0  0  0  0  0  0  0  0
   37.2640   28.4420   43.3480 C   0  0  0  0  0  3  0  0  0  0  0  0
   38.0600   28.7730   42.2720 C   0  0  0  0  0  0  0  0  0  0  0  0
   38.2850   27.7410   41.3560 C   0  0  0  0  0  0  0  0  0  0  0  0
   38.9110   27.9770   40.4960 H   0  0  0  0  0  0  0  0  0  0  0  0
   37.7760   26.4730   41.4670 C   0  0  0  0  0  0  0  0  0  0  0  0
   36.9840   26.1830   42.5590 C   0  0  0  0  0  0  0  0  0  0  0  0
   36.7280   27.1770   43.5050 C   0  0  0  0  0  3  0  0  0  0  0  0
   36.6140   24.8600   42.4230 O   0  0  0  0  0  0  0  0  0  0  0  0
   37.0070   24.3710   41.1590 C   0  0  0  0  0  3  0  0  0  0  0  0
   37.5040   23.3950   41.3080 H   0  0  0  0  0  0  0  0  0  0  0  0
   37.8930   25.3460   40.6670 O   0  0  0  0  0  0  0  0  0  0  0  0
   41.1120   33.1390   39.1000 C   0  0  0  0  0  0  0  0  0  0  0  0
   40.9870   31.8160   39.6480 C   0  0  0  0  0  0  0  0  0  0  0  0
   39.9910   31.6840   40.5790 C   0  0  0  0  0  0  0  0  0  0  0  0
   39.1850   32.7490   40.9470 N   0  0  0  0  0  0  0  0  0  0  0  0
   39.3510   33.9560   40.4010 C   0  0  0  0  0  0  0  0  0  0  0  0
   40.3100   34.1610   39.4780 N   0  0  0  0  0  0  0  0  0  0  0  0
   41.8800   33.2940   38.3640 H   0  0  0  0  0  0  0  0  0  0  0  0
   38.6410   34.6680   40.8000 H   0  0  0  0  0  0  0  0  0  0  0  0
   41.8400   30.7480   39.2830 N   0  0  0  0  0  0  0  0  0  0  0  0
   42.5300   30.3720   39.9880 H   0  0  0  0  0  0  0  0  0  0  0  0
   41.8130   30.3110   38.3240 H   0  0  0  0  0  0  0  0  0  0  0  0
  1  4  1  6  0  0  0
  1  3  1  0  0  0  0
  1  2  1  0  0  0  0
  2  6  1  0  0  0  0
  2  5  1  0  0  0  0
  3  7  1  1  0  0  0
  3  9  1  0  0  0  0
  3  2  1  0  0  0  0
  8 14  1  0  0  0  0
  9  8  2  0  0  0  0
 10 12  2  0  0  0  0
 10  9  1  0  0  0  0
 11 10  1  0  0  0  0
 12 13  1  0  0  0  0
 13 14  2  0  0  0  0
 15 13  1  0  0  0  0
 16 17  1  0  0  0  0
 16 15  1  0  0  0  0
 18 16  1  0  0  0  0
 18 12  1  0  0  0  0
 19 24  2  0  0  0  0
 19 20  1  0  0  0  0
 20 21  2  0  0  0  0
 21 22  1  0  0  0  0
 21  1  1  0  0  0  0
 23 26  1  0  0  0  0
 23 22  2  0  0  0  0
 24 23  1  0  0  0  0
 25 19  1  0  0  0  0
 27 20  1  0  0  0  0
 27 28  1  0  0  0  0
 29 27  1  0  0  0  0
M  END
>  <minimizedAffinity>
-4.887012

$$$$

 OpenBabel03252509253D

 29 32  0  0  1  0  0  0  0  0999 V2000
   36.7130   27.3910   41.0630 C   0  0  1  0  0  0  0  0  0  0  0  0
   36.7750   27.9120   42.5260 C   0  0  0  0  0  0  0  0  0  0  0  0
   37.7580   28.3000   41.3700 C   0  0  2  0  0  0  0  0  0  0  0  0
   35.7700   27.6580   40.5520 H   0  0  0  0  0  0  0  0  0  0  0  0
   37.2300   27.2910   43.2930 H   0  0  0  0  0  0  0  0  0  0  0  0
   36.0440   28.6970   42.7940 H   0  0  0  0  0  0  0  0  0  0  0  0
   38.7930   27.9100   41.4650 H   0  0  0  0  0  0  0  0  0  0  0  0
   36.6040   30.2870   40.2900 C   0  0  0  0  0  3  0  0  0  0  0  0
   37.6800   29.7330   40.9500 C   0  0  0  0  0  0  0  0  0  0  0  0
   38.7330   30.6130   41.2180 C   0  0  0  0  0  0  0  0  0  0  0  0
   39.5950   30.1990   41.7400 H   0  0  0  0  0  0  0  0  0  0  0  0
   38.7500   31.9400   40.8740 C   0  0  0  0  0  0  0  0  0  0  0  0
   37.6530   32.4540   40.2140 C   0  0  0  0  0  0  0  0  0  0  0  0
   36.5740   31.6190   39.9200 C   0  0  0  0  0  3  0  0  0  0  0  0
   37.9320   33.7870   39.9910 O   0  0  0  0  0  0  0  0  0  0  0  0
   39.1100   34.1610   40.6740 C   0  0  0  0  0  3  0  0  0  0  0  0
   39.7500   34.7250   39.9720 H   0  0  0  0  0  0  0  0  0  0  0  0
   39.6920   32.9400   41.0570 O   0  0  0  0  0  0  0  0  0  0  0  0
   37.1730   23.8530   39.8910 C   0  0  0  0  0  0  0  0  0  0  0  0
   36.7980   25.2410   39.8550 C   0  0  0  0  0  0  0  0  0  0  0  0
   37.0070   25.9110   41.0310 C   0  0  0  0  0  0  0  0  0  0  0  0
   37.5330   25.2840   42.1490 N   0  0  0  0  0  0  0  0  0  0  0  0
   37.8620   23.9910   42.1190 C   0  0  0  0  0  0  0  0  0  0  0  0
   37.6860   23.2670   40.9970 N   0  0  0  0  0  0  0  0  0  0  0  0
   37.0300   23.2830   38.9910 H   0  0  0  0  0  0  0  0  0  0  0  0
   38.2570   23.6640   43.0730 H   0  0  0  0  0  0  0  0  0  0  0  0
   36.2340   25.8560   38.7130 N   0  0  0  0  0  0  0  0  0  0  0  0
   35.2220   26.1590   38.7360 H   0  0  0  0  0  0  0  0  0  0  0  0
   36.7880   26.0230   37.8330 H   0  0  0  0  0  0  0  0  0  0  0  0
  1  4  1  6  0  0  0
  1  3  1  0  0  0  0
  1  2  1  0  0  0  0
  2  6  1  0  0  0  0
  2  5  1  0  0  0  0
  3  7  1  1  0  0  0
  3  2  1  0  0  0  0
  8  9  1  0  0  0  0
  9 10  2  0  0  0  0
  9  3  1  0  0  0  0
 10 11  1  0  0  0  0
 12 18  1  0  0  0  0
 12 10  1  0  0  0  0
 13 12  2  0  0  0  0
 14 13  1  0  0  0  0
 14  8  2  0  0  0  0
 15 13  1  0  0  0  0
 15 16  1  0  0  0  0
 16 18  1  0  0  0  0
 17 16  1  0  0  0  0
 19 24  1  0  0  0  0
 20 19  2  0  0  0  0
 20 21  1  0  0  0  0
 21  1  1  0  0  0  0
 21 22  2  0  0  0  0
 23 22  1  0  0  0  0
 23 26  1  0  0  0  0
 24 23  2  0  0  0  0
 25 19  1  0  0  0  0
 27 28  1  0  0  0  0
 27 20  1  0  0  0  0
 29 27  1  0  0  0  0
M  END
>  <minimizedAffinity>
-4.85115719

$$$$
