
 OpenBabel03242517163D

 35 38  0  0  0  0  0  0  0  0999 V2000
   44.6190   35.1160   43.7500 C   0  0  0  0  0  0  0  0  0  0  0  0
   44.0340   34.5220   42.5990 C   0  0  0  0  0  0  0  0  0  0  0  0
   44.2390   33.1730   42.3830 C   0  0  0  0  0  0  0  0  0  0  0  0
   44.9990   32.5080   43.3060 N   0  0  0  0  0  0  0  0  0  0  0  0
   45.5400   33.0790   44.3800 C   0  0  0  0  0  0  0  0  0  0  0  0
   45.3370   34.3810   44.5800 N   0  0  0  0  0  0  0  0  0  0  0  0
   44.4310   36.1800   43.8790 H   0  0  0  0  0  0  0  0  0  0  0  0
   43.8200   32.6540   41.5220 H   0  0  0  0  0  0  0  0  0  0  0  0
   46.9000   31.1130   44.9080 C   0  0  0  0  0  0  0  0  0  0  0  0
   46.3410   32.3040   45.3230 C   0  0  0  0  0  0  0  0  0  0  0  0
   46.5250   32.7800   46.6250 C   0  0  0  0  0  0  0  0  0  0  0  0
   46.0910   33.7180   46.9710 H   0  0  0  0  0  0  0  0  0  0  0  0
   47.2960   32.0200   47.5110 C   0  0  0  0  0  0  0  0  0  0  0  0
   47.8590   30.8170   47.0840 C   0  0  0  0  0  0  0  0  0  0  0  0
   47.6700   30.3570   45.7940 C   0  0  0  0  0  0  0  0  0  0  0  0
   48.5670   30.2900   48.1810 O   0  0  0  0  0  0  0  0  0  0  0  0
   48.8200   31.3550   49.1020 C   0  0  0  0  0  0  0  0  0  0  0  0
   49.7020   31.9410   48.7410 H   0  0  0  0  0  0  0  0  0  0  0  0
   47.6780   32.1860   48.8480 O   0  0  0  0  0  0  0  0  0  0  0  0
   43.2300   35.3120   41.6560 C   0  0  0  0  0  0  0  0  0  0  0  0
   41.9280   35.3280   41.5960 C   0  0  0  0  0  0  0  0  0  0  0  0
   41.1730   36.1520   40.6190 C   0  0  0  0  0  0  0  0  0  0  0  0
   41.8870   36.7240   40.0040 H   0  0  0  0  0  0  0  0  0  0  0  0
   40.5630   36.8890   41.2110 H   0  0  0  0  0  0  0  0  0  0  0  0
   41.4650   35.9480   37.8480 F   0  0  0  0  0  0  0  0  0  0  0  0
   40.4590   35.2520   38.4170 C   0  0  0  0  0  0  0  0  0  0  0  0
   40.2870   35.3370   39.8080 C   0  0  0  0  0  0  0  0  0  0  0  0
   39.2300   34.5820   40.2460 C   0  0  0  0  0  0  0  0  0  0  0  0
   38.3720   33.8000   39.5200 C   0  0  0  0  0  0  0  0  0  0  0  0
   38.6280   33.7830   38.1440 C   0  0  0  0  0  0  0  0  0  0  0  0
   39.6520   34.4910   37.5670 C   0  0  0  0  0  0  0  0  0  0  0  0
   39.0200   34.5890   41.3220 H   0  0  0  0  0  0  0  0  0  0  0  0
   37.5730   33.2450   39.9490 H   0  0  0  0  0  0  0  0  0  0  0  0
   38.0140   33.1990   37.4710 H   0  0  0  0  0  0  0  0  0  0  0  0
   39.8650   34.4900   36.5070 H   0  0  0  0  0  0  0  0  0  0  0  0
  1  7  1  0  0  0  0
  1  6  1  0  0  0  0
  2  1  2  0  0  0  0
  3  2  1  0  0  0  0
  3  4  2  0  0  0  0
  4  5  1  0  0  0  0
  5  6  2  0  0  0  0
  5 10  1  0  0  0  0
  8  3  1  0  0  0  0
  9 10  2  0  0  0  0
  9 15  1  0  0  0  0
 10 11  1  0  0  0  0
 11 12  1  0  0  0  0
 11 13  2  0  0  0  0
 13 19  1  0  0  0  0
 14 13  1  0  0  0  0
 14 16  1  0  0  0  0
 15 14  2  0  0  0  0
 16 17  1  0  0  0  0
 18 17  1  0  0  0  0
 19 17  1  0  0  0  0
 20  2  1  0  0  0  0
 21 20  2  0  0  0  0
 22 24  1  0  0  0  0
 22 21  1  0  0  0  0
 23 22  1  0  0  0  0
 25 26  1  0  0  0  0
 26 27  1  0  0  0  0
 27 28  2  0  0  0  0
 27 22  1  0  0  0  0
 28 32  1  0  0  0  0
 29 33  1  0  0  0  0
 29 28  1  0  0  0  0
 30 29  2  0  0  0  0
 31 30  1  0  0  0  0
 31 26  2  0  0  0  0
 34 30  1  0  0  0  0
 35 31  1  0  0  0  0
M  END
>  <minimizedAffinity>
-6.85520124

>  <minimizedRMSD>
1.47906053

$$$$
