
 OpenBabel03252508323D

 34 37  0  0  1  0  0  0  0  0999 V2000
   44.3080   34.3980   41.9670 N   0  0  0  0  0  0  0  0  0  0  0  0
   44.4780   33.4410   40.9420 C   0  0  1  0  0  0  0  0  0  0  0  0
   43.7810   33.7250   39.6630 C   0  0  0  0  0  0  0  0  0  0  0  0
   42.5550   34.4030   39.7370 N   0  0  0  0  0  0  0  0  0  0  0  0
   42.3770   35.3370   40.7740 C   0  0  0  0  0  0  0  0  0  0  0  0
   43.6640   35.6000   41.5330 C   0  0  0  0  0  0  0  0  0  0  0  0
   44.1010   32.4510   41.3260 H   0  0  0  0  0  0  0  0  0  0  0  0
   43.6720   32.7900   39.0780 H   0  0  0  0  0  0  0  0  0  0  0  0
   44.4760   34.3630   39.0420 H   0  0  0  0  0  0  0  0  0  0  0  0
   41.7880   33.6740   39.8440 H   0  0  0  0  0  0  0  0  0  0  0  0
   41.5780   35.1210   41.5040 H   0  0  0  0  0  0  0  0  0  0  0  0
   42.1050   36.3160   40.3020 H   0  0  0  0  0  0  0  0  0  0  0  0
   44.3640   36.1800   40.8630 H   0  0  0  0  0  0  0  0  0  0  0  0
   43.3800   36.3080   42.3320 H   0  0  0  0  0  0  0  0  0  0  0  0
   46.8380   34.2380   40.4740 C   0  0  0  0  0  3  0  0  0  0  0  0
   45.9240   33.2160   40.5830 C   0  0  0  0  0  0  0  0  0  0  0  0
   46.4570   31.9500   40.3150 C   0  0  0  0  0  0  0  0  0  0  0  0
   45.7910   31.0980   40.3820 H   0  0  0  0  0  0  0  0  0  0  0  0
   47.7710   31.7290   39.9720 C   0  0  0  0  0  0  0  0  0  0  0  0
   48.6250   32.8070   39.8840 C   0  0  0  0  0  0  0  0  0  0  0  0
   48.1550   34.0790   40.1370 C   0  0  0  0  0  3  0  0  0  0  0  0
   49.8790   32.2860   39.5220 O   0  0  0  0  0  0  0  0  0  0  0  0
   49.7160   30.9500   39.0670 C   0  0  0  0  0  3  0  0  0  0  0  0
   49.6710   30.9750   37.9590 H   0  0  0  0  0  0  0  0  0  0  0  0
   48.4900   30.5850   39.6720 O   0  0  0  0  0  0  0  0  0  0  0  0
   44.6720   35.1260   44.2150 C   0  0  0  0  0  0  0  0  0  0  0  0
   44.7710   34.0980   43.2680 C   0  0  0  0  0  0  0  0  0  0  0  0
   45.3090   32.8950   43.6850 C   0  0  0  0  0  0  0  0  0  0  0  0
   45.7290   32.7140   44.9670 N   0  0  0  0  0  0  0  0  0  0  0  0
   45.6170   33.7420   45.8630 C   0  0  0  0  0  0  0  0  0  0  0  0
   45.0930   34.9220   45.4730 N   0  0  0  0  0  0  0  0  0  0  0  0
   44.2900   36.1270   44.1000 H   0  0  0  0  0  0  0  0  0  0  0  0
   45.3850   32.0980   42.9700 H   0  0  0  0  0  0  0  0  0  0  0  0
   45.9560   33.5750   46.8780 H   0  0  0  0  0  0  0  0  0  0  0  0
  1 27  1  0  0  0  0
  2  7  1  1  0  0  0
  2  1  1  0  0  0  0
  3  4  1  0  0  0  0
  3  2  1  0  0  0  0
  4 10  1  0  0  0  0
  4  5  1  0  0  0  0
  5 11  1  0  0  0  0
  5  6  1  0  0  0  0
  6  1  1  0  0  0  0
  6 14  1  0  0  0  0
  8  3  1  0  0  0  0
  9  3  1  0  0  0  0
 12  5  1  0  0  0  0
 13  6  1  0  0  0  0
 15 16  1  0  0  0  0
 16  2  1  0  0  0  0
 17 18  1  0  0  0  0
 17 16  2  0  0  0  0
 19 17  1  0  0  0  0
 20 19  2  0  0  0  0
 20 21  1  0  0  0  0
 21 15  2  0  0  0  0
 22 20  1  0  0  0  0
 23 22  1  0  0  0  0
 23 25  1  0  0  0  0
 24 23  1  0  0  0  0
 25 19  1  0  0  0  0
 26 31  1  0  0  0  0
 27 28  1  0  0  0  0
 27 26  2  0  0  0  0
 28 29  2  0  0  0  0
 29 30  1  0  0  0  0
 30 34  1  0  0  0  0
 31 30  2  0  0  0  0
 32 26  1  0  0  0  0
 33 28  1  0  0  0  0
M  END
>  <minimizedAffinity>
-4.64937019

>  <minimizedRMSD>
0.0284164492

$$$$
