
 OpenBabel03242513073D

 43 48  0  0  0  0  0  0  0  0999 V2000
   45.9360   33.2210   41.6180 C   0  0  0  0  0  0  0  0  0  0  0  0
   47.1140   33.9120   41.3100 C   0  0  0  0  0  0  0  0  0  0  0  0
   48.0800   33.9640   42.2920 C   0  0  0  0  0  0  0  0  0  0  0  0
   47.8180   33.3450   43.4800 N   0  0  0  0  0  0  0  0  0  0  0  0
   46.6990   32.6940   43.7600 C   0  0  0  0  0  0  0  0  0  0  0  0
   45.7390   32.6260   42.8210 N   0  0  0  0  0  0  0  0  0  0  0  0
   45.1530   33.1590   40.8710 H   0  0  0  0  0  0  0  0  0  0  0  0
   46.7270   30.7220   45.2220 C   0  0  0  0  0  0  0  0  0  0  0  0
   46.5120   32.0680   45.0520 C   0  0  0  0  0  0  0  0  0  0  0  0
   46.1060   32.9040   46.1010 C   0  0  0  0  0  0  0  0  0  0  0  0
   45.9050   32.3840   47.3740 C   0  0  0  0  0  0  0  0  0  0  0  0
   45.5280   32.8630   48.5860 N   0  0  0  0  0  0  0  0  0  0  0  0
   45.5170   31.8250   49.4670 C   0  0  0  0  0  0  0  0  0  0  0  0
   45.8870   30.7170   48.7840 N   0  0  0  0  0  0  0  0  0  0  0  0
   46.1310   31.0300   47.5020 C   0  0  0  0  0  0  0  0  0  0  0  0
   46.5310   30.1760   46.4900 C   0  0  0  0  0  0  0  0  0  0  0  0
   47.0390   30.0740   44.4170 H   0  0  0  0  0  0  0  0  0  0  0  0
   45.9360   33.9760   45.9610 H   0  0  0  0  0  0  0  0  0  0  0  0
   45.3040   33.8830   48.7190 H   0  0  0  0  0  0  0  0  0  0  0  0
   45.2430   31.9680   50.5140 H   0  0  0  0  0  0  0  0  0  0  0  0
   46.6870   29.1210   46.6770 H   0  0  0  0  0  0  0  0  0  0  0  0
   49.3510   34.6780   42.0310 C   0  0  0  0  0  0  0  0  0  0  0  0
   49.1230   35.8140   41.2420 F   0  0  0  0  0  0  0  0  0  0  0  0
   49.8980   35.1340   43.2060 F   0  0  0  0  0  0  0  0  0  0  0  0
   50.2000   33.8220   41.3700 F   0  0  0  0  0  0  0  0  0  0  0  0
   47.2450   34.4820   40.0860 O   0  0  0  0  0  0  0  0  0  0  0  0
   47.3720   33.7470   38.9330 C   0  0  0  0  0  0  0  0  0  0  0  0
   48.3980   34.3930   38.2550 C   0  0  0  0  0  0  0  0  0  0  0  0
   48.5610   33.3970   36.7060 S   0  0  0  0  0  0  0  0  0  0  0  0
   47.1800   32.2640   37.2680 C   0  0  0  0  0  0  0  0  0  0  0  0
   46.9490   32.7390   38.2370 N   0  0  0  0  0  0  0  0  0  0  0  0
   49.1750   35.2630   38.2430 H   0  0  0  0  0  0  0  0  0  0  0  0
   46.1480   30.0400   36.8460 C   0  0  0  0  0  3  0  0  0  0  0  0
   46.7890   31.1440   36.3800 C   0  0  0  0  0  0  0  0  0  0  0  0
   47.1570   31.3840   35.0760 C   0  0  0  0  0  0  0  0  0  0  0  0
   47.6670   32.2670   34.7200 H   0  0  0  0  0  0  0  0  0  0  0  0
   46.8450   30.4010   34.1320 C   0  0  0  0  0  0  0  0  0  0  0  0
   46.1890   29.2660   34.5960 C   0  0  0  0  0  0  0  0  0  0  0  0
   45.8270   29.0500   35.9300 C   0  0  0  0  0  3  0  0  0  0  0  0
   45.9880   28.4420   33.4750 O   0  0  0  0  0  0  0  0  0  0  0  0
   46.1080   29.2350   32.2930 C   0  0  0  0  0  3  0  0  0  0  0  0
   46.5200   28.6720   31.4550 H   0  0  0  0  0  0  0  0  0  0  0  0
   47.0270   30.2410   32.7490 O   0  0  0  0  0  0  0  0  0  0  0  0
  1  6  1  0  0  0  0
  2  1  2  0  0  0  0
  2  3  1  0  0  0  0
  3  4  2  0  0  0  0
  4  5  1  0  0  0  0
  5  9  1  0  0  0  0
  6  5  2  0  0  0  0
  7  1  1  0  0  0  0
  8 16  1  0  0  0  0
  9  8  2  0  0  0  0
  9 10  1  0  0  0  0
 10 11  2  0  0  0  0
 11 15  1  0  0  0  0
 11 12  1  0  0  0  0
 12 19  1  0  0  0  0
 12 13  1  0  0  0  0
 13 20  1  0  0  0  0
 14 13  2  0  0  0  0
 15 14  1  0  0  0  0
 16 21  1  0  0  0  0
 16 15  2  0  0  0  0
 17  8  1  0  0  0  0
 18 10  1  0  0  0  0
 22  3  1  0  0  0  0
 22 24  1  0  0  0  0
 23 22  1  0  0  0  0
 25 22  1  0  0  0  0
 26  2  1  0  0  0  0
 27 26  1  0  0  0  0
 28 27  2  0  0  0  0
 29 30  1  0  0  0  0
 29 28  1  0  0  0  0
 30 31  2  0  0  0  0
 31 27  1  0  0  0  0
 32 28  1  0  0  0  0
 34 33  1  0  0  0  0
 34 30  1  0  0  0  0
 35 34  2  0  0  0  0
 36 35  1  0  0  0  0
 37 38  2  0  0  0  0
 37 35  1  0  0  0  0
 38 39  1  0  0  0  0
 39 33  2  0  0  0  0
 40 38  1  0  0  0  0
 41 43  1  0  0  0  0
 41 40  1  0  0  0  0
 42 41  1  0  0  0  0
 43 37  1  0  0  0  0
M  END
>  <minimizedAffinity>
-6.77468109

>  <minimizedRMSD>
0.190685436

$$$$
