
 OpenBabel03252507373D

 40 45  0  0  0  0  0  0  0  0999 V2000
   45.5180   34.8110   43.5440 C   0  0  0  0  0  0  0  0  0  0  0  0
   46.2300   33.7450   44.1290 C   0  0  0  0  0  0  0  0  0  0  0  0
   46.0560   33.5190   45.4810 C   0  0  0  0  0  0  0  0  0  0  0  0
   45.2260   34.3130   46.1760 N   0  0  0  0  0  0  0  0  0  0  0  0
   44.5450   35.3390   45.5970 C   0  0  0  0  0  0  0  0  0  0  0  0
   44.6960   35.5760   44.3000 N   0  0  0  0  0  0  0  0  0  0  0  0
   46.8960   33.1050   43.5760 H   0  0  0  0  0  0  0  0  0  0  0  0
   43.9130   35.8950   46.2780 H   0  0  0  0  0  0  0  0  0  0  0  0
   46.9800   32.6650   47.5660 C   0  0  0  0  0  0  0  0  0  0  0  0
   46.7310   32.4480   46.2130 C   0  0  0  0  0  0  0  0  0  0  0  0
   47.1290   31.2560   45.6570 C   0  0  0  0  0  0  0  0  0  0  0  0
   47.7610   30.2790   46.3940 C   0  0  0  0  0  0  0  0  0  0  0  0
   48.2310   29.0470   46.0540 N   0  0  0  0  0  0  0  0  0  0  0  0
   48.7740   28.4980   47.2030 C   0  0  0  0  0  0  0  0  0  0  0  0
   48.6290   29.3820   48.1950 N   0  0  0  0  0  0  0  0  0  0  0  0
   48.0090   30.4840   47.7260 C   0  0  0  0  0  0  0  0  0  0  0  0
   47.6210   31.6710   48.3070 C   0  0  0  0  0  0  0  0  0  0  0  0
   46.7010   33.5780   48.0910 H   0  0  0  0  0  0  0  0  0  0  0  0
   46.9310   31.0930   44.6010 H   0  0  0  0  0  0  0  0  0  0  0  0
   48.1810   28.6160   45.0970 H   0  0  0  0  0  0  0  0  0  0  0  0
   49.2320   27.5250   47.2740 H   0  0  0  0  0  0  0  0  0  0  0  0
   47.8230   31.8220   49.3620 H   0  0  0  0  0  0  0  0  0  0  0  0
   45.6840   35.0500   42.1820 O   0  0  0  0  0  0  0  0  0  0  0  0
   44.7350   34.6000   41.2720 C   0  0  0  0  0  0  0  0  0  0  0  0
   45.5110   33.8850   40.4330 C   0  0  0  0  0  0  0  0  0  0  0  0
   44.2180   33.2530   39.1720 S   0  0  0  0  0  0  0  0  0  0  0  0
   42.8740   34.1580   40.1350 C   0  0  0  0  0  0  0  0  0  0  0  0
   43.4660   34.6060   40.9440 N   0  0  0  0  0  0  0  0  0  0  0  0
   46.4950   33.3900   39.9720 H   0  0  0  0  0  0  0  0  0  0  0  0
   40.5290   35.0160   39.9080 C   0  0  0  0  0  3  0  0  0  0  0  0
   41.4600   34.0600   39.6200 C   0  0  0  0  0  0  0  0  0  0  0  0
   41.2830   32.9370   38.8720 C   0  0  0  0  0  0  0  0  0  0  0  0
   42.0430   32.1970   38.6620 H   0  0  0  0  0  0  0  0  0  0  0  0
   39.9970   32.7590   38.3480 C   0  0  0  0  0  0  0  0  0  0  0  0
   39.0040   33.7020   38.6080 C   0  0  0  0  0  0  0  0  0  0  0  0
   39.2620   34.8280   39.3840 C   0  0  0  0  0  3  0  0  0  0  0  0
   37.8340   33.2650   37.9620 O   0  0  0  0  0  0  0  0  0  0  0  0
   38.2060   32.2710   37.0110 C   0  0  0  0  0  3  0  0  0  0  0  0
   37.4480   31.4890   36.8980 H   0  0  0  0  0  0  0  0  0  0  0  0
   39.4160   31.7600   37.5460 O   0  0  0  0  0  0  0  0  0  0  0  0
  1  2  2  0  0  0  0
  1  6  1  0  0  0  0
  2  3  1  0  0  0  0
  3  4  2  0  0  0  0
  3 10  1  0  0  0  0
  5  4  1  0  0  0  0
  5  8  1  0  0  0  0
  6  5  2  0  0  0  0
  7  2  1  0  0  0  0
  9 18  1  0  0  0  0
  9 17  1  0  0  0  0
 10  9  2  0  0  0  0
 11 10  1  0  0  0  0
 11 12  2  0  0  0  0
 12 16  1  0  0  0  0
 13 12  1  0  0  0  0
 13 14  1  0  0  0  0
 14 21  1  0  0  0  0
 14 15  2  0  0  0  0
 16 15  1  0  0  0  0
 16 17  2  0  0  0  0
 17 22  1  0  0  0  0
 19 11  1  0  0  0  0
 20 13  1  0  0  0  0
 23  1  1  0  0  0  0
 24 23  1  0  0  0  0
 25 24  2  0  0  0  0
 26 27  1  0  0  0  0
 26 25  1  0  0  0  0
 27 28  2  0  0  0  0
 28 24  1  0  0  0  0
 29 25  1  0  0  0  0
 31 30  1  0  0  0  0
 31 27  1  0  0  0  0
 32 31  2  0  0  0  0
 33 32  1  0  0  0  0
 34 35  2  0  0  0  0
 34 32  1  0  0  0  0
 35 36  1  0  0  0  0
 36 30  2  0  0  0  0
 37 35  1  0  0  0  0
 38 40  1  0  0  0  0
 38 37  1  0  0  0  0
 39 38  1  0  0  0  0
 40 34  1  0  0  0  0
M  END
>  <minimizedAffinity>
-6.86364794

>  <minimizedRMSD>
1.40875292

$$$$
