
 OpenBabel03252509223D

 29 32  0  0  1  0  0  0  0  0999 V2000
   46.4950   34.9870   41.9410 C   0  0  1  0  0  0  0  0  0  0  0  0
   48.0180   35.2950   41.9210 C   0  0  0  0  0  0  0  0  0  0  0  0
   47.3360   33.9960   41.3740 C   0  0  2  0  0  0  0  0  0  0  0  0
   45.9010   35.7210   41.3650 H   0  0  0  0  0  0  0  0  0  0  0  0
   48.6060   35.1310   42.8210 H   0  0  0  0  0  0  0  0  0  0  0  0
   48.3620   36.0010   41.1420 H   0  0  0  0  0  0  0  0  0  0  0  0
   47.5310   33.0680   41.9510 H   0  0  0  0  0  0  0  0  0  0  0  0
   48.3110   34.5300   39.0890 C   0  0  0  0  0  3  0  0  0  0  0  0
   47.4360   33.8280   39.8910 C   0  0  0  0  0  0  0  0  0  0  0  0
   46.6150   32.9150   39.2210 C   0  0  0  0  0  0  0  0  0  0  0  0
   45.9140   32.3470   39.8320 H   0  0  0  0  0  0  0  0  0  0  0  0
   46.6340   32.6920   37.8680 C   0  0  0  0  0  0  0  0  0  0  0  0
   47.5250   33.4170   37.1040 C   0  0  0  0  0  0  0  0  0  0  0  0
   48.3690   34.3420   37.7210 C   0  0  0  0  0  3  0  0  0  0  0  0
   47.3360   33.0020   35.8000 O   0  0  0  0  0  0  0  0  0  0  0  0
   46.4700   31.8880   35.7640 C   0  0  0  0  0  3  0  0  0  0  0  0
   45.7090   32.0690   34.9830 H   0  0  0  0  0  0  0  0  0  0  0  0
   45.9050   31.8430   37.0510 O   0  0  0  0  0  0  0  0  0  0  0  0
   44.6390   35.4450   45.1730 C   0  0  0  0  0  0  0  0  0  0  0  0
   45.0890   35.7140   43.8350 C   0  0  0  0  0  0  0  0  0  0  0  0
   46.0210   34.8260   43.3650 C   0  0  0  0  0  0  0  0  0  0  0  0
   46.4780   33.7680   44.1330 N   0  0  0  0  0  0  0  0  0  0  0  0
   46.0210   33.5710   45.3710 C   0  0  0  0  0  0  0  0  0  0  0  0
   45.1030   34.4020   45.9000 N   0  0  0  0  0  0  0  0  0  0  0  0
   43.9060   36.1130   45.5880 H   0  0  0  0  0  0  0  0  0  0  0  0
   46.4820   32.7040   45.8270 H   0  0  0  0  0  0  0  0  0  0  0  0
   44.6340   36.8180   43.0770 N   0  0  0  0  0  0  0  0  0  0  0  0
   45.3000   37.6100   42.8640 H   0  0  0  0  0  0  0  0  0  0  0  0
   43.6460   36.8830   42.7160 H   0  0  0  0  0  0  0  0  0  0  0  0
  1  4  1  6  0  0  0
  1 21  1  0  0  0  0
  2  1  1  0  0  0  0
  2  5  1  0  0  0  0
  3  2  1  0  0  0  0
  3  1  1  0  0  0  0
  3  7  1  1  0  0  0
  6  2  1  0  0  0  0
  8  9  1  0  0  0  0
  9  3  1  0  0  0  0
 10 11  1  0  0  0  0
 10  9  2  0  0  0  0
 12 10  1  0  0  0  0
 13 14  1  0  0  0  0
 13 12  2  0  0  0  0
 14  8  2  0  0  0  0
 15 13  1  0  0  0  0
 16 15  1  0  0  0  0
 16 18  1  0  0  0  0
 17 16  1  0  0  0  0
 18 12  1  0  0  0  0
 19 25  1  0  0  0  0
 19 24  1  0  0  0  0
 20 19  2  0  0  0  0
 21 20  1  0  0  0  0
 21 22  2  0  0  0  0
 22 23  1  0  0  0  0
 23 26  1  0  0  0  0
 23 24  2  0  0  0  0
 27 20  1  0  0  0  0
 28 27  1  0  0  0  0
 29 27  1  0  0  0  0
M  END
>  <minimizedAffinity>
-5.76395607

>  <minimizedRMSD>
0.263876349

$$$$
