
 OpenBabel03252508323D

 34 37  0  0  1  0  0  0  0  0999 V2000
   44.7420   34.4500   42.1860 N   0  0  0  0  0  0  0  0  0  0  0  0
   45.0850   33.3880   41.3200 C   0  0  1  0  0  0  0  0  0  0  0  0
   44.6940   33.5550   39.8980 C   0  0  0  0  0  0  0  0  0  0  0  0
   43.5140   34.2670   39.6350 N   0  0  0  0  0  0  0  0  0  0  0  0
   43.1600   35.3060   40.5130 C   0  0  0  0  0  0  0  0  0  0  0  0
   44.2630   35.6150   41.5080 C   0  0  0  0  0  0  0  0  0  0  0  0
   44.5890   32.4530   41.7050 H   0  0  0  0  0  0  0  0  0  0  0  0
   44.6720   32.5670   39.3950 H   0  0  0  0  0  0  0  0  0  0  0  0
   45.5360   34.1090   39.3860 H   0  0  0  0  0  0  0  0  0  0  0  0
   42.7100   33.5710   39.6400 H   0  0  0  0  0  0  0  0  0  0  0  0
   42.2120   35.1860   41.0680 H   0  0  0  0  0  0  0  0  0  0  0  0
   43.0410   36.2380   39.9020 H   0  0  0  0  0  0  0  0  0  0  0  0
   45.1170   36.1060   40.9560 H   0  0  0  0  0  0  0  0  0  0  0  0
   43.8460   36.4090   42.1530 H   0  0  0  0  0  0  0  0  0  0  0  0
   47.0860   31.9080   40.8470 C   0  0  0  0  0  3  0  0  0  0  0  0
   46.5620   33.0920   41.3110 C   0  0  0  0  0  0  0  0  0  0  0  0
   47.5250   33.9890   41.7870 C   0  0  0  0  0  0  0  0  0  0  0  0
   47.1810   34.9430   42.1680 H   0  0  0  0  0  0  0  0  0  0  0  0
   48.8760   33.7270   41.7980 C   0  0  0  0  0  0  0  0  0  0  0  0
   49.3230   32.5170   41.3170 C   0  0  0  0  0  0  0  0  0  0  0  0
   48.4200   31.5930   40.8340 C   0  0  0  0  0  3  0  0  0  0  0  0
   50.7210   32.5310   41.4520 O   0  0  0  0  0  0  0  0  0  0  0  0
   51.0960   33.5970   42.3140 C   0  0  0  0  0  3  0  0  0  0  0  0
   51.2380   33.1730   43.3290 H   0  0  0  0  0  0  0  0  0  0  0  0
   49.9770   34.4560   42.2150 O   0  0  0  0  0  0  0  0  0  0  0  0
   44.5380   35.3620   44.3860 C   0  0  0  0  0  0  0  0  0  0  0  0
   44.8980   34.2750   43.5790 C   0  0  0  0  0  0  0  0  0  0  0  0
   45.3720   33.1400   44.2110 C   0  0  0  0  0  0  0  0  0  0  0  0
   45.4860   33.0790   45.5660 N   0  0  0  0  0  0  0  0  0  0  0  0
   45.1250   34.1630   46.3200 C   0  0  0  0  0  0  0  0  0  0  0  0
   44.6600   35.2780   45.7210 N   0  0  0  0  0  0  0  0  0  0  0  0
   44.1530   36.3270   44.1010 H   0  0  0  0  0  0  0  0  0  0  0  0
   45.6450   32.2980   43.6030 H   0  0  0  0  0  0  0  0  0  0  0  0
   45.2230   34.0920   47.3970 H   0  0  0  0  0  0  0  0  0  0  0  0
  1 27  1  0  0  0  0
  2  7  1  1  0  0  0
  2  1  1  0  0  0  0
  3  2  1  0  0  0  0
  4 10  1  0  0  0  0
  4  3  1  0  0  0  0
  4  5  1  0  0  0  0
  5 11  1  0  0  0  0
  5  6  1  0  0  0  0
  6 14  1  0  0  0  0
  6  1  1  0  0  0  0
  8  3  1  0  0  0  0
  9  3  1  0  0  0  0
 12  5  1  0  0  0  0
 13  6  1  0  0  0  0
 15 16  1  0  0  0  0
 16  2  1  0  0  0  0
 16 17  2  0  0  0  0
 17 19  1  0  0  0  0
 17 18  1  0  0  0  0
 19 25  1  0  0  0  0
 20 22  1  0  0  0  0
 20 19  2  0  0  0  0
 21 15  2  0  0  0  0
 21 20  1  0  0  0  0
 22 23  1  0  0  0  0
 23 24  1  0  0  0  0
 25 23  1  0  0  0  0
 26 31  1  0  0  0  0
 27 28  1  0  0  0  0
 27 26  2  0  0  0  0
 28 29  2  0  0  0  0
 29 30  1  0  0  0  0
 30 34  1  0  0  0  0
 31 30  2  0  0  0  0
 32 26  1  0  0  0  0
 33 28  1  0  0  0  0
M  END
>  <minimizedAffinity>
-4.67349291

>  <minimizedRMSD>
1.02970123

$$$$
