
 OpenBabel03252500313D

 45 49  0  0  1  0  0  0  0  0999 V2000
   45.9500   31.5820   47.1100 N   0  0  0  0  0  0  0  0  0  0  0  0
   46.5000   32.4550   48.0920 C   0  0  0  0  0  0  0  0  0  0  0  0
   47.9520   32.1090   48.3900 C   0  0  0  0  0  0  0  0  0  0  0  0
   47.9380   30.7410   49.0340 C   0  0  0  0  0  0  0  0  0  0  0  0
   47.3910   29.7930   47.9730 C   0  0  0  0  0  0  0  0  0  0  0  0
   46.0330   30.2480   47.4660 C   0  0  2  0  0  0  0  0  0  0  0  0
   45.9630   32.1330   49.0410 H   0  0  0  0  0  0  0  0  0  0  0  0
   46.2670   33.5040   48.0400 H   0  0  0  0  0  0  0  0  0  0  0  0
   48.5070   32.0480   47.4340 H   0  0  0  0  0  0  0  0  0  0  0  0
   48.3690   32.8870   49.0640 H   0  0  0  0  0  0  0  0  0  0  0  0
   48.9780   30.4440   49.2310 H   0  0  0  0  0  0  0  0  0  0  0  0
   47.2970   30.7360   49.9270 H   0  0  0  0  0  0  0  0  0  0  0  0
   48.1250   29.6960   47.1620 H   0  0  0  0  0  0  0  0  0  0  0  0
   47.2850   28.8080   48.4710 H   0  0  0  0  0  0  0  0  0  0  0  0
   45.4270   30.1890   48.4380 H   0  0  0  0  0  0  0  0  0  0  0  0
   44.1740   28.8680   46.3730 C   0  0  0  0  0  3  0  0  0  0  0  0
   45.4860   29.2040   46.6160 C   0  0  0  0  0  0  0  0  0  0  0  0
   46.3330   28.3390   45.9000 C   0  0  0  0  0  0  0  0  0  0  0  0
   47.4260   28.4660   45.9800 H   0  0  0  0  0  0  0  0  0  0  0  0
   45.9530   27.3180   45.0830 C   0  0  0  0  0  0  0  0  0  0  0  0
   44.6210   27.0750   44.9150 C   0  0  0  0  0  0  0  0  0  0  0  0
   43.7000   27.8590   45.5680 C   0  0  0  0  0  3  0  0  0  0  0  0
   44.4710   26.0070   44.0560 O   0  0  0  0  0  0  0  0  0  0  0  0
   45.6970   25.8120   43.3730 C   0  0  0  0  0  3  0  0  0  0  0  0
   45.7470   26.3030   42.3920 H   0  0  0  0  0  0  0  0  0  0  0  0
   46.6230   26.3810   44.3120 O   0  0  0  0  0  0  0  0  0  0  0  0
   46.0150   32.0380   45.7760 C   0  0  0  0  0  0  0  0  0  0  0  0
   46.9320   31.6110   45.2650 H   0  0  0  0  0  0  0  0  0  0  0  0
   45.1590   31.7540   45.1400 H   0  0  0  0  0  0  0  0  0  0  0  0
   46.1020   34.2980   44.4770 C   0  0  1  0  0  0  0  0  0  0  0  0
   45.0870   34.4140   45.4580 C   0  0  0  0  0  0  0  0  0  0  0  0
   46.2120   33.5120   45.7990 C   0  0  1  0  0  0  0  0  0  0  0  0
   46.8440   35.1300   44.3390 H   0  0  0  0  0  0  0  0  0  0  0  0
   44.1070   33.8990   45.2830 H   0  0  0  0  0  0  0  0  0  0  0  0
   44.9120   35.3650   46.0210 H   0  0  0  0  0  0  0  0  0  0  0  0
   47.1090   33.8370   46.3460 H   0  0  0  0  0  0  0  0  0  0  0  0
   44.7020   33.2250   42.7180 C   0  0  0  0  0  0  0  0  0  0  0  0
   46.0030   33.5030   43.2260 C   0  0  0  0  0  0  0  0  0  0  0  0
   47.0840   33.0200   42.5360 C   0  0  0  0  0  0  0  0  0  0  0  0
   46.8420   32.2980   41.3970 N   0  0  0  0  0  0  0  0  0  0  0  0
   45.6050   32.0460   40.9310 C   0  0  0  0  0  0  0  0  0  0  0  0
   44.4990   32.5090   41.5880 N   0  0  0  0  0  0  0  0  0  0  0  0
   43.8510   33.5980   43.2510 H   0  0  0  0  0  0  0  0  0  0  0  0
   48.0570   33.2270   42.9160 H   0  0  0  0  0  0  0  0  0  0  0  0
   45.4720   31.4670   40.0200 H   0  0  0  0  0  0  0  0  0  0  0  0
  1  6  1  0  0  0  0
  1  2  1  0  0  0  0
  2  3  1  0  0  0  0
  2  7  1  0  0  0  0
  3  4  1  0  0  0  0
  3 10  1  0  0  0  0
  4 11  1  0  0  0  0
  4 12  1  0  0  0  0
  5 14  1  0  0  0  0
  5  4  1  0  0  0  0
  6  5  1  0  0  0  0
  6 15  1  1  0  0  0
  8  2  1  0  0  0  0
  9  3  1  0  0  0  0
 13  5  1  0  0  0  0
 16 17  1  0  0  0  0
 17  6  1  0  0  0  0
 18 19  1  0  0  0  0
 18 17  2  0  0  0  0
 20 18  1  0  0  0  0
 21 20  2  0  0  0  0
 21 22  1  0  0  0  0
 22 16  2  0  0  0  0
 23 21  1  0  0  0  0
 24 23  1  0  0  0  0
 24 26  1  0  0  0  0
 25 24  1  0  0  0  0
 26 20  1  0  0  0  0
 27 32  1  0  0  0  0
 27  1  1  0  0  0  0
 28 27  1  0  0  0  0
 29 27  1  0  0  0  0
 30 33  1  6  0  0  0
 30 31  1  0  0  0  0
 30 32  1  0  0  0  0
 31 32  1  0  0  0  0
 31 35  1  0  0  0  0
 32 36  1  1  0  0  0
 34 31  1  0  0  0  0
 37 38  1  0  0  0  0
 37 43  1  0  0  0  0
 38 30  1  0  0  0  0
 39 44  1  0  0  0  0
 39 38  2  0  0  0  0
 40 39  1  0  0  0  0
 41 40  2  0  0  0  0
 41 42  1  0  0  0  0
 42 37  2  0  0  0  0
 45 41  1  0  0  0  0
M  END
>  <minimizedAffinity>
-4.20988226

>  <minimizedRMSD>
1.14179611

$$$$
