
 OpenBabel03242510223D

 40 44  0  0  1  0  0  0  0  0999 V2000
   48.0230   33.1110   43.2950 N   0  0  0  0  0  0  0  0  0  0  0  0
   49.1300   33.0640   42.4590 C   0  0  0  0  0  0  0  0  0  0  0  0
   50.2580   32.5250   42.6130 O   0  0  0  0  0  0  0  0  0  0  0  0
   47.5780   34.0540   43.2990 H   0  0  0  0  0  0  0  0  0  0  0  0
   46.1810   32.0550   44.5530 C   0  0  1  0  0  0  0  0  0  0  0  0
   46.3390   31.2930   43.3910 C   0  0  0  0  0  0  0  0  0  0  0  0
   47.5690   31.9970   44.0470 C   0  0  1  0  0  0  0  0  0  0  0  0
   45.9680   31.6130   45.5570 H   0  0  0  0  0  0  0  0  0  0  0  0
   46.1160   31.5730   42.3470 H   0  0  0  0  0  0  0  0  0  0  0  0
   46.3360   30.1640   43.4860 H   0  0  0  0  0  0  0  0  0  0  0  0
   48.2870   31.2580   44.4580 H   0  0  0  0  0  0  0  0  0  0  0  0
   45.0120   33.9320   43.1780 C   0  0  0  0  0  0  0  0  0  0  0  0
   45.4820   33.4200   44.4290 C   0  0  0  0  0  0  0  0  0  0  0  0
   45.3100   34.2110   45.5460 C   0  0  0  0  0  0  0  0  0  0  0  0
   44.7150   35.4150   45.4130 N   0  0  0  0  0  0  0  0  0  0  0  0
   44.2750   35.8890   44.2190 C   0  0  0  0  0  0  0  0  0  0  0  0
   44.4340   35.1120   43.0670 N   0  0  0  0  0  0  0  0  0  0  0  0
   45.1290   33.3090   42.3130 H   0  0  0  0  0  0  0  0  0  0  0  0
   45.6540   33.8520   46.5120 H   0  0  0  0  0  0  0  0  0  0  0  0
   43.8060   36.8620   44.1760 H   0  0  0  0  0  0  0  0  0  0  0  0
   49.0630   33.7470   41.1020 C   0  0  2  0  0  0  0  0  0  0  0  0
   48.5460   35.2340   41.1030 C   0  0  0  0  0  0  0  0  0  0  0  0
   47.7810   34.1000   40.4870 C   0  0  1  0  0  0  0  0  0  0  0  0
   49.9590   33.6790   40.4540 H   0  0  0  0  0  0  0  0  0  0  0  0
   48.2260   35.5570   42.1150 H   0  0  0  0  0  0  0  0  0  0  0  0
   49.0050   35.9340   40.4100 H   0  0  0  0  0  0  0  0  0  0  0  0
   46.9250   33.5880   40.9770 H   0  0  0  0  0  0  0  0  0  0  0  0
   47.6980   34.0600   38.9790 C   0  0  0  0  0  0  0  0  0  0  0  0
   48.4940   34.7170   38.3150 O   0  0  0  0  0  0  0  0  0  0  0  0
   45.7900   32.4070   38.8800 C   0  0  0  0  0  3  0  0  0  0  0  0
   46.6960   33.2580   38.2860 C   0  0  0  0  0  0  0  0  0  0  0  0
   46.5970   33.3130   36.9100 C   0  0  0  0  0  0  0  0  0  0  0  0
   47.2460   33.9410   36.3060 H   0  0  0  0  0  0  0  0  0  0  0  0
   45.6810   32.5910   36.1760 C   0  0  0  0  0  0  0  0  0  0  0  0
   44.7950   31.7540   36.8170 C   0  0  0  0  0  0  0  0  0  0  0  0
   44.8580   31.6680   38.1840 C   0  0  0  0  0  3  0  0  0  0  0  0
   43.9930   31.1580   35.8440 O   0  0  0  0  0  0  0  0  0  0  0  0
   44.7030   31.2320   34.5980 C   0  0  0  0  0  3  0  0  0  0  0  0
   45.5330   30.4780   34.5640 H   0  0  0  0  0  0  0  0  0  0  0  0
   45.3850   32.4750   34.8130 O   0  0  0  0  0  0  0  0  0  0  0  0
  1  4  1  0  0  0  0
  1  7  1  0  0  0  0
  2  3  2  0  0  0  0
  2  1  1  0  0  0  0
  5  8  1  1  0  0  0
  6 10  1  0  0  0  0
  6  7  1  0  0  0  0
  6  5  1  0  0  0  0
  7 11  1  1  0  0  0
  7  5  1  0  0  0  0
  9  6  1  0  0  0  0
 12 13  1  0  0  0  0
 13  5  1  0  0  0  0
 13 14  2  0  0  0  0
 14 19  1  0  0  0  0
 15 14  1  0  0  0  0
 16 15  2  0  0  0  0
 17 12  2  0  0  0  0
 17 16  1  0  0  0  0
 18 12  1  0  0  0  0
 20 16  1  0  0  0  0
 21 24  1  6  0  0  0
 21 22  1  0  0  0  0
 21  2  1  0  0  0  0
 22 25  1  0  0  0  0
 23 27  1  1  0  0  0
 23 21  1  0  0  0  0
 23 22  1  0  0  0  0
 26 22  1  0  0  0  0
 28 23  1  0  0  0  0
 29 28  2  0  0  0  0
 31 30  1  0  0  0  0
 31 28  1  0  0  0  0
 32 31  2  0  0  0  0
 33 32  1  0  0  0  0
 34 35  2  0  0  0  0
 34 32  1  0  0  0  0
 35 36  1  0  0  0  0
 36 30  2  0  0  0  0
 37 35  1  0  0  0  0
 38 40  1  0  0  0  0
 38 37  1  0  0  0  0
 39 38  1  0  0  0  0
 40 34  1  0  0  0  0
M  END
>  <minimizedAffinity>
-5.39591169

>  <minimizedRMSD>
0.338539541

$$$$
