
 OpenBabel03252508323D

 34 37  0  0  1  0  0  0  0  0999 V2000
   44.0530   34.1170   41.5000 N   0  0  0  0  0  0  0  0  0  0  0  0
   43.6180   33.1070   40.6130 C   0  0  1  0  0  0  0  0  0  0  0  0
   42.4600   33.4520   39.7510 C   0  0  0  0  0  0  0  0  0  0  0  0
   41.4970   34.3220   40.2850 N   0  0  0  0  0  0  0  0  0  0  0  0
   41.9280   35.3100   41.1880 C   0  0  0  0  0  0  0  0  0  0  0  0
   43.4400   35.3900   41.2680 C   0  0  0  0  0  0  0  0  0  0  0  0
   43.3330   32.2070   41.2270 H   0  0  0  0  0  0  0  0  0  0  0  0
   41.9800   32.5250   39.3770 H   0  0  0  0  0  0  0  0  0  0  0  0
   42.8740   33.9450   38.8220 H   0  0  0  0  0  0  0  0  0  0  0  0
   40.7760   33.7300   40.7960 H   0  0  0  0  0  0  0  0  0  0  0  0
   41.5250   35.2540   42.2140 H   0  0  0  0  0  0  0  0  0  0  0  0
   41.5990   36.3020   40.7830 H   0  0  0  0  0  0  0  0  0  0  0  0
   43.8300   35.8240   40.3010 H   0  0  0  0  0  0  0  0  0  0  0  0
   43.6410   36.1650   42.0300 H   0  0  0  0  0  0  0  0  0  0  0  0
   45.1180   31.3280   39.6110 C   0  0  0  0  0  3  0  0  0  0  0  0
   44.7030   32.6380   39.6800 C   0  0  0  0  0  0  0  0  0  0  0  0
   45.3920   33.4950   38.8140 C   0  0  0  0  0  0  0  0  0  0  0  0
   45.1140   34.5430   38.8160 H   0  0  0  0  0  0  0  0  0  0  0  0
   46.3940   33.0840   37.9660 C   0  0  0  0  0  0  0  0  0  0  0  0
   46.7530   31.7540   37.9560 C   0  0  0  0  0  0  0  0  0  0  0  0
   46.1090   30.8620   38.7880 C   0  0  0  0  0  3  0  0  0  0  0  0
   47.7840   31.6320   37.0100 O   0  0  0  0  0  0  0  0  0  0  0  0
   48.2790   32.9240   36.6890 C   0  0  0  0  0  3  0  0  0  0  0  0
   49.1850   33.0990   37.3040 H   0  0  0  0  0  0  0  0  0  0  0  0
   47.1880   33.7510   37.0480 O   0  0  0  0  0  0  0  0  0  0  0  0
   46.1520   34.6090   42.5320 C   0  0  0  0  0  0  0  0  0  0  0  0
   45.0110   33.7960   42.4860 C   0  0  0  0  0  0  0  0  0  0  0  0
   44.9270   32.7620   43.4000 C   0  0  0  0  0  0  0  0  0  0  0  0
   45.9140   32.5390   44.3100 N   0  0  0  0  0  0  0  0  0  0  0  0
   47.0130   33.3540   44.3230 C   0  0  0  0  0  0  0  0  0  0  0  0
   47.1120   34.3690   43.4400 N   0  0  0  0  0  0  0  0  0  0  0  0
   46.4130   35.4560   41.9190 H   0  0  0  0  0  0  0  0  0  0  0  0
   44.0550   32.1360   43.3780 H   0  0  0  0  0  0  0  0  0  0  0  0
   47.7870   33.1580   45.0570 H   0  0  0  0  0  0  0  0  0  0  0  0
  1 27  1  0  0  0  0
  2  7  1  1  0  0  0
  2  1  1  0  0  0  0
  3  4  1  0  0  0  0
  3  2  1  0  0  0  0
  4 10  1  0  0  0  0
  4  5  1  0  0  0  0
  5  6  1  0  0  0  0
  5 11  1  0  0  0  0
  6  1  1  0  0  0  0
  6 14  1  0  0  0  0
  8  3  1  0  0  0  0
  9  3  1  0  0  0  0
 12  5  1  0  0  0  0
 13  6  1  0  0  0  0
 15 16  1  0  0  0  0
 16  2  1  0  0  0  0
 17 18  1  0  0  0  0
 17 16  2  0  0  0  0
 19 17  1  0  0  0  0
 20 19  2  0  0  0  0
 20 21  1  0  0  0  0
 21 15  2  0  0  0  0
 22 20  1  0  0  0  0
 23 22  1  0  0  0  0
 23 25  1  0  0  0  0
 23 24  1  0  0  0  0
 25 19  1  0  0  0  0
 26 31  1  0  0  0  0
 27 26  2  0  0  0  0
 27 28  1  0  0  0  0
 28 29  2  0  0  0  0
 29 30  1  0  0  0  0
 30 34  1  0  0  0  0
 31 30  2  0  0  0  0
 32 26  1  0  0  0  0
 33 28  1  0  0  0  0
M  END
>  <minimizedAffinity>
-3.89448428

>  <minimizedRMSD>
1.97471201

$$$$
