
 OpenBabel03242510233D

 40 44  0  0  1  0  0  0  0  0999 V2000
   48.0230   33.2040   43.1280 N   0  0  0  0  0  0  0  0  0  0  0  0
   49.1690   33.2420   42.3460 C   0  0  0  0  0  0  0  0  0  0  0  0
   50.3360   32.8260   42.5720 O   0  0  0  0  0  0  0  0  0  0  0  0
   47.4860   34.0960   43.0740 H   0  0  0  0  0  0  0  0  0  0  0  0
   46.2880   32.0910   44.4860 C   0  0  1  0  0  0  0  0  0  0  0  0
   46.4030   31.3350   43.3140 C   0  0  0  0  0  0  0  0  0  0  0  0
   47.6470   32.0760   43.9020 C   0  0  1  0  0  0  0  0  0  0  0  0
   46.1470   31.6410   45.4980 H   0  0  0  0  0  0  0  0  0  0  0  0
   46.1130   31.6100   42.2860 H   0  0  0  0  0  0  0  0  0  0  0  0
   46.4400   30.2060   43.4070 H   0  0  0  0  0  0  0  0  0  0  0  0
   48.4090   31.3590   44.2690 H   0  0  0  0  0  0  0  0  0  0  0  0
   45.0500   33.9680   43.1710 C   0  0  0  0  0  0  0  0  0  0  0  0
   45.5430   33.4350   44.4050 C   0  0  0  0  0  0  0  0  0  0  0  0
   45.3470   34.1840   45.5450 C   0  0  0  0  0  0  0  0  0  0  0  0
   44.7110   35.3710   45.4510 N   0  0  0  0  0  0  0  0  0  0  0  0
   44.2500   35.8650   44.2730 C   0  0  0  0  0  0  0  0  0  0  0  0
   44.4310   35.1290   43.0980 N   0  0  0  0  0  0  0  0  0  0  0  0
   45.1850   33.3750   42.2880 H   0  0  0  0  0  0  0  0  0  0  0  0
   45.7080   33.8090   46.4990 H   0  0  0  0  0  0  0  0  0  0  0  0
   43.7490   36.8230   44.2610 H   0  0  0  0  0  0  0  0  0  0  0  0
   49.1010   33.8680   40.9620 C   0  0  2  0  0  0  0  0  0  0  0  0
   48.5810   35.3520   40.9000 C   0  0  0  0  0  0  0  0  0  0  0  0
   47.8180   34.1920   40.3320 C   0  0  1  0  0  0  0  0  0  0  0  0
   49.9980   33.7740   40.3170 H   0  0  0  0  0  0  0  0  0  0  0  0
   48.2600   35.7160   41.8980 H   0  0  0  0  0  0  0  0  0  0  0  0
   49.0380   36.0230   40.1780 H   0  0  0  0  0  0  0  0  0  0  0  0
   46.9630   33.6990   40.8430 H   0  0  0  0  0  0  0  0  0  0  0  0
   47.7350   34.0880   38.8270 C   0  0  0  0  0  0  0  0  0  0  0  0
   48.5410   34.7040   38.1360 O   0  0  0  0  0  0  0  0  0  0  0  0
   45.8320   32.4280   38.7940 C   0  0  0  0  0  0  0  0  0  0  0  0
   46.7230   33.2730   38.1670 C   0  0  0  0  0  0  0  0  0  0  0  0
   46.5930   33.3080   36.7940 C   0  0  0  0  0  0  0  0  0  0  0  0
   47.2270   33.9290   36.1670 H   0  0  0  0  0  0  0  0  0  0  0  0
   45.6630   32.5710   36.0900 C   0  0  0  0  0  0  0  0  0  0  0  0
   44.7950   31.7410   36.7620 C   0  0  0  0  0  0  0  0  0  0  0  0
   44.8890   31.6750   38.1280 C   0  0  0  0  0  0  0  0  0  0  0  0
   43.9760   31.1270   35.8150 O   0  0  0  0  0  0  0  0  0  0  0  0
   44.6570   31.1850   34.5540 C   0  0  0  0  0  0  0  0  0  0  0  0
   45.4910   30.4340   34.5120 H   0  0  0  0  0  0  0  0  0  0  0  0
   45.3400   32.4340   34.7360 O   0  0  0  0  0  0  0  0  0  0  0  0
  1  7  1  0  0  0  0
  2  3  2  0  0  0  0
  2  1  1  0  0  0  0
  4  1  1  0  0  0  0
  5  8  1  1  0  0  0
  6 10  1  0  0  0  0
  6  7  1  0  0  0  0
  6  5  1  0  0  0  0
  7 11  1  1  0  0  0
  7  5  1  0  0  0  0
  9  6  1  0  0  0  0
 12 13  1  0  0  0  0
 13  5  1  0  0  0  0
 13 14  2  0  0  0  0
 14 19  1  0  0  0  0
 15 14  1  0  0  0  0
 16 15  2  0  0  0  0
 17 12  2  0  0  0  0
 17 16  1  0  0  0  0
 18 12  1  0  0  0  0
 20 16  1  0  0  0  0
 21 24  1  6  0  0  0
 21  2  1  0  0  0  0
 22 21  1  0  0  0  0
 22 25  1  0  0  0  0
 23 27  1  1  0  0  0
 23 22  1  0  0  0  0
 23 21  1  0  0  0  0
 26 22  1  0  0  0  0
 28 23  1  0  0  0  0
 29 28  2  0  0  0  0
 31 30  1  0  0  0  0
 31 28  1  0  0  0  0
 32 31  2  0  0  0  0
 33 32  1  0  0  0  0
 34 35  2  0  0  0  0
 34 32  1  0  0  0  0
 35 36  1  0  0  0  0
 36 30  2  0  0  0  0
 37 35  1  0  0  0  0
 38 40  1  0  0  0  0
 38 37  1  0  0  0  0
 39 38  1  0  0  0  0
 40 34  1  0  0  0  0
M  END
>  <minimizedAffinity>
-5.40838337

>  <minimizedRMSD>
0.179931417

$$$$
