REMARK  Name = 
REMARK  2 active torsions:
REMARK  status: ('A' for Active; 'I' for Inactive)
REMARK    1  A    between atoms: C_3  and  S_7
REMARK    2  A    between atoms: C_5  and  C_12
REMARK                            x       y       z     vdW  Elec       q    Type
REMARK                         _______ _______ _______ _____ _____    ______ ____
ROOT
ATOM      1  C   UNL     1      46.417  33.478  47.591  0.00  0.00    +0.000 A 
ATOM      2  C   UNL     1      45.688  33.129  46.479  0.00  0.00    +0.000 A 
ATOM      3  C   UNL     1      45.076  31.881  46.316  0.00  0.00    +0.000 A 
ATOM      4  H   UNL     1      44.516  31.626  45.451  0.00  0.00    +0.000 HD
ATOM      5  C   UNL     1      45.268  31.012  47.387  0.00  0.00    +0.000 A 
ATOM      6  C   UNL     1      45.983  31.290  48.532  0.00  0.00    +0.000 A 
ATOM      7  C   UNL     1      46.547  32.555  48.587  0.00  0.00    +0.000 A 
ATOM      8  O   UNL     1      45.917  30.154  49.325  0.00  0.00    +0.000 OA
ATOM      9  C   UNL     1      45.328  29.113  48.592  0.00  0.00    +0.000 C 
ATOM     10  H   UNL     1      44.543  28.602  49.192  0.00  0.00    +0.000 HD
ATOM     11  O   UNL     1      44.753  29.704  47.461  0.00  0.00    +0.000 OA
ENDROOT
BRANCH   2  16
ATOM     12  C   UNL     1      44.536  36.032  44.533  0.00  0.00    +0.000 A 
ATOM     13  C   UNL     1      45.259  35.894  43.322  0.00  0.00    +0.000 A 
ATOM     14  C   UNL     1      46.134  34.790  43.207  0.00  0.00    +0.000 A 
ATOM     15  N   UNL     1      46.233  33.936  44.249  0.00  0.00    +0.000 NA
ATOM     16  C   UNL     1      45.528  34.105  45.382  0.00  0.00    +0.000 A 
ATOM     17  N   UNL     1      44.693  35.137  45.522  0.00  0.00    +0.000 NA
ATOM     18  H   UNL     1      43.904  36.894  44.523  0.00  0.00    +0.000 HD
ATOM     19  H   UNL     1      45.167  36.585  42.503  0.00  0.00    +0.000 HD
BRANCH  14  20
ATOM     20  S   UNL     1      47.068  34.560  41.714  0.00  0.00    +0.000 S 
ATOM     21  H   UNL     1      47.600  33.238  41.746  0.00  0.00    +0.000 HD
ENDBRANCH  14  20
ENDBRANCH   2  16
TORSDOF 2
