
 OpenBabel03252508513D

 30 33  0  0  0  0  0  0  0  0999 V2000
   45.9600   34.1430   41.0410 C   0  0  0  0  0  0  0  0  0  0  0  0
   46.5290   34.8020   42.1250 C   0  0  0  0  0  0  0  0  0  0  0  0
   47.8620   35.2020   41.9760 C   0  0  0  0  0  0  0  0  0  0  0  0
   48.5080   34.9250   40.7980 N   0  0  0  0  0  0  0  0  0  0  0  0
   47.9110   34.2910   39.7970 C   0  0  0  0  0  0  0  0  0  0  0  0
   46.6350   33.8920   39.8980 N   0  0  0  0  0  0  0  0  0  0  0  0
   48.3310   35.7160   42.8020 H   0  0  0  0  0  0  0  0  0  0  0  0
   48.4300   34.0800   38.8760 H   0  0  0  0  0  0  0  0  0  0  0  0
   45.7530   35.0410   43.3230 C   0  0  0  0  0  0  0  0  0  0  0  0
   45.0530   36.2030   43.5490 C   0  0  0  0  0  0  0  0  0  0  0  0
   44.4780   35.9990   44.7870 C   0  0  0  0  0  0  0  0  0  0  0  0
   44.8100   34.7840   45.2820 N   0  0  0  0  0  0  0  0  0  0  0  0
   45.5820   34.2240   44.3790 N   0  0  0  0  0  0  0  0  0  0  0  0
   44.9280   37.1000   42.9640 H   0  0  0  0  0  0  0  0  0  0  0  0
   43.8270   36.6550   45.3810 H   0  0  0  0  0  0  0  0  0  0  0  0
   44.5610   34.3040   46.1720 H   0  0  0  0  0  0  0  0  0  0  0  0
   44.6420   33.7310   41.1460 O   0  0  0  0  0  0  0  0  0  0  0  0
   43.5340   34.3780   40.6770 C   0  0  0  0  0  0  0  0  0  0  0  0
   43.3950   35.6410   40.4860 O   0  0  0  0  0  0  0  0  0  0  0  0
   41.9160   33.3880   38.9930 C   0  0  0  0  0  3  0  0  0  0  0  0
   42.2720   33.6680   40.3070 C   0  0  0  0  0  0  0  0  0  0  0  0
   41.3420   33.2240   41.2160 C   0  0  0  0  0  0  0  0  0  0  0  0
   41.5290   33.3960   42.2720 H   0  0  0  0  0  0  0  0  0  0  0  0
   40.1830   32.5740   40.8910 C   0  0  0  0  0  0  0  0  0  0  0  0
   39.9130   32.3410   39.5620 C   0  0  0  0  0  0  0  0  0  0  0  0
   40.7760   32.7430   38.5760 C   0  0  0  0  0  3  0  0  0  0  0  0
   38.7010   31.6800   39.5180 O   0  0  0  0  0  0  0  0  0  0  0  0
   38.1620   31.5090   40.8210 C   0  0  0  0  0  3  0  0  0  0  0  0
   38.0560   30.4420   41.1080 H   0  0  0  0  0  0  0  0  0  0  0  0
   39.1480   32.0640   41.6620 O   0  0  0  0  0  0  0  0  0  0  0  0
  1 17  1  0  0  0  0
  1  2  1  0  0  0  0
  2  9  1  0  0  0  0
  3  2  2  0  0  0  0
  3  7  1  0  0  0  0
  4  3  1  0  0  0  0
  5  6  1  0  0  0  0
  5  4  2  0  0  0  0
  6  1  2  0  0  0  0
  8  5  1  0  0  0  0
  9 10  1  0  0  0  0
  9 13  2  0  0  0  0
 10 11  2  0  0  0  0
 11 12  1  0  0  0  0
 11 15  1  0  0  0  0
 12 16  1  0  0  0  0
 13 12  1  0  0  0  0
 14 10  1  0  0  0  0
 18 17  1  0  0  0  0
 19 18  2  0  0  0  0
 20 21  1  0  0  0  0
 21 18  1  0  0  0  0
 21 22  2  0  0  0  0
 22 23  1  0  0  0  0
 24 22  1  0  0  0  0
 24 30  1  0  0  0  0
 25 24  2  0  0  0  0
 26 20  2  0  0  0  0
 26 25  1  0  0  0  0
 27 25  1  0  0  0  0
 27 28  1  0  0  0  0
 28 29  1  0  0  0  0
 28 30  1  0  0  0  0
M  END
>  <minimizedAffinity>
-5.8888402

>  <minimizedRMSD>
1.29882181

$$$$
