
 OpenBabel03252507383D

 40 45  0  0  0  0  0  0  0  0999 V2000
   45.5020   34.8240   43.5480 C   0  0  0  0  0  0  0  0  0  0  0  0
   46.2050   33.7510   44.1310 C   0  0  0  0  0  0  0  0  0  0  0  0
   46.0300   33.5260   45.4830 C   0  0  0  0  0  0  0  0  0  0  0  0
   45.2070   34.3270   46.1790 N   0  0  0  0  0  0  0  0  0  0  0  0
   44.5340   35.3590   45.6020 C   0  0  0  0  0  0  0  0  0  0  0  0
   44.6870   35.5960   44.3050 N   0  0  0  0  0  0  0  0  0  0  0  0
   46.8660   33.1060   43.5780 H   0  0  0  0  0  0  0  0  0  0  0  0
   43.9080   35.9200   46.2840 H   0  0  0  0  0  0  0  0  0  0  0  0
   47.0120   32.6900   47.5490 C   0  0  0  0  0  0  0  0  0  0  0  0
   46.6960   32.4490   46.2150 C   0  0  0  0  0  0  0  0  0  0  0  0
   47.0230   31.2280   45.6740 C   0  0  0  0  0  0  0  0  0  0  0  0
   47.6500   30.2460   46.4090 C   0  0  0  0  0  0  0  0  0  0  0  0
   48.0580   28.9890   46.0830 N   0  0  0  0  0  0  0  0  0  0  0  0
   48.6310   28.4480   47.2220 C   0  0  0  0  0  0  0  0  0  0  0  0
   48.5630   29.3620   48.1950 N   0  0  0  0  0  0  0  0  0  0  0  0
   47.9650   30.4750   47.7230 C   0  0  0  0  0  0  0  0  0  0  0  0
   47.6480   31.6900   48.2880 C   0  0  0  0  0  0  0  0  0  0  0  0
   46.7910   33.6260   48.0610 H   0  0  0  0  0  0  0  0  0  0  0  0
   46.7730   31.0460   44.6320 H   0  0  0  0  0  0  0  0  0  0  0  0
   47.9490   28.5350   45.1400 H   0  0  0  0  0  0  0  0  0  0  0  0
   49.0540   27.4600   47.2990 H   0  0  0  0  0  0  0  0  0  0  0  0
   47.9020   31.8610   49.3290 H   0  0  0  0  0  0  0  0  0  0  0  0
   45.6690   35.0620   42.1860 O   0  0  0  0  0  0  0  0  0  0  0  0
   44.7230   34.6100   41.2750 C   0  0  0  0  0  0  0  0  0  0  0  0
   45.5020   33.8960   40.4380 C   0  0  0  0  0  0  0  0  0  0  0  0
   44.2120   33.2600   39.1750 S   0  0  0  0  0  0  0  0  0  0  0  0
   42.8640   34.1630   40.1360 C   0  0  0  0  0  0  0  0  0  0  0  0
   43.4540   34.6130   40.9450 N   0  0  0  0  0  0  0  0  0  0  0  0
   46.4870   33.4030   39.9780 H   0  0  0  0  0  0  0  0  0  0  0  0
   40.5180   35.0150   39.9060 C   0  0  0  0  0  3  0  0  0  0  0  0
   41.4510   34.0610   39.6180 C   0  0  0  0  0  0  0  0  0  0  0  0
   41.2780   32.9390   38.8690 C   0  0  0  0  0  0  0  0  0  0  0  0
   42.0410   32.2010   38.6600 H   0  0  0  0  0  0  0  0  0  0  0  0
   39.9940   32.7570   38.3440 C   0  0  0  0  0  0  0  0  0  0  0  0
   38.9970   33.6980   38.6040 C   0  0  0  0  0  0  0  0  0  0  0  0
   39.2530   34.8240   39.3800 C   0  0  0  0  0  3  0  0  0  0  0  0
   37.8300   33.2580   37.9550 O   0  0  0  0  0  0  0  0  0  0  0  0
   38.2060   32.2650   37.0030 C   0  0  0  0  0  3  0  0  0  0  0  0
   37.4500   31.4820   36.8890 H   0  0  0  0  0  0  0  0  0  0  0  0
   39.4170   31.7580   37.5400 O   0  0  0  0  0  0  0  0  0  0  0  0
  1  2  2  0  0  0  0
  1  6  1  0  0  0  0
  2  3  1  0  0  0  0
  3  4  2  0  0  0  0
  3 10  1  0  0  0  0
  5  4  1  0  0  0  0
  5  8  1  0  0  0  0
  6  5  2  0  0  0  0
  7  2  1  0  0  0  0
  9 18  1  0  0  0  0
  9 17  1  0  0  0  0
 10  9  2  0  0  0  0
 11 10  1  0  0  0  0
 11 12  2  0  0  0  0
 12 16  1  0  0  0  0
 13 12  1  0  0  0  0
 13 14  1  0  0  0  0
 14 21  1  0  0  0  0
 14 15  2  0  0  0  0
 16 15  1  0  0  0  0
 16 17  2  0  0  0  0
 17 22  1  0  0  0  0
 19 11  1  0  0  0  0
 20 13  1  0  0  0  0
 23  1  1  0  0  0  0
 24 23  1  0  0  0  0
 25 24  2  0  0  0  0
 26 27  1  0  0  0  0
 26 25  1  0  0  0  0
 27 28  2  0  0  0  0
 28 24  1  0  0  0  0
 29 25  1  0  0  0  0
 31 30  1  0  0  0  0
 31 27  1  0  0  0  0
 32 31  2  0  0  0  0
 33 32  1  0  0  0  0
 34 35  2  0  0  0  0
 34 32  1  0  0  0  0
 35 36  1  0  0  0  0
 36 30  2  0  0  0  0
 37 35  1  0  0  0  0
 38 40  1  0  0  0  0
 38 37  1  0  0  0  0
 39 38  1  0  0  0  0
 40 34  1  0  0  0  0
M  END
>  <minimizedAffinity>
-6.85658789

>  <minimizedRMSD>
1.25516868

$$$$
