
 OpenBabel03252507373D

 40 45  0  0  0  0  0  0  0  0999 V2000
   46.9770   32.7200   43.6570 C   0  0  0  0  0  0  0  0  0  0  0  0
   46.6020   31.4840   44.2190 C   0  0  0  0  0  0  0  0  0  0  0  0
   46.0660   31.4910   45.4920 C   0  0  0  0  0  0  0  0  0  0  0  0
   45.9250   32.6610   46.1370 N   0  0  0  0  0  0  0  0  0  0  0  0
   46.2920   33.8470   45.5810 C   0  0  0  0  0  0  0  0  0  0  0  0
   46.8100   33.8660   44.3600 N   0  0  0  0  0  0  0  0  0  0  0  0
   46.7120   30.5430   43.7070 H   0  0  0  0  0  0  0  0  0  0  0  0
   46.1220   34.7080   46.2160 H   0  0  0  0  0  0  0  0  0  0  0  0
   45.7220   30.2890   47.5830 C   0  0  0  0  0  0  0  0  0  0  0  0
   45.6340   30.2820   46.1930 C   0  0  0  0  0  0  0  0  0  0  0  0
   45.1500   29.1550   45.5730 C   0  0  0  0  0  0  0  0  0  0  0  0
   44.7550   28.0420   46.2810 C   0  0  0  0  0  0  0  0  0  0  0  0
   44.2550   26.8410   45.8800 N   0  0  0  0  0  0  0  0  0  0  0  0
   44.0330   26.0990   47.0280 C   0  0  0  0  0  0  0  0  0  0  0  0
   44.3920   26.8420   48.0800 N   0  0  0  0  0  0  0  0  0  0  0  0
   44.8390   28.0400   47.6490 C   0  0  0  0  0  0  0  0  0  0  0  0
   45.3200   29.1570   48.2940 C   0  0  0  0  0  0  0  0  0  0  0  0
   46.0930   31.1360   48.1580 H   0  0  0  0  0  0  0  0  0  0  0  0
   45.0830   29.1560   44.4880 H   0  0  0  0  0  0  0  0  0  0  0  0
   44.0790   26.5520   44.8840 H   0  0  0  0  0  0  0  0  0  0  0  0
   43.6380   25.0970   47.0570 H   0  0  0  0  0  0  0  0  0  0  0  0
   45.3830   29.1450   49.3780 H   0  0  0  0  0  0  0  0  0  0  0  0
   47.5180   32.7280   42.3740 O   0  0  0  0  0  0  0  0  0  0  0  0
   48.1180   31.5850   41.8610 C   0  0  0  0  0  0  0  0  0  0  0  0
   47.3760   31.3890   40.7510 C   0  0  0  0  0  0  0  0  0  0  0  0
   48.1920   29.8170   40.0270 S   0  0  0  0  0  0  0  0  0  0  0  0
   49.3990   29.8060   41.4750 C   0  0  0  0  0  0  0  0  0  0  0  0
   49.0620   30.6910   42.0310 N   0  0  0  0  0  0  0  0  0  0  0  0
   46.5320   31.5710   39.9280 H   0  0  0  0  0  0  0  0  0  0  0  0
   50.8750   28.1940   42.7040 C   0  0  0  0  0  3  0  0  0  0  0  0
   50.4270   28.7040   41.5190 C   0  0  0  0  0  0  0  0  0  0  0  0
   50.8050   28.3300   40.2660 C   0  0  0  0  0  0  0  0  0  0  0  0
   50.4300   28.7540   39.3460 H   0  0  0  0  0  0  0  0  0  0  0  0
   51.7600   27.3080   40.2060 C   0  0  0  0  0  0  0  0  0  0  0  0
   52.2560   26.7490   41.3840 C   0  0  0  0  0  0  0  0  0  0  0  0
   51.8180   27.1860   42.6300 C   0  0  0  0  0  3  0  0  0  0  0  0
   53.1860   25.7610   41.0160 O   0  0  0  0  0  0  0  0  0  0  0  0
   52.9830   25.4600   39.6370 C   0  0  0  0  0  3  0  0  0  0  0  0
   53.9140   25.2130   39.1170 H   0  0  0  0  0  0  0  0  0  0  0  0
   52.3980   26.6530   39.1380 O   0  0  0  0  0  0  0  0  0  0  0  0
  1  2  2  0  0  0  0
  1  6  1  0  0  0  0
  2  3  1  0  0  0  0
  3  4  2  0  0  0  0
  3 10  1  0  0  0  0
  5  4  1  0  0  0  0
  5  8  1  0  0  0  0
  6  5  2  0  0  0  0
  7  2  1  0  0  0  0
  9 18  1  0  0  0  0
  9 17  1  0  0  0  0
 10  9  2  0  0  0  0
 11 10  1  0  0  0  0
 11 12  2  0  0  0  0
 12 16  1  0  0  0  0
 13 12  1  0  0  0  0
 13 14  1  0  0  0  0
 14 21  1  0  0  0  0
 14 15  2  0  0  0  0
 16 15  1  0  0  0  0
 16 17  2  0  0  0  0
 17 22  1  0  0  0  0
 19 11  1  0  0  0  0
 20 13  1  0  0  0  0
 23  1  1  0  0  0  0
 24 28  1  0  0  0  0
 24 23  1  0  0  0  0
 25 24  2  0  0  0  0
 26 25  1  0  0  0  0
 26 27  1  0  0  0  0
 27 31  1  0  0  0  0
 27 28  2  0  0  0  0
 29 25  1  0  0  0  0
 31 30  2  0  0  0  0
 32 31  1  0  0  0  0
 33 32  1  0  0  0  0
 34 32  2  0  0  0  0
 34 35  1  0  0  0  0
 35 36  2  0  0  0  0
 36 30  1  0  0  0  0
 37 35  1  0  0  0  0
 38 37  1  0  0  0  0
 39 38  1  0  0  0  0
 40 38  1  0  0  0  0
 40 34  1  0  0  0  0
M  END
>  <minimizedAffinity>
-3.22842145

>  <minimizedRMSD>
9.22293949

$$$$
