
 OpenBabel03252508323D

 34 37  0  0  1  0  0  0  0  0999 V2000
   44.6700   33.9930   42.1410 N   0  0  0  0  0  0  0  0  0  0  0  0
   44.5270   33.3650   40.8840 C   0  0  1  0  0  0  0  0  0  0  0  0
   43.6890   34.0810   39.8900 C   0  0  0  0  0  0  0  0  0  0  0  0
   42.6100   34.8320   40.3800 N   0  0  0  0  0  0  0  0  0  0  0  0
   42.7450   35.4350   41.6440 C   0  0  0  0  0  0  0  0  0  0  0  0
   44.1600   35.3290   42.1800 C   0  0  0  0  0  0  0  0  0  0  0  0
   44.0670   32.3510   41.0540 H   0  0  0  0  0  0  0  0  0  0  0  0
   43.3460   33.3740   39.1080 H   0  0  0  0  0  0  0  0  0  0  0  0
   44.3690   34.7970   39.3390 H   0  0  0  0  0  0  0  0  0  0  0  0
   41.7660   34.1870   40.4350 H   0  0  0  0  0  0  0  0  0  0  0  0
   42.0470   35.0990   42.4310 H   0  0  0  0  0  0  0  0  0  0  0  0
   42.5570   36.5320   41.5150 H   0  0  0  0  0  0  0  0  0  0  0  0
   44.8270   36.0040   41.5680 H   0  0  0  0  0  0  0  0  0  0  0  0
   44.1180   35.7990   43.1790 H   0  0  0  0  0  0  0  0  0  0  0  0
   46.0150   33.1910   38.8400 C   0  0  0  0  0  3  0  0  0  0  0  0
   45.8450   33.1060   40.2030 C   0  0  0  0  0  0  0  0  0  0  0  0
   47.0050   32.7420   40.8960 C   0  0  0  0  0  0  0  0  0  0  0  0
   46.9430   32.6550   41.9740 H   0  0  0  0  0  0  0  0  0  0  0  0
   48.2130   32.4870   40.2870 C   0  0  0  0  0  0  0  0  0  0  0  0
   48.3030   32.5930   38.9160 C   0  0  0  0  0  0  0  0  0  0  0  0
   47.1910   32.9500   38.1810 C   0  0  0  0  0  3  0  0  0  0  0  0
   49.6310   32.2820   38.5830 O   0  0  0  0  0  0  0  0  0  0  0  0
   50.2600   31.6660   39.6990 C   0  0  0  0  0  3  0  0  0  0  0  0
   50.2130   30.5690   39.5470 H   0  0  0  0  0  0  0  0  0  0  0  0
   49.4570   32.1200   40.7710 O   0  0  0  0  0  0  0  0  0  0  0  0
   46.1420   34.0110   44.0240 C   0  0  0  0  0  0  0  0  0  0  0  0
   45.2800   33.2800   43.1970 C   0  0  0  0  0  0  0  0  0  0  0  0
   45.1060   31.9390   43.4840 C   0  0  0  0  0  0  0  0  0  0  0  0
   45.7480   31.3480   44.5290 N   0  0  0  0  0  0  0  0  0  0  0  0
   46.5830   32.0960   45.3140 C   0  0  0  0  0  0  0  0  0  0  0  0
   46.7640   33.4060   45.0490 N   0  0  0  0  0  0  0  0  0  0  0  0
   46.4160   35.0520   43.9770 H   0  0  0  0  0  0  0  0  0  0  0  0
   44.4430   31.3690   42.8600 H   0  0  0  0  0  0  0  0  0  0  0  0
   47.0830   31.6060   46.1410 H   0  0  0  0  0  0  0  0  0  0  0  0
  1  6  1  0  0  0  0
  1 27  1  0  0  0  0
  2  7  1  1  0  0  0
  2  1  1  0  0  0  0
  3  4  1  0  0  0  0
  3  2  1  0  0  0  0
  4 10  1  0  0  0  0
  4  5  1  0  0  0  0
  5  6  1  0  0  0  0
  5 11  1  0  0  0  0
  6 14  1  0  0  0  0
  8  3  1  0  0  0  0
  9  3  1  0  0  0  0
 12  5  1  0  0  0  0
 13  6  1  0  0  0  0
 15 16  1  0  0  0  0
 16  2  1  0  0  0  0
 16 17  2  0  0  0  0
 17 18  1  0  0  0  0
 19 25  1  0  0  0  0
 19 17  1  0  0  0  0
 20 19  2  0  0  0  0
 21 15  2  0  0  0  0
 21 20  1  0  0  0  0
 22 20  1  0  0  0  0
 22 23  1  0  0  0  0
 23 25  1  0  0  0  0
 24 23  1  0  0  0  0
 26 31  1  0  0  0  0
 27 28  1  0  0  0  0
 27 26  2  0  0  0  0
 28 29  2  0  0  0  0
 29 30  1  0  0  0  0
 30 34  1  0  0  0  0
 31 30  2  0  0  0  0
 32 26  1  0  0  0  0
 33 28  1  0  0  0  0
M  END
>  <minimizedAffinity>
-4.11539316

>  <minimizedRMSD>
1.23453331

$$$$
