
     RDKit          3D

 45 49  0  0  0  0  0  0  0  0999 V2000
   47.1723   34.5483   41.9999 C   0  0  1  0  0  0  0  0  0  0  0  0
   48.2737   35.4238   41.6599 C   0  0  0  0  0  0  0  0  0  0  0  0
   48.5979   34.1234   42.3258 C   0  0  2  0  0  0  0  0  0  0  0  0
   45.5222   36.0459   43.1964 C   0  0  0  0  0  0  0  0  0  0  0  0
   46.2668   34.8403   43.1487 C   0  0  0  0  0  0  0  0  0  0  0  0
   46.1258   33.9537   44.1986 C   0  0  0  0  0  0  0  0  0  0  0  0
   45.2779   34.3016   45.2092 N   0  0  0  0  0  0  0  0  0  0  0  0
   44.5811   35.4525   45.2321 C   0  0  0  0  0  0  0  0  0  0  0  0
   44.6955   36.3406   44.2231 N   0  0  0  0  0  0  0  0  0  0  0  0
   49.3289   33.2050   41.5123 N   0  0  0  0  0  0  0  0  0  0  0  0
   50.6648   33.1261   42.0537 C   0  0  0  0  0  0  0  0  0  0  0  0
   51.3258   31.8060   41.7438 C   0  0  0  0  0  0  0  0  0  0  0  0
   50.6325   30.7566   42.5747 C   0  0  0  0  0  0  0  0  0  0  0  0
   49.1387   30.9776   42.5506 C   0  0  0  0  0  0  0  0  0  0  0  0
   48.7441   31.8776   41.4272 C   0  0  2  0  0  0  0  0  0  0  0  0
   46.7084   33.8338   41.2818 H   0  0  0  0  0  0  0  0  0  0  0  0
   48.4838   35.5275   40.5549 H   0  0  0  0  0  0  0  0  0  0  0  0
   48.4244   36.3812   42.1745 H   0  0  0  0  0  0  0  0  0  0  0  0
   48.8604   34.2096   43.4033 H   0  0  0  0  0  0  0  0  0  0  0  0
   45.6078   36.7658   42.3902 H   0  0  0  0  0  0  0  0  0  0  0  0
   46.6622   33.0232   44.2225 H   0  0  0  0  0  0  0  0  0  0  0  0
   43.9487   35.5750   46.1133 H   0  0  0  0  0  0  0  0  0  0  0  0
   51.2936   33.9975   41.7710 H   0  0  0  0  0  0  0  0  0  0  0  0
   50.5833   33.1620   43.1687 H   0  0  0  0  0  0  0  0  0  0  0  0
   51.2944   31.6062   40.6744 H   0  0  0  0  0  0  0  0  0  0  0  0
   52.3954   31.9268   42.0177 H   0  0  0  0  0  0  0  0  0  0  0  0
   51.0277   30.7085   43.6100 H   0  0  0  0  0  0  0  0  0  0  0  0
   50.8412   29.7701   42.1317 H   0  0  0  0  0  0  0  0  0  0  0  0
   48.5738   30.0359   42.4355 H   0  0  0  0  0  0  0  0  0  0  0  0
   48.8606   31.4943   43.4860 H   0  0  0  0  0  0  0  0  0  0  0  0
   47.6402   32.0805   41.6099 H   0  0  0  0  0  0  0  0  0  0  0  0
   49.9573   30.5162   39.9521 C   0  0  0  0  0  0  0  0  0  0  0  0
   48.8081   31.3090   40.0814 C   0  0  0  0  0  0  0  0  0  0  0  0
   47.9953   31.4163   38.9946 C   0  0  0  0  0  0  0  0  0  0  0  0
   47.1441   32.0394   39.1661 H   0  0  0  0  0  0  0  0  0  0  0  0
   48.2903   30.7708   37.8144 C   0  0  0  0  0  0  0  0  0  0  0  0
   49.4042   29.9797   37.6313 C   0  0  0  0  0  0  0  0  0  0  0  0
   50.2346   29.8702   38.7408 C   0  0  0  0  0  0  0  0  0  0  0  0
   49.4317   29.4655   36.3429 O   0  0  0  0  0  0  0  0  0  0  0  0
   48.5112   30.2222   35.5955 C   0  0  2  0  0  0  0  0  0  0  0  0
   47.9196   29.5349   34.9666 H   0  0  0  0  0  0  0  0  0  0  0  0
   47.6291   30.7287   36.5951 O   0  0  0  0  0  0  0  0  0  0  0  0
   50.7258   30.3126   40.7137 H   0  0  0  0  0  0  0  0  0  0  0  0
   51.1202   29.2444   38.6025 H   0  0  0  0  0  0  0  0  0  0  0  0
   48.9896   31.0410   35.0226 H   0  0  0  0  0  0  0  0  0  0  0  0
  1  3  1  0
  1  5  1  0
  2  1  1  0
  2  3  1  0
  4  9  2  0
  5  4  1  0
  5  6  2  0
  6  7  1  0
  8  7  2  0
  9  8  1  0
 10 11  1  0
 10  3  1  0
 12 11  1  0
 12 13  1  0
 13 14  1  0
 15 10  1  0
 15 14  1  0
  1 16  1  6
  2 17  1  0
  2 18  1  0
  3 19  1  1
  4 20  1  0
  6 21  1  0
  8 22  1  0
 11 23  1  0
 11 24  1  0
 12 25  1  0
 12 26  1  0
 13 27  1  0
 13 28  1  0
 14 29  1  0
 14 30  1  0
 15 31  1  1
 32 33  2  0
 33 34  1  0
 34 35  1  0
 34 36  2  0
 36 37  1  0
 37 38  2  0
 37 39  1  0
 39 40  1  0
 40 41  1  6
 40 42  1  0
 38 32  1  0
 42 36  1  0
 32 43  1  0
 38 44  1  0
 40 45  1  0
 15 33  1  0
M  ISO  8  16  13  17  13  18  13  19  13  20  14  21  14  22  14  23  13
M  ISO  8  24  13  25  13  26  13  27  13  28  13  29  13  30  13  31  13
M  ISO  2  35  16  41   8
M  END
>  <DihAtoms>  (1) 
9,14,32,31

>  <DihDeg>  (1) 
-41.10610894706976

$$$$
