
     RDKit          3D

 43 47  0  0  0  0  0  0  0  0999 V2000
   46.3230   32.1368   44.5551 C   0  0  1  0  0  0  0  0  0  0  0  0
   46.4482   31.3574   43.4005 C   0  0  0  0  0  0  0  0  0  0  0  0
   47.6806   32.1303   43.9687 C   0  0  1  0  0  0  0  0  0  0  0  0
   45.0634   33.9695   43.1983 C   0  0  0  0  0  0  0  0  0  0  0  0
   45.5563   33.4665   44.4450 C   0  0  0  0  0  0  0  0  0  0  0  0
   45.3406   34.2345   45.5698 C   0  0  0  0  0  0  0  0  0  0  0  0
   44.6864   35.4076   45.4495 N   0  0  0  0  0  0  0  0  0  0  0  0
   44.2250   35.8732   44.2595 C   0  0  0  0  0  0  0  0  0  0  0  0
   44.4262   35.1194   43.0997 N   0  0  0  0  0  0  0  0  0  0  0  0
   48.0376   33.2456   43.1686 N   0  0  0  0  0  0  0  0  0  0  0  0
   49.1850   33.2856   42.3876 C   0  0  0  0  0  0  0  0  0  0  0  0
   50.3589   32.8974   42.6262 O   0  0  0  0  0  0  0  0  0  0  0  0
   49.1076   33.8771   40.9891 C   0  0  2  0  0  0  0  0  0  0  0  0
   48.6121   35.3684   40.8958 C   0  0  0  0  0  0  0  0  0  0  0  0
   47.8221   34.2073   40.3677 C   0  0  1  0  0  0  0  0  0  0  0  0
   47.7171   34.0656   38.8679 C   0  0  0  0  0  0  0  0  0  0  0  0
   48.4628   34.7228   38.1480 O   0  0  0  0  0  0  0  0  0  0  0  0
   46.1902   31.7088   45.5785 H   0  0  0  0  0  0  0  0  0  0  0  0
   46.1521   31.6033   42.3668 H   0  0  0  0  0  0  0  0  0  0  0  0
   46.5027   30.2308   43.5185 H   0  0  0  0  0  0  0  0  0  0  0  0
   48.4552   31.4341   44.3511 H   0  0  0  0  0  0  0  0  0  0  0  0
   45.2136   33.3626   42.3268 H   0  0  0  0  0  0  0  0  0  0  0  0
   45.7012   33.8816   46.5334 H   0  0  0  0  0  0  0  0  0  0  0  0
   43.7076   36.8225   44.2267 H   0  0  0  0  0  0  0  0  0  0  0  0
   47.4849   34.1275   43.0931 H   0  0  0  0  0  0  0  0  0  0  0  0
   49.9940   33.7507   40.3353 H   0  0  0  0  0  0  0  0  0  0  0  0
   48.3114   35.7629   41.8875 H   0  0  0  0  0  0  0  0  0  0  0  0
   49.0708   36.0119   40.1508 H   0  0  0  0  0  0  0  0  0  0  0  0
   46.9657   33.7419   40.9033 H   0  0  0  0  0  0  0  0  0  0  0  0
   46.4931   31.8690   38.6310 C   0  0  0  0  0  0  0  0  0  0  0  0
   46.7521   33.1672   38.2457 C   0  0  0  0  0  0  0  0  0  0  0  0
   45.9997   33.5961   37.1724 C   0  0  0  0  0  0  0  0  0  0  0  0
   46.0952   34.5959   36.7583 H   0  0  0  0  0  0  0  0  0  0  0  0
   45.0655   32.8135   36.5261 C   0  0  0  0  0  0  0  0  0  0  0  0
   44.8425   31.5221   36.9486 C   0  0  0  0  0  0  0  0  0  0  0  0
   45.5690   31.0543   38.0130 C   0  0  0  0  0  0  0  0  0  0  0  0
   43.8596   30.9699   36.1272 O   0  0  0  0  0  0  0  0  0  0  0  0
   43.8430   31.7258   34.9083 C   0  0  1  0  0  0  0  0  0  0  0  0
   44.7201   31.4614   34.2592 H   0  0  0  0  0  0  0  0  0  0  0  0
   44.1986   33.0086   35.4455 O   0  0  0  0  0  0  0  0  0  0  0  0
   47.0262   31.4531   39.4487 H   0  0  0  0  0  0  0  0  0  0  0  0
   45.4019   30.0405   38.3536 H   0  0  0  0  0  0  0  0  0  0  0  0
   42.8835   31.7157   34.3985 H   0  0  0  0  0  0  0  0  0  0  0  0
  2  3  1  0
  2  1  1  0
  3  1  1  0
  4  5  2  0
  5  1  1  0
  5  6  1  0
  7  6  2  0
  8  7  1  0
  9  4  1  0
  9  8  2  0
 10  3  1  0
 11 12  2  0
 11 10  1  0
 13 11  1  0
 14 13  1  0
 15 14  1  0
 15 13  1  0
 16 15  1  0
 17 16  2  0
  1 18  1  1
  2 19  1  0
  2 20  1  0
  3 21  1  1
  4 22  1  0
  6 23  1  0
  8 24  1  0
 10 25  1  0
 13 26  1  6
 14 27  1  0
 14 28  1  0
 15 29  1  1
 30 31  2  0
 31 32  1  0
 32 33  1  0
 32 34  2  0
 34 35  1  0
 35 36  2  0
 35 37  1  0
 37 38  1  0
 38 39  1  6
 38 40  1  0
 36 30  1  0
 40 34  1  0
 30 41  1  0
 36 42  1  0
 38 43  1  0
 16 31  1  0
M  ISO  8  18  13  19  13  20  13  21  13  22  14  23  14  24  14  26  13
M  ISO  5  27  13  28  13  29  13  33  16  39   8
M  END
>  <DihAtoms>  (1) 
14,15,30,29

>  <DihDeg>  (1) 
-0.23253873188531546

$$$$
