
 OpenBabel03252508323D

 34 37  0  0  1  0  0  0  0  0999 V2000
   44.1170   34.1850   42.0280 N   0  0  0  0  0  0  0  0  0  0  0  0
   44.0810   33.6210   40.7330 C   0  0  1  0  0  0  0  0  0  0  0  0
   43.1410   34.2520   39.7740 C   0  0  0  0  0  0  0  0  0  0  0  0
   41.9530   34.7860   40.2950 N   0  0  0  0  0  0  0  0  0  0  0  0
   41.9850   35.3250   41.5940 C   0  0  0  0  0  0  0  0  0  0  0  0
   43.3960   35.4160   42.1400 C   0  0  0  0  0  0  0  0  0  0  0  0
   43.7900   32.5370   40.8360 H   0  0  0  0  0  0  0  0  0  0  0  0
   42.9190   33.5480   38.9460 H   0  0  0  0  0  0  0  0  0  0  0  0
   43.6960   35.1010   39.2760 H   0  0  0  0  0  0  0  0  0  0  0  0
   41.2250   34.0110   40.3000 H   0  0  0  0  0  0  0  0  0  0  0  0
   41.3480   34.8330   42.3500 H   0  0  0  0  0  0  0  0  0  0  0  0
   41.6220   36.3830   41.5290 H   0  0  0  0  0  0  0  0  0  0  0  0
   43.9480   36.2260   41.5780 H   0  0  0  0  0  0  0  0  0  0  0  0
   43.2770   35.8110   43.1650 H   0  0  0  0  0  0  0  0  0  0  0  0
   46.5340   34.2360   40.5880 C   0  0  0  0  0  3  0  0  0  0  0  0
   45.4250   33.6200   40.0550 C   0  0  0  0  0  0  0  0  0  0  0  0
   45.6590   33.0070   38.8190 C   0  0  0  0  0  0  0  0  0  0  0  0
   44.8270   32.5020   38.3420 H   0  0  0  0  0  0  0  0  0  0  0  0
   46.8780   33.0090   38.1800 C   0  0  0  0  0  0  0  0  0  0  0  0
   47.9410   33.6480   38.7790 C   0  0  0  0  0  0  0  0  0  0  0  0
   47.7700   34.2710   39.9980 C   0  0  0  0  0  3  0  0  0  0  0  0
   49.0350   33.4900   37.9120 O   0  0  0  0  0  0  0  0  0  0  0  0
   48.5650   33.0490   36.6450 C   0  0  0  0  0  3  0  0  0  0  0  0
   48.4790   33.9420   35.9900 H   0  0  0  0  0  0  0  0  0  0  0  0
   47.3170   32.4760   36.9810 O   0  0  0  0  0  0  0  0  0  0  0  0
   45.4370   34.3270   44.0160 C   0  0  0  0  0  0  0  0  0  0  0  0
   44.8310   33.5160   43.0470 C   0  0  0  0  0  0  0  0  0  0  0  0
   44.9870   32.1480   43.1710 C   0  0  0  0  0  0  0  0  0  0  0  0
   45.7020   31.6070   44.1950 N   0  0  0  0  0  0  0  0  0  0  0  0
   46.2790   32.4320   45.1220 C   0  0  0  0  0  0  0  0  0  0  0  0
   46.1370   33.7690   45.0160 N   0  0  0  0  0  0  0  0  0  0  0  0
   45.4400   35.4010   44.1030 H   0  0  0  0  0  0  0  0  0  0  0  0
   44.5230   31.5170   42.4370 H   0  0  0  0  0  0  0  0  0  0  0  0
   46.8430   31.9800   45.9290 H   0  0  0  0  0  0  0  0  0  0  0  0
  1  6  1  0  0  0  0
  1 27  1  0  0  0  0
  2  7  1  1  0  0  0
  2  1  1  0  0  0  0
  3  4  1  0  0  0  0
  3  2  1  0  0  0  0
  4 10  1  0  0  0  0
  4  5  1  0  0  0  0
  5  6  1  0  0  0  0
  5 11  1  0  0  0  0
  6 14  1  0  0  0  0
  8  3  1  0  0  0  0
  9  3  1  0  0  0  0
 12  5  1  0  0  0  0
 13  6  1  0  0  0  0
 16 15  1  0  0  0  0
 16  2  1  0  0  0  0
 17 16  2  0  0  0  0
 18 17  1  0  0  0  0
 19 20  2  0  0  0  0
 19 17  1  0  0  0  0
 20 21  1  0  0  0  0
 21 15  2  0  0  0  0
 22 20  1  0  0  0  0
 23 25  1  0  0  0  0
 23 22  1  0  0  0  0
 24 23  1  0  0  0  0
 25 19  1  0  0  0  0
 26 32  1  0  0  0  0
 26 31  1  0  0  0  0
 27 28  1  0  0  0  0
 27 26  2  0  0  0  0
 28 29  2  0  0  0  0
 29 30  1  0  0  0  0
 30 34  1  0  0  0  0
 31 30  2  0  0  0  0
 33 28  1  0  0  0  0
M  END
>  <minimizedAffinity>
-4.76230001

>  <minimizedRMSD>
1.27578282

$$$$
