
 OpenBabel03242520413D

 41 45  0  0  1  0  0  0  0  0999 V2000
   45.8720   33.5280   45.7760 C   0  0  0  0  0  0  0  0  0  0  0  0
   46.6640   33.6620   44.6050 C   0  0  0  0  0  0  0  0  0  0  0  0
   47.3180   32.4970   44.1040 C   0  0  0  0  0  0  0  0  0  0  0  0
   47.1550   31.3100   44.7640 N   0  0  0  0  0  0  0  0  0  0  0  0
   46.3850   31.2450   45.8790 C   0  0  0  0  0  0  0  0  0  0  0  0
   45.7570   32.3410   46.3720 N   0  0  0  0  0  0  0  0  0  0  0  0
   46.2740   29.9930   46.4940 N   0  0  0  0  0  0  0  0  0  0  0  0
   47.4300   29.3110   46.9730 C   0  0  2  0  0  0  0  0  0  0  0  0
   47.2090   27.8900   47.3570 C   0  0  0  0  0  0  0  0  0  0  0  0
   45.9240   27.5470   47.8360 N   0  0  0  0  0  0  0  0  0  0  0  0
   45.0260   28.6410   47.9630 C   0  0  0  0  0  0  0  0  0  0  0  0
   44.9750   29.3780   46.6490 C   0  0  0  0  0  0  0  0  0  0  0  0
   45.4160   34.4420   46.0890 H   0  0  0  0  0  0  0  0  0  0  0  0
   46.8400   34.5450   44.0350 H   0  0  0  0  0  0  0  0  0  0  0  0
   47.9320   32.5480   43.2150 H   0  0  0  0  0  0  0  0  0  0  0  0
   48.1300   29.2420   46.0820 H   0  0  0  0  0  0  0  0  0  0  0  0
   47.9480   27.6580   48.1760 H   0  0  0  0  0  0  0  0  0  0  0  0
   47.4650   27.1720   46.5510 H   0  0  0  0  0  0  0  0  0  0  0  0
   45.9070   26.8510   48.6110 H   0  0  0  0  0  0  0  0  0  0  0  0
   43.9980   28.1870   48.1000 H   0  0  0  0  0  0  0  0  0  0  0  0
   45.1810   29.2880   48.8260 H   0  0  0  0  0  0  0  0  0  0  0  0
   44.8910   28.6220   45.8610 H   0  0  0  0  0  0  0  0  0  0  0  0
   44.1700   30.1420   46.6060 H   0  0  0  0  0  0  0  0  0  0  0  0
   48.1440   30.0930   48.0180 C   0  0  0  0  0  0  0  0  0  0  0  0
   47.7080   30.8900   49.0480 C   0  0  0  0  0  0  0  0  0  0  0  0
   48.7240   31.3920   49.7550 N   0  0  0  0  0  0  0  0  0  0  0  0
   49.8250   30.9170   49.1800 C   0  0  0  0  0  0  0  0  0  0  0  0
   49.4810   30.1390   48.1390 N   0  0  0  0  0  0  0  0  0  0  0  0
   46.6670   31.0880   49.2580 H   0  0  0  0  0  0  0  0  0  0  0  0
   48.7020   32.0230   50.5840 H   0  0  0  0  0  0  0  0  0  0  0  0
   51.7040   32.0160   50.4630 C   0  0  0  0  0  3  0  0  0  0  0  0
   51.2400   31.1240   49.5180 C   0  0  0  0  0  0  0  0  0  0  0  0
   52.1670   30.3660   48.8330 C   0  0  0  0  0  0  0  0  0  0  0  0
   51.8400   29.6590   48.0860 H   0  0  0  0  0  0  0  0  0  0  0  0
   53.5250   30.4750   49.0650 C   0  0  0  0  0  0  0  0  0  0  0  0
   53.9970   31.3750   50.0190 C   0  0  0  0  0  0  0  0  0  0  0  0
   53.0610   32.1270   50.6980 C   0  0  0  0  0  3  0  0  0  0  0  0
   55.4000   31.2950   50.0640 O   0  0  0  0  0  0  0  0  0  0  0  0
   55.7450   30.7510   48.7830 C   0  0  0  0  0  3  0  0  0  0  0  0
   56.7170   30.2740   48.8950 H   0  0  0  0  0  0  0  0  0  0  0  0
   54.6680   29.8630   48.5460 O   0  0  0  0  0  0  0  0  0  0  0  0
  1 13  1  0  0  0  0
  1  6  1  0  0  0  0
  2  1  2  0  0  0  0
  3  2  1  0  0  0  0
  3  4  2  0  0  0  0
  4  5  1  0  0  0  0
  5  6  2  0  0  0  0
  5  7  1  0  0  0  0
  7 12  1  0  0  0  0
  7  8  1  0  0  0  0
  8 16  1  6  0  0  0
  8  9  1  0  0  0  0
  8 24  1  0  0  0  0
  9 10  1  0  0  0  0
  9 17  1  0  0  0  0
 10 11  1  0  0  0  0
 10 19  1  0  0  0  0
 11 20  1  0  0  0  0
 11 21  1  0  0  0  0
 12 11  1  0  0  0  0
 14  2  1  0  0  0  0
 15  3  1  0  0  0  0
 18  9  1  0  0  0  0
 22 12  1  0  0  0  0
 23 12  1  0  0  0  0
 24 28  1  0  0  0  0
 24 25  2  0  0  0  0
 25 29  1  0  0  0  0
 25 26  1  0  0  0  0
 26 30  1  0  0  0  0
 27 32  1  0  0  0  0
 27 26  1  0  0  0  0
 28 27  2  0  0  0  0
 31 37  1  0  0  0  0
 32 31  2  0  0  0  0
 33 35  2  0  0  0  0
 33 32  1  0  0  0  0
 34 33  1  0  0  0  0
 35 36  1  0  0  0  0
 36 38  1  0  0  0  0
 36 37  2  0  0  0  0
 39 40  1  0  0  0  0
 39 38  1  0  0  0  0
 41 39  1  0  0  0  0
 41 35  1  0  0  0  0
M  END
>  <minimizedAffinity>
-5.06938457

>  <minimizedRMSD>
0.220458046

$$$$
