
 OpenBabel03252506413D

 42 46  0  0  1  0  0  0  0  0999 V2000
   49.4270   33.4170   41.3240 N   0  0  1  0  0  0  0  0  0  0  0  0
   50.6730   33.0740   41.9680 C   0  0  0  0  0  0  0  0  0  0  0  0
   51.2330   31.7690   41.4610 C   0  0  0  0  0  0  0  0  0  0  0  0
   50.3440   30.6710   41.9870 C   0  0  0  0  0  0  0  0  0  0  0  0
   48.8930   31.0720   41.8600 C   0  0  0  0  0  0  0  0  0  0  0  0
   48.7290   32.2120   40.9110 C   0  0  2  0  0  0  0  0  0  0  0  0
   51.4150   33.9020   41.9340 H   0  0  0  0  0  0  0  0  0  0  0  0
   50.4600   32.9040   43.0530 H   0  0  0  0  0  0  0  0  0  0  0  0
   51.3120   31.7840   40.3750 H   0  0  0  0  0  0  0  0  0  0  0  0
   52.2670   31.7040   41.8590 H   0  0  0  0  0  0  0  0  0  0  0  0
   50.6030   30.3770   43.0240 H   0  0  0  0  0  0  0  0  0  0  0  0
   50.5060   29.7700   41.3740 H   0  0  0  0  0  0  0  0  0  0  0  0
   48.2560   30.2450   41.4980 H   0  0  0  0  0  0  0  0  0  0  0  0
   48.5560   31.4280   42.8490 H   0  0  0  0  0  0  0  0  0  0  0  0
   47.6360   32.5090   41.0210 H   0  0  0  0  0  0  0  0  0  0  0  0
   48.7950   33.0860   38.7360 C   0  0  0  0  0  3  0  0  0  0  0  0
   48.8990   31.9100   39.4900 C   0  0  0  0  0  0  0  0  0  0  0  0
   49.1220   30.7490   38.8150 C   0  0  0  0  0  0  0  0  0  0  0  0
   49.1840   29.8950   39.4540 H   0  0  0  0  0  0  0  0  0  0  0  0
   49.2410   30.7330   37.4420 C   0  0  0  0  0  0  0  0  0  0  0  0
   49.1480   31.8580   36.6510 C   0  0  0  0  0  0  0  0  0  0  0  0
   48.9200   33.0430   37.3420 C   0  0  0  0  0  3  0  0  0  0  0  0
   49.3080   31.5290   35.3130 O   0  0  0  0  0  0  0  0  0  0  0  0
   49.1500   30.1340   35.2270 C   0  0  0  0  0  3  0  0  0  0  0  0
   49.9350   29.7320   34.5630 H   0  0  0  0  0  0  0  0  0  0  0  0
   49.4640   29.6960   36.5470 O   0  0  0  0  0  0  0  0  0  0  0  0
   47.2990   34.7620   41.9210 C   0  0  1  0  0  0  0  0  0  0  0  0
   48.4410   35.6340   41.7410 C   0  0  0  0  0  0  0  0  0  0  0  0
   48.6970   34.2430   42.2320 C   0  0  2  0  0  0  0  0  0  0  0  0
   46.8390   34.1710   41.0970 H   0  0  0  0  0  0  0  0  0  0  0  0
   48.6960   35.8790   40.6680 H   0  0  0  0  0  0  0  0  0  0  0  0
   48.6030   36.5060   42.3870 H   0  0  0  0  0  0  0  0  0  0  0  0
   48.9210   34.1730   43.3190 H   0  0  0  0  0  0  0  0  0  0  0  0
   45.5240   36.0700   43.1610 C   0  0  0  0  0  0  0  0  0  0  0  0
   46.3620   34.9290   43.0690 C   0  0  0  0  0  0  0  0  0  0  0  0
   46.2790   33.9870   44.0750 C   0  0  0  0  0  0  0  0  0  0  0  0
   45.3960   34.2200   45.0880 N   0  0  0  0  0  0  0  0  0  0  0  0
   44.6110   35.3120   45.1540 C   0  0  0  0  0  0  0  0  0  0  0  0
   44.6670   36.2520   44.1880 N   0  0  0  0  0  0  0  0  0  0  0  0
   45.5620   36.8320   42.3900 H   0  0  0  0  0  0  0  0  0  0  0  0
   46.8860   33.1000   44.0640 H   0  0  0  0  0  0  0  0  0  0  0  0
   43.9620   35.3430   46.0300 H   0  0  0  0  0  0  0  0  0  0  0  0
  1  2  1  1  0  0  0
  1 29  1  0  0  0  0
  2  8  1  0  0  0  0
  3 10  1  0  0  0  0
  3  2  1  0  0  0  0
  3  4  1  0  0  0  0
  4 11  1  0  0  0  0
  5  4  1  0  0  0  0
  5 14  1  0  0  0  0
  6 15  1  1  0  0  0
  6  1  1  0  0  0  0
  6  5  1  0  0  0  0
  7  2  1  0  0  0  0
  9  3  1  0  0  0  0
 12  4  1  0  0  0  0
 13  5  1  0  0  0  0
 16 17  1  0  0  0  0
 17  6  1  0  0  0  0
 18 19  1  0  0  0  0
 18 17  2  0  0  0  0
 20 18  1  0  0  0  0
 21 22  1  0  0  0  0
 21 20  2  0  0  0  0
 22 16  2  0  0  0  0
 23 21  1  0  0  0  0
 24 23  1  0  0  0  0
 24 26  1  0  0  0  0
 25 24  1  0  0  0  0
 26 20  1  0  0  0  0
 27 30  1  6  0  0  0
 27 29  1  0  0  0  0
 27 35  1  0  0  0  0
 28 27  1  0  0  0  0
 28 29  1  0  0  0  0
 28 32  1  0  0  0  0
 29 33  1  1  0  0  0
 31 28  1  0  0  0  0
 34 39  1  0  0  0  0
 35 34  2  0  0  0  0
 35 36  1  0  0  0  0
 36 37  2  0  0  0  0
 37 38  1  0  0  0  0
 38 42  1  0  0  0  0
 39 38  2  0  0  0  0
 40 34  1  0  0  0  0
 41 36  1  0  0  0  0
M  END
>  <minimizedAffinity>
-5.27976942

>  <minimizedRMSD>
1.00493801

$$$$
