
 OpenBabel03252508513D

 30 33  0  0  0  0  0  0  0  0999 V2000
   45.9630   34.2000   41.0440 C   0  0  0  0  0  0  0  0  0  0  0  0
   46.5400   34.7280   42.1930 C   0  0  0  0  0  0  0  0  0  0  0  0
   47.8950   35.0660   42.1060 C   0  0  0  0  0  0  0  0  0  0  0  0
   48.5550   34.8590   40.9220 N   0  0  0  0  0  0  0  0  0  0  0  0
   47.9500   34.3500   39.8570 C   0  0  0  0  0  0  0  0  0  0  0  0
   46.6520   34.0140   39.8960 N   0  0  0  0  0  0  0  0  0  0  0  0
   48.3710   35.4780   42.9840 H   0  0  0  0  0  0  0  0  0  0  0  0
   48.4780   34.1920   38.9300 H   0  0  0  0  0  0  0  0  0  0  0  0
   45.7500   34.9030   43.3930 C   0  0  0  0  0  0  0  0  0  0  0  0
   45.1120   36.0780   43.7110 C   0  0  0  0  0  0  0  0  0  0  0  0
   44.4950   35.7980   44.9120 C   0  0  0  0  0  0  0  0  0  0  0  0
   44.7440   34.5250   45.3000 N   0  0  0  0  0  0  0  0  0  0  0  0
   45.5050   34.0050   44.3640 N   0  0  0  0  0  0  0  0  0  0  0  0
   45.0520   37.0320   43.2090 H   0  0  0  0  0  0  0  0  0  0  0  0
   43.8670   36.4350   45.5520 H   0  0  0  0  0  0  0  0  0  0  0  0
   44.4460   33.9820   46.1360 H   0  0  0  0  0  0  0  0  0  0  0  0
   44.6230   33.8530   41.0850 O   0  0  0  0  0  0  0  0  0  0  0  0
   43.5660   34.5830   40.6220 C   0  0  0  0  0  0  0  0  0  0  0  0
   43.3470   35.8360   40.8090 O   0  0  0  0  0  0  0  0  0  0  0  0
   42.6260   32.8460   39.0320 C   0  0  0  0  0  3  0  0  0  0  0  0
   42.4670   33.9940   39.7990 C   0  0  0  0  0  0  0  0  0  0  0  0
   41.2000   34.5180   39.7140 C   0  0  0  0  0  0  0  0  0  0  0  0
   40.9750   35.4180   40.2790 H   0  0  0  0  0  0  0  0  0  0  0  0
   40.1860   33.9890   38.9640 C   0  0  0  0  0  0  0  0  0  0  0  0
   40.4350   32.8500   38.2350 C   0  0  0  0  0  0  0  0  0  0  0  0
   41.6670   32.2460   38.2510 C   0  0  0  0  0  3  0  0  0  0  0  0
   39.2590   32.5360   37.5810 O   0  0  0  0  0  0  0  0  0  0  0  0
   38.2460   33.4910   37.8600 C   0  0  0  0  0  3  0  0  0  0  0  0
   37.3730   33.0550   38.3860 H   0  0  0  0  0  0  0  0  0  0  0  0
   38.8680   34.3790   38.7640 O   0  0  0  0  0  0  0  0  0  0  0  0
  1 17  1  0  0  0  0
  1  2  1  0  0  0  0
  2  9  1  0  0  0  0
  3  2  2  0  0  0  0
  3  7  1  0  0  0  0
  4  3  1  0  0  0  0
  5  6  1  0  0  0  0
  5  4  2  0  0  0  0
  6  1  2  0  0  0  0
  8  5  1  0  0  0  0
  9 10  1  0  0  0  0
  9 13  2  0  0  0  0
 10 11  2  0  0  0  0
 11 12  1  0  0  0  0
 11 15  1  0  0  0  0
 12 16  1  0  0  0  0
 13 12  1  0  0  0  0
 14 10  1  0  0  0  0
 18 19  2  0  0  0  0
 18 17  1  0  0  0  0
 20 21  1  0  0  0  0
 21 18  1  0  0  0  0
 22 21  2  0  0  0  0
 22 23  1  0  0  0  0
 24 22  1  0  0  0  0
 25 26  1  0  0  0  0
 25 24  2  0  0  0  0
 26 20  2  0  0  0  0
 27 28  1  0  0  0  0
 27 25  1  0  0  0  0
 28 29  1  0  0  0  0
 28 30  1  0  0  0  0
 30 24  1  0  0  0  0
M  END
>  <minimizedAffinity>
-5.91306353

>  <minimizedRMSD>
0.892758727

$$$$
