
 OpenBabel03252508513D

 30 33  0  0  0  0  0  0  0  0999 V2000
   45.8870   34.2120   41.0610 C   0  0  0  0  0  0  0  0  0  0  0  0
   46.4960   34.6850   42.2170 C   0  0  0  0  0  0  0  0  0  0  0  0
   47.8660   34.9530   42.1300 C   0  0  0  0  0  0  0  0  0  0  0  0
   48.5090   34.7380   40.9380 N   0  0  0  0  0  0  0  0  0  0  0  0
   47.8730   34.2840   39.8650 C   0  0  0  0  0  0  0  0  0  0  0  0
   46.5590   34.0150   39.9060 N   0  0  0  0  0  0  0  0  0  0  0  0
   48.3670   35.3210   43.0140 H   0  0  0  0  0  0  0  0  0  0  0  0
   48.3880   34.1180   38.9320 H   0  0  0  0  0  0  0  0  0  0  0  0
   45.7210   34.8750   43.4250 C   0  0  0  0  0  0  0  0  0  0  0  0
   45.1290   36.0690   43.7610 C   0  0  0  0  0  0  0  0  0  0  0  0
   44.5110   35.7980   44.9640 C   0  0  0  0  0  0  0  0  0  0  0  0
   44.7160   34.5120   45.3360 N   0  0  0  0  0  0  0  0  0  0  0  0
   45.4500   33.9750   44.3880 N   0  0  0  0  0  0  0  0  0  0  0  0
   45.1010   37.0300   43.2710 H   0  0  0  0  0  0  0  0  0  0  0  0
   43.9120   36.4500   45.6160 H   0  0  0  0  0  0  0  0  0  0  0  0
   44.4040   33.9710   46.1680 H   0  0  0  0  0  0  0  0  0  0  0  0
   44.5310   33.9350   41.1020 O   0  0  0  0  0  0  0  0  0  0  0  0
   43.5070   34.7520   40.7120 C   0  0  0  0  0  0  0  0  0  0  0  0
   43.3730   36.0040   40.9670 O   0  0  0  0  0  0  0  0  0  0  0  0
   41.7650   35.0340   38.8900 C   0  0  0  0  0  3  0  0  0  0  0  0
   42.3490   34.2740   39.8980 C   0  0  0  0  0  0  0  0  0  0  0  0
   41.7460   33.0500   40.0590 C   0  0  0  0  0  0  0  0  0  0  0  0
   42.1310   32.3810   40.8220 H   0  0  0  0  0  0  0  0  0  0  0  0
   40.6850   32.6010   39.3200 C   0  0  0  0  0  0  0  0  0  0  0  0
   40.1720   33.4220   38.3430 C   0  0  0  0  0  0  0  0  0  0  0  0
   40.7010   34.6640   38.1030 C   0  0  0  0  0  3  0  0  0  0  0  0
   39.1250   32.7340   37.7620 O   0  0  0  0  0  0  0  0  0  0  0  0
   38.9340   31.4710   38.3820 C   0  0  0  0  0  3  0  0  0  0  0  0
   39.0940   30.6200   37.6890 H   0  0  0  0  0  0  0  0  0  0  0  0
   39.9630   31.4160   39.3460 O   0  0  0  0  0  0  0  0  0  0  0  0
  1 17  1  0  0  0  0
  1  2  1  0  0  0  0
  2  9  1  0  0  0  0
  3  2  2  0  0  0  0
  3  7  1  0  0  0  0
  4  3  1  0  0  0  0
  5  6  1  0  0  0  0
  5  4  2  0  0  0  0
  6  1  2  0  0  0  0
  8  5  1  0  0  0  0
  9 10  1  0  0  0  0
  9 13  2  0  0  0  0
 10 11  2  0  0  0  0
 11 12  1  0  0  0  0
 11 15  1  0  0  0  0
 12 16  1  0  0  0  0
 13 12  1  0  0  0  0
 14 10  1  0  0  0  0
 18 19  2  0  0  0  0
 18 17  1  0  0  0  0
 20 21  1  0  0  0  0
 21 22  2  0  0  0  0
 21 18  1  0  0  0  0
 22 23  1  0  0  0  0
 24 30  1  0  0  0  0
 24 22  1  0  0  0  0
 25 24  2  0  0  0  0
 26 25  1  0  0  0  0
 26 20  2  0  0  0  0
 27 25  1  0  0  0  0
 27 28  1  0  0  0  0
 28 30  1  0  0  0  0
 29 28  1  0  0  0  0
M  END
>  <minimizedAffinity>
-5.85475445

>  <minimizedRMSD>
1.29535306

$$$$
