
 OpenBabel03242523023D

 34 37  0  0  0  0  0  0  0  0999 V2000
   45.1760   36.0300   43.4930 C   0  0  0  0  0  0  0  0  0  0  0  0
   45.9720   34.9200   43.2540 C   0  0  0  0  0  0  0  0  0  0  0  0
   46.0550   33.9890   44.2550 C   0  0  0  0  0  0  0  0  0  0  0  0
   45.3760   34.1590   45.4290 N   0  0  0  0  0  0  0  0  0  0  0  0
   44.6060   35.2630   45.6200 C   0  0  0  0  0  0  0  0  0  0  0  0
   44.5150   36.1770   44.6620 N   0  0  0  0  0  0  0  0  0  0  0  0
   44.9900   36.8670   42.8430 H   0  0  0  0  0  0  0  0  0  0  0  0
   44.0500   35.4270   46.5500 H   0  0  0  0  0  0  0  0  0  0  0  0
   46.5910   34.7940   42.0060 N   0  0  0  0  0  0  0  0  0  0  0  0
   47.8930   35.2420   41.7650 C   0  0  0  0  0  0  0  0  0  0  0  0
   48.4410   34.9070   40.3990 C   0  0  0  0  0  0  0  0  0  0  0  0
   48.1420   33.6200   39.9180 N   0  0  0  0  0  0  0  0  0  0  0  0
   46.8400   33.1610   40.1690 C   0  0  0  0  0  0  0  0  0  0  0  0
   45.9760   34.2120   40.8430 C   0  0  0  0  0  0  0  0  0  0  0  0
   48.5870   34.7300   42.4390 H   0  0  0  0  0  0  0  0  0  0  0  0
   47.9890   36.3670   41.7300 H   0  0  0  0  0  0  0  0  0  0  0  0
   49.5310   35.0960   40.3630 H   0  0  0  0  0  0  0  0  0  0  0  0
   47.9920   35.6380   39.6630 H   0  0  0  0  0  0  0  0  0  0  0  0
   48.3520   33.5780   38.9030 H   0  0  0  0  0  0  0  0  0  0  0  0
   46.3290   32.8650   39.2540 H   0  0  0  0  0  0  0  0  0  0  0  0
   46.9120   32.2880   40.8690 H   0  0  0  0  0  0  0  0  0  0  0  0
   45.0590   33.6780   41.1400 H   0  0  0  0  0  0  0  0  0  0  0  0
   45.7600   34.9900   40.0680 H   0  0  0  0  0  0  0  0  0  0  0  0
   46.4850   32.0230   45.5050 C   0  0  0  0  0  0  0  0  0  0  0  0
   46.7550   32.7530   44.3210 C   0  0  0  0  0  0  0  0  0  0  0  0
   47.7090   32.0820   43.5570 C   0  0  0  0  0  0  0  0  0  0  0  0
   47.9200   32.6760   42.6530 H   0  0  0  0  0  0  0  0  0  0  0  0
   48.3090   30.8940   43.8800 C   0  0  0  0  0  0  0  0  0  0  0  0
   47.9780   30.2650   45.0530 C   0  0  0  0  0  0  0  0  0  0  0  0
   47.0580   30.8190   45.8890 C   0  0  0  0  0  0  0  0  0  0  0  0
   48.7470   29.1150   45.0730 O   0  0  0  0  0  0  0  0  0  0  0  0
   49.5540   29.0450   43.9140 C   0  0  0  0  0  0  0  0  0  0  0  0
   50.6400   29.0890   44.1510 H   0  0  0  0  0  0  0  0  0  0  0  0
   49.2580   30.2020   43.1440 O   0  0  0  0  0  0  0  0  0  0  0  0
  1  6  1  0  0  0  0
  2  1  2  0  0  0  0
  2  3  1  0  0  0  0
  3 25  1  0  0  0  0
  3  4  2  0  0  0  0
  4  5  1  0  0  0  0
  5  8  1  0  0  0  0
  6  5  2  0  0  0  0
  7  1  1  0  0  0  0
  9  2  1  0  0  0  0
 10  9  1  0  0  0  0
 10 15  1  0  0  0  0
 11 10  1  0  0  0  0
 12 13  1  0  0  0  0
 12 11  1  0  0  0  0
 13 14  1  0  0  0  0
 13 21  1  0  0  0  0
 14 22  1  0  0  0  0
 14  9  1  0  0  0  0
 16 10  1  0  0  0  0
 17 11  1  0  0  0  0
 18 11  1  0  0  0  0
 19 12  1  0  0  0  0
 20 13  1  0  0  0  0
 23 14  1  0  0  0  0
 24 30  1  0  0  0  0
 25 24  2  0  0  0  0
 26 28  2  0  0  0  0
 26 25  1  0  0  0  0
 27 26  1  0  0  0  0
 28 29  1  0  0  0  0
 29 31  1  0  0  0  0
 29 30  2  0  0  0  0
 32 33  1  0  0  0  0
 32 31  1  0  0  0  0
 34 28  1  0  0  0  0
 34 32  1  0  0  0  0
M  END
>  <minimizedAffinity>
-5.07576942

>  <minimizedRMSD>
3.65110302

$$$$
