
     RDKit          3D

 48 52  0  0  0  0  0  0  0  0999 V2000
   45.7942   34.1331   41.0816 C   0  0  0  0  0  0  0  0  0  0  0  0
   46.4227   34.7581   42.1571 C   0  0  0  0  0  0  0  0  0  0  0  0
   47.7725   35.0984   41.9854 C   0  0  0  0  0  0  0  0  0  0  0  0
   48.3810   34.8009   40.7919 N   0  0  0  0  0  0  0  0  0  0  0  0
   47.7244   34.2017   39.8015 C   0  0  0  0  0  0  0  0  0  0  0  0
   46.4354   33.8636   39.9328 N   0  0  0  0  0  0  0  0  0  0  0  0
   45.6879   35.0266   43.3739 C   0  0  0  0  0  0  0  0  0  0  0  0
   45.0391   36.2398   43.6101 C   0  0  0  0  0  0  0  0  0  0  0  0
   44.4830   36.0707   44.8506 C   0  0  0  0  0  0  0  0  0  0  0  0
   44.7677   34.8407   45.3460 N   0  0  0  0  0  0  0  0  0  0  0  0
   45.4945   34.2418   44.4288 N   0  0  0  0  0  0  0  0  0  0  0  0
   44.4718   33.7899   41.2256 O   0  0  0  0  0  0  0  0  0  0  0  0
   43.3832   34.4617   40.7669 C   0  0  0  0  0  0  0  0  0  0  0  0
   43.3002   35.7163   40.5416 O   0  0  0  0  0  0  0  0  0  0  0  0
   42.0412   34.0523   40.3971 N   0  0  0  0  0  0  0  0  0  0  0  0
   41.6860   34.3207   39.0192 C   0  0  0  0  0  0  0  0  0  0  0  0
   40.8483   35.6167   39.0733 C   0  0  0  0  0  0  0  0  0  0  0  0
   40.0342   35.5480   40.3740 C   0  0  0  0  0  0  0  0  0  0  0  0
   39.7193   34.1148   40.7408 C   0  0  0  0  0  0  0  0  0  0  0  0
   41.0153   33.4213   41.1969 C   0  0  1  0  0  0  0  0  0  0  0  0
   48.2622   35.5825   42.8160 H   0  0  0  0  0  0  0  0  0  0  0  0
   48.2251   33.9729   38.8590 H   0  0  0  0  0  0  0  0  0  0  0  0
   45.0063   37.0913   42.9435 H   0  0  0  0  0  0  0  0  0  0  0  0
   43.8934   36.8503   45.3424 H   0  0  0  0  0  0  0  0  0  0  0  0
   44.4221   34.5327   46.2911 H   0  0  0  0  0  0  0  0  0  0  0  0
   42.5485   34.5517   38.3706 H   0  0  0  0  0  0  0  0  0  0  0  0
   41.0972   33.5188   38.5446 H   0  0  0  0  0  0  0  0  0  0  0  0
   41.5395   36.4823   39.1936 H   0  0  0  0  0  0  0  0  0  0  0  0
   40.2283   35.7513   38.1873 H   0  0  0  0  0  0  0  0  0  0  0  0
   39.0596   36.0298   40.1488 H   0  0  0  0  0  0  0  0  0  0  0  0
   40.5608   36.0181   41.2211 H   0  0  0  0  0  0  0  0  0  0  0  0
   39.3904   33.6226   39.7912 H   0  0  0  0  0  0  0  0  0  0  0  0
   38.9716   34.1325   41.5325 H   0  0  0  0  0  0  0  0  0  0  0  0
   41.2342   33.6331   42.2481 H   0  0  0  0  0  0  0  0  0  0  0  0
   41.0902   31.0109   41.9767 C   0  0  0  0  0  0  0  0  0  0  0  0
   40.9116   31.9555   40.9907 C   0  0  0  0  0  0  0  0  0  0  0  0
   40.6134   31.5129   39.7121 C   0  0  0  0  0  0  0  0  0  0  0  0
   40.4511   32.1774   38.8511 H   0  0  0  0  0  0  0  0  0  0  0  0
   40.4958   30.1682   39.4197 C   0  0  0  0  0  0  0  0  0  0  0  0
   40.6801   29.2262   40.4311 C   0  0  0  0  0  0  0  0  0  0  0  0
   40.9768   29.6489   41.7068 C   0  0  0  0  0  0  0  0  0  0  0  0
   40.5063   27.9480   39.8709 O   0  0  0  0  0  0  0  0  0  0  0  0
   39.6507   28.1675   38.7398 C   0  0  1  0  0  0  0  0  0  0  0  0
   39.7020   27.3641   38.0057 H   0  0  0  0  0  0  0  0  0  0  0  0
   40.2138   29.4034   38.2731 O   0  0  0  0  0  0  0  0  0  0  0  0
   41.3220   31.3439   42.9735 H   0  0  0  0  0  0  0  0  0  0  0  0
   41.1291   28.9609   42.5260 H   0  0  0  0  0  0  0  0  0  0  0  0
   38.6036   28.3660   39.0903 H   0  0  0  0  0  0  0  0  0  0  0  0
  1 12  1  0
  1  2  1  0
  2  7  1  0
  3  2  2  0
  4  3  1  0
  5  6  1  0
  5  4  2  0
  6  1  2  0
  7  8  1  0
  7 11  2  0
  8  9  2  0
  9 10  1  0
 11 10  1  0
 13 12  1  0
 14 13  2  0
 15 13  1  0
 15 20  1  0
 16 17  1  0
 16 15  1  0
 17 18  1  0
 18 19  1  0
 19 20  1  0
  3 21  1  0
  5 22  1  0
  8 23  1  0
  9 24  1  0
 10 25  1  0
 16 26  1  0
 16 27  1  0
 17 28  1  0
 17 29  1  0
 18 30  1  0
 18 31  1  0
 19 32  1  0
 19 33  1  0
 20 34  1  1
 35 36  2  0
 36 37  1  0
 37 38  1  0
 37 39  2  0
 39 40  1  0
 40 41  2  0
 40 42  1  0
 42 43  1  0
 43 44  1  6
 43 45  1  0
 41 35  1  0
 45 39  1  0
 35 46  1  0
 41 47  1  0
 43 48  1  0
 20 36  1  0
M  ISO  8  21  14  22  14  23  14  24  14  25   9  26  13  27  13  28  13
M  ISO  8  29  13  30  13  31  13  32  13  33  13  34  13  38  16  44   8
M  END
>  <DihAtoms>  (1) 
14,19,35,34

>  <DihDeg>  (1) 
44.77692834232992

$$$$
