REMARK  Name = 
REMARK  2 active torsions:
REMARK  status: ('A' for Active; 'I' for Inactive)
REMARK    1  A    between atoms: C_3  and  S_7
REMARK    2  A    between atoms: C_5  and  C_12
REMARK                            x       y       z     vdW  Elec       q    Type
REMARK                         _______ _______ _______ _____ _____    ______ ____
ROOT
ATOM      1  C   UNL     1      45.229  33.444  47.735  0.00  0.00    +0.000 A 
ATOM      2  C   UNL     1      45.688  33.129  46.479  0.00  0.00    +0.000 A 
ATOM      3  C   UNL     1      46.312  31.916  46.166  0.00  0.00    +0.000 A 
ATOM      4  H   UNL     1      46.663  31.686  45.190  0.00  0.00    +0.000 HD
ATOM      5  C   UNL     1      46.431  31.045  47.245  0.00  0.00    +0.000 A 
ATOM      6  C   UNL     1      45.995  31.290  48.531  0.00  0.00    +0.000 A 
ATOM      7  C   UNL     1      45.392  32.523  48.727  0.00  0.00    +0.000 A 
ATOM      8  O   UNL     1      46.311  30.165  49.277  0.00  0.00    +0.000 OA
ATOM      9  C   UNL     1      47.110  29.308  48.505  0.00  0.00    +0.000 C 
ATOM     10  H   UNL     1      46.741  28.261  48.567  0.00  0.00    +0.000 HD
ATOM     11  O   UNL     1      47.019  29.767  47.185  0.00  0.00    +0.000 OA
ENDROOT
BRANCH   2  16
ATOM     12  C   UNL     1      44.536  36.032  44.533  0.00  0.00    +0.000 A 
ATOM     13  C   UNL     1      45.259  35.894  43.322  0.00  0.00    +0.000 A 
ATOM     14  C   UNL     1      46.134  34.790  43.207  0.00  0.00    +0.000 A 
ATOM     15  N   UNL     1      46.233  33.936  44.249  0.00  0.00    +0.000 NA
ATOM     16  C   UNL     1      45.528  34.105  45.382  0.00  0.00    +0.000 A 
ATOM     17  N   UNL     1      44.693  35.137  45.522  0.00  0.00    +0.000 NA
ATOM     18  H   UNL     1      43.904  36.894  44.523  0.00  0.00    +0.000 HD
ATOM     19  H   UNL     1      45.167  36.585  42.503  0.00  0.00    +0.000 HD
BRANCH  14  20
ATOM     20  S   UNL     1      47.068  34.560  41.714  0.00  0.00    +0.000 S 
ATOM     21  H   UNL     1      47.600  33.238  41.746  0.00  0.00    +0.000 HD
ENDBRANCH  14  20
ENDBRANCH   2  16
TORSDOF 2
