REMARK  Name = 
REMARK  4 active torsions:
REMARK  status: ('A' for Active; 'I' for Inactive)
REMARK    1  A    between atoms: C_1  and  C_4
REMARK    2  A    between atoms: C_1  and  C_11
REMARK    3  A    between atoms: C_12  and  C_17
REMARK    4  A    between atoms: C_17  and  C_36
REMARK                            x       y       z     vdW  Elec       q    Type
REMARK                         _______ _______ _______ _____ _____    ______ ____
ROOT
ATOM      1  C   UNL     1      46.130  35.789  42.793  0.00  0.00    +0.000 A 
ATOM      2  C   UNL     1      47.014  34.704  42.803  0.00  0.00    +0.000 A 
ATOM      3  C   UNL     1      46.903  33.778  43.844  0.00  0.00    +0.000 A 
ATOM      4  N   UNL     1      45.945  33.980  44.790  0.00  0.00    +0.000 NA
ATOM      5  C   UNL     1      45.131  35.036  44.727  0.00  0.00    +0.000 A 
ATOM      6  N   UNL     1      45.207  35.924  43.764  0.00  0.00    +0.000 NA
ATOM      7  N   UNL     1      44.118  35.269  45.712  0.00  0.00    +0.000 N 
ATOM      8  H   UNL     1      46.217  36.507  41.983  0.00  0.00    +0.000 HD
ATOM      9  H   UNL     1      44.217  36.186  46.221  0.00  0.00    +0.000 HD
ATOM     10  H   UNL     1      43.377  34.522  45.843  0.00  0.00    +0.000 HD
ENDROOT
BRANCH   2  11
ATOM     11  C   UNL     1      48.049  34.565  41.726  0.00  0.00    +0.000 C 
ATOM     12  C   UNL     1      48.788  35.848  41.360  0.00  0.00    +0.000 C 
ATOM     13  C   UNL     1      49.425  34.753  42.070  0.00  0.00    +0.000 C 
ATOM     14  H   UNL     1      49.070  36.037  40.301  0.00  0.00    +0.000 HD
ATOM     15  H   UNL     1      48.373  36.774  41.816  0.00  0.00    +0.000 HD
ATOM     16  H   UNL     1      50.194  34.168  41.488  0.00  0.00    +0.000 HD
ATOM     17  H   UNL     1      49.892  35.201  42.963  0.00  0.00    +0.000 HD
BRANCH  11  18
ATOM     18  C   UNL     1      47.683  33.758  40.529  0.00  0.00    +0.000 C 
ATOM     19  C   UNL     1      48.150  34.316  39.200  0.00  0.00    +0.000 C 
ATOM     20  C   UNL     1      47.761  33.279  38.158  0.00  0.00    +0.000 C 
ATOM     21  O   UNL     1      46.369  33.419  37.973  0.00  0.00    +0.000 OA
ATOM     22  C   UNL     1      45.840  32.835  39.154  0.00  0.00    +0.000 C 
ATOM     23  C   UNL     1      46.142  33.724  40.347  0.00  0.00    +0.000 C 
ATOM     24  H   UNL     1      48.033  32.730  40.616  0.00  0.00    +0.000 HD
ATOM     25  H   UNL     1      49.274  34.341  39.177  0.00  0.00    +0.000 HD
ATOM     26  H   UNL     1      47.690  35.293  38.952  0.00  0.00    +0.000 HD
ATOM     27  H   UNL     1      48.254  33.480  37.172  0.00  0.00    +0.000 HD
ATOM     28  H   UNL     1      47.958  32.257  38.514  0.00  0.00    +0.000 HD
ATOM     29  H   UNL     1      44.753  32.808  38.996  0.00  0.00    +0.000 HD
ATOM     30  H   UNL     1      46.306  31.858  39.350  0.00  0.00    +0.000 HD
ATOM     31  H   UNL     1      45.731  33.173  41.225  0.00  0.00    +0.000 HD
ATOM     32  H   UNL     1      45.736  34.735  40.260  0.00  0.00    +0.000 HD
ENDBRANCH  11  18
ENDBRANCH   2  11
BRANCH   3  33
ATOM     33  C   UNL     1      47.758  32.644  43.969  0.00  0.00    +0.000 C 
ATOM     34  O   UNL     1      47.395  31.460  44.363  0.00  0.00    +0.000 OA
BRANCH  33  36
ATOM     35  C   UNL     1      50.227  32.812  43.450  0.00  0.00    +0.000 A 
ATOM     36  C   UNL     1      49.097  32.142  43.832  0.00  0.00    +0.000 A 
ATOM     37  C   UNL     1      49.272  30.764  44.017  0.00  0.00    +0.000 A 
ATOM     38  H   UNL     1      48.433  30.150  44.320  0.00  0.00    +0.000 HD
ATOM     39  C   UNL     1      50.436  30.069  43.850  0.00  0.00    +0.000 A 
ATOM     40  C   UNL     1      51.545  30.779  43.468  0.00  0.00    +0.000 A 
ATOM     41  C   UNL     1      51.438  32.129  43.272  0.00  0.00    +0.000 A 
ATOM     42  O   UNL     1      52.611  29.871  43.362  0.00  0.00    +0.000 OA
ATOM     43  C   UNL     1      52.058  28.563  43.260  0.00  0.00    +0.000 C 
ATOM     44  H   UNL     1      52.727  27.828  43.703  0.00  0.00    +0.000 HD
ATOM     45  O   UNL     1      50.823  28.722  43.978  0.00  0.00    +0.000 OA
ENDBRANCH  33  36
ENDBRANCH   3  33
TORSDOF 4
