
 OpenBabel03252508543D

 45 49  0  0  1  0  0  0  0  0999 V2000
   43.1620   34.3020   40.6310 C   0  0  0  0  0  0  0  0  0  0  0  0
   43.1420   35.4400   40.0530 O   0  0  0  0  0  0  0  0  0  0  0  0
   41.7750   33.9120   40.4630 N   0  0  0  0  0  0  0  0  0  0  0  0
   41.3410   33.7990   39.0860 C   0  0  0  0  0  0  0  0  0  0  0  0
   40.5910   35.1180   38.7990 C   0  0  0  0  0  0  0  0  0  0  0  0
   39.8680   35.4930   40.1020 C   0  0  0  0  0  0  0  0  0  0  0  0
   39.4910   34.2570   40.8880 C   0  0  0  0  0  0  0  0  0  0  0  0
   40.7700   33.6220   41.4620 C   0  0  1  0  0  0  0  0  0  0  0  0
   42.1680   33.7640   38.3570 H   0  0  0  0  0  0  0  0  0  0  0  0
   40.6710   32.9440   38.8970 H   0  0  0  0  0  0  0  0  0  0  0  0
   41.3420   35.9230   38.6280 H   0  0  0  0  0  0  0  0  0  0  0  0
   39.9200   35.0400   37.9450 H   0  0  0  0  0  0  0  0  0  0  0  0
   38.9130   35.9660   39.7940 H   0  0  0  0  0  0  0  0  0  0  0  0
   40.4820   36.1440   40.7470 H   0  0  0  0  0  0  0  0  0  0  0  0
   39.0660   33.5400   40.1410 H   0  0  0  0  0  0  0  0  0  0  0  0
   38.8040   34.5620   41.6740 H   0  0  0  0  0  0  0  0  0  0  0  0
   41.0750   34.1100   42.3930 H   0  0  0  0  0  0  0  0  0  0  0  0
   39.3910   31.4970   41.4390 C   0  0  0  0  0  3  0  0  0  0  0  0
   40.5620   32.1730   41.7000 C   0  0  0  0  0  0  0  0  0  0  0  0
   41.6260   31.4540   42.2200 C   0  0  0  0  0  0  0  0  0  0  0  0
   42.6040   31.8910   42.4650 H   0  0  0  0  0  0  0  0  0  0  0  0
   41.5300   30.1000   42.4760 C   0  0  0  0  0  0  0  0  0  0  0  0
   40.3350   29.4320   42.2060 C   0  0  0  0  0  0  0  0  0  0  0  0
   39.2690   30.1310   41.6890 C   0  0  0  0  0  3  0  0  0  0  0  0
   40.5050   28.0800   42.5530 O   0  0  0  0  0  0  0  0  0  0  0  0
   41.9190   27.8580   42.4390 C   0  0  0  0  0  3  0  0  0  0  0  0
   42.2590   26.9870   42.9990 H   0  0  0  0  0  0  0  0  0  0  0  0
   42.3830   29.1030   42.9820 O   0  0  0  0  0  0  0  0  0  0  0  0
   44.2370   33.7060   41.2120 O   0  0  0  0  0  0  0  0  0  0  0  0
   45.5660   33.9820   41.0040 C   0  0  0  0  0  0  0  0  0  0  0  0
   46.2680   34.6050   42.0340 C   0  0  0  0  0  0  0  0  0  0  0  0
   47.6240   34.8760   41.7970 C   0  0  0  0  0  0  0  0  0  0  0  0
   48.1670   34.5180   40.5890 N   0  0  0  0  0  0  0  0  0  0  0  0
   47.4410   33.9240   39.6440 C   0  0  0  0  0  0  0  0  0  0  0  0
   46.1450   33.6520   39.8380 N   0  0  0  0  0  0  0  0  0  0  0  0
   48.1700   35.3600   42.5930 H   0  0  0  0  0  0  0  0  0  0  0  0
   47.8910   33.6460   38.6890 H   0  0  0  0  0  0  0  0  0  0  0  0
   45.5990   34.9420   43.2720 C   0  0  0  0  0  0  0  0  0  0  0  0
   45.0050   36.1850   43.4940 C   0  0  0  0  0  0  0  0  0  0  0  0
   44.5000   36.0780   44.7630 C   0  0  0  0  0  0  0  0  0  0  0  0
   44.7620   34.8560   45.2870 N   0  0  0  0  0  0  0  0  0  0  0  0
   45.4250   34.2000   44.3610 N   0  0  0  0  0  0  0  0  0  0  0  0
   44.9740   37.0150   42.8010 H   0  0  0  0  0  0  0  0  0  0  0  0
   43.9610   36.8950   45.2520 H   0  0  0  0  0  0  0  0  0  0  0  0
   44.4470   34.5920   46.2560 H   0  0  0  0  0  0  0  0  0  0  0  0
  1 29  1  0  0  0  0
  2  1  2  0  0  0  0
  3  1  1  0  0  0  0
  3  8  1  0  0  0  0
  4  3  1  0  0  0  0
  5  4  1  0  0  0  0
  5  6  1  0  0  0  0
  6 14  1  0  0  0  0
  6  7  1  0  0  0  0
  7  8  1  0  0  0  0
  7 16  1  0  0  0  0
  8 19  1  0  0  0  0
  8 17  1  1  0  0  0
  9  4  1  0  0  0  0
 10  4  1  0  0  0  0
 11  5  1  0  0  0  0
 12  5  1  0  0  0  0
 13  6  1  0  0  0  0
 15  7  1  0  0  0  0
 18 24  2  0  0  0  0
 18 19  1  0  0  0  0
 19 20  2  0  0  0  0
 20 21  1  0  0  0  0
 20 22  1  0  0  0  0
 22 28  1  0  0  0  0
 23 22  2  0  0  0  0
 23 25  1  0  0  0  0
 24 23  1  0  0  0  0
 26 25  1  0  0  0  0
 26 28  1  0  0  0  0
 26 27  1  0  0  0  0
 30 29  1  0  0  0  0
 30 31  1  0  0  0  0
 31 38  1  0  0  0  0
 32 31  2  0  0  0  0
 32 36  1  0  0  0  0
 33 32  1  0  0  0  0
 34 35  1  0  0  0  0
 34 33  2  0  0  0  0
 35 30  2  0  0  0  0
 37 34  1  0  0  0  0
 38 39  1  0  0  0  0
 38 42  2  0  0  0  0
 39 40  2  0  0  0  0
 40 44  1  0  0  0  0
 40 41  1  0  0  0  0
 41 45  1  0  0  0  0
 42 41  1  0  0  0  0
 43 39  1  0  0  0  0
M  END
>  <minimizedAffinity>
-6.95970869

>  <minimizedRMSD>
1.15160167

$$$$
