
     RDKit          3D

 24 26  0  0  0  0  0  0  0  0999 V2000
   44.5365   36.0321   44.5328 C   0  0  0  0  0  0  0  0  0  0  0  0
   45.2587   35.8936   43.3219 C   0  0  0  0  0  0  0  0  0  0  0  0
   46.1342   34.7899   43.2071 C   0  0  0  0  0  0  0  0  0  0  0  0
   46.2332   33.9356   44.2487 N   0  0  0  0  0  0  0  0  0  0  0  0
   45.5279   34.1051   45.3816 C   0  0  0  0  0  0  0  0  0  0  0  0
   44.6926   35.1367   45.5224 N   0  0  0  0  0  0  0  0  0  0  0  0
   47.0681   34.5601   41.7144 S   0  0  0  0  0  0  0  0  0  0  0  0
   43.9040   36.8939   44.5228 H   0  0  0  0  0  0  0  0  0  0  0  0
   45.1666   36.5846   42.5028 H   0  0  0  0  0  0  0  0  0  0  0  0
   47.5996   33.2380   41.7459 H   0  0  0  0  0  0  0  0  0  0  0  0
   44.9717   33.2947   47.6399 C   0  0  0  0  0  0  0  0  0  0  0  0
   45.6885   33.1291   46.4788 C   0  0  0  0  0  0  0  0  0  0  0  0
   46.5801   32.0717   46.2656 C   0  0  0  0  0  0  0  0  0  0  0  0
   47.1278   31.9561   45.3627 H   0  0  0  0  0  0  0  0  0  0  0  0
   46.6823   31.1911   47.3388 C   0  0  0  0  0  0  0  0  0  0  0  0
   45.9977   31.2914   48.5314 C   0  0  0  0  0  0  0  0  0  0  0  0
   45.1414   32.3775   48.6344 C   0  0  0  0  0  0  0  0  0  0  0  0
   46.3967   30.2144   49.3088 O   0  0  0  0  0  0  0  0  0  0  0  0
   47.4651   29.5598   48.6772 C   0  0  2  0  0  0  0  0  0  0  0  0
   47.3024   28.4603   48.6621 H   0  0  0  0  0  0  0  0  0  0  0  0
   47.5100   30.0529   47.3672 O   0  0  0  0  0  0  0  0  0  0  0  0
   44.3061   34.1419   47.7156 H   0  0  0  0  0  0  0  0  0  0  0  0
   44.5929   32.4707   49.5711 H   0  0  0  0  0  0  0  0  0  0  0  0
   48.4260   29.8561   49.1544 H   0  0  0  0  0  0  0  0  0  0  0  0
  1  6  2  0
  2  1  1  0
  3  2  2  0
  3  4  1  0
  4  5  2  0
  5  6  1  0
  7  3  1  0
  1  8  1  0
  2  9  1  0
  7 10  1  0
 11 12  2  0
 12 13  1  0
 13 14  1  0
 13 15  2  0
 15 16  1  0
 16 17  2  0
 16 18  1  0
 18 19  1  0
 19 20  1  6
 19 21  1  0
 17 11  1  0
 21 15  1  0
 11 22  1  0
 17 23  1  0
 19 24  1  0
  5 12  1  0
M  ISO  5   8  14   9  14  10  11  14  16  20   8
M  END
>  <DihAtoms>  (1) 
3,4,11,10

>  <DihDeg>  (1) 
-179.99973974013065

$$$$
