
 OpenBabel03252506413D

 42 46  0  0  1  0  0  0  0  0999 V2000
   49.3940   33.4370   41.2850 N   0  0  1  0  0  0  0  0  0  0  0  0
   50.6320   33.0440   41.9150 C   0  0  0  0  0  0  0  0  0  0  0  0
   51.1650   31.7470   41.3590 C   0  0  0  0  0  0  0  0  0  0  0  0
   50.2520   30.6490   41.8430 C   0  0  0  0  0  0  0  0  0  0  0  0
   48.8100   31.0840   41.7320 C   0  0  0  0  0  0  0  0  0  0  0  0
   48.6700   32.2630   40.8270 C   0  0  2  0  0  0  0  0  0  0  0  0
   51.3910   33.8560   41.9120 H   0  0  0  0  0  0  0  0  0  0  0  0
   50.4150   32.8370   42.9930 H   0  0  0  0  0  0  0  0  0  0  0  0
   51.2440   31.8010   40.2750 H   0  0  0  0  0  0  0  0  0  0  0  0
   52.1970   31.6460   41.7540 H   0  0  0  0  0  0  0  0  0  0  0  0
   50.5050   30.3100   42.8680 H   0  0  0  0  0  0  0  0  0  0  0  0
   50.3960   29.7690   41.1960 H   0  0  0  0  0  0  0  0  0  0  0  0
   48.1560   30.2860   41.3390 H   0  0  0  0  0  0  0  0  0  0  0  0
   48.4800   31.4100   42.7340 H   0  0  0  0  0  0  0  0  0  0  0  0
   47.5840   32.5780   40.9480 H   0  0  0  0  0  0  0  0  0  0  0  0
   48.7300   33.2150   38.6840 C   0  0  0  0  0  3  0  0  0  0  0  0
   48.8350   32.0110   39.3960 C   0  0  0  0  0  0  0  0  0  0  0  0
   49.0540   30.8750   38.6780 C   0  0  0  0  0  0  0  0  0  0  0  0
   49.1170   30.0000   39.2860 H   0  0  0  0  0  0  0  0  0  0  0  0
   49.1680   30.9070   37.3050 C   0  0  0  0  0  0  0  0  0  0  0  0
   49.0730   32.0610   36.5560 C   0  0  0  0  0  0  0  0  0  0  0  0
   48.8500   33.2200   37.2890 C   0  0  0  0  0  3  0  0  0  0  0  0
   49.2280   31.7790   35.2060 O   0  0  0  0  0  0  0  0  0  0  0  0
   49.0690   30.3880   35.0720 C   0  0  0  0  0  3  0  0  0  0  0  0
   49.8500   30.0090   34.3900 H   0  0  0  0  0  0  0  0  0  0  0  0
   49.3870   29.9030   36.3740 O   0  0  0  0  0  0  0  0  0  0  0  0
   47.2960   34.8060   41.9320 C   0  0  1  0  0  0  0  0  0  0  0  0
   48.4580   35.6580   41.7880 C   0  0  0  0  0  0  0  0  0  0  0  0
   48.6800   34.2430   42.2240 C   0  0  2  0  0  0  0  0  0  0  0  0
   46.8240   34.2590   41.0840 H   0  0  0  0  0  0  0  0  0  0  0  0
   48.7210   35.9390   40.7260 H   0  0  0  0  0  0  0  0  0  0  0  0
   48.6390   36.4990   42.4680 H   0  0  0  0  0  0  0  0  0  0  0  0
   48.9000   34.1240   43.3070 H   0  0  0  0  0  0  0  0  0  0  0  0
   45.5060   36.0780   43.1880 C   0  0  0  0  0  0  0  0  0  0  0  0
   46.3590   34.9490   43.0840 C   0  0  0  0  0  0  0  0  0  0  0  0
   46.2930   33.9960   44.0810 C   0  0  0  0  0  0  0  0  0  0  0  0
   45.4090   34.2080   45.0990 N   0  0  0  0  0  0  0  0  0  0  0  0
   44.6090   35.2880   45.1770 C   0  0  0  0  0  0  0  0  0  0  0  0
   44.6500   36.2380   44.2200 N   0  0  0  0  0  0  0  0  0  0  0  0
   45.5320   36.8470   42.4250 H   0  0  0  0  0  0  0  0  0  0  0  0
   46.9120   33.1180   44.0590 H   0  0  0  0  0  0  0  0  0  0  0  0
   43.9630   35.3020   46.0550 H   0  0  0  0  0  0  0  0  0  0  0  0
  1  2  1  1  0  0  0
  1 29  1  0  0  0  0
  2  8  1  0  0  0  0
  3 10  1  0  0  0  0
  3  4  1  0  0  0  0
  3  2  1  0  0  0  0
  4 11  1  0  0  0  0
  5  4  1  0  0  0  0
  5 14  1  0  0  0  0
  6 15  1  1  0  0  0
  6  1  1  0  0  0  0
  6  5  1  0  0  0  0
  7  2  1  0  0  0  0
  9  3  1  0  0  0  0
 12  4  1  0  0  0  0
 13  5  1  0  0  0  0
 16 17  1  0  0  0  0
 17  6  1  0  0  0  0
 18 19  1  0  0  0  0
 18 17  2  0  0  0  0
 20 18  1  0  0  0  0
 21 22  1  0  0  0  0
 21 20  2  0  0  0  0
 22 16  2  0  0  0  0
 23 21  1  0  0  0  0
 24 23  1  0  0  0  0
 24 26  1  0  0  0  0
 25 24  1  0  0  0  0
 26 20  1  0  0  0  0
 27 30  1  6  0  0  0
 27 29  1  0  0  0  0
 27 35  1  0  0  0  0
 28 27  1  0  0  0  0
 28 29  1  0  0  0  0
 28 32  1  0  0  0  0
 29 33  1  1  0  0  0
 31 28  1  0  0  0  0
 34 39  1  0  0  0  0
 35 34  2  0  0  0  0
 35 36  1  0  0  0  0
 36 37  2  0  0  0  0
 37 38  1  0  0  0  0
 38 42  1  0  0  0  0
 39 38  2  0  0  0  0
 40 34  1  0  0  0  0
 41 36  1  0  0  0  0
M  END
>  <minimizedAffinity>
-5.32090378

>  <minimizedRMSD>
1.06625998

$$$$
