REMARK  Name = 
REMARK  4 active torsions:
REMARK  status: ('A' for Active; 'I' for Inactive)
REMARK    1  A    between atoms: C_1  and  C_5
REMARK    2  A    between atoms: C_3  and  C_10
REMARK    3  A    between atoms: C_10  and  N_11
REMARK    4  A    between atoms: C_16  and  C_36
REMARK                            x       y       z     vdW  Elec       q    Type
REMARK                         _______ _______ _______ _____ _____    ______ ____
ROOT
ATOM      1  N   UNL     1      45.815  31.776  46.733  0.00  0.00    +0.000 NA
ATOM      2  C   UNL     1      46.370  32.594  47.759  0.00  0.00    +0.000 C 
ATOM      3  C   UNL     1      47.711  32.052  48.235  0.00  0.00    +0.000 C 
ATOM      4  C   UNL     1      47.420  30.723  48.896  0.00  0.00    +0.000 C 
ATOM      5  C   UNL     1      46.866  29.828  47.793  0.00  0.00    +0.000 C 
ATOM      6  C   UNL     1      45.658  30.457  47.119  0.00  0.00    +0.000 C 
ATOM      7  H   UNL     1      45.685  32.386  48.642  0.00  0.00    +0.000 HD
ATOM      8  H   UNL     1      46.303  33.663  47.662  0.00  0.00    +0.000 HD
ATOM      9  H   UNL     1      48.358  31.878  47.354  0.00  0.00    +0.000 HD
ATOM     10  H   UNL     1      48.157  32.784  48.941  0.00  0.00    +0.000 HD
ATOM     11  H   UNL     1      48.374  30.286  49.222  0.00  0.00    +0.000 HD
ATOM     12  H   UNL     1      46.686  30.842  49.706  0.00  0.00    +0.000 HD
ATOM     13  H   UNL     1      47.666  29.598  47.078  0.00  0.00    +0.000 HD
ATOM     14  H   UNL     1      46.558  28.887  48.292  0.00  0.00    +0.000 HD
ATOM     15  H   UNL     1      44.941  30.520  48.012  0.00  0.00    +0.000 HD
ENDROOT
BRANCH   6  17
ATOM     16  C   UNL     1      44.695  28.174  46.479  0.00  0.00    +0.000 A 
ATOM     17  C   UNL     1      45.065  29.475  46.228  0.00  0.00    +0.000 A 
ATOM     18  C   UNL     1      44.799  29.789  44.883  0.00  0.00    +0.000 A 
ATOM     19  H   UNL     1      45.036  30.799  44.508  0.00  0.00    +0.000 HD
ATOM     20  C   UNL     1      44.261  28.963  43.944  0.00  0.00    +0.000 A 
ATOM     21  C   UNL     1      43.930  27.689  44.304  0.00  0.00    +0.000 A 
ATOM     22  C   UNL     1      44.147  27.272  45.597  0.00  0.00    +0.000 A 
ATOM     23  O   UNL     1      43.407  27.039  43.207  0.00  0.00    +0.000 OA
ATOM     24  C   UNL     1      43.047  28.016  42.244  0.00  0.00    +0.000 C 
ATOM     25  H   UNL     1      41.992  28.317  42.286  0.00  0.00    +0.000 HD
ATOM     26  O   UNL     1      43.932  29.088  42.602  0.00  0.00    +0.000 OA
ENDBRANCH   6  17
BRANCH   1  27
ATOM     27  C   UNL     1      46.102  32.172  45.409  0.00  0.00    +0.000 C 
ATOM     28  H   UNL     1      47.092  31.730  45.079  0.00  0.00    +0.000 HD
ATOM     29  H   UNL     1      45.364  31.852  44.653  0.00  0.00    +0.000 HD
BRANCH  27  32
ATOM     30  C   UNL     1      46.087  34.412  44.073  0.00  0.00    +0.000 C 
ATOM     31  C   UNL     1      45.139  34.537  45.117  0.00  0.00    +0.000 C 
ATOM     32  C   UNL     1      46.290  33.647  45.397  0.00  0.00    +0.000 C 
ATOM     33  H   UNL     1      46.813  35.245  43.873  0.00  0.00    +0.000 HD
ATOM     34  H   UNL     1      44.153  34.014  45.016  0.00  0.00    +0.000 HD
ATOM     35  H   UNL     1      44.995  35.496  45.676  0.00  0.00    +0.000 HD
ATOM     36  H   UNL     1      47.219  33.986  45.878  0.00  0.00    +0.000 HD
BRANCH  30  38
ATOM     37  C   UNL     1      44.581  33.328  42.411  0.00  0.00    +0.000 A 
ATOM     38  C   UNL     1      45.911  33.596  42.844  0.00  0.00    +0.000 A 
ATOM     39  C   UNL     1      46.947  33.086  42.106  0.00  0.00    +0.000 A 
ATOM     40  N   UNL     1      46.634  32.348  40.995  0.00  0.00    +0.000 NA
ATOM     41  C   UNL     1      45.371  32.106  40.600  0.00  0.00    +0.000 A 
ATOM     42  N   UNL     1      44.308  32.596  41.307  0.00  0.00    +0.000 NA
ATOM     43  H   UNL     1      43.765  33.723  42.982  0.00  0.00    +0.000 HD
ATOM     44  H   UNL     1      47.941  33.286  42.430  0.00  0.00    +0.000 HD
ATOM     45  H   UNL     1      45.182  31.513  39.708  0.00  0.00    +0.000 HD
ENDBRANCH  30  38
ENDBRANCH  27  32
ENDBRANCH   1  27
TORSDOF 4
