
 OpenBabel03252503193D

 41 45  0  0  0  0  0  0  0  0999 V2000
   45.4800   34.2440   41.6020 C   0  0  0  0  0  0  0  0  0  0  0  0
   44.4720   33.3580   41.3670 C   0  0  0  0  0  0  0  0  0  0  0  0
   44.6490   32.9160   40.1020 N   0  0  0  0  0  0  0  0  0  0  0  0
   45.7260   33.5120   39.5870 C   0  0  0  0  0  0  0  0  0  0  0  0
   46.2380   34.3300   40.5110 N   0  0  0  0  0  0  0  0  0  0  0  0
   46.3250   33.3890   38.3080 N   0  0  0  0  0  0  0  0  0  0  0  0
   43.6840   33.0610   42.0470 H   0  0  0  0  0  0  0  0  0  0  0  0
   46.9720   32.6640   37.8940 H   0  0  0  0  0  0  0  0  0  0  0  0
   46.2220   34.0390   37.5050 H   0  0  0  0  0  0  0  0  0  0  0  0
   43.8460   31.9580   39.3630 C   0  0  0  0  0  0  0  0  0  0  0  0
   44.3610   31.6600   38.4300 H   0  0  0  0  0  0  0  0  0  0  0  0
   43.6080   31.0640   39.9540 H   0  0  0  0  0  0  0  0  0  0  0  0
   42.6750   33.9720   38.6480 C   0  0  0  0  0  3  0  0  0  0  0  0
   42.5820   32.6210   38.9400 C   0  0  0  0  0  0  0  0  0  0  0  0
   41.3370   32.0430   38.8080 C   0  0  0  0  0  0  0  0  0  0  0  0
   41.2970   30.9880   39.0440 H   0  0  0  0  0  0  0  0  0  0  0  0
   40.2690   32.8170   38.4010 C   0  0  0  0  0  0  0  0  0  0  0  0
   40.3800   34.1580   38.1150 C   0  0  0  0  0  0  0  0  0  0  0  0
   41.6150   34.7480   38.2420 C   0  0  0  0  0  3  0  0  0  0  0  0
   39.1000   34.6050   37.7380 O   0  0  0  0  0  0  0  0  0  0  0  0
   38.2730   33.4950   37.4870 C   0  0  0  0  0  3  0  0  0  0  0  0
   37.2350   33.6440   37.8370 H   0  0  0  0  0  0  0  0  0  0  0  0
   38.9390   32.4670   38.1980 O   0  0  0  0  0  0  0  0  0  0  0  0
   45.7340   35.0170   42.8600 C   0  0  0  0  0  0  0  0  0  0  0  0
   45.8020   36.2800   42.9350 O   0  0  0  0  0  0  0  0  0  0  0  0
   45.0030   34.4980   45.1390 C   0  0  0  0  0  0  0  0  0  0  0  0
   45.9210   34.3270   44.0840 C   0  0  0  0  0  0  0  0  0  0  0  0
   46.9610   33.4560   44.3740 C   0  0  0  0  0  0  0  0  0  0  0  0
   47.0920   32.8310   45.5420 N   0  0  0  0  0  0  0  0  0  0  0  0
   46.1710   33.0370   46.5250 C   0  0  0  0  0  0  0  0  0  0  0  0
   45.1440   33.8620   46.3160 N   0  0  0  0  0  0  0  0  0  0  0  0
   44.1460   35.1530   45.0360 H   0  0  0  0  0  0  0  0  0  0  0  0
   46.3390   32.4960   47.4520 H   0  0  0  0  0  0  0  0  0  0  0  0
   47.9400   33.2290   43.3590 C   0  0  0  0  0  0  0  0  0  0  0  0
   48.9710   33.9280   42.8260 C   0  0  0  0  0  0  0  0  0  0  0  0
   49.7340   33.4610   41.8670 C   0  0  0  0  0  0  0  0  0  0  0  0
   49.4370   32.2310   41.4300 C   0  0  0  0  0  0  0  0  0  0  0  0
   48.0090   31.7070   42.4230 S   0  0  0  0  0  0  0  0  0  0  0  0
   49.0980   34.9300   43.2860 H   0  0  0  0  0  0  0  0  0  0  0  0
   50.5700   33.9710   41.4050 H   0  0  0  0  0  0  0  0  0  0  0  0
   49.9460   31.5950   40.6060 H   0  0  0  0  0  0  0  0  0  0  0  0
  1 24  1  0  0  0  0
  2  1  2  0  0  0  0
  2  7  1  0  0  0  0
  3  2  1  0  0  0  0
  4  3  1  0  0  0  0
  4  5  2  0  0  0  0
  5  1  1  0  0  0  0
  6  4  1  0  0  0  0
  8  6  1  0  0  0  0
  9  6  1  0  0  0  0
 10 12  1  0  0  0  0
 10  3  1  0  0  0  0
 11 10  1  0  0  0  0
 13 14  1  0  0  0  0
 14 10  1  0  0  0  0
 15 14  2  0  0  0  0
 15 16  1  0  0  0  0
 17 15  1  0  0  0  0
 18 19  1  0  0  0  0
 18 17  2  0  0  0  0
 19 13  2  0  0  0  0
 20 18  1  0  0  0  0
 21 20  1  0  0  0  0
 21 22  1  0  0  0  0
 21 23  1  0  0  0  0
 23 17  1  0  0  0  0
 24 25  2  0  0  0  0
 24 27  1  0  0  0  0
 26 31  1  0  0  0  0
 27 28  1  0  0  0  0
 27 26  2  0  0  0  0
 28 29  2  0  0  0  0
 29 30  1  0  0  0  0
 30 33  1  0  0  0  0
 31 30  2  0  0  0  0
 32 26  1  0  0  0  0
 34 28  1  0  0  0  0
 35 39  1  0  0  0  0
 35 34  2  0  0  0  0
 36 35  1  0  0  0  0
 37 36  2  0  0  0  0
 37 38  1  0  0  0  0
 38 34  1  0  0  0  0
 40 36  1  0  0  0  0
 41 37  1  0  0  0  0
M  END
>  <minimizedAffinity>
-5.93948746

>  <minimizedRMSD>
2.74065185

$$$$
