
 OpenBabel03252503193D

 41 45  0  0  0  0  0  0  0  0999 V2000
   46.3770   33.2970   41.1290 C   0  0  0  0  0  0  0  0  0  0  0  0
   45.0720   32.9400   40.9670 C   0  0  0  0  0  0  0  0  0  0  0  0
   45.0400   32.1080   39.9020 N   0  0  0  0  0  0  0  0  0  0  0  0
   46.2810   31.9640   39.4330 C   0  0  0  0  0  0  0  0  0  0  0  0
   47.1050   32.6960   40.1890 N   0  0  0  0  0  0  0  0  0  0  0  0
   46.7730   31.2050   38.3430 N   0  0  0  0  0  0  0  0  0  0  0  0
   44.2250   33.2530   41.5630 H   0  0  0  0  0  0  0  0  0  0  0  0
   46.9990   30.1780   38.2370 H   0  0  0  0  0  0  0  0  0  0  0  0
   47.0130   31.5550   37.3940 H   0  0  0  0  0  0  0  0  0  0  0  0
   43.8910   31.4470   39.3100 C   0  0  0  0  0  0  0  0  0  0  0  0
   44.1930   30.8700   38.4160 H   0  0  0  0  0  0  0  0  0  0  0  0
   43.3760   30.7840   40.0190 H   0  0  0  0  0  0  0  0  0  0  0  0
   41.6180   32.0880   38.7080 C   0  0  0  0  0  3  0  0  0  0  0  0
   42.9400   32.4850   38.8260 C   0  0  0  0  0  0  0  0  0  0  0  0
   43.2260   33.7900   38.4850 C   0  0  0  0  0  0  0  0  0  0  0  0
   44.2660   34.0690   38.5880 H   0  0  0  0  0  0  0  0  0  0  0  0
   42.2110   34.6170   38.0530 C   0  0  0  0  0  0  0  0  0  0  0  0
   40.9010   34.2050   37.9410 C   0  0  0  0  0  0  0  0  0  0  0  0
   40.6010   32.9070   38.2770 C   0  0  0  0  0  3  0  0  0  0  0  0
   40.1620   35.3070   37.4750 O   0  0  0  0  0  0  0  0  0  0  0  0
   40.9370   36.4740   37.5980 C   0  0  0  0  0  3  0  0  0  0  0  0
   40.8000   37.1720   36.7510 H   0  0  0  0  0  0  0  0  0  0  0  0
   42.2510   35.9490   37.6590 O   0  0  0  0  0  0  0  0  0  0  0  0
   46.9460   34.2080   42.1730 C   0  0  0  0  0  0  0  0  0  0  0  0
   48.1330   34.6500   42.1820 O   0  0  0  0  0  0  0  0  0  0  0  0
   45.5560   35.9180   43.2400 C   0  0  0  0  0  0  0  0  0  0  0  0
   46.1350   34.6340   43.2540 C   0  0  0  0  0  0  0  0  0  0  0  0
   45.8300   33.8870   44.3830 C   0  0  0  0  0  0  0  0  0  0  0  0
   45.0600   34.3330   45.3730 N   0  0  0  0  0  0  0  0  0  0  0  0
   44.5280   35.5860   45.3020 C   0  0  0  0  0  0  0  0  0  0  0  0
   44.7790   36.3600   44.2450 N   0  0  0  0  0  0  0  0  0  0  0  0
   45.7190   36.5970   42.4120 H   0  0  0  0  0  0  0  0  0  0  0  0
   43.9100   35.8870   46.1440 H   0  0  0  0  0  0  0  0  0  0  0  0
   46.3800   32.5730   44.4790 C   0  0  0  0  0  0  0  0  0  0  0  0
   47.5750   32.0410   44.8330 C   0  0  0  0  0  0  0  0  0  0  0  0
   47.8150   30.7510   44.8290 C   0  0  0  0  0  0  0  0  0  0  0  0
   46.7970   29.9680   44.4490 C   0  0  0  0  0  0  0  0  0  0  0  0
   45.4330   31.1100   44.0790 S   0  0  0  0  0  0  0  0  0  0  0  0
   48.3220   32.8090   45.1240 H   0  0  0  0  0  0  0  0  0  0  0  0
   48.7450   30.2700   45.1010 H   0  0  0  0  0  0  0  0  0  0  0  0
   46.7440   28.8150   44.3600 H   0  0  0  0  0  0  0  0  0  0  0  0
  1 24  1  0  0  0  0
  2  1  2  0  0  0  0
  2  7  1  0  0  0  0
  3  2  1  0  0  0  0
  4  3  1  0  0  0  0
  4  5  2  0  0  0  0
  5  1  1  0  0  0  0
  6  4  1  0  0  0  0
  8  6  1  0  0  0  0
  9  6  1  0  0  0  0
 10  3  1  0  0  0  0
 10 12  1  0  0  0  0
 11 10  1  0  0  0  0
 13 14  1  0  0  0  0
 14 10  1  0  0  0  0
 15 16  1  0  0  0  0
 15 14  2  0  0  0  0
 17 15  1  0  0  0  0
 18 17  2  0  0  0  0
 18 19  1  0  0  0  0
 19 13  2  0  0  0  0
 20 21  1  0  0  0  0
 20 18  1  0  0  0  0
 21 23  1  0  0  0  0
 22 21  1  0  0  0  0
 23 17  1  0  0  0  0
 24 25  2  0  0  0  0
 24 27  1  0  0  0  0
 26 27  2  0  0  0  0
 26 31  1  0  0  0  0
 27 28  1  0  0  0  0
 28 34  1  0  0  0  0
 28 29  2  0  0  0  0
 30 29  1  0  0  0  0
 30 33  1  0  0  0  0
 31 30  2  0  0  0  0
 32 26  1  0  0  0  0
 34 35  2  0  0  0  0
 35 39  1  0  0  0  0
 36 35  1  0  0  0  0
 36 40  1  0  0  0  0
 37 36  2  0  0  0  0
 38 37  1  0  0  0  0
 38 34  1  0  0  0  0
 41 37  1  0  0  0  0
M  END
>  <minimizedAffinity>
-4.83494186

>  <minimizedRMSD>
1.76189041

$$$$
