
 OpenBabel03242522403D

 42 45  0  0  0  0  0  0  0  0999 V2000
   47.3420   32.2520   47.8160 C   0  0  0  0  0  0  0  0  0  0  0  0
   47.0900   31.2900   46.8010 C   0  0  0  0  0  0  0  0  0  0  0  0
   47.6710   30.0320   46.9490 C   0  0  0  0  0  0  0  0  0  0  0  0
   48.4450   29.8000   48.0540 N   0  0  0  0  0  0  0  0  0  0  0  0
   48.6480   30.7300   48.9710 C   0  0  0  0  0  0  0  0  0  0  0  0
   48.1100   31.9420   48.8620 N   0  0  0  0  0  0  0  0  0  0  0  0
   46.9350   33.2440   47.7820 H   0  0  0  0  0  0  0  0  0  0  0  0
   47.4970   29.2820   46.1940 H   0  0  0  0  0  0  0  0  0  0  0  0
   46.2410   31.6440   45.6620 C   0  0  0  0  0  0  0  0  0  0  0  0
   46.1500   30.7080   45.0330 H   0  0  0  0  0  0  0  0  0  0  0  0
   45.2090   31.9120   45.8950 H   0  0  0  0  0  0  0  0  0  0  0  0
   46.9910   32.6600   44.8280 C   0  0  0  0  0  0  0  0  0  0  0  0
   47.9210   33.0210   45.3590 H   0  0  0  0  0  0  0  0  0  0  0  0
   47.3950   32.1920   43.8970 H   0  0  0  0  0  0  0  0  0  0  0  0
   46.5030   34.5040   43.2860 C   0  0  0  0  0  0  0  0  0  0  0  0
   46.2380   33.8620   44.4820 C   0  0  0  0  0  0  0  0  0  0  0  0
   45.2960   34.3000   45.3620 C   0  0  0  0  0  0  0  0  0  0  0  0
   44.5740   35.4330   45.0490 C   0  0  0  0  0  0  0  0  0  0  0  0
   44.7790   36.1240   43.8860 C   0  0  0  0  0  0  0  0  0  0  0  0
   45.7520   35.6220   43.0360 C   0  0  0  0  0  0  0  0  0  0  0  0
   45.0210   33.8790   46.3020 H   0  0  0  0  0  0  0  0  0  0  0  0
   43.7960   35.8600   45.6960 H   0  0  0  0  0  0  0  0  0  0  0  0
   44.2520   37.0220   43.5700 H   0  0  0  0  0  0  0  0  0  0  0  0
   45.9390   36.1480   42.1020 H   0  0  0  0  0  0  0  0  0  0  0  0
   47.7000   33.9780   42.1340 S   0  0  0  0  0  0  0  0  0  0  0  0
   49.0950   34.4440   42.4860 O   0  0  0  0  0  0  0  0  0  0  0  0
   47.4170   34.6480   40.7970 O   0  0  0  0  0  0  0  0  0  0  0  0
   47.7350   32.6400   41.9420 H   0  0  0  0  0  0  0  0  0  0  0  0
   49.4980   30.3700   50.1620 C   0  0  0  0  0  0  0  0  0  0  0  0
   49.1100   29.4690   50.6810 H   0  0  0  0  0  0  0  0  0  0  0  0
   49.4290   31.2370   50.8510 H   0  0  0  0  0  0  0  0  0  0  0  0
   51.5620   29.0150   49.9030 C   0  0  0  0  0  3  0  0  0  0  0  0
   50.9190   30.2290   49.7710 C   0  0  0  0  0  0  0  0  0  0  0  0
   51.5610   31.3630   49.2730 C   0  0  0  0  0  0  0  0  0  0  0  0
   51.0310   32.2810   49.1870 H   0  0  0  0  0  0  0  0  0  0  0  0
   52.8840   31.1930   48.9200 C   0  0  0  0  0  0  0  0  0  0  0  0
   53.5670   30.0000   49.0340 C   0  0  0  0  0  0  0  0  0  0  0  0
   52.8860   28.9020   49.5330 C   0  0  0  0  0  3  0  0  0  0  0  0
   54.8580   30.2010   48.5900 O   0  0  0  0  0  0  0  0  0  0  0  0
   55.0270   31.5840   48.3410 C   0  0  0  0  0  3  0  0  0  0  0  0
   55.4520   31.7800   47.3260 H   0  0  0  0  0  0  0  0  0  0  0  0
   53.7400   32.1560   48.4020 O   0  0  0  0  0  0  0  0  0  0  0  0
  1  6  1  0  0  0  0
  2  3  1  0  0  0  0
  2  1  2  0  0  0  0
  3  4  2  0  0  0  0
  4  5  1  0  0  0  0
  5 29  1  0  0  0  0
  6  5  2  0  0  0  0
  7  1  1  0  0  0  0
  8  3  1  0  0  0  0
  9 11  1  0  0  0  0
  9  2  1  0  0  0  0
 10  9  1  0  0  0  0
 12 13  1  0  0  0  0
 12  9  1  0  0  0  0
 14 12  1  0  0  0  0
 15 16  1  0  0  0  0
 16 12  1  0  0  0  0
 16 17  2  0  0  0  0
 17 21  1  0  0  0  0
 18 17  1  0  0  0  0
 18 22  1  0  0  0  0
 19 18  2  0  0  0  0
 20 15  2  0  0  0  0
 20 19  1  0  0  0  0
 23 19  1  0  0  0  0
 24 20  1  0  0  0  0
 25 26  2  0  0  0  0
 25 15  1  0  0  0  0
 27 25  2  0  0  0  0
 28 25  1  0  0  0  0
 29 30  1  0  0  0  0
 29 31  1  0  0  0  0
 33 32  1  0  0  0  0
 33 29  1  0  0  0  0
 34 33  2  0  0  0  0
 35 34  1  0  0  0  0
 36 37  2  0  0  0  0
 36 34  1  0  0  0  0
 37 38  1  0  0  0  0
 38 32  2  0  0  0  0
 39 37  1  0  0  0  0
 40 42  1  0  0  0  0
 40 39  1  0  0  0  0
 41 40  1  0  0  0  0
 42 36  1  0  0  0  0
M  END
>  <minimizedAffinity>
-5.55006933

>  <minimizedRMSD>
0.573279917

$$$$
