
 OpenBabel03242517533D

 40 43  0  0  0  0  0  0  0  0999 V2000
   45.5430   34.3830   44.0230 C   0  0  0  0  0  0  0  0  0  0  0  0
   46.4830   34.7800   43.0470 C   0  0  0  0  0  0  0  0  0  0  0  0
   47.6880   34.1120   42.9470 C   0  0  0  0  0  0  0  0  0  0  0  0
   47.8580   33.1110   43.8190 N   0  0  0  0  0  0  0  0  0  0  0  0
   46.9890   32.7300   44.7340 C   0  0  0  0  0  0  0  0  0  0  0  0
   45.8240   33.3740   44.8320 N   0  0  0  0  0  0  0  0  0  0  0  0
   44.6280   34.9540   44.0380 H   0  0  0  0  0  0  0  0  0  0  0  0
   46.2760   35.6000   42.3760 H   0  0  0  0  0  0  0  0  0  0  0  0
   48.7300   34.4500   41.9660 C   0  0  0  0  0  0  0  0  0  0  0  0
   49.5130   35.0680   42.4500 H   0  0  0  0  0  0  0  0  0  0  0  0
   49.2040   33.5370   41.6070 H   0  0  0  0  0  0  0  0  0  0  0  0
   48.1540   35.1350   40.7410 C   0  0  0  0  0  0  0  0  0  0  0  0
   48.7410   36.0370   40.4890 H   0  0  0  0  0  0  0  0  0  0  0  0
   47.1440   35.4920   41.0440 H   0  0  0  0  0  0  0  0  0  0  0  0
   47.4170   33.0050   39.8630 C   0  0  0  0  0  3  0  0  0  0  0  0
   48.0260   34.2250   39.5930 C   0  0  0  0  0  0  0  0  0  0  0  0
   48.4390   34.4480   38.2960 C   0  0  0  0  0  0  0  0  0  0  0  0
   48.9090   35.4050   38.1150 H   0  0  0  0  0  0  0  0  0  0  0  0
   48.2640   33.5170   37.2990 C   0  0  0  0  0  0  0  0  0  0  0  0
   47.6500   32.3090   37.6140 C   0  0  0  0  0  0  0  0  0  0  0  0
   47.2140   32.0310   38.9070 C   0  0  0  0  0  3  0  0  0  0  0  0
   47.6110   31.5710   36.4150 O   0  0  0  0  0  0  0  0  0  0  0  0
   48.4570   32.1720   35.4540 C   0  0  0  0  0  3  0  0  0  0  0  0
   48.0480   32.1360   34.4250 H   0  0  0  0  0  0  0  0  0  0  0  0
   48.5790   33.4890   35.9470 O   0  0  0  0  0  0  0  0  0  0  0  0
   47.2100   31.6880   45.6140 O   0  0  0  0  0  0  0  0  0  0  0  0
   45.6140   30.4100   47.0250 C   0  0  0  0  0  0  0  0  0  0  0  0
   46.4780   31.4330   46.7620 C   0  0  0  0  0  0  0  0  0  0  0  0
   46.6770   32.3750   47.7640 C   0  0  0  0  0  0  0  0  0  0  0  0
   46.0230   32.2790   48.9900 C   0  0  0  0  0  0  0  0  0  0  0  0
   45.1620   31.2350   49.2180 C   0  0  0  0  0  0  0  0  0  0  0  0
   44.9600   30.2930   48.2200 C   0  0  0  0  0  0  0  0  0  0  0  0
   47.3390   33.2250   47.6640 H   0  0  0  0  0  0  0  0  0  0  0  0
   46.1980   33.0370   49.7680 H   0  0  0  0  0  0  0  0  0  0  0  0
   44.6260   31.1120   50.1540 H   0  0  0  0  0  0  0  0  0  0  0  0
   44.3030   29.4400   48.3070 H   0  0  0  0  0  0  0  0  0  0  0  0
   45.4220   29.2750   45.7140 S   0  0  0  0  0  0  0  0  0  0  0  0
   44.7700   29.9120   44.5160 O   0  0  0  0  0  0  0  0  0  0  0  0
   44.4440   28.2040   46.1820 O   0  0  0  0  0  0  0  0  0  0  0  0
   46.6190   28.7110   45.3240 H   0  0  0  0  0  0  0  0  0  0  0  0
  1  7  1  0  0  0  0
  1  6  1  0  0  0  0
  2  1  2  0  0  0  0
  3  2  1  0  0  0  0
  3  4  2  0  0  0  0
  4  5  1  0  0  0  0
  5  6  2  0  0  0  0
  5 26  1  0  0  0  0
  8  2  1  0  0  0  0
  9 10  1  0  0  0  0
  9  3  1  0  0  0  0
 11  9  1  0  0  0  0
 12 14  1  0  0  0  0
 12  9  1  0  0  0  0
 13 12  1  0  0  0  0
 16 15  1  0  0  0  0
 16 12  1  0  0  0  0
 17 16  2  0  0  0  0
 18 17  1  0  0  0  0
 19 20  2  0  0  0  0
 19 17  1  0  0  0  0
 20 21  1  0  0  0  0
 21 15  2  0  0  0  0
 22 20  1  0  0  0  0
 23 25  1  0  0  0  0
 23 22  1  0  0  0  0
 24 23  1  0  0  0  0
 25 19  1  0  0  0  0
 26 28  1  0  0  0  0
 27 32  1  0  0  0  0
 28 27  2  0  0  0  0
 28 29  1  0  0  0  0
 29 30  2  0  0  0  0
 30 31  1  0  0  0  0
 30 34  1  0  0  0  0
 31 35  1  0  0  0  0
 32 36  1  0  0  0  0
 32 31  2  0  0  0  0
 33 29  1  0  0  0  0
 37 39  2  0  0  0  0
 37 27  1  0  0  0  0
 38 37  2  0  0  0  0
 40 37  1  0  0  0  0
M  END
>  <minimizedAffinity>
-5.93893433

>  <minimizedRMSD>
1.54398263

$$$$
