REMARK  Name = 
REMARK  5 active torsions:
REMARK  status: ('A' for Active; 'I' for Inactive)
REMARK    1  A    between atoms: C_2  and  C_12
REMARK    2  A    between atoms: C_3  and  C_7
REMARK    3  A    between atoms: C_12  and  C_14
REMARK    4  A    between atoms: N_16  and  C_20
REMARK    5  A    between atoms: C_20  and  C_32
REMARK                            x       y       z     vdW  Elec       q    Type
REMARK                         _______ _______ _______ _____ _____    ______ ____
ROOT
ATOM      1  C   UNL     1      45.766  34.150  40.740  0.00  0.00    +0.000 A 
ATOM      2  C   UNL     1      44.419  34.127  40.536  0.00  0.00    +0.000 A 
ATOM      3  N   UNL     1      44.225  33.430  39.394  0.00  0.00    +0.000 N 
ATOM      4  C   UNL     1      45.411  33.043  38.921  0.00  0.00    +0.000 A 
ATOM      5  N   UNL     1      46.361  33.486  39.750  0.00  0.00    +0.000 NA
ATOM      6  N   UNL     1      45.743  32.295  37.764  0.00  0.00    +0.000 N 
ATOM      7  H   UNL     1      43.652  34.573  41.155  0.00  0.00    +0.000 HD
ATOM      8  H   UNL     1      45.726  31.259  37.559  0.00  0.00    +0.000 HD
ATOM      9  H   UNL     1      46.085  32.667  36.856  0.00  0.00    +0.000 HD
ENDROOT
BRANCH   3  10
ATOM     10  C   UNL     1      42.970  33.116  38.734  0.00  0.00    +0.000 C 
ATOM     11  H   UNL     1      43.071  32.196  38.128  0.00  0.00    +0.000 HD
ATOM     12  H   UNL     1      42.139  33.001  39.443  0.00  0.00    +0.000 HD
BRANCH  10  14
ATOM     13  C   UNL     1      43.738  34.862  37.216  0.00  0.00    +0.000 A 
ATOM     14  C   UNL     1      42.651  34.207  37.773  0.00  0.00    +0.000 A 
ATOM     15  C   UNL     1      41.401  34.635  37.377  0.00  0.00    +0.000 A 
ATOM     16  H   UNL     1      40.574  34.105  37.829  0.00  0.00    +0.000 HD
ATOM     17  C   UNL     1      41.294  35.669  36.469  0.00  0.00    +0.000 A 
ATOM     18  C   UNL     1      42.386  36.309  35.926  0.00  0.00    +0.000 A 
ATOM     19  C   UNL     1      43.637  35.892  36.312  0.00  0.00    +0.000 A 
ATOM     20  O   UNL     1      41.892  37.295  35.053  0.00  0.00    +0.000 OA
ATOM     21  C   UNL     1      40.525  37.064  34.814  0.00  0.00    +0.000 C 
ATOM     22  H   UNL     1      39.935  37.998  34.754  0.00  0.00    +0.000 HD
ATOM     23  O   UNL     1      40.163  36.267  35.927  0.00  0.00    +0.000 OA
ENDBRANCH  10  14
ENDBRANCH   3  10
BRANCH   1  24
ATOM     24  C   UNL     1      46.502  34.799  41.872  0.00  0.00    +0.000 C 
ATOM     25  O   UNL     1      47.687  35.242  41.808  0.00  0.00    +0.000 OA
BRANCH  24  27
ATOM     26  C   UNL     1      45.215  36.156  43.452  0.00  0.00    +0.000 A 
ATOM     27  C   UNL     1      45.867  34.950  43.130  0.00  0.00    +0.000 A 
ATOM     28  C   UNL     1      45.812  33.991  44.131  0.00  0.00    +0.000 A 
ATOM     29  N   UNL     1      45.201  34.182  45.298  0.00  0.00    +0.000 NA
ATOM     30  C   UNL     1      44.587  35.372  45.552  0.00  0.00    +0.000 A 
ATOM     31  N   UNL     1      44.600  36.340  44.634  0.00  0.00    +0.000 NA
ATOM     32  H   UNL     1      45.187  36.983  42.752  0.00  0.00    +0.000 HD
ATOM     33  H   UNL     1      44.108  35.460  46.524  0.00  0.00    +0.000 HD
BRANCH  28  34
ATOM     34  C   UNL     1      46.452  32.738  43.887  0.00  0.00    +0.000 A 
ATOM     35  C   UNL     1      47.715  32.255  43.982  0.00  0.00    +0.000 A 
ATOM     36  C   UNL     1      48.033  31.018  43.682  0.00  0.00    +0.000 A 
ATOM     37  C   UNL     1      47.026  30.239  43.268  0.00  0.00    +0.000 A 
ATOM     38  S   UNL     1      45.556  31.306  43.304  0.00  0.00    +0.000 S 
ATOM     39  H   UNL     1      48.443  33.013  44.338  0.00  0.00    +0.000 HD
ATOM     40  H   UNL     1      49.020  30.577  43.739  0.00  0.00    +0.000 HD
ATOM     41  H   UNL     1      47.035  29.126  42.947  0.00  0.00    +0.000 HD
ENDBRANCH  28  34
ENDBRANCH  24  27
ENDBRANCH   1  24
TORSDOF 5
