
 OpenBabel03242517533D

 40 43  0  0  0  0  0  0  0  0999 V2000
   45.2930   34.2680   43.8710 C   0  0  0  0  0  0  0  0  0  0  0  0
   46.3140   34.8430   43.0810 C   0  0  0  0  0  0  0  0  0  0  0  0
   47.5900   34.3140   43.1220 C   0  0  0  0  0  0  0  0  0  0  0  0
   47.7450   33.2650   43.9390 N   0  0  0  0  0  0  0  0  0  0  0  0
   46.8020   32.7190   44.6810 C   0  0  0  0  0  0  0  0  0  0  0  0
   45.5690   33.2280   44.6420 N   0  0  0  0  0  0  0  0  0  0  0  0
   44.3270   34.7370   43.7840 H   0  0  0  0  0  0  0  0  0  0  0  0
   46.1130   35.6910   42.4450 H   0  0  0  0  0  0  0  0  0  0  0  0
   48.7170   34.8410   42.3400 C   0  0  0  0  0  0  0  0  0  0  0  0
   49.1400   35.7320   42.8450 H   0  0  0  0  0  0  0  0  0  0  0  0
   49.5040   34.0900   42.2810 H   0  0  0  0  0  0  0  0  0  0  0  0
   48.3180   35.1470   40.9080 C   0  0  0  0  0  0  0  0  0  0  0  0
   49.0730   35.7950   40.4260 H   0  0  0  0  0  0  0  0  0  0  0  0
   47.3860   35.7500   40.9780 H   0  0  0  0  0  0  0  0  0  0  0  0
   49.0380   32.9510   40.1940 C   0  0  0  0  0  3  0  0  0  0  0  0
   48.0560   33.9320   40.1230 C   0  0  0  0  0  0  0  0  0  0  0  0
   46.9560   33.6640   39.3340 C   0  0  0  0  0  0  0  0  0  0  0  0
   46.2090   34.4430   39.2980 H   0  0  0  0  0  0  0  0  0  0  0  0
   46.8190   32.4840   38.6410 C   0  0  0  0  0  0  0  0  0  0  0  0
   47.8280   31.5300   38.7410 C   0  0  0  0  0  0  0  0  0  0  0  0
   48.9580   31.7480   39.5220 C   0  0  0  0  0  3  0  0  0  0  0  0
   47.4170   30.4490   37.9370 O   0  0  0  0  0  0  0  0  0  0  0  0
   46.3380   30.8460   37.1130 C   0  0  0  0  0  3  0  0  0  0  0  0
   45.5750   30.0550   36.9780 H   0  0  0  0  0  0  0  0  0  0  0  0
   45.8400   31.9760   37.7990 O   0  0  0  0  0  0  0  0  0  0  0  0
   47.0120   31.6350   45.5100 O   0  0  0  0  0  0  0  0  0  0  0  0
   45.5510   30.3540   47.0600 C   0  0  0  0  0  0  0  0  0  0  0  0
   46.3580   31.3970   46.7080 C   0  0  0  0  0  0  0  0  0  0  0  0
   46.5790   32.3830   47.6620 C   0  0  0  0  0  0  0  0  0  0  0  0
   46.0010   32.3110   48.9270 C   0  0  0  0  0  0  0  0  0  0  0  0
   45.1950   31.2460   49.2440 C   0  0  0  0  0  0  0  0  0  0  0  0
   44.9720   30.2600   48.2940 C   0  0  0  0  0  0  0  0  0  0  0  0
   47.2010   33.2530   47.4930 H   0  0  0  0  0  0  0  0  0  0  0  0
   46.1920   33.1040   49.6660 H   0  0  0  0  0  0  0  0  0  0  0  0
   44.7200   31.1400   50.2140 H   0  0  0  0  0  0  0  0  0  0  0  0
   44.3550   29.3880   48.4520 H   0  0  0  0  0  0  0  0  0  0  0  0
   45.3270   29.1640   45.8040 S   0  0  0  0  0  0  0  0  0  0  0  0
   44.6620   29.7540   44.5890 O   0  0  0  0  0  0  0  0  0  0  0  0
   44.3450   28.1260   46.3350 O   0  0  0  0  0  0  0  0  0  0  0  0
   46.5110   28.5700   45.4210 H   0  0  0  0  0  0  0  0  0  0  0  0
  1  6  1  0  0  0  0
  2  3  1  0  0  0  0
  2  1  2  0  0  0  0
  3  4  2  0  0  0  0
  4  5  1  0  0  0  0
  5 26  1  0  0  0  0
  6  5  2  0  0  0  0
  7  1  1  0  0  0  0
  8  2  1  0  0  0  0
  9 10  1  0  0  0  0
  9  3  1  0  0  0  0
 11  9  1  0  0  0  0
 12 14  1  0  0  0  0
 12  9  1  0  0  0  0
 13 12  1  0  0  0  0
 16 15  1  0  0  0  0
 16 12  1  0  0  0  0
 17 16  2  0  0  0  0
 18 17  1  0  0  0  0
 19 20  2  0  0  0  0
 19 17  1  0  0  0  0
 20 21  1  0  0  0  0
 21 15  2  0  0  0  0
 22 20  1  0  0  0  0
 23 25  1  0  0  0  0
 23 22  1  0  0  0  0
 24 23  1  0  0  0  0
 25 19  1  0  0  0  0
 26 28  1  0  0  0  0
 27 32  1  0  0  0  0
 28 27  2  0  0  0  0
 28 29  1  0  0  0  0
 29 30  2  0  0  0  0
 30 31  1  0  0  0  0
 30 34  1  0  0  0  0
 31 35  1  0  0  0  0
 32 36  1  0  0  0  0
 32 31  2  0  0  0  0
 33 29  1  0  0  0  0
 37 39  2  0  0  0  0
 37 27  1  0  0  0  0
 38 37  2  0  0  0  0
 40 37  1  0  0  0  0
M  END
>  <minimizedAffinity>
-5.58009195

>  <minimizedRMSD>
0.991094828

$$$$
