
 OpenBabel03242517533D

 40 43  0  0  0  0  0  0  0  0999 V2000
   45.2880   34.2630   43.8610 C   0  0  0  0  0  0  0  0  0  0  0  0
   46.3100   34.8470   43.0800 C   0  0  0  0  0  0  0  0  0  0  0  0
   47.5900   34.3280   43.1310 C   0  0  0  0  0  0  0  0  0  0  0  0
   47.7460   33.2780   43.9470 N   0  0  0  0  0  0  0  0  0  0  0  0
   46.8010   32.7240   44.6790 C   0  0  0  0  0  0  0  0  0  0  0  0
   45.5640   33.2240   44.6320 N   0  0  0  0  0  0  0  0  0  0  0  0
   44.3190   34.7250   43.7680 H   0  0  0  0  0  0  0  0  0  0  0  0
   46.1090   35.6950   42.4450 H   0  0  0  0  0  0  0  0  0  0  0  0
   48.7190   34.8640   42.3580 C   0  0  0  0  0  0  0  0  0  0  0  0
   49.1250   35.7630   42.8630 H   0  0  0  0  0  0  0  0  0  0  0  0
   49.5160   34.1230   42.3120 H   0  0  0  0  0  0  0  0  0  0  0  0
   48.3330   35.1570   40.9200 C   0  0  0  0  0  0  0  0  0  0  0  0
   49.0710   35.8330   40.4510 H   0  0  0  0  0  0  0  0  0  0  0  0
   47.3780   35.7250   40.9750 H   0  0  0  0  0  0  0  0  0  0  0  0
   49.0970   32.9490   40.2930 C   0  0  0  0  0  3  0  0  0  0  0  0
   48.1290   33.9340   40.1300 C   0  0  0  0  0  0  0  0  0  0  0  0
   47.0970   33.6630   39.2560 C   0  0  0  0  0  0  0  0  0  0  0  0
   46.3600   34.4460   39.1490 H   0  0  0  0  0  0  0  0  0  0  0  0
   47.0110   32.4750   38.5670 C   0  0  0  0  0  0  0  0  0  0  0  0
   48.0010   31.5170   38.7620 C   0  0  0  0  0  0  0  0  0  0  0  0
   49.0650   31.7380   39.6320 C   0  0  0  0  0  3  0  0  0  0  0  0
   47.6520   30.4280   37.9400 O   0  0  0  0  0  0  0  0  0  0  0  0
   46.6460   30.8220   37.0240 C   0  0  0  0  0  3  0  0  0  0  0  0
   45.8920   30.0330   36.8370 H   0  0  0  0  0  0  0  0  0  0  0  0
   46.1010   31.9620   37.6530 O   0  0  0  0  0  0  0  0  0  0  0  0
   47.0120   31.6390   45.5080 O   0  0  0  0  0  0  0  0  0  0  0  0
   45.5510   30.3560   47.0550 C   0  0  0  0  0  0  0  0  0  0  0  0
   46.3570   31.3990   46.7050 C   0  0  0  0  0  0  0  0  0  0  0  0
   46.5770   32.3840   47.6610 C   0  0  0  0  0  0  0  0  0  0  0  0
   45.9990   32.3090   48.9260 C   0  0  0  0  0  0  0  0  0  0  0  0
   45.1930   31.2440   49.2400 C   0  0  0  0  0  0  0  0  0  0  0  0
   44.9710   30.2590   48.2890 C   0  0  0  0  0  0  0  0  0  0  0  0
   47.1990   33.2540   47.4940 H   0  0  0  0  0  0  0  0  0  0  0  0
   46.1880   33.1010   49.6660 H   0  0  0  0  0  0  0  0  0  0  0  0
   44.7170   31.1360   50.2090 H   0  0  0  0  0  0  0  0  0  0  0  0
   44.3530   29.3860   48.4440 H   0  0  0  0  0  0  0  0  0  0  0  0
   45.3280   29.1670   45.7970 S   0  0  0  0  0  0  0  0  0  0  0  0
   44.6660   29.7590   44.5810 O   0  0  0  0  0  0  0  0  0  0  0  0
   44.3440   28.1290   46.3240 O   0  0  0  0  0  0  0  0  0  0  0  0
   46.5120   28.5730   45.4150 H   0  0  0  0  0  0  0  0  0  0  0  0
  1  6  1  0  0  0  0
  2  3  1  0  0  0  0
  2  1  2  0  0  0  0
  3  4  2  0  0  0  0
  4  5  1  0  0  0  0
  5 26  1  0  0  0  0
  6  5  2  0  0  0  0
  7  1  1  0  0  0  0
  8  2  1  0  0  0  0
  9 10  1  0  0  0  0
  9  3  1  0  0  0  0
 11  9  1  0  0  0  0
 12 14  1  0  0  0  0
 12  9  1  0  0  0  0
 13 12  1  0  0  0  0
 16 15  1  0  0  0  0
 16 12  1  0  0  0  0
 17 16  2  0  0  0  0
 18 17  1  0  0  0  0
 19 20  2  0  0  0  0
 19 17  1  0  0  0  0
 20 21  1  0  0  0  0
 21 15  2  0  0  0  0
 22 20  1  0  0  0  0
 23 25  1  0  0  0  0
 23 22  1  0  0  0  0
 24 23  1  0  0  0  0
 25 19  1  0  0  0  0
 26 28  1  0  0  0  0
 27 32  1  0  0  0  0
 28 27  2  0  0  0  0
 28 29  1  0  0  0  0
 29 30  2  0  0  0  0
 30 31  1  0  0  0  0
 30 34  1  0  0  0  0
 31 35  1  0  0  0  0
 32 36  1  0  0  0  0
 32 31  2  0  0  0  0
 33 29  1  0  0  0  0
 37 39  2  0  0  0  0
 37 27  1  0  0  0  0
 38 37  2  0  0  0  0
 40 37  1  0  0  0  0
M  END
>  <minimizedAffinity>
-5.60132122

>  <minimizedRMSD>
0.684348941

$$$$
