
 OpenBabel03242522403D

 42 45  0  0  0  0  0  0  0  0999 V2000
   47.2940   32.3510   47.5490 C   0  0  0  0  0  0  0  0  0  0  0  0
   47.0580   31.3730   46.5450 C   0  0  0  0  0  0  0  0  0  0  0  0
   47.6250   30.1130   46.7280 C   0  0  0  0  0  0  0  0  0  0  0  0
   48.3690   29.8930   47.8550 N   0  0  0  0  0  0  0  0  0  0  0  0
   48.5590   30.8370   48.7620 C   0  0  0  0  0  0  0  0  0  0  0  0
   48.0350   32.0510   48.6190 N   0  0  0  0  0  0  0  0  0  0  0  0
   46.8970   33.3450   47.4890 H   0  0  0  0  0  0  0  0  0  0  0  0
   47.4630   29.3510   45.9820 H   0  0  0  0  0  0  0  0  0  0  0  0
   46.2400   31.7150   45.3800 C   0  0  0  0  0  0  0  0  0  0  0  0
   46.2270   30.7940   44.7230 H   0  0  0  0  0  0  0  0  0  0  0  0
   45.1870   31.9210   45.5750 H   0  0  0  0  0  0  0  0  0  0  0  0
   46.9690   32.7930   44.6080 C   0  0  0  0  0  0  0  0  0  0  0  0
   47.8930   33.1390   45.1570 H   0  0  0  0  0  0  0  0  0  0  0  0
   47.3800   32.3890   43.6490 H   0  0  0  0  0  0  0  0  0  0  0  0
   46.4170   34.6960   43.1610 C   0  0  0  0  0  0  0  0  0  0  0  0
   46.1920   33.9990   44.3350 C   0  0  0  0  0  0  0  0  0  0  0  0
   45.2690   34.3860   45.2580 C   0  0  0  0  0  0  0  0  0  0  0  0
   44.5250   35.5220   45.0140 C   0  0  0  0  0  0  0  0  0  0  0  0
   44.6910   36.2650   43.8780 C   0  0  0  0  0  0  0  0  0  0  0  0
   45.6470   35.8140   42.9820 C   0  0  0  0  0  0  0  0  0  0  0  0
   45.0250   33.9200   46.1860 H   0  0  0  0  0  0  0  0  0  0  0  0
   43.7600   35.9100   45.7000 H   0  0  0  0  0  0  0  0  0  0  0  0
   44.1440   37.1690   43.6170 H   0  0  0  0  0  0  0  0  0  0  0  0
   45.8020   36.3830   42.0670 H   0  0  0  0  0  0  0  0  0  0  0  0
   47.5890   34.2380   41.9560 S   0  0  0  0  0  0  0  0  0  0  0  0
   48.7930   35.1520   41.9340 O   0  0  0  0  0  0  0  0  0  0  0  0
   46.9680   34.4180   40.5790 O   0  0  0  0  0  0  0  0  0  0  0  0
   48.0250   32.9620   42.0640 H   0  0  0  0  0  0  0  0  0  0  0  0
   49.3760   30.4910   49.9780 C   0  0  0  0  0  0  0  0  0  0  0  0
   49.5210   29.3940   50.0730 H   0  0  0  0  0  0  0  0  0  0  0  0
   48.7860   30.8500   50.8470 H   0  0  0  0  0  0  0  0  0  0  0  0
   50.8940   32.2200   50.9120 C   0  0  0  0  0  3  0  0  0  0  0  0
   50.6590   31.2310   49.9800 C   0  0  0  0  0  0  0  0  0  0  0  0
   51.5980   30.8820   49.0090 C   0  0  0  0  0  0  0  0  0  0  0  0
   51.3790   30.1130   48.3060 H   0  0  0  0  0  0  0  0  0  0  0  0
   52.7810   31.5920   49.0400 C   0  0  0  0  0  0  0  0  0  0  0  0
   53.0600   32.5890   49.9530 C   0  0  0  0  0  0  0  0  0  0  0  0
   52.0940   32.8980   50.8980 C   0  0  0  0  0  3  0  0  0  0  0  0
   54.3240   33.0720   49.6860 O   0  0  0  0  0  0  0  0  0  0  0  0
   54.7800   32.4730   48.4870 C   0  0  0  0  0  3  0  0  0  0  0  0
   55.7970   32.0250   48.6030 H   0  0  0  0  0  0  0  0  0  0  0  0
   53.8690   31.4400   48.1910 O   0  0  0  0  0  0  0  0  0  0  0  0
  1  6  1  0  0  0  0
  2  3  1  0  0  0  0
  2  1  2  0  0  0  0
  3  4  2  0  0  0  0
  4  5  1  0  0  0  0
  5 29  1  0  0  0  0
  6  5  2  0  0  0  0
  7  1  1  0  0  0  0
  8  3  1  0  0  0  0
  9 11  1  0  0  0  0
  9  2  1  0  0  0  0
 10  9  1  0  0  0  0
 12 13  1  0  0  0  0
 12  9  1  0  0  0  0
 14 12  1  0  0  0  0
 15 16  1  0  0  0  0
 16 12  1  0  0  0  0
 16 17  2  0  0  0  0
 17 21  1  0  0  0  0
 18 17  1  0  0  0  0
 18 22  1  0  0  0  0
 19 18  2  0  0  0  0
 20 15  2  0  0  0  0
 20 19  1  0  0  0  0
 23 19  1  0  0  0  0
 24 20  1  0  0  0  0
 25 28  1  0  0  0  0
 25 15  1  0  0  0  0
 26 25  2  0  0  0  0
 27 25  2  0  0  0  0
 29 33  1  0  0  0  0
 29 30  1  0  0  0  0
 29 31  1  0  0  0  0
 33 32  2  0  0  0  0
 34 36  2  0  0  0  0
 34 33  1  0  0  0  0
 35 34  1  0  0  0  0
 36 37  1  0  0  0  0
 37 38  2  0  0  0  0
 38 32  1  0  0  0  0
 39 37  1  0  0  0  0
 40 41  1  0  0  0  0
 40 39  1  0  0  0  0
 42 40  1  0  0  0  0
 42 36  1  0  0  0  0
M  END
>  <minimizedAffinity>
-6.05827618

>  <minimizedRMSD>
1.33731472

$$$$
