
 OpenBabel03252503193D

 41 45  0  0  0  0  0  0  0  0999 V2000
   45.7450   33.9000   42.1790 C   0  0  0  0  0  0  0  0  0  0  0  0
   46.1990   33.6620   43.4410 C   0  0  0  0  0  0  0  0  0  0  0  0
   45.3850   34.3530   44.2700 N   0  0  0  0  0  0  0  0  0  0  0  0
   44.4680   34.9890   43.5370 C   0  0  0  0  0  0  0  0  0  0  0  0
   44.6900   34.7100   42.2490 N   0  0  0  0  0  0  0  0  0  0  0  0
   43.4010   35.8350   43.9280 N   0  0  0  0  0  0  0  0  0  0  0  0
   47.0400   33.0470   43.7330 H   0  0  0  0  0  0  0  0  0  0  0  0
   42.4360   35.6320   44.3070 H   0  0  0  0  0  0  0  0  0  0  0  0
   43.3860   36.8740   43.9050 H   0  0  0  0  0  0  0  0  0  0  0  0
   45.4370   34.4380   45.7190 C   0  0  0  0  0  0  0  0  0  0  0  0
   46.2000   35.1730   46.0360 H   0  0  0  0  0  0  0  0  0  0  0  0
   44.4660   34.7000   46.1600 H   0  0  0  0  0  0  0  0  0  0  0  0
   45.2670   32.7050   47.4250 C   0  0  0  0  0  3  0  0  0  0  0  0
   45.8850   33.1240   46.2570 C   0  0  0  0  0  0  0  0  0  0  0  0
   46.8400   32.2840   45.7260 C   0  0  0  0  0  0  0  0  0  0  0  0
   47.3040   32.6380   44.8170 H   0  0  0  0  0  0  0  0  0  0  0  0
   47.1290   31.0950   46.3660 C   0  0  0  0  0  0  0  0  0  0  0  0
   46.5060   30.6950   47.5260 C   0  0  0  0  0  0  0  0  0  0  0  0
   45.5510   31.5230   48.0660 C   0  0  0  0  0  3  0  0  0  0  0  0
   47.0530   29.4480   47.8780 O   0  0  0  0  0  0  0  0  0  0  0  0
   47.7760   28.9320   46.7880 C   0  0  0  0  0  3  0  0  0  0  0  0
   48.7030   28.4100   47.0950 H   0  0  0  0  0  0  0  0  0  0  0  0
   48.0380   30.0990   46.0310 O   0  0  0  0  0  0  0  0  0  0  0  0
   46.3040   33.3650   40.8970 C   0  0  0  0  0  0  0  0  0  0  0  0
   46.7580   34.0750   39.9510 O   0  0  0  0  0  0  0  0  0  0  0  0
   47.5840   31.2900   40.6690 C   0  0  0  0  0  0  0  0  0  0  0  0
   46.3480   31.9650   40.6780 C   0  0  0  0  0  0  0  0  0  0  0  0
   45.2520   31.1430   40.4610 C   0  0  0  0  0  0  0  0  0  0  0  0
   45.3460   29.8310   40.2610 N   0  0  0  0  0  0  0  0  0  0  0  0
   46.5720   29.2340   40.2640 C   0  0  0  0  0  0  0  0  0  0  0  0
   47.6700   29.9630   40.4660 N   0  0  0  0  0  0  0  0  0  0  0  0
   48.5150   31.8220   40.8280 H   0  0  0  0  0  0  0  0  0  0  0  0
   46.5760   28.1600   40.0940 H   0  0  0  0  0  0  0  0  0  0  0  0
   43.9590   31.7490   40.4510 C   0  0  0  0  0  0  0  0  0  0  0  0
   43.2530   32.5230   39.5910 C   0  0  0  0  0  0  0  0  0  0  0  0
   42.0410   32.9550   39.8450 C   0  0  0  0  0  0  0  0  0  0  0  0
   41.5230   32.5850   41.0230 C   0  0  0  0  0  0  0  0  0  0  0  0
   42.8130   31.5770   41.8120 S   0  0  0  0  0  0  0  0  0  0  0  0
   43.8080   32.7490   38.6560 H   0  0  0  0  0  0  0  0  0  0  0  0
   41.4300   33.5720   39.1990 H   0  0  0  0  0  0  0  0  0  0  0  0
   40.4890   32.8260   41.4860 H   0  0  0  0  0  0  0  0  0  0  0  0
  1  5  1  0  0  0  0
  1  2  2  0  0  0  0
  2  7  1  0  0  0  0
  2  3  1  0  0  0  0
  3 10  1  0  0  0  0
  4  6  1  0  0  0  0
  4  3  1  0  0  0  0
  5  4  2  0  0  0  0
  6  8  1  0  0  0  0
  9  6  1  0  0  0  0
 10 11  1  0  0  0  0
 10 12  1  0  0  0  0
 10 14  1  0  0  0  0
 13 19  1  0  0  0  0
 14 13  2  0  0  0  0
 15 14  1  0  0  0  0
 15 17  2  0  0  0  0
 16 15  1  0  0  0  0
 17 18  1  0  0  0  0
 18 20  1  0  0  0  0
 18 19  2  0  0  0  0
 21 22  1  0  0  0  0
 21 20  1  0  0  0  0
 23 17  1  0  0  0  0
 23 21  1  0  0  0  0
 24  1  1  0  0  0  0
 25 24  2  0  0  0  0
 26 27  1  0  0  0  0
 26 32  1  0  0  0  0
 27 24  1  0  0  0  0
 28 27  2  0  0  0  0
 29 30  2  0  0  0  0
 29 28  1  0  0  0  0
 30 31  1  0  0  0  0
 31 26  2  0  0  0  0
 33 30  1  0  0  0  0
 34 28  1  0  0  0  0
 34 38  1  0  0  0  0
 35 36  1  0  0  0  0
 35 34  2  0  0  0  0
 36 37  2  0  0  0  0
 37 41  1  0  0  0  0
 37 38  1  0  0  0  0
 39 35  1  0  0  0  0
 40 36  1  0  0  0  0
M  END
>  <minimizedAffinity>
-4.93406343

>  <minimizedRMSD>
8.47402668

$$$$
