
 OpenBabel03252503193D

 41 45  0  0  0  0  0  0  0  0999 V2000
   43.4250   34.5020   40.8120 C   0  0  0  0  0  0  0  0  0  0  0  0
   44.2370   33.5480   41.3480 C   0  0  0  0  0  0  0  0  0  0  0  0
   44.4450   33.9130   42.6330 N   0  0  0  0  0  0  0  0  0  0  0  0
   43.7820   35.0460   42.8700 C   0  0  0  0  0  0  0  0  0  0  0  0
   43.1530   35.4100   41.7480 N   0  0  0  0  0  0  0  0  0  0  0  0
   43.6800   35.8260   44.0490 N   0  0  0  0  0  0  0  0  0  0  0  0
   44.6400   32.6740   40.8550 H   0  0  0  0  0  0  0  0  0  0  0  0
   43.0920   35.7220   44.9200 H   0  0  0  0  0  0  0  0  0  0  0  0
   44.2040   36.6950   44.2710 H   0  0  0  0  0  0  0  0  0  0  0  0
   45.2400   33.2360   43.6420 C   0  0  0  0  0  0  0  0  0  0  0  0
   45.2360   33.8110   44.5880 H   0  0  0  0  0  0  0  0  0  0  0  0
   44.8950   32.2110   43.8330 H   0  0  0  0  0  0  0  0  0  0  0  0
   47.3070   34.4260   43.1400 C   0  0  0  0  0  3  0  0  0  0  0  0
   46.6580   33.2030   43.1890 C   0  0  0  0  0  0  0  0  0  0  0  0
   47.3920   32.0970   42.8150 C   0  0  0  0  0  0  0  0  0  0  0  0
   46.8570   31.1590   42.8630 H   0  0  0  0  0  0  0  0  0  0  0  0
   48.7040   32.2560   42.4200 C   0  0  0  0  0  0  0  0  0  0  0  0
   49.3340   33.4790   42.3780 C   0  0  0  0  0  0  0  0  0  0  0  0
   48.6150   34.5900   42.7480 C   0  0  0  0  0  3  0  0  0  0  0  0
   50.6490   33.2510   41.9320 O   0  0  0  0  0  0  0  0  0  0  0  0
   50.9300   31.8740   42.0000 C   0  0  0  0  0  3  0  0  0  0  0  0
   51.5430   31.5180   41.1500 H   0  0  0  0  0  0  0  0  0  0  0  0
   49.6320   31.3080   42.0040 O   0  0  0  0  0  0  0  0  0  0  0  0
   42.8980   34.5620   39.4110 C   0  0  0  0  0  0  0  0  0  0  0  0
   42.4150   35.5970   38.8610 O   0  0  0  0  0  0  0  0  0  0  0  0
   44.0980   33.0280   37.9280 C   0  0  0  0  0  0  0  0  0  0  0  0
   42.9170   33.4000   38.6000 C   0  0  0  0  0  0  0  0  0  0  0  0
   41.8480   32.5430   38.3850 C   0  0  0  0  0  0  0  0  0  0  0  0
   41.9180   31.4610   37.6130 N   0  0  0  0  0  0  0  0  0  0  0  0
   43.0890   31.1520   36.9880 C   0  0  0  0  0  0  0  0  0  0  0  0
   44.1590   31.9320   37.1490 N   0  0  0  0  0  0  0  0  0  0  0  0
   45.0030   33.6170   38.0160 H   0  0  0  0  0  0  0  0  0  0  0  0
   43.0760   30.2550   36.3730 H   0  0  0  0  0  0  0  0  0  0  0  0
   40.6110   32.8490   39.0290 C   0  0  0  0  0  0  0  0  0  0  0  0
   39.5110   33.5820   38.7250 C   0  0  0  0  0  0  0  0  0  0  0  0
   38.4820   33.6950   39.5310 C   0  0  0  0  0  0  0  0  0  0  0  0
   38.5740   33.0380   40.6940 C   0  0  0  0  0  0  0  0  0  0  0  0
   40.1940   32.2170   40.6470 S   0  0  0  0  0  0  0  0  0  0  0  0
   39.5760   34.0690   37.7310 H   0  0  0  0  0  0  0  0  0  0  0  0
   37.5790   34.2630   39.3430 H   0  0  0  0  0  0  0  0  0  0  0  0
   37.8170   32.9720   41.5680 H   0  0  0  0  0  0  0  0  0  0  0  0
  1  2  2  0  0  0  0
  1  5  1  0  0  0  0
  2  3  1  0  0  0  0
  3  4  1  0  0  0  0
  3 10  1  0  0  0  0
  4  6  1  0  0  0  0
  5  4  2  0  0  0  0
  6  9  1  0  0  0  0
  6  8  1  0  0  0  0
  7  2  1  0  0  0  0
 10 12  1  0  0  0  0
 10 11  1  0  0  0  0
 13 14  1  0  0  0  0
 14 10  1  0  0  0  0
 15 16  1  0  0  0  0
 15 14  2  0  0  0  0
 17 15  1  0  0  0  0
 18 17  2  0  0  0  0
 18 19  1  0  0  0  0
 19 13  2  0  0  0  0
 20 21  1  0  0  0  0
 20 18  1  0  0  0  0
 21 23  1  0  0  0  0
 22 21  1  0  0  0  0
 23 17  1  0  0  0  0
 24  1  1  0  0  0  0
 25 24  2  0  0  0  0
 26 32  1  0  0  0  0
 26 27  1  0  0  0  0
 27 24  1  0  0  0  0
 28 27  2  0  0  0  0
 28 34  1  0  0  0  0
 29 28  1  0  0  0  0
 30 31  1  0  0  0  0
 30 29  2  0  0  0  0
 31 26  2  0  0  0  0
 33 30  1  0  0  0  0
 34 38  1  0  0  0  0
 35 34  2  0  0  0  0
 35 36  1  0  0  0  0
 36 37  2  0  0  0  0
 37 41  1  0  0  0  0
 38 37  1  0  0  0  0
 39 35  1  0  0  0  0
 40 36  1  0  0  0  0
M  END
>  <minimizedAffinity>
-6.14947939

>  <minimizedRMSD>
8.0438776

$$$$
