
     RDKit          3D

 43 46  0  0  0  0  0  0  0  0999 V2000
   45.6460   30.4436   46.9089 C   0  0  0  0  0  0  0  0  0  0  0  0
   46.4464   31.5230   46.6711 C   0  0  0  0  0  0  0  0  0  0  0  0
   46.5935   32.4481   47.6984 C   0  0  0  0  0  0  0  0  0  0  0  0
   45.9503   32.2808   48.9218 C   0  0  0  0  0  0  0  0  0  0  0  0
   45.1530   31.1821   49.1239 C   0  0  0  0  0  0  0  0  0  0  0  0
   45.0036   30.2568   48.1014 C   0  0  0  0  0  0  0  0  0  0  0  0
   45.5172   29.3346   45.5683 S   0  0  0  0  0  0  0  0  0  0  0  0
   44.7330   29.9277   44.4282 O   0  0  0  0  0  0  0  0  0  0  0  0
   44.6952   28.1432   46.0442 O   0  0  0  0  0  0  0  0  0  0  0  0
   47.1584   31.8518   45.5287 O   0  0  0  0  0  0  0  0  0  0  0  0
   45.2254   34.3008   43.8444 C   0  0  0  0  0  0  0  0  0  0  0  0
   46.1771   34.8925   42.9836 C   0  0  0  0  0  0  0  0  0  0  0  0
   47.4817   34.4381   42.9937 C   0  0  0  0  0  0  0  0  0  0  0  0
   47.7310   33.4407   43.8517 N   0  0  0  0  0  0  0  0  0  0  0  0
   46.8523   32.8806   44.6593 C   0  0  0  0  0  0  0  0  0  0  0  0
   45.5913   33.3179   44.6515 N   0  0  0  0  0  0  0  0  0  0  0  0
   48.5443   34.9866   42.1390 C   0  0  0  0  0  0  0  0  0  0  0  0
   48.2113   34.8502   40.6650 C   0  0  0  0  0  0  0  0  0  0  0  0
   47.2027   33.3393   47.6201 H   0  0  0  0  0  0  0  0  0  0  0  0
   46.0824   33.0273   49.7202 H   0  0  0  0  0  0  0  0  0  0  0  0
   44.6291   31.0029   50.0570 H   0  0  0  0  0  0  0  0  0  0  0  0
   44.3989   29.3640   48.1670 H   0  0  0  0  0  0  0  0  0  0  0  0
   46.7480   28.9265   45.0995 H   0  0  0  0  0  0  0  0  0  0  0  0
   44.2295   34.7105   43.7777 H   0  0  0  0  0  0  0  0  0  0  0  0
   45.9017   35.6947   42.3175 H   0  0  0  0  0  0  0  0  0  0  0  0
   48.7408   36.0407   42.4169 H   0  0  0  0  0  0  0  0  0  0  0  0
   49.4654   34.4261   42.2939 H   0  0  0  0  0  0  0  0  0  0  0  0
   48.9701   35.3633   40.0473 H   0  0  0  0  0  0  0  0  0  0  0  0
   47.2588   35.4066   40.5186 H   0  0  0  0  0  0  0  0  0  0  0  0
   49.1913   32.7033   40.1334 C   0  0  0  0  0  0  0  0  0  0  0  0
   48.0250   33.4505   40.2551 C   0  0  0  0  0  0  0  0  0  0  0  0
   46.8353   32.8078   39.9821 C   0  0  0  0  0  0  0  0  0  0  0  0
   45.9459   33.4109   40.0842 H   0  0  0  0  0  0  0  0  0  0  0  0
   46.7850   31.4852   39.6043 C   0  0  0  0  0  0  0  0  0  0  0  0
   47.9773   30.7755   39.4952 C   0  0  0  0  0  0  0  0  0  0  0  0
   49.2054   31.3751   39.7591 C   0  0  0  0  0  0  0  0  0  0  0  0
   47.6168   29.4736   39.0995 O   0  0  0  0  0  0  0  0  0  0  0  0
   46.2684   29.4584   38.6692 C   0  0  2  0  0  0  0  0  0  0  0  0
   45.7254   28.5396   38.9640 H   0  0  0  0  0  0  0  0  0  0  0  0
   45.7487   30.6206   39.2803 O   0  0  0  0  0  0  0  0  0  0  0  0
   50.1833   33.1236   40.3285 H   0  0  0  0  0  0  0  0  0  0  0  0
   50.1184   30.8014   39.6671 H   0  0  0  0  0  0  0  0  0  0  0  0
   46.1811   29.5744   37.5639 H   0  0  0  0  0  0  0  0  0  0  0  0
  1  6  2  0
  2  1  1  0
  2  3  2  0
  3  4  1  0
  4  5  2  0
  6  5  1  0
  7  9  2  0
  7  1  1  0
  8  7  2  0
 10  2  1  0
 11 16  2  0
 12 13  2  0
 12 11  1  0
 13 14  1  0
 14 15  2  0
 15 10  1  0
 16 15  1  0
 17 13  1  0
 18 17  1  0
  3 19  1  0
  4 20  1  0
  5 21  1  0
  6 22  1  0
  7 23  1  0
 11 24  1  0
 12 25  1  0
 17 26  1  0
 17 27  1  0
 18 28  1  0
 18 29  1  0
 30 31  2  0
 31 32  1  0
 32 33  1  0
 32 34  2  0
 34 35  1  0
 35 36  2  0
 35 37  1  0
 37 38  1  0
 38 39  1  1
 38 40  1  0
 36 30  1  0
 40 34  1  0
 30 41  1  0
 36 42  1  0
 38 43  1  0
 18 31  1  0
M  ISO  8  19  14  20  14  21  14  22  14  23  11  24  14  25  14  26   8
M  ISO  5  27   8  28   8  29   8  33  16  39   8
M  END
>  <DihAtoms>  (1) 
16,17,30,29

>  <DihDeg>  (1) 
-89.9936200357822

$$$$
