
 OpenBabel03242522403D

 42 45  0  0  0  0  0  0  0  0999 V2000
   47.3410   32.2540   47.8170 C   0  0  0  0  0  0  0  0  0  0  0  0
   47.0890   31.2910   46.8030 C   0  0  0  0  0  0  0  0  0  0  0  0
   47.6700   30.0330   46.9500 C   0  0  0  0  0  0  0  0  0  0  0  0
   48.4440   29.8010   48.0550 N   0  0  0  0  0  0  0  0  0  0  0  0
   48.6480   30.7320   48.9720 C   0  0  0  0  0  0  0  0  0  0  0  0
   48.1100   31.9440   48.8630 N   0  0  0  0  0  0  0  0  0  0  0  0
   46.9350   33.2460   47.7830 H   0  0  0  0  0  0  0  0  0  0  0  0
   47.4960   29.2830   46.1950 H   0  0  0  0  0  0  0  0  0  0  0  0
   46.2390   31.6460   45.6640 C   0  0  0  0  0  0  0  0  0  0  0  0
   46.1470   30.7090   45.0360 H   0  0  0  0  0  0  0  0  0  0  0  0
   45.2080   31.9150   45.8980 H   0  0  0  0  0  0  0  0  0  0  0  0
   46.9900   32.6610   44.8290 C   0  0  0  0  0  0  0  0  0  0  0  0
   47.9200   33.0210   45.3590 H   0  0  0  0  0  0  0  0  0  0  0  0
   47.3930   32.1920   43.8980 H   0  0  0  0  0  0  0  0  0  0  0  0
   46.5030   34.5050   43.2860 C   0  0  0  0  0  0  0  0  0  0  0  0
   46.2370   33.8630   44.4820 C   0  0  0  0  0  0  0  0  0  0  0  0
   45.2950   34.3020   45.3620 C   0  0  0  0  0  0  0  0  0  0  0  0
   44.5730   35.4350   45.0480 C   0  0  0  0  0  0  0  0  0  0  0  0
   44.7800   36.1240   43.8850 C   0  0  0  0  0  0  0  0  0  0  0  0
   45.7530   35.6220   43.0360 C   0  0  0  0  0  0  0  0  0  0  0  0
   45.0190   33.8810   46.3020 H   0  0  0  0  0  0  0  0  0  0  0  0
   43.7950   35.8620   45.6940 H   0  0  0  0  0  0  0  0  0  0  0  0
   44.2520   37.0230   43.5690 H   0  0  0  0  0  0  0  0  0  0  0  0
   45.9410   36.1480   42.1010 H   0  0  0  0  0  0  0  0  0  0  0  0
   47.7000   33.9780   42.1350 S   0  0  0  0  0  0  0  0  0  0  0  0
   49.0960   34.4420   42.4890 O   0  0  0  0  0  0  0  0  0  0  0  0
   47.4200   34.6490   40.7980 O   0  0  0  0  0  0  0  0  0  0  0  0
   47.7340   32.6400   41.9420 H   0  0  0  0  0  0  0  0  0  0  0  0
   49.4980   30.3720   50.1620 C   0  0  0  0  0  0  0  0  0  0  0  0
   49.1110   29.4710   50.6820 H   0  0  0  0  0  0  0  0  0  0  0  0
   49.4300   31.2390   50.8520 H   0  0  0  0  0  0  0  0  0  0  0  0
   51.5610   29.0160   49.9010 C   0  0  0  0  0  3  0  0  0  0  0  0
   50.9190   30.2300   49.7710 C   0  0  0  0  0  0  0  0  0  0  0  0
   51.5630   31.3650   49.2740 C   0  0  0  0  0  0  0  0  0  0  0  0
   51.0320   32.2830   49.1890 H   0  0  0  0  0  0  0  0  0  0  0  0
   52.8850   31.1940   48.9200 C   0  0  0  0  0  0  0  0  0  0  0  0
   53.5670   30.0000   49.0330 C   0  0  0  0  0  0  0  0  0  0  0  0
   52.8850   28.9020   49.5310 C   0  0  0  0  0  3  0  0  0  0  0  0
   54.8580   30.2010   48.5890 O   0  0  0  0  0  0  0  0  0  0  0  0
   55.0280   31.5850   48.3410 C   0  0  0  0  0  3  0  0  0  0  0  0
   55.4520   31.7800   47.3260 H   0  0  0  0  0  0  0  0  0  0  0  0
   53.7410   32.1570   48.4040 O   0  0  0  0  0  0  0  0  0  0  0  0
  1  6  1  0  0  0  0
  2  3  1  0  0  0  0
  2  1  2  0  0  0  0
  3  4  2  0  0  0  0
  4  5  1  0  0  0  0
  5 29  1  0  0  0  0
  6  5  2  0  0  0  0
  7  1  1  0  0  0  0
  8  3  1  0  0  0  0
  9 11  1  0  0  0  0
  9  2  1  0  0  0  0
 10  9  1  0  0  0  0
 12 13  1  0  0  0  0
 12  9  1  0  0  0  0
 14 12  1  0  0  0  0
 15 16  1  0  0  0  0
 16 12  1  0  0  0  0
 16 17  2  0  0  0  0
 17 21  1  0  0  0  0
 18 17  1  0  0  0  0
 18 22  1  0  0  0  0
 19 18  2  0  0  0  0
 20 15  2  0  0  0  0
 20 19  1  0  0  0  0
 23 19  1  0  0  0  0
 24 20  1  0  0  0  0
 25 26  2  0  0  0  0
 25 15  1  0  0  0  0
 27 25  2  0  0  0  0
 28 25  1  0  0  0  0
 29 30  1  0  0  0  0
 29 31  1  0  0  0  0
 33 32  1  0  0  0  0
 33 29  1  0  0  0  0
 34 33  2  0  0  0  0
 35 34  1  0  0  0  0
 36 37  2  0  0  0  0
 36 34  1  0  0  0  0
 37 38  1  0  0  0  0
 38 32  2  0  0  0  0
 39 37  1  0  0  0  0
 40 42  1  0  0  0  0
 40 39  1  0  0  0  0
 41 40  1  0  0  0  0
 42 36  1  0  0  0  0
M  END
>  <minimizedAffinity>
-5.54978466

>  <minimizedRMSD>
0.514577031

$$$$
