
 OpenBabel03242518563D

 44 47  0  0  1  0  0  0  0  0999 V2000
   35.5990   27.2440   37.5420 C   0  0  2  0  0  0  0  0  0  0  0  0
   35.4790   27.2490   36.0500 C   0  0  0  0  0  0  0  0  0  0  0  0
   34.1000   27.6930   35.7190 C   0  0  0  0  0  0  0  0  0  0  0  0
   33.1990   27.9200   36.8810 C   0  0  0  0  0  0  0  0  0  0  0  0
   33.8180   28.8900   37.8670 C   0  0  0  0  0  0  0  0  0  0  0  0
   35.2270   28.6160   38.0670 C   0  0  2  0  0  0  0  0  0  0  0  0
   34.8170   26.5790   37.9640 H   0  0  0  0  0  0  0  0  0  0  0  0
   36.2820   27.8500   35.5600 H   0  0  0  0  0  0  0  0  0  0  0  0
   35.6670   26.1840   35.7090 H   0  0  0  0  0  0  0  0  0  0  0  0
   34.0800   28.5650   35.0340 H   0  0  0  0  0  0  0  0  0  0  0  0
   33.6310   26.8670   35.1000 H   0  0  0  0  0  0  0  0  0  0  0  0
   32.8550   26.9790   37.3540 H   0  0  0  0  0  0  0  0  0  0  0  0
   32.2700   28.3870   36.4760 H   0  0  0  0  0  0  0  0  0  0  0  0
   33.4850   29.9070   37.6200 H   0  0  0  0  0  0  0  0  0  0  0  0
   33.2610   28.6700   38.8400 H   0  0  0  0  0  0  0  0  0  0  0  0
   35.4730   28.5850   39.1540 H   0  0  0  0  0  0  0  0  0  0  0  0
   35.9900   29.6630   37.3300 C   0  0  0  0  0  0  0  0  0  0  0  0
   36.7680   29.1930   36.6500 H   0  0  0  0  0  0  0  0  0  0  0  0
   35.3470   30.3320   36.7250 H   0  0  0  0  0  0  0  0  0  0  0  0
   36.2750   30.5120   39.6000 C   0  0  0  0  0  3  0  0  0  0  0  0
   36.7210   30.5330   38.2710 C   0  0  0  0  0  0  0  0  0  0  0  0
   37.8060   31.3550   38.0660 C   0  0  0  0  0  0  0  0  0  0  0  0
   38.1940   31.3880   37.0600 H   0  0  0  0  0  0  0  0  0  0  0  0
   38.3690   32.0730   39.0990 C   0  0  0  0  0  0  0  0  0  0  0  0
   37.9000   32.0260   40.3950 C   0  0  0  0  0  0  0  0  0  0  0  0
   36.8220   31.2200   40.6510 C   0  0  0  0  0  3  0  0  0  0  0  0
   38.6900   32.8610   41.1750 O   0  0  0  0  0  0  0  0  0  0  0  0
   39.8410   33.2000   40.3980 C   0  0  0  0  0  3  0  0  0  0  0  0
   40.6770   32.5240   40.6710 H   0  0  0  0  0  0  0  0  0  0  0  0
   39.4680   32.9490   39.0550 O   0  0  0  0  0  0  0  0  0  0  0  0
   36.9060   26.7610   38.0440 C   0  0  0  0  0  0  0  0  0  0  0  0
   37.9630   26.8150   37.3760 O   0  0  0  0  0  0  0  0  0  0  0  0
   36.7640   24.3660   40.7950 C   0  0  0  0  0  0  0  0  0  0  0  0
   36.9370   25.1560   41.9610 C   0  0  0  0  0  0  0  0  0  0  0  0
   37.1070   26.5140   41.7620 C   0  0  0  0  0  0  0  0  0  0  0  0
   37.0860   26.9050   40.4850 N   0  0  0  0  0  0  0  0  0  0  0  0
   36.9270   26.1910   39.4030 C   0  0  0  0  0  0  0  0  0  0  0  0
   36.7600   24.8680   39.5740 N   0  0  0  0  0  0  0  0  0  0  0  0
   36.6270   23.2790   40.9240 H   0  0  0  0  0  0  0  0  0  0  0  0
   36.9350   24.7150   42.9330 H   0  0  0  0  0  0  0  0  0  0  0  0
   37.2810   27.3530   42.9480 C   0  0  0  0  0  0  0  0  0  0  0  0
   38.3600   26.9230   43.6790 F   0  0  0  0  0  0  0  0  0  0  0  0
   36.1450   27.2200   43.6800 F   0  0  0  0  0  0  0  0  0  0  0  0
   37.5400   28.6750   42.6020 F   0  0  0  0  0  0  0  0  0  0  0  0
  1  7  1  1  0  0  0
  1 31  1  0  0  0  0
  1  6  1  0  0  0  0
  2  1  1  0  0  0  0
  3  2  1  0  0  0  0
  3  4  1  0  0  0  0
  4 12  1  0  0  0  0
  4  5  1  0  0  0  0
  5  6  1  0  0  0  0
  5 15  1  0  0  0  0
  6 16  1  1  0  0  0
  8  2  1  0  0  0  0
  9  2  1  0  0  0  0
 10  3  1  0  0  0  0
 11  3  1  0  0  0  0
 13  4  1  0  0  0  0
 14  5  1  0  0  0  0
 17  6  1  0  0  0  0
 17 21  1  0  0  0  0
 18 17  1  0  0  0  0
 19 17  1  0  0  0  0
 20 26  1  0  0  0  0
 21 20  2  0  0  0  0
 22 21  1  0  0  0  0
 22 24  2  0  0  0  0
 23 22  1  0  0  0  0
 24 25  1  0  0  0  0
 25 26  2  0  0  0  0
 25 27  1  0  0  0  0
 28 29  1  0  0  0  0
 28 27  1  0  0  0  0
 30 24  1  0  0  0  0
 30 28  1  0  0  0  0
 31 37  1  0  0  0  0
 32 31  2  0  0  0  0
 33 39  1  0  0  0  0
 33 34  1  0  0  0  0
 34 40  1  0  0  0  0
 35 34  2  0  0  0  0
 35 41  1  0  0  0  0
 36 35  1  0  0  0  0
 37 38  1  0  0  0  0
 37 36  2  0  0  0  0
 38 33  2  0  0  0  0
 41 42  1  0  0  0  0
 41 43  1  0  0  0  0
 44 41  1  0  0  0  0
M  END
>  <minimizedAffinity>
-6.23758793

$$$$

 OpenBabel03242518563D

 44 47  0  0  1  0  0  0  0  0999 V2000
   37.8340   31.4010   40.0880 C   0  0  2  0  0  0  0  0  0  0  0  0
   37.0460   32.5210   39.4830 C   0  0  0  0  0  0  0  0  0  0  0  0
   37.7230   33.7900   39.8570 C   0  0  0  0  0  0  0  0  0  0  0  0
   38.8950   33.6530   40.7650 C   0  0  0  0  0  0  0  0  0  0  0  0
   39.9140   32.6870   40.1940 C   0  0  0  0  0  0  0  0  0  0  0  0
   39.2750   31.5140   39.6300 C   0  0  2  0  0  0  0  0  0  0  0  0
   37.8930   31.5530   41.1860 H   0  0  0  0  0  0  0  0  0  0  0  0
   36.8940   32.3910   38.3850 H   0  0  0  0  0  0  0  0  0  0  0  0
   36.0050   32.4570   39.9280 H   0  0  0  0  0  0  0  0  0  0  0  0
   37.9810   34.4160   38.9790 H   0  0  0  0  0  0  0  0  0  0  0  0
   36.9580   34.4190   40.4080 H   0  0  0  0  0  0  0  0  0  0  0  0
   38.6100   33.4180   41.8090 H   0  0  0  0  0  0  0  0  0  0  0  0
   39.3710   34.6600   40.8230 H   0  0  0  0  0  0  0  0  0  0  0  0
   40.6460   33.2520   39.6020 H   0  0  0  0  0  0  0  0  0  0  0  0
   40.5180   32.3680   41.1100 H   0  0  0  0  0  0  0  0  0  0  0  0
   39.7670   30.5820   39.9930 H   0  0  0  0  0  0  0  0  0  0  0  0
   39.3250   31.6540   38.1470 C   0  0  0  0  0  0  0  0  0  0  0  0
   38.4420   31.1310   37.6620 H   0  0  0  0  0  0  0  0  0  0  0  0
   39.3450   32.7070   37.8050 H   0  0  0  0  0  0  0  0  0  0  0  0
   40.5180   29.6210   37.5160 C   0  0  0  0  0  3  0  0  0  0  0  0
   40.5410   31.0200   37.6060 C   0  0  0  0  0  0  0  0  0  0  0  0
   41.7080   31.5830   37.1380 C   0  0  0  0  0  0  0  0  0  0  0  0
   41.7620   32.6600   37.1710 H   0  0  0  0  0  0  0  0  0  0  0  0
   42.7310   30.8060   36.6380 C   0  0  0  0  0  0  0  0  0  0  0  0
   42.6690   29.4300   36.5670 C   0  0  0  0  0  0  0  0  0  0  0  0
   41.5270   28.8220   37.0200 C   0  0  0  0  0  3  0  0  0  0  0  0
   43.8570   28.9690   36.0170 O   0  0  0  0  0  0  0  0  0  0  0  0
   44.5400   30.1020   35.4740 C   0  0  0  0  0  3  0  0  0  0  0  0
   44.3230   30.1720   34.3890 H   0  0  0  0  0  0  0  0  0  0  0  0
   43.9730   31.2230   36.1280 O   0  0  0  0  0  0  0  0  0  0  0  0
   37.2530   30.0580   39.8590 C   0  0  0  0  0  0  0  0  0  0  0  0
   36.7400   29.7040   38.7730 O   0  0  0  0  0  0  0  0  0  0  0  0
   37.4980   28.7270   43.2500 C   0  0  0  0  0  0  0  0  0  0  0  0
   37.4020   27.3210   43.0850 C   0  0  0  0  0  0  0  0  0  0  0  0
   37.2470   26.8640   41.7890 C   0  0  0  0  0  0  0  0  0  0  0  0
   37.2070   27.8170   40.8550 N   0  0  0  0  0  0  0  0  0  0  0  0
   37.2950   29.1140   40.9910 C   0  0  0  0  0  0  0  0  0  0  0  0
   37.4460   29.5790   42.2430 N   0  0  0  0  0  0  0  0  0  0  0  0
   37.6230   29.1190   44.2730 H   0  0  0  0  0  0  0  0  0  0  0  0
   37.4490   26.6620   43.9240 H   0  0  0  0  0  0  0  0  0  0  0  0
   37.1530   25.4170   41.5900 C   0  0  0  0  0  0  0  0  0  0  0  0
   36.4740   24.8390   42.6340 F   0  0  0  0  0  0  0  0  0  0  0  0
   38.4280   24.9520   41.5540 F   0  0  0  0  0  0  0  0  0  0  0  0
   36.4400   25.1080   40.4370 F   0  0  0  0  0  0  0  0  0  0  0  0
  1  7  1  1  0  0  0
  2  3  1  0  0  0  0
  2  9  1  0  0  0  0
  2  1  1  0  0  0  0
  3 11  1  0  0  0  0
  3  4  1  0  0  0  0
  4 13  1  0  0  0  0
  4 12  1  0  0  0  0
  5  4  1  0  0  0  0
  5 15  1  0  0  0  0
  6 16  1  1  0  0  0
  6  1  1  0  0  0  0
  6  5  1  0  0  0  0
  8  2  1  0  0  0  0
 10  3  1  0  0  0  0
 14  5  1  0  0  0  0
 17  6  1  0  0  0  0
 18 17  1  0  0  0  0
 19 17  1  0  0  0  0
 20 21  1  0  0  0  0
 21 17  1  0  0  0  0
 22 23  1  0  0  0  0
 22 21  2  0  0  0  0
 24 22  1  0  0  0  0
 25 24  2  0  0  0  0
 25 26  1  0  0  0  0
 26 20  2  0  0  0  0
 27 25  1  0  0  0  0
 28 27  1  0  0  0  0
 28 30  1  0  0  0  0
 29 28  1  0  0  0  0
 30 24  1  0  0  0  0
 31  1  1  0  0  0  0
 31 37  1  0  0  0  0
 32 31  2  0  0  0  0
 33 39  1  0  0  0  0
 34 33  1  0  0  0  0
 34 40  1  0  0  0  0
 35 34  2  0  0  0  0
 36 37  2  0  0  0  0
 36 35  1  0  0  0  0
 37 38  1  0  0  0  0
 38 33  2  0  0  0  0
 41 35  1  0  0  0  0
 41 42  1  0  0  0  0
 43 41  1  0  0  0  0
 44 41  1  0  0  0  0
M  END
>  <minimizedAffinity>
-6.21376133

$$$$

 OpenBabel03242518563D

 44 47  0  0  1  0  0  0  0  0999 V2000
   37.6340   31.3210   39.5120 C   0  0  2  0  0  0  0  0  0  0  0  0
   37.0530   32.6490   39.1420 C   0  0  0  0  0  0  0  0  0  0  0  0
   37.8000   33.6860   39.9000 C   0  0  0  0  0  0  0  0  0  0  0  0
   38.8190   33.1750   40.8580 C   0  0  0  0  0  0  0  0  0  0  0  0
   39.8010   32.2520   40.1650 C   0  0  0  0  0  0  0  0  0  0  0  0
   39.1270   31.3500   39.2520 C   0  0  2  0  0  0  0  0  0  0  0  0
   37.5610   31.1890   40.6120 H   0  0  0  0  0  0  0  0  0  0  0  0
   37.0360   32.8150   38.0380 H   0  0  0  0  0  0  0  0  0  0  0  0
   35.9600   32.6170   39.4440 H   0  0  0  0  0  0  0  0  0  0  0  0
   38.2360   34.4690   39.2480 H   0  0  0  0  0  0  0  0  0  0  0  0
   37.0350   34.2560   40.5140 H   0  0  0  0  0  0  0  0  0  0  0  0
   38.3740   32.7310   41.7700 H   0  0  0  0  0  0  0  0  0  0  0  0
   39.3830   34.0650   41.2250 H   0  0  0  0  0  0  0  0  0  0  0  0
   40.6590   32.8430   39.8200 H   0  0  0  0  0  0  0  0  0  0  0  0
   40.2410   31.6410   41.0230 H   0  0  0  0  0  0  0  0  0  0  0  0
   39.4680   30.3010   39.4100 H   0  0  0  0  0  0  0  0  0  0  0  0
   39.3890   31.8430   37.8700 C   0  0  0  0  0  0  0  0  0  0  0  0
   38.8900   31.1730   37.1010 H   0  0  0  0  0  0  0  0  0  0  0  0
   39.0550   32.8850   37.7030 H   0  0  0  0  0  0  0  0  0  0  0  0
   41.4820   33.0630   37.5760 C   0  0  0  0  0  3  0  0  0  0  0  0
   40.8350   31.8200   37.5760 C   0  0  0  0  0  0  0  0  0  0  0  0
   41.6770   30.7600   37.3260 C   0  0  0  0  0  0  0  0  0  0  0  0
   41.2250   29.7810   37.3350 H   0  0  0  0  0  0  0  0  0  0  0  0
   43.0240   30.9490   37.1010 C   0  0  0  0  0  0  0  0  0  0  0  0
   43.6230   32.1910   37.1090 C   0  0  0  0  0  0  0  0  0  0  0  0
   42.8270   33.2790   37.3550 C   0  0  0  0  0  3  0  0  0  0  0  0
   44.9770   32.0230   36.8500 O   0  0  0  0  0  0  0  0  0  0  0  0
   45.2600   30.6270   36.9730 C   0  0  0  0  0  3  0  0  0  0  0  0
   45.6570   30.4240   37.9890 H   0  0  0  0  0  0  0  0  0  0  0  0
   44.0080   29.9810   36.8330 O   0  0  0  0  0  0  0  0  0  0  0  0
   36.9550   30.1650   38.8830 C   0  0  0  0  0  0  0  0  0  0  0  0
   36.3540   30.2310   37.7870 O   0  0  0  0  0  0  0  0  0  0  0  0
   36.9880   26.5850   39.5980 C   0  0  0  0  0  0  0  0  0  0  0  0
   37.0670   26.5080   41.0130 C   0  0  0  0  0  0  0  0  0  0  0  0
   37.1130   27.7110   41.6910 C   0  0  0  0  0  0  0  0  0  0  0  0
   37.0780   28.7990   40.9170 N   0  0  0  0  0  0  0  0  0  0  0  0
   37.0050   28.8860   39.6140 C   0  0  0  0  0  0  0  0  0  0  0  0
   36.9590   27.7260   38.9360 N   0  0  0  0  0  0  0  0  0  0  0  0
   36.9500   25.6390   39.0310 H   0  0  0  0  0  0  0  0  0  0  0  0
   37.0880   25.5650   41.5140 H   0  0  0  0  0  0  0  0  0  0  0  0
   37.1870   27.6610   43.1520 C   0  0  0  0  0  0  0  0  0  0  0  0
   38.0490   26.6690   43.5480 F   0  0  0  0  0  0  0  0  0  0  0  0
   35.9320   27.3830   43.5890 F   0  0  0  0  0  0  0  0  0  0  0  0
   37.6830   28.8480   43.6770 F   0  0  0  0  0  0  0  0  0  0  0  0
  1  7  1  1  0  0  0
  2  9  1  0  0  0  0
  2  1  1  0  0  0  0
  2  3  1  0  0  0  0
  3 11  1  0  0  0  0
  3  4  1  0  0  0  0
  4 13  1  0  0  0  0
  4 12  1  0  0  0  0
  5  4  1  0  0  0  0
  5 15  1  0  0  0  0
  6 16  1  1  0  0  0
  6  1  1  0  0  0  0
  6  5  1  0  0  0  0
  8  2  1  0  0  0  0
 10  3  1  0  0  0  0
 14  5  1  0  0  0  0
 17  6  1  0  0  0  0
 18 17  1  0  0  0  0
 19 17  1  0  0  0  0
 20 21  1  0  0  0  0
 21 17  1  0  0  0  0
 22 23  1  0  0  0  0
 22 21  2  0  0  0  0
 24 25  2  0  0  0  0
 24 22  1  0  0  0  0
 25 26  1  0  0  0  0
 26 20  2  0  0  0  0
 27 28  1  0  0  0  0
 27 25  1  0  0  0  0
 28 29  1  0  0  0  0
 30 28  1  0  0  0  0
 30 24  1  0  0  0  0
 31  1  1  0  0  0  0
 31 37  1  0  0  0  0
 32 31  2  0  0  0  0
 33 34  1  0  0  0  0
 34 40  1  0  0  0  0
 34 35  2  0  0  0  0
 35 41  1  0  0  0  0
 36 35  1  0  0  0  0
 37 36  2  0  0  0  0
 38 33  2  0  0  0  0
 38 37  1  0  0  0  0
 39 33  1  0  0  0  0
 41 42  1  0  0  0  0
 41 43  1  0  0  0  0
 41 44  1  0  0  0  0
M  END
>  <minimizedAffinity>
-6.17502832

$$$$

 OpenBabel03242518563D

 44 47  0  0  1  0  0  0  0  0999 V2000
   38.3620   27.0840   43.1280 C   0  0  2  0  0  0  0  0  0  0  0  0
   39.4100   28.0670   42.7070 C   0  0  0  0  0  0  0  0  0  0  0  0
   40.7320   27.4510   42.9900 C   0  0  0  0  0  0  0  0  0  0  0  0
   40.6950   26.1260   43.6700 C   0  0  0  0  0  0  0  0  0  0  0  0
   39.8360   25.1450   42.8980 C   0  0  0  0  0  0  0  0  0  0  0  0
   38.6150   25.7670   42.4240 C   0  0  2  0  0  0  0  0  0  0  0  0
   38.5050   26.8420   44.2010 H   0  0  0  0  0  0  0  0  0  0  0  0
   39.2800   28.4030   41.6510 H   0  0  0  0  0  0  0  0  0  0  0  0
   39.2430   29.0000   43.3290 H   0  0  0  0  0  0  0  0  0  0  0  0
   41.3910   27.4130   42.1000 H   0  0  0  0  0  0  0  0  0  0  0  0
   41.2790   28.1580   43.6880 H   0  0  0  0  0  0  0  0  0  0  0  0
   40.4210   26.1950   44.7410 H   0  0  0  0  0  0  0  0  0  0  0  0
   41.7420   25.7410   43.6710 H   0  0  0  0  0  0  0  0  0  0  0  0
   40.4750   24.5860   42.2020 H   0  0  0  0  0  0  0  0  0  0  0  0
   39.5650   24.3590   43.6810 H   0  0  0  0  0  0  0  0  0  0  0  0
   37.7300   25.1350   42.6650 H   0  0  0  0  0  0  0  0  0  0  0  0
   38.7790   25.9990   40.9600 C   0  0  0  0  0  0  0  0  0  0  0  0
   38.3060   26.9830   40.6520 H   0  0  0  0  0  0  0  0  0  0  0  0
   39.8350   25.9930   40.6280 H   0  0  0  0  0  0  0  0  0  0  0  0
   36.7370   24.7560   40.4680 C   0  0  0  0  0  3  0  0  0  0  0  0
   38.0980   24.9420   40.1880 C   0  0  0  0  0  0  0  0  0  0  0  0
   38.5760   24.1120   39.1990 C   0  0  0  0  0  0  0  0  0  0  0  0
   39.6150   24.2340   38.9370 H   0  0  0  0  0  0  0  0  0  0  0  0
   37.7580   23.1980   38.5700 C   0  0  0  0  0  0  0  0  0  0  0  0
   36.4210   23.0450   38.8750 C   0  0  0  0  0  0  0  0  0  0  0  0
   35.8980   23.8500   39.8530 C   0  0  0  0  0  3  0  0  0  0  0  0
   35.9010   22.0480   38.0620 O   0  0  0  0  0  0  0  0  0  0  0  0
   36.8670   21.7880   37.0400 C   0  0  0  0  0  3  0  0  0  0  0  0
   36.5970   22.3620   36.1300 H   0  0  0  0  0  0  0  0  0  0  0  0
   38.0900   22.2870   37.5520 O   0  0  0  0  0  0  0  0  0  0  0  0
   36.9730   27.5740   42.9670 C   0  0  0  0  0  0  0  0  0  0  0  0
   36.0200   27.1870   43.6800 O   0  0  0  0  0  0  0  0  0  0  0  0
   36.8890   30.7260   41.1290 C   0  0  0  0  0  0  0  0  0  0  0  0
   36.2490   30.4040   39.9040 C   0  0  0  0  0  0  0  0  0  0  0  0
   35.8630   29.0870   39.7420 C   0  0  0  0  0  0  0  0  0  0  0  0
   36.1480   28.2830   40.7700 N   0  0  0  0  0  0  0  0  0  0  0  0
   36.7360   28.5650   41.9020 C   0  0  0  0  0  0  0  0  0  0  0  0
   37.1190   29.8410   42.0800 N   0  0  0  0  0  0  0  0  0  0  0  0
   37.2080   31.7710   41.2850 H   0  0  0  0  0  0  0  0  0  0  0  0
   36.0800   31.1480   39.1570 H   0  0  0  0  0  0  0  0  0  0  0  0
   35.1930   28.7290   38.4910 C   0  0  0  0  0  0  0  0  0  0  0  0
   33.8310   28.7960   38.6470 F   0  0  0  0  0  0  0  0  0  0  0  0
   35.5630   27.4530   38.2110 F   0  0  0  0  0  0  0  0  0  0  0  0
   35.5170   29.6140   37.4690 F   0  0  0  0  0  0  0  0  0  0  0  0
  1  7  1  1  0  0  0
  2  3  1  0  0  0  0
  2  1  1  0  0  0  0
  2  9  1  0  0  0  0
  3  4  1  0  0  0  0
  3 11  1  0  0  0  0
  4 13  1  0  0  0  0
  4 12  1  0  0  0  0
  5  4  1  0  0  0  0
  5 15  1  0  0  0  0
  6 16  1  1  0  0  0
  6  5  1  0  0  0  0
  6  1  1  0  0  0  0
  8  2  1  0  0  0  0
 10  3  1  0  0  0  0
 14  5  1  0  0  0  0
 17  6  1  0  0  0  0
 18 17  1  0  0  0  0
 19 17  1  0  0  0  0
 21 20  1  0  0  0  0
 21 17  1  0  0  0  0
 22 21  2  0  0  0  0
 23 22  1  0  0  0  0
 24 25  2  0  0  0  0
 24 22  1  0  0  0  0
 25 26  1  0  0  0  0
 26 20  2  0  0  0  0
 27 25  1  0  0  0  0
 28 30  1  0  0  0  0
 28 27  1  0  0  0  0
 29 28  1  0  0  0  0
 30 24  1  0  0  0  0
 31  1  1  0  0  0  0
 31 32  2  0  0  0  0
 33 39  1  0  0  0  0
 33 38  1  0  0  0  0
 34 33  2  0  0  0  0
 35 34  1  0  0  0  0
 35 36  2  0  0  0  0
 36 37  1  0  0  0  0
 37 38  2  0  0  0  0
 37 31  1  0  0  0  0
 40 34  1  0  0  0  0
 41 42  1  0  0  0  0
 41 35  1  0  0  0  0
 43 41  1  0  0  0  0
 44 41  1  0  0  0  0
M  END
>  <minimizedAffinity>
-5.8535285

$$$$

 OpenBabel03242518563D

 44 47  0  0  1  0  0  0  0  0999 V2000
   37.5050   26.4660   41.2250 C   0  0  2  0  0  0  0  0  0  0  0  0
   37.1220   25.4880   42.2910 C   0  0  0  0  0  0  0  0  0  0  0  0
   37.9920   24.2940   42.1300 C   0  0  0  0  0  0  0  0  0  0  0  0
   38.9110   24.3200   40.9590 C   0  0  0  0  0  0  0  0  0  0  0  0
   39.7670   25.5700   40.9690 C   0  0  0  0  0  0  0  0  0  0  0  0
   38.9910   26.7420   41.3250 C   0  0  2  0  0  0  0  0  0  0  0  0
   37.3930   25.9800   40.2330 H   0  0  0  0  0  0  0  0  0  0  0  0
   37.1490   25.9380   43.3130 H   0  0  0  0  0  0  0  0  0  0  0  0
   36.0300   25.2350   42.1180 H   0  0  0  0  0  0  0  0  0  0  0  0
   38.5450   24.0340   43.0540 H   0  0  0  0  0  0  0  0  0  0  0  0
   37.3030   23.4060   41.9820 H   0  0  0  0  0  0  0  0  0  0  0  0
   38.3910   24.1570   39.9950 H   0  0  0  0  0  0  0  0  0  0  0  0
   39.5870   23.4390   41.0680 H   0  0  0  0  0  0  0  0  0  0  0  0
   40.7060   25.3530   41.4950 H   0  0  0  0  0  0  0  0  0  0  0  0
   40.1020   25.6700   39.8820 H   0  0  0  0  0  0  0  0  0  0  0  0
   39.1800   27.5740   40.6080 H   0  0  0  0  0  0  0  0  0  0  0  0
   39.3460   27.0970   42.7290 C   0  0  0  0  0  0  0  0  0  0  0  0
   38.4160   27.3470   43.3300 H   0  0  0  0  0  0  0  0  0  0  0  0
   39.9060   26.3000   43.2570 H   0  0  0  0  0  0  0  0  0  0  0  0
   39.5590   29.5200   42.5420 C   0  0  0  0  0  3  0  0  0  0  0  0
   40.2050   28.2960   42.7610 C   0  0  0  0  0  0  0  0  0  0  0  0
   41.5550   28.4190   43.0020 C   0  0  0  0  0  0  0  0  0  0  0  0
   42.0890   27.5030   43.1950 H   0  0  0  0  0  0  0  0  0  0  0  0
   42.1720   29.6520   43.0180 C   0  0  0  0  0  0  0  0  0  0  0  0
   41.5000   30.8360   42.7960 C   0  0  0  0  0  0  0  0  0  0  0  0
   40.1540   30.7650   42.5520 C   0  0  0  0  0  3  0  0  0  0  0  0
   42.4140   31.8770   42.8820 O   0  0  0  0  0  0  0  0  0  0  0  0
   43.6110   31.3430   43.4540 C   0  0  0  0  0  3  0  0  0  0  0  0
   43.6160   31.5440   44.5440 H   0  0  0  0  0  0  0  0  0  0  0  0
   43.5280   29.9450   43.2460 O   0  0  0  0  0  0  0  0  0  0  0  0
   36.6820   27.6980   41.2080 C   0  0  0  0  0  0  0  0  0  0  0  0
   36.0820   28.1400   42.2140 O   0  0  0  0  0  0  0  0  0  0  0  0
   35.9770   28.4420   37.7050 C   0  0  0  0  0  0  0  0  0  0  0  0
   36.4460   29.7690   37.5240 C   0  0  0  0  0  0  0  0  0  0  0  0
   36.9950   30.3820   38.6350 C   0  0  0  0  0  0  0  0  0  0  0  0
   37.0110   29.6360   39.7430 N   0  0  0  0  0  0  0  0  0  0  0  0
   36.5850   28.4140   39.9240 C   0  0  0  0  0  0  0  0  0  0  0  0
   36.0470   27.8000   38.8560 N   0  0  0  0  0  0  0  0  0  0  0  0
   35.5330   27.9290   36.8350 H   0  0  0  0  0  0  0  0  0  0  0  0
   36.3720   30.2570   36.5770 H   0  0  0  0  0  0  0  0  0  0  0  0
   37.4930   31.7490   38.4750 C   0  0  0  0  0  0  0  0  0  0  0  0
   38.7990   31.8290   38.8920 F   0  0  0  0  0  0  0  0  0  0  0  0
   36.7100   32.5350   39.2560 F   0  0  0  0  0  0  0  0  0  0  0  0
   37.4800   32.1420   37.1410 F   0  0  0  0  0  0  0  0  0  0  0  0
  1  7  1  6  0  0  0
  1  6  1  0  0  0  0
  1  2  1  0  0  0  0
  2  8  1  0  0  0  0
  3  2  1  0  0  0  0
  3 10  1  0  0  0  0
  4  5  1  0  0  0  0
  4 13  1  0  0  0  0
  4  3  1  0  0  0  0
  5  6  1  0  0  0  0
  5 14  1  0  0  0  0
  6 16  1  6  0  0  0
  6 17  1  0  0  0  0
  9  2  1  0  0  0  0
 11  3  1  0  0  0  0
 12  4  1  0  0  0  0
 15  5  1  0  0  0  0
 17 21  1  0  0  0  0
 17 19  1  0  0  0  0
 17 18  1  0  0  0  0
 20 26  2  0  0  0  0
 20 21  1  0  0  0  0
 21 22  2  0  0  0  0
 22 24  1  0  0  0  0
 22 23  1  0  0  0  0
 24 30  1  0  0  0  0
 25 27  1  0  0  0  0
 25 24  2  0  0  0  0
 26 25  1  0  0  0  0
 27 28  1  0  0  0  0
 28 29  1  0  0  0  0
 30 28  1  0  0  0  0
 31  1  1  0  0  0  0
 31 32  2  0  0  0  0
 33 38  1  0  0  0  0
 34 33  2  0  0  0  0
 34 35  1  0  0  0  0
 35 36  2  0  0  0  0
 36 37  1  0  0  0  0
 37 31  1  0  0  0  0
 38 37  2  0  0  0  0
 39 33  1  0  0  0  0
 40 34  1  0  0  0  0
 41 35  1  0  0  0  0
 41 42  1  0  0  0  0
 41 43  1  0  0  0  0
 44 41  1  0  0  0  0
M  END
>  <minimizedAffinity>
-5.84085035

$$$$

 OpenBabel03242518563D

 44 47  0  0  1  0  0  0  0  0999 V2000
   36.1440   27.3480   38.3360 C   0  0  2  0  0  0  0  0  0  0  0  0
   36.1910   27.0230   36.8760 C   0  0  0  0  0  0  0  0  0  0  0  0
   34.8420   27.2980   36.3180 C   0  0  0  0  0  0  0  0  0  0  0  0
   33.8080   27.7140   37.3050 C   0  0  0  0  0  0  0  0  0  0  0  0
   34.2750   28.9110   38.1080 C   0  0  0  0  0  0  0  0  0  0  0  0
   35.6630   28.7750   38.5040 C   0  0  2  0  0  0  0  0  0  0  0  0
   35.3460   26.7430   38.8150 H   0  0  0  0  0  0  0  0  0  0  0  0
   37.0210   27.5520   36.3480 H   0  0  0  0  0  0  0  0  0  0  0  0
   36.4580   25.9230   36.8000 H   0  0  0  0  0  0  0  0  0  0  0  0
   34.8650   27.9980   35.4580 H   0  0  0  0  0  0  0  0  0  0  0  0
   34.4770   26.3300   35.8540 H   0  0  0  0  0  0  0  0  0  0  0  0
   33.4510   26.8780   37.9380 H   0  0  0  0  0  0  0  0  0  0  0  0
   32.9130   28.0230   36.7150 H   0  0  0  0  0  0  0  0  0  0  0  0
   33.9330   29.8280   37.6090 H   0  0  0  0  0  0  0  0  0  0  0  0
   33.6230   28.8720   39.0440 H   0  0  0  0  0  0  0  0  0  0  0  0
   35.7880   28.9960   39.5890 H   0  0  0  0  0  0  0  0  0  0  0  0
   36.4620   29.6840   37.6330 C   0  0  0  0  0  0  0  0  0  0  0  0
   37.2620   29.1060   37.0720 H   0  0  0  0  0  0  0  0  0  0  0  0
   35.8490   30.2430   36.9010 H   0  0  0  0  0  0  0  0  0  0  0  0
   36.5720   31.0170   39.6740 C   0  0  0  0  0  3  0  0  0  0  0  0
   37.1630   30.6970   38.4440 C   0  0  0  0  0  0  0  0  0  0  0  0
   38.3390   31.3730   38.2050 C   0  0  0  0  0  0  0  0  0  0  0  0
   38.8390   31.1440   37.2770 H   0  0  0  0  0  0  0  0  0  0  0  0
   38.8500   32.2720   39.1170 C   0  0  0  0  0  0  0  0  0  0  0  0
   38.2360   32.5600   40.3180 C   0  0  0  0  0  0  0  0  0  0  0  0
   37.0630   31.9110   40.6030 C   0  0  0  0  0  3  0  0  0  0  0  0
   39.0100   33.4980   40.9880 O   0  0  0  0  0  0  0  0  0  0  0  0
   40.2690   33.5670   40.3130 C   0  0  0  0  0  3  0  0  0  0  0  0
   40.9990   32.9190   40.8360 H   0  0  0  0  0  0  0  0  0  0  0  0
   40.0260   33.0360   39.0220 O   0  0  0  0  0  0  0  0  0  0  0  0
   37.4050   27.0680   39.0610 C   0  0  0  0  0  0  0  0  0  0  0  0
   38.3530   26.4150   38.5690 O   0  0  0  0  0  0  0  0  0  0  0  0
   36.6710   27.7860   42.5640 C   0  0  0  0  0  0  0  0  0  0  0  0
   37.7320   28.6320   42.9810 C   0  0  0  0  0  0  0  0  0  0  0  0
   38.6880   28.9300   42.0290 C   0  0  0  0  0  0  0  0  0  0  0  0
   38.4870   28.3770   40.8310 N   0  0  0  0  0  0  0  0  0  0  0  0
   37.5160   27.5980   40.4320 C   0  0  0  0  0  0  0  0  0  0  0  0
   36.5740   27.2950   41.3430 N   0  0  0  0  0  0  0  0  0  0  0  0
   35.8930   27.5310   43.3040 H   0  0  0  0  0  0  0  0  0  0  0  0
   37.7770   29.0100   43.9780 H   0  0  0  0  0  0  0  0  0  0  0  0
   39.7900   29.8070   42.4310 C   0  0  0  0  0  0  0  0  0  0  0  0
   40.4230   30.3100   41.3210 F   0  0  0  0  0  0  0  0  0  0  0  0
   40.6510   29.0360   43.1440 F   0  0  0  0  0  0  0  0  0  0  0  0
   39.3310   30.9010   43.1540 F   0  0  0  0  0  0  0  0  0  0  0  0
  1  6  1  0  0  0  0
  1  7  1  1  0  0  0
  1 31  1  0  0  0  0
  2  1  1  0  0  0  0
  3  2  1  0  0  0  0
  3  4  1  0  0  0  0
  4 12  1  0  0  0  0
  4  5  1  0  0  0  0
  5  6  1  0  0  0  0
  5 15  1  0  0  0  0
  6 16  1  1  0  0  0
  8  2  1  0  0  0  0
  9  2  1  0  0  0  0
 10  3  1  0  0  0  0
 11  3  1  0  0  0  0
 13  4  1  0  0  0  0
 14  5  1  0  0  0  0
 17 21  1  0  0  0  0
 17  6  1  0  0  0  0
 18 17  1  0  0  0  0
 19 17  1  0  0  0  0
 20 26  1  0  0  0  0
 21 20  2  0  0  0  0
 22 21  1  0  0  0  0
 22 24  2  0  0  0  0
 23 22  1  0  0  0  0
 24 25  1  0  0  0  0
 25 26  2  0  0  0  0
 25 27  1  0  0  0  0
 28 29  1  0  0  0  0
 28 27  1  0  0  0  0
 30 24  1  0  0  0  0
 30 28  1  0  0  0  0
 31 37  1  0  0  0  0
 32 31  2  0  0  0  0
 33 34  1  0  0  0  0
 33 39  1  0  0  0  0
 34 40  1  0  0  0  0
 35 41  1  0  0  0  0
 35 34  2  0  0  0  0
 36 35  1  0  0  0  0
 37 36  2  0  0  0  0
 37 38  1  0  0  0  0
 38 33  2  0  0  0  0
 41 43  1  0  0  0  0
 41 44  1  0  0  0  0
 42 41  1  0  0  0  0
M  END
>  <minimizedAffinity>
-5.83510017

$$$$

 OpenBabel03242518563D

 44 47  0  0  1  0  0  0  0  0999 V2000
   37.8020   30.3510   40.2370 C   0  0  2  0  0  0  0  0  0  0  0  0
   37.0940   31.6100   40.6280 C   0  0  0  0  0  0  0  0  0  0  0  0
   37.0450   32.4820   39.4260 C   0  0  0  0  0  0  0  0  0  0  0  0
   37.7520   31.9630   38.2230 C   0  0  0  0  0  0  0  0  0  0  0  0
   37.2600   30.5760   37.8610 C   0  0  0  0  0  0  0  0  0  0  0  0
   37.0980   29.7460   39.0380 C   0  0  2  0  0  0  0  0  0  0  0  0
   38.8090   30.6090   39.8480 H   0  0  0  0  0  0  0  0  0  0  0  0
   36.0970   31.4130   41.0900 H   0  0  0  0  0  0  0  0  0  0  0  0
   37.7080   32.0790   41.4590 H   0  0  0  0  0  0  0  0  0  0  0  0
   36.0160   32.8010   39.1660 H   0  0  0  0  0  0  0  0  0  0  0  0
   37.5540   33.4550   39.7070 H   0  0  0  0  0  0  0  0  0  0  0  0
   38.8550   32.0250   38.3080 H   0  0  0  0  0  0  0  0  0  0  0  0
   37.4950   32.6500   37.3830 H   0  0  0  0  0  0  0  0  0  0  0  0
   36.4400   30.6690   37.1370 H   0  0  0  0  0  0  0  0  0  0  0  0
   38.1110   30.1510   37.2290 H   0  0  0  0  0  0  0  0  0  0  0  0
   37.5800   28.7530   38.8910 H   0  0  0  0  0  0  0  0  0  0  0  0
   35.6350   29.6450   39.3090 C   0  0  0  0  0  0  0  0  0  0  0  0
   35.4440   29.3160   40.3780 H   0  0  0  0  0  0  0  0  0  0  0  0
   35.0870   30.5900   39.1250 H   0  0  0  0  0  0  0  0  0  0  0  0
   35.6400   27.3770   38.4100 C   0  0  0  0  0  3  0  0  0  0  0  0
   35.0140   28.6310   38.4360 C   0  0  0  0  0  0  0  0  0  0  0  0
   33.8860   28.7010   37.6510 C   0  0  0  0  0  0  0  0  0  0  0  0
   33.3610   29.6430   37.6560 H   0  0  0  0  0  0  0  0  0  0  0  0
   33.4480   27.6150   36.9230 C   0  0  0  0  0  0  0  0  0  0  0  0
   34.0940   26.3960   36.9230 C   0  0  0  0  0  0  0  0  0  0  0  0
   35.2220   26.2760   37.6900 C   0  0  0  0  0  3  0  0  0  0  0  0
   33.3940   25.5330   36.0900 O   0  0  0  0  0  0  0  0  0  0  0  0
   32.1350   26.1490   35.8050 C   0  0  0  0  0  3  0  0  0  0  0  0
   31.3680   25.7480   36.4970 H   0  0  0  0  0  0  0  0  0  0  0  0
   32.3260   27.5250   36.0800 O   0  0  0  0  0  0  0  0  0  0  0  0
   37.9900   29.3900   41.3480 C   0  0  0  0  0  0  0  0  0  0  0  0
   37.8760   29.7010   42.5550 O   0  0  0  0  0  0  0  0  0  0  0  0
   39.7240   26.5220   39.9010 C   0  0  0  0  0  0  0  0  0  0  0  0
   38.9330   25.4050   40.2750 C   0  0  0  0  0  0  0  0  0  0  0  0
   37.8090   25.6760   41.0330 C   0  0  0  0  0  0  0  0  0  0  0  0
   37.6160   26.9670   41.3170 N   0  0  0  0  0  0  0  0  0  0  0  0
   38.3340   28.0050   40.9790 C   0  0  0  0  0  0  0  0  0  0  0  0
   39.4310   27.7630   40.2410 N   0  0  0  0  0  0  0  0  0  0  0  0
   40.6270   26.3350   39.2950 H   0  0  0  0  0  0  0  0  0  0  0  0
   39.2010   24.4150   39.9810 H   0  0  0  0  0  0  0  0  0  0  0  0
   36.9700   24.5430   41.4270 C   0  0  0  0  0  0  0  0  0  0  0  0
   37.7400   23.4170   41.5820 F   0  0  0  0  0  0  0  0  0  0  0  0
   36.0800   24.3580   40.4190 F   0  0  0  0  0  0  0  0  0  0  0  0
   36.3510   24.7700   42.6500 F   0  0  0  0  0  0  0  0  0  0  0  0
  1  7  1  6  0  0  0
  1  2  1  0  0  0  0
  1 31  1  0  0  0  0
  2  8  1  0  0  0  0
  2  9  1  0  0  0  0
  3 11  1  0  0  0  0
  3  2  1  0  0  0  0
  4 12  1  0  0  0  0
  4  3  1  0  0  0  0
  5  4  1  0  0  0  0
  5  6  1  0  0  0  0
  6 16  1  6  0  0  0
  6 17  1  0  0  0  0
  6  1  1  0  0  0  0
 10  3  1  0  0  0  0
 13  4  1  0  0  0  0
 14  5  1  0  0  0  0
 15  5  1  0  0  0  0
 17 18  1  0  0  0  0
 19 17  1  0  0  0  0
 20 21  1  0  0  0  0
 21 17  1  0  0  0  0
 22 23  1  0  0  0  0
 22 21  2  0  0  0  0
 24 25  2  0  0  0  0
 24 22  1  0  0  0  0
 25 26  1  0  0  0  0
 26 20  2  0  0  0  0
 27 25  1  0  0  0  0
 28 30  1  0  0  0  0
 28 27  1  0  0  0  0
 28 29  1  0  0  0  0
 30 24  1  0  0  0  0
 31 32  2  0  0  0  0
 33 38  2  0  0  0  0
 33 34  1  0  0  0  0
 34 35  2  0  0  0  0
 35 36  1  0  0  0  0
 35 41  1  0  0  0  0
 37 36  2  0  0  0  0
 37 31  1  0  0  0  0
 38 37  1  0  0  0  0
 39 33  1  0  0  0  0
 40 34  1  0  0  0  0
 41 42  1  0  0  0  0
 41 44  1  0  0  0  0
 43 41  1  0  0  0  0
M  END
>  <minimizedAffinity>
-5.81960249

$$$$

 OpenBabel03242518563D

 44 47  0  0  1  0  0  0  0  0999 V2000
   39.2130   31.4360   39.9130 C   0  0  2  0  0  0  0  0  0  0  0  0
   38.7240   32.6430   40.6510 C   0  0  0  0  0  0  0  0  0  0  0  0
   37.5390   33.1600   39.9180 C   0  0  0  0  0  0  0  0  0  0  0  0
   37.2050   32.4520   38.6510 C   0  0  0  0  0  0  0  0  0  0  0  0
   37.0420   30.9640   38.8880 C   0  0  0  0  0  0  0  0  0  0  0  0
   38.0700   30.4510   39.7720 C   0  0  2  0  0  0  0  0  0  0  0  0
   39.4440   31.7230   38.8660 H   0  0  0  0  0  0  0  0  0  0  0  0
   38.5360   32.4340   41.7320 H   0  0  0  0  0  0  0  0  0  0  0  0
   39.5760   33.3900   40.6460 H   0  0  0  0  0  0  0  0  0  0  0  0
   36.6410   33.2550   40.5600 H   0  0  0  0  0  0  0  0  0  0  0  0
   37.7720   34.2340   39.6370 H   0  0  0  0  0  0  0  0  0  0  0  0
   37.9050   32.6860   37.8250 H   0  0  0  0  0  0  0  0  0  0  0  0
   36.2230   32.8560   38.3110 H   0  0  0  0  0  0  0  0  0  0  0  0
   35.9840   30.7520   39.0940 H   0  0  0  0  0  0  0  0  0  0  0  0
   37.1950   30.5130   37.8500 H   0  0  0  0  0  0  0  0  0  0  0  0
   38.5320   29.5300   39.3490 H   0  0  0  0  0  0  0  0  0  0  0  0
   37.4340   30.2210   41.1010 C   0  0  0  0  0  0  0  0  0  0  0  0
   38.0730   30.6530   41.9350 H   0  0  0  0  0  0  0  0  0  0  0  0
   36.4140   30.6430   41.1800 H   0  0  0  0  0  0  0  0  0  0  0  0
   37.0880   28.4200   42.7100 C   0  0  0  0  0  3  0  0  0  0  0  0
   37.3060   28.7770   41.3720 C   0  0  0  0  0  0  0  0  0  0  0  0
   37.3370   27.7020   40.5120 C   0  0  0  0  0  0  0  0  0  0  0  0
   37.4840   27.9320   39.4690 H   0  0  0  0  0  0  0  0  0  0  0  0
   37.1650   26.4120   40.9670 C   0  0  0  0  0  0  0  0  0  0  0  0
   36.9530   26.1020   42.2940 C   0  0  0  0  0  0  0  0  0  0  0  0
   36.9130   27.1380   43.1900 C   0  0  0  0  0  3  0  0  0  0  0  0
   36.8220   24.7240   42.4030 O   0  0  0  0  0  0  0  0  0  0  0  0
   36.6610   24.2080   41.0780 C   0  0  0  0  0  3  0  0  0  0  0  0
   35.5810   24.0710   40.8690 H   0  0  0  0  0  0  0  0  0  0  0  0
   37.1690   25.2180   40.2250 O   0  0  0  0  0  0  0  0  0  0  0  0
   40.4380   30.8310   40.4850 C   0  0  0  0  0  0  0  0  0  0  0  0
   40.5010   29.6440   40.8780 O   0  0  0  0  0  0  0  0  0  0  0  0
   43.1050   32.9020   41.8720 C   0  0  0  0  0  0  0  0  0  0  0  0
   43.8290   33.3510   40.7370 C   0  0  0  0  0  0  0  0  0  0  0  0
   43.3740   32.9150   39.5060 C   0  0  0  0  0  0  0  0  0  0  0  0
   42.3020   32.1200   39.5490 N   0  0  0  0  0  0  0  0  0  0  0  0
   41.6250   31.6990   40.5850 C   0  0  0  0  0  0  0  0  0  0  0  0
   42.0510   32.1110   41.7910 N   0  0  0  0  0  0  0  0  0  0  0  0
   43.4470   33.2340   42.8660 H   0  0  0  0  0  0  0  0  0  0  0  0
   44.6780   33.9900   40.8410 H   0  0  0  0  0  0  0  0  0  0  0  0
   44.0990   33.3700   38.3180 C   0  0  0  0  0  0  0  0  0  0  0  0
   43.2860   34.1560   37.5410 F   0  0  0  0  0  0  0  0  0  0  0  0
   44.4510   32.2510   37.6350 F   0  0  0  0  0  0  0  0  0  0  0  0
   45.1960   34.1520   38.6610 F   0  0  0  0  0  0  0  0  0  0  0  0
  1  7  1  6  0  0  0
  1 31  1  0  0  0  0
  1  2  1  0  0  0  0
  2  8  1  0  0  0  0
  3 10  1  0  0  0  0
  3  2  1  0  0  0  0
  4  5  1  0  0  0  0
  4  3  1  0  0  0  0
  5 14  1  0  0  0  0
  5  6  1  0  0  0  0
  6 16  1  6  0  0  0
  6  1  1  0  0  0  0
  6 17  1  0  0  0  0
  9  2  1  0  0  0  0
 11  3  1  0  0  0  0
 12  4  1  0  0  0  0
 13  4  1  0  0  0  0
 15  5  1  0  0  0  0
 17 19  1  0  0  0  0
 17 21  1  0  0  0  0
 17 18  1  0  0  0  0
 20 26  1  0  0  0  0
 21 20  2  0  0  0  0
 22 24  2  0  0  0  0
 22 21  1  0  0  0  0
 23 22  1  0  0  0  0
 24 25  1  0  0  0  0
 25 27  1  0  0  0  0
 25 26  2  0  0  0  0
 28 27  1  0  0  0  0
 29 28  1  0  0  0  0
 30 24  1  0  0  0  0
 30 28  1  0  0  0  0
 31 37  1  0  0  0  0
 31 32  2  0  0  0  0
 33 39  1  0  0  0  0
 34 40  1  0  0  0  0
 34 33  2  0  0  0  0
 35 36  2  0  0  0  0
 35 34  1  0  0  0  0
 36 37  1  0  0  0  0
 37 38  2  0  0  0  0
 38 33  1  0  0  0  0
 41 44  1  0  0  0  0
 41 35  1  0  0  0  0
 42 41  1  0  0  0  0
 43 41  1  0  0  0  0
M  END
>  <minimizedAffinity>
-5.80765104

$$$$

 OpenBabel03242518563D

 44 47  0  0  1  0  0  0  0  0999 V2000
   36.0780   25.7600   37.1690 C   0  0  2  0  0  0  0  0  0  0  0  0
   36.3930   25.8530   35.7090 C   0  0  0  0  0  0  0  0  0  0  0  0
   35.1740   25.4390   34.9670 C   0  0  0  0  0  0  0  0  0  0  0  0
   34.0360   24.9700   35.8040 C   0  0  0  0  0  0  0  0  0  0  0  0
   33.6650   26.0070   36.8450 C   0  0  0  0  0  0  0  0  0  0  0  0
   34.8430   26.5900   37.4580 C   0  0  2  0  0  0  0  0  0  0  0  0
   35.7590   24.7230   37.4040 H   0  0  0  0  0  0  0  0  0  0  0  0
   36.7840   26.8580   35.4210 H   0  0  0  0  0  0  0  0  0  0  0  0
   37.2570   25.1430   35.5210 H   0  0  0  0  0  0  0  0  0  0  0  0
   34.8330   26.2010   34.2370 H   0  0  0  0  0  0  0  0  0  0  0  0
   35.4740   24.5660   34.3080 H   0  0  0  0  0  0  0  0  0  0  0  0
   34.2000   23.9620   36.2340 H   0  0  0  0  0  0  0  0  0  0  0  0
   33.1670   24.8450   35.1170 H   0  0  0  0  0  0  0  0  0  0  0  0
   32.8810   26.6560   36.4340 H   0  0  0  0  0  0  0  0  0  0  0  0
   33.1050   25.4010   37.6340 H   0  0  0  0  0  0  0  0  0  0  0  0
   34.7500   26.5940   38.5680 H   0  0  0  0  0  0  0  0  0  0  0  0
   35.0070   27.9560   36.8860 C   0  0  0  0  0  0  0  0  0  0  0  0
   35.8130   27.9660   36.0860 H   0  0  0  0  0  0  0  0  0  0  0  0
   34.0740   28.3690   36.4540 H   0  0  0  0  0  0  0  0  0  0  0  0
   34.8720   28.7230   39.1980 C   0  0  0  0  0  3  0  0  0  0  0  0
   35.4360   28.9080   37.9290 C   0  0  0  0  0  0  0  0  0  0  0  0
   36.3360   29.9480   37.8710 C   0  0  0  0  0  0  0  0  0  0  0  0
   36.8090   30.1150   36.9160 H   0  0  0  0  0  0  0  0  0  0  0  0
   36.6250   30.7110   38.9810 C   0  0  0  0  0  0  0  0  0  0  0  0
   36.0460   30.4980   40.2160 C   0  0  0  0  0  0  0  0  0  0  0  0
   35.1440   29.4720   40.3250 C   0  0  0  0  0  3  0  0  0  0  0  0
   36.5560   31.4360   41.1030 O   0  0  0  0  0  0  0  0  0  0  0  0
   37.6820   32.0490   40.4700 C   0  0  0  0  0  3  0  0  0  0  0  0
   38.6100   31.5490   40.8130 H   0  0  0  0  0  0  0  0  0  0  0  0
   37.5110   31.7980   39.0870 O   0  0  0  0  0  0  0  0  0  0  0  0
   37.2180   26.0830   38.0580 C   0  0  0  0  0  0  0  0  0  0  0  0
   38.2440   26.6850   37.6700 O   0  0  0  0  0  0  0  0  0  0  0  0
   36.7170   24.0020   41.0150 C   0  0  0  0  0  0  0  0  0  0  0  0
   36.8710   24.8960   42.1060 C   0  0  0  0  0  0  0  0  0  0  0  0
   37.1530   26.2110   41.7870 C   0  0  0  0  0  0  0  0  0  0  0  0
   37.2460   26.4680   40.4800 N   0  0  0  0  0  0  0  0  0  0  0  0
   37.1060   25.6570   39.4650 C   0  0  0  0  0  0  0  0  0  0  0  0
   36.8310   24.3730   39.7530 N   0  0  0  0  0  0  0  0  0  0  0  0
   36.4920   22.9460   41.2410 H   0  0  0  0  0  0  0  0  0  0  0  0
   36.7710   24.5590   43.1150 H   0  0  0  0  0  0  0  0  0  0  0  0
   37.3090   27.1570   42.8940 C   0  0  0  0  0  0  0  0  0  0  0  0
   37.5170   28.4240   42.4080 F   0  0  0  0  0  0  0  0  0  0  0  0
   38.3960   26.7460   43.5950 F   0  0  0  0  0  0  0  0  0  0  0  0
   36.1610   27.2170   43.6760 F   0  0  0  0  0  0  0  0  0  0  0  0
  1  7  1  1  0  0  0
  1  6  1  0  0  0  0
  1 31  1  0  0  0  0
  2  1  1  0  0  0  0
  3  2  1  0  0  0  0
  3  4  1  0  0  0  0
  4 12  1  0  0  0  0
  4  5  1  0  0  0  0
  5  6  1  0  0  0  0
  5 15  1  0  0  0  0
  6 16  1  1  0  0  0
  8  2  1  0  0  0  0
  9  2  1  0  0  0  0
 10  3  1  0  0  0  0
 11  3  1  0  0  0  0
 13  4  1  0  0  0  0
 14  5  1  0  0  0  0
 17  6  1  0  0  0  0
 17 21  1  0  0  0  0
 18 17  1  0  0  0  0
 19 17  1  0  0  0  0
 20 26  1  0  0  0  0
 21 20  2  0  0  0  0
 22 21  1  0  0  0  0
 22 24  2  0  0  0  0
 23 22  1  0  0  0  0
 24 30  1  0  0  0  0
 24 25  1  0  0  0  0
 25 26  2  0  0  0  0
 25 27  1  0  0  0  0
 28 29  1  0  0  0  0
 28 27  1  0  0  0  0
 30 28  1  0  0  0  0
 31 37  1  0  0  0  0
 32 31  2  0  0  0  0
 33 39  1  0  0  0  0
 33 34  1  0  0  0  0
 34 40  1  0  0  0  0
 35 34  2  0  0  0  0
 35 41  1  0  0  0  0
 36 35  1  0  0  0  0
 37 38  1  0  0  0  0
 37 36  2  0  0  0  0
 38 33  2  0  0  0  0
 41 43  1  0  0  0  0
 41 44  1  0  0  0  0
 42 41  1  0  0  0  0
M  END
>  <minimizedAffinity>
-5.79670811

$$$$
