
 OpenBabel03242522403D

 42 45  0  0  0  0  0  0  0  0999 V2000
   47.3170   32.3130   47.6770 C   0  0  0  0  0  0  0  0  0  0  0  0
   47.0920   31.3530   46.6530 C   0  0  0  0  0  0  0  0  0  0  0  0
   47.6800   30.0980   46.8070 C   0  0  0  0  0  0  0  0  0  0  0  0
   48.4310   29.8660   47.9260 N   0  0  0  0  0  0  0  0  0  0  0  0
   48.6100   30.7940   48.8520 C   0  0  0  0  0  0  0  0  0  0  0  0
   48.0660   32.0020   48.7370 N   0  0  0  0  0  0  0  0  0  0  0  0
   46.9040   33.3010   47.6390 H   0  0  0  0  0  0  0  0  0  0  0  0
   47.5260   29.3500   46.0450 H   0  0  0  0  0  0  0  0  0  0  0  0
   46.2650   31.7070   45.4980 C   0  0  0  0  0  0  0  0  0  0  0  0
   46.1860   30.7710   44.8680 H   0  0  0  0  0  0  0  0  0  0  0  0
   45.2290   31.9740   45.7120 H   0  0  0  0  0  0  0  0  0  0  0  0
   47.0290   32.7240   44.6790 C   0  0  0  0  0  0  0  0  0  0  0  0
   47.9430   33.0920   45.2310 H   0  0  0  0  0  0  0  0  0  0  0  0
   47.4600   32.2540   43.7600 H   0  0  0  0  0  0  0  0  0  0  0  0
   46.5810   34.5680   43.1240 C   0  0  0  0  0  0  0  0  0  0  0  0
   46.2780   33.9190   44.3080 C   0  0  0  0  0  0  0  0  0  0  0  0
   45.2990   34.3460   45.1540 C   0  0  0  0  0  0  0  0  0  0  0  0
   44.5780   35.4730   44.8170 C   0  0  0  0  0  0  0  0  0  0  0  0
   44.8200   36.1690   43.6650 C   0  0  0  0  0  0  0  0  0  0  0  0
   45.8290   35.6790   42.8510 C   0  0  0  0  0  0  0  0  0  0  0  0
   44.9940   33.9190   46.0820 H   0  0  0  0  0  0  0  0  0  0  0  0
   43.7730   35.8900   45.4360 H   0  0  0  0  0  0  0  0  0  0  0  0
   44.2960   37.0630   43.3320 H   0  0  0  0  0  0  0  0  0  0  0  0
   46.0460   36.2100   41.9250 H   0  0  0  0  0  0  0  0  0  0  0  0
   47.8250   34.0580   42.0170 S   0  0  0  0  0  0  0  0  0  0  0  0
   49.1890   34.6060   42.3760 O   0  0  0  0  0  0  0  0  0  0  0  0
   47.5380   34.6600   40.6500 O   0  0  0  0  0  0  0  0  0  0  0  0
   47.9290   32.7170   41.8790 H   0  0  0  0  0  0  0  0  0  0  0  0
   49.4370   30.4340   50.0580 C   0  0  0  0  0  0  0  0  0  0  0  0
   49.6620   29.3480   50.0890 H   0  0  0  0  0  0  0  0  0  0  0  0
   48.8130   30.6950   50.9380 H   0  0  0  0  0  0  0  0  0  0  0  0
   51.6070   31.1950   49.1230 C   0  0  0  0  0  3  0  0  0  0  0  0
   50.6610   31.2650   50.1240 C   0  0  0  0  0  0  0  0  0  0  0  0
   50.8040   32.1050   51.2310 C   0  0  0  0  0  0  0  0  0  0  0  0
   50.0520   32.1300   51.9810 H   0  0  0  0  0  0  0  0  0  0  0  0
   51.9570   32.8630   51.2570 C   0  0  0  0  0  0  0  0  0  0  0  0
   52.9300   32.8250   50.2800 C   0  0  0  0  0  0  0  0  0  0  0  0
   52.7420   31.9750   49.2030 C   0  0  0  0  0  3  0  0  0  0  0  0
   53.9300   33.7080   50.6360 O   0  0  0  0  0  0  0  0  0  0  0  0
   53.6480   34.1890   51.9390 C   0  0  0  0  0  3  0  0  0  0  0  0
   53.6830   35.3050   51.9900 H   0  0  0  0  0  0  0  0  0  0  0  0
   52.3370   33.7700   52.2380 O   0  0  0  0  0  0  0  0  0  0  0  0
  1  6  1  0  0  0  0
  2  3  1  0  0  0  0
  2  1  2  0  0  0  0
  3  4  2  0  0  0  0
  4  5  1  0  0  0  0
  5 29  1  0  0  0  0
  6  5  2  0  0  0  0
  7  1  1  0  0  0  0
  8  3  1  0  0  0  0
  9 11  1  0  0  0  0
  9  2  1  0  0  0  0
 10  9  1  0  0  0  0
 12 13  1  0  0  0  0
 12  9  1  0  0  0  0
 14 12  1  0  0  0  0
 15 16  1  0  0  0  0
 16 12  1  0  0  0  0
 16 17  2  0  0  0  0
 17 21  1  0  0  0  0
 18 17  1  0  0  0  0
 18 22  1  0  0  0  0
 19 18  2  0  0  0  0
 20 15  2  0  0  0  0
 20 19  1  0  0  0  0
 23 19  1  0  0  0  0
 24 20  1  0  0  0  0
 25 26  2  0  0  0  0
 25 15  1  0  0  0  0
 27 25  2  0  0  0  0
 28 25  1  0  0  0  0
 29 30  1  0  0  0  0
 29 33  1  0  0  0  0
 29 31  1  0  0  0  0
 32 38  2  0  0  0  0
 32 33  1  0  0  0  0
 33 34  2  0  0  0  0
 34 36  1  0  0  0  0
 34 35  1  0  0  0  0
 36 42  1  0  0  0  0
 37 39  1  0  0  0  0
 37 36  2  0  0  0  0
 38 37  1  0  0  0  0
 39 40  1  0  0  0  0
 40 41  1  0  0  0  0
 40 42  1  0  0  0  0
M  END
>  <minimizedAffinity>
-6.12974691

>  <minimizedRMSD>
1.23099291

$$$$
