
 OpenBabel03242522403D

 42 45  0  0  0  0  0  0  0  0999 V2000
   47.2250   32.3350   47.6390 C   0  0  0  0  0  0  0  0  0  0  0  0
   47.0700   31.3800   46.5980 C   0  0  0  0  0  0  0  0  0  0  0  0
   47.7370   30.1640   46.7340 C   0  0  0  0  0  0  0  0  0  0  0  0
   48.4960   29.9630   47.8550 N   0  0  0  0  0  0  0  0  0  0  0  0
   48.6090   30.8840   48.7970 C   0  0  0  0  0  0  0  0  0  0  0  0
   47.9870   32.0560   48.6990 N   0  0  0  0  0  0  0  0  0  0  0  0
   46.7490   33.2950   47.6150 H   0  0  0  0  0  0  0  0  0  0  0  0
   47.6370   29.4210   45.9590 H   0  0  0  0  0  0  0  0  0  0  0  0
   46.2270   31.6990   45.4430 C   0  0  0  0  0  0  0  0  0  0  0  0
   46.1340   30.7420   44.8470 H   0  0  0  0  0  0  0  0  0  0  0  0
   45.1960   31.9800   45.6630 H   0  0  0  0  0  0  0  0  0  0  0  0
   46.9860   32.6820   44.5780 C   0  0  0  0  0  0  0  0  0  0  0  0
   47.9400   33.0190   45.0790 H   0  0  0  0  0  0  0  0  0  0  0  0
   47.3500   32.1910   43.6420 H   0  0  0  0  0  0  0  0  0  0  0  0
   46.5840   34.5780   43.0740 C   0  0  0  0  0  0  0  0  0  0  0  0
   46.2610   33.9030   44.2380 C   0  0  0  0  0  0  0  0  0  0  0  0
   45.2870   34.3260   45.0900 C   0  0  0  0  0  0  0  0  0  0  0  0
   44.5910   35.4760   44.7820 C   0  0  0  0  0  0  0  0  0  0  0  0
   44.8540   36.1990   43.6510 C   0  0  0  0  0  0  0  0  0  0  0  0
   45.8570   35.7120   42.8280 C   0  0  0  0  0  0  0  0  0  0  0  0
   44.9680   33.8790   46.0040 H   0  0  0  0  0  0  0  0  0  0  0  0
   43.7910   35.8930   45.4090 H   0  0  0  0  0  0  0  0  0  0  0  0
   44.3500   37.1130   43.3410 H   0  0  0  0  0  0  0  0  0  0  0  0
   46.0890   36.2640   41.9190 H   0  0  0  0  0  0  0  0  0  0  0  0
   47.8230   34.0730   41.9580 S   0  0  0  0  0  0  0  0  0  0  0  0
   49.1810   34.6480   42.2940 O   0  0  0  0  0  0  0  0  0  0  0  0
   47.5100   34.6540   40.5870 O   0  0  0  0  0  0  0  0  0  0  0  0
   47.9470   32.7330   41.8360 H   0  0  0  0  0  0  0  0  0  0  0  0
   49.4510   30.5590   50.0020 C   0  0  0  0  0  0  0  0  0  0  0  0
   49.5420   29.4620   50.1520 H   0  0  0  0  0  0  0  0  0  0  0  0
   48.9120   30.9940   50.8700 H   0  0  0  0  0  0  0  0  0  0  0  0
   51.8160   30.6280   49.2520 C   0  0  0  0  0  3  0  0  0  0  0  0
   50.7690   31.2280   49.9200 C   0  0  0  0  0  0  0  0  0  0  0  0
   50.8950   32.4710   50.5420 C   0  0  0  0  0  0  0  0  0  0  0  0
   50.0630   32.9000   51.0480 H   0  0  0  0  0  0  0  0  0  0  0  0
   52.1370   33.0640   50.4450 C   0  0  0  0  0  0  0  0  0  0  0  0
   53.2110   32.5020   49.7860 C   0  0  0  0  0  0  0  0  0  0  0  0
   53.0370   31.2660   49.1850 C   0  0  0  0  0  3  0  0  0  0  0  0
   54.2800   33.3700   49.8940 O   0  0  0  0  0  0  0  0  0  0  0  0
   53.9090   34.4200   50.7680 C   0  0  0  0  0  3  0  0  0  0  0  0
   54.1080   35.4250   50.3240 H   0  0  0  0  0  0  0  0  0  0  0  0
   52.5200   34.2900   50.9710 O   0  0  0  0  0  0  0  0  0  0  0  0
  1  6  1  0  0  0  0
  2  3  1  0  0  0  0
  2  1  2  0  0  0  0
  3  4  2  0  0  0  0
  4  5  1  0  0  0  0
  5 29  1  0  0  0  0
  6  5  2  0  0  0  0
  7  1  1  0  0  0  0
  8  3  1  0  0  0  0
  9 11  1  0  0  0  0
  9  2  1  0  0  0  0
 10  9  1  0  0  0  0
 12 13  1  0  0  0  0
 12  9  1  0  0  0  0
 14 12  1  0  0  0  0
 15 16  1  0  0  0  0
 16 12  1  0  0  0  0
 16 17  2  0  0  0  0
 17 21  1  0  0  0  0
 18 17  1  0  0  0  0
 18 22  1  0  0  0  0
 19 18  2  0  0  0  0
 20 15  2  0  0  0  0
 20 19  1  0  0  0  0
 23 19  1  0  0  0  0
 24 20  1  0  0  0  0
 25 26  2  0  0  0  0
 25 15  1  0  0  0  0
 27 25  2  0  0  0  0
 28 25  1  0  0  0  0
 29 30  1  0  0  0  0
 29 31  1  0  0  0  0
 32 33  1  0  0  0  0
 33 29  1  0  0  0  0
 33 34  2  0  0  0  0
 34 35  1  0  0  0  0
 36 34  1  0  0  0  0
 36 42  1  0  0  0  0
 37 39  1  0  0  0  0
 37 36  2  0  0  0  0
 38 32  2  0  0  0  0
 38 37  1  0  0  0  0
 39 40  1  0  0  0  0
 40 42  1  0  0  0  0
 41 40  1  0  0  0  0
M  END
>  <minimizedAffinity>
-6.06172085

>  <minimizedRMSD>
1.00764346

$$$$
