
 OpenBabel03242522403D

 42 45  0  0  0  0  0  0  0  0999 V2000
   46.9340   32.1100   47.7370 C   0  0  0  0  0  0  0  0  0  0  0  0
   47.0530   31.3200   46.5610 C   0  0  0  0  0  0  0  0  0  0  0  0
   47.9270   30.2360   46.6000 C   0  0  0  0  0  0  0  0  0  0  0  0
   48.6150   29.9970   47.7590 N   0  0  0  0  0  0  0  0  0  0  0  0
   48.4690   30.7630   48.8280 C   0  0  0  0  0  0  0  0  0  0  0  0
   47.6440   31.8070   48.8260 N   0  0  0  0  0  0  0  0  0  0  0  0
   46.2860   32.9620   47.7940 H   0  0  0  0  0  0  0  0  0  0  0  0
   48.0370   29.6190   45.7220 H   0  0  0  0  0  0  0  0  0  0  0  0
   46.2640   31.6630   45.3760 C   0  0  0  0  0  0  0  0  0  0  0  0
   46.2330   30.7300   44.7370 H   0  0  0  0  0  0  0  0  0  0  0  0
   45.2140   31.9050   45.5500 H   0  0  0  0  0  0  0  0  0  0  0  0
   47.0370   32.7040   44.5950 C   0  0  0  0  0  0  0  0  0  0  0  0
   47.9430   33.0590   45.1690 H   0  0  0  0  0  0  0  0  0  0  0  0
   47.4800   32.2610   43.6700 H   0  0  0  0  0  0  0  0  0  0  0  0
   46.5900   34.5760   43.0740 C   0  0  0  0  0  0  0  0  0  0  0  0
   46.2870   33.9080   44.2480 C   0  0  0  0  0  0  0  0  0  0  0  0
   45.3120   34.3220   45.1030 C   0  0  0  0  0  0  0  0  0  0  0  0
   44.5930   35.4560   44.7880 C   0  0  0  0  0  0  0  0  0  0  0  0
   44.8340   36.1710   43.6470 C   0  0  0  0  0  0  0  0  0  0  0  0
   45.8400   35.6940   42.8220 C   0  0  0  0  0  0  0  0  0  0  0  0
   45.0080   33.8790   46.0240 H   0  0  0  0  0  0  0  0  0  0  0  0
   43.7900   35.8640   45.4160 H   0  0  0  0  0  0  0  0  0  0  0  0
   44.3110   37.0730   43.3320 H   0  0  0  0  0  0  0  0  0  0  0  0
   46.0550   36.2410   41.9050 H   0  0  0  0  0  0  0  0  0  0  0  0
   47.8300   34.0830   41.9550 S   0  0  0  0  0  0  0  0  0  0  0  0
   49.1830   34.6720   42.2850 O   0  0  0  0  0  0  0  0  0  0  0  0
   47.5050   34.6570   40.5840 O   0  0  0  0  0  0  0  0  0  0  0  0
   47.9670   32.7430   41.8350 H   0  0  0  0  0  0  0  0  0  0  0  0
   49.2540   30.4050   50.0620 C   0  0  0  0  0  0  0  0  0  0  0  0
   49.3120   29.3060   50.2030 H   0  0  0  0  0  0  0  0  0  0  0  0
   48.6920   30.8460   50.9120 H   0  0  0  0  0  0  0  0  0  0  0  0
   50.7150   32.4090   50.1770 C   0  0  0  0  0  3  0  0  0  0  0  0
   50.5900   31.0420   50.0390 C   0  0  0  0  0  0  0  0  0  0  0  0
   51.6940   30.2050   49.8730 C   0  0  0  0  0  0  0  0  0  0  0  0
   51.5560   29.1540   49.7700 H   0  0  0  0  0  0  0  0  0  0  0  0
   52.9230   30.8330   49.8560 C   0  0  0  0  0  0  0  0  0  0  0  0
   53.0950   32.1950   49.9910 C   0  0  0  0  0  0  0  0  0  0  0  0
   51.9690   32.9830   50.1530 C   0  0  0  0  0  3  0  0  0  0  0  0
   54.4480   32.4640   49.9260 O   0  0  0  0  0  0  0  0  0  0  0  0
   55.1190   31.2630   49.5900 C   0  0  0  0  0  3  0  0  0  0  0  0
   55.9640   31.0440   50.2880 H   0  0  0  0  0  0  0  0  0  0  0  0
   54.1660   30.2320   49.7060 O   0  0  0  0  0  0  0  0  0  0  0  0
  1  7  1  0  0  0  0
  1  6  1  0  0  0  0
  2  3  1  0  0  0  0
  2  1  2  0  0  0  0
  3  4  2  0  0  0  0
  4  5  1  0  0  0  0
  5 29  1  0  0  0  0
  6  5  2  0  0  0  0
  8  3  1  0  0  0  0
  9 11  1  0  0  0  0
  9  2  1  0  0  0  0
 10  9  1  0  0  0  0
 12 13  1  0  0  0  0
 12  9  1  0  0  0  0
 14 12  1  0  0  0  0
 15 16  1  0  0  0  0
 16 12  1  0  0  0  0
 16 17  2  0  0  0  0
 17 21  1  0  0  0  0
 18 17  1  0  0  0  0
 18 22  1  0  0  0  0
 19 18  2  0  0  0  0
 20 15  2  0  0  0  0
 20 19  1  0  0  0  0
 23 19  1  0  0  0  0
 24 20  1  0  0  0  0
 25 26  2  0  0  0  0
 25 15  1  0  0  0  0
 27 25  2  0  0  0  0
 28 25  1  0  0  0  0
 29 30  1  0  0  0  0
 29 31  1  0  0  0  0
 33 29  1  0  0  0  0
 33 32  2  0  0  0  0
 34 33  1  0  0  0  0
 35 34  1  0  0  0  0
 36 34  2  0  0  0  0
 36 37  1  0  0  0  0
 37 38  2  0  0  0  0
 38 32  1  0  0  0  0
 39 37  1  0  0  0  0
 40 42  1  0  0  0  0
 40 39  1  0  0  0  0
 40 41  1  0  0  0  0
 42 36  1  0  0  0  0
M  END
>  <minimizedAffinity>
-5.81069469

>  <minimizedRMSD>
0.948618233

$$$$
