REMARK  Name = 
REMARK  3 active torsions:
REMARK  status: ('A' for Active; 'I' for Inactive)
REMARK    1  A    between atoms: C_1  and  C_11
REMARK    2  A    between atoms: C_3  and  S_13
REMARK    3  A    between atoms: S_13  and  C_22
REMARK                            x       y       z     vdW  Elec       q    Type
REMARK                         _______ _______ _______ _____ _____    ______ ____
ROOT
ATOM      1  C   UNL     1      46.017  32.750  47.057  0.00  0.00    +0.000 A 
ATOM      2  C   UNL     1      47.268  32.407  47.522  0.00  0.00    +0.000 A 
ATOM      3  C   UNL     1      47.432  31.618  48.639  0.00  0.00    +0.000 A 
ATOM      4  C   UNL     1      46.329  31.146  49.329  0.00  0.00    +0.000 A 
ATOM      5  C   UNL     1      45.071  31.474  48.885  0.00  0.00    +0.000 A 
ATOM      6  C   UNL     1      44.926  32.271  47.756  0.00  0.00    +0.000 A 
ATOM      7  H   UNL     1      48.123  32.786  46.969  0.00  0.00    +0.000 HD
ATOM      8  H   UNL     1      46.490  30.539  50.189  0.00  0.00    +0.000 HD
ATOM      9  H   UNL     1      44.210  31.098  49.435  0.00  0.00    +0.000 HD
ATOM     10  H   UNL     1      43.917  32.504  47.444  0.00  0.00    +0.000 HD
ENDROOT
BRANCH   1  15
ATOM     11  C   UNL     1      44.714  35.365  44.853  0.00  0.00    +0.000 A 
ATOM     12  C   UNL     1      45.483  35.218  43.685  0.00  0.00    +0.000 A 
ATOM     13  C   UNL     1      46.461  34.208  43.653  0.00  0.00    +0.000 A 
ATOM     14  N   UNL     1      46.619  33.420  44.754  0.00  0.00    +0.000 NA
ATOM     15  C   UNL     1      45.858  33.591  45.865  0.00  0.00    +0.000 A 
ATOM     16  N   UNL     1      44.914  34.559  45.908  0.00  0.00    +0.000 NA
ATOM     17  H   UNL     1      43.949  36.128  44.926  0.00  0.00    +0.000 HD
ATOM     18  H   UNL     1      45.301  35.876  42.860  0.00  0.00    +0.000 HD
ATOM     19  H   UNL     1      47.065  34.077  42.765  0.00  0.00    +0.000 HD
ENDBRANCH   1  15
BRANCH   3  20
ATOM     20  S   UNL     1      49.068  31.217  49.184  0.00  0.00    +0.000 S 
BRANCH  20  22
ATOM     21  C   UNL     1      49.865  28.509  49.077  0.00  0.00    +0.000 A 
ATOM     22  C   UNL     1      49.718  29.735  48.475  0.00  0.00    +0.000 A 
ATOM     23  C   UNL     1      50.114  29.875  47.149  0.00  0.00    +0.000 A 
ATOM     24  H   UNL     1      50.047  30.784  46.574  0.00  0.00    +0.000 HD
ATOM     25  C   UNL     1      50.647  28.797  46.450  0.00  0.00    +0.000 A 
ATOM     26  C   UNL     1      50.781  27.572  47.090  0.00  0.00    +0.000 A 
ATOM     27  C   UNL     1      50.391  27.422  48.406  0.00  0.00    +0.000 A 
ATOM     28  O   UNL     1      51.338  26.686  46.154  0.00  0.00    +0.000 OA
ATOM     29  C   UNL     1      52.008  27.480  45.169  0.00  0.00    +0.000 C 
ATOM     30  H   UNL     1      52.989  27.862  45.543  0.00  0.00    +0.000 HD
ATOM     31  O   UNL     1      51.126  28.613  45.146  0.00  0.00    +0.000 OA
ENDBRANCH  20  22
ENDBRANCH   3  20
TORSDOF 3
