
     RDKit          3D

 50 53  0  0  0  0  0  0  0  0999 V2000
   45.3103   34.2767   43.7504 C   0  0  0  0  0  0  0  0  0  0  0  0
   46.4737   34.7638   43.1248 C   0  0  0  0  0  0  0  0  0  0  0  0
   47.6474   34.0683   43.2504 C   0  0  0  0  0  0  0  0  0  0  0  0
   47.5897   32.9462   43.9827 N   0  0  0  0  0  0  0  0  0  0  0  0
   46.5011   32.4872   44.5698 C   0  0  0  0  0  0  0  0  0  0  0  0
   45.3574   33.1537   44.4538 N   0  0  0  0  0  0  0  0  0  0  0  0
   48.9125   34.4699   42.6206 C   0  0  0  0  0  0  0  0  0  0  0  0
   48.7563   35.6581   41.7160 C   0  0  0  0  0  0  0  0  0  0  0  0
   48.5085   35.3078   40.3202 C   0  0  0  0  0  0  0  0  0  0  0  0
   48.2697   34.2631   39.5391 C   0  0  0  0  0  0  0  0  0  0  0  0
   48.1669   34.2843   38.0243 C   0  0  0  0  0  0  0  0  0  0  0  0
   46.4679   31.3302   45.3162 O   0  0  0  0  0  0  0  0  0  0  0  0
   45.4401   30.1865   47.2419 C   0  0  0  0  0  0  0  0  0  0  0  0
   46.0660   31.2284   46.6461 C   0  0  0  0  0  0  0  0  0  0  0  0
   46.3623   32.3381   47.4128 C   0  0  0  0  0  0  0  0  0  0  0  0
   46.0508   32.4302   48.7485 C   0  0  0  0  0  0  0  0  0  0  0  0
   45.4147   31.3636   49.3433 C   0  0  0  0  0  0  0  0  0  0  0  0
   45.1128   30.2437   48.5822 C   0  0  0  0  0  0  0  0  0  0  0  0
   44.9946   28.8609   46.1983 S   0  0  0  0  0  0  0  0  0  0  0  0
   43.5471   28.7505   45.9412 O   0  0  0  0  0  0  0  0  0  0  0  0
   45.3521   27.5839   46.9962 O   0  0  0  0  0  0  0  0  0  0  0  0
   44.3881   34.8280   43.6484 H   0  0  0  0  0  0  0  0  0  0  0  0
   46.3604   35.6777   42.5693 H   0  0  0  0  0  0  0  0  0  0  0  0
   49.6713   34.6517   43.3966 H   0  0  0  0  0  0  0  0  0  0  0  0
   49.2915   33.6252   41.9875 H   0  0  0  0  0  0  0  0  0  0  0  0
   48.0989   36.4464   42.0749 H   0  0  0  0  0  0  0  0  0  0  0  0
   49.7867   36.1429   41.7187 H   0  0  0  0  0  0  0  0  0  0  0  0
   48.5194   36.2159   39.6920 H   0  0  0  0  0  0  0  0  0  0  0  0
   48.2089   33.2610   39.9851 H   0  0  0  0  0  0  0  0  0  0  0  0
   48.4918   35.3032   37.6628 H   0  0  0  0  0  0  0  0  0  0  0  0
   48.8293   33.4975   37.6748 H   0  0  0  0  0  0  0  0  0  0  0  0
   47.1005   34.1854   37.7450 H   0  0  0  0  0  0  0  0  0  0  0  0
   46.8605   33.2113   47.0131 H   0  0  0  0  0  0  0  0  0  0  0  0
   46.2787   33.2928   49.3517 H   0  0  0  0  0  0  0  0  0  0  0  0
   45.1260   31.3374   50.3915 H   0  0  0  0  0  0  0  0  0  0  0  0
   44.6142   29.3751   48.9959 H   0  0  0  0  0  0  0  0  0  0  0  0
   47.3528   28.2445   44.9325 C   0  0  0  0  0  0  0  0  0  0  0  0
   46.0407   28.7113   44.8064 C   0  0  0  0  0  0  0  0  0  0  0  0
   45.6981   29.0210   43.5112 C   0  0  0  0  0  0  0  0  0  0  0  0
   44.6743   29.3942   43.3533 H   0  0  0  0  0  0  0  0  0  0  0  0
   46.5686   28.8818   42.4485 C   0  0  0  0  0  0  0  0  0  0  0  0
   47.8518   28.4139   42.6472 C   0  0  0  0  0  0  0  0  0  0  0  0
   48.2724   28.0813   43.9180 C   0  0  0  0  0  0  0  0  0  0  0  0
   48.4945   28.3775   41.4171 O   0  0  0  0  0  0  0  0  0  0  0  0
   47.7287   29.0808   40.4674 C   0  0  2  0  0  0  0  0  0  0  0  0
   47.7125   28.6441   39.4675 H   0  0  0  0  0  0  0  0  0  0  0  0
   46.4401   29.1289   41.0826 O   0  0  0  0  0  0  0  0  0  0  0  0
   47.6854   27.9805   45.9434 H   0  0  0  0  0  0  0  0  0  0  0  0
   49.2542   27.7119   44.1465 H   0  0  0  0  0  0  0  0  0  0  0  0
   48.0703   30.1529   40.4220 H   0  0  0  0  0  0  0  0  0  0  0  0
  1  6  2  0
  2  3  2  0
  2  1  1  0
  3  4  1  0
  4  5  2  0
  5 12  1  0
  6  5  1  0
  7  3  1  0
  8  7  1  0
  9  8  1  0
 10  9  2  0
 11 10  1  0
 12 14  1  0
 13 18  2  0
 14 13  1  0
 14 15  2  0
 15 16  1  0
 16 17  2  0
 18 17  1  0
 19 21  2  0
 19 13  1  0
 20 19  2  0
  1 22  1  0
  2 23  1  0
  7 24  1  0
  7 25  1  0
  8 26  1  0
  8 27  1  0
  9 28  1  0
 10 29  1  0
 11 30  1  0
 11 31  1  0
 11 32  1  0
 15 33  1  0
 16 34  1  0
 17 35  1  0
 18 36  1  0
 37 38  2  0
 38 39  1  0
 39 40  1  0
 39 41  2  0
 41 42  1  0
 42 43  2  0
 42 44  1  0
 44 45  1  0
 45 46  1  6
 45 47  1  0
 43 37  1  0
 47 41  1  0
 37 48  1  0
 43 49  1  0
 45 50  1  0
 19 38  1  0
M  ISO  8  22  14  23  14  24   8  25   8  26   8  27   8  30   8  31   8
M  ISO  7  32   8  33  14  34  14  35  14  36  14  40  16  46   8
M  END
>  <DihAtoms>  (1) 
20,18,37,36

>  <DihDeg>  (1) 
155.17689924459793

$$$$
