
 OpenBabel03242517543D

 45 48  0  0  0  0  0  0  0  0999 V2000
   45.4540   30.1660   47.2890 C   0  0  0  0  0  0  0  0  0  0  0  0
   46.0450   31.2300   46.6960 C   0  0  0  0  0  0  0  0  0  0  0  0
   46.2560   32.3660   47.4530 C   0  0  0  0  0  0  0  0  0  0  0  0
   45.8960   32.4620   48.7750 C   0  0  0  0  0  0  0  0  0  0  0  0
   45.2960   31.3740   49.3670 C   0  0  0  0  0  0  0  0  0  0  0  0
   45.0790   30.2270   48.6160 C   0  0  0  0  0  0  0  0  0  0  0  0
   46.7220   33.2580   47.0540 H   0  0  0  0  0  0  0  0  0  0  0  0
   46.0580   33.3450   49.3710 H   0  0  0  0  0  0  0  0  0  0  0  0
   44.9740   31.3480   50.4060 H   0  0  0  0  0  0  0  0  0  0  0  0
   44.6130   29.3400   49.0290 H   0  0  0  0  0  0  0  0  0  0  0  0
   45.1150   28.8030   46.2540 S   0  0  0  0  0  0  0  0  0  0  0  0
   44.1380   29.0810   45.1840 O   0  0  0  0  0  0  0  0  0  0  0  0
   44.4130   27.7700   47.1680 O   0  0  0  0  0  0  0  0  0  0  0  0
   47.3560   27.2880   46.7260 C   0  0  0  0  0  3  0  0  0  0  0  0
   46.5550   27.9340   45.7800 C   0  0  0  0  0  0  0  0  0  0  0  0
   47.0230   27.8030   44.4930 C   0  0  0  0  0  0  0  0  0  0  0  0
   46.4290   28.2930   43.7060 H   0  0  0  0  0  0  0  0  0  0  0  0
   48.1700   27.1030   44.1780 C   0  0  0  0  0  0  0  0  0  0  0  0
   48.9140   26.4880   45.1650 C   0  0  0  0  0  0  0  0  0  0  0  0
   48.5090   26.5740   46.4820 C   0  0  0  0  0  3  0  0  0  0  0  0
   50.0000   25.8660   44.5660 O   0  0  0  0  0  0  0  0  0  0  0  0
   50.1160   26.3060   43.2330 C   0  0  0  0  0  3  0  0  0  0  0  0
   50.4170   25.5420   42.5150 H   0  0  0  0  0  0  0  0  0  0  0  0
   48.8170   26.8440   42.9710 O   0  0  0  0  0  0  0  0  0  0  0  0
   46.4860   31.3320   45.3780 O   0  0  0  0  0  0  0  0  0  0  0  0
   45.3000   34.2500   43.7790 C   0  0  0  0  0  0  0  0  0  0  0  0
   46.4620   34.7470   43.1580 C   0  0  0  0  0  0  0  0  0  0  0  0
   47.6430   34.0680   43.2970 C   0  0  0  0  0  0  0  0  0  0  0  0
   47.5960   32.9510   44.0400 N   0  0  0  0  0  0  0  0  0  0  0  0
   46.5090   32.4830   44.6230 C   0  0  0  0  0  0  0  0  0  0  0  0
   45.3570   33.1340   44.4930 N   0  0  0  0  0  0  0  0  0  0  0  0
   44.3720   34.7880   43.6660 H   0  0  0  0  0  0  0  0  0  0  0  0
   46.3400   35.6550   42.5940 H   0  0  0  0  0  0  0  0  0  0  0  0
   48.9090   34.4810   42.6740 C   0  0  0  0  0  0  0  0  0  0  0  0
   49.6520   34.6990   43.4540 H   0  0  0  0  0  0  0  0  0  0  0  0
   49.3130   33.6290   42.0670 H   0  0  0  0  0  0  0  0  0  0  0  0
   48.7380   35.6420   41.7370 C   0  0  0  0  0  0  0  0  0  0  0  0
   48.0100   36.3920   42.0360 H   0  0  0  0  0  0  0  0  0  0  0  0
   49.7340   36.1920   41.7980 H   0  0  0  0  0  0  0  0  0  0  0  0
   48.6060   35.2550   40.3350 C   0  0  0  0  0  3  0  0  0  0  0  0
   48.0350   34.3420   39.5600 C   0  0  0  0  0  3  0  0  0  0  0  0
   48.2290   34.1940   38.0610 C   0  0  0  0  0  0  0  0  0  0  0  0
   49.0660   34.8830   37.7450 H   0  0  0  0  0  0  0  0  0  0  0  0
   48.4770   33.1500   37.9000 H   0  0  0  0  0  0  0  0  0  0  0  0
   47.3180   34.5650   37.5530 H   0  0  0  0  0  0  0  0  0  0  0  0
  1  6  1  0  0  0  0
  2  1  2  0  0  0  0
  2  3  1  0  0  0  0
  3  4  2  0  0  0  0
  4  5  1  0  0  0  0
  4  8  1  0  0  0  0
  5  9  1  0  0  0  0
  6 10  1  0  0  0  0
  6  5  2  0  0  0  0
  7  3  1  0  0  0  0
 11 13  2  0  0  0  0
 11  1  1  0  0  0  0
 12 11  2  0  0  0  0
 15 11  1  0  0  0  0
 15 14  2  0  0  0  0
 16 15  1  0  0  0  0
 17 16  1  0  0  0  0
 18 16  2  0  0  0  0
 18 19  1  0  0  0  0
 19 20  2  0  0  0  0
 20 14  1  0  0  0  0
 21 19  1  0  0  0  0
 22 21  1  0  0  0  0
 23 22  1  0  0  0  0
 24 22  1  0  0  0  0
 24 18  1  0  0  0  0
 25  2  1  0  0  0  0
 26 31  1  0  0  0  0
 27 28  1  0  0  0  0
 27 26  2  0  0  0  0
 28 29  2  0  0  0  0
 29 30  1  0  0  0  0
 30 25  1  0  0  0  0
 31 30  2  0  0  0  0
 32 26  1  0  0  0  0
 33 27  1  0  0  0  0
 34 28  1  0  0  0  0
 34 35  1  0  0  0  0
 36 34  1  0  0  0  0
 37 39  1  0  0  0  0
 37 38  1  0  0  0  0
 37 34  1  0  0  0  0
 40 37  1  0  0  0  0
 41 40  2  0  0  0  0
 42 41  1  0  0  0  0
 43 42  1  0  0  0  0
 44 42  1  0  0  0  0
 45 42  1  0  0  0  0
M  END
>  <minimizedAffinity>
-5.55944586

>  <minimizedRMSD>
1.78040588

$$$$
