
 OpenBabel03242517553D

 45 48  0  0  0  0  0  0  0  0999 V2000
   45.4500   30.1640   47.2980 C   0  0  0  0  0  0  0  0  0  0  0  0
   46.0430   31.2270   46.7050 C   0  0  0  0  0  0  0  0  0  0  0  0
   46.2560   32.3630   47.4610 C   0  0  0  0  0  0  0  0  0  0  0  0
   45.8950   32.4610   48.7830 C   0  0  0  0  0  0  0  0  0  0  0  0
   45.2930   31.3730   49.3760 C   0  0  0  0  0  0  0  0  0  0  0  0
   45.0740   30.2270   48.6250 C   0  0  0  0  0  0  0  0  0  0  0  0
   46.7240   33.2530   47.0630 H   0  0  0  0  0  0  0  0  0  0  0  0
   46.0580   33.3440   49.3790 H   0  0  0  0  0  0  0  0  0  0  0  0
   44.9700   31.3490   50.4150 H   0  0  0  0  0  0  0  0  0  0  0  0
   44.6060   29.3410   49.0380 H   0  0  0  0  0  0  0  0  0  0  0  0
   45.1080   28.8010   46.2640 S   0  0  0  0  0  0  0  0  0  0  0  0
   44.1210   29.0760   45.2040 O   0  0  0  0  0  0  0  0  0  0  0  0
   44.4210   27.7630   47.1830 O   0  0  0  0  0  0  0  0  0  0  0  0
   46.6820   27.4300   44.4800 C   0  0  0  0  0  3  0  0  0  0  0  0
   46.5490   27.9410   45.7750 C   0  0  0  0  0  0  0  0  0  0  0  0
   47.6420   27.6920   46.5720 C   0  0  0  0  0  0  0  0  0  0  0  0
   47.5900   28.0740   47.6030 H   0  0  0  0  0  0  0  0  0  0  0  0
   48.7550   27.0060   46.1290 C   0  0  0  0  0  0  0  0  0  0  0  0
   48.8180   26.5290   44.8360 C   0  0  0  0  0  0  0  0  0  0  0  0
   47.7620   26.7380   43.9740 C   0  0  0  0  0  3  0  0  0  0  0  0
   50.0390   25.8860   44.6720 O   0  0  0  0  0  0  0  0  0  0  0  0
   50.6450   25.7030   45.9290 C   0  0  0  0  0  3  0  0  0  0  0  0
   51.7280   25.8340   45.9470 H   0  0  0  0  0  0  0  0  0  0  0  0
   49.9500   26.6470   46.7480 O   0  0  0  0  0  0  0  0  0  0  0  0
   46.4850   31.3270   45.3880 O   0  0  0  0  0  0  0  0  0  0  0  0
   45.3040   34.2490   43.7910 C   0  0  0  0  0  0  0  0  0  0  0  0
   46.4650   34.7400   43.1640 C   0  0  0  0  0  0  0  0  0  0  0  0
   47.6440   34.0560   43.2980 C   0  0  0  0  0  0  0  0  0  0  0  0
   47.5950   32.9410   44.0420 N   0  0  0  0  0  0  0  0  0  0  0  0
   46.5090   32.4770   44.6310 C   0  0  0  0  0  0  0  0  0  0  0  0
   45.3590   33.1330   44.5060 N   0  0  0  0  0  0  0  0  0  0  0  0
   44.3770   34.7900   43.6820 H   0  0  0  0  0  0  0  0  0  0  0  0
   46.3440   35.6480   42.5990 H   0  0  0  0  0  0  0  0  0  0  0  0
   48.9070   34.4640   42.6690 C   0  0  0  0  0  0  0  0  0  0  0  0
   49.6580   34.6730   43.4450 H   0  0  0  0  0  0  0  0  0  0  0  0
   49.3010   33.6110   42.0540 H   0  0  0  0  0  0  0  0  0  0  0  0
   48.7390   35.6300   41.7380 C   0  0  0  0  0  0  0  0  0  0  0  0
   48.0120   36.3800   42.0420 H   0  0  0  0  0  0  0  0  0  0  0  0
   49.7360   36.1780   41.8020 H   0  0  0  0  0  0  0  0  0  0  0  0
   48.6050   35.2520   40.3340 C   0  0  0  0  0  3  0  0  0  0  0  0
   48.0380   34.3410   39.5550 C   0  0  0  0  0  3  0  0  0  0  0  0
   48.2290   34.2040   38.0540 C   0  0  0  0  0  0  0  0  0  0  0  0
   49.0610   34.8990   37.7400 H   0  0  0  0  0  0  0  0  0  0  0  0
   48.4820   33.1630   37.8850 H   0  0  0  0  0  0  0  0  0  0  0  0
   47.3140   34.5730   37.5510 H   0  0  0  0  0  0  0  0  0  0  0  0
  1  6  1  0  0  0  0
  2  1  2  0  0  0  0
  2  3  1  0  0  0  0
  3  4  2  0  0  0  0
  4  5  1  0  0  0  0
  4  8  1  0  0  0  0
  5  9  1  0  0  0  0
  6 10  1  0  0  0  0
  6  5  2  0  0  0  0
  7  3  1  0  0  0  0
 11 13  2  0  0  0  0
 11  1  1  0  0  0  0
 12 11  2  0  0  0  0
 14 15  1  0  0  0  0
 15 11  1  0  0  0  0
 15 16  2  0  0  0  0
 16 17  1  0  0  0  0
 18 16  1  0  0  0  0
 18 24  1  0  0  0  0
 19 18  2  0  0  0  0
 20 14  2  0  0  0  0
 20 19  1  0  0  0  0
 21 19  1  0  0  0  0
 21 22  1  0  0  0  0
 22 23  1  0  0  0  0
 22 24  1  0  0  0  0
 25  2  1  0  0  0  0
 26 31  1  0  0  0  0
 27 28  1  0  0  0  0
 27 26  2  0  0  0  0
 28 29  2  0  0  0  0
 29 30  1  0  0  0  0
 30 25  1  0  0  0  0
 31 30  2  0  0  0  0
 32 26  1  0  0  0  0
 33 27  1  0  0  0  0
 34 28  1  0  0  0  0
 34 35  1  0  0  0  0
 36 34  1  0  0  0  0
 37 39  1  0  0  0  0
 37 38  1  0  0  0  0
 37 34  1  0  0  0  0
 40 37  1  0  0  0  0
 41 40  2  0  0  0  0
 42 41  1  0  0  0  0
 43 42  1  0  0  0  0
 44 42  1  0  0  0  0
 45 42  1  0  0  0  0
M  END
>  <minimizedAffinity>
-5.56551075

>  <minimizedRMSD>
1.86134827

$$$$
