
 OpenBabel03242517583D

 45 48  0  0  0  0  0  0  0  0999 V2000
   39.3070   26.0260   42.5810 C   0  0  0  0  0  0  0  0  0  0  0  0
   39.6030   27.2010   43.1860 C   0  0  0  0  0  0  0  0  0  0  0  0
   40.8810   27.3780   43.6800 C   0  0  0  0  0  0  0  0  0  0  0  0
   41.8600   26.4190   43.5840 C   0  0  0  0  0  0  0  0  0  0  0  0
   41.5470   25.2290   42.9670 C   0  0  0  0  0  0  0  0  0  0  0  0
   40.2670   25.0400   42.4670 C   0  0  0  0  0  0  0  0  0  0  0  0
   41.1970   28.2870   44.1750 H   0  0  0  0  0  0  0  0  0  0  0  0
   42.8590   26.5510   43.9670 H   0  0  0  0  0  0  0  0  0  0  0  0
   42.2500   24.4070   42.8400 H   0  0  0  0  0  0  0  0  0  0  0  0
   39.9640   24.1250   41.9710 H   0  0  0  0  0  0  0  0  0  0  0  0
   37.6500   25.8200   42.0770 S   0  0  0  0  0  0  0  0  0  0  0  0
   36.6580   26.4060   42.9980 O   0  0  0  0  0  0  0  0  0  0  0  0
   37.3960   24.2950   42.1450 O   0  0  0  0  0  0  0  0  0  0  0  0
   36.4140   25.4850   39.6480 C   0  0  0  0  0  3  0  0  0  0  0  0
   37.4110   26.1420   40.3760 C   0  0  0  0  0  0  0  0  0  0  0  0
   38.1400   27.0280   39.6190 C   0  0  0  0  0  0  0  0  0  0  0  0
   38.9410   27.5730   40.1440 H   0  0  0  0  0  0  0  0  0  0  0  0
   37.9060   27.2410   38.2760 C   0  0  0  0  0  0  0  0  0  0  0  0
   36.9020   26.5570   37.6200 C   0  0  0  0  0  0  0  0  0  0  0  0
   36.1250   25.6490   38.3100 C   0  0  0  0  0  3  0  0  0  0  0  0
   36.8950   26.9660   36.2930 O   0  0  0  0  0  0  0  0  0  0  0  0
   38.0640   27.7030   36.0240 C   0  0  0  0  0  3  0  0  0  0  0  0
   37.9330   28.5570   35.3570 H   0  0  0  0  0  0  0  0  0  0  0  0
   38.5060   28.0720   37.3310 O   0  0  0  0  0  0  0  0  0  0  0  0
   38.7600   28.2930   43.3790 O   0  0  0  0  0  0  0  0  0  0  0  0
   39.4500   31.3630   41.7720 C   0  0  0  0  0  0  0  0  0  0  0  0
   38.3820   31.4730   40.8610 C   0  0  0  0  0  0  0  0  0  0  0  0
   37.4340   30.4860   40.8120 C   0  0  0  0  0  0  0  0  0  0  0  0
   37.6070   29.4620   41.6610 N   0  0  0  0  0  0  0  0  0  0  0  0
   38.6060   29.3550   42.5150 C   0  0  0  0  0  0  0  0  0  0  0  0
   39.5310   30.3080   42.5720 N   0  0  0  0  0  0  0  0  0  0  0  0
   40.1940   32.1430   41.8080 H   0  0  0  0  0  0  0  0  0  0  0  0
   38.3800   32.3560   40.2470 H   0  0  0  0  0  0  0  0  0  0  0  0
   36.2660   30.5110   39.9200 C   0  0  0  0  0  0  0  0  0  0  0  0
   35.8040   31.5090   39.9410 H   0  0  0  0  0  0  0  0  0  0  0  0
   36.6080   30.3310   38.8660 H   0  0  0  0  0  0  0  0  0  0  0  0
   35.2690   29.4360   40.2440 C   0  0  0  0  0  0  0  0  0  0  0  0
   35.6510   28.5860   40.8050 H   0  0  0  0  0  0  0  0  0  0  0  0
   34.5510   29.9390   40.9720 H   0  0  0  0  0  0  0  0  0  0  0  0
   34.4400   29.0380   39.1100 C   0  0  0  0  0  3  0  0  0  0  0  0
   34.4220   29.0470   37.7840 C   0  0  0  0  0  3  0  0  0  0  0  0
   33.2650   28.6120   36.9020 C   0  0  0  0  0  0  0  0  0  0  0  0
   32.3650   28.4400   37.5620 H   0  0  0  0  0  0  0  0  0  0  0  0
   33.1070   29.4280   36.2040 H   0  0  0  0  0  0  0  0  0  0  0  0
   33.5130   27.6290   36.4580 H   0  0  0  0  0  0  0  0  0  0  0  0
  1  2  1  0  0  0  0
  2 25  1  0  0  0  0
  2  3  2  0  0  0  0
  3  7  1  0  0  0  0
  4  3  1  0  0  0  0
  4  8  1  0  0  0  0
  5  4  2  0  0  0  0
  6  1  2  0  0  0  0
  6  5  1  0  0  0  0
  9  5  1  0  0  0  0
 10  6  1  0  0  0  0
 11 13  2  0  0  0  0
 11  1  1  0  0  0  0
 11 12  2  0  0  0  0
 14 15  1  0  0  0  0
 15 11  1  0  0  0  0
 16 17  1  0  0  0  0
 16 15  2  0  0  0  0
 18 16  1  0  0  0  0
 19 18  2  0  0  0  0
 19 20  1  0  0  0  0
 20 14  2  0  0  0  0
 21 19  1  0  0  0  0
 22 21  1  0  0  0  0
 22 24  1  0  0  0  0
 23 22  1  0  0  0  0
 24 18  1  0  0  0  0
 26 32  1  0  0  0  0
 26 31  1  0  0  0  0
 27 26  2  0  0  0  0
 28 27  1  0  0  0  0
 28 29  2  0  0  0  0
 29 30  1  0  0  0  0
 30 31  2  0  0  0  0
 30 25  1  0  0  0  0
 33 27  1  0  0  0  0
 34 35  1  0  0  0  0
 34 37  1  0  0  0  0
 34 28  1  0  0  0  0
 36 34  1  0  0  0  0
 37 38  1  0  0  0  0
 37 39  1  0  0  0  0
 40 37  1  0  0  0  0
 41 40  2  0  0  0  0
 42 43  1  0  0  0  0
 42 41  1  0  0  0  0
 44 42  1  0  0  0  0
 45 42  1  0  0  0  0
M  END
>  <minimizedAffinity>
-5.69282246

$$$$

 OpenBabel03242517583D

 45 48  0  0  0  0  0  0  0  0999 V2000
   37.5010   30.3060   39.0120 C   0  0  0  0  0  0  0  0  0  0  0  0
   38.6890   30.2480   39.6590 C   0  0  0  0  0  0  0  0  0  0  0  0
   39.3120   31.4370   39.9890 C   0  0  0  0  0  0  0  0  0  0  0  0
   38.7810   32.6680   39.6910 C   0  0  0  0  0  0  0  0  0  0  0  0
   37.5730   32.7140   39.0320 C   0  0  0  0  0  0  0  0  0  0  0  0
   36.9380   31.5260   38.6960 C   0  0  0  0  0  0  0  0  0  0  0  0
   40.2610   31.4770   40.5070 H   0  0  0  0  0  0  0  0  0  0  0  0
   39.2610   33.5980   39.9450 H   0  0  0  0  0  0  0  0  0  0  0  0
   37.0680   33.6360   38.7510 H   0  0  0  0  0  0  0  0  0  0  0  0
   35.9860   31.5000   38.1790 H   0  0  0  0  0  0  0  0  0  0  0  0
   36.8190   28.7750   38.5250 S   0  0  0  0  0  0  0  0  0  0  0  0
   36.6240   27.8190   39.6310 O   0  0  0  0  0  0  0  0  0  0  0  0
   37.8970   28.1230   37.6260 O   0  0  0  0  0  0  0  0  0  0  0  0
   35.7060   29.0830   36.0340 C   0  0  0  0  0  3  0  0  0  0  0  0
   35.4860   28.9490   37.4090 C   0  0  0  0  0  0  0  0  0  0  0  0
   34.1550   28.9700   37.7500 C   0  0  0  0  0  0  0  0  0  0  0  0
   33.9240   28.8680   38.8220 H   0  0  0  0  0  0  0  0  0  0  0  0
   33.1420   29.1100   36.8220 C   0  0  0  0  0  0  0  0  0  0  0  0
   33.4330   29.2370   35.4780 C   0  0  0  0  0  0  0  0  0  0  0  0
   34.7450   29.2250   35.0550 C   0  0  0  0  0  3  0  0  0  0  0  0
   32.2350   29.3600   34.7870 O   0  0  0  0  0  0  0  0  0  0  0  0
   31.1880   29.5930   35.7000 C   0  0  0  0  0  3  0  0  0  0  0  0
   30.2440   29.1010   35.4610 H   0  0  0  0  0  0  0  0  0  0  0  0
   31.7540   29.1560   36.9370 O   0  0  0  0  0  0  0  0  0  0  0  0
   39.3880   29.1100   40.0540 O   0  0  0  0  0  0  0  0  0  0  0  0
   38.3590   28.5190   43.3810 C   0  0  0  0  0  0  0  0  0  0  0  0
   38.9910   27.2960   43.6790 C   0  0  0  0  0  0  0  0  0  0  0  0
   39.7670   26.6890   42.7280 C   0  0  0  0  0  0  0  0  0  0  0  0
   39.8630   27.3270   41.5520 N   0  0  0  0  0  0  0  0  0  0  0  0
   39.2720   28.4730   41.2690 C   0  0  0  0  0  0  0  0  0  0  0  0
   38.5170   29.0710   42.1850 N   0  0  0  0  0  0  0  0  0  0  0  0
   37.7490   28.9930   44.1330 H   0  0  0  0  0  0  0  0  0  0  0  0
   38.8200   26.9100   44.6690 H   0  0  0  0  0  0  0  0  0  0  0  0
   40.4910   25.4280   42.9400 C   0  0  0  0  0  0  0  0  0  0  0  0
   41.2110   25.2720   42.1220 H   0  0  0  0  0  0  0  0  0  0  0  0
   41.0860   25.5020   43.8880 H   0  0  0  0  0  0  0  0  0  0  0  0
   39.5700   24.2520   43.0930 C   0  0  0  0  0  0  0  0  0  0  0  0
   40.0480   23.2930   43.2740 H   0  0  0  0  0  0  0  0  0  0  0  0
   39.0140   24.4650   44.0650 H   0  0  0  0  0  0  0  0  0  0  0  0
   38.5290   24.1810   42.0720 C   0  0  0  0  0  3  0  0  0  0  0  0
   37.2150   24.2850   41.9200 C   0  0  0  0  0  3  0  0  0  0  0  0
   36.4400   24.0240   40.6410 C   0  0  0  0  0  0  0  0  0  0  0  0
   37.1450   23.5650   39.8880 H   0  0  0  0  0  0  0  0  0  0  0  0
   35.6410   23.3430   40.9170 H   0  0  0  0  0  0  0  0  0  0  0  0
   36.1280   24.9980   40.2160 H   0  0  0  0  0  0  0  0  0  0  0  0
  1  2  1  0  0  0  0
  2  3  2  0  0  0  0
  2 25  1  0  0  0  0
  3  7  1  0  0  0  0
  4  8  1  0  0  0  0
  4  3  1  0  0  0  0
  5  4  2  0  0  0  0
  6  1  2  0  0  0  0
  6  5  1  0  0  0  0
  9  5  1  0  0  0  0
 10  6  1  0  0  0  0
 11  1  1  0  0  0  0
 11 12  2  0  0  0  0
 13 11  2  0  0  0  0
 14 15  1  0  0  0  0
 15 16  2  0  0  0  0
 15 11  1  0  0  0  0
 16 17  1  0  0  0  0
 18 24  1  0  0  0  0
 18 16  1  0  0  0  0
 19 18  2  0  0  0  0
 20 19  1  0  0  0  0
 20 14  2  0  0  0  0
 21 19  1  0  0  0  0
 21 22  1  0  0  0  0
 22 24  1  0  0  0  0
 23 22  1  0  0  0  0
 25 30  1  0  0  0  0
 26 27  1  0  0  0  0
 26 32  1  0  0  0  0
 27 33  1  0  0  0  0
 28 34  1  0  0  0  0
 28 27  2  0  0  0  0
 29 28  1  0  0  0  0
 30 29  2  0  0  0  0
 30 31  1  0  0  0  0
 31 26  2  0  0  0  0
 34 37  1  0  0  0  0
 34 36  1  0  0  0  0
 35 34  1  0  0  0  0
 37 38  1  0  0  0  0
 37 39  1  0  0  0  0
 40 37  1  0  0  0  0
 41 40  2  0  0  0  0
 42 44  1  0  0  0  0
 42 41  1  0  0  0  0
 43 42  1  0  0  0  0
 45 42  1  0  0  0  0
M  END
>  <minimizedAffinity>
-5.67022705

$$$$

 OpenBabel03242517583D

 45 48  0  0  0  0  0  0  0  0999 V2000
   37.9180   30.2080   41.2080 C   0  0  0  0  0  0  0  0  0  0  0  0
   36.7720   30.2020   40.4870 C   0  0  0  0  0  0  0  0  0  0  0  0
   36.5270   31.2660   39.6400 C   0  0  0  0  0  0  0  0  0  0  0  0
   37.3930   32.3230   39.4970 C   0  0  0  0  0  0  0  0  0  0  0  0
   38.5550   32.3170   40.2350 C   0  0  0  0  0  0  0  0  0  0  0  0
   38.8110   31.2540   41.0890 C   0  0  0  0  0  0  0  0  0  0  0  0
   35.6360   31.3370   39.0300 H   0  0  0  0  0  0  0  0  0  0  0  0
   37.2080   33.1560   38.8390 H   0  0  0  0  0  0  0  0  0  0  0  0
   39.3040   33.1060   40.1950 H   0  0  0  0  0  0  0  0  0  0  0  0
   39.7090   31.1950   41.6930 H   0  0  0  0  0  0  0  0  0  0  0  0
   38.1180   28.8950   42.3390 S   0  0  0  0  0  0  0  0  0  0  0  0
   37.1880   28.9320   43.4830 O   0  0  0  0  0  0  0  0  0  0  0  0
   39.5180   29.1120   42.9630 O   0  0  0  0  0  0  0  0  0  0  0  0
   39.2230   27.1780   40.5030 C   0  0  0  0  0  3  0  0  0  0  0  0
   38.3170   27.3460   41.5550 C   0  0  0  0  0  0  0  0  0  0  0  0
   37.6400   26.1930   41.8760 C   0  0  0  0  0  0  0  0  0  0  0  0
   36.9130   26.2690   42.7000 H   0  0  0  0  0  0  0  0  0  0  0  0
   37.8400   24.9950   41.2200 C   0  0  0  0  0  0  0  0  0  0  0  0
   38.7530   24.9020   40.1890 C   0  0  0  0  0  0  0  0  0  0  0  0
   39.4730   26.0140   39.8060 C   0  0  0  0  0  3  0  0  0  0  0  0
   38.7440   23.5950   39.7210 O   0  0  0  0  0  0  0  0  0  0  0  0
   37.6350   22.9120   40.2560 C   0  0  0  0  0  3  0  0  0  0  0  0
   37.8150   21.8700   40.5240 H   0  0  0  0  0  0  0  0  0  0  0  0
   37.2790   23.7280   41.3740 O   0  0  0  0  0  0  0  0  0  0  0  0
   35.7740   29.2300   40.4850 O   0  0  0  0  0  0  0  0  0  0  0  0
   35.5440   26.7660   37.9640 C   0  0  0  0  0  0  0  0  0  0  0  0
   34.4340   27.2030   37.2150 C   0  0  0  0  0  0  0  0  0  0  0  0
   33.7770   28.3460   37.5890 C   0  0  0  0  0  0  0  0  0  0  0  0
   34.2580   28.9730   38.6730 N   0  0  0  0  0  0  0  0  0  0  0  0
   35.2980   28.5660   39.3760 C   0  0  0  0  0  0  0  0  0  0  0  0
   35.9430   27.4590   39.0210 N   0  0  0  0  0  0  0  0  0  0  0  0
   36.0580   25.8660   37.6650 H   0  0  0  0  0  0  0  0  0  0  0  0
   34.1690   26.5930   36.3700 H   0  0  0  0  0  0  0  0  0  0  0  0
   32.6250   28.9060   36.8680 C   0  0  0  0  0  0  0  0  0  0  0  0
   32.9760   29.4880   36.0040 H   0  0  0  0  0  0  0  0  0  0  0  0
   32.0020   28.0640   36.4640 H   0  0  0  0  0  0  0  0  0  0  0  0
   31.7310   29.7230   37.7560 C   0  0  0  0  0  0  0  0  0  0  0  0
   31.2590   29.1890   38.5760 H   0  0  0  0  0  0  0  0  0  0  0  0
   32.4450   30.4430   38.2760 H   0  0  0  0  0  0  0  0  0  0  0  0
   30.7980   30.5780   37.0270 C   0  0  0  0  0  3  0  0  0  0  0  0
   30.7700   31.6060   36.1890 C   0  0  0  0  0  3  0  0  0  0  0  0
   29.5270   32.3320   35.7050 C   0  0  0  0  0  0  0  0  0  0  0  0
   28.6460   31.9600   36.3060 H   0  0  0  0  0  0  0  0  0  0  0  0
   29.7200   33.3860   35.8750 H   0  0  0  0  0  0  0  0  0  0  0  0
   29.3330   32.0320   34.6570 H   0  0  0  0  0  0  0  0  0  0  0  0
  1 11  1  0  0  0  0
  2  1  2  0  0  0  0
  3  2  1  0  0  0  0
  4  3  2  0  0  0  0
  4  5  1  0  0  0  0
  5  6  2  0  0  0  0
  6  1  1  0  0  0  0
  6 10  1  0  0  0  0
  7  3  1  0  0  0  0
  8  4  1  0  0  0  0
  9  5  1  0  0  0  0
 11 13  2  0  0  0  0
 11 12  2  0  0  0  0
 14 15  1  0  0  0  0
 15 16  2  0  0  0  0
 15 11  1  0  0  0  0
 16 17  1  0  0  0  0
 18 24  1  0  0  0  0
 18 16  1  0  0  0  0
 19 18  2  0  0  0  0
 20 19  1  0  0  0  0
 20 14  2  0  0  0  0
 21 19  1  0  0  0  0
 21 22  1  0  0  0  0
 22 23  1  0  0  0  0
 22 24  1  0  0  0  0
 25  2  1  0  0  0  0
 26 31  1  0  0  0  0
 27 28  1  0  0  0  0
 27 26  2  0  0  0  0
 28 29  2  0  0  0  0
 29 30  1  0  0  0  0
 30 25  1  0  0  0  0
 31 30  2  0  0  0  0
 32 26  1  0  0  0  0
 33 27  1  0  0  0  0
 34 28  1  0  0  0  0
 34 37  1  0  0  0  0
 35 34  1  0  0  0  0
 36 34  1  0  0  0  0
 37 39  1  0  0  0  0
 37 38  1  0  0  0  0
 40 37  1  0  0  0  0
 41 40  2  0  0  0  0
 42 44  1  0  0  0  0
 42 41  1  0  0  0  0
 42 43  1  0  0  0  0
 45 42  1  0  0  0  0
M  END
>  <minimizedAffinity>
-5.65770006

$$$$

 OpenBabel03242517583D

 45 48  0  0  0  0  0  0  0  0999 V2000
   36.1670   28.4730   37.2750 C   0  0  0  0  0  0  0  0  0  0  0  0
   37.0830   27.7210   37.9300 C   0  0  0  0  0  0  0  0  0  0  0  0
   38.2910   28.3030   38.2600 C   0  0  0  0  0  0  0  0  0  0  0  0
   38.6020   29.6060   37.9560 C   0  0  0  0  0  0  0  0  0  0  0  0
   37.6620   30.3610   37.2910 C   0  0  0  0  0  0  0  0  0  0  0  0
   36.4460   29.7860   36.9540 C   0  0  0  0  0  0  0  0  0  0  0  0
   39.0750   27.7710   38.7830 H   0  0  0  0  0  0  0  0  0  0  0  0
   39.5430   30.0670   38.2110 H   0  0  0  0  0  0  0  0  0  0  0  0
   37.8100   31.4010   37.0040 H   0  0  0  0  0  0  0  0  0  0  0  0
   35.6680   30.3320   36.4310 H   0  0  0  0  0  0  0  0  0  0  0  0
   34.7070   27.6510   36.7890 S   0  0  0  0  0  0  0  0  0  0  0  0
   34.3660   26.4780   37.6150 O   0  0  0  0  0  0  0  0  0  0  0  0
   35.0220   27.0680   35.3900 O   0  0  0  0  0  0  0  0  0  0  0  0
   33.1930   29.2310   35.1300 C   0  0  0  0  0  3  0  0  0  0  0  0
   33.3970   28.7490   36.4270 C   0  0  0  0  0  0  0  0  0  0  0  0
   32.4790   29.2260   37.3330 C   0  0  0  0  0  0  0  0  0  0  0  0
   32.5940   28.8780   38.3710 H   0  0  0  0  0  0  0  0  0  0  0  0
   31.4620   30.0940   36.9880 C   0  0  0  0  0  0  0  0  0  0  0  0
   31.3200   30.5280   35.6850 C   0  0  0  0  0  0  0  0  0  0  0  0
   32.2010   30.0950   34.7170 C   0  0  0  0  0  3  0  0  0  0  0  0
   30.2270   31.3820   35.6310 O   0  0  0  0  0  0  0  0  0  0  0  0
   29.8310   31.7200   36.9400 C   0  0  0  0  0  3  0  0  0  0  0  0
   28.7530   31.7970   37.0950 H   0  0  0  0  0  0  0  0  0  0  0  0
   30.4410   30.6930   37.7230 O   0  0  0  0  0  0  0  0  0  0  0  0
   36.9610   26.3920   38.3310 O   0  0  0  0  0  0  0  0  0  0  0  0
   37.1520   24.1110   41.0210 C   0  0  0  0  0  0  0  0  0  0  0  0
   37.0440   24.9560   42.1420 C   0  0  0  0  0  0  0  0  0  0  0  0
   36.9050   26.3060   41.9560 C   0  0  0  0  0  0  0  0  0  0  0  0
   36.8860   26.7260   40.6820 N   0  0  0  0  0  0  0  0  0  0  0  0
   36.9870   25.9360   39.6300 C   0  0  0  0  0  0  0  0  0  0  0  0
   37.1210   24.6250   39.7980 N   0  0  0  0  0  0  0  0  0  0  0  0
   37.2600   23.0480   41.1720 H   0  0  0  0  0  0  0  0  0  0  0  0
   37.0750   24.4690   43.1000 H   0  0  0  0  0  0  0  0  0  0  0  0
   36.7590   27.2760   43.0510 C   0  0  0  0  0  0  0  0  0  0  0  0
   35.7710   27.7550   42.9920 H   0  0  0  0  0  0  0  0  0  0  0  0
   36.8000   26.7310   44.0300 H   0  0  0  0  0  0  0  0  0  0  0  0
   37.8630   28.2940   43.0710 C   0  0  0  0  0  0  0  0  0  0  0  0
   38.3050   28.4980   44.0430 H   0  0  0  0  0  0  0  0  0  0  0  0
   38.7070   27.7940   42.4900 H   0  0  0  0  0  0  0  0  0  0  0  0
   37.5590   29.5100   42.3220 C   0  0  0  0  0  3  0  0  0  0  0  0
   36.6960   29.9970   41.4400 C   0  0  0  0  0  3  0  0  0  0  0  0
   36.7730   31.3590   40.7730 C   0  0  0  0  0  0  0  0  0  0  0  0
   37.7730   31.8190   41.0240 H   0  0  0  0  0  0  0  0  0  0  0  0
   36.6670   31.1700   39.7090 H   0  0  0  0  0  0  0  0  0  0  0  0
   36.0090   32.0160   41.2310 H   0  0  0  0  0  0  0  0  0  0  0  0
  1  2  1  0  0  0  0
  2  3  2  0  0  0  0
  2 25  1  0  0  0  0
  3  7  1  0  0  0  0
  4  8  1  0  0  0  0
  4  3  1  0  0  0  0
  5  4  2  0  0  0  0
  6  1  2  0  0  0  0
  6  5  1  0  0  0  0
  9  5  1  0  0  0  0
 10  6  1  0  0  0  0
 11  1  1  0  0  0  0
 11 12  2  0  0  0  0
 13 11  2  0  0  0  0
 14 15  1  0  0  0  0
 15 11  1  0  0  0  0
 15 16  2  0  0  0  0
 16 17  1  0  0  0  0
 18 16  1  0  0  0  0
 18 24  1  0  0  0  0
 19 18  2  0  0  0  0
 20 14  2  0  0  0  0
 20 19  1  0  0  0  0
 21 19  1  0  0  0  0
 21 22  1  0  0  0  0
 22 23  1  0  0  0  0
 22 24  1  0  0  0  0
 25 30  1  0  0  0  0
 26 32  1  0  0  0  0
 26 27  1  0  0  0  0
 27 33  1  0  0  0  0
 28 27  2  0  0  0  0
 28 34  1  0  0  0  0
 29 28  1  0  0  0  0
 30 31  1  0  0  0  0
 30 29  2  0  0  0  0
 31 26  2  0  0  0  0
 34 37  1  0  0  0  0
 34 36  1  0  0  0  0
 35 34  1  0  0  0  0
 37 38  1  0  0  0  0
 39 37  1  0  0  0  0
 40 37  1  0  0  0  0
 41 40  2  0  0  0  0
 42 43  1  0  0  0  0
 42 45  1  0  0  0  0
 42 41  1  0  0  0  0
 44 42  1  0  0  0  0
M  END
>  <minimizedAffinity>
-5.56355429

$$$$

 OpenBabel03242517583D

 45 48  0  0  0  0  0  0  0  0999 V2000
   39.7860   32.2610   40.5440 C   0  0  0  0  0  0  0  0  0  0  0  0
   38.9880   31.1720   40.6450 C   0  0  0  0  0  0  0  0  0  0  0  0
   37.6480   31.3140   40.3440 C   0  0  0  0  0  0  0  0  0  0  0  0
   37.0920   32.5060   39.9470 C   0  0  0  0  0  0  0  0  0  0  0  0
   37.9130   33.6060   39.8470 C   0  0  0  0  0  0  0  0  0  0  0  0
   39.2610   33.4750   40.1470 C   0  0  0  0  0  0  0  0  0  0  0  0
   36.9440   30.4940   40.3990 H   0  0  0  0  0  0  0  0  0  0  0  0
   36.0470   32.6240   39.7110 H   0  0  0  0  0  0  0  0  0  0  0  0
   37.5720   34.5940   39.5430 H   0  0  0  0  0  0  0  0  0  0  0  0
   39.9560   34.3050   40.0860 H   0  0  0  0  0  0  0  0  0  0  0  0
   41.4440   32.0450   41.0420 S   0  0  0  0  0  0  0  0  0  0  0  0
   41.6040   31.5700   42.4290 O   0  0  0  0  0  0  0  0  0  0  0  0
   42.0520   33.4680   41.0420 O   0  0  0  0  0  0  0  0  0  0  0  0
   43.1490   30.0920   40.1390 C   0  0  0  0  0  3  0  0  0  0  0  0
   42.4190   31.2450   39.8330 C   0  0  0  0  0  0  0  0  0  0  0  0
   42.5600   31.6450   38.5260 C   0  0  0  0  0  0  0  0  0  0  0  0
   42.0060   32.5500   38.2310 H   0  0  0  0  0  0  0  0  0  0  0  0
   43.3470   30.9710   37.6130 C   0  0  0  0  0  0  0  0  0  0  0  0
   44.0400   29.8370   37.9840 C   0  0  0  0  0  0  0  0  0  0  0  0
   43.9510   29.3700   39.2790 C   0  0  0  0  0  3  0  0  0  0  0  0
   44.7390   29.3750   36.8770 O   0  0  0  0  0  0  0  0  0  0  0  0
   44.7210   30.3570   35.8680 C   0  0  0  0  0  3  0  0  0  0  0  0
   44.6240   29.9770   34.8500 H   0  0  0  0  0  0  0  0  0  0  0  0
   43.6310   31.1900   36.2660 O   0  0  0  0  0  0  0  0  0  0  0  0
   39.3550   29.8820   41.0220 O   0  0  0  0  0  0  0  0  0  0  0  0
   37.5080   28.4640   43.6790 C   0  0  0  0  0  0  0  0  0  0  0  0
   37.0110   27.2790   43.1020 C   0  0  0  0  0  0  0  0  0  0  0  0
   37.3210   26.9820   41.8010 C   0  0  0  0  0  0  0  0  0  0  0  0
   38.0930   27.8730   41.1620 N   0  0  0  0  0  0  0  0  0  0  0  0
   38.5610   28.9840   41.7000 C   0  0  0  0  0  0  0  0  0  0  0  0
   38.2670   29.2810   42.9620 N   0  0  0  0  0  0  0  0  0  0  0  0
   37.2630   28.6930   44.7040 H   0  0  0  0  0  0  0  0  0  0  0  0
   36.4050   26.6640   43.7440 H   0  0  0  0  0  0  0  0  0  0  0  0
   36.8780   25.7640   41.1080 C   0  0  0  0  0  0  0  0  0  0  0  0
   35.8200   25.8630   40.8240 H   0  0  0  0  0  0  0  0  0  0  0  0
   37.4630   25.6510   40.1570 H   0  0  0  0  0  0  0  0  0  0  0  0
   37.1170   24.5210   41.9170 C   0  0  0  0  0  0  0  0  0  0  0  0
   37.6360   24.6600   42.8610 H   0  0  0  0  0  0  0  0  0  0  0  0
   36.0710   24.1920   42.2280 H   0  0  0  0  0  0  0  0  0  0  0  0
   37.6470   23.4040   41.1390 C   0  0  0  0  0  3  0  0  0  0  0  0
   37.7770   22.9790   39.8900 C   0  0  0  0  0  3  0  0  0  0  0  0
   38.3240   21.6300   39.4580 C   0  0  0  0  0  0  0  0  0  0  0  0
   38.4450   20.9870   40.3780 H   0  0  0  0  0  0  0  0  0  0  0  0
   37.5890   21.2230   38.7700 H   0  0  0  0  0  0  0  0  0  0  0  0
   39.3430   21.7800   39.0510 H   0  0  0  0  0  0  0  0  0  0  0  0
  1  2  1  0  0  0  0
  1 11  1  0  0  0  0
  2 25  1  0  0  0  0
  3  7  1  0  0  0  0
  3  2  2  0  0  0  0
  4  3  1  0  0  0  0
  5  4  2  0  0  0  0
  5  6  1  0  0  0  0
  6  1  2  0  0  0  0
  8  4  1  0  0  0  0
  9  5  1  0  0  0  0
 10  6  1  0  0  0  0
 11 13  2  0  0  0  0
 11 12  2  0  0  0  0
 15 14  1  0  0  0  0
 15 11  1  0  0  0  0
 16 15  2  0  0  0  0
 17 16  1  0  0  0  0
 18 19  2  0  0  0  0
 18 16  1  0  0  0  0
 19 20  1  0  0  0  0
 20 14  2  0  0  0  0
 21 19  1  0  0  0  0
 22 24  1  0  0  0  0
 22 21  1  0  0  0  0
 23 22  1  0  0  0  0
 24 18  1  0  0  0  0
 25 30  1  0  0  0  0
 26 32  1  0  0  0  0
 27 26  1  0  0  0  0
 27 33  1  0  0  0  0
 28 27  2  0  0  0  0
 29 30  2  0  0  0  0
 29 28  1  0  0  0  0
 30 31  1  0  0  0  0
 31 26  2  0  0  0  0
 34 28  1  0  0  0  0
 34 37  1  0  0  0  0
 35 34  1  0  0  0  0
 36 34  1  0  0  0  0
 37 39  1  0  0  0  0
 37 38  1  0  0  0  0
 40 37  1  0  0  0  0
 41 40  2  0  0  0  0
 42 41  1  0  0  0  0
 42 43  1  0  0  0  0
 44 42  1  0  0  0  0
 45 42  1  0  0  0  0
M  END
>  <minimizedAffinity>
-5.55797291

$$$$

 OpenBabel03242517583D

 45 48  0  0  0  0  0  0  0  0999 V2000
   40.0550   32.6290   40.5670 C   0  0  0  0  0  0  0  0  0  0  0  0
   39.2340   31.5610   40.6980 C   0  0  0  0  0  0  0  0  0  0  0  0
   37.8850   31.7410   40.4580 C   0  0  0  0  0  0  0  0  0  0  0  0
   37.3450   32.9500   40.0930 C   0  0  0  0  0  0  0  0  0  0  0  0
   38.1900   34.0280   39.9620 C   0  0  0  0  0  0  0  0  0  0  0  0
   39.5460   33.8590   40.2020 C   0  0  0  0  0  0  0  0  0  0  0  0
   37.1630   30.9390   40.5400 H   0  0  0  0  0  0  0  0  0  0  0  0
   36.2940   33.0970   39.9040 H   0  0  0  0  0  0  0  0  0  0  0  0
   37.8630   35.0270   39.6780 H   0  0  0  0  0  0  0  0  0  0  0  0
   40.2590   34.6710   40.1140 H   0  0  0  0  0  0  0  0  0  0  0  0
   41.7270   32.3650   40.9910 S   0  0  0  0  0  0  0  0  0  0  0  0
   41.9320   31.8210   42.3460 O   0  0  0  0  0  0  0  0  0  0  0  0
   42.3570   33.7780   41.0350 O   0  0  0  0  0  0  0  0  0  0  0  0
   43.9280   31.1090   39.9340 C   0  0  0  0  0  3  0  0  0  0  0  0
   42.6430   31.6110   39.7080 C   0  0  0  0  0  0  0  0  0  0  0  0
   42.2150   31.4410   38.4130 C   0  0  0  0  0  0  0  0  0  0  0  0
   41.2070   31.8180   38.1790 H   0  0  0  0  0  0  0  0  0  0  0  0
   42.9840   30.8350   37.4390 C   0  0  0  0  0  0  0  0  0  0  0  0
   44.2470   30.3620   37.7340 C   0  0  0  0  0  0  0  0  0  0  0  0
   44.7490   30.4950   39.0120 C   0  0  0  0  0  3  0  0  0  0  0  0
   44.7820   29.8090   36.5790 O   0  0  0  0  0  0  0  0  0  0  0  0
   43.9870   30.1700   35.4740 C   0  0  0  0  0  3  0  0  0  0  0  0
   43.8600   29.3930   34.7180 H   0  0  0  0  0  0  0  0  0  0  0  0
   42.7590   30.5610   36.0910 O   0  0  0  0  0  0  0  0  0  0  0  0
   39.5810   30.2590   41.0520 O   0  0  0  0  0  0  0  0  0  0  0  0
   37.6640   28.6100   43.5190 C   0  0  0  0  0  0  0  0  0  0  0  0
   37.1040   27.5380   42.7980 C   0  0  0  0  0  0  0  0  0  0  0  0
   37.3960   27.3950   41.4680 C   0  0  0  0  0  0  0  0  0  0  0  0
   38.2140   28.3190   40.9430 N   0  0  0  0  0  0  0  0  0  0  0  0
   38.7410   29.3250   41.6150 C   0  0  0  0  0  0  0  0  0  0  0  0
   38.4650   29.4720   42.9070 N   0  0  0  0  0  0  0  0  0  0  0  0
   37.4320   28.7190   44.5670 H   0  0  0  0  0  0  0  0  0  0  0  0
   36.4670   26.8780   43.3610 H   0  0  0  0  0  0  0  0  0  0  0  0
   36.8880   26.3020   40.6270 C   0  0  0  0  0  0  0  0  0  0  0  0
   37.4270   25.3720   40.8620 H   0  0  0  0  0  0  0  0  0  0  0  0
   35.8080   26.1230   40.8730 H   0  0  0  0  0  0  0  0  0  0  0  0
   36.9540   26.6220   39.1620 C   0  0  0  0  0  0  0  0  0  0  0  0
   37.8830   27.0670   38.8140 H   0  0  0  0  0  0  0  0  0  0  0  0
   36.9380   25.6000   38.6570 H   0  0  0  0  0  0  0  0  0  0  0  0
   35.7720   27.3120   38.6540 C   0  0  0  0  0  3  0  0  0  0  0  0
   35.1600   28.4880   38.6950 C   0  0  0  0  0  3  0  0  0  0  0  0
   33.8060   28.8130   38.0870 C   0  0  0  0  0  0  0  0  0  0  0  0
   33.3350   27.8470   37.7410 H   0  0  0  0  0  0  0  0  0  0  0  0
   33.2350   29.2840   38.8800 H   0  0  0  0  0  0  0  0  0  0  0  0
   33.9700   29.4190   37.1740 H   0  0  0  0  0  0  0  0  0  0  0  0
  1  2  1  0  0  0  0
  1 11  1  0  0  0  0
  2 25  1  0  0  0  0
  3  7  1  0  0  0  0
  3  2  2  0  0  0  0
  4  3  1  0  0  0  0
  5  4  2  0  0  0  0
  5  6  1  0  0  0  0
  6  1  2  0  0  0  0
  8  4  1  0  0  0  0
  9  5  1  0  0  0  0
 10  6  1  0  0  0  0
 11 13  2  0  0  0  0
 11 12  2  0  0  0  0
 15 14  1  0  0  0  0
 15 11  1  0  0  0  0
 16 15  2  0  0  0  0
 17 16  1  0  0  0  0
 18 19  2  0  0  0  0
 18 16  1  0  0  0  0
 19 20  1  0  0  0  0
 20 14  2  0  0  0  0
 21 19  1  0  0  0  0
 22 24  1  0  0  0  0
 22 21  1  0  0  0  0
 23 22  1  0  0  0  0
 24 18  1  0  0  0  0
 25 30  1  0  0  0  0
 26 32  1  0  0  0  0
 27 33  1  0  0  0  0
 27 26  2  0  0  0  0
 28 27  1  0  0  0  0
 29 28  2  0  0  0  0
 29 30  1  0  0  0  0
 30 31  2  0  0  0  0
 31 26  1  0  0  0  0
 34 35  1  0  0  0  0
 34 36  1  0  0  0  0
 34 28  1  0  0  0  0
 37 34  1  0  0  0  0
 38 37  1  0  0  0  0
 39 37  1  0  0  0  0
 40 41  2  0  0  0  0
 40 37  1  0  0  0  0
 42 41  1  0  0  0  0
 42 44  1  0  0  0  0
 43 42  1  0  0  0  0
 45 42  1  0  0  0  0
M  END
>  <minimizedAffinity>
-5.54114485

$$$$

 OpenBabel03242517583D

 45 48  0  0  0  0  0  0  0  0999 V2000
   40.0630   33.1260   39.1280 C   0  0  0  0  0  0  0  0  0  0  0  0
   40.1500   32.3370   38.0310 C   0  0  0  0  0  0  0  0  0  0  0  0
   41.2650   32.4600   37.2240 C   0  0  0  0  0  0  0  0  0  0  0  0
   42.2840   33.3440   37.4850 C   0  0  0  0  0  0  0  0  0  0  0  0
   42.1840   34.1410   38.6030 C   0  0  0  0  0  0  0  0  0  0  0  0
   41.0690   34.0260   39.4200 C   0  0  0  0  0  0  0  0  0  0  0  0
   41.4110   31.8670   36.3310 H   0  0  0  0  0  0  0  0  0  0  0  0
   43.1560   33.4450   36.8600 H   0  0  0  0  0  0  0  0  0  0  0  0
   42.9350   34.8720   38.8980 H   0  0  0  0  0  0  0  0  0  0  0  0
   40.9360   34.6260   40.3130 H   0  0  0  0  0  0  0  0  0  0  0  0
   38.5840   33.0030   40.0440 S   0  0  0  0  0  0  0  0  0  0  0  0
   37.3650   33.3170   39.2760 O   0  0  0  0  0  0  0  0  0  0  0  0
   38.6770   34.1220   41.1090 O   0  0  0  0  0  0  0  0  0  0  0  0
   39.5950   31.2100   41.8620 C   0  0  0  0  0  3  0  0  0  0  0  0
   38.5200   31.5700   41.0430 C   0  0  0  0  0  0  0  0  0  0  0  0
   37.4620   30.6960   41.1220 C   0  0  0  0  0  0  0  0  0  0  0  0
   36.5870   30.9330   40.4960 H   0  0  0  0  0  0  0  0  0  0  0  0
   37.4680   29.5780   41.9310 C   0  0  0  0  0  0  0  0  0  0  0  0
   38.5650   29.2830   42.7150 C   0  0  0  0  0  0  0  0  0  0  0  0
   39.6680   30.1110   42.6920 C   0  0  0  0  0  3  0  0  0  0  0  0
   38.2950   28.1150   43.4160 O   0  0  0  0  0  0  0  0  0  0  0  0
   37.1450   27.5030   42.8810 C   0  0  0  0  0  3  0  0  0  0  0  0
   36.4830   27.0380   43.6130 H   0  0  0  0  0  0  0  0  0  0  0  0
   36.5290   28.5750   42.1650 O   0  0  0  0  0  0  0  0  0  0  0  0
   39.2350   31.3810   37.5970 O   0  0  0  0  0  0  0  0  0  0  0  0
   37.8230   28.2020   38.2090 C   0  0  0  0  0  0  0  0  0  0  0  0
   38.8240   27.5680   38.9700 C   0  0  0  0  0  0  0  0  0  0  0  0
   39.9760   28.2470   39.2650 C   0  0  0  0  0  0  0  0  0  0  0  0
   40.0610   29.4980   38.7870 N   0  0  0  0  0  0  0  0  0  0  0  0
   39.1250   30.0940   38.0740 C   0  0  0  0  0  0  0  0  0  0  0  0
   38.0020   29.4450   37.7830 N   0  0  0  0  0  0  0  0  0  0  0  0
   36.9160   27.6630   37.9800 H   0  0  0  0  0  0  0  0  0  0  0  0
   38.6090   26.5620   39.2830 H   0  0  0  0  0  0  0  0  0  0  0  0
   41.0740   27.6940   40.0710 C   0  0  0  0  0  0  0  0  0  0  0  0
   42.0180   28.1900   39.8010 H   0  0  0  0  0  0  0  0  0  0  0  0
   40.8830   27.9200   41.1530 H   0  0  0  0  0  0  0  0  0  0  0  0
   41.1820   26.2010   39.9500 C   0  0  0  0  0  0  0  0  0  0  0  0
   40.7720   25.7660   39.0420 H   0  0  0  0  0  0  0  0  0  0  0  0
   42.3030   26.0140   39.8560 H   0  0  0  0  0  0  0  0  0  0  0  0
   40.7790   25.4800   41.1540 C   0  0  0  0  0  3  0  0  0  0  0  0
   39.7050   25.0010   41.7660 C   0  0  0  0  0  3  0  0  0  0  0  0
   39.6690   24.3660   43.1450 C   0  0  0  0  0  0  0  0  0  0  0  0
   40.6760   24.5220   43.6310 H   0  0  0  0  0  0  0  0  0  0  0  0
   38.8750   24.8760   43.6810 H   0  0  0  0  0  0  0  0  0  0  0  0
   39.5530   23.2720   43.0230 H   0  0  0  0  0  0  0  0  0  0  0  0
  1  6  1  0  0  0  0
  1 11  1  0  0  0  0
  2  1  2  0  0  0  0
  3  4  2  0  0  0  0
  3  2  1  0  0  0  0
  4  5  1  0  0  0  0
  5  9  1  0  0  0  0
  5  6  2  0  0  0  0
  6 10  1  0  0  0  0
  7  3  1  0  0  0  0
  8  4  1  0  0  0  0
 11 15  1  0  0  0  0
 11 13  2  0  0  0  0
 12 11  2  0  0  0  0
 14 20  1  0  0  0  0
 15 16  1  0  0  0  0
 15 14  2  0  0  0  0
 16 18  2  0  0  0  0
 17 16  1  0  0  0  0
 18 24  1  0  0  0  0
 18 19  1  0  0  0  0
 19 21  1  0  0  0  0
 20 19  2  0  0  0  0
 22 21  1  0  0  0  0
 22 23  1  0  0  0  0
 24 22  1  0  0  0  0
 25  2  1  0  0  0  0
 25 30  1  0  0  0  0
 26 27  1  0  0  0  0
 27 28  2  0  0  0  0
 27 33  1  0  0  0  0
 28 34  1  0  0  0  0
 29 28  1  0  0  0  0
 30 29  2  0  0  0  0
 31 30  1  0  0  0  0
 31 26  2  0  0  0  0
 32 26  1  0  0  0  0
 34 36  1  0  0  0  0
 35 34  1  0  0  0  0
 37 34  1  0  0  0  0
 37 40  1  0  0  0  0
 38 37  1  0  0  0  0
 39 37  1  0  0  0  0
 40 41  2  0  0  0  0
 41 42  1  0  0  0  0
 42 43  1  0  0  0  0
 42 44  1  0  0  0  0
 45 42  1  0  0  0  0
M  END
>  <minimizedAffinity>
-5.5071044

$$$$

 OpenBabel03242517583D

 45 48  0  0  0  0  0  0  0  0999 V2000
   36.5750   26.5470   39.9990 C   0  0  0  0  0  0  0  0  0  0  0  0
   36.9450   26.2170   41.2580 C   0  0  0  0  0  0  0  0  0  0  0  0
   37.0070   24.8770   41.5910 C   0  0  0  0  0  0  0  0  0  0  0  0
   36.7100   23.8710   40.7030 C   0  0  0  0  0  0  0  0  0  0  0  0
   36.3360   24.2200   39.4260 C   0  0  0  0  0  0  0  0  0  0  0  0
   36.2710   25.5620   39.0810 C   0  0  0  0  0  0  0  0  0  0  0  0
   37.2940   24.5300   42.5750 H   0  0  0  0  0  0  0  0  0  0  0  0
   36.7560   22.8250   40.9560 H   0  0  0  0  0  0  0  0  0  0  0  0
   36.0810   23.5010   38.6490 H   0  0  0  0  0  0  0  0  0  0  0  0
   35.9830   25.8970   38.0900 H   0  0  0  0  0  0  0  0  0  0  0  0
   36.4090   28.2530   39.6720 S   0  0  0  0  0  0  0  0  0  0  0  0
   37.6790   29.0040   39.7030 O   0  0  0  0  0  0  0  0  0  0  0  0
   35.5930   28.8120   40.8620 O   0  0  0  0  0  0  0  0  0  0  0  0
   35.8290   28.6280   37.0150 C   0  0  0  0  0  3  0  0  0  0  0  0
   35.3460   28.5880   38.3260 C   0  0  0  0  0  0  0  0  0  0  0  0
   33.9960   28.8330   38.4150 C   0  0  0  0  0  0  0  0  0  0  0  0
   33.5630   28.8140   39.4270 H   0  0  0  0  0  0  0  0  0  0  0  0
   33.2050   29.0920   37.3140 C   0  0  0  0  0  0  0  0  0  0  0  0
   33.7490   29.1150   36.0460 C   0  0  0  0  0  0  0  0  0  0  0  0
   35.0970   28.8790   35.8730 C   0  0  0  0  0  3  0  0  0  0  0  0
   32.7330   29.3970   35.1430 O   0  0  0  0  0  0  0  0  0  0  0  0
   31.5900   29.8290   35.8440 C   0  0  0  0  0  3  0  0  0  0  0  0
   30.6380   29.4830   35.4400 H   0  0  0  0  0  0  0  0  0  0  0  0
   31.8450   29.3610   37.1700 O   0  0  0  0  0  0  0  0  0  0  0  0
   37.2880   27.0790   42.2980 O   0  0  0  0  0  0  0  0  0  0  0  0
   40.6070   26.8600   43.4860 C   0  0  0  0  0  0  0  0  0  0  0  0
   41.0810   28.1730   43.3020 C   0  0  0  0  0  0  0  0  0  0  0  0
   40.2480   29.1210   42.7700 C   0  0  0  0  0  0  0  0  0  0  0  0
   39.0110   28.7070   42.4550 N   0  0  0  0  0  0  0  0  0  0  0  0
   38.5640   27.4780   42.6270 C   0  0  0  0  0  0  0  0  0  0  0  0
   39.3640   26.5500   43.1440 N   0  0  0  0  0  0  0  0  0  0  0  0
   41.2660   26.1160   43.9070 H   0  0  0  0  0  0  0  0  0  0  0  0
   42.0980   28.3510   43.6050 H   0  0  0  0  0  0  0  0  0  0  0  0
   40.6280   30.5240   42.5570 C   0  0  0  0  0  0  0  0  0  0  0  0
   40.8660   30.9940   43.5230 H   0  0  0  0  0  0  0  0  0  0  0  0
   41.5630   30.5600   41.9380 H   0  0  0  0  0  0  0  0  0  0  0  0
   39.5810   31.3000   41.8110 C   0  0  0  0  0  0  0  0  0  0  0  0
   38.8690   30.7090   41.2400 H   0  0  0  0  0  0  0  0  0  0  0  0
   38.9470   31.7670   42.6340 H   0  0  0  0  0  0  0  0  0  0  0  0
   40.1110   32.4310   41.0550 C   0  0  0  0  0  3  0  0  0  0  0  0
   40.3710   32.8190   39.8140 C   0  0  0  0  0  3  0  0  0  0  0  0
   41.0650   34.1070   39.4060 C   0  0  0  0  0  0  0  0  0  0  0  0
   41.4710   34.5980   40.3380 H   0  0  0  0  0  0  0  0  0  0  0  0
   41.8550   33.8100   38.7240 H   0  0  0  0  0  0  0  0  0  0  0  0
   40.3030   34.8010   39.0000 H   0  0  0  0  0  0  0  0  0  0  0  0
  1  2  1  0  0  0  0
  2  3  2  0  0  0  0
  2 25  1  0  0  0  0
  3  7  1  0  0  0  0
  4  8  1  0  0  0  0
  4  3  1  0  0  0  0
  5  4  2  0  0  0  0
  6  5  1  0  0  0  0
  6  1  2  0  0  0  0
  9  5  1  0  0  0  0
 10  6  1  0  0  0  0
 11 12  2  0  0  0  0
 11  1  1  0  0  0  0
 11 13  2  0  0  0  0
 14 15  1  0  0  0  0
 15 16  2  0  0  0  0
 15 11  1  0  0  0  0
 16 17  1  0  0  0  0
 18 16  1  0  0  0  0
 19 18  2  0  0  0  0
 20 19  1  0  0  0  0
 20 14  2  0  0  0  0
 21 22  1  0  0  0  0
 21 19  1  0  0  0  0
 22 24  1  0  0  0  0
 23 22  1  0  0  0  0
 24 18  1  0  0  0  0
 25 30  1  0  0  0  0
 26 32  1  0  0  0  0
 27 26  1  0  0  0  0
 27 33  1  0  0  0  0
 28 27  2  0  0  0  0
 29 30  2  0  0  0  0
 29 28  1  0  0  0  0
 30 31  1  0  0  0  0
 31 26  2  0  0  0  0
 34 28  1  0  0  0  0
 34 35  1  0  0  0  0
 36 34  1  0  0  0  0
 37 34  1  0  0  0  0
 37 39  1  0  0  0  0
 38 37  1  0  0  0  0
 40 37  1  0  0  0  0
 41 40  2  0  0  0  0
 42 41  1  0  0  0  0
 42 43  1  0  0  0  0
 44 42  1  0  0  0  0
 45 42  1  0  0  0  0
M  END
>  <minimizedAffinity>
-5.49026823

$$$$

 OpenBabel03242517583D

 45 48  0  0  0  0  0  0  0  0999 V2000
   39.1210   31.8960   40.3520 C   0  0  0  0  0  0  0  0  0  0  0  0
   38.1280   31.6570   39.4640 C   0  0  0  0  0  0  0  0  0  0  0  0
   37.3110   32.7090   39.0980 C   0  0  0  0  0  0  0  0  0  0  0  0
   37.4630   33.9820   39.5920 C   0  0  0  0  0  0  0  0  0  0  0  0
   38.4780   34.2130   40.4930 C   0  0  0  0  0  0  0  0  0  0  0  0
   39.3040   33.1630   40.8680 C   0  0  0  0  0  0  0  0  0  0  0  0
   36.4960   32.6010   38.3950 H   0  0  0  0  0  0  0  0  0  0  0  0
   36.8300   34.8070   39.3110 H   0  0  0  0  0  0  0  0  0  0  0  0
   38.6820   35.1830   40.9430 H   0  0  0  0  0  0  0  0  0  0  0  0
   40.1190   33.2860   41.5730 H   0  0  0  0  0  0  0  0  0  0  0  0
   40.0470   30.5070   40.8580 S   0  0  0  0  0  0  0  0  0  0  0  0
   41.2470   30.8330   41.6520 O   0  0  0  0  0  0  0  0  0  0  0  0
   40.5970   29.8920   39.5480 O   0  0  0  0  0  0  0  0  0  0  0  0
   38.2410   29.3820   42.5930 C   0  0  0  0  0  3  0  0  0  0  0  0
   39.0480   29.2080   41.4650 C   0  0  0  0  0  0  0  0  0  0  0  0
   38.9570   27.9480   40.9220 C   0  0  0  0  0  0  0  0  0  0  0  0
   39.5740   27.7560   40.0300 H   0  0  0  0  0  0  0  0  0  0  0  0
   38.1490   26.9600   41.4460 C   0  0  0  0  0  0  0  0  0  0  0  0
   37.3760   27.2020   42.5640 C   0  0  0  0  0  0  0  0  0  0  0  0
   37.4110   28.4420   43.1670 C   0  0  0  0  0  3  0  0  0  0  0  0
   36.6730   26.0430   42.8630 O   0  0  0  0  0  0  0  0  0  0  0  0
   37.1950   24.9710   42.1140 C   0  0  0  0  0  3  0  0  0  0  0  0
   36.4560   24.2580   41.7440 H   0  0  0  0  0  0  0  0  0  0  0  0
   37.9040   25.6400   41.0690 O   0  0  0  0  0  0  0  0  0  0  0  0
   37.8110   30.4480   38.8480 O   0  0  0  0  0  0  0  0  0  0  0  0
   34.6860   29.1150   39.8120 C   0  0  0  0  0  0  0  0  0  0  0  0
   34.0710   28.8590   38.5720 C   0  0  0  0  0  0  0  0  0  0  0  0
   34.7430   29.1490   37.4140 C   0  0  0  0  0  0  0  0  0  0  0  0
   35.9700   29.6720   37.5620 N   0  0  0  0  0  0  0  0  0  0  0  0
   36.5490   29.9120   38.7230 C   0  0  0  0  0  0  0  0  0  0  0  0
   35.9050   29.6340   39.8520 N   0  0  0  0  0  0  0  0  0  0  0  0
   34.1520   28.8840   40.7210 H   0  0  0  0  0  0  0  0  0  0  0  0
   33.0830   28.4360   38.6160 H   0  0  0  0  0  0  0  0  0  0  0  0
   34.2090   28.9010   36.0680 C   0  0  0  0  0  0  0  0  0  0  0  0
   33.4700   29.6760   35.8140 H   0  0  0  0  0  0  0  0  0  0  0  0
   35.0420   28.9870   35.3220 H   0  0  0  0  0  0  0  0  0  0  0  0
   33.6320   27.5220   35.9210 C   0  0  0  0  0  0  0  0  0  0  0  0
   33.6480   26.9030   36.8140 H   0  0  0  0  0  0  0  0  0  0  0  0
   32.5230   27.7070   35.7390 H   0  0  0  0  0  0  0  0  0  0  0  0
   34.0970   26.8120   34.7320 C   0  0  0  0  0  3  0  0  0  0  0  0
   34.8820   26.9620   33.6750 C   0  0  0  0  0  3  0  0  0  0  0  0
   35.0360   25.9780   32.5280 C   0  0  0  0  0  0  0  0  0  0  0  0
   34.2480   25.1790   32.6420 H   0  0  0  0  0  0  0  0  0  0  0  0
   34.8980   26.5610   31.6230 H   0  0  0  0  0  0  0  0  0  0  0  0
   36.0120   25.4660   32.6360 H   0  0  0  0  0  0  0  0  0  0  0  0
  1 11  1  0  0  0  0
  1  6  1  0  0  0  0
  2  1  2  0  0  0  0
  3  2  1  0  0  0  0
  3  4  2  0  0  0  0
  4  5  1  0  0  0  0
  5  6  2  0  0  0  0
  5  9  1  0  0  0  0
  6 10  1  0  0  0  0
  7  3  1  0  0  0  0
  8  4  1  0  0  0  0
 11 15  1  0  0  0  0
 11 12  2  0  0  0  0
 13 11  2  0  0  0  0
 14 20  1  0  0  0  0
 15 14  2  0  0  0  0
 16 18  2  0  0  0  0
 16 15  1  0  0  0  0
 17 16  1  0  0  0  0
 18 19  1  0  0  0  0
 19 21  1  0  0  0  0
 19 20  2  0  0  0  0
 22 21  1  0  0  0  0
 23 22  1  0  0  0  0
 24 18  1  0  0  0  0
 24 22  1  0  0  0  0
 25  2  1  0  0  0  0
 26 31  1  0  0  0  0
 26 32  1  0  0  0  0
 27 33  1  0  0  0  0
 27 26  2  0  0  0  0
 28 29  2  0  0  0  0
 28 27  1  0  0  0  0
 29 30  1  0  0  0  0
 30 25  1  0  0  0  0
 30 31  2  0  0  0  0
 34 28  1  0  0  0  0
 35 34  1  0  0  0  0
 36 34  1  0  0  0  0
 37 34  1  0  0  0  0
 37 38  1  0  0  0  0
 39 37  1  0  0  0  0
 40 37  1  0  0  0  0
 41 40  2  0  0  0  0
 42 45  1  0  0  0  0
 42 43  1  0  0  0  0
 42 41  1  0  0  0  0
 44 42  1  0  0  0  0
M  END
>  <minimizedAffinity>
-5.47567558

$$$$
