
 OpenBabel03242517543D

 45 48  0  0  0  0  0  0  0  0999 V2000
   45.4650   30.1690   47.2910 C   0  0  0  0  0  0  0  0  0  0  0  0
   46.0370   31.2390   46.6900 C   0  0  0  0  0  0  0  0  0  0  0  0
   46.2340   32.3820   47.4400 C   0  0  0  0  0  0  0  0  0  0  0  0
   45.8780   32.4800   48.7630 C   0  0  0  0  0  0  0  0  0  0  0  0
   45.2980   31.3860   49.3630 C   0  0  0  0  0  0  0  0  0  0  0  0
   45.0950   30.2320   48.6200 C   0  0  0  0  0  0  0  0  0  0  0  0
   46.6850   33.2790   47.0340 H   0  0  0  0  0  0  0  0  0  0  0  0
   46.0290   33.3690   49.3530 H   0  0  0  0  0  0  0  0  0  0  0  0
   44.9800   31.3610   50.4040 H   0  0  0  0  0  0  0  0  0  0  0  0
   44.6440   29.3400   49.0390 H   0  0  0  0  0  0  0  0  0  0  0  0
   45.1420   28.7960   46.2650 S   0  0  0  0  0  0  0  0  0  0  0  0
   44.1690   29.0570   45.1890 O   0  0  0  0  0  0  0  0  0  0  0  0
   44.4440   27.7640   47.1840 O   0  0  0  0  0  0  0  0  0  0  0  0
   46.5860   27.0180   44.7480 C   0  0  0  0  0  3  0  0  0  0  0  0
   46.5910   27.9350   45.8050 C   0  0  0  0  0  0  0  0  0  0  0  0
   47.8220   28.0640   46.4030 C   0  0  0  0  0  0  0  0  0  0  0  0
   47.8860   28.7740   47.2420 H   0  0  0  0  0  0  0  0  0  0  0  0
   48.9350   27.3570   45.9940 C   0  0  0  0  0  0  0  0  0  0  0  0
   48.8570   26.4670   44.9420 C   0  0  0  0  0  0  0  0  0  0  0  0
   47.6560   26.2810   44.2890 C   0  0  0  0  0  3  0  0  0  0  0  0
   50.1120   25.9060   44.7540 O   0  0  0  0  0  0  0  0  0  0  0  0
   50.9350   26.2180   45.8540 C   0  0  0  0  0  3  0  0  0  0  0  0
   51.9760   26.4300   45.6110 H   0  0  0  0  0  0  0  0  0  0  0  0
   50.2550   27.3280   46.4430 O   0  0  0  0  0  0  0  0  0  0  0  0
   46.4710   31.3400   45.3700 O   0  0  0  0  0  0  0  0  0  0  0  0
   45.2960   34.2650   43.7740 C   0  0  0  0  0  0  0  0  0  0  0  0
   46.4600   34.7600   43.1560 C   0  0  0  0  0  0  0  0  0  0  0  0
   47.6390   34.0770   43.2970 C   0  0  0  0  0  0  0  0  0  0  0  0
   47.5880   32.9600   44.0360 N   0  0  0  0  0  0  0  0  0  0  0  0
   46.4980   32.4930   44.6160 C   0  0  0  0  0  0  0  0  0  0  0  0
   45.3480   33.1470   44.4860 N   0  0  0  0  0  0  0  0  0  0  0  0
   44.3690   34.8050   43.6600 H   0  0  0  0  0  0  0  0  0  0  0  0
   46.3420   35.6690   42.5930 H   0  0  0  0  0  0  0  0  0  0  0  0
   48.9070   34.4890   42.6770 C   0  0  0  0  0  0  0  0  0  0  0  0
   49.6480   34.7080   43.4590 H   0  0  0  0  0  0  0  0  0  0  0  0
   49.3130   33.6350   42.0730 H   0  0  0  0  0  0  0  0  0  0  0  0
   48.7400   35.6480   41.7360 C   0  0  0  0  0  0  0  0  0  0  0  0
   48.0140   36.4010   42.0330 H   0  0  0  0  0  0  0  0  0  0  0  0
   49.7370   36.1950   41.7960 H   0  0  0  0  0  0  0  0  0  0  0  0
   48.6070   35.2570   40.3350 C   0  0  0  0  0  3  0  0  0  0  0  0
   48.0360   34.3430   39.5630 C   0  0  0  0  0  3  0  0  0  0  0  0
   48.2280   34.1910   38.0640 C   0  0  0  0  0  0  0  0  0  0  0  0
   49.0660   34.8780   37.7460 H   0  0  0  0  0  0  0  0  0  0  0  0
   48.4750   33.1470   37.9050 H   0  0  0  0  0  0  0  0  0  0  0  0
   47.3170   34.5610   37.5560 H   0  0  0  0  0  0  0  0  0  0  0  0
  1  6  1  0  0  0  0
  2  1  2  0  0  0  0
  2  3  1  0  0  0  0
  3  4  2  0  0  0  0
  4  8  1  0  0  0  0
  4  5  1  0  0  0  0
  5  9  1  0  0  0  0
  6 10  1  0  0  0  0
  6  5  2  0  0  0  0
  7  3  1  0  0  0  0
 11 13  2  0  0  0  0
 11  1  1  0  0  0  0
 12 11  2  0  0  0  0
 14 15  1  0  0  0  0
 15 11  1  0  0  0  0
 15 16  2  0  0  0  0
 16 17  1  0  0  0  0
 18 16  1  0  0  0  0
 18 24  1  0  0  0  0
 19 18  2  0  0  0  0
 20 14  2  0  0  0  0
 20 19  1  0  0  0  0
 21 19  1  0  0  0  0
 21 22  1  0  0  0  0
 22 24  1  0  0  0  0
 23 22  1  0  0  0  0
 25  2  1  0  0  0  0
 26 31  1  0  0  0  0
 27 28  1  0  0  0  0
 27 26  2  0  0  0  0
 28 29  2  0  0  0  0
 29 30  1  0  0  0  0
 30 25  1  0  0  0  0
 31 30  2  0  0  0  0
 32 26  1  0  0  0  0
 33 27  1  0  0  0  0
 34 28  1  0  0  0  0
 34 35  1  0  0  0  0
 36 34  1  0  0  0  0
 37 39  1  0  0  0  0
 37 38  1  0  0  0  0
 37 34  1  0  0  0  0
 40 37  1  0  0  0  0
 41 40  2  0  0  0  0
 42 41  1  0  0  0  0
 43 42  1  0  0  0  0
 44 42  1  0  0  0  0
 45 42  1  0  0  0  0
M  END
>  <minimizedAffinity>
-5.57953072

>  <minimizedRMSD>
1.8373239

$$$$
