
 OpenBabel03242517543D

 45 48  0  0  0  0  0  0  0  0999 V2000
   45.4590   30.1720   47.2880 C   0  0  0  0  0  0  0  0  0  0  0  0
   46.0430   31.2380   46.6930 C   0  0  0  0  0  0  0  0  0  0  0  0
   46.2470   32.3770   47.4480 C   0  0  0  0  0  0  0  0  0  0  0  0
   45.8840   32.4740   48.7700 C   0  0  0  0  0  0  0  0  0  0  0  0
   45.2910   31.3830   49.3640 C   0  0  0  0  0  0  0  0  0  0  0  0
   45.0820   30.2340   48.6150 C   0  0  0  0  0  0  0  0  0  0  0  0
   46.7070   33.2710   47.0480 H   0  0  0  0  0  0  0  0  0  0  0  0
   46.0400   33.3600   49.3640 H   0  0  0  0  0  0  0  0  0  0  0  0
   44.9680   31.3580   50.4030 H   0  0  0  0  0  0  0  0  0  0  0  0
   44.6210   29.3440   49.0290 H   0  0  0  0  0  0  0  0  0  0  0  0
   45.1290   28.8040   46.2560 S   0  0  0  0  0  0  0  0  0  0  0  0
   44.1500   29.0730   45.1860 O   0  0  0  0  0  0  0  0  0  0  0  0
   44.4350   27.7680   47.1720 O   0  0  0  0  0  0  0  0  0  0  0  0
   47.3470   27.2540   46.7230 C   0  0  0  0  0  3  0  0  0  0  0  0
   46.5750   27.9440   45.7830 C   0  0  0  0  0  0  0  0  0  0  0  0
   47.0750   27.8640   44.5050 C   0  0  0  0  0  0  0  0  0  0  0  0
   46.5060   28.3900   43.7240 H   0  0  0  0  0  0  0  0  0  0  0  0
   48.2250   27.1670   44.1910 C   0  0  0  0  0  0  0  0  0  0  0  0
   48.9390   26.5080   45.1710 C   0  0  0  0  0  0  0  0  0  0  0  0
   48.5010   26.5420   46.4790 C   0  0  0  0  0  3  0  0  0  0  0  0
   50.0360   25.9010   44.5730 O   0  0  0  0  0  0  0  0  0  0  0  0
   50.1890   26.3960   43.2640 C   0  0  0  0  0  3  0  0  0  0  0  0
   50.5050   25.6600   42.5230 H   0  0  0  0  0  0  0  0  0  0  0  0
   48.9030   26.9550   42.9910 O   0  0  0  0  0  0  0  0  0  0  0  0
   46.4850   31.3400   45.3760 O   0  0  0  0  0  0  0  0  0  0  0  0
   45.3000   34.2570   43.7750 C   0  0  0  0  0  0  0  0  0  0  0  0
   46.4620   34.7550   43.1550 C   0  0  0  0  0  0  0  0  0  0  0  0
   47.6430   34.0760   43.2960 C   0  0  0  0  0  0  0  0  0  0  0  0
   47.5960   32.9600   44.0380 N   0  0  0  0  0  0  0  0  0  0  0  0
   46.5080   32.4910   44.6200 C   0  0  0  0  0  0  0  0  0  0  0  0
   45.3560   33.1410   44.4890 N   0  0  0  0  0  0  0  0  0  0  0  0
   44.3710   34.7950   43.6600 H   0  0  0  0  0  0  0  0  0  0  0  0
   46.3400   35.6620   42.5900 H   0  0  0  0  0  0  0  0  0  0  0  0
   48.9090   34.4900   42.6740 C   0  0  0  0  0  0  0  0  0  0  0  0
   49.6510   34.7110   43.4550 H   0  0  0  0  0  0  0  0  0  0  0  0
   49.3160   33.6370   42.0690 H   0  0  0  0  0  0  0  0  0  0  0  0
   48.7380   35.6490   41.7340 C   0  0  0  0  0  0  0  0  0  0  0  0
   48.0100   36.3990   42.0310 H   0  0  0  0  0  0  0  0  0  0  0  0
   49.7340   36.1990   41.7930 H   0  0  0  0  0  0  0  0  0  0  0  0
   48.6070   35.2570   40.3330 C   0  0  0  0  0  3  0  0  0  0  0  0
   48.0350   34.3440   39.5600 C   0  0  0  0  0  3  0  0  0  0  0  0
   48.2300   34.1920   38.0620 C   0  0  0  0  0  0  0  0  0  0  0  0
   49.0680   34.8780   37.7440 H   0  0  0  0  0  0  0  0  0  0  0  0
   48.4760   33.1470   37.9030 H   0  0  0  0  0  0  0  0  0  0  0  0
   47.3200   34.5630   37.5520 H   0  0  0  0  0  0  0  0  0  0  0  0
  1  6  1  0  0  0  0
  2  1  2  0  0  0  0
  2  3  1  0  0  0  0
  3  4  2  0  0  0  0
  4  8  1  0  0  0  0
  4  5  1  0  0  0  0
  5  9  1  0  0  0  0
  6 10  1  0  0  0  0
  6  5  2  0  0  0  0
  7  3  1  0  0  0  0
 11 13  2  0  0  0  0
 11  1  1  0  0  0  0
 12 11  2  0  0  0  0
 15 11  1  0  0  0  0
 15 14  2  0  0  0  0
 16 15  1  0  0  0  0
 17 16  1  0  0  0  0
 18 16  2  0  0  0  0
 18 19  1  0  0  0  0
 19 20  2  0  0  0  0
 20 14  1  0  0  0  0
 21 19  1  0  0  0  0
 22 21  1  0  0  0  0
 23 22  1  0  0  0  0
 24 22  1  0  0  0  0
 24 18  1  0  0  0  0
 25  2  1  0  0  0  0
 26 31  1  0  0  0  0
 27 28  1  0  0  0  0
 27 26  2  0  0  0  0
 28 29  2  0  0  0  0
 29 30  1  0  0  0  0
 30 25  1  0  0  0  0
 31 30  2  0  0  0  0
 32 26  1  0  0  0  0
 33 27  1  0  0  0  0
 34 28  1  0  0  0  0
 34 35  1  0  0  0  0
 36 34  1  0  0  0  0
 37 39  1  0  0  0  0
 37 38  1  0  0  0  0
 37 34  1  0  0  0  0
 40 37  1  0  0  0  0
 41 40  2  0  0  0  0
 42 41  1  0  0  0  0
 43 42  1  0  0  0  0
 44 42  1  0  0  0  0
 45 42  1  0  0  0  0
M  END
>  <minimizedAffinity>
-5.56357288

>  <minimizedRMSD>
1.77063811

$$$$
