
     RDKit          3D

 24 26  0  0  0  0  0  0  0  0999 V2000
   45.5391   34.7002   44.2396 C   0  0  0  0  0  0  0  0  0  0  0  0
   46.5778   33.9146   43.7367 C   0  0  0  0  0  0  0  0  0  0  0  0
   47.1094   32.9318   44.6014 C   0  0  0  0  0  0  0  0  0  0  0  0
   46.5857   32.8175   45.8413 N   0  0  0  0  0  0  0  0  0  0  0  0
   45.5823   33.5988   46.2838 C   0  0  0  0  0  0  0  0  0  0  0  0
   45.0596   34.5396   45.4827 N   0  0  0  0  0  0  0  0  0  0  0  0
   44.9162   35.9355   43.0646 S   0  0  0  0  0  0  0  0  0  0  0  0
   46.9982   34.0020   42.7499 H   0  0  0  0  0  0  0  0  0  0  0  0
   47.9116   32.3005   44.2604 H   0  0  0  0  0  0  0  0  0  0  0  0
   45.1416   33.5341   47.2661 H   0  0  0  0  0  0  0  0  0  0  0  0
   43.0430   34.0531   42.5882 C   0  0  0  0  0  0  0  0  0  0  0  0
   43.5879   35.2341   42.0970 C   0  0  0  0  0  0  0  0  0  0  0  0
   43.1058   35.7941   40.9360 C   0  0  0  0  0  0  0  0  0  0  0  0
   43.5591   36.7120   40.5916 H   0  0  0  0  0  0  0  0  0  0  0  0
   42.0756   35.1997   40.2357 C   0  0  0  0  0  0  0  0  0  0  0  0
   41.5190   34.0127   40.7182 C   0  0  0  0  0  0  0  0  0  0  0  0
   41.9997   33.4394   41.8906 C   0  0  0  0  0  0  0  0  0  0  0  0
   40.4993   33.6206   39.8300 O   0  0  0  0  0  0  0  0  0  0  0  0
   40.7491   34.3547   38.6318 C   0  0  2  0  0  0  0  0  0  0  0  0
   39.8376   34.6348   38.1030 H   0  0  0  0  0  0  0  0  0  0  0  0
   41.3996   35.5416   39.0484 O   0  0  0  0  0  0  0  0  0  0  0  0
   43.3877   33.5822   43.4884 H   0  0  0  0  0  0  0  0  0  0  0  0
   41.5691   32.5144   42.2707 H   0  0  0  0  0  0  0  0  0  0  0  0
   41.4257   33.7223   38.0239 H   0  0  0  0  0  0  0  0  0  0  0  0
  1  6  1  0
  2  1  2  0
  2  3  1  0
  3  4  2  0
  4  5  1  0
  6  5  2  0
  7  1  1  0
  2  8  1  0
  3  9  1  0
  5 10  1  0
 11 12  2  0
 12 13  1  0
 13 14  1  0
 13 15  2  0
 15 16  1  0
 16 17  2  0
 16 18  1  0
 18 19  1  0
 19 20  1  6
 19 21  1  0
 17 11  1  0
 21 15  1  0
 11 22  1  0
 17 23  1  0
 19 24  1  0
  7 12  1  0
M  ISO  5   8  14   9  14  10  14  14  16  20   8
M  END
>  <DihAtoms>  (1) 
0,6,11,10

>  <DihDeg>  (1) 
89.99969462806793

$$$$
