
 OpenBabel03242514553D

 21 23  0  0  0  0  0  0  0  0999 V2000
   43.2580   35.6870   40.7890 C   0  0  0  0  0  3  0  0  0  0  0  0
   43.7610   34.9150   41.8290 C   0  0  0  0  0  0  0  0  0  0  0  0
   43.3650   33.6050   41.9800 C   0  0  0  0  0  0  0  0  0  0  0  0
   43.7820   33.0430   42.8030 H   0  0  0  0  0  0  0  0  0  0  0  0
   42.4630   33.0320   41.1060 C   0  0  0  0  0  0  0  0  0  0  0  0
   41.9490   33.7960   40.0570 C   0  0  0  0  0  0  0  0  0  0  0  0
   42.3440   35.1210   39.8970 C   0  0  0  0  0  3  0  0  0  0  0  0
   41.0630   32.9850   39.3240 O   0  0  0  0  0  0  0  0  0  0  0  0
   40.7580   31.8920   40.1900 C   0  0  0  0  0  3  0  0  0  0  0  0
   40.6030   30.9540   39.6580 H   0  0  0  0  0  0  0  0  0  0  0  0
   41.8940   31.7460   41.0220 O   0  0  0  0  0  0  0  0  0  0  0  0
   44.9220   35.7350   42.9120 S   0  0  0  0  0  0  0  0  0  0  0  0
   45.6230   34.5380   44.0820 C   0  0  0  0  0  0  0  0  0  0  0  0
   46.6820   33.7930   43.5630 C   0  0  0  0  0  0  0  0  0  0  0  0
   47.2730   32.8410   44.4230 C   0  0  0  0  0  0  0  0  0  0  0  0
   46.7830   32.7160   45.6750 N   0  0  0  0  0  0  0  0  0  0  0  0
   45.7570   33.4580   46.1340 C   0  0  0  0  0  0  0  0  0  0  0  0
   45.1780   34.3690   45.3370 N   0  0  0  0  0  0  0  0  0  0  0  0
   47.0760   33.8880   42.5660 H   0  0  0  0  0  0  0  0  0  0  0  0
   48.0950   32.2400   44.0690 H   0  0  0  0  0  0  0  0  0  0  0  0
   45.3420   33.3840   47.1260 H   0  0  0  0  0  0  0  0  0  0  0  0
  1  2  1  0  0  0  0
  2  3  2  0  0  0  0
  2 12  1  0  0  0  0
  3  4  1  0  0  0  0
  5  3  1  0  0  0  0
  6  5  2  0  0  0  0
  7  6  1  0  0  0  0
  7  1  2  0  0  0  0
  8  6  1  0  0  0  0
  8  9  1  0  0  0  0
  9 11  1  0  0  0  0
 10  9  1  0  0  0  0
 11  5  1  0  0  0  0
 12 13  1  0  0  0  0
 13 18  1  0  0  0  0
 14 13  2  0  0  0  0
 14 15  1  0  0  0  0
 15 16  2  0  0  0  0
 16 17  1  0  0  0  0
 17 21  1  0  0  0  0
 18 17  2  0  0  0  0
 19 14  1  0  0  0  0
 20 15  1  0  0  0  0
M  END
>  <minimizedAffinity>
-4.02390862

>  <minimizedRMSD>
0.6790151

$$$$
