
 OpenBabel03242514553D

 21 23  0  0  0  0  0  0  0  0999 V2000
   43.1590   35.5840   40.6820 C   0  0  0  0  0  3  0  0  0  0  0  0
   43.7160   34.8310   41.7110 C   0  0  0  0  0  0  0  0  0  0  0  0
   43.3770   33.5070   41.8670 C   0  0  0  0  0  0  0  0  0  0  0  0
   43.8340   32.9610   42.6800 H   0  0  0  0  0  0  0  0  0  0  0  0
   42.4820   32.8970   41.0120 C   0  0  0  0  0  0  0  0  0  0  0  0
   41.9160   33.6410   39.9740 C   0  0  0  0  0  0  0  0  0  0  0  0
   42.2520   34.9810   39.8080 C   0  0  0  0  0  3  0  0  0  0  0  0
   41.0490   32.7950   39.2570 O   0  0  0  0  0  0  0  0  0  0  0  0
   40.8070   31.6900   40.1280 C   0  0  0  0  0  3  0  0  0  0  0  0
   40.6800   30.7460   39.5980 H   0  0  0  0  0  0  0  0  0  0  0  0
   41.9650   31.5900   40.9370 O   0  0  0  0  0  0  0  0  0  0  0  0
   44.8640   35.6980   42.7710 S   0  0  0  0  0  0  0  0  0  0  0  0
   45.6030   34.5380   43.9550 C   0  0  0  0  0  0  0  0  0  0  0  0
   46.6830   33.8180   43.4410 C   0  0  0  0  0  0  0  0  0  0  0  0
   47.3050   32.8950   44.3110 C   0  0  0  0  0  0  0  0  0  0  0  0
   46.8230   32.7720   45.5660 N   0  0  0  0  0  0  0  0  0  0  0  0
   45.7770   33.4890   46.0190 C   0  0  0  0  0  0  0  0  0  0  0  0
   45.1690   34.3720   45.2130 N   0  0  0  0  0  0  0  0  0  0  0  0
   47.0710   33.9120   42.4410 H   0  0  0  0  0  0  0  0  0  0  0  0
   48.1430   32.3150   43.9610 H   0  0  0  0  0  0  0  0  0  0  0  0
   45.3680   33.4160   47.0140 H   0  0  0  0  0  0  0  0  0  0  0  0
  1  2  1  0  0  0  0
  2  3  2  0  0  0  0
  2 12  1  0  0  0  0
  3  4  1  0  0  0  0
  5  3  1  0  0  0  0
  6  5  2  0  0  0  0
  7  6  1  0  0  0  0
  7  1  2  0  0  0  0
  8  6  1  0  0  0  0
  8  9  1  0  0  0  0
  9 11  1  0  0  0  0
 10  9  1  0  0  0  0
 11  5  1  0  0  0  0
 12 13  1  0  0  0  0
 13 18  1  0  0  0  0
 14 13  2  0  0  0  0
 14 15  1  0  0  0  0
 15 16  2  0  0  0  0
 16 17  1  0  0  0  0
 17 21  1  0  0  0  0
 18 17  2  0  0  0  0
 19 14  1  0  0  0  0
 20 15  1  0  0  0  0
M  END
>  <minimizedAffinity>
-3.99508262

>  <minimizedRMSD>
0.944403112

$$$$
