
     RDKit          3D

 24 26  0  0  0  0  0  0  0  0999 V2000
   45.5391   34.7002   44.2396 C   0  0  0  0  0  0  0  0  0  0  0  0
   46.5778   33.9146   43.7367 C   0  0  0  0  0  0  0  0  0  0  0  0
   47.1094   32.9318   44.6014 C   0  0  0  0  0  0  0  0  0  0  0  0
   46.5857   32.8175   45.8413 N   0  0  0  0  0  0  0  0  0  0  0  0
   45.5823   33.5988   46.2838 C   0  0  0  0  0  0  0  0  0  0  0  0
   45.0596   34.5396   45.4827 N   0  0  0  0  0  0  0  0  0  0  0  0
   44.9162   35.9355   43.0646 S   0  0  0  0  0  0  0  0  0  0  0  0
   46.9982   34.0020   42.7499 H   0  0  0  0  0  0  0  0  0  0  0  0
   47.9116   32.3005   44.2604 H   0  0  0  0  0  0  0  0  0  0  0  0
   45.1416   33.5341   47.2661 H   0  0  0  0  0  0  0  0  0  0  0  0
   42.8309   34.2562   42.7322 C   0  0  0  0  0  0  0  0  0  0  0  0
   43.5879   35.2341   42.0970 C   0  0  0  0  0  0  0  0  0  0  0  0
   43.2993   35.6089   40.8046 C   0  0  0  0  0  0  0  0  0  0  0  0
   43.9137   36.3726   40.3508 H   0  0  0  0  0  0  0  0  0  0  0  0
   42.2571   35.0260   40.1125 C   0  0  0  0  0  0  0  0  0  0  0  0
   41.4884   34.0420   40.7390 C   0  0  0  0  0  0  0  0  0  0  0  0
   41.7726   33.6567   42.0448 C   0  0  0  0  0  0  0  0  0  0  0  0
   40.5034   33.6167   39.8272 O   0  0  0  0  0  0  0  0  0  0  0  0
   40.9649   34.0579   38.5508 C   0  0  2  0  0  0  0  0  0  0  0  0
   40.1558   34.3431   37.8777 H   0  0  0  0  0  0  0  0  0  0  0  0
   41.7470   35.2091   38.8125 O   0  0  0  0  0  0  0  0  0  0  0  0
   43.0205   33.9337   43.7377 H   0  0  0  0  0  0  0  0  0  0  0  0
   41.1764   32.8904   42.5373 H   0  0  0  0  0  0  0  0  0  0  0  0
   41.5897   33.2342   38.1526 H   0  0  0  0  0  0  0  0  0  0  0  0
  1  6  1  0
  2  1  2  0
  2  3  1  0
  3  4  2  0
  4  5  1  0
  6  5  2  0
  7  1  1  0
  2  8  1  0
  3  9  1  0
  5 10  1  0
 11 12  2  0
 12 13  1  0
 13 14  1  0
 13 15  2  0
 15 16  1  0
 16 17  2  0
 16 18  1  0
 18 19  1  0
 19 20  1  6
 19 21  1  0
 17 11  1  0
 21 15  1  0
 11 22  1  0
 17 23  1  0
 19 24  1  0
  7 12  1  0
M  ISO  5   8  14   9  14  10  14  14  16  20   8
M  END
>  <DihAtoms>  (1) 
0,6,11,10

>  <DihDeg>  (1) 
89.99969462806793

$$$$
