
 OpenBabel03242514553D

 21 23  0  0  0  0  0  0  0  0999 V2000
   43.4360   33.5890   41.6900 C   0  0  0  0  0  3  0  0  0  0  0  0
   43.4350   34.9660   41.8810 C   0  0  0  0  0  0  0  0  0  0  0  0
   42.3220   35.7120   41.5650 C   0  0  0  0  0  0  0  0  0  0  0  0
   42.3650   36.7780   41.7300 H   0  0  0  0  0  0  0  0  0  0  0  0
   41.1880   35.1130   41.0530 C   0  0  0  0  0  0  0  0  0  0  0  0
   41.1770   33.7300   40.8570 C   0  0  0  0  0  0  0  0  0  0  0  0
   42.2960   32.9680   41.1740 C   0  0  0  0  0  3  0  0  0  0  0  0
   39.9180   33.3780   40.3330 O   0  0  0  0  0  0  0  0  0  0  0  0
   39.3640   34.6010   39.8470 C   0  0  0  0  0  3  0  0  0  0  0  0
   38.2810   34.6520   39.9540 H   0  0  0  0  0  0  0  0  0  0  0  0
   39.9360   35.6160   40.6510 O   0  0  0  0  0  0  0  0  0  0  0  0
   44.9410   35.6570   42.5470 S   0  0  0  0  0  0  0  0  0  0  0  0
   45.6080   34.5590   43.8300 C   0  0  0  0  0  0  0  0  0  0  0  0
   46.6940   33.7910   43.4080 C   0  0  0  0  0  0  0  0  0  0  0  0
   47.2610   32.9130   44.3580 C   0  0  0  0  0  0  0  0  0  0  0  0
   46.7240   32.8760   45.5970 N   0  0  0  0  0  0  0  0  0  0  0  0
   45.6740   33.6370   45.9600 C   0  0  0  0  0  0  0  0  0  0  0  0
   45.1170   34.4790   45.0760 N   0  0  0  0  0  0  0  0  0  0  0  0
   47.1250   33.8170   42.4220 H   0  0  0  0  0  0  0  0  0  0  0  0
   48.1010   32.2980   44.0810 H   0  0  0  0  0  0  0  0  0  0  0  0
   45.2210   33.6320   46.9380 H   0  0  0  0  0  0  0  0  0  0  0  0
  1  2  1  0  0  0  0
  2 12  1  0  0  0  0
  3  4  1  0  0  0  0
  3  2  2  0  0  0  0
  5  3  1  0  0  0  0
  6  5  2  0  0  0  0
  6  7  1  0  0  0  0
  7  1  2  0  0  0  0
  8  6  1  0  0  0  0
  9 10  1  0  0  0  0
  9  8  1  0  0  0  0
  9 11  1  0  0  0  0
 11  5  1  0  0  0  0
 12 13  1  0  0  0  0
 13 18  1  0  0  0  0
 14 13  2  0  0  0  0
 14 15  1  0  0  0  0
 15 16  2  0  0  0  0
 16 17  1  0  0  0  0
 17 21  1  0  0  0  0
 18 17  2  0  0  0  0
 19 14  1  0  0  0  0
 20 15  1  0  0  0  0
M  END
>  <minimizedAffinity>
-4.37389946

>  <minimizedRMSD>
0.5107463

$$$$
