
 OpenBabel03242514553D

 21 23  0  0  0  0  0  0  0  0999 V2000
   42.0890   35.1390   41.6890 C   0  0  0  0  0  3  0  0  0  0  0  0
   43.0060   34.8710   40.6790 C   0  0  0  0  0  0  0  0  0  0  0  0
   42.5810   34.6660   39.3870 C   0  0  0  0  0  0  0  0  0  0  0  0
   43.3280   34.4620   38.6350 H   0  0  0  0  0  0  0  0  0  0  0  0
   41.2390   34.7210   39.0640 C   0  0  0  0  0  0  0  0  0  0  0  0
   40.3070   34.9880   40.0690 C   0  0  0  0  0  0  0  0  0  0  0  0
   40.7270   35.1970   41.3780 C   0  0  0  0  0  3  0  0  0  0  0  0
   39.0270   34.9890   39.4830 O   0  0  0  0  0  0  0  0  0  0  0  0
   39.1910   34.3170   38.2330 C   0  0  0  0  0  3  0  0  0  0  0  0
   38.5430   34.7090   37.4480 H   0  0  0  0  0  0  0  0  0  0  0  0
   40.5350   34.5550   37.8560 O   0  0  0  0  0  0  0  0  0  0  0  0
   44.7190   34.8190   41.1840 S   0  0  0  0  0  0  0  0  0  0  0  0
   44.8260   34.8070   42.9960 C   0  0  0  0  0  0  0  0  0  0  0  0
   45.3570   33.6290   43.5230 C   0  0  0  0  0  0  0  0  0  0  0  0
   45.4670   33.5530   44.9290 C   0  0  0  0  0  0  0  0  0  0  0  0
   45.0600   34.6120   45.6620 N   0  0  0  0  0  0  0  0  0  0  0  0
   44.5530   35.7310   45.1090 C   0  0  0  0  0  0  0  0  0  0  0  0
   44.4370   35.8270   43.7760 N   0  0  0  0  0  0  0  0  0  0  0  0
   45.6830   32.7830   42.9440 H   0  0  0  0  0  0  0  0  0  0  0  0
   45.8710   32.6650   45.3860 H   0  0  0  0  0  0  0  0  0  0  0  0
   44.2180   36.5920   45.6640 H   0  0  0  0  0  0  0  0  0  0  0  0
  2 12  1  0  0  0  0
  2  1  2  0  0  0  0
  3  2  1  0  0  0  0
  4  3  1  0  0  0  0
  5  3  2  0  0  0  0
  5  6  1  0  0  0  0
  6  7  2  0  0  0  0
  7  1  1  0  0  0  0
  8  6  1  0  0  0  0
  9  8  1  0  0  0  0
 10  9  1  0  0  0  0
 11  9  1  0  0  0  0
 11  5  1  0  0  0  0
 12 13  1  0  0  0  0
 13 14  2  0  0  0  0
 13 18  1  0  0  0  0
 14 15  1  0  0  0  0
 15 20  1  0  0  0  0
 15 16  2  0  0  0  0
 17 16  1  0  0  0  0
 17 21  1  0  0  0  0
 18 17  2  0  0  0  0
 19 14  1  0  0  0  0
M  END
>  <minimizedAffinity>
-4.91879225

>  <minimizedRMSD>
1.87369895

$$$$
