
 OpenBabel03242514553D

 21 23  0  0  0  0  0  0  0  0999 V2000
   43.7360   33.6190   41.8970 C   0  0  0  0  0  3  0  0  0  0  0  0
   43.8300   35.0020   41.7850 C   0  0  0  0  0  0  0  0  0  0  0  0
   43.0480   35.6830   40.8810 C   0  0  0  0  0  0  0  0  0  0  0  0
   43.1540   36.7570   40.8290 H   0  0  0  0  0  0  0  0  0  0  0  0
   42.1560   35.0130   40.0660 C   0  0  0  0  0  0  0  0  0  0  0  0
   42.0520   33.6240   40.1690 C   0  0  0  0  0  0  0  0  0  0  0  0
   42.8380   32.9270   41.0800 C   0  0  0  0  0  3  0  0  0  0  0  0
   41.0840   33.1940   39.2410 O   0  0  0  0  0  0  0  0  0  0  0  0
   40.9370   34.2810   38.3290 C   0  0  0  0  0  3  0  0  0  0  0  0
   39.9200   34.3880   37.9500 H   0  0  0  0  0  0  0  0  0  0  0  0
   41.2530   35.4420   39.0750 O   0  0  0  0  0  0  0  0  0  0  0  0
   45.0070   35.7880   42.8750 S   0  0  0  0  0  0  0  0  0  0  0  0
   45.7110   34.5590   44.0100 C   0  0  0  0  0  0  0  0  0  0  0  0
   46.7990   33.8610   43.4840 C   0  0  0  0  0  0  0  0  0  0  0  0
   47.3940   32.8870   44.3160 C   0  0  0  0  0  0  0  0  0  0  0  0
   46.8790   32.6980   45.5510 N   0  0  0  0  0  0  0  0  0  0  0  0
   45.8260   33.3960   46.0170 C   0  0  0  0  0  0  0  0  0  0  0  0
   45.2430   34.3260   45.2460 N   0  0  0  0  0  0  0  0  0  0  0  0
   47.2130   34.0080   42.5010 H   0  0  0  0  0  0  0  0  0  0  0  0
   48.2370   32.3210   43.9570 H   0  0  0  0  0  0  0  0  0  0  0  0
   45.3910   33.2690   46.9950 H   0  0  0  0  0  0  0  0  0  0  0  0
  2  1  1  0  0  0  0
  2 12  1  0  0  0  0
  3  2  2  0  0  0  0
  4  3  1  0  0  0  0
  5  6  2  0  0  0  0
  5  3  1  0  0  0  0
  6  7  1  0  0  0  0
  7  1  2  0  0  0  0
  8  6  1  0  0  0  0
  9 11  1  0  0  0  0
  9  8  1  0  0  0  0
 10  9  1  0  0  0  0
 11  5  1  0  0  0  0
 12 13  1  0  0  0  0
 13 18  1  0  0  0  0
 14 13  2  0  0  0  0
 14 15  1  0  0  0  0
 15 16  2  0  0  0  0
 16 17  1  0  0  0  0
 17 21  1  0  0  0  0
 18 17  2  0  0  0  0
 19 14  1  0  0  0  0
 20 15  1  0  0  0  0
M  END
>  <minimizedAffinity>
-4.27479124

>  <minimizedRMSD>
0.702787459

$$$$
