REMARK  Name = 
REMARK  2 active torsions:
REMARK  status: ('A' for Active; 'I' for Inactive)
REMARK    1  A    between atoms: C_1  and  S_7
REMARK    2  A    between atoms: S_7  and  C_12
REMARK                            x       y       z     vdW  Elec       q    Type
REMARK                         _______ _______ _______ _____ _____    ______ ____
ROOT
ATOM      1  C   UNL     1      43.972  34.337  41.107  0.00  0.00    +0.000 A 
ATOM      2  C   UNL     1      43.588  35.234  42.097  0.00  0.00    +0.000 A 
ATOM      3  C   UNL     1      42.258  35.535  42.287  0.00  0.00    +0.000 A 
ATOM      4  H   UNL     1      42.006  36.237  43.068  0.00  0.00    +0.000 HD
ATOM      5  C   UNL     1      41.281  34.956  41.503  0.00  0.00    +0.000 A 
ATOM      6  C   UNL     1      41.653  34.054  40.504  0.00  0.00    +0.000 A 
ATOM      7  C   UNL     1      42.994  33.743  40.305  0.00  0.00    +0.000 A 
ATOM      8  O   UNL     1      40.481  33.615  39.859  0.00  0.00    +0.000 OA
ATOM      9  C   UNL     1      39.483  34.572  40.212  0.00  0.00    +0.000 C 
ATOM     10  H   UNL     1      38.489  34.137  40.315  0.00  0.00    +0.000 HD
ATOM     11  O   UNL     1      39.878  35.076  41.475  0.00  0.00    +0.000 OA
ENDROOT
BRANCH   2  12
ATOM     12  S   UNL     1      44.916  35.935  43.065  0.00  0.00    +0.000 S 
BRANCH  12  13
ATOM     13  C   UNL     1      45.539  34.700  44.240  0.00  0.00    +0.000 A 
ATOM     14  C   UNL     1      46.578  33.915  43.737  0.00  0.00    +0.000 A 
ATOM     15  C   UNL     1      47.109  32.932  44.601  0.00  0.00    +0.000 A 
ATOM     16  N   UNL     1      46.586  32.818  45.841  0.00  0.00    +0.000 NA
ATOM     17  C   UNL     1      45.582  33.599  46.284  0.00  0.00    +0.000 A 
ATOM     18  N   UNL     1      45.060  34.540  45.483  0.00  0.00    +0.000 NA
ATOM     19  H   UNL     1      46.998  34.002  42.750  0.00  0.00    +0.000 HD
ATOM     20  H   UNL     1      47.912  32.300  44.260  0.00  0.00    +0.000 HD
ATOM     21  H   UNL     1      45.142  33.534  47.266  0.00  0.00    +0.000 HD
ENDBRANCH  12  13
ENDBRANCH   2  12
TORSDOF 2
