
     RDKit          3D

 43 46  0  0  0  0  0  0  0  0999 V2000
   45.2007   35.8188   43.3752 C   0  0  0  0  0  0  0  0  0  0  0  0
   45.9166   34.5807   43.4038 C   0  0  0  0  0  0  0  0  0  0  0  0
   45.9010   33.8459   44.5722 C   0  0  0  0  0  0  0  0  0  0  0  0
   45.2012   34.3378   45.6459 N   0  0  0  0  0  0  0  0  0  0  0  0
   44.5330   35.5041   45.6026 C   0  0  0  0  0  0  0  0  0  0  0  0
   44.5332   36.2367   44.4780 N   0  0  0  0  0  0  0  0  0  0  0  0
   46.5763   34.2329   42.2136 N   0  0  0  0  0  0  0  0  0  0  0  0
   47.8273   34.8293   41.7784 C   0  0  0  0  0  0  0  0  0  0  0  0
   48.3302   34.1645   40.5478 C   0  0  0  0  0  0  0  0  0  0  0  0
   47.3360   34.0984   39.5095 N   0  0  0  0  0  0  0  0  0  0  0  0
   46.0675   33.5715   39.9109 C   0  0  0  0  0  0  0  0  0  0  0  0
   45.9739   33.2135   41.3611 C   0  0  0  0  0  0  0  0  0  0  0  0
   46.5956   32.6594   44.5775 O   0  0  0  0  0  0  0  0  0  0  0  0
   45.5518   31.2092   46.5228 O   0  0  0  0  0  0  0  0  0  0  0  0
   46.8583   31.8486   46.0748 P   0  0  1  0  0  0  0  0  0  0  0  0
   48.0430   30.6936   45.8298 O   0  0  0  0  0  0  0  0  0  0  0  0
   47.3234   33.0112   47.2029 O   0  0  0  0  0  0  0  0  0  0  0  0
   45.1957   36.4164   42.4713 H   0  0  0  0  0  0  0  0  0  0  0  0
   44.0002   35.8434   46.4742 H   0  0  0  0  0  0  0  0  0  0  0  0
   47.5802   35.8909   41.5069 H   0  0  0  0  0  0  0  0  0  0  0  0
   48.5990   34.8521   42.5474 H   0  0  0  0  0  0  0  0  0  0  0  0
   48.7635   33.1751   40.7849 H   0  0  0  0  0  0  0  0  0  0  0  0
   49.1655   34.7678   40.1456 H   0  0  0  0  0  0  0  0  0  0  0  0
   47.7263   33.6736   38.6561 H   0  0  0  0  0  0  0  0  0  0  0  0
   45.2121   34.2078   39.6644 H   0  0  0  0  0  0  0  0  0  0  0  0
   45.9293   32.6155   39.3291 H   0  0  0  0  0  0  0  0  0  0  0  0
   46.5863   32.2968   41.5108 H   0  0  0  0  0  0  0  0  0  0  0  0
   44.9260   33.0249   41.6148 H   0  0  0  0  0  0  0  0  0  0  0  0
   48.7381   31.0085   45.2008 H   0  0  0  0  0  0  0  0  0  0  0  0
   49.3003   31.7934   47.4889 C   0  0  0  0  0  0  0  0  0  0  0  0
   48.4013   32.6819   48.0443 C   0  0  0  0  0  0  0  0  0  0  0  0
   48.5462   33.2031   49.3159 C   0  0  0  0  0  0  0  0  0  0  0  0
   47.8217   33.8832   49.6899 H   0  0  0  0  0  0  0  0  0  0  0  0
   49.6606   32.7754   50.0073 C   0  0  0  0  0  0  0  0  0  0  0  0
   50.5927   31.8905   49.5059 C   0  0  0  0  0  0  0  0  0  0  0  0
   50.4035   31.3937   48.2219 C   0  0  0  0  0  0  0  0  0  0  0  0
   51.5879   31.6821   50.4786 O   0  0  0  0  0  0  0  0  0  0  0  0
   51.4606   32.7462   51.4151 C   0  0  1  0  0  0  0  0  0  0  0  0
   51.7075   32.3443   52.4018 H   0  0  0  0  0  0  0  0  0  0  0  0
   50.0791   33.1207   51.3034 O   0  0  0  0  0  0  0  0  0  0  0  0
   49.1916   31.3849   46.4991 H   0  0  0  0  0  0  0  0  0  0  0  0
   51.1346   30.7025   47.8344 H   0  0  0  0  0  0  0  0  0  0  0  0
   52.1109   33.5955   51.1684 H   0  0  0  0  0  0  0  0  0  0  0  0
  1  2  2  0
  1  6  1  0
  2  3  1  0
  3  4  2  0
  5  4  1  0
  6  5  2  0
  7  2  1  0
  8  7  1  0
  9  8  1  0
 10 11  1  0
 10  9  1  0
 11 12  1  0
 12  7  1  0
 13  3  1  0
 15 13  1  6
 15 14  2  0
 15 17  1  0
 16 15  1  0
  1 18  1  0
  5 19  1  0
  8 20  1  0
  8 21  1  0
  9 22  1  0
  9 23  1  0
 10 24  1  0
 11 25  1  0
 11 26  1  0
 12 27  1  0
 12 28  1  0
 16 29  1  0
 30 31  2  0
 31 32  1  0
 32 33  1  0
 32 34  2  0
 34 35  1  0
 35 36  2  0
 35 37  1  0
 37 38  1  0
 38 39  1  1
 38 40  1  0
 36 30  1  0
 40 34  1  0
 30 41  1  0
 36 42  1  0
 38 43  1  0
 17 31  1  0
M  ISO  8  18  14  19  14  20  13  21  13  22  13  23  13  24   5  25  13
M  ISO  6  26  13  27  13  28  13  29   3  33  16  39   8
M  END
>  <DihAtoms>  (1) 
14,16,30,29

>  <DihDeg>  (1) 
-61.75792405454323

$$$$
