
 OpenBabel03242520263D

 40 43  0  0  0  0  0  0  0  0999 V2000
   46.0090   35.6200   42.8120 C   0  0  0  0  0  0  0  0  0  0  0  0
   46.5050   34.4220   43.4140 C   0  0  0  0  0  0  0  0  0  0  0  0
   45.9280   33.9980   44.5940 C   0  0  0  0  0  0  0  0  0  0  0  0
   44.9090   34.7450   45.1310 N   0  0  0  0  0  0  0  0  0  0  0  0
   44.4540   35.8700   44.5520 C   0  0  0  0  0  0  0  0  0  0  0  0
   44.9980   36.3030   43.4040 N   0  0  0  0  0  0  0  0  0  0  0  0
   46.4430   35.9760   41.8850 H   0  0  0  0  0  0  0  0  0  0  0  0
   43.6520   36.4180   45.0160 H   0  0  0  0  0  0  0  0  0  0  0  0
   47.5510   33.7850   42.7270 N   0  0  0  0  0  0  0  0  0  0  0  0
   48.9560   34.0960   42.9250 C   0  0  0  0  0  0  0  0  0  0  0  0
   49.8180   33.1690   42.1460 C   0  0  0  0  0  0  0  0  0  0  0  0
   49.4390   33.0960   40.7600 N   0  0  0  0  0  0  0  0  0  0  0  0
   48.0510   32.8500   40.5190 C   0  0  0  0  0  0  0  0  0  0  0  0
   47.2130   32.7510   41.7550 C   0  0  0  0  0  0  0  0  0  0  0  0
   49.1030   35.1260   42.5010 H   0  0  0  0  0  0  0  0  0  0  0  0
   49.2620   34.1190   43.9710 H   0  0  0  0  0  0  0  0  0  0  0  0
   49.8630   32.1750   42.6280 H   0  0  0  0  0  0  0  0  0  0  0  0
   50.8540   33.5590   42.1690 H   0  0  0  0  0  0  0  0  0  0  0  0
   50.0810   32.4830   40.2370 H   0  0  0  0  0  0  0  0  0  0  0  0
   47.5730   33.5660   39.8430 H   0  0  0  0  0  0  0  0  0  0  0  0
   47.9960   31.8470   40.0060 H   0  0  0  0  0  0  0  0  0  0  0  0
   47.4670   31.7850   42.2440 H   0  0  0  0  0  0  0  0  0  0  0  0
   46.1560   32.7750   41.4720 H   0  0  0  0  0  0  0  0  0  0  0  0
   46.4210   32.8430   45.1560 O   0  0  0  0  0  0  0  0  0  0  0  0
   45.0100   33.4810   47.2950 O   0  0  0  0  0  0  0  0  0  0  0  0
   46.0460   32.4830   46.7980 P   0  0  1  0  0  0  0  0  0  0  0  0
   45.4530   30.9200   46.8550 O   0  0  0  0  0  0  0  0  0  0  0  0
   45.9170   30.3280   46.2140 H   0  0  0  0  0  0  0  0  0  0  0  0
   47.4630   32.6620   47.6900 O   0  0  0  0  0  0  0  0  0  0  0  0
   48.1210   30.4760   47.1740 C   0  0  0  0  0  0  0  0  0  0  0  0
   48.0930   31.4810   48.1220 C   0  0  0  0  0  0  0  0  0  0  0  0
   48.6380   31.3390   49.3840 C   0  0  0  0  0  0  0  0  0  0  0  0
   48.5860   32.1470   50.0710 H   0  0  0  0  0  0  0  0  0  0  0  0
   49.2180   30.1150   49.6450 C   0  0  0  0  0  0  0  0  0  0  0  0
   49.2760   29.0750   48.7410 C   0  0  0  0  0  0  0  0  0  0  0  0
   48.7150   29.2650   47.4830 C   0  0  0  0  0  0  0  0  0  0  0  0
   49.9350   27.9880   49.3430 O   0  0  0  0  0  0  0  0  0  0  0  0
   50.6210   28.5120   50.4740 C   0  0  0  0  0  0  0  0  0  0  0  0
   50.6000   27.7460   51.2540 H   0  0  0  0  0  0  0  0  0  0  0  0
   49.8470   29.6720   50.8200 O   0  0  0  0  0  0  0  0  0  0  0  0
  1  6  2  0  0  0  0
  1  2  1  0  0  0  0
  2  3  2  0  0  0  0
  3  4  1  0  0  0  0
  3 24  1  0  0  0  0
  5  8  1  0  0  0  0
  5  4  2  0  0  0  0
  6  5  1  0  0  0  0
  7  1  1  0  0  0  0
  9 10  1  0  0  0  0
  9  2  1  0  0  0  0
 10 16  1  0  0  0  0
 11 18  1  0  0  0  0
 11 17  1  0  0  0  0
 11 10  1  0  0  0  0
 12 11  1  0  0  0  0
 13 12  1  0  0  0  0
 13 14  1  0  0  0  0
 14 22  1  0  0  0  0
 14  9  1  0  0  0  0
 15 10  1  0  0  0  0
 19 12  1  0  0  0  0
 20 13  1  0  0  0  0
 21 13  1  0  0  0  0
 23 14  1  0  0  0  0
 24 26  1  0  0  0  0
 26 27  1  0  0  0  0
 26 25  2  1  0  0  0
 26 29  1  0  0  0  0
 28 27  1  0  0  0  0
 29 31  1  0  0  0  0
 30 36  2  0  0  0  0
 30 31  1  0  0  0  0
 31 32  2  0  0  0  0
 32 34  1  0  0  0  0
 32 33  1  0  0  0  0
 34 40  1  0  0  0  0
 35 37  1  0  0  0  0
 35 34  2  0  0  0  0
 36 35  1  0  0  0  0
 37 38  1  0  0  0  0
 38 40  1  0  0  0  0
 38 39  1  0  0  0  0
M  END
>  <minimizedAffinity>
-6.02158642

>  <minimizedRMSD>
2.14228296

$$$$
