
 OpenBabel03252502233D

 36 39  0  0  1  0  0  0  0  0999 V2000
   46.7180   34.5290   42.2650 N   0  0  0  0  0  0  0  0  0  0  0  0
   48.1740   34.4580   42.2890 C   0  0  0  0  0  0  0  0  0  0  0  0
   48.6060   35.2070   41.0200 C   0  0  0  0  0  0  0  0  0  0  0  0
   48.1480   34.4900   39.7920 C   0  0  0  0  0  0  0  0  0  0  0  0
   46.7880   33.8910   39.8970 C   0  0  0  0  0  0  0  0  0  0  0  0
   45.9610   34.3750   41.0460 C   0  0  1  0  0  0  0  0  0  0  0  0
   48.6040   34.9580   43.1560 H   0  0  0  0  0  0  0  0  0  0  0  0
   48.5640   33.4300   42.1530 H   0  0  0  0  0  0  0  0  0  0  0  0
   48.3050   36.2750   41.0460 H   0  0  0  0  0  0  0  0  0  0  0  0
   49.7300   35.2160   41.0720 H   0  0  0  0  0  0  0  0  0  0  0  0
   48.2500   35.1930   38.9330 H   0  0  0  0  0  0  0  0  0  0  0  0
   48.8900   33.6710   39.5880 H   0  0  0  0  0  0  0  0  0  0  0  0
   46.2360   34.1600   38.9700 H   0  0  0  0  0  0  0  0  0  0  0  0
   46.8210   32.7740   39.9180 H   0  0  0  0  0  0  0  0  0  0  0  0
   45.5160   35.3690   40.8370 H   0  0  0  0  0  0  0  0  0  0  0  0
   44.4630   36.0320   44.8350 C   0  0  0  0  0  0  0  0  0  0  0  0
   45.1440   35.8920   43.6070 C   0  0  0  0  0  0  0  0  0  0  0  0
   45.9860   34.7590   43.4700 C   0  0  0  0  0  0  0  0  0  0  0  0
   46.0830   33.8950   44.5130 N   0  0  0  0  0  0  0  0  0  0  0  0
   45.4020   34.0830   45.6740 C   0  0  0  0  0  0  0  0  0  0  0  0
   44.5970   35.1500   45.8270 N   0  0  0  0  0  0  0  0  0  0  0  0
   43.8190   36.8930   44.9500 H   0  0  0  0  0  0  0  0  0  0  0  0
   45.0540   36.5920   42.7870 H   0  0  0  0  0  0  0  0  0  0  0  0
   45.5800   33.3110   46.4130 H   0  0  0  0  0  0  0  0  0  0  0  0
   44.9570   33.4310   41.2680 O   0  0  0  0  0  0  0  0  0  0  0  0
   42.8770   32.4850   41.5380 C   0  0  0  0  0  3  0  0  0  0  0  0
   43.6120   33.5910   41.1000 C   0  0  0  0  0  0  0  0  0  0  0  0
   42.8930   34.6490   40.5790 C   0  0  0  0  0  0  0  0  0  0  0  0
   43.5220   35.4680   40.2610 H   0  0  0  0  0  0  0  0  0  0  0  0
   41.5160   34.6060   40.5010 C   0  0  0  0  0  0  0  0  0  0  0  0
   40.8230   33.5160   40.9350 C   0  0  0  0  0  0  0  0  0  0  0  0
   41.5030   32.4170   41.4700 C   0  0  0  0  0  3  0  0  0  0  0  0
   39.4570   33.7800   40.7190 O   0  0  0  0  0  0  0  0  0  0  0  0
   39.3930   34.9220   39.8670 C   0  0  0  0  0  3  0  0  0  0  0  0
   38.5600   35.5920   40.1520 H   0  0  0  0  0  0  0  0  0  0  0  0
   40.6500   35.5770   40.0080 O   0  0  0  0  0  0  0  0  0  0  0  0
  1  2  1  0  0  0  0
  1 18  1  0  0  0  0
  2  7  1  0  0  0  0
  3  9  1  0  0  0  0
  3 10  1  0  0  0  0
  3  2  1  0  0  0  0
  4  5  1  0  0  0  0
  4  3  1  0  0  0  0
  5 14  1  0  0  0  0
  5  6  1  0  0  0  0
  6 15  1  6  0  0  0
  6 25  1  0  0  0  0
  6  1  1  0  0  0  0
  8  2  1  0  0  0  0
 11  4  1  0  0  0  0
 12  4  1  0  0  0  0
 13  5  1  0  0  0  0
 16 22  1  0  0  0  0
 16 21  1  0  0  0  0
 17 16  2  0  0  0  0
 18 17  1  0  0  0  0
 18 19  2  0  0  0  0
 19 20  1  0  0  0  0
 20 21  2  0  0  0  0
 20 24  1  0  0  0  0
 23 17  1  0  0  0  0
 27 25  1  0  0  0  0
 27 26  2  0  0  0  0
 28 27  1  0  0  0  0
 29 28  1  0  0  0  0
 30 28  2  0  0  0  0
 30 31  1  0  0  0  0
 31 32  2  0  0  0  0
 32 26  1  0  0  0  0
 33 31  1  0  0  0  0
 34 36  1  0  0  0  0
 34 35  1  0  0  0  0
 34 33  1  0  0  0  0
 36 30  1  0  0  0  0
M  END
>  <minimizedAffinity>
-6.37492466

>  <minimizedRMSD>
0.697757065

$$$$
