
 OpenBabel03252502233D

 36 39  0  0  1  0  0  0  0  0999 V2000
   46.8360   34.6060   42.3240 N   0  0  0  0  0  0  0  0  0  0  0  0
   48.2910   34.5370   42.3930 C   0  0  0  0  0  0  0  0  0  0  0  0
   48.7610   35.3360   41.1690 C   0  0  0  0  0  0  0  0  0  0  0  0
   48.3460   34.6660   39.9000 C   0  0  0  0  0  0  0  0  0  0  0  0
   46.9860   34.0600   39.9370 C   0  0  0  0  0  0  0  0  0  0  0  0
   46.1200   34.4980   41.0760 C   0  0  1  0  0  0  0  0  0  0  0  0
   48.6900   35.0040   43.2930 H   0  0  0  0  0  0  0  0  0  0  0  0
   48.6890   33.5160   42.2310 H   0  0  0  0  0  0  0  0  0  0  0  0
   48.4560   36.4020   41.2270 H   0  0  0  0  0  0  0  0  0  0  0  0
   49.8830   35.3450   41.2580 H   0  0  0  0  0  0  0  0  0  0  0  0
   48.4740   35.4020   39.0720 H   0  0  0  0  0  0  0  0  0  0  0  0
   49.0970   33.8570   39.6880 H   0  0  0  0  0  0  0  0  0  0  0  0
   46.4640   34.3650   39.0040 H   0  0  0  0  0  0  0  0  0  0  0  0
   47.0220   32.9440   39.9150 H   0  0  0  0  0  0  0  0  0  0  0  0
   45.6790   35.4990   40.8920 H   0  0  0  0  0  0  0  0  0  0  0  0
   44.4710   35.9880   44.8640 C   0  0  0  0  0  0  0  0  0  0  0  0
   45.1910   35.8960   43.6530 C   0  0  0  0  0  0  0  0  0  0  0  0
   46.0650   34.7880   43.5130 C   0  0  0  0  0  0  0  0  0  0  0  0
   46.1540   33.9000   44.5370 N   0  0  0  0  0  0  0  0  0  0  0  0
   45.4350   34.0420   45.6810 C   0  0  0  0  0  0  0  0  0  0  0  0
   44.5990   35.0850   45.8370 N   0  0  0  0  0  0  0  0  0  0  0  0
   43.8020   36.8290   44.9810 H   0  0  0  0  0  0  0  0  0  0  0  0
   45.1060   36.6140   42.8480 H   0  0  0  0  0  0  0  0  0  0  0  0
   45.6110   33.2560   46.4060 H   0  0  0  0  0  0  0  0  0  0  0  0
   45.1120   33.5440   41.2280 O   0  0  0  0  0  0  0  0  0  0  0  0
   43.4860   32.8130   39.7750 C   0  0  0  0  0  3  0  0  0  0  0  0
   43.8050   33.6470   40.8510 C   0  0  0  0  0  0  0  0  0  0  0  0
   42.7850   34.4260   41.3590 C   0  0  0  0  0  0  0  0  0  0  0  0
   43.0990   35.0450   42.1870 H   0  0  0  0  0  0  0  0  0  0  0  0
   41.5140   34.3780   40.8230 C   0  0  0  0  0  0  0  0  0  0  0  0
   41.2280   33.5570   39.7740 C   0  0  0  0  0  0  0  0  0  0  0  0
   42.2260   32.7450   39.2210 C   0  0  0  0  0  3  0  0  0  0  0  0
   39.8660   33.7360   39.4640 O   0  0  0  0  0  0  0  0  0  0  0  0
   39.4440   34.9080   40.1580 C   0  0  0  0  0  3  0  0  0  0  0  0
   38.4180   34.7920   40.5570 H   0  0  0  0  0  0  0  0  0  0  0  0
   40.3850   35.0900   41.2130 O   0  0  0  0  0  0  0  0  0  0  0  0
  1  2  1  0  0  0  0
  1 18  1  0  0  0  0
  2  7  1  0  0  0  0
  3  9  1  0  0  0  0
  3 10  1  0  0  0  0
  3  2  1  0  0  0  0
  4  5  1  0  0  0  0
  4  3  1  0  0  0  0
  5  6  1  0  0  0  0
  6 15  1  6  0  0  0
  6 25  1  0  0  0  0
  6  1  1  0  0  0  0
  8  2  1  0  0  0  0
 11  4  1  0  0  0  0
 12  4  1  0  0  0  0
 13  5  1  0  0  0  0
 14  5  1  0  0  0  0
 16 22  1  0  0  0  0
 16 21  1  0  0  0  0
 17 16  2  0  0  0  0
 18 17  1  0  0  0  0
 18 19  2  0  0  0  0
 19 20  1  0  0  0  0
 20 21  2  0  0  0  0
 20 24  1  0  0  0  0
 23 17  1  0  0  0  0
 26 27  1  0  0  0  0
 27 25  1  0  0  0  0
 27 28  2  0  0  0  0
 28 29  1  0  0  0  0
 30 36  1  0  0  0  0
 30 28  1  0  0  0  0
 31 30  2  0  0  0  0
 32 31  1  0  0  0  0
 32 26  2  0  0  0  0
 33 31  1  0  0  0  0
 33 34  1  0  0  0  0
 34 35  1  0  0  0  0
 34 36  1  0  0  0  0
M  END
>  <minimizedAffinity>
-6.17679358

>  <minimizedRMSD>
0.877333343

$$$$
