
 OpenBabel03252502233D

 36 39  0  0  1  0  0  0  0  0999 V2000
   46.8800   34.6250   42.3070 N   0  0  0  0  0  0  0  0  0  0  0  0
   48.3360   34.6500   42.3750 C   0  0  0  0  0  0  0  0  0  0  0  0
   48.7550   35.4400   41.1260 C   0  0  0  0  0  0  0  0  0  0  0  0
   48.3830   34.7080   39.8790 C   0  0  0  0  0  0  0  0  0  0  0  0
   47.0630   34.0190   39.9360 C   0  0  0  0  0  0  0  0  0  0  0  0
   46.1720   34.4350   41.0640 C   0  0  1  0  0  0  0  0  0  0  0  0
   48.7050   35.1670   43.2600 H   0  0  0  0  0  0  0  0  0  0  0  0
   48.7970   33.6520   42.2420 H   0  0  0  0  0  0  0  0  0  0  0  0
   48.3840   36.4860   41.1540 H   0  0  0  0  0  0  0  0  0  0  0  0
   49.8740   35.5220   41.2130 H   0  0  0  0  0  0  0  0  0  0  0  0
   48.4640   35.4260   39.0290 H   0  0  0  0  0  0  0  0  0  0  0  0
   49.1830   33.9420   39.6900 H   0  0  0  0  0  0  0  0  0  0  0  0
   46.5230   34.2620   38.9960 H   0  0  0  0  0  0  0  0  0  0  0  0
   47.1690   32.9070   39.9480 H   0  0  0  0  0  0  0  0  0  0  0  0
   45.6680   35.4000   40.8510 H   0  0  0  0  0  0  0  0  0  0  0  0
   44.4730   35.9620   44.8310 C   0  0  0  0  0  0  0  0  0  0  0  0
   45.2000   35.8820   43.6240 C   0  0  0  0  0  0  0  0  0  0  0  0
   46.0980   34.7930   43.4910 C   0  0  0  0  0  0  0  0  0  0  0  0
   46.2010   33.9110   44.5180 N   0  0  0  0  0  0  0  0  0  0  0  0
   45.4740   34.0400   45.6580 C   0  0  0  0  0  0  0  0  0  0  0  0
   44.6150   35.0650   45.8070 N   0  0  0  0  0  0  0  0  0  0  0  0
   43.7850   36.7900   44.9420 H   0  0  0  0  0  0  0  0  0  0  0  0
   45.1040   36.5960   42.8160 H   0  0  0  0  0  0  0  0  0  0  0  0
   45.6640   33.2600   46.3860 H   0  0  0  0  0  0  0  0  0  0  0  0
   45.2260   33.4250   41.2460 O   0  0  0  0  0  0  0  0  0  0  0  0
   43.4810   34.6850   40.4340 C   0  0  0  0  0  3  0  0  0  0  0  0
   43.8740   33.5110   41.0830 C   0  0  0  0  0  0  0  0  0  0  0  0
   42.8690   32.6380   41.4530 C   0  0  0  0  0  0  0  0  0  0  0  0
   43.2420   31.7530   41.9490 H   0  0  0  0  0  0  0  0  0  0  0  0
   41.5450   32.9210   41.1880 C   0  0  0  0  0  0  0  0  0  0  0  0
   41.1880   34.0730   40.5550 C   0  0  0  0  0  0  0  0  0  0  0  0
   42.1660   34.9910   40.1590 C   0  0  0  0  0  3  0  0  0  0  0  0
   39.7840   34.0650   40.4370 O   0  0  0  0  0  0  0  0  0  0  0  0
   39.3120   33.0260   41.2920 C   0  0  0  0  0  3  0  0  0  0  0  0
   38.4600   32.4870   40.8370 H   0  0  0  0  0  0  0  0  0  0  0  0
   40.4220   32.1570   41.4910 O   0  0  0  0  0  0  0  0  0  0  0  0
  1  2  1  0  0  0  0
  1 18  1  0  0  0  0
  2  7  1  0  0  0  0
  3  9  1  0  0  0  0
  3 10  1  0  0  0  0
  3  2  1  0  0  0  0
  4  5  1  0  0  0  0
  4  3  1  0  0  0  0
  5 14  1  0  0  0  0
  5  6  1  0  0  0  0
  6 15  1  6  0  0  0
  6 25  1  0  0  0  0
  6  1  1  0  0  0  0
  8  2  1  0  0  0  0
 11  4  1  0  0  0  0
 12  4  1  0  0  0  0
 13  5  1  0  0  0  0
 16 22  1  0  0  0  0
 16 21  1  0  0  0  0
 17 16  2  0  0  0  0
 18 17  1  0  0  0  0
 18 19  2  0  0  0  0
 19 20  1  0  0  0  0
 20 21  2  0  0  0  0
 20 24  1  0  0  0  0
 23 17  1  0  0  0  0
 26 27  1  0  0  0  0
 27 25  1  0  0  0  0
 27 28  2  0  0  0  0
 28 29  1  0  0  0  0
 30 28  1  0  0  0  0
 30 36  1  0  0  0  0
 31 30  2  0  0  0  0
 32 26  2  0  0  0  0
 32 31  1  0  0  0  0
 33 31  1  0  0  0  0
 33 34  1  0  0  0  0
 34 36  1  0  0  0  0
 35 34  1  0  0  0  0
M  END
>  <minimizedAffinity>
-6.41904879

>  <minimizedRMSD>
0.601378739

$$$$
