
 OpenBabel03252502233D

 36 39  0  0  1  0  0  0  0  0999 V2000
   46.7760   34.5630   42.3280 N   0  0  0  0  0  0  0  0  0  0  0  0
   48.2260   34.4210   42.3870 C   0  0  0  0  0  0  0  0  0  0  0  0
   48.7290   35.2110   41.1700 C   0  0  0  0  0  0  0  0  0  0  0  0
   48.2740   34.5790   39.8950 C   0  0  0  0  0  0  0  0  0  0  0  0
   46.8850   34.0420   39.9330 C   0  0  0  0  0  0  0  0  0  0  0  0
   46.0490   34.5070   41.0830 C   0  0  1  0  0  0  0  0  0  0  0  0
   48.6530   34.8550   43.2900 H   0  0  0  0  0  0  0  0  0  0  0  0
   48.5710   33.3830   42.2090 H   0  0  0  0  0  0  0  0  0  0  0  0
   48.4780   36.2900   41.2440 H   0  0  0  0  0  0  0  0  0  0  0  0
   49.8500   35.1630   41.2530 H   0  0  0  0  0  0  0  0  0  0  0  0
   48.4340   35.3190   39.0770 H   0  0  0  0  0  0  0  0  0  0  0  0
   48.9820   33.7370   39.6690 H   0  0  0  0  0  0  0  0  0  0  0  0
   46.3730   34.3850   39.0070 H   0  0  0  0  0  0  0  0  0  0  0  0
   46.8640   32.9260   39.8970 H   0  0  0  0  0  0  0  0  0  0  0  0
   45.6570   35.5320   40.9140 H   0  0  0  0  0  0  0  0  0  0  0  0
   44.4740   36.0120   44.8880 C   0  0  0  0  0  0  0  0  0  0  0  0
   45.1790   35.8990   43.6710 C   0  0  0  0  0  0  0  0  0  0  0  0
   46.0210   34.7680   43.5240 C   0  0  0  0  0  0  0  0  0  0  0  0
   46.0960   33.8790   44.5480 N   0  0  0  0  0  0  0  0  0  0  0  0
   45.3920   34.0420   45.6990 C   0  0  0  0  0  0  0  0  0  0  0  0
   44.5870   35.1080   45.8620 N   0  0  0  0  0  0  0  0  0  0  0  0
   43.8300   36.8720   45.0100 H   0  0  0  0  0  0  0  0  0  0  0  0
   45.1060   36.6180   42.8650 H   0  0  0  0  0  0  0  0  0  0  0  0
   45.5540   33.2520   46.4240 H   0  0  0  0  0  0  0  0  0  0  0  0
   44.9950   33.6030   41.2290 O   0  0  0  0  0  0  0  0  0  0  0  0
   42.8590   34.4270   41.4560 C   0  0  0  0  0  3  0  0  0  0  0  0
   43.7490   33.6810   40.6780 C   0  0  0  0  0  0  0  0  0  0  0  0
   43.2540   33.1480   39.5030 C   0  0  0  0  0  0  0  0  0  0  0  0
   43.9930   32.5840   38.9520 H   0  0  0  0  0  0  0  0  0  0  0  0
   41.9420   33.3490   39.1260 C   0  0  0  0  0  0  0  0  0  0  0  0
   41.0950   34.0800   39.9010 C   0  0  0  0  0  0  0  0  0  0  0  0
   41.5450   34.6420   41.1010 C   0  0  0  0  0  3  0  0  0  0  0  0
   39.8460   34.0980   39.2500 O   0  0  0  0  0  0  0  0  0  0  0  0
   39.9050   33.1030   38.2310 C   0  0  0  0  0  3  0  0  0  0  0  0
   39.3860   33.4340   37.3130 H   0  0  0  0  0  0  0  0  0  0  0  0
   41.2910   32.8860   37.9860 O   0  0  0  0  0  0  0  0  0  0  0  0
  1  2  1  0  0  0  0
  1 18  1  0  0  0  0
  2  7  1  0  0  0  0
  3  9  1  0  0  0  0
  3 10  1  0  0  0  0
  3  2  1  0  0  0  0
  4  5  1  0  0  0  0
  4  3  1  0  0  0  0
  5  6  1  0  0  0  0
  6 15  1  6  0  0  0
  6 25  1  0  0  0  0
  6  1  1  0  0  0  0
  8  2  1  0  0  0  0
 11  4  1  0  0  0  0
 12  4  1  0  0  0  0
 13  5  1  0  0  0  0
 14  5  1  0  0  0  0
 16 22  1  0  0  0  0
 16 21  1  0  0  0  0
 17 16  2  0  0  0  0
 18 17  1  0  0  0  0
 18 19  2  0  0  0  0
 19 20  1  0  0  0  0
 20 21  2  0  0  0  0
 20 24  1  0  0  0  0
 23 17  1  0  0  0  0
 27 25  1  0  0  0  0
 27 26  2  0  0  0  0
 28 27  1  0  0  0  0
 29 28  1  0  0  0  0
 30 28  2  0  0  0  0
 30 31  1  0  0  0  0
 31 32  2  0  0  0  0
 32 26  1  0  0  0  0
 33 31  1  0  0  0  0
 34 33  1  0  0  0  0
 35 34  1  0  0  0  0
 36 34  1  0  0  0  0
 36 30  1  0  0  0  0
M  END
>  <minimizedAffinity>
-6.07361937

>  <minimizedRMSD>
1.11797392

$$$$
