
 OpenBabel03242518553D

 45 48  0  0  1  0  0  0  0  0999 V2000
   45.8310   31.2700   46.5650 C   0  0  2  0  0  0  0  0  0  0  0  0
   45.8800   30.5040   47.8480 C   0  0  0  0  0  0  0  0  0  0  0  0
   45.1500   29.2250   47.6200 C   0  0  0  0  0  0  0  0  0  0  0  0
   44.5110   29.0730   46.2850 C   0  0  0  0  0  0  0  0  0  0  0  0
   45.5230   29.2720   45.1910 C   0  0  0  0  0  0  0  0  0  0  0  0
   46.3980   30.4040   45.4570 C   0  0  2  0  0  0  0  0  0  0  0  0
   44.7710   31.4190   46.2740 H   0  0  0  0  0  0  0  0  0  0  0  0
   46.8840   30.3530   48.2610 H   0  0  0  0  0  0  0  0  0  0  0  0
   45.3610   31.1520   48.6230 H   0  0  0  0  0  0  0  0  0  0  0  0
   45.7370   28.3010   47.8610 H   0  0  0  0  0  0  0  0  0  0  0  0
   44.3060   29.1860   48.3680 H   0  0  0  0  0  0  0  0  0  0  0  0
   44.1210   28.0270   46.2380 H   0  0  0  0  0  0  0  0  0  0  0  0
   43.6030   29.7220   46.1610 H   0  0  0  0  0  0  0  0  0  0  0  0
   45.9770   28.2870   44.9810 H   0  0  0  0  0  0  0  0  0  0  0  0
   44.9200   29.4980   44.2630 H   0  0  0  0  0  0  0  0  0  0  0  0
   46.5550   31.0330   44.5790 H   0  0  0  0  0  0  0  0  0  0  0  0
   47.7060   29.8230   45.8740 C   0  0  0  0  0  0  0  0  0  0  0  0
   47.6530   29.0910   46.7020 H   0  0  0  0  0  0  0  0  0  0  0  0
   48.3480   30.6660   46.2140 H   0  0  0  0  0  0  0  0  0  0  0  0
   52.0950   28.0080   43.8830 C   0  0  0  0  0  0  0  0  0  0  0  0
   51.8430   29.4710   44.1560 C   0  0  0  0  0  2  0  0  0  0  0  0
   50.4160   29.7020   44.0870 N   0  0  0  0  0  0  0  0  0  0  0  0
   49.0840   30.1110   43.7940 C   0  0  0  0  0  0  0  0  0  0  0  0
   48.6610   31.0120   42.9970 O   0  0  0  0  0  0  0  0  0  0  0  0
   48.4400   29.1430   44.7160 C   0  0  1  0  0  3  0  0  0  0  0  0
   49.8580   28.8660   45.1530 C   0  0  1  0  0  3  0  0  0  0  0  0
   50.5420   27.2740   44.5390 S   0  0  0  0  0  0  0  0  0  0  0  0
   53.2110   27.4590   44.7480 C   0  0  0  0  0  2  0  0  0  0  0  0
   54.0880   28.1340   44.8120 H   0  0  0  0  0  0  0  0  0  0  0  0
   52.2940   27.7050   42.4290 C   0  0  0  0  0  2  0  0  0  0  0  0
   52.7110   28.6400   41.9530 H   0  0  0  0  0  0  0  0  0  0  0  0
   46.4640   32.6100   46.6290 C   0  0  0  0  0  0  0  0  0  0  0  0
   47.3660   32.8970   47.4570 O   0  0  0  0  0  0  0  0  0  0  0  0
   44.5890   35.3670   45.1410 C   0  0  0  0  0  0  0  0  0  0  0  0
   45.1150   35.4810   43.8300 C   0  0  0  0  0  0  0  0  0  0  0  0
   46.1200   34.5920   43.4930 C   0  0  0  0  0  0  0  0  0  0  0  0
   46.4730   33.7310   44.4510 N   0  0  0  0  0  0  0  0  0  0  0  0
   45.9910   33.6180   45.6710 C   0  0  0  0  0  0  0  0  0  0  0  0
   45.0150   34.4680   46.0240 N   0  0  0  0  0  0  0  0  0  0  0  0
   43.7890   36.0530   45.4490 H   0  0  0  0  0  0  0  0  0  0  0  0
   44.7200   36.2350   43.1670 H   0  0  0  0  0  0  0  0  0  0  0  0
   46.6600   34.6970   42.1480 C   0  0  0  0  0  0  0  0  0  0  0  0
   47.3430   33.5300   41.8250 F   0  0  0  0  0  0  0  0  0  0  0  0
   47.5360   35.7330   42.1540 F   0  0  0  0  0  0  0  0  0  0  0  0
   45.6650   34.8230   41.1870 F   0  0  0  0  0  0  0  0  0  0  0  0
  1  7  1  6  0  0  0
  1 32  1  0  0  0  0
  1  2  1  0  0  0  0
  2  8  1  0  0  0  0
  2  9  1  0  0  0  0
  3  2  1  0  0  0  0
  3 10  1  0  0  0  0
  3 11  1  0  0  0  0
  4  3  1  0  0  0  0
  5  6  1  0  0  0  0
  5  4  1  0  0  0  0
  6 16  1  6  0  0  0
  6 17  1  0  0  0  0
  6  1  1  0  0  0  0
 12  4  1  0  0  0  0
 13  4  1  0  0  0  0
 14  5  1  0  0  0  0
 15  5  1  0  0  0  0
 17 19  1  0  0  0  0
 17 18  1  0  0  0  0
 20 21  1  0  0  0  0
 20 27  1  0  0  0  0
 20 28  1  0  0  0  0
 22 21  1  0  0  0  0
 22 26  1  0  0  0  0
 23 22  1  0  0  0  0
 23 25  1  0  0  0  0
 24 23  2  0  0  0  0
 25 26  1  0  0  0  0
 25 17  1  1  0  0  0
 26 27  1  6  0  0  0
 28 29  1  0  0  0  0
 30 20  1  0  0  0  0
 31 30  1  0  0  0  0
 32 33  2  0  0  0  0
 34 40  1  0  0  0  0
 34 39  1  0  0  0  0
 35 34  2  0  0  0  0
 36 35  1  0  0  0  0
 36 37  2  0  0  0  0
 37 38  1  0  0  0  0
 38 39  2  0  0  0  0
 38 32  1  0  0  0  0
 41 35  1  0  0  0  0
 42 44  1  0  0  0  0
 42 36  1  0  0  0  0
 43 42  1  0  0  0  0
 45 42  1  0  0  0  0
M  END
>  <minimizedAffinity>
-5.40285635

>  <minimizedRMSD>
0.671148419

$$$$
