
     RDKit          3D

 37 39  0  0  0  0  0  0  0  0999 V2000
   46.1302   35.2756   42.6943 C   0  0  0  0  0  0  0  0  0  0  0  0
   46.6858   34.1789   43.3487 C   0  0  0  0  0  0  0  0  0  0  0  0
   46.2082   33.8373   44.6154 C   0  0  0  0  0  0  0  0  0  0  0  0
   45.2125   34.6059   45.1474 N   0  0  0  0  0  0  0  0  0  0  0  0
   44.7011   35.6515   44.4937 C   0  0  0  0  0  0  0  0  0  0  0  0
   45.1550   35.9810   43.2828 N   0  0  0  0  0  0  0  0  0  0  0  0
   47.7025   33.4723   42.6941 O   0  0  0  0  0  0  0  0  0  0  0  0
   49.5497   35.3611   42.7868 O   0  0  0  0  0  0  0  0  0  0  0  0
   48.9737   34.3045   41.9004 P   0  0  1  0  0  0  0  0  0  0  0  0
   50.2205   33.2497   41.5043 O   0  0  0  0  0  0  0  0  0  0  0  0
   48.4073   35.0367   40.5100 O   0  0  0  0  0  0  0  0  0  0  0  0
   48.0636   34.3891   39.3674 C   0  0  0  0  0  0  0  0  0  0  0  0
   46.9568   33.7454   39.5045 O   0  0  0  0  0  0  0  0  0  0  0  0
   46.4280   35.6241   41.7114 H   0  0  0  0  0  0  0  0  0  0  0  0
   46.6469   32.9827   45.1159 H   0  0  0  0  0  0  0  0  0  0  0  0
   43.9082   36.2666   44.9132 H   0  0  0  0  0  0  0  0  0  0  0  0
   50.3849   33.1669   40.5452 H   0  0  0  0  0  0  0  0  0  0  0  0
   46.8103   33.1219   34.1040 C   0  0  0  0  0  0  0  0  0  0  0  0
   47.8500   33.3360   34.3638 H   0  0  0  0  0  0  0  0  0  0  0  0
   45.9522   32.5801   35.1940 C   0  0  0  0  0  0  0  0  0  0  0  0
   44.6682   32.0528   34.5927 C   0  0  0  0  0  0  0  0  0  0  0  0
   43.9322   32.0198   35.4389 H   0  0  0  0  0  0  0  0  0  0  0  0
   46.5527   31.4913   36.0141 C   0  0  0  0  0  0  0  0  0  0  0  0
   47.3485   32.0968   37.0513 N   0  0  0  0  0  0  0  0  0  0  0  0
   48.4691   32.4110   37.8999 C   0  0  0  0  0  0  0  0  0  0  0  0
   49.4445   31.6600   38.2463 O   0  0  0  0  0  0  0  0  0  0  0  0
   47.8751   33.7665   38.0326 C   0  0  1  0  0  0  0  0  0  0  0  0
   46.5913   33.0478   37.8002 C   0  0  1  0  0  0  0  0  0  0  0  0
   45.5743   33.8250   36.4861 S   0  0  0  0  0  0  0  0  0  0  0  0
   46.3333   34.0858   33.7680 H   0  0  0  0  0  0  0  0  0  0  0  0
   46.6996   32.4416   33.2364 H   0  0  0  0  0  0  0  0  0  0  0  0
   44.8836   31.0128   34.2376 H   0  0  0  0  0  0  0  0  0  0  0  0
   44.3768   32.7183   33.7726 H   0  0  0  0  0  0  0  0  0  0  0  0
   47.1937   30.8959   35.3464 H   0  0  0  0  0  0  0  0  0  0  0  0
   45.7921   30.7909   36.4086 H   0  0  0  0  0  0  0  0  0  0  0  0
   48.1495   34.4191   37.1777 H   0  0  0  0  0  0  0  0  0  0  0  0
   46.0198   32.6875   38.6555 H   0  0  0  0  0  0  0  0  0  0  0  0
  1  6  2  0
  1  2  1  0
  2  3  2  0
  3  4  1  0
  5  4  2  0
  6  5  1  0
  7  2  1  0
  9  7  1  1
  9  8  2  0
 10  9  1  0
 11  9  1  0
 12 13  2  0
 12 11  1  0
  1 14  1  0
  3 15  1  0
  5 16  1  0
 10 17  1  0
 18 19  1  0
 18 20  1  0
 20 21  1  0
 21 22  1  0
 20 23  1  0
 23 24  1  0
 24 25  1  0
 25 26  2  0
 25 27  1  0
 27 28  1  0
 28 29  1  0
 29 20  1  0
 28 24  1  0
 18 30  1  0
 18 31  1  0
 21 32  1  0
 21 33  1  0
 23 34  1  0
 23 35  1  0
 27 36  1  6
 28 37  1  1
 12 27  1  0
M  ISO  6  14  14  15  14  16  14  17   3  19   8  22   8
M  END
>  <DihAtoms>  (1) 
12,11,26,24

>  <DihDeg>  (1) 
0.7115210933217894

$$$$
