
     RDKit          3D

 39 42  0  0  0  0  0  0  0  0999 V2000
   46.0790   34.1564   41.0064 C   0  0  0  0  0  0  0  0  0  0  0  0
   46.6209   34.8304   42.0992 C   0  0  0  0  0  0  0  0  0  0  0  0
   47.9411   35.2762   41.9850 C   0  0  0  0  0  0  0  0  0  0  0  0
   48.6090   35.0264   40.8239 N   0  0  0  0  0  0  0  0  0  0  0  0
   48.0507   34.3744   39.7966 C   0  0  0  0  0  0  0  0  0  0  0  0
   46.7768   33.9379   39.8920 N   0  0  0  0  0  0  0  0  0  0  0  0
   45.8081   35.0422   43.2979 C   0  0  0  0  0  0  0  0  0  0  0  0
   45.0471   36.1849   43.4968 C   0  0  0  0  0  0  0  0  0  0  0  0
   44.4599   35.9662   44.7263 C   0  0  0  0  0  0  0  0  0  0  0  0
   44.8387   34.7708   45.2400 N   0  0  0  0  0  0  0  0  0  0  0  0
   45.6521   34.2357   44.3563 N   0  0  0  0  0  0  0  0  0  0  0  0
   44.7812   33.7101   41.0997 O   0  0  0  0  0  0  0  0  0  0  0  0
   43.6944   34.1917   40.4274 C   0  0  0  0  0  0  0  0  0  0  0  0
   43.2510   35.3856   40.4154 O   0  0  0  0  0  0  0  0  0  0  0  0
   48.3567   35.7908   42.8178 H   0  0  0  0  0  0  0  0  0  0  0  0
   48.5651   34.1669   38.8673 H   0  0  0  0  0  0  0  0  0  0  0  0
   44.9154   37.0680   42.8611 H   0  0  0  0  0  0  0  0  0  0  0  0
   43.7785   36.6481   45.2381 H   0  0  0  0  0  0  0  0  0  0  0  0
   44.5146   34.4006   46.1625 H   0  0  0  0  0  0  0  0  0  0  0  0
   39.6681   29.4667   38.9298 C   0  0  0  0  0  0  0  0  0  0  0  0
   38.6047   29.5735   39.2281 H   0  0  0  0  0  0  0  0  0  0  0  0
   40.2850   30.8141   38.6290 C   0  0  0  0  0  0  0  0  0  0  0  0
   40.1437   31.1186   37.1693 C   0  0  0  0  0  0  0  0  0  0  0  0
   40.9089   31.8114   36.7665 H   0  0  0  0  0  0  0  0  0  0  0  0
   39.6958   31.8822   39.5271 C   0  0  0  0  0  0  0  0  0  0  0  0
   40.6853   32.9401   39.6290 N   0  0  0  0  0  0  0  0  0  0  0  0
   41.3524   34.2192   39.5849 C   0  0  0  0  0  0  0  0  0  0  0  0
   40.8206   35.3813   39.6103 O   0  0  0  0  0  0  0  0  0  0  0  0
   42.6763   33.5523   39.5118 C   0  0  2  0  0  0  0  0  0  0  0  0
   41.9391   32.4085   40.1312 C   0  0  2  0  0  0  0  0  0  0  0  0
   42.0349   30.8515   39.1826 S   0  0  0  0  0  0  0  0  0  0  0  0
   39.6860   28.7977   38.0443 H   0  0  0  0  0  0  0  0  0  0  0  0
   40.1856   28.9458   39.7616 H   0  0  0  0  0  0  0  0  0  0  0  0
   40.2644   30.1437   36.6159 H   0  0  0  0  0  0  0  0  0  0  0  0
   39.1180   31.4589   36.9693 H   0  0  0  0  0  0  0  0  0  0  0  0
   38.8039   32.3046   39.0595 H   0  0  0  0  0  0  0  0  0  0  0  0
   39.4479   31.4483   40.5159 H   0  0  0  0  0  0  0  0  0  0  0  0
   43.0172   33.3669   38.4997 H   0  0  0  0  0  0  0  0  0  0  0  0
   42.0228   32.3016   41.2273 H   0  0  0  0  0  0  0  0  0  0  0  0
  1 12  1  0
  1  2  1  0
  2  7  1  0
  3  2  2  0
  4  3  1  0
  5  6  1  0
  5  4  2  0
  6  1  2  0
  7  8  1  0
  7 11  2  0
  8  9  2  0
  9 10  1  0
 11 10  1  0
 13 14  2  0
 13 12  1  0
  3 15  1  0
  5 16  1  0
  8 17  1  0
  9 18  1  0
 10 19  1  0
 20 21  1  0
 20 22  1  0
 22 23  1  0
 23 24  1  0
 22 25  1  0
 25 26  1  0
 26 27  1  0
 27 28  2  0
 27 29  1  0
 29 30  1  0
 30 31  1  0
 31 22  1  0
 30 26  1  0
 20 32  1  0
 20 33  1  0
 23 34  1  0
 23 35  1  0
 25 36  1  0
 25 37  1  0
 29 38  1  6
 30 39  1  1
 13 29  1  0
M  ISO  7  15  14  16  14  17  14  18  14  19   9  21   8  24   8
M  END
>  <DihAtoms>  (1) 
13,12,28,26

>  <DihDeg>  (1) 
0.0019852218101720624

$$$$
