
     RDKit          3D

 31 33  0  0  0  0  0  0  0  0999 V2000
   44.5144   35.9134   44.6775 C   0  0  0  0  0  0  0  0  0  0  0  0
   45.1588   35.8948   43.4182 C   0  0  0  0  0  0  0  0  0  0  0  0
   46.0793   34.8578   43.2008 C   0  0  0  0  0  0  0  0  0  0  0  0
   46.2966   33.9444   44.1960 N   0  0  0  0  0  0  0  0  0  0  0  0
   45.6533   34.0176   45.3675 C   0  0  0  0  0  0  0  0  0  0  0  0
   44.7589   35.0016   45.6157 N   0  0  0  0  0  0  0  0  0  0  0  0
   45.8704   33.0556   46.4394 C   0  0  0  0  0  0  0  0  0  0  0  0
   45.1763   33.0047   47.4839 O   0  0  0  0  0  0  0  0  0  0  0  0
   43.7870   36.6961   44.9066 H   0  0  0  0  0  0  0  0  0  0  0  0
   44.9204   36.6565   42.7028 H   0  0  0  0  0  0  0  0  0  0  0  0
   46.5837   34.8212   42.2497 H   0  0  0  0  0  0  0  0  0  0  0  0
   44.0548   31.9391   49.6013 C   0  0  0  0  0  0  0  0  0  0  0  0
   44.1925   33.0084   49.9388 H   0  0  0  0  0  0  0  0  0  0  0  0
   45.3790   31.2613   49.6274 C   0  0  0  0  0  0  0  0  0  0  0  0
   45.6948   30.7343   51.0331 C   0  0  0  0  0  0  0  0  0  0  0  0
   46.3017   31.4667   51.6171 H   0  0  0  0  0  0  0  0  0  0  0  0
   45.5192   30.0847   48.7087 C   0  0  0  0  0  0  0  0  0  0  0  0
   46.1509   30.5368   47.5036 N   0  0  0  0  0  0  0  0  0  0  0  0
   46.4041   30.6925   46.1134 C   0  0  0  0  0  0  0  0  0  0  0  0
   46.2609   30.0307   45.0361 O   0  0  0  0  0  0  0  0  0  0  0  0
   46.9457   32.0294   46.4011 C   0  0  2  0  0  0  0  0  0  0  0  0
   47.2629   31.3964   47.7186 C   0  0  1  0  0  0  0  0  0  0  0  0
   46.7674   32.3392   49.1761 S   0  0  0  0  0  0  0  0  0  0  0  0
   43.5572   31.8969   48.6127 H   0  0  0  0  0  0  0  0  0  0  0  0
   43.4157   31.4448   50.3774 H   0  0  0  0  0  0  0  0  0  0  0  0
   44.7656   30.6060   51.6287 H   0  0  0  0  0  0  0  0  0  0  0  0
   46.2455   29.7721   50.9979 H   0  0  0  0  0  0  0  0  0  0  0  0
   46.0606   29.2268   49.1403 H   0  0  0  0  0  0  0  0  0  0  0  0
   44.4847   29.7407   48.5054 H   0  0  0  0  0  0  0  0  0  0  0  0
   47.8494   32.3229   45.8354 H   0  0  0  0  0  0  0  0  0  0  0  0
   48.2630   30.9363   47.7651 H   0  0  0  0  0  0  0  0  0  0  0  0
  1  6  2  0
  2  1  1  0
  3  2  2  0
  3  4  1  0
  4  5  2  0
  5  6  1  0
  5  7  1  0
  7  8  2  0
  1  9  1  0
  2 10  1  0
  3 11  1  0
 12 13  1  0
 12 14  1  0
 14 15  1  0
 15 16  1  0
 14 17  1  0
 17 18  1  0
 18 19  1  0
 19 20  2  0
 19 21  1  0
 21 22  1  0
 22 23  1  0
 23 14  1  0
 22 18  1  0
 12 24  1  0
 12 25  1  0
 15 26  1  0
 15 27  1  0
 17 28  1  0
 17 29  1  0
 21 30  1  6
 22 31  1  1
  7 21  1  0
M  ISO  5   9  14  10  14  11  14  13   8  16   8
M  END
>  <DihAtoms>  (1) 
4,6,20,18

>  <DihDeg>  (1) 
179.9908970221107

$$$$
