REMARK  Name = 
REMARK  8 active torsions:
REMARK  status: ('A' for Active; 'I' for Inactive)
REMARK    1  A    between atoms: C_1  and  C_2
REMARK    2  A    between atoms: C_1  and  O_12
REMARK    3  A    between atoms: C_6  and  C_8
REMARK    4  A    between atoms: O_12  and  C_17
REMARK    5  A    between atoms: C_14  and  C_19
REMARK    6  A    between atoms: C_15  and  C_28
REMARK    7  A    between atoms: C_28  and  C_29
REMARK    8  A    between atoms: C_29  and  C_30
REMARK                            x       y       z     vdW  Elec       q    Type
REMARK                         _______ _______ _______ _____ _____    ______ ____
ROOT
ATOM      1  C   UNL     1      44.914  35.005  45.099  0.00  0.00    +0.000 A 
ATOM      2  C   UNL     1      45.789  34.696  44.039  0.00  0.00    +0.000 A 
ATOM      3  C   UNL     1      46.710  33.640  44.218  0.00  0.00    +0.000 A 
ATOM      4  N   UNL     1      46.681  32.997  45.409  0.00  0.00    +0.000 NA
ATOM      5  C   UNL     1      45.844  33.313  46.392  0.00  0.00    +0.000 A 
ATOM      6  N   UNL     1      44.958  34.313  46.248  0.00  0.00    +0.000 NA
ATOM      7  H   UNL     1      44.195  35.799  45.014  0.00  0.00    +0.000 HD
ENDROOT
BRANCH   2   8
ATOM      8  C   UNL     1      45.700  35.448  42.769  0.00  0.00    +0.000 C 
ATOM      9  F   UNL     1      45.305  36.715  43.154  0.00  0.00    +0.000 F 
ATOM     10  F   UNL     1      44.629  34.892  42.039  0.00  0.00    +0.000 F 
ATOM     11  F   UNL     1      46.833  35.439  42.098  0.00  0.00    +0.000 F 
ENDBRANCH   2   8
BRANCH   5  12
ATOM     12  O   UNL     1      45.822  32.653  47.614  0.00  0.00    +0.000 OA
BRANCH  12  13
ATOM     13  C   UNL     1      45.403  31.329  47.722  0.00  0.00    +0.000 C 
ATOM     14  H   UNL     1      44.848  31.041  46.782  0.00  0.00    +0.000 HD
ATOM     15  H   UNL     1      44.720  31.165  48.593  0.00  0.00    +0.000 HD
BRANCH  13  16
ATOM     16  C   UNL     1      46.588  30.490  47.858  0.00  0.00    +0.000 A 
ATOM     17  C   UNL     1      46.830  29.216  47.371  0.00  0.00    +0.000 A 
ATOM     18  C   UNL     1      48.036  28.646  47.637  0.00  0.00    +0.000 A 
ATOM     19  N   UNL     1      48.976  29.271  48.342  0.00  0.00    +0.000 NA
ATOM     20  C   UNL     1      48.734  30.502  48.810  0.00  0.00    +0.000 A 
ATOM     21  N   UNL     1      47.550  31.129  48.580  0.00  0.00    +0.000 NA
ATOM     22  H   UNL     1      46.000  28.803  46.811  0.00  0.00    +0.000 HD
ATOM     23  H   UNL     1      48.197  27.637  47.239  0.00  0.00    +0.000 HD
BRANCH  20  24
ATOM     24  C   UNL     1      49.850  31.111  49.584  0.00  0.00    +0.000 C 
ATOM     25  F   UNL     1      49.834  32.479  49.489  0.00  0.00    +0.000 F 
ATOM     26  F   UNL     1      51.084  30.641  49.107  0.00  0.00    +0.000 F 
ATOM     27  F   UNL     1      49.790  30.793  50.925  0.00  0.00    +0.000 F 
ENDBRANCH  20  24
ENDBRANCH  13  16
ENDBRANCH  12  13
ENDBRANCH   5  12
BRANCH   3  28
ATOM     28  C   UNL     1      47.755  33.248  43.317  0.00  0.00    +0.000 C 
BRANCH  28  29
ATOM     29  C   UNL     1      48.436  31.990  43.708  0.00  0.00    +0.000 C 
ATOM     30  C   UNL     1      47.609  30.732  43.560  0.00  0.00    +0.000 C 
ATOM     31  N   UNL     1      47.918  30.073  42.335  0.00  0.00    +0.000 N 
ATOM     32  C   UNL     1      47.877  29.441  41.063  0.00  0.00    +0.000 C 
ATOM     33  O   UNL     1      47.057  29.026  40.205  0.00  0.00    +0.000 OA
ATOM     34  C   UNL     1      49.354  29.346  40.918  0.00  0.00    +0.000 C 
ATOM     35  H   UNL     1      49.774  28.329  40.852  0.00  0.00    +0.000 HD
ATOM     36  C   UNL     1      49.373  29.847  42.318  0.00  0.00    +0.000 C 
ATOM     37  S   UNL     1      49.800  31.631  42.472  0.00  0.00    +0.000 S 
BRANCH  29  38
ATOM     38  C   UNL     1      49.066  31.925  45.074  0.00  0.00    +0.000 C 
ATOM     39  H   UNL     1      50.106  32.301  45.091  0.00  0.00    +0.000 HD
ENDBRANCH  29  38
ENDBRANCH  28  29
ENDBRANCH   3  28
TORSDOF 8
