
     RDKit          3D

 39 42  0  0  0  0  0  0  0  0999 V2000
   46.0790   34.1564   41.0064 C   0  0  0  0  0  0  0  0  0  0  0  0
   46.6209   34.8304   42.0992 C   0  0  0  0  0  0  0  0  0  0  0  0
   47.9411   35.2762   41.9850 C   0  0  0  0  0  0  0  0  0  0  0  0
   48.6090   35.0264   40.8239 N   0  0  0  0  0  0  0  0  0  0  0  0
   48.0507   34.3744   39.7966 C   0  0  0  0  0  0  0  0  0  0  0  0
   46.7768   33.9379   39.8920 N   0  0  0  0  0  0  0  0  0  0  0  0
   45.8081   35.0422   43.2979 C   0  0  0  0  0  0  0  0  0  0  0  0
   45.0471   36.1849   43.4968 C   0  0  0  0  0  0  0  0  0  0  0  0
   44.4599   35.9662   44.7263 C   0  0  0  0  0  0  0  0  0  0  0  0
   44.8387   34.7708   45.2400 N   0  0  0  0  0  0  0  0  0  0  0  0
   45.6521   34.2357   44.3563 N   0  0  0  0  0  0  0  0  0  0  0  0
   44.7812   33.7101   41.0997 O   0  0  0  0  0  0  0  0  0  0  0  0
   43.6944   34.1917   40.4274 C   0  0  0  0  0  0  0  0  0  0  0  0
   43.2510   35.3856   40.4154 O   0  0  0  0  0  0  0  0  0  0  0  0
   48.3567   35.7908   42.8178 H   0  0  0  0  0  0  0  0  0  0  0  0
   48.5651   34.1669   38.8673 H   0  0  0  0  0  0  0  0  0  0  0  0
   44.9154   37.0680   42.8611 H   0  0  0  0  0  0  0  0  0  0  0  0
   43.7785   36.6481   45.2381 H   0  0  0  0  0  0  0  0  0  0  0  0
   44.5146   34.4006   46.1625 H   0  0  0  0  0  0  0  0  0  0  0  0
   37.6796   33.2447   38.5026 C   0  0  0  0  0  0  0  0  0  0  0  0
   37.2877   33.8825   37.6834 H   0  0  0  0  0  0  0  0  0  0  0  0
   39.1645   33.0082   38.3426 C   0  0  0  0  0  0  0  0  0  0  0  0
   39.3935   31.7505   37.5622 C   0  0  0  0  0  0  0  0  0  0  0  0
   40.3640   31.2543   37.7614 H   0  0  0  0  0  0  0  0  0  0  0  0
   39.8353   34.2238   37.7367 C   0  0  0  0  0  0  0  0  0  0  0  0
   41.2254   34.1905   38.1552 N   0  0  0  0  0  0  0  0  0  0  0  0
   42.6685   34.1644   38.1598 C   0  0  0  0  0  0  0  0  0  0  0  0
   43.4620   34.5667   37.2420 O   0  0  0  0  0  0  0  0  0  0  0  0
   42.6763   33.5523   39.5118 C   0  0  2  0  0  0  0  0  0  0  0  0
   41.3135   34.1601   39.6037 C   0  0  2  0  0  0  0  0  0  0  0  0
   39.9838   32.9684   39.9849 S   0  0  0  0  0  0  0  0  0  0  0  0
   37.1049   32.2957   38.4716 H   0  0  0  0  0  0  0  0  0  0  0  0
   37.4380   33.7590   39.4555 H   0  0  0  0  0  0  0  0  0  0  0  0
   38.5879   31.0225   37.8663 H   0  0  0  0  0  0  0  0  0  0  0  0
   39.2342   31.9545   36.4942 H   0  0  0  0  0  0  0  0  0  0  0  0
   39.8138   34.1506   36.6474 H   0  0  0  0  0  0  0  0  0  0  0  0
   39.3214   35.1452   38.0747 H   0  0  0  0  0  0  0  0  0  0  0  0
   42.6810   32.4684   39.5010 H   0  0  0  0  0  0  0  0  0  0  0  0
   41.2398   35.1336   40.1203 H   0  0  0  0  0  0  0  0  0  0  0  0
  1 12  1  0
  1  2  1  0
  2  7  1  0
  3  2  2  0
  4  3  1  0
  5  6  1  0
  5  4  2  0
  6  1  2  0
  7  8  1  0
  7 11  2  0
  8  9  2  0
  9 10  1  0
 11 10  1  0
 13 14  2  0
 13 12  1  0
  3 15  1  0
  5 16  1  0
  8 17  1  0
  9 18  1  0
 10 19  1  0
 20 21  1  0
 20 22  1  0
 22 23  1  0
 23 24  1  0
 22 25  1  0
 25 26  1  0
 26 27  1  0
 27 28  2  0
 27 29  1  0
 29 30  1  0
 30 31  1  0
 31 22  1  0
 30 26  1  0
 20 32  1  0
 20 33  1  0
 23 34  1  0
 23 35  1  0
 25 36  1  0
 25 37  1  0
 29 38  1  6
 30 39  1  1
 13 29  1  0
M  ISO  7  15  14  16  14  17  14  18  14  19   9  21   8  24   8
M  END
>  <DihAtoms>  (1) 
13,12,28,26

>  <DihDeg>  (1) 
0.0019852218101720624

$$$$
