REMARK  Name = 
REMARK  7 active torsions:
REMARK  status: ('A' for Active; 'I' for Inactive)
REMARK    1  A    between atoms: C_1  and  C_13
REMARK    2  A    between atoms: C_6  and  N_7
REMARK    3  A    between atoms: C_13  and  C_14
REMARK    4  A    between atoms: C_14  and  C_17
REMARK    5  A    between atoms: C_19  and  C_40
REMARK    6  A    between atoms: C_40  and  C_41
REMARK    7  A    between atoms: C_41  and  C_42
REMARK                            x       y       z     vdW  Elec       q    Type
REMARK                         _______ _______ _______ _____ _____    ______ ____
ROOT
ATOM      1  C   UNL     1      44.368  33.309  41.167  0.00  0.00    +0.000 C 
ATOM      2  H   UNL     1      44.513  32.359  41.754  0.00  0.00    +0.000 HD
ATOM      3  H   UNL     1      43.931  34.020  41.876  0.00  0.00    +0.000 HD
ENDROOT
BRANCH   1   4
ATOM      4  C   UNL     1      45.688  33.688  40.662  0.00  0.00    +0.000 A 
ATOM      5  C   UNL     1      46.172  33.339  39.419  0.00  0.00    +0.000 A 
ATOM      6  C   UNL     1      47.407  33.695  38.938  0.00  0.00    +0.000 A 
ATOM      7  C   UNL     1      48.198  34.466  39.802  0.00  0.00    +0.000 A 
ATOM      8  C   UNL     1      47.761  34.838  41.049  0.00  0.00    +0.000 A 
ATOM      9  C   UNL     1      46.529  34.459  41.480  0.00  0.00    +0.000 A 
ATOM     10  H   UNL     1      45.632  32.741  38.701  0.00  0.00    +0.000 HD
ATOM     11  H   UNL     1      47.812  33.443  37.981  0.00  0.00    +0.000 HD
ATOM     12  H   UNL     1      49.195  34.781  39.472  0.00  0.00    +0.000 HD
ATOM     13  H   UNL     1      48.441  35.436  41.654  0.00  0.00    +0.000 HD
BRANCH   9  14
ATOM     14  N   UNL     1      46.178  34.885  42.778  0.00  0.00    +0.000 N 
ATOM     15  C   UNL     1      45.321  35.997  43.066  0.00  0.00    +0.000 C 
ATOM     16  C   UNL     1      44.753  35.907  44.467  0.00  0.00    +0.000 C 
ATOM     17  N   UNL     1      44.420  34.589  44.891  0.00  0.00    +0.000 NA
ATOM     18  C   UNL     1      45.470  33.644  44.764  0.00  0.00    +0.000 C 
ATOM     19  C   UNL     1      46.637  34.256  44.027  0.00  0.00    +0.000 C 
ATOM     20  H   UNL     1      44.605  36.285  42.294  0.00  0.00    +0.000 HD
ATOM     21  H   UNL     1      46.023  36.883  43.124  0.00  0.00    +0.000 HD
ATOM     22  H   UNL     1      43.803  36.507  44.470  0.00  0.00    +0.000 HD
ATOM     23  H   UNL     1      45.457  36.328  45.236  0.00  0.00    +0.000 HD
ATOM     24  H   UNL     1      44.034  34.656  45.836  0.00  0.00    +0.000 HD
ATOM     25  H   UNL     1      45.810  33.382  45.788  0.00  0.00    +0.000 HD
ATOM     26  H   UNL     1      45.169  32.717  44.200  0.00  0.00    +0.000 HD
ATOM     27  H   UNL     1      47.264  33.398  43.690  0.00  0.00    +0.000 HD
ATOM     28  H   UNL     1      47.187  34.991  44.630  0.00  0.00    +0.000 HD
ENDBRANCH   9  14
ENDBRANCH   1   4
BRANCH   1  29
ATOM     29  C   UNL     1      43.395  33.026  40.043  0.00  0.00    +0.000 C 
ATOM     30  H   UNL     1      42.998  31.971  40.124  0.00  0.00    +0.000 HD
ATOM     31  H   UNL     1      43.772  33.156  39.043  0.00  0.00    +0.000 HD
BRANCH  29  34
ATOM     32  C   UNL     1      40.799  35.699  39.432  0.00  0.00    +0.000 A 
ATOM     33  C   UNL     1      41.946  34.893  39.264  0.00  0.00    +0.000 A 
ATOM     34  C   UNL     1      42.203  33.890  40.202  0.00  0.00    +0.000 A 
ATOM     35  N   UNL     1      41.323  33.737  41.246  0.00  0.00    +0.000 NA
ATOM     36  C   UNL     1      40.244  34.529  41.366  0.00  0.00    +0.000 A 
ATOM     37  N   UNL     1      39.980  35.501  40.470  0.00  0.00    +0.000 NA
ATOM     38  H   UNL     1      40.588  36.476  38.718  0.00  0.00    +0.000 HD
ATOM     39  H   UNL     1      42.592  35.079  38.410  0.00  0.00    +0.000 HD
BRANCH  36  40
ATOM     40  C   UNL     1      39.451  34.165  42.575  0.00  0.00    +0.000 C 
BRANCH  40  41
ATOM     41  C   UNL     1      40.466  33.982  43.709  0.00  0.00    +0.000 C 
ATOM     42  C   UNL     1      41.340  32.838  43.365  0.00  0.00    +0.000 C 
ATOM     43  N   UNL     1      41.108  31.717  44.203  0.00  0.00    +0.000 N 
ATOM     44  C   UNL     1      41.433  30.469  44.794  0.00  0.00    +0.000 C 
ATOM     45  O   UNL     1      42.068  29.419  44.449  0.00  0.00    +0.000 OA
ATOM     46  C   UNL     1      40.684  30.958  46.009  0.00  0.00    +0.000 C 
ATOM     47  H   UNL     1      40.181  30.150  46.566  0.00  0.00    +0.000 HD
ATOM     48  C   UNL     1      39.868  31.647  44.972  0.00  0.00    +0.000 C 
ATOM     49  S   UNL     1      39.635  33.453  45.229  0.00  0.00    +0.000 S 
BRANCH  41  50
ATOM     50  C   UNL     1      41.211  35.281  43.906  0.00  0.00    +0.000 C 
ATOM     51  H   UNL     1      42.238  35.277  43.533  0.00  0.00    +0.000 HD
ENDBRANCH  41  50
ENDBRANCH  40  41
ENDBRANCH  36  40
ENDBRANCH  29  34
ENDBRANCH   1  29
TORSDOF 7
