
 OpenBabel03242519103D

 50 54  0  0  1  0  0  0  0  0999 V2000
   48.5150   31.8730   37.3420 C   0  0  0  0  0  0  0  0  0  0  0  0
   47.9480   32.9110   38.1130 C   0  0  0  0  0  0  0  0  0  0  0  0
   46.7480   33.3740   37.6150 C   0  0  0  0  0  0  0  0  0  0  0  0
   46.1170   32.9170   36.4930 C   0  0  0  0  0  0  0  0  0  0  0  0
   46.7080   31.8990   35.7690 C   0  0  0  0  0  0  0  0  0  0  0  0
   47.9000   31.3960   36.2120 C   0  0  0  0  0  0  0  0  0  0  0  0
   46.2830   34.1710   38.1800 H   0  0  0  0  0  0  0  0  0  0  0  0
   45.1710   33.3170   36.1440 H   0  0  0  0  0  0  0  0  0  0  0  0
   46.2340   31.5150   34.8760 H   0  0  0  0  0  0  0  0  0  0  0  0
   49.3970   30.6820   34.4020 C   0  0  0  0  0  0  0  0  0  0  0  0
   49.6840   31.9000   34.1690 O   0  0  0  0  0  0  0  0  0  0  0  0
   48.4830   30.3450   35.4390 N   0  0  0  0  0  0  0  0  0  0  0  0
   48.2090   29.3780   35.6760 H   0  0  0  0  0  0  0  0  0  0  0  0
   48.7370   30.9370   30.2890 C   0  0  0  0  0  0  0  0  0  0  0  0
   50.0750   30.2590   30.3050 C   0  0  0  0  0  2  0  0  0  0  0  0
   50.4600   29.9960   31.6590 N   0  0  0  0  0  0  0  0  0  0  0  0
   51.1480   29.9260   32.9040 C   0  0  0  0  0  0  0  0  0  0  0  0
   52.3560   30.1510   33.2490 O   0  0  0  0  0  0  0  0  0  0  0  0
   49.9470   29.4930   33.6650 C   0  0  2  0  0  3  0  0  0  0  0  0
   49.3950   29.2280   32.3190 C   0  0  1  0  0  3  0  0  0  0  0  0
   47.9930   30.3040   31.8290 S   0  0  0  0  0  0  0  0  0  0  0  0
   48.7860   32.4280   30.2470 C   0  0  0  0  0  2  0  0  0  0  0  0
   49.7320   32.8810   30.5560 H   0  0  0  0  0  0  0  0  0  0  0  0
   47.9910   30.4030   29.0800 C   0  0  0  0  0  2  0  0  0  0  0  0
   47.7870   29.3180   29.1710 H   0  0  0  0  0  0  0  0  0  0  0  0
   48.5260   33.4430   39.2780 N   0  0  0  0  0  0  0  0  0  0  0  0
   49.4330   33.8860   39.0050 H   0  0  0  0  0  0  0  0  0  0  0  0
   47.4480   34.5710   42.4740 N   0  0  0  0  0  0  0  0  0  0  0  0
   47.3410   34.6890   41.0210 C   0  0  0  0  0  0  0  0  0  0  0  0
   48.1060   33.4650   40.6380 C   0  0  2  0  0  0  0  0  0  0  0  0
   49.3420   33.5560   41.5120 C   0  0  0  0  0  0  0  0  0  0  0  0
   48.8140   34.2250   42.7590 C   0  0  0  0  0  0  0  0  0  0  0  0
   47.8610   35.5880   40.6420 H   0  0  0  0  0  0  0  0  0  0  0  0
   46.2830   34.6250   40.6950 H   0  0  0  0  0  0  0  0  0  0  0  0
   47.4850   32.5850   40.9020 H   0  0  0  0  0  0  0  0  0  0  0  0
   49.7630   32.5560   41.7360 H   0  0  0  0  0  0  0  0  0  0  0  0
   50.0540   34.2440   41.0270 H   0  0  0  0  0  0  0  0  0  0  0  0
   48.8470   33.5170   43.6290 H   0  0  0  0  0  0  0  0  0  0  0  0
   49.3890   35.1180   43.0430 H   0  0  0  0  0  0  0  0  0  0  0  0
   44.5550   35.7980   44.4940 C   0  0  0  0  0  0  0  0  0  0  0  0
   45.4730   35.7110   43.4550 C   0  0  0  0  0  0  0  0  0  0  0  0
   46.4760   34.7380   43.4730 C   0  0  0  0  0  0  0  0  0  0  0  0
   46.4840   33.9130   44.5450 N   0  0  0  0  0  0  0  0  0  0  0  0
   45.6090   33.9810   45.5550 C   0  0  0  0  0  0  0  0  0  0  0  0
   44.6350   34.9400   45.5180 N   0  0  0  0  0  0  0  0  0  0  0  0
   43.8170   36.5800   44.3930 H   0  0  0  0  0  0  0  0  0  0  0  0
   45.5140   36.3450   42.5730 H   0  0  0  0  0  0  0  0  0  0  0  0
   45.6470   33.2960   46.4040 H   0  0  0  0  0  0  0  0  0  0  0  0
   50.7820   30.9000   38.1550 N   0  0  0  0  0  0  0  0  0  0  0  0
   49.7750   31.3370   37.8030 C   0  0  0  0  0  0  0  0  0  0  0  0
  1 50  1  0  0  0  0
  1  2  1  0  0  0  0
  2 26  1  0  0  0  0
  3  2  2  0  0  0  0
  3  7  1  0  0  0  0
  4  3  1  0  0  0  0
  5  6  1  0  0  0  0
  5  4  2  0  0  0  0
  6  1  2  0  0  0  0
  8  4  1  0  0  0  0
  9  5  1  0  0  0  0
 10 12  1  0  0  0  0
 11 10  2  0  0  0  0
 12 13  1  0  0  0  0
 12  6  1  0  0  0  0
 14 15  1  0  0  0  0
 14 21  1  0  0  0  0
 15 16  1  0  0  0  0
 16 20  1  0  0  0  0
 16 17  1  0  0  0  0
 17 18  2  0  0  0  0
 17 19  1  0  0  0  0
 19 10  1  6  0  0  0
 20 21  1  1  0  0  0
 20 19  1  0  0  0  0
 22 14  1  0  0  0  0
 22 23  1  0  0  0  0
 24 25  1  0  0  0  0
 24 14  1  0  0  0  0
 26 30  1  0  0  0  0
 27 26  1  0  0  0  0
 28 32  1  0  0  0  0
 28 42  1  0  0  0  0
 29 28  1  0  0  0  0
 30 35  1  1  0  0  0
 30 29  1  0  0  0  0
 30 31  1  0  0  0  0
 31 36  1  0  0  0  0
 31 32  1  0  0  0  0
 32 39  1  0  0  0  0
 32 38  1  0  0  0  0
 33 29  1  0  0  0  0
 34 29  1  0  0  0  0
 37 31  1  0  0  0  0
 40 45  1  0  0  0  0
 41 42  1  0  0  0  0
 41 40  2  0  0  0  0
 42 43  2  0  0  0  0
 43 44  1  0  0  0  0
 44 48  1  0  0  0  0
 45 44  2  0  0  0  0
 46 40  1  0  0  0  0
 47 41  1  0  0  0  0
 50 49  3  0  0  0  0
M  END
>  <minimizedAffinity>
-5.96745014

>  <minimizedRMSD>
1.22105753

$$$$
