
     RDKit          3D

 47 50  0  0  0  0  0  0  0  0999 V2000
   45.4032   31.3295   47.7223 C   0  0  0  0  0  0  0  0  0  0  0  0
   46.5878   30.4902   47.8582 C   0  0  0  0  0  0  0  0  0  0  0  0
   46.8303   29.2163   47.3715 C   0  0  0  0  0  0  0  0  0  0  0  0
   48.0365   28.6463   47.6372 C   0  0  0  0  0  0  0  0  0  0  0  0
   48.9757   29.2711   48.3424 N   0  0  0  0  0  0  0  0  0  0  0  0
   48.7337   30.5019   48.8098 C   0  0  0  0  0  0  0  0  0  0  0  0
   47.5503   31.1290   48.5803 N   0  0  0  0  0  0  0  0  0  0  0  0
   49.8503   31.1115   49.5838 C   0  0  0  0  0  0  0  0  0  0  0  0
   49.8337   32.4789   49.4892 F   0  0  0  0  0  0  0  0  0  0  0  0
   51.0843   30.6412   49.1072 F   0  0  0  0  0  0  0  0  0  0  0  0
   49.7904   30.7927   50.9246 F   0  0  0  0  0  0  0  0  0  0  0  0
   45.8225   32.6531   47.6143 O   0  0  0  0  0  0  0  0  0  0  0  0
   44.9141   35.0045   45.0994 C   0  0  0  0  0  0  0  0  0  0  0  0
   45.7886   34.6962   44.0387 C   0  0  0  0  0  0  0  0  0  0  0  0
   46.7104   33.6404   44.2183 C   0  0  0  0  0  0  0  0  0  0  0  0
   46.6809   32.9974   45.4093 N   0  0  0  0  0  0  0  0  0  0  0  0
   45.8442   33.3128   46.3924 C   0  0  0  0  0  0  0  0  0  0  0  0
   44.9580   34.3134   46.2475 N   0  0  0  0  0  0  0  0  0  0  0  0
   45.7002   35.4478   42.7687 C   0  0  0  0  0  0  0  0  0  0  0  0
   45.3053   36.7149   43.1536 F   0  0  0  0  0  0  0  0  0  0  0  0
   44.6286   34.8925   42.0395 F   0  0  0  0  0  0  0  0  0  0  0  0
   46.8334   35.4386   42.0979 F   0  0  0  0  0  0  0  0  0  0  0  0
   44.8478   31.0413   46.7817 H   0  0  0  0  0  0  0  0  0  0  0  0
   44.7200   31.1651   48.5932 H   0  0  0  0  0  0  0  0  0  0  0  0
   46.0004   28.8027   46.8111 H   0  0  0  0  0  0  0  0  0  0  0  0
   48.1965   27.6375   47.2393 H   0  0  0  0  0  0  0  0  0  0  0  0
   44.1950   35.7991   45.0142 H   0  0  0  0  0  0  0  0  0  0  0  0
   47.7554   33.2482   43.3167 C   0  0  0  0  0  0  0  0  0  0  0  0
   48.4364   31.9899   43.7081 C   0  0  1  0  0  0  0  0  0  0  0  0
   49.0656   31.9252   45.0739 C   0  0  0  0  0  0  0  0  0  0  0  0
   50.1059   32.3011   45.0912 H   0  0  0  0  0  0  0  0  0  0  0  0
   47.6089   30.7322   43.5604 C   0  0  0  0  0  0  0  0  0  0  0  0
   47.9177   30.0726   42.3351 N   0  0  0  0  0  0  0  0  0  0  0  0
   47.8774   29.4406   41.0632 C   0  0  0  0  0  0  0  0  0  0  0  0
   47.0571   29.0257   40.2050 O   0  0  0  0  0  0  0  0  0  0  0  0
   49.3539   29.3460   40.9181 C   0  0  1  0  0  0  0  0  0  0  0  0
   49.7736   28.3291   40.8515 H   0  0  0  0  0  0  0  0  0  0  0  0
   49.3731   29.8472   42.3183 C   0  0  1  0  0  0  0  0  0  0  0  0
   49.7998   31.6309   42.4718 S   0  0  0  0  0  0  0  0  0  0  0  0
   48.4244   34.0491   42.9474 H   0  0  0  0  0  0  0  0  0  0  0  0
   47.2607   32.9838   42.3229 H   0  0  0  0  0  0  0  0  0  0  0  0
   48.4685   32.4058   45.8509 H   0  0  0  0  0  0  0  0  0  0  0  0
   49.1766   30.8383   45.3320 H   0  0  0  0  0  0  0  0  0  0  0  0
   47.7942   29.9942   44.3900 H   0  0  0  0  0  0  0  0  0  0  0  0
   46.5182   30.9750   43.5297 H   0  0  0  0  0  0  0  0  0  0  0  0
   49.7902   30.0208   40.1497 H   0  0  0  0  0  0  0  0  0  0  0  0
   49.7703   29.2278   43.1160 H   0  0  0  0  0  0  0  0  0  0  0  0
  1  2  1  0
  2  7  2  0
  3  4  2  0
  3  2  1  0
  4  5  1  0
  5  6  2  0
  6  8  1  0
  7  6  1  0
  8 11  1  0
  9  8  1  0
 10  8  1  0
 12  1  1  0
 13 18  2  0
 14 15  2  0
 14 13  1  0
 15 16  1  0
 16 17  2  0
 17 12  1  0
 18 17  1  0
 19 20  1  0
 19 14  1  0
 21 19  1  0
 22 19  1  0
  1 23  1  0
  1 24  1  0
  3 25  1  0
  4 26  1  0
 13 27  1  0
 29 28  1  6
 29 30  1  0
 30 31  1  0
 29 32  1  0
 32 33  1  0
 33 34  1  0
 34 35  2  0
 34 36  1  0
 36 37  1  1
 36 38  1  0
 38 39  1  0
 39 29  1  0
 38 33  1  0
 28 40  1  0
 28 41  1  0
 30 42  1  0
 30 43  1  0
 32 44  1  0
 32 45  1  0
 36 46  1  0
 38 47  1  1
 15 28  1  0
M  ISO  7  23   8  24   8  25  14  26  14  27  14  31   8  37  15
M  END
>  <DihAtoms>  (1) 
13,14,27,28

>  <DihDeg>  (1) 
97.69516448224746

$$$$
