
 OpenBabel03242514333D

 29 32  0  0  1  0  0  0  0  0999 V2000
   48.3860   34.9860   40.4500 O   0  0  0  0  0  0  0  0  0  0  0  0
   49.4800   35.5430   42.7060 O   0  0  0  0  0  0  0  0  0  0  0  0
   48.9800   34.3910   41.8930 P   0  0  2  0  0  0  0  0  0  0  0  0
   50.2940   33.3900   41.5840 O   0  0  0  0  0  0  0  0  0  0  0  0
   50.4740   33.2490   40.6350 H   0  0  0  0  0  0  0  0  0  0  0  0
   47.7530   33.5420   42.7360 O   0  0  0  0  0  0  0  0  0  0  0  0
   46.1430   35.3130   42.6830 C   0  0  0  0  0  0  0  0  0  0  0  0
   46.7060   34.2330   43.3610 C   0  0  0  0  0  0  0  0  0  0  0  0
   46.2050   33.8910   44.6180 C   0  0  0  0  0  0  0  0  0  0  0  0
   45.1810   34.6430   45.1190 N   0  0  0  0  0  0  0  0  0  0  0  0
   44.6640   35.6720   44.4460 C   0  0  0  0  0  0  0  0  0  0  0  0
   45.1400   36.0020   43.2430 N   0  0  0  0  0  0  0  0  0  0  0  0
   46.4570   35.6590   41.7050 H   0  0  0  0  0  0  0  0  0  0  0  0
   46.6500   33.0510   45.1360 H   0  0  0  0  0  0  0  0  0  0  0  0
   43.8490   36.2750   44.8400 H   0  0  0  0  0  0  0  0  0  0  0  0
   48.0270   34.2310   39.3800 C   0  0  1  0  0  3  0  0  0  0  0  0
   46.8480   33.7350   39.5280 O   0  0  0  0  0  0  0  0  0  0  0  0
   45.9000   31.7380   35.5840 C   0  0  0  0  0  0  0  0  0  0  0  0
   46.7130   30.8300   36.4420 C   0  0  0  0  0  2  0  0  0  0  0  0
   47.4860   31.6420   37.3470 N   0  0  0  0  0  0  0  0  0  0  0  0
   48.6080   32.1920   38.0630 C   0  0  0  0  0  0  0  0  0  0  0  0
   49.7060   31.6230   38.3870 O   0  0  0  0  0  0  0  0  0  0  0  0
   47.8330   33.4590   38.1280 C   0  0  2  0  0  0  0  0  0  0  0  0
   46.6550   32.5490   38.0730 C   0  0  1  0  0  3  0  0  0  0  0  0
   45.4400   33.0410   36.7900 S   0  0  0  0  0  0  0  0  0  0  0  0
   46.5860   32.2830   34.3800 C   0  0  0  0  0  2  0  0  0  0  0  0
   47.6000   32.6640   34.5270 H   0  0  0  0  0  0  0  0  0  0  0  0
   44.6670   30.9800   35.1470 C   0  0  0  0  0  2  0  0  0  0  0  0
   44.0080   30.9290   36.0540 H   0  0  0  0  0  0  0  0  0  0  0  0
  1  3  1  0  0  0  0
  3  2  2  1  0  0  0
  3  6  1  0  0  0  0
  4  3  1  0  0  0  0
  5  4  1  0  0  0  0
  6  8  1  0  0  0  0
  7 12  2  0  0  0  0
  7  8  1  0  0  0  0
  8  9  2  0  0  0  0
  9 10  1  0  0  0  0
  9 14  1  0  0  0  0
 11 15  1  0  0  0  0
 11 10  2  0  0  0  0
 12 11  1  0  0  0  0
 13  7  1  0  0  0  0
 16 17  1  0  0  0  0
 16  1  1  6  0  0  0
 18 19  1  0  0  0  0
 18 25  1  0  0  0  0
 19 20  1  0  0  0  0
 20 21  1  0  0  0  0
 20 24  1  0  0  0  0
 21 22  2  0  0  0  0
 23 21  1  1  0  0  0
 23 16  1  0  0  0  0
 23 17  1  0  0  0  0
 24 25  1  6  0  0  0
 24 23  1  0  0  0  0
 26 27  1  0  0  0  0
 26 18  1  0  0  0  0
 28 18  1  0  0  0  0
 28 29  1  0  0  0  0
M  END
>  <minimizedAffinity>
-4.86727524

>  <minimizedRMSD>
0.35122779

$$$$
