REMARK  Name = 
REMARK  4 active torsions:
REMARK  status: ('A' for Active; 'I' for Inactive)
REMARK    1  A    between atoms: C_1  and  C_7
REMARK    2  A    between atoms: C_7  and  C_21
REMARK    3  A    between atoms: C_12  and  C_14
REMARK    4  A    between atoms: C_14  and  C_15
REMARK                            x       y       z     vdW  Elec       q    Type
REMARK                         _______ _______ _______ _____ _____    ______ ____
ROOT
ATOM      1  C   UNL     1      47.487  30.878  42.842  0.00  0.00    +0.000 C 
ATOM      2  C   UNL     1      48.108  31.211  41.561  0.00  0.00    +0.000 C 
ATOM      3  N   UNL     1      47.478  32.272  40.910  0.00  0.00    +0.000 N 
ATOM      4  C   UNL     1      47.322  33.341  40.035  0.00  0.00    +0.000 C 
ATOM      5  O   UNL     1      47.745  33.796  38.940  0.00  0.00    +0.000 OA
ATOM      6  C   UNL     1      46.301  33.940  40.926  0.00  0.00    +0.000 C 
ATOM      7  C   UNL     1      46.120  32.507  41.322  0.00  0.00    +0.000 C 
ATOM      8  S   UNL     1      46.298  32.219  43.128  0.00  0.00    +0.000 S 
ENDROOT
BRANCH   6   9
ATOM      9  C   UNL     1      46.960  34.792  41.962  0.00  0.00    +0.000 C 
ATOM     10  O   UNL     1      48.057  35.395  41.741  0.00  0.00    +0.000 OA
BRANCH   9  11
ATOM     11  C   UNL     1      46.219  34.834  43.186  0.00  0.00    +0.000 A 
ATOM     12  C   UNL     1      45.318  35.910  43.280  0.00  0.00    +0.000 A 
ATOM     13  C   UNL     1      44.559  36.010  44.457  0.00  0.00    +0.000 A 
ATOM     14  N   UNL     1      44.744  35.066  45.418  0.00  0.00    +0.000 NA
ATOM     15  C   UNL     1      45.618  34.053  45.284  0.00  0.00    +0.000 A 
ATOM     16  N   UNL     1      46.352  33.943  44.166  0.00  0.00    +0.000 NA
ATOM     17  H   UNL     1      45.144  36.668  42.553  0.00  0.00    +0.000 HD
ATOM     18  H   UNL     1      43.848  36.786  44.631  0.00  0.00    +0.000 HD
ATOM     19  H   UNL     1      45.692  33.351  46.108  0.00  0.00    +0.000 HD
ENDBRANCH   9  11
ENDBRANCH   6   9
BRANCH   1  20
ATOM     20  C   UNL     1      46.626  29.620  42.662  0.00  0.00    +0.000 C 
ATOM     21  H   UNL     1      46.128  29.657  41.675  0.00  0.00    +0.000 HD
ENDBRANCH   1  20
BRANCH   1  22
ATOM     22  C   UNL     1      48.447  30.698  43.991  0.00  0.00    +0.000 C 
ATOM     23  H   UNL     1      48.176  29.760  44.514  0.00  0.00    +0.000 HD
ENDBRANCH   1  22
TORSDOF 4
