
 OpenBabel03242510143D

 45 49  0  0  1  0  0  0  0  0999 V2000
   37.6340   30.3320   38.1300 N   0  0  0  0  0  0  0  0  0  0  0  0
   37.0640   30.1780   36.8190 C   0  0  0  0  0  0  0  0  0  0  0  0
   35.9170   29.1850   36.8330 C   0  0  0  0  0  0  0  0  0  0  0  0
   36.3690   27.8620   37.1600 N   0  0  0  0  0  0  0  0  0  0  0  0
   37.6780   27.9710   37.8480 C   0  0  0  0  0  0  0  0  0  0  0  0
   37.5880   29.0440   38.8980 C   0  0  1  0  0  0  0  0  0  0  0  0
   37.7920   29.9760   36.0380 H   0  0  0  0  0  0  0  0  0  0  0  0
   36.5820   31.1600   36.5480 H   0  0  0  0  0  0  0  0  0  0  0  0
   35.5450   29.1560   35.7750 H   0  0  0  0  0  0  0  0  0  0  0  0
   35.1160   29.5750   37.4710 H   0  0  0  0  0  0  0  0  0  0  0  0
   35.7250   27.4600   37.8800 H   0  0  0  0  0  0  0  0  0  0  0  0
   38.4300   28.3460   37.0880 H   0  0  0  0  0  0  0  0  0  0  0  0
   37.8940   26.9760   38.1870 H   0  0  0  0  0  0  0  0  0  0  0  0
   36.5610   29.0690   39.3400 H   0  0  0  0  0  0  0  0  0  0  0  0
   40.7030   30.7590   37.6270 Br  0  0  0  0  0  0  0  0  0  0  0  0
   39.5180   31.8700   38.6150 C   0  0  0  0  0  0  0  0  0  0  0  0
   39.9820   33.0140   39.2090 C   0  0  0  0  0  0  0  0  0  0  0  0
   39.1250   33.8430   39.9440 C   0  0  0  0  0  0  0  0  0  0  0  0
   37.8140   33.4820   40.0520 C   0  0  0  0  0  0  0  0  0  0  0  0
   37.3850   32.3220   39.4390 C   0  0  0  0  0  0  0  0  0  0  0  0
   38.1910   31.5100   38.7260 C   0  0  0  0  0  0  0  0  0  0  0  0
   39.5670   34.7140   40.3740 H   0  0  0  0  0  0  0  0  0  0  0  0
   37.1820   34.1440   40.6260 H   0  0  0  0  0  0  0  0  0  0  0  0
   36.3140   32.1550   39.6140 H   0  0  0  0  0  0  0  0  0  0  0  0
   43.5510   33.3430   39.9050 C   0  0  0  0  0  0  0  0  0  0  0  0
   44.0590   34.0310   38.7910 C   0  0  0  0  0  0  0  0  0  0  0  0
   43.1410   34.3680   37.8110 C   0  0  0  0  0  0  0  0  0  0  0  0
   41.8470   34.0280   37.9770 N   0  0  0  0  0  0  0  0  0  0  0  0
   41.3880   33.3600   39.0730 C   0  0  0  0  0  0  0  0  0  0  0  0
   42.2670   33.0300   40.0250 N   0  0  0  0  0  0  0  0  0  0  0  0
   44.2870   33.0810   40.6750 H   0  0  0  0  0  0  0  0  0  0  0  0
   45.0900   34.3120   38.6380 H   0  0  0  0  0  0  0  0  0  0  0  0
   43.4380   34.9060   36.9010 H   0  0  0  0  0  0  0  0  0  0  0  0
   38.5760   29.0480   39.9700 C   0  0  0  0  0  2  0  0  0  0  0  0
   38.3130   28.6160   41.3390 C   0  0  2  0  0  0  0  0  0  0  0  0
   39.2020   27.6950   42.0610 C   0  0  0  0  0  2  0  0  0  0  0  0
   38.6310   26.3690   42.1070 N   0  0  0  0  0  0  0  0  0  0  0  0
   38.3830   24.9700   42.0200 C   0  0  0  0  0  0  0  0  0  0  0  0
   39.1360   23.9470   41.8820 O   0  0  0  0  0  0  0  0  0  0  0  0
   36.9070   25.1010   42.1460 C   0  0  0  0  0  3  0  0  0  0  0  0
   36.4800   24.4910   42.9800 H   0  0  0  0  0  0  0  0  0  0  0  0
   37.2660   26.4780   42.6430 C   0  0  2  0  0  3  0  0  0  0  0  0
   36.6700   27.8210   41.5390 S   0  0  0  0  0  0  0  0  0  0  0  0
   38.2520   29.8940   42.2510 C   0  0  0  0  0  2  0  0  0  0  0  0
   37.3440   30.4750   42.0130 H   0  0  0  0  0  0  0  0  0  0  0  0
  1 21  1  0  0  0  0
  1  6  1  0  0  0  0
  2  3  1  0  0  0  0
  2  1  1  0  0  0  0
  3  4  1  0  0  0  0
  3 10  1  0  0  0  0
  4  5  1  0  0  0  0
  4 11  1  0  0  0  0
  5 13  1  0  0  0  0
  5  6  1  0  0  0  0
  6 14  1  1  0  0  0
  6 34  1  0  0  0  0
  7  2  1  0  0  0  0
  8  2  1  0  0  0  0
  9  3  1  0  0  0  0
 12  5  1  0  0  0  0
 15 16  1  0  0  0  0
 16 21  2  0  0  0  0
 16 17  1  0  0  0  0
 17 18  2  0  0  0  0
 18 19  1  0  0  0  0
 18 22  1  0  0  0  0
 19 23  1  0  0  0  0
 20 24  1  0  0  0  0
 20 19  2  0  0  0  0
 21 20  1  0  0  0  0
 25 30  1  0  0  0  0
 25 31  1  0  0  0  0
 26 25  2  0  0  0  0
 27 28  2  0  0  0  0
 27 26  1  0  0  0  0
 28 29  1  0  0  0  0
 29 17  1  0  0  0  0
 29 30  2  0  0  0  0
 32 26  1  0  0  0  0
 33 27  1  0  0  0  0
 35 34  1  6  0  0  0
 35 43  1  0  0  0  0
 35 36  1  0  0  0  0
 35 44  1  0  0  0  0
 36 37  1  0  0  0  0
 37 42  1  0  0  0  0
 38 37  1  0  0  0  0
 38 40  1  0  0  0  0
 39 38  2  0  0  0  0
 40 42  1  0  0  0  0
 40 41  1  0  0  0  0
 42 43  1  6  0  0  0
 45 44  1  0  0  0  0
M  END
>  <minimizedAffinity>
-6.14447355

$$$$

 OpenBabel03242510143D

 45 49  0  0  1  0  0  0  0  0999 V2000
   36.6850   28.2690   37.4460 N   0  0  0  0  0  0  0  0  0  0  0  0
   36.0780   28.4310   36.1520 C   0  0  0  0  0  0  0  0  0  0  0  0
   35.7720   27.0870   35.5180 C   0  0  0  0  0  0  0  0  0  0  0  0
   36.9730   26.3520   35.2360 N   0  0  0  0  0  0  0  0  0  0  0  0
   38.0650   26.8960   36.0790 C   0  0  0  0  0  0  0  0  0  0  0  0
   37.5610   27.0520   37.4870 C   0  0  1  0  0  0  0  0  0  0  0  0
   36.6180   29.1020   35.4880 H   0  0  0  0  0  0  0  0  0  0  0  0
   35.0670   28.9010   36.3150 H   0  0  0  0  0  0  0  0  0  0  0  0
   35.2950   27.3320   34.5330 H   0  0  0  0  0  0  0  0  0  0  0  0
   35.0380   26.5600   36.1380 H   0  0  0  0  0  0  0  0  0  0  0  0
   36.8460   25.3690   35.5700 H   0  0  0  0  0  0  0  0  0  0  0  0
   38.2850   27.9450   35.7130 H   0  0  0  0  0  0  0  0  0  0  0  0
   38.8890   26.2250   35.9290 H   0  0  0  0  0  0  0  0  0  0  0  0
   36.8280   26.2420   37.7290 H   0  0  0  0  0  0  0  0  0  0  0  0
   38.5010   30.8290   37.5050 Br  0  0  0  0  0  0  0  0  0  0  0  0
   37.2470   30.2600   38.8150 C   0  0  0  0  0  0  0  0  0  0  0  0
   37.0520   31.0020   39.9500 C   0  0  0  0  0  0  0  0  0  0  0  0
   36.1340   30.5960   40.9280 C   0  0  0  0  0  0  0  0  0  0  0  0
   35.4370   29.4430   40.7190 C   0  0  0  0  0  0  0  0  0  0  0  0
   35.6610   28.7230   39.5620 C   0  0  0  0  0  0  0  0  0  0  0  0
   36.5380   29.0940   38.6080 C   0  0  0  0  0  0  0  0  0  0  0  0
   36.0440   31.2310   41.7810 H   0  0  0  0  0  0  0  0  0  0  0  0
   34.7380   29.1600   41.4930 H   0  0  0  0  0  0  0  0  0  0  0  0
   35.0380   27.8190   39.5320 H   0  0  0  0  0  0  0  0  0  0  0  0
   38.0280   34.5190   39.8940 C   0  0  0  0  0  0  0  0  0  0  0  0
   39.2960   34.5360   40.4970 C   0  0  0  0  0  0  0  0  0  0  0  0
   39.7890   33.3120   40.9160 C   0  0  0  0  0  0  0  0  0  0  0  0
   39.0470   32.2040   40.7260 N   0  0  0  0  0  0  0  0  0  0  0  0
   37.8180   32.2230   40.1350 C   0  0  0  0  0  0  0  0  0  0  0  0
   37.3330   33.4000   39.7270 N   0  0  0  0  0  0  0  0  0  0  0  0
   37.6460   35.4930   39.5660 H   0  0  0  0  0  0  0  0  0  0  0  0
   39.9070   35.4120   40.6590 H   0  0  0  0  0  0  0  0  0  0  0  0
   40.7710   33.2200   41.3990 H   0  0  0  0  0  0  0  0  0  0  0  0
   38.5380   27.1560   38.5640 C   0  0  0  0  0  2  0  0  0  0  0  0
   38.6930   26.1790   39.6370 C   0  0  2  0  0  0  0  0  0  0  0  0
   37.5620   25.7160   40.4530 C   0  0  0  0  0  2  0  0  0  0  0  0
   37.5820   26.3420   41.7540 N   0  0  0  0  0  0  0  0  0  0  0  0
   37.2690   27.0440   42.9530 C   0  0  0  0  0  0  0  0  0  0  0  0
   36.1760   27.4130   43.4990 O   0  0  0  0  0  0  0  0  0  0  0  0
   38.6880   27.2100   43.3690 C   0  0  0  0  0  3  0  0  0  0  0  0
   38.8950   26.8160   44.3940 H   0  0  0  0  0  0  0  0  0  0  0  0
   38.9140   26.1300   42.3430 C   0  0  2  0  0  3  0  0  0  0  0  0
   39.9150   26.6950   40.9080 S   0  0  0  0  0  0  0  0  0  0  0  0
   39.2920   24.8650   39.0180 C   0  0  0  0  0  2  0  0  0  0  0  0
   40.3380   25.0430   38.7140 H   0  0  0  0  0  0  0  0  0  0  0  0
  1  6  1  0  0  0  0
  1 21  1  0  0  0  0
  2  8  1  0  0  0  0
  2  1  1  0  0  0  0
  3 10  1  0  0  0  0
  3  2  1  0  0  0  0
  4  3  1  0  0  0  0
  4 11  1  0  0  0  0
  4  5  1  0  0  0  0
  5  6  1  0  0  0  0
  6 14  1  1  0  0  0
  6 34  1  0  0  0  0
  7  2  1  0  0  0  0
  9  3  1  0  0  0  0
 12  5  1  0  0  0  0
 13  5  1  0  0  0  0
 15 16  1  0  0  0  0
 16 17  1  0  0  0  0
 17 29  1  0  0  0  0
 17 18  2  0  0  0  0
 18 22  1  0  0  0  0
 19 18  1  0  0  0  0
 19 23  1  0  0  0  0
 20 19  2  0  0  0  0
 21 16  2  0  0  0  0
 21 20  1  0  0  0  0
 24 20  1  0  0  0  0
 25 26  1  0  0  0  0
 26 32  1  0  0  0  0
 26 27  2  0  0  0  0
 27 33  1  0  0  0  0
 28 27  1  0  0  0  0
 29 28  2  0  0  0  0
 30 25  2  0  0  0  0
 30 29  1  0  0  0  0
 31 25  1  0  0  0  0
 35 34  1  6  0  0  0
 35 36  1  0  0  0  0
 35 43  1  0  0  0  0
 36 37  1  0  0  0  0
 37 42  1  0  0  0  0
 37 38  1  0  0  0  0
 38 40  1  0  0  0  0
 38 39  2  0  0  0  0
 40 41  1  0  0  0  0
 42 43  1  6  0  0  0
 42 40  1  0  0  0  0
 44 35  1  0  0  0  0
 45 44  1  0  0  0  0
M  END
>  <minimizedAffinity>
-6.01952362

$$$$

 OpenBabel03242510143D

 45 49  0  0  1  0  0  0  0  0999 V2000
   37.6380   30.4990   41.0280 N   0  0  0  0  0  0  0  0  0  0  0  0
   36.6000   31.1430   40.2700 C   0  0  0  0  0  0  0  0  0  0  0  0
   37.1710   31.8860   39.0770 C   0  0  0  0  0  0  0  0  0  0  0  0
   38.0120   32.9750   39.4880 N   0  0  0  0  0  0  0  0  0  0  0  0
   38.4460   32.7310   40.8850 C   0  0  0  0  0  0  0  0  0  0  0  0
   38.9040   31.3040   41.0100 C   0  0  1  0  0  0  0  0  0  0  0  0
   35.9260   31.7520   40.8680 H   0  0  0  0  0  0  0  0  0  0  0  0
   35.9640   30.3300   39.8170 H   0  0  0  0  0  0  0  0  0  0  0  0
   36.2820   32.3310   38.5590 H   0  0  0  0  0  0  0  0  0  0  0  0
   37.6410   31.1640   38.4000 H   0  0  0  0  0  0  0  0  0  0  0  0
   38.8950   32.9410   38.9280 H   0  0  0  0  0  0  0  0  0  0  0  0
   37.5290   32.8200   41.5440 H   0  0  0  0  0  0  0  0  0  0  0  0
   39.1730   33.4950   41.0840 H   0  0  0  0  0  0  0  0  0  0  0  0
   39.3860   30.9660   40.0600 H   0  0  0  0  0  0  0  0  0  0  0  0
   38.0310   27.9360   39.2580 Br  0  0  0  0  0  0  0  0  0  0  0  0
   37.7360   28.0230   41.1330 C   0  0  0  0  0  0  0  0  0  0  0  0
   37.6750   26.8710   41.8740 C   0  0  0  0  0  0  0  0  0  0  0  0
   37.4540   26.9160   43.2570 C   0  0  0  0  0  0  0  0  0  0  0  0
   37.3030   28.1350   43.8480 C   0  0  0  0  0  0  0  0  0  0  0  0
   37.3720   29.2720   43.0670 C   0  0  0  0  0  0  0  0  0  0  0  0
   37.5830   29.2540   41.7360 C   0  0  0  0  0  0  0  0  0  0  0  0
   37.4210   25.9740   43.7580 H   0  0  0  0  0  0  0  0  0  0  0  0
   37.1350   28.1320   44.9150 H   0  0  0  0  0  0  0  0  0  0  0  0
   37.2270   30.1770   43.6730 H   0  0  0  0  0  0  0  0  0  0  0  0
   39.2110   23.9280   40.3560 C   0  0  0  0  0  0  0  0  0  0  0  0
   38.1230   23.1520   39.9270 C   0  0  0  0  0  0  0  0  0  0  0  0
   36.8650   23.6730   40.1770 C   0  0  0  0  0  0  0  0  0  0  0  0
   36.7580   24.8630   40.8010 N   0  0  0  0  0  0  0  0  0  0  0  0
   37.8370   25.5920   41.2040 C   0  0  0  0  0  0  0  0  0  0  0  0
   39.0570   25.0970   40.9670 N   0  0  0  0  0  0  0  0  0  0  0  0
   40.2030   23.5070   40.1530 H   0  0  0  0  0  0  0  0  0  0  0  0
   38.1860   22.1970   39.4260 H   0  0  0  0  0  0  0  0  0  0  0  0
   35.9500   23.1430   39.8810 H   0  0  0  0  0  0  0  0  0  0  0  0
   39.7570   30.9480   42.1380 C   0  0  0  0  0  2  0  0  0  0  0  0
   41.1810   30.6480   42.0350 C   0  0  2  0  0  0  0  0  0  0  0  0
   42.1710   31.1800   42.9830 C   0  0  0  0  0  2  0  0  0  0  0  0
   42.9090   32.2700   42.3900 N   0  0  0  0  0  0  0  0  0  0  0  0
   43.5360   33.5150   42.0990 C   0  0  0  0  0  0  0  0  0  0  0  0
   43.8400   34.5360   42.8040 O   0  0  0  0  0  0  0  0  0  0  0  0
   43.7230   33.2200   40.6530 C   0  0  0  0  0  3  0  0  0  0  0  0
   44.7850   33.3200   40.3180 H   0  0  0  0  0  0  0  0  0  0  0  0
   43.4530   31.8080   41.1040 C   0  0  2  0  0  3  0  0  0  0  0  0
   41.8990   31.1150   40.4090 S   0  0  0  0  0  0  0  0  0  0  0  0
   41.3600   29.0890   42.1170 C   0  0  0  0  0  2  0  0  0  0  0  0
   40.9590   28.6220   41.2010 H   0  0  0  0  0  0  0  0  0  0  0  0
  1 21  1  0  0  0  0
  2  7  1  0  0  0  0
  2  1  1  0  0  0  0
  3  4  1  0  0  0  0
  3  2  1  0  0  0  0
  4  5  1  0  0  0  0
  5  6  1  0  0  0  0
  5 13  1  0  0  0  0
  5 12  1  0  0  0  0
  6 14  1  6  0  0  0
  6  1  1  0  0  0  0
  6 34  1  0  0  0  0
  8  2  1  0  0  0  0
  9  3  1  0  0  0  0
 10  3  1  0  0  0  0
 11  4  1  0  0  0  0
 15 16  1  0  0  0  0
 16 21  2  0  0  0  0
 16 17  1  0  0  0  0
 17 18  2  0  0  0  0
 18 22  1  0  0  0  0
 18 19  1  0  0  0  0
 19 23  1  0  0  0  0
 20 24  1  0  0  0  0
 20 19  2  0  0  0  0
 21 20  1  0  0  0  0
 25 30  1  0  0  0  0
 26 27  1  0  0  0  0
 26 25  2  0  0  0  0
 27 28  2  0  0  0  0
 28 29  1  0  0  0  0
 29 17  1  0  0  0  0
 30 29  2  0  0  0  0
 31 25  1  0  0  0  0
 32 26  1  0  0  0  0
 33 27  1  0  0  0  0
 35 44  1  1  0  0  0
 35 34  1  0  0  0  0
 35 36  1  0  0  0  0
 37 36  1  0  0  0  0
 38 37  1  0  0  0  0
 38 39  2  0  0  0  0
 40 42  1  0  0  0  0
 40 38  1  0  0  0  0
 41 40  1  0  0  0  0
 42 43  1  6  0  0  0
 42 37  1  0  0  0  0
 43 35  1  0  0  0  0
 45 44  1  0  0  0  0
M  END
>  <minimizedAffinity>
-5.99460602

$$$$

 OpenBabel03242510143D

 45 49  0  0  1  0  0  0  0  0999 V2000
   38.8480   30.8270   39.2310 N   0  0  0  0  0  0  0  0  0  0  0  0
   37.7840   31.6250   38.6840 C   0  0  0  0  0  0  0  0  0  0  0  0
   37.7950   31.5860   37.1670 C   0  0  0  0  0  0  0  0  0  0  0  0
   38.9800   32.1940   36.6320 N   0  0  0  0  0  0  0  0  0  0  0  0
   40.0160   32.2150   37.6940 C   0  0  0  0  0  0  0  0  0  0  0  0
   40.0640   30.8650   38.3530 C   0  0  1  0  0  0  0  0  0  0  0  0
   37.7350   32.6350   39.0830 H   0  0  0  0  0  0  0  0  0  0  0  0
   36.8140   31.1290   38.9710 H   0  0  0  0  0  0  0  0  0  0  0  0
   36.9250   32.2220   36.8540 H   0  0  0  0  0  0  0  0  0  0  0  0
   37.6080   30.5580   36.8360 H   0  0  0  0  0  0  0  0  0  0  0  0
   39.3720   31.5640   35.8940 H   0  0  0  0  0  0  0  0  0  0  0  0
   39.6650   32.9370   38.4940 H   0  0  0  0  0  0  0  0  0  0  0  0
   40.9090   32.5480   37.1990 H   0  0  0  0  0  0  0  0  0  0  0  0
   39.8430   30.0610   37.6080 H   0  0  0  0  0  0  0  0  0  0  0  0
   38.2560   27.7660   38.8610 Br  0  0  0  0  0  0  0  0  0  0  0  0
   38.6160   28.6960   40.4790 C   0  0  0  0  0  0  0  0  0  0  0  0
   38.6390   28.0200   41.6710 C   0  0  0  0  0  0  0  0  0  0  0  0
   38.8990   28.6900   42.8740 C   0  0  0  0  0  0  0  0  0  0  0  0
   39.1300   30.0320   42.8280 C   0  0  0  0  0  0  0  0  0  0  0  0
   39.0990   30.6780   41.6080 C   0  0  0  0  0  0  0  0  0  0  0  0
   38.8520   30.0550   40.4380 C   0  0  0  0  0  0  0  0  0  0  0  0
   38.8980   28.0890   43.7560 H   0  0  0  0  0  0  0  0  0  0  0  0
   39.3270   30.5160   43.7740 H   0  0  0  0  0  0  0  0  0  0  0  0
   39.2960   31.7520   41.7230 H   0  0  0  0  0  0  0  0  0  0  0  0
   36.9170   24.8110   41.9250 C   0  0  0  0  0  0  0  0  0  0  0  0
   37.9200   23.8600   41.6800 C   0  0  0  0  0  0  0  0  0  0  0  0
   39.1870   24.3590   41.4300 C   0  0  0  0  0  0  0  0  0  0  0  0
   39.3810   25.6930   41.4340 N   0  0  0  0  0  0  0  0  0  0  0  0
   38.3830   26.5890   41.6760 C   0  0  0  0  0  0  0  0  0  0  0  0
   37.1560   26.1170   41.9200 N   0  0  0  0  0  0  0  0  0  0  0  0
   35.9170   24.4050   42.1230 H   0  0  0  0  0  0  0  0  0  0  0  0
   37.7870   22.7880   41.6720 H   0  0  0  0  0  0  0  0  0  0  0  0
   40.0390   23.6970   41.2260 H   0  0  0  0  0  0  0  0  0  0  0  0
   41.2570   30.5070   39.1110 C   0  0  0  0  0  2  0  0  0  0  0  0
   42.2970   29.6000   38.6360 C   0  0  2  0  0  0  0  0  0  0  0  0
   43.7270   29.9340   38.7000 C   0  0  0  0  0  2  0  0  0  0  0  0
   44.2200   30.3140   37.3980 N   0  0  0  0  0  0  0  0  0  0  0  0
   44.8200   30.9750   36.2890 C   0  0  0  0  0  0  0  0  0  0  0  0
   45.6590   31.9320   36.1790 O   0  0  0  0  0  0  0  0  0  0  0  0
   44.1200   30.1530   35.2660 C   0  0  0  0  0  3  0  0  0  0  0  0
   44.8180   29.6560   34.5480 H   0  0  0  0  0  0  0  0  0  0  0  0
   43.8640   29.2510   36.4460 C   0  0  2  0  0  3  0  0  0  0  0  0
   42.0820   29.1170   36.8770 S   0  0  0  0  0  0  0  0  0  0  0  0
   42.1730   28.2540   39.4370 C   0  0  0  0  0  2  0  0  0  0  0  0
   41.2520   27.7270   39.1360 H   0  0  0  0  0  0  0  0  0  0  0  0
  1 21  1  0  0  0  0
  2  8  1  0  0  0  0
  2  7  1  0  0  0  0
  2  1  1  0  0  0  0
  3  2  1  0  0  0  0
  4  3  1  0  0  0  0
  4  5  1  0  0  0  0
  5  6  1  0  0  0  0
  5 12  1  0  0  0  0
  6 14  1  6  0  0  0
  6 34  1  0  0  0  0
  6  1  1  0  0  0  0
  9  3  1  0  0  0  0
 10  3  1  0  0  0  0
 11  4  1  0  0  0  0
 13  5  1  0  0  0  0
 15 16  1  0  0  0  0
 16 17  1  0  0  0  0
 17 29  1  0  0  0  0
 17 18  2  0  0  0  0
 18 22  1  0  0  0  0
 19 18  1  0  0  0  0
 19 23  1  0  0  0  0
 20 24  1  0  0  0  0
 20 19  2  0  0  0  0
 21 16  2  0  0  0  0
 21 20  1  0  0  0  0
 25 31  1  0  0  0  0
 26 25  2  0  0  0  0
 27 28  2  0  0  0  0
 27 26  1  0  0  0  0
 28 29  1  0  0  0  0
 29 30  2  0  0  0  0
 30 25  1  0  0  0  0
 32 26  1  0  0  0  0
 33 27  1  0  0  0  0
 35 36  1  0  0  0  0
 35 34  1  1  0  0  0
 35 44  1  0  0  0  0
 37 36  1  0  0  0  0
 38 37  1  0  0  0  0
 39 38  2  0  0  0  0
 40 38  1  0  0  0  0
 41 40  1  0  0  0  0
 42 40  1  6  0  0  0
 42 43  1  0  0  0  0
 42 37  1  0  0  0  0
 43 35  1  0  0  0  0
 45 44  1  0  0  0  0
M  END
>  <minimizedAffinity>
-5.98501158

$$$$

 OpenBabel03242510143D

 45 49  0  0  1  0  0  0  0  0999 V2000
   38.2000   30.6810   40.5800 N   0  0  0  0  0  0  0  0  0  0  0  0
   38.5830   32.0660   40.6410 C   0  0  0  0  0  0  0  0  0  0  0  0
   37.6340   32.9330   39.8340 C   0  0  0  0  0  0  0  0  0  0  0  0
   37.7020   32.6270   38.4340 N   0  0  0  0  0  0  0  0  0  0  0  0
   38.2820   31.2700   38.2780 C   0  0  0  0  0  0  0  0  0  0  0  0
   37.6060   30.3390   39.2460 C   0  0  1  0  0  0  0  0  0  0  0  0
   39.6290   32.2490   40.4080 H   0  0  0  0  0  0  0  0  0  0  0  0
   38.4380   32.4050   41.7050 H   0  0  0  0  0  0  0  0  0  0  0  0
   38.0160   33.9790   39.9640 H   0  0  0  0  0  0  0  0  0  0  0  0
   36.6330   32.8720   40.2770 H   0  0  0  0  0  0  0  0  0  0  0  0
   36.7270   32.5410   38.0650 H   0  0  0  0  0  0  0  0  0  0  0  0
   39.3640   31.3250   38.6070 H   0  0  0  0  0  0  0  0  0  0  0  0
   38.1780   31.0460   37.2330 H   0  0  0  0  0  0  0  0  0  0  0  0
   36.5350   30.6300   39.3820 H   0  0  0  0  0  0  0  0  0  0  0  0
   40.9710   29.2100   40.6940 Br  0  0  0  0  0  0  0  0  0  0  0  0
   39.4560   28.9290   41.8060 C   0  0  0  0  0  0  0  0  0  0  0  0
   39.4990   27.9880   42.8020 C   0  0  0  0  0  0  0  0  0  0  0  0
   38.3910   27.7650   43.6300 C   0  0  0  0  0  0  0  0  0  0  0  0
   37.2670   28.5080   43.4190 C   0  0  0  0  0  0  0  0  0  0  0  0
   37.2630   29.4460   42.4060 C   0  0  0  0  0  0  0  0  0  0  0  0
   38.3170   29.6790   41.5980 C   0  0  0  0  0  0  0  0  0  0  0  0
   38.5080   27.0150   44.3810 H   0  0  0  0  0  0  0  0  0  0  0  0
   36.4320   28.3100   44.0750 H   0  0  0  0  0  0  0  0  0  0  0  0
   36.2960   29.9630   42.3490 H   0  0  0  0  0  0  0  0  0  0  0  0
   42.8520   27.0120   43.8660 C   0  0  0  0  0  0  0  0  0  0  0  0
   43.0210   25.7230   43.3360 C   0  0  0  0  0  0  0  0  0  0  0  0
   41.9550   25.2150   42.6130 C   0  0  0  0  0  0  0  0  0  0  0  0
   40.8460   25.9650   42.4620 N   0  0  0  0  0  0  0  0  0  0  0  0
   40.7150   27.2150   42.9900 C   0  0  0  0  0  0  0  0  0  0  0  0
   41.7390   27.7140   43.6900 N   0  0  0  0  0  0  0  0  0  0  0  0
   43.7020   27.4050   44.4360 H   0  0  0  0  0  0  0  0  0  0  0  0
   43.9010   25.1050   43.4440 H   0  0  0  0  0  0  0  0  0  0  0  0
   41.9890   24.2160   42.1590 H   0  0  0  0  0  0  0  0  0  0  0  0
   37.6890   28.9040   38.9980 C   0  0  0  0  0  2  0  0  0  0  0  0
   36.5360   28.0330   38.7910 C   0  0  2  0  0  0  0  0  0  0  0  0
   36.2700   27.3680   37.5080 C   0  0  0  0  0  2  0  0  0  0  0  0
   35.2070   28.0400   36.7970 N   0  0  0  0  0  0  0  0  0  0  0  0
   34.3980   28.7080   35.8350 C   0  0  0  0  0  0  0  0  0  0  0  0
   34.4690   28.8510   34.5680 O   0  0  0  0  0  0  0  0  0  0  0  0
   33.4080   29.2000   36.8310 C   0  0  0  0  0  3  0  0  0  0  0  0
   32.3570   28.9060   36.5900 H   0  0  0  0  0  0  0  0  0  0  0  0
   34.0520   28.1520   37.7010 C   0  0  2  0  0  3  0  0  0  0  0  0
   34.9360   28.8600   39.1490 S   0  0  0  0  0  0  0  0  0  0  0  0
   36.6200   26.8580   39.8300 C   0  0  0  0  0  2  0  0  0  0  0  0
   36.4350   27.2470   40.8460 H   0  0  0  0  0  0  0  0  0  0  0  0
  1  2  1  0  0  0  0
  1 21  1  0  0  0  0
  2  8  1  0  0  0  0
  3  9  1  0  0  0  0
  3 10  1  0  0  0  0
  3  2  1  0  0  0  0
  4  3  1  0  0  0  0
  5  4  1  0  0  0  0
  5 12  1  0  0  0  0
  5  6  1  0  0  0  0
  6 14  1  1  0  0  0
  6  1  1  0  0  0  0
  7  2  1  0  0  0  0
 11  4  1  0  0  0  0
 13  5  1  0  0  0  0
 15 16  1  0  0  0  0
 16 17  1  0  0  0  0
 17 29  1  0  0  0  0
 17 18  2  0  0  0  0
 18 22  1  0  0  0  0
 19 18  1  0  0  0  0
 19 23  1  0  0  0  0
 20 19  2  0  0  0  0
 21 16  2  0  0  0  0
 21 20  1  0  0  0  0
 24 20  1  0  0  0  0
 25 31  1  0  0  0  0
 26 32  1  0  0  0  0
 26 25  2  0  0  0  0
 27 26  1  0  0  0  0
 28 27  2  0  0  0  0
 28 29  1  0  0  0  0
 29 30  2  0  0  0  0
 30 25  1  0  0  0  0
 33 27  1  0  0  0  0
 34  6  1  0  0  0  0
 35 34  1  6  0  0  0
 35 43  1  0  0  0  0
 35 44  1  0  0  0  0
 36 35  1  0  0  0  0
 37 36  1  0  0  0  0
 37 42  1  0  0  0  0
 38 37  1  0  0  0  0
 38 40  1  0  0  0  0
 39 38  2  0  0  0  0
 41 40  1  0  0  0  0
 42 40  1  6  0  0  0
 42 43  1  0  0  0  0
 44 45  1  0  0  0  0
M  END
>  <minimizedAffinity>
-5.85741758

$$$$

 OpenBabel03242510143D

 45 49  0  0  1  0  0  0  0  0999 V2000
   37.6320   25.6540   40.6810 N   0  0  0  0  0  0  0  0  0  0  0  0
   36.6890   25.0530   39.7770 C   0  0  0  0  0  0  0  0  0  0  0  0
   36.8180   23.5410   39.7760 C   0  0  0  0  0  0  0  0  0  0  0  0
   38.0900   23.1200   39.2620 N   0  0  0  0  0  0  0  0  0  0  0  0
   39.0360   24.2590   39.3620 C   0  0  0  0  0  0  0  0  0  0  0  0
   38.9130   24.8750   40.7280 C   0  0  1  0  0  0  0  0  0  0  0  0
   36.6960   25.4810   38.7770 H   0  0  0  0  0  0  0  0  0  0  0  0
   35.6600   25.2470   40.1910 H   0  0  0  0  0  0  0  0  0  0  0  0
   36.0350   23.1830   39.0570 H   0  0  0  0  0  0  0  0  0  0  0  0
   36.5690   23.1620   40.7740 H   0  0  0  0  0  0  0  0  0  0  0  0
   38.4840   22.3940   39.9050 H   0  0  0  0  0  0  0  0  0  0  0  0
   38.6860   25.0530   38.6330 H   0  0  0  0  0  0  0  0  0  0  0  0
   39.9910   23.8460   39.0980 H   0  0  0  0  0  0  0  0  0  0  0  0
   38.6830   24.0880   41.4900 H   0  0  0  0  0  0  0  0  0  0  0  0
   38.3900   28.3490   39.2610 Br  0  0  0  0  0  0  0  0  0  0  0  0
   37.7500   28.1060   41.0340 C   0  0  0  0  0  0  0  0  0  0  0  0
   37.5700   29.1880   41.8550 C   0  0  0  0  0  0  0  0  0  0  0  0
   37.1030   29.0280   43.1660 C   0  0  0  0  0  0  0  0  0  0  0  0
   36.8300   27.7660   43.6040 C   0  0  0  0  0  0  0  0  0  0  0  0
   37.0240   26.7010   42.7470 C   0  0  0  0  0  0  0  0  0  0  0  0
   37.4720   26.8310   41.4820 C   0  0  0  0  0  0  0  0  0  0  0  0
   36.9900   29.9220   43.7380 H   0  0  0  0  0  0  0  0  0  0  0  0
   36.4710   27.6790   44.6190 H   0  0  0  0  0  0  0  0  0  0  0  0
   36.7710   25.7500   43.2340 H   0  0  0  0  0  0  0  0  0  0  0  0
   39.3610   32.2800   41.1040 C   0  0  0  0  0  0  0  0  0  0  0  0
   38.4360   33.0470   40.3770 C   0  0  0  0  0  0  0  0  0  0  0  0
   37.1970   32.4680   40.1620 C   0  0  0  0  0  0  0  0  0  0  0  0
   36.9540   31.2340   40.6470 N   0  0  0  0  0  0  0  0  0  0  0  0
   37.8760   30.5160   41.3490 C   0  0  0  0  0  0  0  0  0  0  0  0
   39.0760   31.0670   41.5630 N   0  0  0  0  0  0  0  0  0  0  0  0
   40.3390   32.7480   41.2690 H   0  0  0  0  0  0  0  0  0  0  0  0
   38.6100   34.0360   39.9800 H   0  0  0  0  0  0  0  0  0  0  0  0
   36.4060   32.9870   39.6050 H   0  0  0  0  0  0  0  0  0  0  0  0
   40.0070   25.7100   41.2110 C   0  0  0  0  0  2  0  0  0  0  0  0
   40.5820   25.6260   42.5500 C   0  0  2  0  0  0  0  0  0  0  0  0
   40.5100   26.7360   43.5110 C   0  0  0  0  0  2  0  0  0  0  0  0
   41.7790   27.4190   43.5960 N   0  0  0  0  0  0  0  0  0  0  0  0
   42.8310   28.3780   43.6150 C   0  0  0  0  0  0  0  0  0  0  0  0
   42.8640   29.6500   43.7220 O   0  0  0  0  0  0  0  0  0  0  0  0
   43.9150   27.3700   43.4640 C   0  0  0  0  0  3  0  0  0  0  0  0
   44.6880   27.4310   44.2680 H   0  0  0  0  0  0  0  0  0  0  0  0
   42.8200   26.4160   43.8670 C   0  0  2  0  0  3  0  0  0  0  0  0
   42.3740   25.2270   42.5390 S   0  0  0  0  0  0  0  0  0  0  0  0
   39.9080   24.4180   43.2960 C   0  0  0  0  0  2  0  0  0  0  0  0
   40.2420   23.4700   42.8410 H   0  0  0  0  0  0  0  0  0  0  0  0
  1  6  1  0  0  0  0
  1 21  1  0  0  0  0
  2  8  1  0  0  0  0
  2  1  1  0  0  0  0
  3  2  1  0  0  0  0
  3 10  1  0  0  0  0
  4  5  1  0  0  0  0
  4  3  1  0  0  0  0
  4 11  1  0  0  0  0
  5  6  1  0  0  0  0
  6 34  1  0  0  0  0
  6 14  1  1  0  0  0
  7  2  1  0  0  0  0
  9  3  1  0  0  0  0
 12  5  1  0  0  0  0
 13  5  1  0  0  0  0
 15 16  1  0  0  0  0
 16 21  2  0  0  0  0
 16 17  1  0  0  0  0
 17 18  2  0  0  0  0
 18 19  1  0  0  0  0
 18 22  1  0  0  0  0
 19 23  1  0  0  0  0
 20 24  1  0  0  0  0
 20 19  2  0  0  0  0
 21 20  1  0  0  0  0
 25 31  1  0  0  0  0
 25 30  1  0  0  0  0
 26 25  2  0  0  0  0
 27 26  1  0  0  0  0
 27 28  2  0  0  0  0
 28 29  1  0  0  0  0
 29 30  2  0  0  0  0
 29 17  1  0  0  0  0
 32 26  1  0  0  0  0
 33 27  1  0  0  0  0
 35 34  1  6  0  0  0
 35 44  1  0  0  0  0
 35 36  1  0  0  0  0
 36 37  1  0  0  0  0
 37 38  1  0  0  0  0
 37 42  1  0  0  0  0
 38 39  2  0  0  0  0
 40 38  1  0  0  0  0
 40 42  1  0  0  0  0
 40 41  1  0  0  0  0
 42 43  1  6  0  0  0
 43 35  1  0  0  0  0
 45 44  1  0  0  0  0
M  END
>  <minimizedAffinity>
-5.83773994

$$$$

 OpenBabel03242510143D

 45 49  0  0  1  0  0  0  0  0999 V2000
   37.3120   29.4030   37.3940 N   0  0  0  0  0  0  0  0  0  0  0  0
   36.9330   29.8020   36.0650 C   0  0  0  0  0  0  0  0  0  0  0  0
   36.1510   28.7060   35.3660 C   0  0  0  0  0  0  0  0  0  0  0  0
   36.9580   27.5390   35.1480 N   0  0  0  0  0  0  0  0  0  0  0  0
   38.1060   27.5810   36.0870 C   0  0  0  0  0  0  0  0  0  0  0  0
   37.5990   27.9320   37.4590 C   0  0  1  0  0  0  0  0  0  0  0  0
   37.7540   30.1880   35.4650 H   0  0  0  0  0  0  0  0  0  0  0  0
   36.1980   30.6500   36.1690 H   0  0  0  0  0  0  0  0  0  0  0  0
   35.8990   29.1270   34.3570 H   0  0  0  0  0  0  0  0  0  0  0  0
   35.2170   28.5320   35.9120 H   0  0  0  0  0  0  0  0  0  0  0  0
   36.4090   26.6970   35.4400 H   0  0  0  0  0  0  0  0  0  0  0  0
   38.7680   28.4440   35.7730 H   0  0  0  0  0  0  0  0  0  0  0  0
   38.5870   26.6280   35.9760 H   0  0  0  0  0  0  0  0  0  0  0  0
   36.5800   27.5000   37.6190 H   0  0  0  0  0  0  0  0  0  0  0  0
   40.0470   30.9110   37.7150 Br  0  0  0  0  0  0  0  0  0  0  0  0
   38.5480   30.9540   38.8830 C   0  0  0  0  0  0  0  0  0  0  0  0
   38.5860   31.7120   40.0240 C   0  0  0  0  0  0  0  0  0  0  0  0
   37.4930   31.7540   40.8980 C   0  0  0  0  0  0  0  0  0  0  0  0
   36.3870   31.0200   40.5840 C   0  0  0  0  0  0  0  0  0  0  0  0
   36.3870   30.2700   39.4250 C   0  0  0  0  0  0  0  0  0  0  0  0
   37.4270   30.2150   38.5690 C   0  0  0  0  0  0  0  0  0  0  0  0
   37.6050   32.3690   41.7630 H   0  0  0  0  0  0  0  0  0  0  0  0
   35.5620   31.0760   41.2800 H   0  0  0  0  0  0  0  0  0  0  0  0
   35.4380   29.7290   39.3040 H   0  0  0  0  0  0  0  0  0  0  0  0
   40.9930   34.4510   40.2000 C   0  0  0  0  0  0  0  0  0  0  0  0
   42.0810   33.9120   40.9060 C   0  0  0  0  0  0  0  0  0  0  0  0
   41.9530   32.5940   41.3100 C   0  0  0  0  0  0  0  0  0  0  0  0
   40.8240   31.9210   41.0120 N   0  0  0  0  0  0  0  0  0  0  0  0
   39.7860   32.4760   40.3240 C   0  0  0  0  0  0  0  0  0  0  0  0
   39.9000   33.7490   39.9290 N   0  0  0  0  0  0  0  0  0  0  0  0
   41.1050   35.4960   39.8840 H   0  0  0  0  0  0  0  0  0  0  0  0
   42.9940   34.4320   41.1550 H   0  0  0  0  0  0  0  0  0  0  0  0
   42.7470   32.0810   41.8680 H   0  0  0  0  0  0  0  0  0  0  0  0
   38.4410   27.6220   38.6080 C   0  0  0  0  0  2  0  0  0  0  0  0
   38.0840   26.6800   39.6650 C   0  0  2  0  0  0  0  0  0  0  0  0
   37.0360   26.9650   40.6550 C   0  0  0  0  0  2  0  0  0  0  0  0
   37.6200   27.3320   41.9240 N   0  0  0  0  0  0  0  0  0  0  0  0
   37.9840   27.9760   43.1400 C   0  0  0  0  0  0  0  0  0  0  0  0
   37.4550   28.9030   43.8410 O   0  0  0  0  0  0  0  0  0  0  0  0
   39.2260   27.1810   43.3300 C   0  0  0  0  0  3  0  0  0  0  0  0
   39.2710   26.6620   44.3190 H   0  0  0  0  0  0  0  0  0  0  0  0
   38.5800   26.2850   42.3050 C   0  0  2  0  0  3  0  0  0  0  0  0
   39.5110   26.2110   40.7220 S   0  0  0  0  0  0  0  0  0  0  0  0
   37.6290   25.3370   38.9880 C   0  0  0  0  0  2  0  0  0  0  0  0
   38.4990   24.8430   38.5240 H   0  0  0  0  0  0  0  0  0  0  0  0
  1  6  1  0  0  0  0
  1 21  1  0  0  0  0
  2  8  1  0  0  0  0
  2  1  1  0  0  0  0
  3 10  1  0  0  0  0
  3  2  1  0  0  0  0
  4  3  1  0  0  0  0
  4 11  1  0  0  0  0
  4  5  1  0  0  0  0
  5  6  1  0  0  0  0
  6 14  1  1  0  0  0
  6 34  1  0  0  0  0
  7  2  1  0  0  0  0
  9  3  1  0  0  0  0
 12  5  1  0  0  0  0
 13  5  1  0  0  0  0
 15 16  1  0  0  0  0
 16 17  1  0  0  0  0
 17 29  1  0  0  0  0
 17 18  2  0  0  0  0
 18 22  1  0  0  0  0
 19 18  1  0  0  0  0
 19 23  1  0  0  0  0
 20 19  2  0  0  0  0
 21 16  2  0  0  0  0
 21 20  1  0  0  0  0
 24 20  1  0  0  0  0
 25 26  1  0  0  0  0
 26 32  1  0  0  0  0
 26 27  2  0  0  0  0
 27 33  1  0  0  0  0
 28 27  1  0  0  0  0
 29 28  2  0  0  0  0
 30 25  2  0  0  0  0
 30 29  1  0  0  0  0
 31 25  1  0  0  0  0
 35 34  1  6  0  0  0
 35 36  1  0  0  0  0
 35 43  1  0  0  0  0
 36 37  1  0  0  0  0
 37 42  1  0  0  0  0
 37 38  1  0  0  0  0
 38 40  1  0  0  0  0
 38 39  2  0  0  0  0
 40 41  1  0  0  0  0
 42 43  1  6  0  0  0
 42 40  1  0  0  0  0
 44 35  1  0  0  0  0
 45 44  1  0  0  0  0
M  END
>  <minimizedAffinity>
-5.8128562

$$$$

 OpenBabel03242510143D

 45 49  0  0  1  0  0  0  0  0999 V2000
   38.2910   28.1110   42.0360 N   0  0  0  0  0  0  0  0  0  0  0  0
   38.6870   27.8030   43.3840 C   0  0  0  0  0  0  0  0  0  0  0  0
   39.6860   26.6610   43.4140 C   0  0  0  0  0  0  0  0  0  0  0  0
   39.1010   25.4360   42.9480 N   0  0  0  0  0  0  0  0  0  0  0  0
   37.9010   25.7670   42.1410 C   0  0  0  0  0  0  0  0  0  0  0  0
   38.2490   26.8760   41.1860 C   0  0  1  0  0  0  0  0  0  0  0  0
   37.8560   27.6600   44.0710 H   0  0  0  0  0  0  0  0  0  0  0  0
   39.2630   28.6910   43.7730 H   0  0  0  0  0  0  0  0  0  0  0  0
   39.9320   26.5200   44.5000 H   0  0  0  0  0  0  0  0  0  0  0  0
   40.5980   26.9720   42.8900 H   0  0  0  0  0  0  0  0  0  0  0  0
   39.7610   24.9900   42.2700 H   0  0  0  0  0  0  0  0  0  0  0  0
   37.1270   26.1990   42.8460 H   0  0  0  0  0  0  0  0  0  0  0  0
   37.5940   24.8330   41.7100 H   0  0  0  0  0  0  0  0  0  0  0  0
   39.3120   26.7820   40.8530 H   0  0  0  0  0  0  0  0  0  0  0  0
   40.7430   29.7950   41.0330 Br  0  0  0  0  0  0  0  0  0  0  0  0
   38.9030   30.2680   40.9760 C   0  0  0  0  0  0  0  0  0  0  0  0
   38.5180   31.4730   40.4490 C   0  0  0  0  0  0  0  0  0  0  0  0
   37.1670   31.8400   40.4020 C   0  0  0  0  0  0  0  0  0  0  0  0
   36.2430   30.9670   40.8950 C   0  0  0  0  0  0  0  0  0  0  0  0
   36.6700   29.7630   41.4190 C   0  0  0  0  0  0  0  0  0  0  0  0
   37.9640   29.3880   41.4740 C   0  0  0  0  0  0  0  0  0  0  0  0
   36.9530   32.7950   39.9750 H   0  0  0  0  0  0  0  0  0  0  0  0
   35.2110   31.2820   40.8440 H   0  0  0  0  0  0  0  0  0  0  0  0
   35.8230   29.1660   41.7820 H   0  0  0  0  0  0  0  0  0  0  0  0
   40.8920   34.2360   40.2110 C   0  0  0  0  0  0  0  0  0  0  0  0
   41.4720   34.0850   38.9410 C   0  0  0  0  0  0  0  0  0  0  0  0
   41.0220   33.0140   38.1870 C   0  0  0  0  0  0  0  0  0  0  0  0
   40.0780   32.2000   38.6990 N   0  0  0  0  0  0  0  0  0  0  0  0
   39.5350   32.3770   39.9370 C   0  0  0  0  0  0  0  0  0  0  0  0
   39.9630   33.4080   40.6730 N   0  0  0  0  0  0  0  0  0  0  0  0
   41.2550   35.0870   40.7990 H   0  0  0  0  0  0  0  0  0  0  0  0
   42.2290   34.7250   38.5120 H   0  0  0  0  0  0  0  0  0  0  0  0
   41.4140   32.8100   37.1820 H   0  0  0  0  0  0  0  0  0  0  0  0
   37.3940   27.0800   40.0230 C   0  0  0  0  0  2  0  0  0  0  0  0
   37.8730   27.1380   38.6450 C   0  0  2  0  0  0  0  0  0  0  0  0
   38.7100   28.2380   38.1450 C   0  0  0  0  0  2  0  0  0  0  0  0
   37.9290   29.1480   37.3410 N   0  0  0  0  0  0  0  0  0  0  0  0
   37.2950   30.2860   36.7690 C   0  0  0  0  0  0  0  0  0  0  0  0
   37.4970   31.5440   36.8510 O   0  0  0  0  0  0  0  0  0  0  0  0
   36.2830   29.4950   36.0180 C   0  0  0  0  0  3  0  0  0  0  0  0
   36.2740   29.7180   34.9230 H   0  0  0  0  0  0  0  0  0  0  0  0
   37.2350   28.3640   36.3080 C   0  0  2  0  0  3  0  0  0  0  0  0
   36.5160   27.0800   37.4090 S   0  0  0  0  0  0  0  0  0  0  0  0
   38.7210   25.8440   38.3680 C   0  0  0  0  0  2  0  0  0  0  0  0
   38.0560   24.9640   38.3450 H   0  0  0  0  0  0  0  0  0  0  0  0
  1  2  1  0  0  0  0
  2  3  1  0  0  0  0
  2  8  1  0  0  0  0
  2  7  1  0  0  0  0
  3  9  1  0  0  0  0
  4  3  1  0  0  0  0
  5 12  1  0  0  0  0
  5  4  1  0  0  0  0
  6 14  1  6  0  0  0
  6  1  1  0  0  0  0
  6  5  1  0  0  0  0
 10  3  1  0  0  0  0
 11  4  1  0  0  0  0
 13  5  1  0  0  0  0
 16 15  1  0  0  0  0
 16 21  1  0  0  0  0
 17 16  2  0  0  0  0
 18 17  1  0  0  0  0
 18 19  2  0  0  0  0
 19 20  1  0  0  0  0
 20 21  2  0  0  0  0
 20 24  1  0  0  0  0
 21  1  1  0  0  0  0
 22 18  1  0  0  0  0
 23 19  1  0  0  0  0
 25 30  1  0  0  0  0
 25 31  1  0  0  0  0
 26 25  2  0  0  0  0
 27 28  2  0  0  0  0
 27 26  1  0  0  0  0
 28 29  1  0  0  0  0
 29 17  1  0  0  0  0
 29 30  2  0  0  0  0
 32 26  1  0  0  0  0
 33 27  1  0  0  0  0
 34  6  1  0  0  0  0
 35 44  1  6  0  0  0
 35 34  1  0  0  0  0
 36 35  1  0  0  0  0
 37 36  1  0  0  0  0
 38 39  2  0  0  0  0
 38 37  1  0  0  0  0
 40 38  1  0  0  0  0
 41 40  1  0  0  0  0
 42 40  1  1  0  0  0
 42 37  1  0  0  0  0
 42 43  1  0  0  0  0
 43 35  1  0  0  0  0
 45 44  1  0  0  0  0
M  END
>  <minimizedAffinity>
-5.78184986

$$$$

 OpenBabel03242510143D

 45 49  0  0  1  0  0  0  0  0999 V2000
   36.6680   29.1880   38.4440 N   0  0  0  0  0  0  0  0  0  0  0  0
   35.8850   29.0420   37.2470 C   0  0  0  0  0  0  0  0  0  0  0  0
   34.7120   28.1060   37.4700 C   0  0  0  0  0  0  0  0  0  0  0  0
   35.1500   26.7680   37.7510 N   0  0  0  0  0  0  0  0  0  0  0  0
   36.5580   26.8240   38.2140 C   0  0  0  0  0  0  0  0  0  0  0  0
   36.6900   27.9160   39.2390 C   0  0  1  0  0  0  0  0  0  0  0  0
   36.4660   28.7910   36.3630 H   0  0  0  0  0  0  0  0  0  0  0  0
   35.4110   30.0420   37.0350 H   0  0  0  0  0  0  0  0  0  0  0  0
   34.1710   28.0790   36.4880 H   0  0  0  0  0  0  0  0  0  0  0  0
   34.0440   28.5450   38.2210 H   0  0  0  0  0  0  0  0  0  0  0  0
   34.6140   26.4100   38.5750 H   0  0  0  0  0  0  0  0  0  0  0  0
   37.1920   27.1490   37.3340 H   0  0  0  0  0  0  0  0  0  0  0  0
   36.7800   25.8240   38.5370 H   0  0  0  0  0  0  0  0  0  0  0  0
   35.7510   27.9990   39.8420 H   0  0  0  0  0  0  0  0  0  0  0  0
   39.6430   29.4340   37.4730 Br  0  0  0  0  0  0  0  0  0  0  0  0
   38.6810   30.6300   38.5940 C   0  0  0  0  0  0  0  0  0  0  0  0
   39.2880   31.7590   39.0770 C   0  0  0  0  0  0  0  0  0  0  0  0
   38.5950   32.6510   39.9070 C   0  0  0  0  0  0  0  0  0  0  0  0
   37.2990   32.3650   40.2210 C   0  0  0  0  0  0  0  0  0  0  0  0
   36.7230   31.2170   39.7140 C   0  0  0  0  0  0  0  0  0  0  0  0
   37.3690   30.3460   38.9140 C   0  0  0  0  0  0  0  0  0  0  0  0
   39.1410   33.5060   40.2390 H   0  0  0  0  0  0  0  0  0  0  0  0
   36.7950   33.0730   40.8630 H   0  0  0  0  0  0  0  0  0  0  0  0
   35.6830   31.1140   40.0530 H   0  0  0  0  0  0  0  0  0  0  0  0
   42.9370   31.8160   39.1680 C   0  0  0  0  0  0  0  0  0  0  0  0
   43.3000   32.5420   38.0220 C   0  0  0  0  0  0  0  0  0  0  0  0
   42.2580   33.0000   37.2340 C   0  0  0  0  0  0  0  0  0  0  0  0
   40.9890   32.7320   37.6000 N   0  0  0  0  0  0  0  0  0  0  0  0
   40.6720   32.0240   38.7210 C   0  0  0  0  0  0  0  0  0  0  0  0
   41.6710   31.5780   39.4890 N   0  0  0  0  0  0  0  0  0  0  0  0
   43.7690   31.4580   39.7850 H   0  0  0  0  0  0  0  0  0  0  0  0
   44.3090   32.7670   37.7100 H   0  0  0  0  0  0  0  0  0  0  0  0
   42.4380   33.5770   36.3160 H   0  0  0  0  0  0  0  0  0  0  0  0
   37.8390   27.8880   40.1360 C   0  0  0  0  0  2  0  0  0  0  0  0
   37.7510   27.8970   41.5930 C   0  0  2  0  0  0  0  0  0  0  0  0
   38.5640   28.7940   42.4270 C   0  0  0  0  0  2  0  0  0  0  0  0
   39.6550   28.0710   43.0380 N   0  0  0  0  0  0  0  0  0  0  0  0
   40.9250   27.6180   43.4940 C   0  0  0  0  0  0  0  0  0  0  0  0
   42.0730   28.1670   43.5980 O   0  0  0  0  0  0  0  0  0  0  0  0
   40.4520   26.2460   43.8210 C   0  0  0  0  0  3  0  0  0  0  0  0
   40.6630   25.9470   44.8770 H   0  0  0  0  0  0  0  0  0  0  0  0
   39.0970   26.8990   43.7290 C   0  0  2  0  0  3  0  0  0  0  0  0
   38.0780   26.2530   42.3430 S   0  0  0  0  0  0  0  0  0  0  0  0
   36.2680   28.2300   41.9900 C   0  0  0  0  0  2  0  0  0  0  0  0
   35.6140   27.3820   41.7250 H   0  0  0  0  0  0  0  0  0  0  0  0
  1 21  1  0  0  0  0
  1  6  1  0  0  0  0
  2  3  1  0  0  0  0
  2  1  1  0  0  0  0
  3  4  1  0  0  0  0
  3 10  1  0  0  0  0
  4  5  1  0  0  0  0
  4 11  1  0  0  0  0
  5 13  1  0  0  0  0
  5  6  1  0  0  0  0
  6 14  1  1  0  0  0
  6 34  1  0  0  0  0
  7  2  1  0  0  0  0
  8  2  1  0  0  0  0
  9  3  1  0  0  0  0
 12  5  1  0  0  0  0
 15 16  1  0  0  0  0
 16 21  2  0  0  0  0
 16 17  1  0  0  0  0
 17 18  2  0  0  0  0
 18 19  1  0  0  0  0
 18 22  1  0  0  0  0
 19 23  1  0  0  0  0
 20 24  1  0  0  0  0
 20 19  2  0  0  0  0
 21 20  1  0  0  0  0
 25 30  1  0  0  0  0
 25 31  1  0  0  0  0
 26 25  2  0  0  0  0
 27 28  2  0  0  0  0
 27 26  1  0  0  0  0
 28 29  1  0  0  0  0
 29 17  1  0  0  0  0
 29 30  2  0  0  0  0
 32 26  1  0  0  0  0
 33 27  1  0  0  0  0
 35 34  1  6  0  0  0
 35 44  1  0  0  0  0
 35 43  1  0  0  0  0
 35 36  1  0  0  0  0
 36 37  1  0  0  0  0
 37 38  1  0  0  0  0
 37 42  1  0  0  0  0
 38 39  2  0  0  0  0
 38 40  1  0  0  0  0
 40 41  1  0  0  0  0
 42 43  1  6  0  0  0
 42 40  1  0  0  0  0
 45 44  1  0  0  0  0
M  END
>  <minimizedAffinity>
-5.77269983

$$$$
