
 OpenBabel03242518273D

 48 53  0  0  1  0  0  0  0  0999 V2000
   37.9750   28.1110   42.7740 C   0  0  0  0  0  0  0  0  0  0  0  0
   38.2080   28.5410   41.5180 C   0  0  0  0  0  0  0  0  0  0  0  0
   37.8860   27.6970   40.4580 C   0  0  0  0  0  0  0  0  0  0  0  0
   37.3450   26.4580   40.7040 C   0  0  0  0  0  0  0  0  0  0  0  0
   37.1140   26.0330   42.0190 C   0  0  0  0  0  0  0  0  0  0  0  0
   37.4320   26.8700   43.0750 C   0  0  0  0  0  0  0  0  0  0  0  0
   36.5650   24.7490   41.9490 O   0  0  0  0  0  0  0  0  0  0  0  0
   36.7370   24.2670   40.6350 C   0  0  2  0  0  0  0  0  0  0  0  0
   36.9320   25.4210   39.8620 O   0  0  0  0  0  0  0  0  0  0  0  0
   38.2410   28.7990   43.5660 H   0  0  0  0  0  0  0  0  0  0  0  0
   38.0490   27.9860   39.4380 H   0  0  0  0  0  0  0  0  0  0  0  0
   37.2640   26.5700   44.1080 H   0  0  0  0  0  0  0  0  0  0  0  0
   37.6880   23.6950   40.6180 H   0  0  0  0  0  0  0  0  0  0  0  0
   40.6060   31.3090   41.0080 C   0  0  0  0  0  0  0  0  0  0  0  0
   39.7810   32.3760   40.7140 C   0  0  0  0  0  0  0  0  0  0  0  0
   38.4020   32.1250   40.6940 C   0  0  0  0  0  0  0  0  0  0  0  0
   37.9280   30.8820   40.9560 N   0  0  0  0  0  0  0  0  0  0  0  0
   38.7870   29.8620   41.2420 C   0  0  0  0  0  0  0  0  0  0  0  0
   40.1050   30.0810   41.2650 N   0  0  0  0  0  0  0  0  0  0  0  0
   41.6800   31.4410   41.0380 H   0  0  0  0  0  0  0  0  0  0  0  0
   37.7630   32.9690   40.4630 H   0  0  0  0  0  0  0  0  0  0  0  0
   40.3830   33.6210   40.4590 N   0  0  0  0  0  0  0  0  0  0  0  0
   39.5420   34.7720   40.3590 C   0  0  0  0  0  0  0  0  0  0  0  0
   40.2780   36.0160   39.9870 C   0  0  0  0  0  0  0  0  0  0  0  0
   41.4530   36.2230   40.7620 N   0  0  0  0  0  0  0  0  0  0  0  0
   42.2290   35.0810   41.1030 C   0  0  0  0  0  0  0  0  0  0  0  0
   41.7890   33.8750   40.2820 C   0  0  0  0  0  0  0  0  0  0  0  0
   38.6850   34.6510   39.6670 H   0  0  0  0  0  0  0  0  0  0  0  0
   39.0660   34.9370   41.3640 H   0  0  0  0  0  0  0  0  0  0  0  0
   39.5880   36.8710   40.1550 H   0  0  0  0  0  0  0  0  0  0  0  0
   40.5430   36.0440   38.9050 H   0  0  0  0  0  0  0  0  0  0  0  0
   41.3720   36.9210   41.5250 H   0  0  0  0  0  0  0  0  0  0  0  0
   42.2210   34.8180   42.1730 H   0  0  0  0  0  0  0  0  0  0  0  0
   43.2890   35.2740   40.8430 H   0  0  0  0  0  0  0  0  0  0  0  0
   42.3900   32.9890   40.5070 H   0  0  0  0  0  0  0  0  0  0  0  0
   41.9530   34.1440   39.2070 H   0  0  0  0  0  0  0  0  0  0  0  0
   35.5880   23.4750   40.1160 C   0  0  0  0  0  2  0  0  0  0  0  0
   35.9230   22.4680   39.0740 C   0  0  2  0  0  0  0  0  0  0  0  0
   35.8880   23.1940   37.7240 C   0  0  0  0  0  2  0  0  0  0  0  0
   34.4620   23.4790   37.5090 N   0  0  0  0  0  0  0  0  0  0  0  0
   33.1570   24.0640   37.3130 C   0  0  0  0  0  0  0  0  0  0  0  0
   32.8270   25.1990   36.8710 O   0  0  0  0  0  0  0  0  0  0  0  0
   32.4730   22.8240   37.8260 C   0  0  0  0  0  3  0  0  0  0  0  0
   32.3890   22.8830   38.9460 H   0  0  0  0  0  0  0  0  0  0  0  0
   33.7750   22.1910   37.3950 C   0  0  2  0  0  3  0  0  0  0  0  0
   34.5880   21.2820   38.7560 S   0  0  0  0  0  0  0  0  0  0  0  0
   37.2320   21.7870   39.2750 C   0  0  0  0  0  2  0  0  0  0  0  0
   37.3180   21.4920   40.3410 H   0  0  0  0  0  0  0  0  0  0  0  0
  1  6  1  0  0  0  0
  1 10  1  0  0  0  0
  2  1  2  0  0  0  0
  3  4  2  0  0  0  0
  3  2  1  0  0  0  0
  4  5  1  0  0  0  0
  5  6  2  0  0  0  0
  6 12  1  0  0  0  0
  7  5  1  0  0  0  0
  8 13  1  6  0  0  0
  8  7  1  0  0  0  0
  9  8  1  0  0  0  0
  9  4  1  0  0  0  0
 11  3  1  0  0  0  0
 14 20  1  0  0  0  0
 14 19  1  0  0  0  0
 15 14  2  0  0  0  0
 16 15  1  0  0  0  0
 16 17  2  0  0  0  0
 17 18  1  0  0  0  0
 18 19  2  0  0  0  0
 18  2  1  0  0  0  0
 21 16  1  0  0  0  0
 22 15  1  0  0  0  0
 23 22  1  0  0  0  0
 23 29  1  0  0  0  0
 24 30  1  0  0  0  0
 24 23  1  0  0  0  0
 24 25  1  0  0  0  0
 25 26  1  0  0  0  0
 25 32  1  0  0  0  0
 26 33  1  0  0  0  0
 27 22  1  0  0  0  0
 27 35  1  0  0  0  0
 27 26  1  0  0  0  0
 28 23  1  0  0  0  0
 31 24  1  0  0  0  0
 34 26  1  0  0  0  0
 36 27  1  0  0  0  0
 37  8  1  0  0  0  0
 38 47  1  1  0  0  0
 38 37  1  0  0  0  0
 39 38  1  0  0  0  0
 40 39  1  0  0  0  0
 41 40  1  0  0  0  0
 41 43  1  0  0  0  0
 42 41  2  0  0  0  0
 43 44  1  0  0  0  0
 45 40  1  0  0  0  0
 45 43  1  1  0  0  0
 45 46  1  0  0  0  0
 46 38  1  0  0  0  0
 47 48  1  0  0  0  0
M  END
>  <minimizedAffinity>
-6.17450619

$$$$

 OpenBabel03242518273D

 48 53  0  0  1  0  0  0  0  0999 V2000
   34.4750   27.0370   37.2630 C   0  0  0  0  0  0  0  0  0  0  0  0
   34.2470   28.3570   37.4190 C   0  0  0  0  0  0  0  0  0  0  0  0
   35.0290   29.0620   38.3290 C   0  0  0  0  0  0  0  0  0  0  0  0
   36.0050   28.4130   39.0460 C   0  0  0  0  0  0  0  0  0  0  0  0
   36.2230   27.0410   38.8670 C   0  0  0  0  0  0  0  0  0  0  0  0
   35.4480   26.3360   37.9620 C   0  0  0  0  0  0  0  0  0  0  0  0
   37.2670   26.6720   39.7210 O   0  0  0  0  0  0  0  0  0  0  0  0
   37.4860   27.7270   40.6310 C   0  0  2  0  0  0  0  0  0  0  0  0
   36.9230   28.8500   40.0070 O   0  0  0  0  0  0  0  0  0  0  0  0
   33.8440   26.5290   36.5450 H   0  0  0  0  0  0  0  0  0  0  0  0
   34.8920   30.1130   38.4940 H   0  0  0  0  0  0  0  0  0  0  0  0
   35.5920   25.2700   37.7990 H   0  0  0  0  0  0  0  0  0  0  0  0
   36.8770   27.5120   41.5330 H   0  0  0  0  0  0  0  0  0  0  0  0
   32.3360   29.9460   34.6790 C   0  0  0  0  0  0  0  0  0  0  0  0
   31.1990   30.3940   35.3220 C   0  0  0  0  0  0  0  0  0  0  0  0
   31.1070   30.1400   36.6980 C   0  0  0  0  0  0  0  0  0  0  0  0
   32.1020   29.4830   37.3430 N   0  0  0  0  0  0  0  0  0  0  0  0
   33.2050   29.0610   36.6600 C   0  0  0  0  0  0  0  0  0  0  0  0
   33.3120   29.2940   35.3480 N   0  0  0  0  0  0  0  0  0  0  0  0
   32.4650   30.1120   33.6180 H   0  0  0  0  0  0  0  0  0  0  0  0
   30.2110   30.4960   37.1930 H   0  0  0  0  0  0  0  0  0  0  0  0
   30.2320   31.0640   34.5530 N   0  0  0  0  0  0  0  0  0  0  0  0
   29.7980   32.3550   34.9860 C   0  0  0  0  0  0  0  0  0  0  0  0
   28.6990   32.9240   34.1510 C   0  0  0  0  0  0  0  0  0  0  0  0
   28.9570   32.8390   32.7550 N   0  0  0  0  0  0  0  0  0  0  0  0
   29.6040   31.6670   32.2730 C   0  0  0  0  0  0  0  0  0  0  0  0
   29.6110   30.5850   33.3460 C   0  0  0  0  0  0  0  0  0  0  0  0
   29.4890   32.3990   36.0500 H   0  0  0  0  0  0  0  0  0  0  0  0
   30.6780   33.0510   34.9250 H   0  0  0  0  0  0  0  0  0  0  0  0
   28.5960   33.9960   34.4270 H   0  0  0  0  0  0  0  0  0  0  0  0
   27.7130   32.4540   34.3720 H   0  0  0  0  0  0  0  0  0  0  0  0
   29.2770   33.7140   32.3020 H   0  0  0  0  0  0  0  0  0  0  0  0
   30.6310   31.8240   31.9050 H   0  0  0  0  0  0  0  0  0  0  0  0
   29.0300   31.2640   31.4160 H   0  0  0  0  0  0  0  0  0  0  0  0
   30.0810   29.6640   32.9890 H   0  0  0  0  0  0  0  0  0  0  0  0
   28.5390   30.3620   33.5800 H   0  0  0  0  0  0  0  0  0  0  0  0
   38.9180   27.9700   40.9570 C   0  0  0  0  0  2  0  0  0  0  0  0
   39.2190   28.1910   42.3970 C   0  0  2  0  0  0  0  0  0  0  0  0
   38.3630   29.3780   42.8530 C   0  0  0  0  0  2  0  0  0  0  0  0
   38.9630   30.5340   42.1750 N   0  0  0  0  0  0  0  0  0  0  0  0
   39.2690   31.6880   41.3620 C   0  0  0  0  0  0  0  0  0  0  0  0
   38.5060   32.5460   40.8390 O   0  0  0  0  0  0  0  0  0  0  0  0
   40.7470   31.4050   41.4350 C   0  0  0  0  0  3  0  0  0  0  0  0
   41.0270   30.6880   40.6140 H   0  0  0  0  0  0  0  0  0  0  0  0
   40.3250   30.6810   42.6910 C   0  0  2  0  0  3  0  0  0  0  0  0
   40.8490   28.9300   42.6910 S   0  0  0  0  0  0  0  0  0  0  0  0
   38.9840   27.0040   43.2640 C   0  0  0  0  0  2  0  0  0  0  0  0
   39.4150   26.1110   42.7650 H   0  0  0  0  0  0  0  0  0  0  0  0
  1  2  2  0  0  0  0
  1  6  1  0  0  0  0
  2  3  1  0  0  0  0
  3 11  1  0  0  0  0
  3  4  2  0  0  0  0
  4  9  1  0  0  0  0
  5  4  1  0  0  0  0
  5  7  1  0  0  0  0
  6  5  2  0  0  0  0
  7  8  1  0  0  0  0
  8 37  1  0  0  0  0
  8 13  1  1  0  0  0
  9  8  1  0  0  0  0
 10  1  1  0  0  0  0
 12  6  1  0  0  0  0
 14 15  2  0  0  0  0
 14 19  1  0  0  0  0
 15 16  1  0  0  0  0
 16 21  1  0  0  0  0
 16 17  2  0  0  0  0
 18 17  1  0  0  0  0
 18  2  1  0  0  0  0
 19 18  2  0  0  0  0
 20 14  1  0  0  0  0
 22 23  1  0  0  0  0
 22 15  1  0  0  0  0
 23 28  1  0  0  0  0
 24 31  1  0  0  0  0
 24 30  1  0  0  0  0
 24 23  1  0  0  0  0
 25 24  1  0  0  0  0
 26 25  1  0  0  0  0
 26 27  1  0  0  0  0
 27 36  1  0  0  0  0
 27 22  1  0  0  0  0
 29 23  1  0  0  0  0
 32 25  1  0  0  0  0
 33 26  1  0  0  0  0
 34 26  1  0  0  0  0
 35 27  1  0  0  0  0
 38 37  1  6  0  0  0
 38 46  1  0  0  0  0
 38 39  1  0  0  0  0
 38 47  1  0  0  0  0
 40 45  1  0  0  0  0
 40 39  1  0  0  0  0
 41 43  1  0  0  0  0
 41 40  1  0  0  0  0
 42 41  2  0  0  0  0
 44 43  1  0  0  0  0
 45 43  1  6  0  0  0
 45 46  1  0  0  0  0
 48 47  1  0  0  0  0
M  END
>  <minimizedAffinity>
-6.1687541

$$$$

 OpenBabel03242518273D

 48 53  0  0  1  0  0  0  0  0999 V2000
   35.4270   29.4270   38.3580 C   0  0  0  0  0  0  0  0  0  0  0  0
   36.7230   29.3180   38.7130 C   0  0  0  0  0  0  0  0  0  0  0  0
   37.3140   28.0580   38.6900 C   0  0  0  0  0  0  0  0  0  0  0  0
   36.5790   26.9600   38.3130 C   0  0  0  0  0  0  0  0  0  0  0  0
   35.2330   27.0980   37.9490 C   0  0  0  0  0  0  0  0  0  0  0  0
   34.6420   28.3500   37.9700 C   0  0  0  0  0  0  0  0  0  0  0  0
   34.7600   25.8240   37.6190 O   0  0  0  0  0  0  0  0  0  0  0  0
   35.7040   24.8750   38.0630 C   0  0  2  0  0  0  0  0  0  0  0  0
   36.8960   25.6020   38.1960 O   0  0  0  0  0  0  0  0  0  0  0  0
   35.0090   30.4250   38.3910 H   0  0  0  0  0  0  0  0  0  0  0  0
   38.3410   27.9120   38.9610 H   0  0  0  0  0  0  0  0  0  0  0  0
   33.5990   28.4910   37.6940 H   0  0  0  0  0  0  0  0  0  0  0  0
   35.3960   24.5570   39.0800 H   0  0  0  0  0  0  0  0  0  0  0  0
   39.4980   31.4680   39.8770 C   0  0  0  0  0  0  0  0  0  0  0  0
   38.9320   32.7280   39.8680 C   0  0  0  0  0  0  0  0  0  0  0  0
   37.5930   32.8180   39.4580 C   0  0  0  0  0  0  0  0  0  0  0  0
   36.9120   31.7040   39.0920 N   0  0  0  0  0  0  0  0  0  0  0  0
   37.5190   30.4840   39.1200 C   0  0  0  0  0  0  0  0  0  0  0  0
   38.7940   30.3770   39.5070 N   0  0  0  0  0  0  0  0  0  0  0  0
   40.5280   31.3350   40.1840 H   0  0  0  0  0  0  0  0  0  0  0  0
   37.1590   33.8100   39.4550 H   0  0  0  0  0  0  0  0  0  0  0  0
   39.7330   33.8110   40.2670 N   0  0  0  0  0  0  0  0  0  0  0  0
   41.1530   33.6550   40.2230 C   0  0  0  0  0  0  0  0  0  0  0  0
   41.8980   34.8300   40.7630 C   0  0  0  0  0  0  0  0  0  0  0  0
   41.4360   36.0720   40.2450 N   0  0  0  0  0  0  0  0  0  0  0  0
   40.0360   36.2220   40.0410 C   0  0  0  0  0  0  0  0  0  0  0  0
   39.2750   35.0950   40.7290 C   0  0  0  0  0  0  0  0  0  0  0  0
   41.5270   32.7400   40.7260 H   0  0  0  0  0  0  0  0  0  0  0  0
   41.4500   33.5200   39.1470 H   0  0  0  0  0  0  0  0  0  0  0  0
   42.9660   34.7030   40.4810 H   0  0  0  0  0  0  0  0  0  0  0  0
   41.8790   34.8680   41.8780 H   0  0  0  0  0  0  0  0  0  0  0  0
   42.0190   36.4920   39.4980 H   0  0  0  0  0  0  0  0  0  0  0  0
   39.7270   36.2820   38.9850 H   0  0  0  0  0  0  0  0  0  0  0  0
   39.7020   37.1670   40.5120 H   0  0  0  0  0  0  0  0  0  0  0  0
   38.1930   35.2040   40.6080 H   0  0  0  0  0  0  0  0  0  0  0  0
   39.5140   35.1700   41.8200 H   0  0  0  0  0  0  0  0  0  0  0  0
   35.8950   23.7210   37.1410 C   0  0  0  0  0  2  0  0  0  0  0  0
   35.2280   22.4560   37.5510 C   0  0  2  0  0  0  0  0  0  0  0  0
   35.1740   22.4570   39.0830 C   0  0  0  0  0  2  0  0  0  0  0  0
   36.5740   22.2770   39.4900 N   0  0  0  0  0  0  0  0  0  0  0  0
   37.9140   22.3920   40.0160 C   0  0  0  0  0  0  0  0  0  0  0  0
   38.3620   23.0900   40.9670 O   0  0  0  0  0  0  0  0  0  0  0  0
   38.4440   21.4020   39.0120 C   0  0  0  0  0  3  0  0  0  0  0  0
   38.7140   21.9450   38.0650 H   0  0  0  0  0  0  0  0  0  0  0  0
   36.9990   20.9600   39.0120 C   0  0  2  0  0  3  0  0  0  0  0  0
   36.2670   20.9860   37.3370 S   0  0  0  0  0  0  0  0  0  0  0  0
   33.8690   22.2630   36.9740 C   0  0  0  0  0  2  0  0  0  0  0  0
   33.9040   22.5150   35.8940 H   0  0  0  0  0  0  0  0  0  0  0  0
  1 10  1  0  0  0  0
  1  2  1  0  0  0  0
  2 18  1  0  0  0  0
  3  2  2  0  0  0  0
  3 11  1  0  0  0  0
  4  3  1  0  0  0  0
  5  6  1  0  0  0  0
  5  4  2  0  0  0  0
  6  1  2  0  0  0  0
  7  5  1  0  0  0  0
  7  8  1  0  0  0  0
  8  9  1  0  0  0  0
  8 13  1  1  0  0  0
  9  4  1  0  0  0  0
 12  6  1  0  0  0  0
 14 20  1  0  0  0  0
 15 14  1  0  0  0  0
 15 22  1  0  0  0  0
 16 15  2  0  0  0  0
 17 18  2  0  0  0  0
 17 16  1  0  0  0  0
 18 19  1  0  0  0  0
 19 14  2  0  0  0  0
 21 16  1  0  0  0  0
 22 27  1  0  0  0  0
 23 22  1  0  0  0  0
 23 28  1  0  0  0  0
 23 24  1  0  0  0  0
 24 31  1  0  0  0  0
 25 24  1  0  0  0  0
 26 25  1  0  0  0  0
 26 34  1  0  0  0  0
 26 27  1  0  0  0  0
 27 36  1  0  0  0  0
 29 23  1  0  0  0  0
 30 24  1  0  0  0  0
 32 25  1  0  0  0  0
 33 26  1  0  0  0  0
 35 27  1  0  0  0  0
 37 38  1  0  0  0  0
 37  8  1  0  0  0  0
 38 47  1  6  0  0  0
 38 39  1  0  0  0  0
 39 40  1  0  0  0  0
 40 41  1  0  0  0  0
 41 42  2  0  0  0  0
 43 41  1  0  0  0  0
 44 43  1  0  0  0  0
 45 46  1  6  0  0  0
 45 43  1  0  0  0  0
 45 40  1  0  0  0  0
 46 38  1  0  0  0  0
 48 47  1  0  0  0  0
M  END
>  <minimizedAffinity>
-5.77517939

$$$$

 OpenBabel03242518273D

 48 53  0  0  1  0  0  0  0  0999 V2000
   37.5910   27.6380   42.5810 C   0  0  0  0  0  0  0  0  0  0  0  0
   37.5950   27.3810   41.2570 C   0  0  0  0  0  0  0  0  0  0  0  0
   38.1300   28.3360   40.3980 C   0  0  0  0  0  0  0  0  0  0  0  0
   38.6380   29.5090   40.9030 C   0  0  0  0  0  0  0  0  0  0  0  0
   38.6220   29.7530   42.2820 C   0  0  0  0  0  0  0  0  0  0  0  0
   38.0910   28.8050   43.1400 C   0  0  0  0  0  0  0  0  0  0  0  0
   39.2000   31.0100   42.4870 O   0  0  0  0  0  0  0  0  0  0  0  0
   39.2920   31.6620   41.2400 C   0  0  2  0  0  0  0  0  0  0  0  0
   39.2260   30.6250   40.2980 O   0  0  0  0  0  0  0  0  0  0  0  0
   37.1640   26.8680   43.2110 H   0  0  0  0  0  0  0  0  0  0  0  0
   38.1600   28.1860   39.3360 H   0  0  0  0  0  0  0  0  0  0  0  0
   38.0640   28.9650   44.2160 H   0  0  0  0  0  0  0  0  0  0  0  0
   38.3740   32.2730   41.1220 H   0  0  0  0  0  0  0  0  0  0  0  0
   36.0690   24.8920   38.9860 C   0  0  0  0  0  0  0  0  0  0  0  0
   36.0540   23.7460   39.7570 C   0  0  0  0  0  0  0  0  0  0  0  0
   36.5740   23.8490   41.0550 C   0  0  0  0  0  0  0  0  0  0  0  0
   37.0620   25.0300   41.5080 N   0  0  0  0  0  0  0  0  0  0  0  0
   37.0530   26.1330   40.7050 C   0  0  0  0  0  0  0  0  0  0  0  0
   36.5620   26.0560   39.4640 N   0  0  0  0  0  0  0  0  0  0  0  0
   35.6820   24.8760   37.9760 H   0  0  0  0  0  0  0  0  0  0  0  0
   36.5580   22.9440   41.6510 H   0  0  0  0  0  0  0  0  0  0  0  0
   35.5240   22.5770   39.1840 N   0  0  0  0  0  0  0  0  0  0  0  0
   34.1050   22.4090   39.1800 C   0  0  0  0  0  0  0  0  0  0  0  0
   33.6640   21.0900   38.6390 C   0  0  0  0  0  0  0  0  0  0  0  0
   34.2900   20.7530   37.4070 N   0  0  0  0  0  0  0  0  0  0  0  0
   35.6600   21.1010   37.2450 C   0  0  0  0  0  0  0  0  0  0  0  0
   36.2680   21.5000   38.5840 C   0  0  0  0  0  0  0  0  0  0  0  0
   33.6250   22.5620   40.1670 H   0  0  0  0  0  0  0  0  0  0  0  0
   33.6660   23.2150   38.5310 H   0  0  0  0  0  0  0  0  0  0  0  0
   32.5660   21.1500   38.4740 H   0  0  0  0  0  0  0  0  0  0  0  0
   33.8190   20.2600   39.3680 H   0  0  0  0  0  0  0  0  0  0  0  0
   33.7150   20.8960   36.5560 H   0  0  0  0  0  0  0  0  0  0  0  0
   35.8510   21.8940   36.5050 H   0  0  0  0  0  0  0  0  0  0  0  0
   36.2200   20.2120   36.8930 H   0  0  0  0  0  0  0  0  0  0  0  0
   37.3300   21.7480   38.4900 H   0  0  0  0  0  0  0  0  0  0  0  0
   36.1750   20.6080   39.2540 H   0  0  0  0  0  0  0  0  0  0  0  0
   40.5350   32.4600   41.0550 C   0  0  0  0  0  2  0  0  0  0  0  0
   40.3830   33.7070   40.2580 C   0  0  2  0  0  0  0  0  0  0  0  0
   40.6990   33.3460   38.8020 C   0  0  0  0  0  2  0  0  0  0  0  0
   42.1460   33.0910   38.8040 N   0  0  0  0  0  0  0  0  0  0  0  0
   43.4800   32.5440   38.7240 C   0  0  0  0  0  0  0  0  0  0  0  0
   43.9200   31.5510   38.0820 O   0  0  0  0  0  0  0  0  0  0  0  0
   44.0180   33.5960   39.6580 C   0  0  0  0  0  3  0  0  0  0  0  0
   43.8840   33.2520   40.7200 H   0  0  0  0  0  0  0  0  0  0  0  0
   42.8080   34.3490   39.1560 C   0  0  2  0  0  3  0  0  0  0  0  0
   41.7220   34.9020   40.5170 S   0  0  0  0  0  0  0  0  0  0  0  0
   39.0420   34.3460   40.3650 C   0  0  0  0  0  2  0  0  0  0  0  0
   38.7430   34.3620   41.4340 H   0  0  0  0  0  0  0  0  0  0  0  0
  1  6  1  0  0  0  0
  1 10  1  0  0  0  0
  2  1  2  0  0  0  0
  3  4  2  0  0  0  0
  3  2  1  0  0  0  0
  4  5  1  0  0  0  0
  5  7  1  0  0  0  0
  5  6  2  0  0  0  0
  6 12  1  0  0  0  0
  8 13  1  6  0  0  0
  8  7  1  0  0  0  0
  9  4  1  0  0  0  0
  9  8  1  0  0  0  0
 11  3  1  0  0  0  0
 14 19  2  0  0  0  0
 14 15  1  0  0  0  0
 15 16  2  0  0  0  0
 16 17  1  0  0  0  0
 16 21  1  0  0  0  0
 18  2  1  0  0  0  0
 18 17  2  0  0  0  0
 19 18  1  0  0  0  0
 20 14  1  0  0  0  0
 22 15  1  0  0  0  0
 23 22  1  0  0  0  0
 23 28  1  0  0  0  0
 24 23  1  0  0  0  0
 24 31  1  0  0  0  0
 25 24  1  0  0  0  0
 26 25  1  0  0  0  0
 26 27  1  0  0  0  0
 27 22  1  0  0  0  0
 27 36  1  0  0  0  0
 29 23  1  0  0  0  0
 30 24  1  0  0  0  0
 32 25  1  0  0  0  0
 33 26  1  0  0  0  0
 34 26  1  0  0  0  0
 35 27  1  0  0  0  0
 37  8  1  0  0  0  0
 38 47  1  1  0  0  0
 38 46  1  0  0  0  0
 38 37  1  0  0  0  0
 39 40  1  0  0  0  0
 39 38  1  0  0  0  0
 40 45  1  0  0  0  0
 41 40  1  0  0  0  0
 41 43  1  0  0  0  0
 42 41  2  0  0  0  0
 43 44  1  0  0  0  0
 45 43  1  1  0  0  0
 45 46  1  0  0  0  0
 47 48  1  0  0  0  0
M  END
>  <minimizedAffinity>
-5.68362379

$$$$

 OpenBabel03242518273D

 48 53  0  0  1  0  0  0  0  0999 V2000
   35.8950   29.4750   40.5090 C   0  0  0  0  0  0  0  0  0  0  0  0
   36.9590   29.7970   39.7460 C   0  0  0  0  0  0  0  0  0  0  0  0
   36.8160   29.7700   38.3620 C   0  0  0  0  0  0  0  0  0  0  0  0
   35.6110   29.4200   37.8010 C   0  0  0  0  0  0  0  0  0  0  0  0
   34.5200   29.0900   38.6140 C   0  0  0  0  0  0  0  0  0  0  0  0
   34.6580   29.1160   39.9920 C   0  0  0  0  0  0  0  0  0  0  0  0
   33.4500   28.7840   37.7670 O   0  0  0  0  0  0  0  0  0  0  0  0
   33.9530   28.6310   36.4590 C   0  0  2  0  0  0  0  0  0  0  0  0
   35.1810   29.3080   36.4750 O   0  0  0  0  0  0  0  0  0  0  0  0
   36.0520   29.5090   41.5790 H   0  0  0  0  0  0  0  0  0  0  0  0
   37.6290   30.0160   37.7060 H   0  0  0  0  0  0  0  0  0  0  0  0
   33.8300   28.8640   40.6510 H   0  0  0  0  0  0  0  0  0  0  0  0
   34.1730   27.5530   36.3170 H   0  0  0  0  0  0  0  0  0  0  0  0
   39.5660   30.9690   42.0940 C   0  0  0  0  0  0  0  0  0  0  0  0
   40.7220   30.8480   41.3490 C   0  0  0  0  0  0  0  0  0  0  0  0
   40.5870   30.3600   40.0420 C   0  0  0  0  0  0  0  0  0  0  0  0
   39.3640   30.0310   39.5560 N   0  0  0  0  0  0  0  0  0  0  0  0
   38.2530   30.1700   40.3340 C   0  0  0  0  0  0  0  0  0  0  0  0
   38.3610   30.6330   41.5830 N   0  0  0  0  0  0  0  0  0  0  0  0
   39.6070   31.3400   43.1100 H   0  0  0  0  0  0  0  0  0  0  0  0
   41.5000   30.2690   39.4660 H   0  0  0  0  0  0  0  0  0  0  0  0
   41.9350   31.2190   41.9560 N   0  0  0  0  0  0  0  0  0  0  0  0
   42.3980   32.5590   41.7790 C   0  0  0  0  0  0  0  0  0  0  0  0
   43.7400   32.8100   42.3800 C   0  0  0  0  0  0  0  0  0  0  0  0
   43.8530   32.3310   43.7150 N   0  0  0  0  0  0  0  0  0  0  0  0
   43.2140   31.1000   44.0310 C   0  0  0  0  0  0  0  0  0  0  0  0
   42.7880   30.3800   42.7570 C   0  0  0  0  0  0  0  0  0  0  0  0
   42.4170   32.9000   40.7230 H   0  0  0  0  0  0  0  0  0  0  0  0
   41.6600   33.2460   42.2770 H   0  0  0  0  0  0  0  0  0  0  0  0
   43.9010   33.9100   42.3850 H   0  0  0  0  0  0  0  0  0  0  0  0
   44.5660   32.3820   41.7660 H   0  0  0  0  0  0  0  0  0  0  0  0
   43.7760   33.0490   44.4590 H   0  0  0  0  0  0  0  0  0  0  0  0
   42.3490   31.1880   44.7080 H   0  0  0  0  0  0  0  0  0  0  0  0
   43.9390   30.4380   44.5440 H   0  0  0  0  0  0  0  0  0  0  0  0
   42.3170   29.4170   42.9730 H   0  0  0  0  0  0  0  0  0  0  0  0
   43.7230   30.1880   42.1720 H   0  0  0  0  0  0  0  0  0  0  0  0
   33.0680   29.1750   35.3930 C   0  0  0  0  0  2  0  0  0  0  0  0
   31.7310   28.5320   35.2800 C   0  0  2  0  0  0  0  0  0  0  0  0
   31.0740   29.0910   34.0130 C   0  0  0  0  0  2  0  0  0  0  0  0
   30.7760   30.4900   34.3520 N   0  0  0  0  0  0  0  0  0  0  0  0
   30.6920   31.9280   34.4510 C   0  0  0  0  0  0  0  0  0  0  0  0
   30.9280   32.8220   33.5920 O   0  0  0  0  0  0  0  0  0  0  0  0
   30.2440   31.8500   35.8870 C   0  0  0  0  0  3  0  0  0  0  0  0
   31.1480   31.8050   36.5550 H   0  0  0  0  0  0  0  0  0  0  0  0
   29.8040   30.4730   35.4470 C   0  0  2  0  0  3  0  0  0  0  0  0
   30.5240   29.1510   36.4830 S   0  0  0  0  0  0  0  0  0  0  0  0
   31.7650   27.0440   35.2450 C   0  0  0  0  0  2  0  0  0  0  0  0
   32.4570   26.6880   36.0360 H   0  0  0  0  0  0  0  0  0  0  0  0
  1 10  1  0  0  0  0
  2 18  1  0  0  0  0
  2  1  2  0  0  0  0
  3  2  1  0  0  0  0
  4  3  2  0  0  0  0
  4  5  1  0  0  0  0
  5  6  2  0  0  0  0
  6  1  1  0  0  0  0
  6 12  1  0  0  0  0
  7  5  1  0  0  0  0
  8 13  1  6  0  0  0
  8  9  1  0  0  0  0
  8  7  1  0  0  0  0
  9  4  1  0  0  0  0
 11  3  1  0  0  0  0
 14 20  1  0  0  0  0
 15 22  1  0  0  0  0
 15 14  2  0  0  0  0
 16 15  1  0  0  0  0
 17 16  2  0  0  0  0
 17 18  1  0  0  0  0
 18 19  2  0  0  0  0
 19 14  1  0  0  0  0
 21 16  1  0  0  0  0
 22 27  1  0  0  0  0
 23 22  1  0  0  0  0
 23 29  1  0  0  0  0
 23 24  1  0  0  0  0
 24 30  1  0  0  0  0
 24 25  1  0  0  0  0
 25 26  1  0  0  0  0
 25 32  1  0  0  0  0
 26 34  1  0  0  0  0
 26 33  1  0  0  0  0
 27 35  1  0  0  0  0
 27 26  1  0  0  0  0
 28 23  1  0  0  0  0
 31 24  1  0  0  0  0
 36 27  1  0  0  0  0
 37  8  1  0  0  0  0
 38 47  1  6  0  0  0
 38 37  1  0  0  0  0
 38 46  1  0  0  0  0
 39 40  1  0  0  0  0
 39 38  1  0  0  0  0
 40 41  1  0  0  0  0
 40 45  1  0  0  0  0
 41 43  1  0  0  0  0
 42 41  2  0  0  0  0
 43 44  1  0  0  0  0
 45 43  1  1  0  0  0
 45 46  1  0  0  0  0
 47 48  1  0  0  0  0
M  END
>  <minimizedAffinity>
-5.6629715

$$$$

 OpenBabel03242518273D

 48 53  0  0  1  0  0  0  0  0999 V2000
   38.2130   32.5300   39.7950 C   0  0  0  0  0  0  0  0  0  0  0  0
   39.4540   32.0170   39.6670 C   0  0  0  0  0  0  0  0  0  0  0  0
   39.6250   30.8830   38.8790 C   0  0  0  0  0  0  0  0  0  0  0  0
   38.5430   30.3100   38.2530 C   0  0  0  0  0  0  0  0  0  0  0  0
   37.2640   30.8600   38.4020 C   0  0  0  0  0  0  0  0  0  0  0  0
   37.0900   31.9890   39.1850 C   0  0  0  0  0  0  0  0  0  0  0  0
   36.3830   30.0690   37.6570 O   0  0  0  0  0  0  0  0  0  0  0  0
   37.0510   28.8790   37.3030 C   0  0  2  0  0  0  0  0  0  0  0  0
   38.4130   29.1940   37.4190 O   0  0  0  0  0  0  0  0  0  0  0  0
   38.1270   33.4110   40.4180 H   0  0  0  0  0  0  0  0  0  0  0  0
   40.5880   30.4320   38.7410 H   0  0  0  0  0  0  0  0  0  0  0  0
   36.1090   32.4400   39.3210 H   0  0  0  0  0  0  0  0  0  0  0  0
   36.8190   28.1280   38.0870 H   0  0  0  0  0  0  0  0  0  0  0  0
   42.5520   32.4760   41.6340 C   0  0  0  0  0  0  0  0  0  0  0  0
   42.7680   33.8370   41.5480 C   0  0  0  0  0  0  0  0  0  0  0  0
   41.8370   34.5810   40.8090 C   0  0  0  0  0  0  0  0  0  0  0  0
   40.7840   33.9670   40.2160 N   0  0  0  0  0  0  0  0  0  0  0  0
   40.6170   32.6190   40.3320 C   0  0  0  0  0  0  0  0  0  0  0  0
   41.4930   31.8920   41.0330 N   0  0  0  0  0  0  0  0  0  0  0  0
   43.2360   31.8480   42.1910 H   0  0  0  0  0  0  0  0  0  0  0  0
   42.0160   35.6480   40.7480 H   0  0  0  0  0  0  0  0  0  0  0  0
   43.8940   34.3650   42.2030 N   0  0  0  0  0  0  0  0  0  0  0  0
   43.8840   35.7500   42.5560 C   0  0  0  0  0  0  0  0  0  0  0  0
   45.1680   36.2210   43.1540 C   0  0  0  0  0  0  0  0  0  0  0  0
   45.6530   35.3660   44.1820 N   0  0  0  0  0  0  0  0  0  0  0  0
   45.4880   33.9640   44.0060 C   0  0  0  0  0  0  0  0  0  0  0  0
   45.0890   33.6510   42.5690 C   0  0  0  0  0  0  0  0  0  0  0  0
   43.6140   36.4310   41.7240 H   0  0  0  0  0  0  0  0  0  0  0  0
   43.0690   35.9040   43.3160 H   0  0  0  0  0  0  0  0  0  0  0  0
   44.9810   37.2270   43.5890 H   0  0  0  0  0  0  0  0  0  0  0  0
   45.9650   36.3620   42.3870 H   0  0  0  0  0  0  0  0  0  0  0  0
   45.4900   35.6910   45.1520 H   0  0  0  0  0  0  0  0  0  0  0  0
   44.7710   33.4920   44.6970 H   0  0  0  0  0  0  0  0  0  0  0  0
   46.4600   33.4610   44.1840 H   0  0  0  0  0  0  0  0  0  0  0  0
   44.9820   32.5750   42.4030 H   0  0  0  0  0  0  0  0  0  0  0  0
   45.9210   34.0240   41.9190 H   0  0  0  0  0  0  0  0  0  0  0  0
   36.7420   28.3850   35.9330 C   0  0  0  0  0  2  0  0  0  0  0  0
   36.0480   27.0710   35.8670 C   0  0  2  0  0  0  0  0  0  0  0  0
   35.0010   27.1760   34.7530 C   0  0  0  0  0  2  0  0  0  0  0  0
   33.9900   28.0930   35.2980 N   0  0  0  0  0  0  0  0  0  0  0  0
   33.0870   29.1810   35.5900 C   0  0  0  0  0  0  0  0  0  0  0  0
   32.6110   30.0730   34.8350 O   0  0  0  0  0  0  0  0  0  0  0  0
   33.0020   28.7830   37.0400 C   0  0  0  0  0  3  0  0  0  0  0  0
   33.8460   29.2640   37.6060 H   0  0  0  0  0  0  0  0  0  0  0  0
   33.4010   27.4420   36.4690 C   0  0  2  0  0  3  0  0  0  0  0  0
   34.9140   26.7790   37.2520 S   0  0  0  0  0  0  0  0  0  0  0  0
   36.9520   25.9090   35.6370 C   0  0  0  0  0  2  0  0  0  0  0  0
   37.8320   26.0090   36.3050 H   0  0  0  0  0  0  0  0  0  0  0  0
  1 10  1  0  0  0  0
  2  1  1  0  0  0  0
  2 18  1  0  0  0  0
  3  2  2  0  0  0  0
  4  5  2  0  0  0  0
  4  3  1  0  0  0  0
  5  6  1  0  0  0  0
  6 12  1  0  0  0  0
  6  1  2  0  0  0  0
  7  5  1  0  0  0  0
  8  9  1  0  0  0  0
  8  7  1  0  0  0  0
  8 13  1  1  0  0  0
  9  4  1  0  0  0  0
 11  3  1  0  0  0  0
 14 20  1  0  0  0  0
 15 14  1  0  0  0  0
 15 22  1  0  0  0  0
 16 15  2  0  0  0  0
 17 18  2  0  0  0  0
 17 16  1  0  0  0  0
 18 19  1  0  0  0  0
 19 14  2  0  0  0  0
 21 16  1  0  0  0  0
 22 23  1  0  0  0  0
 22 27  1  0  0  0  0
 23 24  1  0  0  0  0
 23 29  1  0  0  0  0
 24 30  1  0  0  0  0
 24 25  1  0  0  0  0
 25 32  1  0  0  0  0
 26 25  1  0  0  0  0
 26 34  1  0  0  0  0
 26 33  1  0  0  0  0
 27 26  1  0  0  0  0
 28 23  1  0  0  0  0
 31 24  1  0  0  0  0
 35 27  1  0  0  0  0
 36 27  1  0  0  0  0
 37  8  1  0  0  0  0
 38 47  1  6  0  0  0
 38 37  1  0  0  0  0
 38 46  1  0  0  0  0
 39 40  1  0  0  0  0
 39 38  1  0  0  0  0
 40 41  1  0  0  0  0
 40 45  1  0  0  0  0
 41 43  1  0  0  0  0
 42 41  2  0  0  0  0
 43 44  1  0  0  0  0
 45 43  1  1  0  0  0
 45 46  1  0  0  0  0
 47 48  1  0  0  0  0
M  END
>  <minimizedAffinity>
-5.64225149

$$$$

 OpenBabel03242518273D

 48 53  0  0  1  0  0  0  0  0999 V2000
   35.5060   29.5520   37.9440 C   0  0  0  0  0  0  0  0  0  0  0  0
   36.7260   29.4560   38.5100 C   0  0  0  0  0  0  0  0  0  0  0  0
   37.2440   28.1890   38.7610 C   0  0  0  0  0  0  0  0  0  0  0  0
   36.5150   27.0700   38.4350 C   0  0  0  0  0  0  0  0  0  0  0  0
   35.2490   27.1950   37.8490 C   0  0  0  0  0  0  0  0  0  0  0  0
   34.7300   28.4540   37.5970 C   0  0  0  0  0  0  0  0  0  0  0  0
   34.7610   25.9020   37.6350 O   0  0  0  0  0  0  0  0  0  0  0  0
   35.5750   25.0000   38.3530 C   0  0  2  0  0  0  0  0  0  0  0  0
   36.7710   25.7010   38.5650 O   0  0  0  0  0  0  0  0  0  0  0  0
   35.1430   30.5560   37.7680 H   0  0  0  0  0  0  0  0  0  0  0  0
   38.2090   28.0520   39.2080 H   0  0  0  0  0  0  0  0  0  0  0  0
   33.7500   28.5850   37.1430 H   0  0  0  0  0  0  0  0  0  0  0  0
   35.1000   24.8500   39.3450 H   0  0  0  0  0  0  0  0  0  0  0  0
   37.7250   32.7810   39.7850 C   0  0  0  0  0  0  0  0  0  0  0  0
   39.0720   32.8290   39.4890 C   0  0  0  0  0  0  0  0  0  0  0  0
   39.6210   31.7070   38.8500 C   0  0  0  0  0  0  0  0  0  0  0  0
   38.8410   30.6390   38.5500 N   0  0  0  0  0  0  0  0  0  0  0  0
   37.5140   30.6440   38.8640 C   0  0  0  0  0  0  0  0  0  0  0  0
   36.9720   31.7030   39.4730 N   0  0  0  0  0  0  0  0  0  0  0  0
   37.2440   33.6170   40.2780 H   0  0  0  0  0  0  0  0  0  0  0  0
   40.6790   31.7550   38.6220 H   0  0  0  0  0  0  0  0  0  0  0  0
   39.7830   33.9870   39.8470 N   0  0  0  0  0  0  0  0  0  0  0  0
   39.0980   35.0000   40.5870 C   0  0  0  0  0  0  0  0  0  0  0  0
   39.9190   36.2230   40.8220 C   0  0  0  0  0  0  0  0  0  0  0  0
   41.2250   35.9350   41.3090 N   0  0  0  0  0  0  0  0  0  0  0  0
   41.8880   34.7930   40.7810 C   0  0  0  0  0  0  0  0  0  0  0  0
   41.1600   34.2790   39.5450 C   0  0  0  0  0  0  0  0  0  0  0  0
   38.1270   35.3080   40.1470 H   0  0  0  0  0  0  0  0  0  0  0  0
   38.8230   34.5670   41.5870 H   0  0  0  0  0  0  0  0  0  0  0  0
   39.3870   36.8390   41.5800 H   0  0  0  0  0  0  0  0  0  0  0  0
   40.0000   36.8610   39.9120 H   0  0  0  0  0  0  0  0  0  0  0  0
   41.3660   36.0730   42.3260 H   0  0  0  0  0  0  0  0  0  0  0  0
   42.0250   33.9660   41.4960 H   0  0  0  0  0  0  0  0  0  0  0  0
   42.9050   35.0860   40.4540 H   0  0  0  0  0  0  0  0  0  0  0  0
   41.6680   33.4150   39.1060 H   0  0  0  0  0  0  0  0  0  0  0  0
   41.1760   35.1120   38.7970 H   0  0  0  0  0  0  0  0  0  0  0  0
   35.8380   23.7160   37.6480 C   0  0  0  0  0  2  0  0  0  0  0  0
   35.5560   22.4840   38.4330 C   0  0  2  0  0  0  0  0  0  0  0  0
   36.7000   22.3270   39.4410 C   0  0  0  0  0  2  0  0  0  0  0  0
   37.8600   21.9720   38.6130 N   0  0  0  0  0  0  0  0  0  0  0  0
   39.1170   21.9010   37.9050 C   0  0  0  0  0  0  0  0  0  0  0  0
   40.2270   22.4480   38.1520 O   0  0  0  0  0  0  0  0  0  0  0  0
   38.5330   20.9780   36.8670 C   0  0  0  0  0  3  0  0  0  0  0  0
   38.0520   21.5900   36.0560 H   0  0  0  0  0  0  0  0  0  0  0  0
   37.5690   20.6790   37.9910 C   0  0  2  0  0  3  0  0  0  0  0  0
   35.8300   20.9520   37.5030 S   0  0  0  0  0  0  0  0  0  0  0  0
   34.2370   22.4840   39.1250 C   0  0  0  0  0  2  0  0  0  0  0  0
   33.4650   22.8460   38.4140 H   0  0  0  0  0  0  0  0  0  0  0  0
  1  2  1  0  0  0  0
  2  3  2  0  0  0  0
  2 18  1  0  0  0  0
  3 11  1  0  0  0  0
  4  9  1  0  0  0  0
  4  3  1  0  0  0  0
  5  4  2  0  0  0  0
  6  5  1  0  0  0  0
  6  1  2  0  0  0  0
  7  5  1  0  0  0  0
  7  8  1  0  0  0  0
  8  9  1  0  0  0  0
  8 13  1  1  0  0  0
 10  1  1  0  0  0  0
 12  6  1  0  0  0  0
 14 20  1  0  0  0  0
 15 14  1  0  0  0  0
 15 22  1  0  0  0  0
 16 15  2  0  0  0  0
 17 16  1  0  0  0  0
 17 18  2  0  0  0  0
 18 19  1  0  0  0  0
 19 14  2  0  0  0  0
 21 16  1  0  0  0  0
 22 23  1  0  0  0  0
 23 24  1  0  0  0  0
 23 29  1  0  0  0  0
 24 25  1  0  0  0  0
 24 30  1  0  0  0  0
 25 32  1  0  0  0  0
 26 25  1  0  0  0  0
 26 33  1  0  0  0  0
 27 22  1  0  0  0  0
 27 26  1  0  0  0  0
 28 23  1  0  0  0  0
 31 24  1  0  0  0  0
 34 26  1  0  0  0  0
 35 27  1  0  0  0  0
 36 27  1  0  0  0  0
 37  8  1  0  0  0  0
 38 37  1  6  0  0  0
 38 47  1  0  0  0  0
 38 39  1  0  0  0  0
 40 39  1  0  0  0  0
 41 42  2  0  0  0  0
 41 40  1  0  0  0  0
 43 41  1  0  0  0  0
 44 43  1  0  0  0  0
 45 43  1  6  0  0  0
 45 40  1  0  0  0  0
 46 45  1  0  0  0  0
 46 38  1  0  0  0  0
 48 47  1  0  0  0  0
M  END
>  <minimizedAffinity>
-5.56028605

$$$$

 OpenBabel03242518273D

 48 53  0  0  1  0  0  0  0  0999 V2000
   35.4220   29.4750   37.7170 C   0  0  0  0  0  0  0  0  0  0  0  0
   36.6130   29.3660   38.3390 C   0  0  0  0  0  0  0  0  0  0  0  0
   37.0930   28.0930   38.6350 C   0  0  0  0  0  0  0  0  0  0  0  0
   36.3560   26.9840   38.2960 C   0  0  0  0  0  0  0  0  0  0  0  0
   35.1200   27.1220   37.6520 C   0  0  0  0  0  0  0  0  0  0  0  0
   34.6400   28.3870   37.3550 C   0  0  0  0  0  0  0  0  0  0  0  0
   34.6160   25.8350   37.4400 O   0  0  0  0  0  0  0  0  0  0  0  0
   35.3780   24.9310   38.2090 C   0  0  2  0  0  0  0  0  0  0  0  0
   36.5770   25.6120   38.4630 O   0  0  0  0  0  0  0  0  0  0  0  0
   35.0880   30.4830   37.5070 H   0  0  0  0  0  0  0  0  0  0  0  0
   38.0340   27.9460   39.1270 H   0  0  0  0  0  0  0  0  0  0  0  0
   33.6840   28.5290   36.8550 H   0  0  0  0  0  0  0  0  0  0  0  0
   34.8570   24.8090   39.1810 H   0  0  0  0  0  0  0  0  0  0  0  0
   39.3520   31.8370   38.5990 C   0  0  0  0  0  0  0  0  0  0  0  0
   38.8280   32.7830   39.4580 C   0  0  0  0  0  0  0  0  0  0  0  0
   37.5300   32.5540   39.9370 C   0  0  0  0  0  0  0  0  0  0  0  0
   36.8440   31.4470   39.5590 N   0  0  0  0  0  0  0  0  0  0  0  0
   37.4090   30.5440   38.7070 C   0  0  0  0  0  0  0  0  0  0  0  0
   38.6450   30.7440   38.2390 N   0  0  0  0  0  0  0  0  0  0  0  0
   40.3490   31.9590   38.1960 H   0  0  0  0  0  0  0  0  0  0  0  0
   37.1280   33.3020   40.6100 H   0  0  0  0  0  0  0  0  0  0  0  0
   39.6290   33.8920   39.7810 N   0  0  0  0  0  0  0  0  0  0  0  0
   39.0320   34.9720   40.5000 C   0  0  0  0  0  0  0  0  0  0  0  0
   39.9470   36.1330   40.6990 C   0  0  0  0  0  0  0  0  0  0  0  0
   41.2310   35.7570   41.1830 N   0  0  0  0  0  0  0  0  0  0  0  0
   41.7990   34.5540   40.6800 C   0  0  0  0  0  0  0  0  0  0  0  0
   41.0220   34.0680   39.4630 C   0  0  0  0  0  0  0  0  0  0  0  0
   38.0840   35.3440   40.0600 H   0  0  0  0  0  0  0  0  0  0  0  0
   38.7330   34.5870   41.5130 H   0  0  0  0  0  0  0  0  0  0  0  0
   39.4710   36.8070   41.4440 H   0  0  0  0  0  0  0  0  0  0  0  0
   40.0690   36.7410   39.7710 H   0  0  0  0  0  0  0  0  0  0  0  0
   41.3920   35.9080   42.1960 H   0  0  0  0  0  0  0  0  0  0  0  0
   41.8780   33.7370   41.4150 H   0  0  0  0  0  0  0  0  0  0  0  0
   42.8330   34.7590   40.3370 H   0  0  0  0  0  0  0  0  0  0  0  0
   41.4570   33.1560   39.0410 H   0  0  0  0  0  0  0  0  0  0  0  0
   41.0960   34.8780   38.6930 H   0  0  0  0  0  0  0  0  0  0  0  0
   35.6450   23.6290   37.5390 C   0  0  0  0  0  2  0  0  0  0  0  0
   35.2830   22.4180   38.3240 C   0  0  2  0  0  0  0  0  0  0  0  0
   34.4930   21.4990   37.3850 C   0  0  0  0  0  2  0  0  0  0  0  0
   33.2170   22.2000   37.1890 N   0  0  0  0  0  0  0  0  0  0  0  0
   32.0580   22.9030   36.6900 C   0  0  0  0  0  0  0  0  0  0  0  0
   31.5680   22.9520   35.5290 O   0  0  0  0  0  0  0  0  0  0  0  0
   31.7610   23.4730   38.0530 C   0  0  0  0  0  3  0  0  0  0  0  0
   32.3440   24.4250   38.1910 H   0  0  0  0  0  0  0  0  0  0  0  0
   32.5520   22.2630   38.4910 C   0  0  2  0  0  3  0  0  0  0  0  0
   33.9750   22.7110   39.5460 S   0  0  0  0  0  0  0  0  0  0  0  0
   36.4440   21.6990   38.9160 C   0  0  0  0  0  2  0  0  0  0  0  0
   37.1230   22.4450   39.3790 H   0  0  0  0  0  0  0  0  0  0  0  0
  1  2  1  0  0  0  0
  2  3  2  0  0  0  0
  2 18  1  0  0  0  0
  3 11  1  0  0  0  0
  4  9  1  0  0  0  0
  4  3  1  0  0  0  0
  5  4  2  0  0  0  0
  6  5  1  0  0  0  0
  6  1  2  0  0  0  0
  7  5  1  0  0  0  0
  7  8  1  0  0  0  0
  8  9  1  0  0  0  0
  8 13  1  1  0  0  0
 10  1  1  0  0  0  0
 12  6  1  0  0  0  0
 14 15  1  0  0  0  0
 15 22  1  0  0  0  0
 15 16  2  0  0  0  0
 16 21  1  0  0  0  0
 17 16  1  0  0  0  0
 18 17  2  0  0  0  0
 19 14  2  0  0  0  0
 19 18  1  0  0  0  0
 20 14  1  0  0  0  0
 22 23  1  0  0  0  0
 23 24  1  0  0  0  0
 23 29  1  0  0  0  0
 24 25  1  0  0  0  0
 24 30  1  0  0  0  0
 25 32  1  0  0  0  0
 26 25  1  0  0  0  0
 26 33  1  0  0  0  0
 27 22  1  0  0  0  0
 27 26  1  0  0  0  0
 28 23  1  0  0  0  0
 31 24  1  0  0  0  0
 34 26  1  0  0  0  0
 35 27  1  0  0  0  0
 36 27  1  0  0  0  0
 37  8  1  0  0  0  0
 38 37  1  6  0  0  0
 38 47  1  0  0  0  0
 38 46  1  0  0  0  0
 39 38  1  0  0  0  0
 40 39  1  0  0  0  0
 40 45  1  0  0  0  0
 41 40  1  0  0  0  0
 41 43  1  0  0  0  0
 42 41  2  0  0  0  0
 43 44  1  0  0  0  0
 45 43  1  6  0  0  0
 45 46  1  0  0  0  0
 47 48  1  0  0  0  0
M  END
>  <minimizedAffinity>
-5.52369404

$$$$

 OpenBabel03242518273D

 48 53  0  0  1  0  0  0  0  0999 V2000
   35.1110   29.0410   39.3560 C   0  0  0  0  0  0  0  0  0  0  0  0
   35.4140   29.3200   38.0720 C   0  0  0  0  0  0  0  0  0  0  0  0
   36.3010   30.3600   37.8110 C   0  0  0  0  0  0  0  0  0  0  0  0
   36.8460   31.0770   38.8490 C   0  0  0  0  0  0  0  0  0  0  0  0
   36.5160   30.7690   40.1750 C   0  0  0  0  0  0  0  0  0  0  0  0
   35.6340   29.7350   40.4390 C   0  0  0  0  0  0  0  0  0  0  0  0
   37.2180   31.6580   40.9950 O   0  0  0  0  0  0  0  0  0  0  0  0
   37.7340   32.6900   40.1850 C   0  0  2  0  0  0  0  0  0  0  0  0
   37.7450   32.1480   38.8910 O   0  0  0  0  0  0  0  0  0  0  0  0
   34.4170   28.2250   39.5120 H   0  0  0  0  0  0  0  0  0  0  0  0
   36.5790   30.6260   36.8100 H   0  0  0  0  0  0  0  0  0  0  0  0
   35.3570   29.4700   41.4570 H   0  0  0  0  0  0  0  0  0  0  0  0
   36.9900   33.5140   40.1910 H   0  0  0  0  0  0  0  0  0  0  0  0
   34.5850   28.1190   34.6740 C   0  0  0  0  0  0  0  0  0  0  0  0
   33.7000   27.0880   34.9230 C   0  0  0  0  0  0  0  0  0  0  0  0
   33.4010   26.8200   36.2670 C   0  0  0  0  0  0  0  0  0  0  0  0
   33.9680   27.5540   37.2560 N   0  0  0  0  0  0  0  0  0  0  0  0
   34.8360   28.5620   36.9550 C   0  0  0  0  0  0  0  0  0  0  0  0
   35.1340   28.8340   35.6800 N   0  0  0  0  0  0  0  0  0  0  0  0
   34.8540   28.3730   33.6570 H   0  0  0  0  0  0  0  0  0  0  0  0
   32.7060   26.0090   36.4510 H   0  0  0  0  0  0  0  0  0  0  0  0
   33.1740   26.3940   33.8200 N   0  0  0  0  0  0  0  0  0  0  0  0
   31.8450   26.7050   33.3970 C   0  0  0  0  0  0  0  0  0  0  0  0
   31.3570   25.8380   32.2840 C   0  0  0  0  0  0  0  0  0  0  0  0
   32.2900   25.7180   31.2170 N   0  0  0  0  0  0  0  0  0  0  0  0
   33.6700   25.6360   31.5540 C   0  0  0  0  0  0  0  0  0  0  0  0
   33.8390   25.3780   33.0470 C   0  0  0  0  0  0  0  0  0  0  0  0
   31.0910   26.6880   34.2100 H   0  0  0  0  0  0  0  0  0  0  0  0
   31.8400   27.7690   33.0360 H   0  0  0  0  0  0  0  0  0  0  0  0
   30.4250   26.2990   31.8890 H   0  0  0  0  0  0  0  0  0  0  0  0
   31.0690   24.8190   32.6350 H   0  0  0  0  0  0  0  0  0  0  0  0
   32.0940   26.2980   30.3810 H   0  0  0  0  0  0  0  0  0  0  0  0
   34.2700   26.5140   31.2640 H   0  0  0  0  0  0  0  0  0  0  0  0
   34.1190   24.7710   31.0280 H   0  0  0  0  0  0  0  0  0  0  0  0
   34.8920   25.2850   33.3250 H   0  0  0  0  0  0  0  0  0  0  0  0
   33.3330   24.4030   33.2600 H   0  0  0  0  0  0  0  0  0  0  0  0
   39.0960   33.1520   40.5710 C   0  0  0  0  0  2  0  0  0  0  0  0
   40.0830   32.0750   40.8490 C   0  0  2  0  0  0  0  0  0  0  0  0
   41.4680   32.7320   40.8570 C   0  0  0  0  0  2  0  0  0  0  0  0
   41.7040   33.0860   39.4500 N   0  0  0  0  0  0  0  0  0  0  0  0
   41.9350   33.7330   38.1810 C   0  0  0  0  0  0  0  0  0  0  0  0
   42.4360   34.8610   37.9160 O   0  0  0  0  0  0  0  0  0  0  0  0
   41.3620   32.5620   37.4270 C   0  0  0  0  0  3  0  0  0  0  0  0
   40.2470   32.6830   37.3440 H   0  0  0  0  0  0  0  0  0  0  0  0
   41.7550   31.8350   38.6910 C   0  0  2  0  0  3  0  0  0  0  0  0
   40.3450   30.9530   39.4500 S   0  0  0  0  0  0  0  0  0  0  0  0
   39.8420   31.3330   42.1170 C   0  0  0  0  0  2  0  0  0  0  0  0
   38.7620   31.0890   42.1840 H   0  0  0  0  0  0  0  0  0  0  0  0
  1 10  1  0  0  0  0
  1  6  1  0  0  0  0
  2  1  2  0  0  0  0
  3  2  1  0  0  0  0
  3  4  2  0  0  0  0
  4  9  1  0  0  0  0
  4  5  1  0  0  0  0
  5  6  2  0  0  0  0
  5  7  1  0  0  0  0
  6 12  1  0  0  0  0
  8 13  1  1  0  0  0
  8 37  1  0  0  0  0
  8  7  1  0  0  0  0
  9  8  1  0  0  0  0
 11  3  1  0  0  0  0
 14 15  2  0  0  0  0
 14 19  1  0  0  0  0
 15 16  1  0  0  0  0
 16 21  1  0  0  0  0
 16 17  2  0  0  0  0
 18 17  1  0  0  0  0
 18  2  1  0  0  0  0
 19 18  2  0  0  0  0
 20 14  1  0  0  0  0
 22 15  1  0  0  0  0
 23 22  1  0  0  0  0
 23 28  1  0  0  0  0
 24 31  1  0  0  0  0
 24 23  1  0  0  0  0
 25 26  1  0  0  0  0
 25 24  1  0  0  0  0
 26 27  1  0  0  0  0
 27 36  1  0  0  0  0
 27 35  1  0  0  0  0
 27 22  1  0  0  0  0
 29 23  1  0  0  0  0
 30 24  1  0  0  0  0
 32 25  1  0  0  0  0
 33 26  1  0  0  0  0
 34 26  1  0  0  0  0
 38 37  1  6  0  0  0
 38 39  1  0  0  0  0
 38 47  1  0  0  0  0
 40 39  1  0  0  0  0
 41 40  1  0  0  0  0
 42 41  2  0  0  0  0
 43 41  1  0  0  0  0
 44 43  1  0  0  0  0
 45 43  1  6  0  0  0
 45 46  1  0  0  0  0
 45 40  1  0  0  0  0
 46 38  1  0  0  0  0
 47 48  1  0  0  0  0
M  END
>  <minimizedAffinity>
-5.44244337

$$$$
