
 OpenBabel03242512053D

 23 26  0  0  1  0  0  0  0  0999 V2000
   47.5730   32.0090   38.0400 C   0  0  0  0  0  0  0  0  0  0  0  0
   46.3540   32.8440   37.9450 C   0  0  0  0  0  2  0  0  0  0  0  0
   46.0110   33.3690   39.2180 N   0  0  2  0  0  0  0  0  0  0  0  0
   45.3120   33.7800   40.3890 C   0  0  1  0  0  0  0  0  0  0  0  0
   44.1290   34.2280   40.5610 O   0  0  0  0  0  1  0  0  0  0  0  0
   46.5270   33.4480   41.1620 C   0  0  1  0  0  3  0  0  0  0  0  0
   47.1760   33.8860   39.8530 C   0  0  1  0  0  0  0  0  0  0  0  0
   48.5550   32.8880   39.3190 S   0  0  0  0  0  0  0  0  0  0  0  0
   46.9060   34.3950   42.2380 C   0  0  0  0  0  0  0  0  0  0  0  0
   47.7010   35.3620   42.0410 O   0  0  0  0  0  0  0  0  0  0  0  0
   45.3190   35.0710   43.9990 C   0  0  0  0  0  0  0  0  0  0  0  0
   46.3810   34.2570   43.5750 C   0  0  0  0  0  0  0  0  0  0  0  0
   46.9120   33.3190   44.4660 C   0  0  0  0  0  0  0  0  0  0  0  0
   46.3660   33.2470   45.7030 N   0  0  0  0  0  0  0  0  0  0  0  0
   45.3440   34.0450   46.0860 C   0  0  0  0  0  0  0  0  0  0  0  0
   44.8250   34.9500   45.2370 N   0  0  0  0  0  0  0  0  0  0  0  0
   44.8850   35.8020   43.3440 H   0  0  0  0  0  0  0  0  0  0  0  0
   47.7290   32.6950   44.1340 H   0  0  0  0  0  0  0  0  0  0  0  0
   45.0780   33.8080   47.1100 H   0  0  0  0  0  0  0  0  0  0  0  0
   48.4490   32.0450   36.7900 C   0  0  0  0  0  2  0  0  0  0  0  0
   49.1790   31.1970   36.9040 H   0  0  0  0  0  0  0  0  0  0  0  0
   47.3780   30.6070   38.5200 C   0  0  0  0  0  2  0  0  0  0  0  0
   48.2640   30.0090   38.1570 H   0  0  0  0  0  0  0  0  0  0  0  0
  1 22  1  0  0  0  0
  1  8  1  0  0  0  0
  2  1  1  0  0  0  0
  3  2  1  6  0  0  0
  3  7  1  0  0  0  0
  3  4  1  0  0  0  0
  4  5  1  1  0  0  0
  4  6  1  0  0  0  0
  6  9  1  1  0  0  0
  7  8  1  6  0  0  0
  7  4  1  0  0  0  0
  7  6  1  0  0  0  0
  9 12  1  0  0  0  0
 10  9  2  0  0  0  0
 11 16  1  0  0  0  0
 12 11  2  0  0  0  0
 12 13  1  0  0  0  0
 13 14  2  0  0  0  0
 14 15  1  0  0  0  0
 15 19  1  0  0  0  0
 16 15  2  0  0  0  0
 17 11  1  0  0  0  0
 18 13  1  0  0  0  0
 20 21  1  0  0  0  0
 20  1  1  0  0  0  0
 23 22  1  0  0  0  0
M  END
>  <minimizedAffinity>
-4.16708899

>  <minimizedRMSD>
0.991731465

$$$$
