
     RDKit          3D

 31 33  0  0  0  0  0  0  0  0999 V2000
   45.2043   35.9731   43.3731 C   0  0  0  0  0  0  0  0  0  0  0  0
   46.0873   34.9126   43.1511 C   0  0  0  0  0  0  0  0  0  0  0  0
   46.2463   33.9585   44.1669 C   0  0  0  0  0  0  0  0  0  0  0  0
   45.5335   34.1170   45.3111 N   0  0  0  0  0  0  0  0  0  0  0  0
   44.6878   35.1508   45.4986 C   0  0  0  0  0  0  0  0  0  0  0  0
   44.5362   36.0590   44.5322 N   0  0  0  0  0  0  0  0  0  0  0  0
   46.8248   34.7834   41.9192 C   0  0  0  0  0  0  0  0  0  0  0  0
   47.9087   35.3986   41.8208 O   0  0  0  0  0  0  0  0  0  0  0  0
   45.0488   36.7305   42.6229 H   0  0  0  0  0  0  0  0  0  0  0  0
   44.1411   35.2306   46.4339 H   0  0  0  0  0  0  0  0  0  0  0  0
   46.2777   34.1304   41.2404 H   0  0  0  0  0  0  0  0  0  0  0  0
   47.1692   32.8177   43.9797 C   0  0  0  0  0  0  0  0  0  0  0  0
   47.1321   31.9699   45.2230 C   0  0  2  0  0  0  0  0  0  0  0  0
   47.5536   32.7435   46.4271 C   0  0  0  0  0  0  0  0  0  0  0  0
   48.0996   33.6601   46.1311 H   0  0  0  0  0  0  0  0  0  0  0  0
   47.9709   30.7295   45.1255 C   0  0  0  0  0  0  0  0  0  0  0  0
   47.1397   29.6784   44.5958 N   0  0  0  0  0  0  0  0  0  0  0  0
   46.6373   28.6097   43.7852 C   0  0  0  0  0  0  0  0  0  0  0  0
   47.2314   27.8470   42.9748 O   0  0  0  0  0  0  0  0  0  0  0  0
   45.2316   28.7921   44.2868 C   0  0  1  0  0  0  0  0  0  0  0  0
   44.6052   29.4004   43.6127 H   0  0  0  0  0  0  0  0  0  0  0  0
   45.9332   29.5370   45.3933 C   0  0  2  0  0  0  0  0  0  0  0  0
   45.4717   31.2937   45.5286 S   0  0  0  0  0  0  0  0  0  0  0  0
   48.2020   33.2537   43.9493 H   0  0  0  0  0  0  0  0  0  0  0  0
   47.0077   32.2464   43.0684 H   0  0  0  0  0  0  0  0  0  0  0  0
   48.2806   32.1690   47.0611 H   0  0  0  0  0  0  0  0  0  0  0  0
   46.6963   32.9592   47.1291 H   0  0  0  0  0  0  0  0  0  0  0  0
   48.7940   30.9269   44.4432 H   0  0  0  0  0  0  0  0  0  0  0  0
   48.3669   30.4301   46.1281 H   0  0  0  0  0  0  0  0  0  0  0  0
   44.7593   27.8579   44.6657 H   0  0  0  0  0  0  0  0  0  0  0  0
   46.0496   29.0107   46.3424 H   0  0  0  0  0  0  0  0  0  0  0  0
  1  6  2  0
  2  1  1  0
  2  3  2  0
  3  4  1  0
  4  5  2  0
  6  5  1  0
  7  2  1  0
  8  7  2  0
  1  9  1  0
  5 10  1  0
  7 11  1  0
 13 12  1  6
 13 14  1  0
 14 15  1  0
 13 16  1  0
 16 17  1  0
 17 18  1  0
 18 19  2  0
 18 20  1  0
 20 21  1  6
 20 22  1  0
 22 23  1  0
 23 13  1  0
 22 17  1  0
 12 24  1  0
 12 25  1  0
 14 26  1  0
 14 27  1  0
 16 28  1  0
 16 29  1  0
 20 30  1  0
 22 31  1  1
  3 12  1  0
M  ISO  5   9  14  10  14  11   6  15   8  21  15
M  END
>  <DihAtoms>  (1) 
1,2,11,12

>  <DihDeg>  (1) 
-179.99274185765947

$$$$
