
     RDKit          3D

 53 56  0  0  0  0  0  0  0  0999 V2000
   45.8577   31.2482   46.3810 C   0  0  2  0  0  0  0  0  0  0  0  0
   45.5946   30.5691   47.6868 C   0  0  0  0  0  0  0  0  0  0  0  0
   44.9376   29.2684   47.3746 C   0  0  0  0  0  0  0  0  0  0  0  0
   44.6392   29.0202   45.9387 C   0  0  0  0  0  0  0  0  0  0  0  0
   45.8856   29.1613   45.1100 C   0  0  0  0  0  0  0  0  0  0  0  0
   46.6741   30.3202   45.5030 C   0  0  2  0  0  0  0  0  0  0  0  0
   46.4607   32.5977   46.5057 C   0  0  0  0  0  0  0  0  0  0  0  0
   47.2947   32.8903   47.3998 O   0  0  0  0  0  0  0  0  0  0  0  0
   44.6778   35.3727   44.9381 C   0  0  0  0  0  0  0  0  0  0  0  0
   45.2607   35.4795   43.6515 C   0  0  0  0  0  0  0  0  0  0  0  0
   46.2707   34.5807   43.3583 C   0  0  0  0  0  0  0  0  0  0  0  0
   46.5741   33.7178   44.3298 N   0  0  0  0  0  0  0  0  0  0  0  0
   46.0389   33.6098   45.5278 C   0  0  0  0  0  0  0  0  0  0  0  0
   45.0566   34.4698   45.8387 N   0  0  0  0  0  0  0  0  0  0  0  0
   46.8702   34.6798   42.0372 C   0  0  0  0  0  0  0  0  0  0  0  0
   47.6349   33.5467   41.7839 F   0  0  0  0  0  0  0  0  0  0  0  0
   47.6823   35.7668   42.0518 F   0  0  0  0  0  0  0  0  0  0  0  0
   45.9167   34.7185   41.0265 F   0  0  0  0  0  0  0  0  0  0  0  0
   47.8408   29.7845   46.2598 C   0  0  0  0  0  0  0  0  0  0  0  0
   44.8995   31.3637   45.8337 H   0  0  0  0  0  0  0  0  0  0  0  0
   46.4695   30.4589   48.3384 H   0  0  0  0  0  0  0  0  0  0  0  0
   44.9056   31.2590   48.2692 H   0  0  0  0  0  0  0  0  0  0  0  0
   45.4471   28.3701   47.8120 H   0  0  0  0  0  0  0  0  0  0  0  0
   43.9394   29.2664   47.8986 H   0  0  0  0  0  0  0  0  0  0  0  0
   44.2704   27.9678   45.8703 H   0  0  0  0  0  0  0  0  0  0  0  0
   43.7903   29.6467   45.5575 H   0  0  0  0  0  0  0  0  0  0  0  0
   46.3752   28.1713   45.0824 H   0  0  0  0  0  0  0  0  0  0  0  0
   45.5249   29.3168   44.0507 H   0  0  0  0  0  0  0  0  0  0  0  0
   47.0392   30.8921   44.6477 H   0  0  0  0  0  0  0  0  0  0  0  0
   43.8725   36.0674   45.2113 H   0  0  0  0  0  0  0  0  0  0  0  0
   44.9025   36.2376   42.9706 H   0  0  0  0  0  0  0  0  0  0  0  0
   47.5905   29.2449   47.1921 H   0  0  0  0  0  0  0  0  0  0  0  0
   48.4787   30.6536   46.5386 H   0  0  0  0  0  0  0  0  0  0  0  0
   47.5121   24.1707   43.9079 C   0  0  0  0  0  0  0  0  0  0  0  0
   47.4080   23.3185   44.6095 H   0  0  0  0  0  0  0  0  0  0  0  0
   48.6486   25.1059   44.2654 C   0  0  0  0  0  0  0  0  0  0  0  0
   49.9653   24.6409   43.7232 C   0  0  0  0  0  0  0  0  0  0  0  0
   50.5139   24.1421   44.5750 H   0  0  0  0  0  0  0  0  0  0  0  0
   48.6852   25.4012   45.7452 C   0  0  0  0  0  0  0  0  0  0  0  0
   49.0539   26.7899   45.9175 N   0  0  0  0  0  0  0  0  0  0  0  0
   49.6512   28.0444   46.2288 C   0  0  0  0  0  0  0  0  0  0  0  0
   50.6566   28.3099   46.9665 O   0  0  0  0  0  0  0  0  0  0  0  0
   48.7083   28.8493   45.4146 C   0  0  1  0  0  0  0  0  0  0  0  0
   47.9769   27.5377   45.2599 C   0  0  1  0  0  0  0  0  0  0  0  0
   48.1688   26.7545   43.6084 S   0  0  0  0  0  0  0  0  0  0  0  0
   46.5686   24.7563   43.9064 H   0  0  0  0  0  0  0  0  0  0  0  0
   47.6792   23.8369   42.8602 H   0  0  0  0  0  0  0  0  0  0  0  0
   50.5891   25.4145   43.2682 H   0  0  0  0  0  0  0  0  0  0  0  0
   49.7541   23.7972   43.0035 H   0  0  0  0  0  0  0  0  0  0  0  0
   47.6686   25.2807   46.1824 H   0  0  0  0  0  0  0  0  0  0  0  0
   49.4056   24.7633   46.2546 H   0  0  0  0  0  0  0  0  0  0  0  0
   49.0787   29.2646   44.4777 H   0  0  0  0  0  0  0  0  0  0  0  0
   46.9867   27.4539   45.7045 H   0  0  0  0  0  0  0  0  0  0  0  0
  1  7  1  0
  1  2  1  0
  3  2  1  0
  4  3  1  0
  5  6  1  0
  5  4  1  0
  6 19  1  0
  6  1  1  0
  7  8  2  0
  9 14  2  0
 10  9  1  0
 11 10  2  0
 11 12  1  0
 12 13  2  0
 13 14  1  0
 13  7  1  0
 15 17  1  0
 15 11  1  0
 16 15  1  0
 18 15  1  0
  1 20  1  6
  2 21  1  0
  2 22  1  0
  3 23  1  0
  3 24  1  0
  4 25  1  0
  4 26  1  0
  5 27  1  0
  5 28  1  0
  6 29  1  6
  9 30  1  0
 10 31  1  0
 19 32  1  0
 19 33  1  0
 34 35  1  0
 34 36  1  0
 36 37  1  0
 37 38  1  0
 36 39  1  0
 39 40  1  0
 40 41  1  0
 41 42  2  0
 41 43  1  0
 43 44  1  0
 44 45  1  0
 45 36  1  0
 44 40  1  0
 34 46  1  0
 34 47  1  0
 37 48  1  0
 37 49  1  0
 39 50  1  0
 39 51  1  0
 43 52  1  6
 44 53  1  1
 19 43  1  0
M  ISO  8  20  13  21  13  22  13  23  13  24  13  25  13  26  13  27  13
M  ISO  8  28  13  29  13  30  14  31  14  32   8  33   8  35   8  38   8
M  END
>  <DihAtoms>  (1) 
5,18,42,40

>  <DihDeg>  (1) 
59.85295825572929

$$$$
