
 OpenBabel03252508503D

 31 34  0  0  1  0  0  0  0  0999 V2000
   45.8230   33.8450   41.4470 C   0  0  0  0  0  0  0  0  0  0  0  0
   46.4490   34.5930   42.4430 C   0  0  0  0  0  0  0  0  0  0  0  0
   47.6920   35.1550   42.1350 C   0  0  0  0  0  0  0  0  0  0  0  0
   48.2090   34.9370   40.8940 N   0  0  0  0  0  0  0  0  0  0  0  0
   47.5750   34.2100   39.9650 C   0  0  0  0  0  0  0  0  0  0  0  0
   46.3740   33.6630   40.2470 N   0  0  0  0  0  0  0  0  0  0  0  0
   48.1710   35.7260   42.8930 H   0  0  0  0  0  0  0  0  0  0  0  0
   47.9690   34.0270   38.9740 H   0  0  0  0  0  0  0  0  0  0  0  0
   45.7980   34.7610   43.7430 C   0  0  0  0  0  0  0  0  0  0  0  0
   44.9310   35.8080   44.0200 C   0  0  0  0  0  0  0  0  0  0  0  0
   44.5620   35.5790   45.3290 C   0  0  0  0  0  0  0  0  0  0  0  0
   45.1640   34.4670   45.8160 N   0  0  0  0  0  0  0  0  0  0  0  0
   45.9030   33.9950   44.8360 N   0  0  0  0  0  0  0  0  0  0  0  0
   44.5940   36.6360   43.3840 H   0  0  0  0  0  0  0  0  0  0  0  0
   43.8790   36.1950   45.9160 H   0  0  0  0  0  0  0  0  0  0  0  0
   45.0290   34.1050   46.7880 H   0  0  0  0  0  0  0  0  0  0  0  0
   44.5990   33.2850   41.7320 O   0  0  0  0  0  0  0  0  0  0  0  0
   43.3830   33.6730   41.2450 C   0  0  0  0  0  0  0  0  0  0  0  0
   42.6930   34.6860   41.5880 O   0  0  0  0  0  0  0  0  0  0  0  0
   39.2150   33.0340   38.3320 C   0  0  0  0  0  0  0  0  0  0  0  0
   40.2330   34.0040   37.7670 C   0  0  0  0  0  2  0  0  0  0  0  0
   41.4730   33.7820   38.4880 N   0  0  0  0  0  0  0  0  0  0  0  0
   42.8490   33.4940   38.8210 C   0  0  0  0  0  0  0  0  0  0  0  0
   43.8760   33.6050   38.0680 O   0  0  0  0  0  0  0  0  0  0  0  0
   42.4570   33.0990   40.1970 C   0  0  2  0  0  3  0  0  0  0  0  0
   41.2620   33.9520   39.9150 C   0  0  2  0  0  3  0  0  0  0  0  0
   39.6640   33.0910   40.1110 S   0  0  0  0  0  0  0  0  0  0  0  0
   37.8120   33.5580   38.1270 C   0  0  0  0  0  2  0  0  0  0  0  0
   37.7340   34.1280   37.1770 H   0  0  0  0  0  0  0  0  0  0  0  0
   39.3280   31.6540   37.7610 C   0  0  0  0  0  2  0  0  0  0  0  0
   40.1130   31.0250   38.2240 H   0  0  0  0  0  0  0  0  0  0  0  0
  1 17  1  0  0  0  0
  1  2  1  0  0  0  0
  2  9  1  0  0  0  0
  3  2  2  0  0  0  0
  3  7  1  0  0  0  0
  4  3  1  0  0  0  0
  5  6  1  0  0  0  0
  5  4  2  0  0  0  0
  6  1  2  0  0  0  0
  8  5  1  0  0  0  0
  9 10  1  0  0  0  0
  9 13  2  0  0  0  0
 10 11  2  0  0  0  0
 11 12  1  0  0  0  0
 11 15  1  0  0  0  0
 12 16  1  0  0  0  0
 13 12  1  0  0  0  0
 14 10  1  0  0  0  0
 18 19  2  0  0  0  0
 18 17  1  0  0  0  0
 20 27  1  0  0  0  0
 21 20  1  0  0  0  0
 21 22  1  0  0  0  0
 22 23  1  0  0  0  0
 22 26  1  0  0  0  0
 23 25  1  0  0  0  0
 24 23  2  0  0  0  0
 25 18  1  1  0  0  0
 26 27  1  1  0  0  0
 26 25  1  0  0  0  0
 28 20  1  0  0  0  0
 29 28  1  0  0  0  0
 30 31  1  0  0  0  0
 30 20  1  0  0  0  0
M  END
>  <minimizedAffinity>
-5.80919075

>  <minimizedRMSD>
0.706280291

$$$$
