REMARK  Name = 
REMARK  4 active torsions:
REMARK  status: ('A' for Active; 'I' for Inactive)
REMARK    1  A    between atoms: C_2  and  C_7
REMARK    2  A    between atoms: C_3  and  C_12
REMARK    3  A    between atoms: C_12  and  C_13
REMARK    4  A    between atoms: C_13  and  C_14
REMARK                            x       y       z     vdW  Elec       q    Type
REMARK                         _______ _______ _______ _____ _____    ______ ____
ROOT
ATOM      1  C   UNL     1      47.169  32.818  43.980  0.00  0.00    +0.000 C 
ENDROOT
BRANCH   1   2
ATOM      2  C   UNL     1      46.644  31.649  44.770  0.00  0.00    +0.000 C 
ATOM      3  C   UNL     1      47.454  30.398  44.596  0.00  0.00    +0.000 C 
ATOM      4  N   UNL     1      46.902  29.669  43.483  0.00  0.00    +0.000 N 
ATOM      5  C   UNL     1      46.763  28.964  42.244  0.00  0.00    +0.000 C 
ATOM      6  O   UNL     1      47.630  28.409  41.515  0.00  0.00    +0.000 OA
ATOM      7  C   UNL     1      45.273  29.166  42.211  0.00  0.00    +0.000 C 
ATOM      8  H   UNL     1      44.965  30.023  41.589  0.00  0.00    +0.000 HD
ATOM      9  C   UNL     1      45.478  29.451  43.677  0.00  0.00    +0.000 C 
ATOM     10  S   UNL     1      44.999  31.130  44.193  0.00  0.00    +0.000 S 
BRANCH   2  11
ATOM     11  C   UNL     1      46.553  31.967  46.224  0.00  0.00    +0.000 C 
ATOM     12  H   UNL     1      47.170  32.853  46.470  0.00  0.00    +0.000 HD
ENDBRANCH   2  11
ENDBRANCH   1   2
BRANCH   1  15
ATOM     13  C   UNL     1      45.204  35.973  43.373  0.00  0.00    +0.000 A 
ATOM     14  C   UNL     1      46.087  34.913  43.151  0.00  0.00    +0.000 A 
ATOM     15  C   UNL     1      46.246  33.959  44.167  0.00  0.00    +0.000 A 
ATOM     16  N   UNL     1      45.533  34.117  45.311  0.00  0.00    +0.000 NA
ATOM     17  C   UNL     1      44.688  35.151  45.499  0.00  0.00    +0.000 A 
ATOM     18  N   UNL     1      44.536  36.059  44.532  0.00  0.00    +0.000 NA
ATOM     19  H   UNL     1      45.049  36.730  42.623  0.00  0.00    +0.000 HD
ATOM     20  H   UNL     1      44.141  35.231  46.434  0.00  0.00    +0.000 HD
BRANCH  14  21
ATOM     21  C   UNL     1      46.825  34.783  41.919  0.00  0.00    +0.000 C 
ATOM     22  O   UNL     1      47.909  35.399  41.821  0.00  0.00    +0.000 OA
ATOM     23  H   UNL     1      46.278  34.130  41.240  0.00  0.00    +0.000 HD
ENDBRANCH  14  21
ENDBRANCH   1  15
TORSDOF 4
