
     RDKit          3D

 31 33  0  0  0  0  0  0  0  0999 V2000
   46.2164   34.8419   43.1920 C   0  0  0  0  0  0  0  0  0  0  0  0
   45.3248   35.9118   43.2772 C   0  0  0  0  0  0  0  0  0  0  0  0
   44.5613   36.0073   44.4531 C   0  0  0  0  0  0  0  0  0  0  0  0
   44.7379   35.0642   45.4189 N   0  0  0  0  0  0  0  0  0  0  0  0
   45.6206   34.0428   45.2839 C   0  0  0  0  0  0  0  0  0  0  0  0
   46.3467   33.9485   44.1703 N   0  0  0  0  0  0  0  0  0  0  0  0
   46.9675   34.7948   41.9724 C   0  0  0  0  0  0  0  0  0  0  0  0
   48.0519   35.3919   41.7263 O   0  0  0  0  0  0  0  0  0  0  0  0
   45.1867   36.6552   42.5138 H   0  0  0  0  0  0  0  0  0  0  0  0
   43.8529   36.8059   44.5896 H   0  0  0  0  0  0  0  0  0  0  0  0
   46.6319   34.1982   41.1106 H   0  0  0  0  0  0  0  0  0  0  0  0
   45.7776   33.0470   46.3543 C   0  0  0  0  0  0  0  0  0  0  0  0
   45.8163   31.6391   45.8161 C   0  0  2  0  0  0  0  0  0  0  0  0
   44.5579   31.2608   45.0648 C   0  0  0  0  0  0  0  0  0  0  0  0
   44.6478   31.4710   43.9946 H   0  0  0  0  0  0  0  0  0  0  0  0
   45.9886   30.6445   46.9172 C   0  0  0  0  0  0  0  0  0  0  0  0
   47.3429   30.2084   46.9614 N   0  0  0  0  0  0  0  0  0  0  0  0
   48.6514   29.8561   47.3902 C   0  0  0  0  0  0  0  0  0  0  0  0
   49.2701   29.5938   48.4513 O   0  0  0  0  0  0  0  0  0  0  0  0
   49.2192   29.8771   46.0158 C   0  0  2  0  0  0  0  0  0  0  0  0
   49.8021   28.9952   45.7193 H   0  0  0  0  0  0  0  0  0  0  0  0
   47.7609   29.8345   45.6355 C   0  0  2  0  0  0  0  0  0  0  0  0
   47.2163   31.3292   44.7137 S   0  0  0  0  0  0  0  0  0  0  0  0
   44.8725   33.0938   46.9916 H   0  0  0  0  0  0  0  0  0  0  0  0
   46.6783   33.2028   46.9511 H   0  0  0  0  0  0  0  0  0  0  0  0
   44.3692   30.1513   45.1598 H   0  0  0  0  0  0  0  0  0  0  0  0
   43.6891   31.7288   45.5559 H   0  0  0  0  0  0  0  0  0  0  0  0
   45.6934   31.1587   47.8689 H   0  0  0  0  0  0  0  0  0  0  0  0
   45.3358   29.7489   46.8433 H   0  0  0  0  0  0  0  0  0  0  0  0
   49.7182   30.8580   45.8713 H   0  0  0  0  0  0  0  0  0  0  0  0
   47.3851   28.9032   45.2130 H   0  0  0  0  0  0  0  0  0  0  0  0
  1  2  2  0
  1  6  1  0
  2  3  1  0
  3  4  2  0
  5  4  1  0
  6  5  2  0
  7  1  1  0
  8  7  2  0
  2  9  1  0
  3 10  1  0
  7 11  1  0
 13 12  1  1
 13 14  1  0
 14 15  1  0
 13 16  1  0
 16 17  1  0
 17 18  1  0
 18 19  2  0
 18 20  1  0
 20 21  1  6
 20 22  1  0
 22 23  1  0
 23 13  1  0
 22 17  1  0
 12 24  1  0
 12 25  1  0
 14 26  1  0
 14 27  1  0
 16 28  1  0
 16 29  1  0
 20 30  1  0
 22 31  1  6
  5 12  1  0
M  ISO  5   9  14  10  14  11   6  15   8  21  15
M  END
>  <DihAtoms>  (1) 
3,4,11,12

>  <DihDeg>  (1) 
89.99995369881678

$$$$
