
     RDKit          3D

 37 39  0  0  0  0  0  0  0  0999 V2000
   46.1302   35.2756   42.6943 C   0  0  0  0  0  0  0  0  0  0  0  0
   46.6858   34.1789   43.3487 C   0  0  0  0  0  0  0  0  0  0  0  0
   46.2082   33.8373   44.6154 C   0  0  0  0  0  0  0  0  0  0  0  0
   45.2125   34.6059   45.1474 N   0  0  0  0  0  0  0  0  0  0  0  0
   44.7011   35.6515   44.4937 C   0  0  0  0  0  0  0  0  0  0  0  0
   45.1550   35.9810   43.2828 N   0  0  0  0  0  0  0  0  0  0  0  0
   47.7025   33.4723   42.6941 O   0  0  0  0  0  0  0  0  0  0  0  0
   49.5497   35.3611   42.7868 O   0  0  0  0  0  0  0  0  0  0  0  0
   48.9737   34.3045   41.9004 P   0  0  1  0  0  0  0  0  0  0  0  0
   50.2205   33.2497   41.5043 O   0  0  0  0  0  0  0  0  0  0  0  0
   48.4073   35.0367   40.5100 O   0  0  0  0  0  0  0  0  0  0  0  0
   48.0636   34.3891   39.3674 C   0  0  0  0  0  0  0  0  0  0  0  0
   46.9568   33.7454   39.5045 O   0  0  0  0  0  0  0  0  0  0  0  0
   46.4280   35.6241   41.7114 H   0  0  0  0  0  0  0  0  0  0  0  0
   46.6469   32.9827   45.1159 H   0  0  0  0  0  0  0  0  0  0  0  0
   43.9082   36.2666   44.9132 H   0  0  0  0  0  0  0  0  0  0  0  0
   50.3849   33.1669   40.5452 H   0  0  0  0  0  0  0  0  0  0  0  0
   46.5532   32.9690   34.2116 C   0  0  0  0  0  0  0  0  0  0  0  0
   47.5378   33.4156   34.3708 H   0  0  0  0  0  0  0  0  0  0  0  0
   45.9715   32.2194   35.3595 C   0  0  0  0  0  0  0  0  0  0  0  0
   44.7846   31.4178   34.8725 C   0  0  0  0  0  0  0  0  0  0  0  0
   44.1760   31.1963   35.7886 H   0  0  0  0  0  0  0  0  0  0  0  0
   46.8953   31.2855   36.0617 C   0  0  0  0  0  0  0  0  0  0  0  0
   47.6413   32.0399   37.0365 N   0  0  0  0  0  0  0  0  0  0  0  0
   48.7471   32.5910   37.7766 C   0  0  0  0  0  0  0  0  0  0  0  0
   49.9022   32.0829   37.9845 O   0  0  0  0  0  0  0  0  0  0  0  0
   47.8751   33.7665   38.0326 C   0  0  1  0  0  0  0  0  0  0  0  0
   46.7741   32.7716   37.9032 C   0  0  1  0  0  0  0  0  0  0  0  0
   45.4641   33.3149   36.7397 S   0  0  0  0  0  0  0  0  0  0  0  0
   45.8319   33.8006   33.9718 H   0  0  0  0  0  0  0  0  0  0  0  0
   46.5057   32.2992   33.3302 H   0  0  0  0  0  0  0  0  0  0  0  0
   45.1930   30.4647   34.4496 H   0  0  0  0  0  0  0  0  0  0  0  0
   44.2572   32.0128   34.1186 H   0  0  0  0  0  0  0  0  0  0  0  0
   47.5773   30.8705   35.3041 H   0  0  0  0  0  0  0  0  0  0  0  0
   46.3663   30.4186   36.5012 H   0  0  0  0  0  0  0  0  0  0  0  0
   47.8936   34.4822   37.1844 H   0  0  0  0  0  0  0  0  0  0  0  0
   46.4011   32.2703   38.7962 H   0  0  0  0  0  0  0  0  0  0  0  0
  1  6  2  0
  1  2  1  0
  2  3  2  0
  3  4  1  0
  5  4  2  0
  6  5  1  0
  7  2  1  0
  9  7  1  1
  9  8  2  0
 10  9  1  0
 11  9  1  0
 12 13  2  0
 12 11  1  0
  1 14  1  0
  3 15  1  0
  5 16  1  0
 10 17  1  0
 18 19  1  0
 18 20  1  0
 20 21  1  0
 21 22  1  0
 20 23  1  0
 23 24  1  0
 24 25  1  0
 25 26  2  0
 25 27  1  0
 27 28  1  0
 28 29  1  0
 29 20  1  0
 28 24  1  0
 18 30  1  0
 18 31  1  0
 21 32  1  0
 21 33  1  0
 23 34  1  0
 23 35  1  0
 27 36  1  6
 28 37  1  1
 12 27  1  0
M  ISO  6  14  14  15  14  16  14  17   3  19   8  22   8
M  END
>  <DihAtoms>  (1) 
12,11,26,24

>  <DihDeg>  (1) 
0.7115210933217894

$$$$
