
 OpenBabel03242518563D

 45 48  0  0  1  0  0  0  0  0999 V2000
   36.5410   29.2220   39.1250 C   0  0  2  0  0  0  0  0  0  0  0  0
   37.8290   28.5080   38.8630 C   0  0  0  0  0  0  0  0  0  0  0  0
   38.2870   28.9230   37.5070 C   0  0  0  0  0  0  0  0  0  0  0  0
   37.3640   29.8160   36.7560 C   0  0  0  0  0  0  0  0  0  0  0  0
   37.0380   31.0390   37.5680 C   0  0  0  0  0  0  0  0  0  0  0  0
   36.7660   30.7120   38.9610 C   0  0  2  0  0  0  0  0  0  0  0  0
   35.8170   28.9690   38.3240 H   0  0  0  0  0  0  0  0  0  0  0  0
   38.5980   28.6400   39.6310 H   0  0  0  0  0  0  0  0  0  0  0  0
   37.5890   27.3990   38.9050 H   0  0  0  0  0  0  0  0  0  0  0  0
   39.3260   29.3430   37.4720 H   0  0  0  0  0  0  0  0  0  0  0  0
   38.3770   27.9860   36.8850 H   0  0  0  0  0  0  0  0  0  0  0  0
   37.9080   30.1260   35.8300 H   0  0  0  0  0  0  0  0  0  0  0  0
   36.4490   29.2840   36.3860 H   0  0  0  0  0  0  0  0  0  0  0  0
   37.8070   31.7990   37.3420 H   0  0  0  0  0  0  0  0  0  0  0  0
   36.0950   31.4600   37.1100 H   0  0  0  0  0  0  0  0  0  0  0  0
   35.8930   31.2350   39.3540 H   0  0  0  0  0  0  0  0  0  0  0  0
   37.9710   31.1410   39.7250 C   0  0  0  0  0  0  0  0  0  0  0  0
   38.6710   30.3280   39.9950 H   0  0  0  0  0  0  0  0  0  0  0  0
   37.6130   31.6020   40.6740 H   0  0  0  0  0  0  0  0  0  0  0  0
   42.5460   32.9460   38.1950 C   0  0  0  0  0  0  0  0  0  0  0  0
   42.1210   32.8660   39.6410 C   0  0  0  0  0  2  0  0  0  0  0  0
   40.6760   32.9420   39.6890 N   0  0  0  0  0  0  0  0  0  0  0  0
   39.3040   33.2630   39.8940 C   0  0  0  0  0  0  0  0  0  0  0  0
   38.7760   34.1660   40.6230 O   0  0  0  0  0  0  0  0  0  0  0  0
   38.7830   32.2100   38.9890 C   0  0  1  0  0  3  0  0  0  0  0  0
   40.2230   31.7630   38.9440 C   0  0  1  0  0  3  0  0  0  0  0  0
   41.0930   32.1710   37.3770 S   0  0  0  0  0  0  0  0  0  0  0  0
   43.7200   32.0340   37.9050 C   0  0  0  0  0  2  0  0  0  0  0  0
   44.5100   32.0760   38.6810 H   0  0  0  0  0  0  0  0  0  0  0  0
   42.7800   34.3490   37.7250 C   0  0  0  0  0  2  0  0  0  0  0  0
   43.0800   34.9530   38.6310 H   0  0  0  0  0  0  0  0  0  0  0  0
   35.9050   28.8770   40.4210 C   0  0  0  0  0  0  0  0  0  0  0  0
   34.6910   29.0960   40.6620 O   0  0  0  0  0  0  0  0  0  0  0  0
   38.0820   28.4420   43.3210 C   0  0  0  0  0  0  0  0  0  0  0  0
   38.3880   27.0580   43.3230 C   0  0  0  0  0  0  0  0  0  0  0  0
   37.8220   26.3030   42.3120 C   0  0  0  0  0  0  0  0  0  0  0  0
   37.0530   26.9740   41.4520 N   0  0  0  0  0  0  0  0  0  0  0  0
   36.7620   28.2580   41.4410 C   0  0  0  0  0  0  0  0  0  0  0  0
   37.2980   29.0150   42.4110 N   0  0  0  0  0  0  0  0  0  0  0  0
   38.5100   29.0770   44.1060 H   0  0  0  0  0  0  0  0  0  0  0  0
   39.0310   26.6620   44.0940 H   0  0  0  0  0  0  0  0  0  0  0  0
   38.1360   24.8830   42.3040 C   0  0  0  0  0  0  0  0  0  0  0  0
   38.6540   24.5260   41.0640 F   0  0  0  0  0  0  0  0  0  0  0  0
   36.9690   24.2200   42.5030 F   0  0  0  0  0  0  0  0  0  0  0  0
   39.1220   24.5550   43.2260 F   0  0  0  0  0  0  0  0  0  0  0  0
  1  7  1  6  0  0  0
  1 32  1  0  0  0  0
  2  9  1  0  0  0  0
  2  1  1  0  0  0  0
  2  8  1  0  0  0  0
  3  2  1  0  0  0  0
  4  3  1  0  0  0  0
  4  5  1  0  0  0  0
  5  6  1  0  0  0  0
  6  1  1  0  0  0  0
  6 16  1  1  0  0  0
  6 17  1  0  0  0  0
 10  3  1  0  0  0  0
 11  3  1  0  0  0  0
 12  4  1  0  0  0  0
 13  4  1  0  0  0  0
 14  5  1  0  0  0  0
 15  5  1  0  0  0  0
 17 18  1  0  0  0  0
 17 19  1  0  0  0  0
 20 21  1  0  0  0  0
 21 22  1  0  0  0  0
 22 23  1  0  0  0  0
 23 24  2  0  0  0  0
 25 17  1  1  0  0  0
 25 23  1  0  0  0  0
 26 27  1  6  0  0  0
 26 25  1  0  0  0  0
 26 22  1  0  0  0  0
 27 20  1  0  0  0  0
 28 20  1  0  0  0  0
 28 29  1  0  0  0  0
 30 20  1  0  0  0  0
 30 31  1  0  0  0  0
 32 33  2  0  0  0  0
 32 38  1  0  0  0  0
 34 35  1  0  0  0  0
 34 40  1  0  0  0  0
 35 41  1  0  0  0  0
 36 35  2  0  0  0  0
 37 36  1  0  0  0  0
 38 37  2  0  0  0  0
 38 39  1  0  0  0  0
 39 34  2  0  0  0  0
 42 36  1  0  0  0  0
 42 44  1  0  0  0  0
 42 45  1  0  0  0  0
 43 42  1  0  0  0  0
M  END
>  <minimizedAffinity>
-6.31108522

$$$$

 OpenBabel03242518563D

 45 48  0  0  1  0  0  0  0  0999 V2000
   34.6040   28.8950   36.4320 C   0  0  2  0  0  0  0  0  0  0  0  0
   35.5100   27.9600   35.6960 C   0  0  0  0  0  0  0  0  0  0  0  0
   36.8560   28.6000   35.6580 C   0  0  0  0  0  0  0  0  0  0  0  0
   36.9410   29.9660   36.2410 C   0  0  0  0  0  0  0  0  0  0  0  0
   36.4280   29.9670   37.6550 C   0  0  0  0  0  0  0  0  0  0  0  0
   35.2050   29.1890   37.7920 C   0  0  2  0  0  0  0  0  0  0  0  0
   34.6040   29.8780   35.9180 H   0  0  0  0  0  0  0  0  0  0  0  0
   35.5370   26.9360   36.0850 H   0  0  0  0  0  0  0  0  0  0  0  0
   35.0690   27.8450   34.6560 H   0  0  0  0  0  0  0  0  0  0  0  0
   37.6870   27.9670   36.0640 H   0  0  0  0  0  0  0  0  0  0  0  0
   37.1390   28.7140   34.5720 H   0  0  0  0  0  0  0  0  0  0  0  0
   38.0240   30.2410   36.2440 H   0  0  0  0  0  0  0  0  0  0  0  0
   36.4500   30.7440   35.5990 H   0  0  0  0  0  0  0  0  0  0  0  0
   37.2820   29.7340   38.3150 H   0  0  0  0  0  0  0  0  0  0  0  0
   36.1910   31.0480   37.8860 H   0  0  0  0  0  0  0  0  0  0  0  0
   34.4490   29.6940   38.3970 H   0  0  0  0  0  0  0  0  0  0  0  0
   35.5990   27.9220   38.4690 C   0  0  0  0  0  0  0  0  0  0  0  0
   35.8850   27.0950   37.7910 H   0  0  0  0  0  0  0  0  0  0  0  0
   34.7220   27.5790   39.0620 H   0  0  0  0  0  0  0  0  0  0  0  0
   38.5120   26.0720   42.2920 C   0  0  0  0  0  0  0  0  0  0  0  0
   37.0420   26.3810   42.4360 C   0  0  0  0  0  2  0  0  0  0  0  0
   36.7050   27.4160   41.4820 N   0  0  0  0  0  0  0  0  0  0  0  0
   36.3030   28.5900   40.7850 C   0  0  0  0  0  0  0  0  0  0  0  0
   35.7490   29.6520   41.2230 O   0  0  0  0  0  0  0  0  0  0  0  0
   36.7540   28.1180   39.4530 C   0  0  1  0  0  3  0  0  0  0  0  0
   36.9880   26.8130   40.1750 C   0  0  1  0  0  3  0  0  0  0  0  0
   38.7560   26.4380   40.5060 S   0  0  0  0  0  0  0  0  0  0  0  0
   38.7920   24.5920   42.4530 C   0  0  0  0  0  2  0  0  0  0  0  0
   38.2460   24.1320   43.3010 H   0  0  0  0  0  0  0  0  0  0  0  0
   39.3830   26.9180   43.1680 C   0  0  0  0  0  2  0  0  0  0  0  0
   38.7620   27.2110   44.0650 H   0  0  0  0  0  0  0  0  0  0  0  0
   33.1940   28.4400   36.5130 C   0  0  0  0  0  0  0  0  0  0  0  0
   32.8700   27.2250   36.5110 O   0  0  0  0  0  0  0  0  0  0  0  0
   30.5020   30.5630   37.7730 C   0  0  0  0  0  0  0  0  0  0  0  0
   30.2130   31.4360   36.6960 C   0  0  0  0  0  0  0  0  0  0  0  0
   30.9690   31.2680   35.5490 C   0  0  0  0  0  0  0  0  0  0  0  0
   31.8840   30.2980   35.6000 N   0  0  0  0  0  0  0  0  0  0  0  0
   32.1610   29.4810   36.5950 C   0  0  0  0  0  0  0  0  0  0  0  0
   31.4430   29.6220   37.7190 N   0  0  0  0  0  0  0  0  0  0  0  0
   29.9250   30.6620   38.7010 H   0  0  0  0  0  0  0  0  0  0  0  0
   29.4360   32.1760   36.8110 H   0  0  0  0  0  0  0  0  0  0  0  0
   30.6740   32.1570   34.4370 C   0  0  0  0  0  0  0  0  0  0  0  0
   30.4870   31.4100   33.2790 F   0  0  0  0  0  0  0  0  0  0  0  0
   31.7550   32.9600   34.2750 F   0  0  0  0  0  0  0  0  0  0  0  0
   29.4890   32.8580   34.6210 F   0  0  0  0  0  0  0  0  0  0  0  0
  1  7  1  6  0  0  0
  1 32  1  0  0  0  0
  1  6  1  0  0  0  0
  2  8  1  0  0  0  0
  2  1  1  0  0  0  0
  3  2  1  0  0  0  0
  3 10  1  0  0  0  0
  3  4  1  0  0  0  0
  4 12  1  0  0  0  0
  4  5  1  0  0  0  0
  5  6  1  0  0  0  0
  5 15  1  0  0  0  0
  5 14  1  0  0  0  0
  6 16  1  1  0  0  0
  6 17  1  0  0  0  0
  9  2  1  0  0  0  0
 11  3  1  0  0  0  0
 13  4  1  0  0  0  0
 17 19  1  0  0  0  0
 18 17  1  0  0  0  0
 20 21  1  0  0  0  0
 20 28  1  0  0  0  0
 20 30  1  0  0  0  0
 22 21  1  0  0  0  0
 23 24  2  0  0  0  0
 23 22  1  0  0  0  0
 25 17  1  6  0  0  0
 25 26  1  0  0  0  0
 25 23  1  0  0  0  0
 26 27  1  1  0  0  0
 26 22  1  0  0  0  0
 27 20  1  0  0  0  0
 28 29  1  0  0  0  0
 30 31  1  0  0  0  0
 32 38  1  0  0  0  0
 33 32  2  0  0  0  0
 34 40  1  0  0  0  0
 35 41  1  0  0  0  0
 35 34  2  0  0  0  0
 36 37  2  0  0  0  0
 36 35  1  0  0  0  0
 37 38  1  0  0  0  0
 38 39  2  0  0  0  0
 39 34  1  0  0  0  0
 42 45  1  0  0  0  0
 42 36  1  0  0  0  0
 43 42  1  0  0  0  0
 44 42  1  0  0  0  0
M  END
>  <minimizedAffinity>
-6.13711739

$$$$

 OpenBabel03242518563D

 45 48  0  0  1  0  0  0  0  0999 V2000
   36.7810   28.5220   41.5850 C   0  0  2  0  0  0  0  0  0  0  0  0
   36.9160   27.8290   40.2660 C   0  0  0  0  0  0  0  0  0  0  0  0
   35.9350   28.4630   39.3400 C   0  0  0  0  0  0  0  0  0  0  0  0
   35.0530   29.5000   39.9400 C   0  0  0  0  0  0  0  0  0  0  0  0
   35.8750   30.5690   40.6060 C   0  0  0  0  0  0  0  0  0  0  0  0
   36.9750   30.0110   41.3770 C   0  0  2  0  0  0  0  0  0  0  0  0
   35.7320   28.4330   41.9340 H   0  0  0  0  0  0  0  0  0  0  0  0
   37.9320   27.8030   39.8570 H   0  0  0  0  0  0  0  0  0  0  0  0
   36.6700   26.7370   40.4560 H   0  0  0  0  0  0  0  0  0  0  0  0
   36.3770   28.8540   38.3870 H   0  0  0  0  0  0  0  0  0  0  0  0
   35.2450   27.6480   38.9780 H   0  0  0  0  0  0  0  0  0  0  0  0
   34.4770   29.9520   39.0970 H   0  0  0  0  0  0  0  0  0  0  0  0
   34.2720   29.0660   40.6200 H   0  0  0  0  0  0  0  0  0  0  0  0
   36.0970   31.3350   39.8420 H   0  0  0  0  0  0  0  0  0  0  0  0
   35.1680   31.0900   41.3170 H   0  0  0  0  0  0  0  0  0  0  0  0
   37.0860   30.4800   42.3570 H   0  0  0  0  0  0  0  0  0  0  0  0
   38.2070   30.2650   40.5780 C   0  0  0  0  0  0  0  0  0  0  0  0
   38.0340   30.5300   39.5180 H   0  0  0  0  0  0  0  0  0  0  0  0
   38.8090   29.3280   40.5940 H   0  0  0  0  0  0  0  0  0  0  0  0
   42.0160   33.6880   40.0290 C   0  0  0  0  0  0  0  0  0  0  0  0
   42.2220   32.1940   39.9800 C   0  0  0  0  0  2  0  0  0  0  0  0
   41.1770   31.5700   40.7640 N   0  0  0  0  0  0  0  0  0  0  0  0
   40.3750   30.8570   41.6990 C   0  0  0  0  0  0  0  0  0  0  0  0
   40.7220   30.0660   42.6380 O   0  0  0  0  0  0  0  0  0  0  0  0
   39.0810   31.3660   41.1830 C   0  0  1  0  0  3  0  0  0  0  0  0
   39.9340   31.9500   40.0840 C   0  0  1  0  0  3  0  0  0  0  0  0
   40.1870   33.7670   40.2070 S   0  0  0  0  0  0  0  0  0  0  0  0
   42.3310   34.3420   38.7000 C   0  0  0  0  0  2  0  0  0  0  0  0
   43.2630   33.9620   38.2350 H   0  0  0  0  0  0  0  0  0  0  0  0
   42.7250   34.3450   41.1730 C   0  0  0  0  0  2  0  0  0  0  0  0
   43.6210   33.7020   41.4170 H   0  0  0  0  0  0  0  0  0  0  0  0
   37.6500   27.9720   42.6540 C   0  0  0  0  0  0  0  0  0  0  0  0
   37.9640   28.6290   43.6800 O   0  0  0  0  0  0  0  0  0  0  0  0
   39.7250   24.9760   42.8940 C   0  0  0  0  0  0  0  0  0  0  0  0
   39.0610   24.0260   42.0790 C   0  0  0  0  0  0  0  0  0  0  0  0
   37.8960   24.4510   41.4650 C   0  0  0  0  0  0  0  0  0  0  0  0
   37.5390   25.7120   41.7170 N   0  0  0  0  0  0  0  0  0  0  0  0
   38.1480   26.6020   42.4710 C   0  0  0  0  0  0  0  0  0  0  0  0
   39.2800   26.2170   43.0800 N   0  0  0  0  0  0  0  0  0  0  0  0
   40.6520   24.6800   43.4000 H   0  0  0  0  0  0  0  0  0  0  0  0
   39.4800   23.0360   41.9750 H   0  0  0  0  0  0  0  0  0  0  0  0
   37.2130   23.4830   40.6220 C   0  0  0  0  0  0  0  0  0  0  0  0
   37.5300   23.7170   39.2890 F   0  0  0  0  0  0  0  0  0  0  0  0
   35.8810   23.6760   40.8000 F   0  0  0  0  0  0  0  0  0  0  0  0
   37.6200   22.1790   40.8770 F   0  0  0  0  0  0  0  0  0  0  0  0
  1  7  1  1  0  0  0
  1 32  1  0  0  0  0
  2  9  1  0  0  0  0
  2  1  1  0  0  0  0
  3  4  1  0  0  0  0
  3  2  1  0  0  0  0
  4  5  1  0  0  0  0
  4 13  1  0  0  0  0
  5 15  1  0  0  0  0
  5  6  1  0  0  0  0
  6  1  1  0  0  0  0
  6 16  1  1  0  0  0
  8  2  1  0  0  0  0
 10  3  1  0  0  0  0
 11  3  1  0  0  0  0
 12  4  1  0  0  0  0
 14  5  1  0  0  0  0
 17 19  1  0  0  0  0
 17  6  1  0  0  0  0
 18 17  1  0  0  0  0
 20 27  1  0  0  0  0
 20 30  1  0  0  0  0
 21 20  1  0  0  0  0
 21 22  1  0  0  0  0
 22 23  1  0  0  0  0
 23 24  2  0  0  0  0
 25 17  1  6  0  0  0
 25 23  1  0  0  0  0
 26 27  1  1  0  0  0
 26 22  1  0  0  0  0
 26 25  1  0  0  0  0
 28 20  1  0  0  0  0
 29 28  1  0  0  0  0
 30 31  1  0  0  0  0
 32 33  2  0  0  0  0
 34 39  1  0  0  0  0
 34 40  1  0  0  0  0
 35 34  2  0  0  0  0
 36 37  2  0  0  0  0
 36 35  1  0  0  0  0
 37 38  1  0  0  0  0
 38 32  1  0  0  0  0
 38 39  2  0  0  0  0
 41 35  1  0  0  0  0
 42 44  1  0  0  0  0
 42 45  1  0  0  0  0
 42 36  1  0  0  0  0
 43 42  1  0  0  0  0
M  END
>  <minimizedAffinity>
-6.11702108

$$$$

 OpenBabel03242518563D

 45 48  0  0  1  0  0  0  0  0999 V2000
   36.3890   30.4900   39.9320 C   0  0  2  0  0  0  0  0  0  0  0  0
   36.6920   30.8220   38.5060 C   0  0  0  0  0  0  0  0  0  0  0  0
   37.3990   32.1340   38.5070 C   0  0  0  0  0  0  0  0  0  0  0  0
   37.5390   32.7950   39.8320 C   0  0  0  0  0  0  0  0  0  0  0  0
   38.2040   31.8690   40.8140 C   0  0  0  0  0  0  0  0  0  0  0  0
   37.6820   30.5130   40.7240 C   0  0  2  0  0  0  0  0  0  0  0  0
   35.7870   31.3090   40.3740 H   0  0  0  0  0  0  0  0  0  0  0  0
   37.2340   30.0470   37.9530 H   0  0  0  0  0  0  0  0  0  0  0  0
   35.6900   30.8850   37.9760 H   0  0  0  0  0  0  0  0  0  0  0  0
   38.3900   32.1320   37.9830 H   0  0  0  0  0  0  0  0  0  0  0  0
   36.7870   32.8420   37.8770 H   0  0  0  0  0  0  0  0  0  0  0  0
   38.1900   33.6890   39.6730 H   0  0  0  0  0  0  0  0  0  0  0  0
   36.5700   33.2110   40.2150 H   0  0  0  0  0  0  0  0  0  0  0  0
   39.2940   32.0250   40.7260 H   0  0  0  0  0  0  0  0  0  0  0  0
   37.9500   32.2830   41.8340 H   0  0  0  0  0  0  0  0  0  0  0  0
   37.4900   30.0690   41.7030 H   0  0  0  0  0  0  0  0  0  0  0  0
   38.7300   29.7150   40.0280 C   0  0  0  0  0  0  0  0  0  0  0  0
   39.5320   30.3070   39.5490 H   0  0  0  0  0  0  0  0  0  0  0  0
   38.2220   29.1320   39.2270 H   0  0  0  0  0  0  0  0  0  0  0  0
   38.9700   24.9370   41.9350 C   0  0  0  0  0  0  0  0  0  0  0  0
   37.8220   25.8830   42.1930 C   0  0  0  0  0  2  0  0  0  0  0  0
   38.3250   27.2370   42.0900 N   0  0  0  0  0  0  0  0  0  0  0  0
   38.7360   28.5870   42.2720 C   0  0  0  0  0  0  0  0  0  0  0  0
   38.5540   29.3710   43.2610 O   0  0  0  0  0  0  0  0  0  0  0  0
   39.4070   28.7030   40.9540 C   0  0  1  0  0  3  0  0  0  0  0  0
   38.7930   27.3470   40.7040 C   0  0  1  0  0  3  0  0  0  0  0  0
   39.9850   25.9500   40.7840 S   0  0  0  0  0  0  0  0  0  0  0  0
   38.5280   23.7250   41.1400 C   0  0  0  0  0  2  0  0  0  0  0  0
   37.5700   23.2940   41.4940 H   0  0  0  0  0  0  0  0  0  0  0  0
   39.7200   24.5660   43.1760 C   0  0  0  0  0  2  0  0  0  0  0  0
   38.9940   24.6470   44.0370 H   0  0  0  0  0  0  0  0  0  0  0  0
   35.6260   29.2310   40.1160 C   0  0  0  0  0  0  0  0  0  0  0  0
   35.4870   28.6770   41.2360 O   0  0  0  0  0  0  0  0  0  0  0  0
   35.0630   27.0670   37.2290 C   0  0  0  0  0  0  0  0  0  0  0  0
   33.8690   27.5620   36.6480 C   0  0  0  0  0  0  0  0  0  0  0  0
   33.2800   28.6420   37.2820 C   0  0  0  0  0  0  0  0  0  0  0  0
   33.9140   29.0870   38.3690 N   0  0  0  0  0  0  0  0  0  0  0  0
   35.0230   28.6350   38.9160 C   0  0  0  0  0  0  0  0  0  0  0  0
   35.6150   27.5880   38.3220 N   0  0  0  0  0  0  0  0  0  0  0  0
   35.5620   26.2110   36.7570 H   0  0  0  0  0  0  0  0  0  0  0  0
   33.4780   27.0890   35.7610 H   0  0  0  0  0  0  0  0  0  0  0  0
   32.0580   29.1600   36.6890 C   0  0  0  0  0  0  0  0  0  0  0  0
   32.3690   29.9370   35.5800 F   0  0  0  0  0  0  0  0  0  0  0  0
   31.4660   29.9440   37.6260 F   0  0  0  0  0  0  0  0  0  0  0  0
   31.2310   28.1490   36.2150 F   0  0  0  0  0  0  0  0  0  0  0  0
  1 32  1  0  0  0  0
  1  7  1  1  0  0  0
  1  6  1  0  0  0  0
  2  3  1  0  0  0  0
  2  1  1  0  0  0  0
  3  4  1  0  0  0  0
  4 13  1  0  0  0  0
  4  5  1  0  0  0  0
  5 15  1  0  0  0  0
  6  5  1  0  0  0  0
  6 16  1  1  0  0  0
  8  2  1  0  0  0  0
  9  2  1  0  0  0  0
 10  3  1  0  0  0  0
 11  3  1  0  0  0  0
 12  4  1  0  0  0  0
 14  5  1  0  0  0  0
 17  6  1  0  0  0  0
 18 17  1  0  0  0  0
 19 17  1  0  0  0  0
 20 21  1  0  0  0  0
 20 30  1  0  0  0  0
 22 21  1  0  0  0  0
 22 23  1  0  0  0  0
 23 24  2  0  0  0  0
 25 17  1  6  0  0  0
 25 23  1  0  0  0  0
 26 27  1  1  0  0  0
 26 25  1  0  0  0  0
 26 22  1  0  0  0  0
 27 20  1  0  0  0  0
 28 29  1  0  0  0  0
 28 20  1  0  0  0  0
 30 31  1  0  0  0  0
 32 33  2  0  0  0  0
 34 39  1  0  0  0  0
 35 34  2  0  0  0  0
 35 36  1  0  0  0  0
 36 37  2  0  0  0  0
 37 38  1  0  0  0  0
 38 32  1  0  0  0  0
 39 38  2  0  0  0  0
 40 34  1  0  0  0  0
 41 35  1  0  0  0  0
 42 36  1  0  0  0  0
 42 44  1  0  0  0  0
 43 42  1  0  0  0  0
 45 42  1  0  0  0  0
M  END
>  <minimizedAffinity>
-5.99812126

$$$$

 OpenBabel03242518563D

 45 48  0  0  1  0  0  0  0  0999 V2000
   38.3570   32.0300   40.5580 C   0  0  2  0  0  0  0  0  0  0  0  0
   37.7180   33.3650   40.3470 C   0  0  0  0  0  0  0  0  0  0  0  0
   38.7920   34.2910   39.8880 C   0  0  0  0  0  0  0  0  0  0  0  0
   40.1660   33.7220   39.8450 C   0  0  0  0  0  0  0  0  0  0  0  0
   40.1910   32.4730   39.0060 C   0  0  0  0  0  0  0  0  0  0  0  0
   39.0510   31.6110   39.2770 C   0  0  2  0  0  0  0  0  0  0  0  0
   39.1830   32.1350   41.2910 H   0  0  0  0  0  0  0  0  0  0  0  0
   36.8460   33.3640   39.6840 H   0  0  0  0  0  0  0  0  0  0  0  0
   37.2960   33.6770   41.3540 H   0  0  0  0  0  0  0  0  0  0  0  0
   38.5750   34.8180   38.9220 H   0  0  0  0  0  0  0  0  0  0  0  0
   38.8380   35.1410   40.6290 H   0  0  0  0  0  0  0  0  0  0  0  0
   40.8150   34.4960   39.3680 H   0  0  0  0  0  0  0  0  0  0  0  0
   40.6050   33.5680   40.8660 H   0  0  0  0  0  0  0  0  0  0  0  0
   40.3880   32.7820   37.9640 H   0  0  0  0  0  0  0  0  0  0  0  0
   41.1320   31.9270   39.3120 H   0  0  0  0  0  0  0  0  0  0  0  0
   39.3280   30.5590   39.3680 H   0  0  0  0  0  0  0  0  0  0  0  0
   38.1310   31.7690   38.1150 C   0  0  0  0  0  0  0  0  0  0  0  0
   38.4270   32.5440   37.3830 H   0  0  0  0  0  0  0  0  0  0  0  0
   37.1350   32.0570   38.5210 H   0  0  0  0  0  0  0  0  0  0  0  0
   35.2490   27.6300   37.0770 C   0  0  0  0  0  0  0  0  0  0  0  0
   35.8950   27.8830   38.4170 C   0  0  0  0  0  2  0  0  0  0  0  0
   37.0710   28.6990   38.2010 N   0  0  0  0  0  0  0  0  0  0  0  0
   38.3710   29.2690   38.1020 C   0  0  0  0  0  0  0  0  0  0  0  0
   39.4880   28.8410   38.5450 O   0  0  0  0  0  0  0  0  0  0  0  0
   37.9370   30.4650   37.3390 C   0  0  1  0  0  3  0  0  0  0  0  0
   36.5500   29.9440   37.6270 C   0  0  1  0  0  3  0  0  0  0  0  0
   35.7190   29.1670   36.1840 S   0  0  0  0  0  0  0  0  0  0  0  0
   33.7370   27.6520   37.1710 C   0  0  0  0  0  2  0  0  0  0  0  0
   33.3440   27.1000   38.0490 H   0  0  0  0  0  0  0  0  0  0  0  0
   35.7620   26.3990   36.3950 C   0  0  0  0  0  2  0  0  0  0  0  0
   36.1080   25.6940   37.2070 H   0  0  0  0  0  0  0  0  0  0  0  0
   37.4360   30.9890   41.0790 C   0  0  0  0  0  0  0  0  0  0  0  0
   36.1850   31.0860   40.9980 O   0  0  0  0  0  0  0  0  0  0  0  0
   39.7970   28.8440   42.8570 C   0  0  0  0  0  0  0  0  0  0  0  0
   39.1720   27.5720   42.8690 C   0  0  0  0  0  0  0  0  0  0  0  0
   37.9340   27.4900   42.2580 C   0  0  0  0  0  0  0  0  0  0  0  0
   37.4770   28.6270   41.7290 N   0  0  0  0  0  0  0  0  0  0  0  0
   38.0480   29.8130   41.7120 C   0  0  0  0  0  0  0  0  0  0  0  0
   39.2500   29.9210   42.2990 N   0  0  0  0  0  0  0  0  0  0  0  0
   40.7800   28.9520   43.3310 H   0  0  0  0  0  0  0  0  0  0  0  0
   39.6750   26.7420   43.3420 H   0  0  0  0  0  0  0  0  0  0  0  0
   37.2900   26.1870   42.2600 C   0  0  0  0  0  0  0  0  0  0  0  0
   36.7110   25.9500   41.0180 F   0  0  0  0  0  0  0  0  0  0  0  0
   36.3130   26.2310   43.2010 F   0  0  0  0  0  0  0  0  0  0  0  0
   38.1950   25.1500   42.4520 F   0  0  0  0  0  0  0  0  0  0  0  0
  1 32  1  0  0  0  0
  1  7  1  1  0  0  0
  2  1  1  0  0  0  0
  2  9  1  0  0  0  0
  3  2  1  0  0  0  0
  3 11  1  0  0  0  0
  4  3  1  0  0  0  0
  4 13  1  0  0  0  0
  5  6  1  0  0  0  0
  5 15  1  0  0  0  0
  5  4  1  0  0  0  0
  6 16  1  1  0  0  0
  6  1  1  0  0  0  0
  8  2  1  0  0  0  0
 10  3  1  0  0  0  0
 12  4  1  0  0  0  0
 14  5  1  0  0  0  0
 17 19  1  0  0  0  0
 17  6  1  0  0  0  0
 18 17  1  0  0  0  0
 20 28  1  0  0  0  0
 20 21  1  0  0  0  0
 22 21  1  0  0  0  0
 23 22  1  0  0  0  0
 23 24  2  0  0  0  0
 25 26  1  0  0  0  0
 25 23  1  0  0  0  0
 25 17  1  1  0  0  0
 26 27  1  6  0  0  0
 26 22  1  0  0  0  0
 27 20  1  0  0  0  0
 28 29  1  0  0  0  0
 30 20  1  0  0  0  0
 30 31  1  0  0  0  0
 32 38  1  0  0  0  0
 33 32  2  0  0  0  0
 34 35  1  0  0  0  0
 34 40  1  0  0  0  0
 35 41  1  0  0  0  0
 36 42  1  0  0  0  0
 36 35  2  0  0  0  0
 37 36  1  0  0  0  0
 38 37  2  0  0  0  0
 38 39  1  0  0  0  0
 39 34  2  0  0  0  0
 42 45  1  0  0  0  0
 42 44  1  0  0  0  0
 43 42  1  0  0  0  0
M  END
>  <minimizedAffinity>
-5.97600842

$$$$

 OpenBabel03242518563D

 45 48  0  0  1  0  0  0  0  0999 V2000
   37.1530   28.6280   41.5100 C   0  0  2  0  0  0  0  0  0  0  0  0
   36.7550   28.2460   42.9000 C   0  0  0  0  0  0  0  0  0  0  0  0
   37.6110   27.0920   43.2950 C   0  0  0  0  0  0  0  0  0  0  0  0
   38.5280   26.5750   42.2440 C   0  0  0  0  0  0  0  0  0  0  0  0
   39.3970   27.6820   41.7130 C   0  0  0  0  0  0  0  0  0  0  0  0
   38.6430   28.9060   41.4870 C   0  0  2  0  0  0  0  0  0  0  0  0
   37.0320   27.7480   40.8450 H   0  0  0  0  0  0  0  0  0  0  0  0
   36.7770   29.0620   43.6300 H   0  0  0  0  0  0  0  0  0  0  0  0
   35.6580   27.9570   42.8470 H   0  0  0  0  0  0  0  0  0  0  0  0
   38.1790   27.2360   44.2500 H   0  0  0  0  0  0  0  0  0  0  0  0
   36.9200   26.2360   43.5450 H   0  0  0  0  0  0  0  0  0  0  0  0
   39.1730   25.8070   42.7370 H   0  0  0  0  0  0  0  0  0  0  0  0
   37.9890   26.0180   41.4320 H   0  0  0  0  0  0  0  0  0  0  0  0
   40.3000   27.7240   42.3480 H   0  0  0  0  0  0  0  0  0  0  0  0
   39.7800   27.3100   40.7170 H   0  0  0  0  0  0  0  0  0  0  0  0
   38.8860   29.3830   40.5360 H   0  0  0  0  0  0  0  0  0  0  0  0
   39.0140   29.8280   42.5980 C   0  0  0  0  0  0  0  0  0  0  0  0
   39.7540   29.4260   43.3150 H   0  0  0  0  0  0  0  0  0  0  0  0
   38.0830   30.0490   43.1670 H   0  0  0  0  0  0  0  0  0  0  0  0
   41.0640   32.6090   38.7780 C   0  0  0  0  0  0  0  0  0  0  0  0
   41.7740   31.4580   39.4480 C   0  0  0  0  0  2  0  0  0  0  0  0
   41.2590   31.3340   40.7950 N   0  0  0  0  0  0  0  0  0  0  0  0
   41.0310   31.2700   42.1990 C   0  0  0  0  0  0  0  0  0  0  0  0
   41.8640   31.2970   43.1650 O   0  0  0  0  0  0  0  0  0  0  0  0
   39.5550   31.1660   42.0920 C   0  0  1  0  0  3  0  0  0  0  0  0
   39.8340   31.0370   40.6150 C   0  0  1  0  0  3  0  0  0  0  0  0
   39.4380   32.5410   39.6350 S   0  0  0  0  0  0  0  0  0  0  0  0
   40.7760   32.3170   37.3200 C   0  0  0  0  0  2  0  0  0  0  0  0
   41.6320   31.8560   36.7880 H   0  0  0  0  0  0  0  0  0  0  0  0
   41.7530   33.9230   38.9750 C   0  0  0  0  0  2  0  0  0  0  0  0
   42.8510   33.7010   39.1190 H   0  0  0  0  0  0  0  0  0  0  0  0
   36.3530   29.7340   40.9280 C   0  0  0  0  0  0  0  0  0  0  0  0
   36.1820   30.8320   41.5160 O   0  0  0  0  0  0  0  0  0  0  0  0
   33.9710   28.7930   38.3240 C   0  0  0  0  0  0  0  0  0  0  0  0
   34.6600   29.0470   37.1120 C   0  0  0  0  0  0  0  0  0  0  0  0
   35.9450   29.5470   37.2300 C   0  0  0  0  0  0  0  0  0  0  0  0
   36.3800   29.7300   38.4790 N   0  0  0  0  0  0  0  0  0  0  0  0
   35.7480   29.4980   39.6100 C   0  0  0  0  0  0  0  0  0  0  0  0
   34.5000   29.0130   39.5250 N   0  0  0  0  0  0  0  0  0  0  0  0
   32.9490   28.3960   38.2760 H   0  0  0  0  0  0  0  0  0  0  0  0
   34.1680   28.8460   36.1730 H   0  0  0  0  0  0  0  0  0  0  0  0
   36.6610   29.8040   35.9910 C   0  0  0  0  0  0  0  0  0  0  0  0
   37.5960   28.7990   35.7740 F   0  0  0  0  0  0  0  0  0  0  0  0
   37.3110   30.9850   36.1480 F   0  0  0  0  0  0  0  0  0  0  0  0
   35.8240   29.7790   34.8820 F   0  0  0  0  0  0  0  0  0  0  0  0
  1  7  1  6  0  0  0
  1  2  1  0  0  0  0
  2  3  1  0  0  0  0
  2  8  1  0  0  0  0
  3 11  1  0  0  0  0
  3 10  1  0  0  0  0
  4 12  1  0  0  0  0
  4  3  1  0  0  0  0
  5  4  1  0  0  0  0
  5 14  1  0  0  0  0
  6 16  1  6  0  0  0
  6  1  1  0  0  0  0
  6  5  1  0  0  0  0
  6 17  1  0  0  0  0
  9  2  1  0  0  0  0
 13  4  1  0  0  0  0
 15  5  1  0  0  0  0
 17 19  1  0  0  0  0
 17 18  1  0  0  0  0
 20 30  1  0  0  0  0
 20 21  1  0  0  0  0
 20 27  1  0  0  0  0
 21 22  1  0  0  0  0
 22 23  1  0  0  0  0
 23 24  2  0  0  0  0
 25 23  1  0  0  0  0
 25 17  1  1  0  0  0
 26 27  1  6  0  0  0
 26 22  1  0  0  0  0
 26 25  1  0  0  0  0
 28 20  1  0  0  0  0
 29 28  1  0  0  0  0
 30 31  1  0  0  0  0
 32  1  1  0  0  0  0
 32 33  2  0  0  0  0
 34 39  1  0  0  0  0
 35 36  1  0  0  0  0
 35 34  2  0  0  0  0
 36 37  2  0  0  0  0
 37 38  1  0  0  0  0
 38 32  1  0  0  0  0
 39 38  2  0  0  0  0
 40 34  1  0  0  0  0
 41 35  1  0  0  0  0
 42 44  1  0  0  0  0
 42 36  1  0  0  0  0
 43 42  1  0  0  0  0
 45 42  1  0  0  0  0
M  END
>  <minimizedAffinity>
-5.95123911

$$$$

 OpenBabel03242518563D

 45 48  0  0  1  0  0  0  0  0999 V2000
   35.2560   29.4400   38.0310 C   0  0  2  0  0  0  0  0  0  0  0  0
   36.6330   30.0210   37.9850 C   0  0  0  0  0  0  0  0  0  0  0  0
   36.9570   30.4790   39.3660 C   0  0  0  0  0  0  0  0  0  0  0  0
   35.8660   30.3410   40.3680 C   0  0  0  0  0  0  0  0  0  0  0  0
   35.3720   28.9210   40.4160 C   0  0  0  0  0  0  0  0  0  0  0  0
   35.2190   28.3520   39.0850 C   0  0  2  0  0  0  0  0  0  0  0  0
   34.5520   30.2080   38.4110 H   0  0  0  0  0  0  0  0  0  0  0  0
   37.4010   29.3630   37.5640 H   0  0  0  0  0  0  0  0  0  0  0  0
   36.5860   30.8890   37.2540 H   0  0  0  0  0  0  0  0  0  0  0  0
   37.9070   30.0610   39.7870 H   0  0  0  0  0  0  0  0  0  0  0  0
   37.1770   31.5840   39.3060 H   0  0  0  0  0  0  0  0  0  0  0  0
   36.3090   30.6090   41.3570 H   0  0  0  0  0  0  0  0  0  0  0  0
   35.0380   31.0840   40.2150 H   0  0  0  0  0  0  0  0  0  0  0  0
   35.9920   28.3840   41.1560 H   0  0  0  0  0  0  0  0  0  0  0  0
   34.3540   28.9750   40.9010 H   0  0  0  0  0  0  0  0  0  0  0  0
   34.2870   27.7950   38.9690 H   0  0  0  0  0  0  0  0  0  0  0  0
   36.3660   27.4170   38.9040 C   0  0  0  0  0  0  0  0  0  0  0  0
   37.2850   27.8740   38.4910 H   0  0  0  0  0  0  0  0  0  0  0  0
   36.0370   26.6260   38.1930 H   0  0  0  0  0  0  0  0  0  0  0  0
   40.0100   25.2790   41.8500 C   0  0  0  0  0  0  0  0  0  0  0  0
   39.5650   24.7080   40.5250 C   0  0  0  0  0  2  0  0  0  0  0  0
   38.1970   25.1210   40.2950 N   0  0  0  0  0  0  0  0  0  0  0  0
   36.7960   25.2360   40.0720 C   0  0  0  0  0  0  0  0  0  0  0  0
   35.9270   24.3300   39.8420 O   0  0  0  0  0  0  0  0  0  0  0  0
   36.7580   26.7120   40.2050 C   0  0  1  0  0  3  0  0  0  0  0  0
   38.2610   26.5850   40.2400 C   0  0  1  0  0  3  0  0  0  0  0  0
   39.0010   26.8150   41.9070 S   0  0  0  0  0  0  0  0  0  0  0  0
   41.4540   25.7320   41.8080 C   0  0  0  0  0  2  0  0  0  0  0  0
   42.1260   25.0110   41.3020 H   0  0  0  0  0  0  0  0  0  0  0  0
   39.7270   24.3720   43.0080 C   0  0  0  0  0  2  0  0  0  0  0  0
   39.7280   23.3160   42.6060 H   0  0  0  0  0  0  0  0  0  0  0  0
   34.7430   28.9830   36.7160 C   0  0  0  0  0  0  0  0  0  0  0  0
   35.4990   28.6760   35.7600 O   0  0  0  0  0  0  0  0  0  0  0  0
   31.4350   28.1290   35.4230 C   0  0  0  0  0  0  0  0  0  0  0  0
   30.5370   28.7950   36.2930 C   0  0  0  0  0  0  0  0  0  0  0  0
   31.1070   29.5270   37.3200 C   0  0  0  0  0  0  0  0  0  0  0  0
   32.4410   29.5160   37.3640 N   0  0  0  0  0  0  0  0  0  0  0  0
   33.2840   28.9010   36.5610 C   0  0  0  0  0  0  0  0  0  0  0  0
   32.7580   28.1830   35.5570 N   0  0  0  0  0  0  0  0  0  0  0  0
   31.0250   27.5370   34.5950 H   0  0  0  0  0  0  0  0  0  0  0  0
   29.4750   28.7060   36.1250 H   0  0  0  0  0  0  0  0  0  0  0  0
   30.1920   30.2190   38.2130 C   0  0  0  0  0  0  0  0  0  0  0  0
   30.3710   31.5930   38.0930 F   0  0  0  0  0  0  0  0  0  0  0  0
   30.5130   29.8410   39.4760 F   0  0  0  0  0  0  0  0  0  0  0  0
   28.8610   29.9880   37.8900 F   0  0  0  0  0  0  0  0  0  0  0  0
  1  7  1  1  0  0  0
  1  6  1  0  0  0  0
  2  1  1  0  0  0  0
  2  3  1  0  0  0  0
  3 10  1  0  0  0  0
  3  4  1  0  0  0  0
  4  5  1  0  0  0  0
  4 12  1  0  0  0  0
  5 15  1  0  0  0  0
  5 14  1  0  0  0  0
  6 16  1  6  0  0  0
  6  5  1  0  0  0  0
  8  2  1  0  0  0  0
  9  2  1  0  0  0  0
 11  3  1  0  0  0  0
 13  4  1  0  0  0  0
 17  6  1  0  0  0  0
 18 17  1  0  0  0  0
 19 17  1  0  0  0  0
 20 27  1  0  0  0  0
 20 30  1  0  0  0  0
 21 20  1  0  0  0  0
 22 21  1  0  0  0  0
 23 25  1  0  0  0  0
 23 22  1  0  0  0  0
 24 23  2  0  0  0  0
 25 17  1  6  0  0  0
 25 26  1  0  0  0  0
 26 22  1  0  0  0  0
 26 27  1  1  0  0  0
 28 20  1  0  0  0  0
 29 28  1  0  0  0  0
 31 30  1  0  0  0  0
 32  1  1  0  0  0  0
 33 32  2  0  0  0  0
 34 39  2  0  0  0  0
 34 35  1  0  0  0  0
 35 36  2  0  0  0  0
 36 37  1  0  0  0  0
 36 42  1  0  0  0  0
 38 32  1  0  0  0  0
 38 37  2  0  0  0  0
 39 38  1  0  0  0  0
 40 34  1  0  0  0  0
 41 35  1  0  0  0  0
 42 44  1  0  0  0  0
 43 42  1  0  0  0  0
 45 42  1  0  0  0  0
M  END
>  <minimizedAffinity>
-5.88014889

$$$$

 OpenBabel03242518563D

 45 48  0  0  1  0  0  0  0  0999 V2000
   34.4100   28.9420   35.6350 C   0  0  2  0  0  0  0  0  0  0  0  0
   34.9540   28.0060   34.6040 C   0  0  0  0  0  0  0  0  0  0  0  0
   36.2470   28.5810   34.1340 C   0  0  0  0  0  0  0  0  0  0  0  0
   36.6110   29.9070   34.7010 C   0  0  0  0  0  0  0  0  0  0  0  0
   36.6030   29.8570   36.2040 C   0  0  0  0  0  0  0  0  0  0  0  0
   35.4510   29.1330   36.7200 C   0  0  2  0  0  0  0  0  0  0  0  0
   34.3000   29.9510   35.1860 H   0  0  0  0  0  0  0  0  0  0  0  0
   35.0450   26.9620   34.9260 H   0  0  0  0  0  0  0  0  0  0  0  0
   34.1830   27.9690   33.7720 H   0  0  0  0  0  0  0  0  0  0  0  0
   37.1230   27.8870   34.2130 H   0  0  0  0  0  0  0  0  0  0  0  0
   36.1550   28.7400   33.0210 H   0  0  0  0  0  0  0  0  0  0  0  0
   37.6460   30.1290   34.3460 H   0  0  0  0  0  0  0  0  0  0  0  0
   35.9830   30.7420   34.2910 H   0  0  0  0  0  0  0  0  0  0  0  0
   37.6130   29.5470   36.5270 H   0  0  0  0  0  0  0  0  0  0  0  0
   36.5280   30.9340   36.5390 H   0  0  0  0  0  0  0  0  0  0  0  0
   34.9770   29.6400   37.5630 H   0  0  0  0  0  0  0  0  0  0  0  0
   35.9680   27.8130   37.1790 C   0  0  0  0  0  0  0  0  0  0  0  0
   37.0580   27.6660   37.0590 H   0  0  0  0  0  0  0  0  0  0  0  0
   35.4570   27.0310   36.5740 H   0  0  0  0  0  0  0  0  0  0  0  0
   37.2300   28.2050   42.1570 C   0  0  0  0  0  0  0  0  0  0  0  0
   38.0130   27.3870   41.1590 C   0  0  0  0  0  2  0  0  0  0  0  0
   37.1080   26.9780   40.1060 N   0  0  0  0  0  0  0  0  0  0  0  0
   36.2860   26.3020   39.1600 C   0  0  0  0  0  0  0  0  0  0  0  0
   36.1940   25.0570   38.8990 O   0  0  0  0  0  0  0  0  0  0  0  0
   35.6330   27.5300   38.6460 C   0  0  1  0  0  3  0  0  0  0  0  0
   36.6500   28.2370   39.5080 C   0  0  1  0  0  3  0  0  0  0  0  0
   35.9630   28.9540   41.0550 S   0  0  0  0  0  0  0  0  0  0  0  0
   38.0460   29.3610   42.6970 C   0  0  0  0  0  2  0  0  0  0  0  0
   39.0850   29.0800   42.9580 H   0  0  0  0  0  0  0  0  0  0  0  0
   36.6170   27.3790   43.2460 C   0  0  0  0  0  2  0  0  0  0  0  0
   37.2660   26.4640   43.3700 H   0  0  0  0  0  0  0  0  0  0  0  0
   33.0840   28.5530   36.1740 C   0  0  0  0  0  0  0  0  0  0  0  0
   32.8230   27.3850   36.5590 O   0  0  0  0  0  0  0  0  0  0  0  0
   30.4130   30.7160   37.4090 C   0  0  0  0  0  0  0  0  0  0  0  0
   30.1210   31.5690   36.3160 C   0  0  0  0  0  0  0  0  0  0  0  0
   30.8670   31.3730   35.1680 C   0  0  0  0  0  0  0  0  0  0  0  0
   31.7770   30.3990   35.2310 N   0  0  0  0  0  0  0  0  0  0  0  0
   32.0570   29.6010   36.2410 C   0  0  0  0  0  0  0  0  0  0  0  0
   31.3480   29.7700   37.3680 N   0  0  0  0  0  0  0  0  0  0  0  0
   29.8440   30.8380   38.3390 H   0  0  0  0  0  0  0  0  0  0  0  0
   29.3480   32.3160   36.4210 H   0  0  0  0  0  0  0  0  0  0  0  0
   30.5680   32.2390   34.0390 C   0  0  0  0  0  0  0  0  0  0  0  0
   29.4190   32.9750   34.3050 F   0  0  0  0  0  0  0  0  0  0  0  0
   30.3390   31.4330   32.9720 F   0  0  0  0  0  0  0  0  0  0  0  0
   31.5670   33.1790   33.8150 F   0  0  0  0  0  0  0  0  0  0  0  0
  1  7  1  6  0  0  0
  1 32  1  0  0  0  0
  1  6  1  0  0  0  0
  2  8  1  0  0  0  0
  2  1  1  0  0  0  0
  3 10  1  0  0  0  0
  3  2  1  0  0  0  0
  3  4  1  0  0  0  0
  4  5  1  0  0  0  0
  5 14  1  0  0  0  0
  5 15  1  0  0  0  0
  5  6  1  0  0  0  0
  6 17  1  0  0  0  0
  6 16  1  1  0  0  0
  9  2  1  0  0  0  0
 11  3  1  0  0  0  0
 12  4  1  0  0  0  0
 13  4  1  0  0  0  0
 18 17  1  0  0  0  0
 19 17  1  0  0  0  0
 20 28  1  0  0  0  0
 20 30  1  0  0  0  0
 21 20  1  0  0  0  0
 22 21  1  0  0  0  0
 23 22  1  0  0  0  0
 24 23  2  0  0  0  0
 25 17  1  6  0  0  0
 25 23  1  0  0  0  0
 25 26  1  0  0  0  0
 26 22  1  0  0  0  0
 26 27  1  1  0  0  0
 27 20  1  0  0  0  0
 28 29  1  0  0  0  0
 30 31  1  0  0  0  0
 32 38  1  0  0  0  0
 32 33  2  0  0  0  0
 34 40  1  0  0  0  0
 35 41  1  0  0  0  0
 35 34  2  0  0  0  0
 36 37  2  0  0  0  0
 36 35  1  0  0  0  0
 37 38  1  0  0  0  0
 38 39  2  0  0  0  0
 39 34  1  0  0  0  0
 42 43  1  0  0  0  0
 42 36  1  0  0  0  0
 44 42  1  0  0  0  0
 45 42  1  0  0  0  0
M  END
>  <minimizedAffinity>
-5.87907887

$$$$

 OpenBabel03242518563D

 45 48  0  0  1  0  0  0  0  0999 V2000
   39.0750   26.2950   41.9350 C   0  0  2  0  0  0  0  0  0  0  0  0
   39.5230   25.6640   43.2140 C   0  0  0  0  0  0  0  0  0  0  0  0
   40.9970   25.4660   43.1080 C   0  0  0  0  0  0  0  0  0  0  0  0
   41.6080   25.8360   41.8030 C   0  0  0  0  0  0  0  0  0  0  0  0
   41.2680   27.2570   41.4460 C   0  0  0  0  0  0  0  0  0  0  0  0
   39.8710   27.5660   41.7120 C   0  0  2  0  0  0  0  0  0  0  0  0
   39.3670   25.6420   41.0870 H   0  0  0  0  0  0  0  0  0  0  0  0
   39.2300   26.1980   44.1240 H   0  0  0  0  0  0  0  0  0  0  0  0
   38.9700   24.6740   43.2880 H   0  0  0  0  0  0  0  0  0  0  0  0
   41.5910   25.9210   43.9420 H   0  0  0  0  0  0  0  0  0  0  0  0
   41.1940   24.3630   43.2350 H   0  0  0  0  0  0  0  0  0  0  0  0
   42.7140   25.7460   41.9350 H   0  0  0  0  0  0  0  0  0  0  0  0
   41.3580   25.1100   40.9840 H   0  0  0  0  0  0  0  0  0  0  0  0
   42.0490   27.9020   41.8880 H   0  0  0  0  0  0  0  0  0  0  0  0
   41.4460   27.3360   40.3330 H   0  0  0  0  0  0  0  0  0  0  0  0
   39.4010   28.1260   40.9010 H   0  0  0  0  0  0  0  0  0  0  0  0
   39.8640   28.4040   42.9450 C   0  0  0  0  0  0  0  0  0  0  0  0
   40.8500   28.5390   43.4280 H   0  0  0  0  0  0  0  0  0  0  0  0
   39.1970   27.9000   43.6810 H   0  0  0  0  0  0  0  0  0  0  0  0
   38.2720   32.0150   39.6360 C   0  0  0  0  0  0  0  0  0  0  0  0
   39.7070   31.5580   39.7470 C   0  0  0  0  0  2  0  0  0  0  0  0
   39.9200   31.0750   41.0950 N   0  0  0  0  0  0  0  0  0  0  0  0
   40.3290   30.8180   42.4340 C   0  0  0  0  0  0  0  0  0  0  0  0
   41.2810   31.3310   43.1110 O   0  0  0  0  0  0  0  0  0  0  0  0
   39.2850   29.7990   42.7020 C   0  0  1  0  0  3  0  0  0  0  0  0
   38.9980   29.9420   41.2270 C   0  0  1  0  0  3  0  0  0  0  0  0
   37.4670   30.8850   40.8420 S   0  0  0  0  0  0  0  0  0  0  0  0
   37.6780   31.6700   38.2850 C   0  0  0  0  0  2  0  0  0  0  0  0
   38.3590   31.8870   37.4380 H   0  0  0  0  0  0  0  0  0  0  0  0
   38.0820   33.4560   39.9940 C   0  0  0  0  0  2  0  0  0  0  0  0
   39.0570   33.9820   39.7730 H   0  0  0  0  0  0  0  0  0  0  0  0
   37.6100   26.5110   41.8410 C   0  0  0  0  0  0  0  0  0  0  0  0
   36.8670   26.5820   42.8530 O   0  0  0  0  0  0  0  0  0  0  0  0
   36.8920   25.9230   38.3090 C   0  0  0  0  0  0  0  0  0  0  0  0
   35.9620   26.9360   37.9680 C   0  0  0  0  0  0  0  0  0  0  0  0
   35.5990   27.8030   38.9830 C   0  0  0  0  0  0  0  0  0  0  0  0
   36.1750   27.5780   40.1660 N   0  0  0  0  0  0  0  0  0  0  0  0
   37.0400   26.6410   40.4930 C   0  0  0  0  0  0  0  0  0  0  0  0
   37.4090   25.7850   39.5270 N   0  0  0  0  0  0  0  0  0  0  0  0
   37.2070   25.2140   37.5320 H   0  0  0  0  0  0  0  0  0  0  0  0
   35.5840   26.9870   36.9580 H   0  0  0  0  0  0  0  0  0  0  0  0
   34.6490   28.8490   38.6410 C   0  0  0  0  0  0  0  0  0  0  0  0
   35.2200   29.7140   37.7140 F   0  0  0  0  0  0  0  0  0  0  0  0
   34.3880   29.5350   39.7820 F   0  0  0  0  0  0  0  0  0  0  0  0
   33.5090   28.3460   38.0260 F   0  0  0  0  0  0  0  0  0  0  0  0
  1  7  1  6  0  0  0
  1  2  1  0  0  0  0
  2  9  1  0  0  0  0
  2  8  1  0  0  0  0
  3  2  1  0  0  0  0
  3 11  1  0  0  0  0
  3 10  1  0  0  0  0
  4 12  1  0  0  0  0
  4  3  1  0  0  0  0
  5  6  1  0  0  0  0
  5  4  1  0  0  0  0
  5 14  1  0  0  0  0
  6 16  1  6  0  0  0
  6  1  1  0  0  0  0
  6 17  1  0  0  0  0
 13  4  1  0  0  0  0
 15  5  1  0  0  0  0
 17 18  1  0  0  0  0
 17 19  1  0  0  0  0
 20 21  1  0  0  0  0
 20 30  1  0  0  0  0
 20 27  1  0  0  0  0
 21 22  1  0  0  0  0
 22 26  1  0  0  0  0
 22 23  1  0  0  0  0
 23 25  1  0  0  0  0
 23 24  2  0  0  0  0
 25 17  1  6  0  0  0
 26 27  1  1  0  0  0
 26 25  1  0  0  0  0
 28 20  1  0  0  0  0
 29 28  1  0  0  0  0
 31 30  1  0  0  0  0
 32  1  1  0  0  0  0
 32 33  2  0  0  0  0
 34 39  1  0  0  0  0
 35 34  2  0  0  0  0
 35 36  1  0  0  0  0
 36 37  2  0  0  0  0
 37 38  1  0  0  0  0
 38 32  1  0  0  0  0
 39 38  2  0  0  0  0
 40 34  1  0  0  0  0
 41 35  1  0  0  0  0
 42 36  1  0  0  0  0
 42 44  1  0  0  0  0
 43 42  1  0  0  0  0
 45 42  1  0  0  0  0
M  END
>  <minimizedAffinity>
-5.84430027

$$$$
