
 OpenBabel03242512053D

 23 26  0  0  1  0  0  0  0  0999 V2000
   38.6480   31.7330   40.4120 C   0  0  0  0  0  0  0  0  0  0  0  0
   37.1680   31.6980   40.4110 C   0  0  0  0  0  2  0  0  0  0  0  0
   36.7000   30.4140   40.7920 N   0  0  1  0  0  0  0  0  0  0  0  0
   35.9990   29.1780   40.8690 C   0  0  1  0  0  0  0  0  0  0  0  0
   34.7900   28.8670   40.6000 O   0  0  0  0  0  1  0  0  0  0  0  0
   37.2500   28.5620   41.3570 C   0  0  1  0  0  3  0  0  0  0  0  0
   37.4200   29.9620   41.9350 C   0  0  1  0  0  0  0  0  0  0  0  0
   39.0690   30.6350   41.8220 S   0  0  0  0  0  0  0  0  0  0  0  0
   37.1190   27.5850   42.4650 C   0  0  0  0  0  0  0  0  0  0  0  0
   36.1390   27.5980   43.2680 O   0  0  0  0  0  0  0  0  0  0  0  0
   37.9940   25.3190   42.0460 C   0  0  0  0  0  0  0  0  0  0  0  0
   38.1140   26.5630   42.6830 C   0  0  0  0  0  0  0  0  0  0  0  0
   39.2090   26.7900   43.5240 C   0  0  0  0  0  0  0  0  0  0  0  0
   40.1020   25.7830   43.6790 N   0  0  0  0  0  0  0  0  0  0  0  0
   39.9600   24.5930   43.0530 C   0  0  0  0  0  0  0  0  0  0  0  0
   38.9120   24.3650   42.2420 N   0  0  0  0  0  0  0  0  0  0  0  0
   37.1680   25.1080   41.3940 H   0  0  0  0  0  0  0  0  0  0  0  0
   39.2970   27.7490   44.0110 H   0  0  0  0  0  0  0  0  0  0  0  0
   40.7900   23.9510   43.3280 H   0  0  0  0  0  0  0  0  0  0  0  0
   39.2360   33.0900   40.7930 C   0  0  0  0  0  2  0  0  0  0  0  0
   40.3240   33.0410   40.5130 H   0  0  0  0  0  0  0  0  0  0  0  0
   39.3230   31.1750   39.2020 C   0  0  0  0  0  2  0  0  0  0  0  0
   40.3570   31.6290   39.1610 H   0  0  0  0  0  0  0  0  0  0  0  0
  1 20  1  0  0  0  0
  1  8  1  0  0  0  0
  2  1  1  0  0  0  0
  3  2  1  6  0  0  0
  3  4  1  0  0  0  0
  3  7  1  0  0  0  0
  4  5  1  1  0  0  0
  4  6  1  0  0  0  0
  4  7  1  0  0  0  0
  6  7  1  0  0  0  0
  6  9  1  1  0  0  0
  7  8  1  1  0  0  0
  9 12  1  0  0  0  0
  9 10  2  0  0  0  0
 11 16  2  0  0  0  0
 11 12  1  0  0  0  0
 12 13  2  0  0  0  0
 13 14  1  0  0  0  0
 13 18  1  0  0  0  0
 15 19  1  0  0  0  0
 15 14  2  0  0  0  0
 16 15  1  0  0  0  0
 17 11  1  0  0  0  0
 21 20  1  0  0  0  0
 22  1  1  0  0  0  0
 23 22  1  0  0  0  0
M  END
>  <minimizedAffinity>
-4.98228025

$$$$

 OpenBabel03242512053D

 23 26  0  0  1  0  0  0  0  0999 V2000
   37.7820   27.1920   42.8160 C   0  0  0  0  0  0  0  0  0  0  0  0
   37.5970   26.2860   41.6600 C   0  0  0  0  0  2  0  0  0  0  0  0
   37.0260   26.9860   40.5650 N   0  0  1  0  0  0  0  0  0  0  0  0
   36.2280   27.3750   39.4530 C   0  0  1  0  0  0  0  0  0  0  0  0
   35.6930   26.6970   38.5120 O   0  0  0  0  0  1  0  0  0  0  0  0
   36.3490   28.7700   39.9240 C   0  0  1  0  0  3  0  0  0  0  0  0
   37.6960   28.2310   40.3920 C   0  0  1  0  0  0  0  0  0  0  0  0
   38.2140   28.7830   42.0080 S   0  0  0  0  0  0  0  0  0  0  0  0
   36.5670   29.8030   38.8830 C   0  0  0  0  0  0  0  0  0  0  0  0
   36.0730   29.7090   37.7210 O   0  0  0  0  0  0  0  0  0  0  0  0
   38.5490   31.1990   38.4370 C   0  0  0  0  0  0  0  0  0  0  0  0
   37.3610   30.9780   39.1500 C   0  0  0  0  0  0  0  0  0  0  0  0
   36.9670   31.9120   40.1150 C   0  0  0  0  0  0  0  0  0  0  0  0
   37.7640   32.9900   40.3080 N   0  0  0  0  0  0  0  0  0  0  0  0
   38.9040   33.1770   39.6070 C   0  0  0  0  0  0  0  0  0  0  0  0
   39.2920   32.2860   38.6780 N   0  0  0  0  0  0  0  0  0  0  0  0
   38.8840   30.5050   37.6900 H   0  0  0  0  0  0  0  0  0  0  0  0
   36.0520   31.7370   40.6600 H   0  0  0  0  0  0  0  0  0  0  0  0
   39.3700   34.1010   39.9340 H   0  0  0  0  0  0  0  0  0  0  0  0
   38.9960   26.8580   43.6800 C   0  0  0  0  0  2  0  0  0  0  0  0
   38.8680   27.4470   44.6280 H   0  0  0  0  0  0  0  0  0  0  0  0
   36.5740   27.4400   43.6590 C   0  0  0  0  0  2  0  0  0  0  0  0
   36.9420   27.7790   44.6720 H   0  0  0  0  0  0  0  0  0  0  0  0
  1 22  1  0  0  0  0
  1 20  1  0  0  0  0
  2  1  1  0  0  0  0
  3  2  1  1  0  0  0
  4  5  1  6  0  0  0
  4  6  1  0  0  0  0
  4  7  1  0  0  0  0
  4  3  1  0  0  0  0
  6  9  1  6  0  0  0
  6  7  1  0  0  0  0
  7  3  1  0  0  0  0
  7  8  1  6  0  0  0
  8  1  1  0  0  0  0
  9 12  1  0  0  0  0
 10  9  2  0  0  0  0
 11 16  2  0  0  0  0
 11 12  1  0  0  0  0
 12 13  2  0  0  0  0
 13 14  1  0  0  0  0
 13 18  1  0  0  0  0
 15 19  1  0  0  0  0
 15 14  2  0  0  0  0
 16 15  1  0  0  0  0
 17 11  1  0  0  0  0
 20 21  1  0  0  0  0
 22 23  1  0  0  0  0
M  END
>  <minimizedAffinity>
-4.75529146

$$$$

 OpenBabel03242512053D

 23 26  0  0  1  0  0  0  0  0999 V2000
   37.4440   25.4490   40.7850 C   0  0  0  0  0  0  0  0  0  0  0  0
   37.3110   25.9380   42.1760 C   0  0  0  0  0  2  0  0  0  0  0  0
   37.4050   27.3530   42.2170 N   0  0  1  0  0  0  0  0  0  0  0  0
   37.7360   28.6960   42.5540 C   0  0  1  0  0  0  0  0  0  0  0  0
   37.9810   29.2560   43.6750 O   0  0  0  0  0  1  0  0  0  0  0  0
   37.6490   29.0200   41.1150 C   0  0  1  0  0  3  0  0  0  0  0  0
   36.5990   27.9170   41.1870 C   0  0  1  0  0  0  0  0  0  0  0  0
   36.6110   26.7700   39.8190 S   0  0  0  0  0  0  0  0  0  0  0  0
   36.9910   30.3020   40.7650 C   0  0  0  0  0  0  0  0  0  0  0  0
   35.7400   30.3970   40.5920 O   0  0  0  0  0  0  0  0  0  0  0  0
   39.0890   31.5690   41.0370 C   0  0  0  0  0  0  0  0  0  0  0  0
   37.7560   31.5150   40.6020 C   0  0  0  0  0  0  0  0  0  0  0  0
   37.1900   32.6500   40.0120 C   0  0  0  0  0  0  0  0  0  0  0  0
   37.9700   33.7510   39.8930 N   0  0  0  0  0  0  0  0  0  0  0  0
   39.2510   33.7760   40.3220 C   0  0  0  0  0  0  0  0  0  0  0  0
   39.8050   32.6890   40.8900 N   0  0  0  0  0  0  0  0  0  0  0  0
   39.5560   30.7180   41.4940 H   0  0  0  0  0  0  0  0  0  0  0  0
   36.1640   32.6040   39.6790 H   0  0  0  0  0  0  0  0  0  0  0  0
   39.6700   34.7560   40.1230 H   0  0  0  0  0  0  0  0  0  0  0  0
   36.6340   24.1880   40.4900 C   0  0  0  0  0  2  0  0  0  0  0  0
   37.0190   23.8010   39.5070 H   0  0  0  0  0  0  0  0  0  0  0  0
   38.8370   25.3290   40.2590 C   0  0  0  0  0  2  0  0  0  0  0  0
   38.8040   24.5920   39.4030 H   0  0  0  0  0  0  0  0  0  0  0  0
  1  2  1  0  0  0  0
  3  2  1  6  0  0  0
  3  4  1  0  0  0  0
  4  5  1  1  0  0  0
  6  9  1  1  0  0  0
  6  7  1  0  0  0  0
  6  4  1  0  0  0  0
  7  8  1  6  0  0  0
  7  3  1  0  0  0  0
  7  4  1  0  0  0  0
  8  1  1  0  0  0  0
 10  9  2  0  0  0  0
 11 17  1  0  0  0  0
 12  9  1  0  0  0  0
 12 11  2  0  0  0  0
 13 12  1  0  0  0  0
 14 13  2  0  0  0  0
 14 15  1  0  0  0  0
 15 16  2  0  0  0  0
 16 11  1  0  0  0  0
 18 13  1  0  0  0  0
 19 15  1  0  0  0  0
 20  1  1  0  0  0  0
 21 20  1  0  0  0  0
 22  1  1  0  0  0  0
 23 22  1  0  0  0  0
M  END
>  <minimizedAffinity>
-4.69111681

$$$$

 OpenBabel03242512053D

 23 26  0  0  1  0  0  0  0  0999 V2000
   38.2030   26.9880   42.3390 C   0  0  0  0  0  0  0  0  0  0  0  0
   36.9270   26.7430   41.6300 C   0  0  0  0  0  2  0  0  0  0  0  0
   36.5030   27.9140   40.9490 N   0  0  1  0  0  0  0  0  0  0  0  0
   35.7390   28.9940   40.4270 C   0  0  1  0  0  0  0  0  0  0  0  0
   34.5200   29.0730   40.0540 O   0  0  0  0  0  1  0  0  0  0  0  0
   36.9510   29.8320   40.5380 C   0  0  1  0  0  3  0  0  0  0  0  0
   37.6040   28.4860   40.2510 C   0  0  1  0  0  0  0  0  0  0  0  0
   39.0740   28.1370   41.2020 S   0  0  0  0  0  0  0  0  0  0  0  0
   37.2200   30.7600   39.4130 C   0  0  0  0  0  0  0  0  0  0  0  0
   36.7020   30.6050   38.2680 O   0  0  0  0  0  0  0  0  0  0  0  0
   37.5950   33.1030   40.0820 C   0  0  0  0  0  0  0  0  0  0  0  0
   38.0970   31.8960   39.5730 C   0  0  0  0  0  0  0  0  0  0  0  0
   39.4510   31.8160   39.2300 C   0  0  0  0  0  0  0  0  0  0  0  0
   40.2100   32.9230   39.4090 N   0  0  0  0  0  0  0  0  0  0  0  0
   39.7000   34.0750   39.8990 C   0  0  0  0  0  0  0  0  0  0  0  0
   38.4000   34.1610   40.2330 N   0  0  0  0  0  0  0  0  0  0  0  0
   36.5620   33.2020   40.3550 H   0  0  0  0  0  0  0  0  0  0  0  0
   39.8310   30.8840   38.8400 H   0  0  0  0  0  0  0  0  0  0  0  0
   40.4910   34.8150   39.9520 H   0  0  0  0  0  0  0  0  0  0  0  0
   39.1130   25.7640   42.4190 C   0  0  0  0  0  2  0  0  0  0  0  0
   39.9020   26.0190   43.1790 H   0  0  0  0  0  0  0  0  0  0  0  0
   38.1020   27.6700   43.6640 C   0  0  0  0  0  2  0  0  0  0  0  0
   39.0430   27.4200   44.2370 H   0  0  0  0  0  0  0  0  0  0  0  0
  1 20  1  0  0  0  0
  1 22  1  0  0  0  0
  2  1  1  0  0  0  0
  3  2  1  1  0  0  0
  4  5  1  6  0  0  0
  4  6  1  0  0  0  0
  4  3  1  0  0  0  0
  6  9  1  6  0  0  0
  7  4  1  0  0  0  0
  7  6  1  0  0  0  0
  7  3  1  0  0  0  0
  7  8  1  6  0  0  0
  8  1  1  0  0  0  0
  9 12  1  0  0  0  0
 10  9  2  0  0  0  0
 11 16  1  0  0  0  0
 11 17  1  0  0  0  0
 12 11  2  0  0  0  0
 13 14  2  0  0  0  0
 13 12  1  0  0  0  0
 14 15  1  0  0  0  0
 15 19  1  0  0  0  0
 15 16  2  0  0  0  0
 18 13  1  0  0  0  0
 20 21  1  0  0  0  0
 22 23  1  0  0  0  0
M  END
>  <minimizedAffinity>
-4.62064791

$$$$

 OpenBabel03242512053D

 23 26  0  0  1  0  0  0  0  0999 V2000
   40.7640   26.3200   42.6050 C   0  0  0  0  0  0  0  0  0  0  0  0
   39.4380   25.7670   42.9600 C   0  0  0  0  0  2  0  0  0  0  0  0
   38.4380   26.7690   42.8570 N   0  0  1  0  0  0  0  0  0  0  0  0
   37.3290   27.6280   43.0970 C   0  0  1  0  0  0  0  0  0  0  0  0
   36.2100   27.4310   43.6800 O   0  0  0  0  0  1  0  0  0  0  0  0
   38.0790   28.6970   42.4050 C   0  0  1  0  0  3  0  0  0  0  0  0
   38.6040   27.4880   41.6400 C   0  0  1  0  0  0  0  0  0  0  0  0
   40.3520   27.5200   41.2780 S   0  0  0  0  0  0  0  0  0  0  0  0
   37.3010   29.5620   41.4850 C   0  0  0  0  0  0  0  0  0  0  0  0
   36.1810   29.2100   41.0090 O   0  0  0  0  0  0  0  0  0  0  0  0
   36.9480   31.7460   40.3970 C   0  0  0  0  0  0  0  0  0  0  0  0
   37.7910   30.8590   41.0850 C   0  0  0  0  0  0  0  0  0  0  0  0
   39.1010   31.2560   41.3730 C   0  0  0  0  0  0  0  0  0  0  0  0
   39.4880   32.4880   40.9660 N   0  0  0  0  0  0  0  0  0  0  0  0
   38.6550   33.3220   40.3030 C   0  0  0  0  0  0  0  0  0  0  0  0
   37.3940   32.9500   40.0220 N   0  0  0  0  0  0  0  0  0  0  0  0
   35.9380   31.4760   40.1580 H   0  0  0  0  0  0  0  0  0  0  0  0
   39.7450   30.5700   41.9030 H   0  0  0  0  0  0  0  0  0  0  0  0
   39.1830   34.2440   40.0830 H   0  0  0  0  0  0  0  0  0  0  0  0
   41.6970   25.3130   41.9350 C   0  0  0  0  0  2  0  0  0  0  0  0
   42.7190   25.7820   41.9550 H   0  0  0  0  0  0  0  0  0  0  0  0
   41.4730   27.0770   43.6800 C   0  0  0  0  0  2  0  0  0  0  0  0
   42.5730   27.0690   43.4200 H   0  0  0  0  0  0  0  0  0  0  0  0
  1  2  1  0  0  0  0
  1 22  1  0  0  0  0
  3  2  1  1  0  0  0
  3  4  1  0  0  0  0
  4  5  1  1  0  0  0
  6  9  1  6  0  0  0
  6  4  1  0  0  0  0
  7  8  1  6  0  0  0
  7  6  1  0  0  0  0
  7  3  1  0  0  0  0
  7  4  1  0  0  0  0
  8  1  1  0  0  0  0
 10  9  2  0  0  0  0
 11 12  1  0  0  0  0
 12 13  2  0  0  0  0
 12  9  1  0  0  0  0
 13 18  1  0  0  0  0
 14 13  1  0  0  0  0
 15 14  2  0  0  0  0
 16 15  1  0  0  0  0
 16 11  2  0  0  0  0
 17 11  1  0  0  0  0
 19 15  1  0  0  0  0
 20 21  1  0  0  0  0
 20  1  1  0  0  0  0
 23 22  1  0  0  0  0
M  END
>  <minimizedAffinity>
-4.61524582

$$$$

 OpenBabel03242512053D

 23 26  0  0  1  0  0  0  0  0999 V2000
   37.2300   29.4110   41.4860 C   0  0  0  0  0  0  0  0  0  0  0  0
   36.4130   30.5780   41.0840 C   0  0  0  0  0  2  0  0  0  0  0  0
   37.2080   31.5270   40.3910 N   0  0  1  0  0  0  0  0  0  0  0  0
   37.8220   32.7260   39.9310 C   0  0  1  0  0  0  0  0  0  0  0  0
   37.3790   33.9180   39.8120 O   0  0  0  0  0  1  0  0  0  0  0  0
   39.0540   31.9420   39.7050 C   0  0  1  0  0  3  0  0  0  0  0  0
   38.0160   30.8610   39.4260 C   0  0  1  0  0  0  0  0  0  0  0  0
   38.4040   29.2480   40.0830 S   0  0  0  0  0  0  0  0  0  0  0  0
   39.8060   32.2340   38.4600 C   0  0  0  0  0  0  0  0  0  0  0  0
   39.3440   31.9680   37.3110 O   0  0  0  0  0  0  0  0  0  0  0  0
   41.6190   33.3400   39.7130 C   0  0  0  0  0  0  0  0  0  0  0  0
   41.1130   32.8430   38.5020 C   0  0  0  0  0  0  0  0  0  0  0  0
   41.8970   32.9490   37.3470 C   0  0  0  0  0  0  0  0  0  0  0  0
   43.1140   33.5310   37.4650 N   0  0  0  0  0  0  0  0  0  0  0  0
   43.5750   34.0030   38.6450 C   0  0  0  0  0  0  0  0  0  0  0  0
   42.8300   33.9060   39.7600 N   0  0  0  0  0  0  0  0  0  0  0  0
   41.0470   33.2770   40.6180 H   0  0  0  0  0  0  0  0  0  0  0  0
   41.5040   32.5650   36.4180 H   0  0  0  0  0  0  0  0  0  0  0  0
   44.5640   34.4220   38.4930 H   0  0  0  0  0  0  0  0  0  0  0  0
   36.4630   28.0910   41.4990 C   0  0  0  0  0  2  0  0  0  0  0  0
   37.1180   27.3620   42.0500 H   0  0  0  0  0  0  0  0  0  0  0  0
   38.0450   29.5720   42.7270 C   0  0  0  0  0  2  0  0  0  0  0  0
   38.2640   28.5340   43.1160 H   0  0  0  0  0  0  0  0  0  0  0  0
  1 20  1  0  0  0  0
  1 22  1  0  0  0  0
  2  1  1  0  0  0  0
  3  2  1  1  0  0  0
  4  5  1  6  0  0  0
  4  3  1  0  0  0  0
  6  9  1  6  0  0  0
  6  4  1  0  0  0  0
  7  6  1  0  0  0  0
  7  4  1  0  0  0  0
  7  8  1  6  0  0  0
  7  3  1  0  0  0  0
  8  1  1  0  0  0  0
  9 12  1  0  0  0  0
 10  9  2  0  0  0  0
 11 16  1  0  0  0  0
 11 17  1  0  0  0  0
 12 11  2  0  0  0  0
 13 14  2  0  0  0  0
 13 12  1  0  0  0  0
 14 15  1  0  0  0  0
 15 16  2  0  0  0  0
 18 13  1  0  0  0  0
 19 15  1  0  0  0  0
 20 21  1  0  0  0  0
 22 23  1  0  0  0  0
M  END
>  <minimizedAffinity>
-4.59835482

$$$$

 OpenBabel03242512053D

 23 26  0  0  1  0  0  0  0  0999 V2000
   38.4720   32.2990   39.5720 C   0  0  0  0  0  0  0  0  0  0  0  0
   36.9950   32.2620   39.6620 C   0  0  0  0  0  2  0  0  0  0  0  0
   36.5520   30.9700   40.0470 N   0  0  1  0  0  0  0  0  0  0  0  0
   35.8570   29.7320   40.1450 C   0  0  1  0  0  0  0  0  0  0  0  0
   34.6340   29.4250   39.9450 O   0  0  0  0  0  1  0  0  0  0  0  0
   37.1360   29.1080   40.5420 C   0  0  1  0  0  3  0  0  0  0  0  0
   37.3410   30.4980   41.1350 C   0  0  1  0  0  0  0  0  0  0  0  0
   38.9800   31.1750   40.9320 S   0  0  0  0  0  0  0  0  0  0  0  0
   37.0740   28.1110   41.6380 C   0  0  0  0  0  0  0  0  0  0  0  0
   37.0710   28.4460   42.8600 O   0  0  0  0  0  0  0  0  0  0  0  0
   37.1930   25.7680   42.3970 C   0  0  0  0  0  0  0  0  0  0  0  0
   37.0150   26.6960   41.3600 C   0  0  0  0  0  0  0  0  0  0  0  0
   36.7790   26.2250   40.0640 C   0  0  0  0  0  0  0  0  0  0  0  0
   36.7370   24.8840   39.8800 N   0  0  0  0  0  0  0  0  0  0  0  0
   36.9130   24.0120   40.8990 C   0  0  0  0  0  0  0  0  0  0  0  0
   37.1390   24.4550   42.1480 N   0  0  0  0  0  0  0  0  0  0  0  0
   37.3760   26.0920   43.4040 H   0  0  0  0  0  0  0  0  0  0  0  0
   36.6430   26.9430   39.2690 H   0  0  0  0  0  0  0  0  0  0  0  0
   36.8370   23.0020   40.5130 H   0  0  0  0  0  0  0  0  0  0  0  0
   39.0830   33.6490   39.9410 C   0  0  0  0  0  2  0  0  0  0  0  0
   40.1510   33.6070   39.5930 H   0  0  0  0  0  0  0  0  0  0  0  0
   39.0700   31.7640   38.3120 C   0  0  0  0  0  2  0  0  0  0  0  0
   40.1000   32.2200   38.2160 H   0  0  0  0  0  0  0  0  0  0  0  0
  1  2  1  0  0  0  0
  1 20  1  0  0  0  0
  1  8  1  0  0  0  0
  3  2  1  6  0  0  0
  3  4  1  0  0  0  0
  3  7  1  0  0  0  0
  4  5  1  1  0  0  0
  4  6  1  0  0  0  0
  4  7  1  0  0  0  0
  6  7  1  0  0  0  0
  6  9  1  1  0  0  0
  7  8  1  1  0  0  0
  9 10  2  0  0  0  0
 11 17  1  0  0  0  0
 12  9  1  0  0  0  0
 12 11  2  0  0  0  0
 13 12  1  0  0  0  0
 14 13  2  0  0  0  0
 14 15  1  0  0  0  0
 15 16  2  0  0  0  0
 16 11  1  0  0  0  0
 18 13  1  0  0  0  0
 19 15  1  0  0  0  0
 21 20  1  0  0  0  0
 22  1  1  0  0  0  0
 23 22  1  0  0  0  0
M  END
>  <minimizedAffinity>
-4.58327198

$$$$

 OpenBabel03242512053D

 23 26  0  0  1  0  0  0  0  0999 V2000
   38.5840   24.2370   40.7930 C   0  0  0  0  0  0  0  0  0  0  0  0
   39.3940   24.4000   42.0220 C   0  0  0  0  0  2  0  0  0  0  0  0
   39.4240   25.7620   42.4210 N   0  0  1  0  0  0  0  0  0  0  0  0
   39.8310   27.0520   42.8600 C   0  0  1  0  0  0  0  0  0  0  0  0
   40.7370   27.4260   43.6800 O   0  0  0  0  0  1  0  0  0  0  0  0
   38.7870   27.6200   41.9830 C   0  0  1  0  0  3  0  0  0  0  0  0
   38.1100   26.3070   42.3590 C   0  0  1  0  0  0  0  0  0  0  0  0
   37.2570   25.4840   41.0240 S   0  0  0  0  0  0  0  0  0  0  0  0
   38.0040   28.7530   42.5330 C   0  0  0  0  0  0  0  0  0  0  0  0
   37.4000   28.6820   43.6440 O   0  0  0  0  0  0  0  0  0  0  0  0
   36.6770   30.3600   41.2160 C   0  0  0  0  0  0  0  0  0  0  0  0
   37.8920   30.0020   41.8190 C   0  0  0  0  0  0  0  0  0  0  0  0
   38.9810   30.8740   41.7170 C   0  0  0  0  0  0  0  0  0  0  0  0
   38.8000   32.0290   41.0320 N   0  0  0  0  0  0  0  0  0  0  0  0
   37.6180   32.3470   40.4590 C   0  0  0  0  0  0  0  0  0  0  0  0
   36.5640   31.5160   40.5520 N   0  0  0  0  0  0  0  0  0  0  0  0
   35.8200   29.7160   41.2730 H   0  0  0  0  0  0  0  0  0  0  0  0
   39.9140   30.5950   42.1840 H   0  0  0  0  0  0  0  0  0  0  0  0
   37.7130   33.3110   39.9700 H   0  0  0  0  0  0  0  0  0  0  0  0
   37.8470   22.9020   40.7080 C   0  0  0  0  0  2  0  0  0  0  0  0
   37.4920   22.8160   39.6450 H   0  0  0  0  0  0  0  0  0  0  0  0
   39.2700   24.5550   39.5040 C   0  0  0  0  0  2  0  0  0  0  0  0
   38.7070   24.0120   38.6880 H   0  0  0  0  0  0  0  0  0  0  0  0
  1  8  1  0  0  0  0
  1  2  1  0  0  0  0
  3  2  1  6  0  0  0
  3  4  1  0  0  0  0
  4  5  1  1  0  0  0
  6  7  1  0  0  0  0
  6  9  1  1  0  0  0
  6  4  1  0  0  0  0
  7  8  1  1  0  0  0
  7  3  1  0  0  0  0
  7  4  1  0  0  0  0
  9 10  2  0  0  0  0
 11 17  1  0  0  0  0
 11 12  1  0  0  0  0
 12  9  1  0  0  0  0
 13 12  2  0  0  0  0
 13 18  1  0  0  0  0
 14 13  1  0  0  0  0
 15 16  1  0  0  0  0
 15 14  2  0  0  0  0
 16 11  2  0  0  0  0
 19 15  1  0  0  0  0
 20  1  1  0  0  0  0
 21 20  1  0  0  0  0
 22  1  1  0  0  0  0
 23 22  1  0  0  0  0
M  END
>  <minimizedAffinity>
-4.57260799

$$$$

 OpenBabel03242512053D

 23 26  0  0  1  0  0  0  0  0999 V2000
   38.6270   26.3260   42.3660 C   0  0  0  0  0  0  0  0  0  0  0  0
   37.2290   26.2870   41.8810 C   0  0  0  0  0  2  0  0  0  0  0  0
   36.8830   27.5150   41.2590 N   0  0  1  0  0  0  0  0  0  0  0  0
   36.2180   28.7050   40.8520 C   0  0  1  0  0  0  0  0  0  0  0  0
   34.9810   28.9740   40.6830 O   0  0  0  0  0  1  0  0  0  0  0  0
   37.5450   29.3460   40.7490 C   0  0  1  0  0  3  0  0  0  0  0  0
   37.9280   27.9170   40.3800 C   0  0  1  0  0  0  0  0  0  0  0  0
   39.4640   27.3380   41.0830 S   0  0  0  0  0  0  0  0  0  0  0  0
   37.7640   30.2310   39.5800 C   0  0  0  0  0  0  0  0  0  0  0  0
   37.5120   29.8620   38.3940 O   0  0  0  0  0  0  0  0  0  0  0  0
   39.6670   31.7910   39.7350 C   0  0  0  0  0  0  0  0  0  0  0  0
   38.2810   31.5690   39.7400 C   0  0  0  0  0  0  0  0  0  0  0  0
   37.4210   32.6600   39.9000 C   0  0  0  0  0  0  0  0  0  0  0  0
   37.9800   33.8850   40.0440 N   0  0  0  0  0  0  0  0  0  0  0  0
   39.3190   34.0710   40.0370 C   0  0  0  0  0  0  0  0  0  0  0  0
   40.1550   33.0280   39.8830 N   0  0  0  0  0  0  0  0  0  0  0  0
   40.3570   30.9790   39.6140 H   0  0  0  0  0  0  0  0  0  0  0  0
   36.3560   32.4830   39.9030 H   0  0  0  0  0  0  0  0  0  0  0  0
   39.5280   35.1270   40.1680 H   0  0  0  0  0  0  0  0  0  0  0  0
   39.3390   24.9760   42.3160 C   0  0  0  0  0  2  0  0  0  0  0  0
   40.2720   25.1000   42.9320 H   0  0  0  0  0  0  0  0  0  0  0  0
   38.8510   27.0040   43.6780 C   0  0  0  0  0  2  0  0  0  0  0  0
   39.8240   26.6070   44.0930 H   0  0  0  0  0  0  0  0  0  0  0  0
  1 22  1  0  0  0  0
  2  1  1  0  0  0  0
  3  2  1  1  0  0  0
  4  5  1  6  0  0  0
  4  3  1  0  0  0  0
  6  9  1  6  0  0  0
  6  4  1  0  0  0  0
  7  6  1  0  0  0  0
  7  4  1  0  0  0  0
  7  8  1  6  0  0  0
  7  3  1  0  0  0  0
  8  1  1  0  0  0  0
  9 12  1  0  0  0  0
 10  9  2  0  0  0  0
 11 12  2  0  0  0  0
 11 16  1  0  0  0  0
 12 13  1  0  0  0  0
 13 18  1  0  0  0  0
 13 14  2  0  0  0  0
 15 14  1  0  0  0  0
 15 19  1  0  0  0  0
 16 15  2  0  0  0  0
 17 11  1  0  0  0  0
 20  1  1  0  0  0  0
 20 21  1  0  0  0  0
 22 23  1  0  0  0  0
M  END
>  <minimizedAffinity>
-4.53711367

$$$$
