
 OpenBabel03252501123D

 23 25  0  0  1  0  0  0  0  0999 V2000
   37.4540   27.2670   42.7070 C   0  0  0  0  0  0  0  0  0  0  0  0
   38.7150   27.3820   43.4560 C   0  0  0  0  0  2  0  0  0  0  0  0
   39.5760   28.3510   42.8740 N   0  0  0  0  0  0  0  0  0  0  0  0
   40.6180   29.1110   42.2820 C   0  0  0  0  0  0  0  0  0  0  0  0
   41.8290   28.7500   42.1020 O   0  0  0  0  0  0  0  0  0  0  0  0
   39.7540   30.2940   42.0300 C   0  0  2  0  0  3  0  0  0  0  0  0
   38.7790   29.5320   42.8520 C   0  0  1  0  0  3  0  0  0  0  0  0
   37.3120   28.9220   41.9470 S   0  0  0  0  0  0  0  0  0  0  0  0
   39.4950   30.4190   40.5800 C   0  0  0  0  0  0  0  0  0  0  0  0
   39.7110   29.5700   39.6610 O   0  0  0  0  0  0  0  0  0  0  0  0
   37.2900   33.0400   39.2030 C   0  0  0  0  0  0  0  0  0  0  0  0
   37.8690   31.7830   39.4530 C   0  0  0  0  0  0  0  0  0  0  0  0
   38.9320   31.7190   40.3520 C   0  0  0  0  0  0  0  0  0  0  0  0
   39.3680   32.8720   40.9540 N   0  0  0  0  0  0  0  0  0  0  0  0
   38.7760   34.0660   40.6800 C   0  0  0  0  0  0  0  0  0  0  0  0
   37.7350   34.1610   39.8060 N   0  0  0  0  0  0  0  0  0  0  0  0
   36.4790   33.0720   38.5130 H   0  0  0  0  0  0  0  0  0  0  0  0
   37.4970   30.8990   38.9600 H   0  0  0  0  0  0  0  0  0  0  0  0
   39.2250   34.8700   41.2250 H   0  0  0  0  0  0  0  0  0  0  0  0
   36.2990   27.1500   43.6800 C   0  0  0  0  0  2  0  0  0  0  0  0
   36.5540   27.7480   44.5910 H   0  0  0  0  0  0  0  0  0  0  0  0
   37.4310   26.1800   41.6690 C   0  0  0  0  0  2  0  0  0  0  0  0
   36.3940   25.7630   41.6970 H   0  0  0  0  0  0  0  0  0  0  0  0
  1  2  1  0  0  0  0
  1 20  1  0  0  0  0
  3  2  1  0  0  0  0
  4  3  1  0  0  0  0
  5  4  2  0  0  0  0
  6  9  1  6  0  0  0
  6  4  1  0  0  0  0
  6  7  1  0  0  0  0
  7  8  1  6  0  0  0
  7  3  1  0  0  0  0
  8  1  1  0  0  0  0
 10  9  2  0  0  0  0
 11 12  2  0  0  0  0
 11 16  1  0  0  0  0
 12 13  1  0  0  0  0
 13  9  1  0  0  0  0
 13 14  2  0  0  0  0
 15 14  1  0  0  0  0
 15 19  1  0  0  0  0
 16 15  2  0  0  0  0
 17 11  1  0  0  0  0
 18 12  1  0  0  0  0
 20 21  1  0  0  0  0
 22 23  1  0  0  0  0
 22  1  1  0  0  0  0
M  END
>  <minimizedAffinity>
-4.80465126

$$$$

 OpenBabel03252501123D

 23 25  0  0  1  0  0  0  0  0999 V2000
   37.3500   31.5630   39.6780 C   0  0  0  0  0  0  0  0  0  0  0  0
   36.4700   31.1620   40.7860 C   0  0  0  0  0  2  0  0  0  0  0  0
   36.9530   29.9930   41.4330 N   0  0  0  0  0  0  0  0  0  0  0  0
   37.1840   28.7220   42.0210 C   0  0  0  0  0  0  0  0  0  0  0  0
   36.3270   27.7990   42.2250 O   0  0  0  0  0  0  0  0  0  0  0  0
   38.6350   28.9680   42.2320 C   0  0  2  0  0  3  0  0  0  0  0  0
   38.2780   30.3490   41.8150 C   0  0  1  0  0  3  0  0  0  0  0  0
   38.9580   30.8710   40.2010 S   0  0  0  0  0  0  0  0  0  0  0  0
   39.4200   28.1380   41.2930 C   0  0  0  0  0  0  0  0  0  0  0  0
   39.9380   28.4730   40.1830 O   0  0  0  0  0  0  0  0  0  0  0  0
   40.2490   25.4450   43.6770 C   0  0  0  0  0  0  0  0  0  0  0  0
   40.1390   26.7190   43.0940 C   0  0  0  0  0  0  0  0  0  0  0  0
   39.5120   26.8200   41.8540 C   0  0  0  0  0  0  0  0  0  0  0  0
   39.0300   25.6850   41.2550 N   0  0  0  0  0  0  0  0  0  0  0  0
   39.1600   24.4720   41.8580 C   0  0  0  0  0  0  0  0  0  0  0  0
   39.7690   24.3410   43.0700 N   0  0  0  0  0  0  0  0  0  0  0  0
   40.7310   25.3850   44.6250 H   0  0  0  0  0  0  0  0  0  0  0  0
   40.5310   27.5900   43.5970 H   0  0  0  0  0  0  0  0  0  0  0  0
   38.7360   23.6850   41.2710 H   0  0  0  0  0  0  0  0  0  0  0  0
   37.5180   33.0680   39.6870 C   0  0  0  0  0  2  0  0  0  0  0  0
   37.4820   33.4130   40.7510 H   0  0  0  0  0  0  0  0  0  0  0  0
   36.9420   31.0480   38.3260 C   0  0  0  0  0  2  0  0  0  0  0  0
   37.1780   31.8720   37.6090 H   0  0  0  0  0  0  0  0  0  0  0  0
  1 20  1  0  0  0  0
  1  8  1  0  0  0  0
  1  2  1  0  0  0  0
  2  3  1  0  0  0  0
  3  7  1  0  0  0  0
  3  4  1  0  0  0  0
  4  5  2  0  0  0  0
  4  6  1  0  0  0  0
  6  9  1  6  0  0  0
  7  8  1  6  0  0  0
  7  6  1  0  0  0  0
  9 13  1  0  0  0  0
 10  9  2  0  0  0  0
 11 17  1  0  0  0  0
 12 18  1  0  0  0  0
 12 11  1  0  0  0  0
 13 12  2  0  0  0  0
 14 13  1  0  0  0  0
 14 15  2  0  0  0  0
 15 16  1  0  0  0  0
 16 11  2  0  0  0  0
 19 15  1  0  0  0  0
 20 21  1  0  0  0  0
 22  1  1  0  0  0  0
 23 22  1  0  0  0  0
M  END
>  <minimizedAffinity>
-4.77965164

$$$$

 OpenBabel03252501123D

 23 25  0  0  1  0  0  0  0  0999 V2000
   41.6710   32.9500   38.8390 C   0  0  0  0  0  0  0  0  0  0  0  0
   40.8500   34.0800   39.3000 C   0  0  0  0  0  2  0  0  0  0  0  0
   39.5730   33.6440   39.7460 N   0  0  0  0  0  0  0  0  0  0  0  0
   38.2010   33.3890   40.0030 C   0  0  0  0  0  0  0  0  0  0  0  0
   37.1980   34.0390   39.5550 O   0  0  0  0  0  0  0  0  0  0  0  0
   38.4750   32.2200   40.8800 C   0  0  2  0  0  3  0  0  0  0  0  0
   39.8830   32.6770   40.7450 C   0  0  1  0  0  3  0  0  0  0  0  0
   40.9730   31.5590   39.7960 S   0  0  0  0  0  0  0  0  0  0  0  0
   38.0780   30.9760   40.1870 C   0  0  0  0  0  0  0  0  0  0  0  0
   38.0070   30.7530   38.9390 O   0  0  0  0  0  0  0  0  0  0  0  0
   36.4080   28.1350   41.8490 C   0  0  0  0  0  0  0  0  0  0  0  0
   36.7440   29.1040   40.8880 C   0  0  0  0  0  0  0  0  0  0  0  0
   37.7650   30.0020   41.1930 C   0  0  0  0  0  0  0  0  0  0  0  0
   38.3970   29.9060   42.4060 N   0  0  0  0  0  0  0  0  0  0  0  0
   38.0370   28.9500   43.3050 C   0  0  0  0  0  0  0  0  0  0  0  0
   37.0420   28.0580   43.0360 N   0  0  0  0  0  0  0  0  0  0  0  0
   35.6250   27.4560   41.6000 H   0  0  0  0  0  0  0  0  0  0  0  0
   36.2230   29.1480   39.9440 H   0  0  0  0  0  0  0  0  0  0  0  0
   38.6200   29.0020   44.2010 H   0  0  0  0  0  0  0  0  0  0  0  0
   43.0920   33.1270   39.3310 C   0  0  0  0  0  2  0  0  0  0  0  0
   43.0520   33.6430   40.3240 H   0  0  0  0  0  0  0  0  0  0  0  0
   41.6130   32.6860   37.3600 C   0  0  0  0  0  2  0  0  0  0  0  0
   42.6470   32.3750   37.0720 H   0  0  0  0  0  0  0  0  0  0  0  0
  1  2  1  0  0  0  0
  1 20  1  0  0  0  0
  1  8  1  0  0  0  0
  2  3  1  0  0  0  0
  3  4  1  0  0  0  0
  3  7  1  0  0  0  0
  4  6  1  0  0  0  0
  5  4  2  0  0  0  0
  6  9  1  6  0  0  0
  7  8  1  6  0  0  0
  7  6  1  0  0  0  0
  9 13  1  0  0  0  0
 10  9  2  0  0  0  0
 11 16  1  0  0  0  0
 12 13  1  0  0  0  0
 12 11  2  0  0  0  0
 13 14  2  0  0  0  0
 14 15  1  0  0  0  0
 15 19  1  0  0  0  0
 16 15  2  0  0  0  0
 17 11  1  0  0  0  0
 18 12  1  0  0  0  0
 20 21  1  0  0  0  0
 22  1  1  0  0  0  0
 23 22  1  0  0  0  0
M  END
>  <minimizedAffinity>
-4.60960484

$$$$

 OpenBabel03252501123D

 23 25  0  0  1  0  0  0  0  0999 V2000
   38.1480   31.5980   40.1320 C   0  0  0  0  0  0  0  0  0  0  0  0
   36.7370   31.6990   40.5330 C   0  0  0  0  0  2  0  0  0  0  0  0
   36.1170   30.4200   40.5670 N   0  0  0  0  0  0  0  0  0  0  0  0
   35.3160   29.2570   40.4250 C   0  0  0  0  0  0  0  0  0  0  0  0
   34.1860   29.1660   39.8390 O   0  0  0  0  0  0  0  0  0  0  0  0
   36.2710   28.3840   41.1560 C   0  0  2  0  0  3  0  0  0  0  0  0
   36.9440   29.6740   41.4550 C   0  0  1  0  0  3  0  0  0  0  0  0
   38.5730   29.9020   40.6580 S   0  0  0  0  0  0  0  0  0  0  0  0
   36.9260   27.4610   40.2050 C   0  0  0  0  0  0  0  0  0  0  0  0
   37.0540   27.5790   38.9470 O   0  0  0  0  0  0  0  0  0  0  0  0
   37.2940   23.9930   41.4150 C   0  0  0  0  0  0  0  0  0  0  0  0
   36.8340   25.1100   40.6960 C   0  0  0  0  0  0  0  0  0  0  0  0
   37.4240   26.3450   40.9590 C   0  0  0  0  0  0  0  0  0  0  0  0
   38.4200   26.4230   41.8970 N   0  0  0  0  0  0  0  0  0  0  0  0
   38.8330   25.3140   42.5690 C   0  0  0  0  0  0  0  0  0  0  0  0
   38.2760   24.0920   42.3340 N   0  0  0  0  0  0  0  0  0  0  0  0
   36.8330   23.0560   41.2030 H   0  0  0  0  0  0  0  0  0  0  0  0
   36.0470   25.0080   39.9650 H   0  0  0  0  0  0  0  0  0  0  0  0
   39.6140   25.5340   43.2650 H   0  0  0  0  0  0  0  0  0  0  0  0
   38.9830   32.5260   40.9910 C   0  0  0  0  0  2  0  0  0  0  0  0
   38.5140   32.5700   42.0070 H   0  0  0  0  0  0  0  0  0  0  0  0
   38.4060   31.8020   38.6650 C   0  0  0  0  0  2  0  0  0  0  0  0
   39.3740   32.3590   38.6070 H   0  0  0  0  0  0  0  0  0  0  0  0
  1  2  1  0  0  0  0
  1  8  1  0  0  0  0
  1 20  1  0  0  0  0
  2  3  1  0  0  0  0
  3  7  1  0  0  0  0
  4  3  1  0  0  0  0
  4  6  1  0  0  0  0
  5  4  2  0  0  0  0
  6  9  1  6  0  0  0
  6  7  1  0  0  0  0
  7  8  1  6  0  0  0
  9 13  1  0  0  0  0
 10  9  2  0  0  0  0
 11 16  1  0  0  0  0
 12 13  1  0  0  0  0
 12 11  2  0  0  0  0
 13 14  2  0  0  0  0
 14 15  1  0  0  0  0
 15 19  1  0  0  0  0
 16 15  2  0  0  0  0
 17 11  1  0  0  0  0
 18 12  1  0  0  0  0
 20 21  1  0  0  0  0
 22  1  1  0  0  0  0
 23 22  1  0  0  0  0
M  END
>  <minimizedAffinity>
-4.59103632

$$$$

 OpenBabel03252501123D

 23 25  0  0  1  0  0  0  0  0999 V2000
   37.5920   27.2430   42.4920 C   0  0  0  0  0  0  0  0  0  0  0  0
   37.0280   26.7690   41.2190 C   0  0  0  0  0  2  0  0  0  0  0  0
   36.7670   27.8500   40.3340 N   0  0  0  0  0  0  0  0  0  0  0  0
   36.2480   28.8280   39.4470 C   0  0  0  0  0  0  0  0  0  0  0  0
   35.0980   28.8340   38.8920 O   0  0  0  0  0  0  0  0  0  0  0  0
   37.4740   29.6670   39.4890 C   0  0  2  0  0  3  0  0  0  0  0  0
   38.0280   28.5030   40.2280 C   0  0  1  0  0  3  0  0  0  0  0  0
   38.3910   28.8080   41.9930 S   0  0  0  0  0  0  0  0  0  0  0  0
   37.2010   30.9070   40.2460 C   0  0  0  0  0  0  0  0  0  0  0  0
   36.2450   31.1530   41.0440 O   0  0  0  0  0  0  0  0  0  0  0  0
   39.1940   34.0140   40.3080 C   0  0  0  0  0  0  0  0  0  0  0  0
   38.1950   33.0670   40.5960 C   0  0  0  0  0  0  0  0  0  0  0  0
   38.2380   31.8460   39.9250 C   0  0  0  0  0  0  0  0  0  0  0  0
   39.2430   31.6170   39.0200 N   0  0  0  0  0  0  0  0  0  0  0  0
   40.1880   32.5640   38.7740 C   0  0  0  0  0  0  0  0  0  0  0  0
   40.1730   33.7680   39.4140 N   0  0  0  0  0  0  0  0  0  0  0  0
   39.1470   34.9420   40.8290 H   0  0  0  0  0  0  0  0  0  0  0  0
   37.4210   33.2850   41.3150 H   0  0  0  0  0  0  0  0  0  0  0  0
   40.9020   32.2390   38.0480 H   0  0  0  0  0  0  0  0  0  0  0  0
   38.7110   26.3180   42.9230 C   0  0  0  0  0  2  0  0  0  0  0  0
   39.2150   25.9330   42.0010 H   0  0  0  0  0  0  0  0  0  0  0  0
   36.5860   27.4620   43.5870 C   0  0  0  0  0  2  0  0  0  0  0  0
   37.0950   27.1410   44.5290 H   0  0  0  0  0  0  0  0  0  0  0  0
  1 20  1  0  0  0  0
  1 22  1  0  0  0  0
  2  1  1  0  0  0  0
  3  2  1  0  0  0  0
  4  6  1  0  0  0  0
  4  3  1  0  0  0  0
  5  4  2  0  0  0  0
  6  7  1  0  0  0  0
  6  9  1  1  0  0  0
  7  3  1  0  0  0  0
  7  8  1  1  0  0  0
  8  1  1  0  0  0  0
  9 10  2  0  0  0  0
 11 12  1  0  0  0  0
 11 17  1  0  0  0  0
 12 18  1  0  0  0  0
 13  9  1  0  0  0  0
 13 12  2  0  0  0  0
 14 13  1  0  0  0  0
 15 14  2  0  0  0  0
 15 16  1  0  0  0  0
 16 11  2  0  0  0  0
 19 15  1  0  0  0  0
 21 20  1  0  0  0  0
 22 23  1  0  0  0  0
M  END
>  <minimizedAffinity>
-4.58782387

$$$$

 OpenBabel03252501123D

 23 25  0  0  1  0  0  0  0  0999 V2000
   39.6920   25.4330   41.3740 C   0  0  0  0  0  0  0  0  0  0  0  0
   38.2740   25.1720   41.6640 C   0  0  0  0  0  2  0  0  0  0  0  0
   37.5930   26.3640   42.0330 N   0  0  0  0  0  0  0  0  0  0  0  0
   36.8470   27.4120   42.6320 C   0  0  0  0  0  0  0  0  0  0  0  0
   36.1220   27.3420   43.6790 O   0  0  0  0  0  0  0  0  0  0  0  0
   37.2600   28.4230   41.6220 C   0  0  2  0  0  3  0  0  0  0  0  0
   37.8320   27.2360   40.9330 C   0  0  1  0  0  3  0  0  0  0  0  0
   39.6580   27.1870   40.8640 S   0  0  0  0  0  0  0  0  0  0  0  0
   38.1950   29.3870   42.2400 C   0  0  0  0  0  0  0  0  0  0  0  0
   38.9430   29.2270   43.2540 O   0  0  0  0  0  0  0  0  0  0  0  0
   36.8770   31.9640   39.9490 C   0  0  0  0  0  0  0  0  0  0  0  0
   36.9810   30.7850   40.7080 C   0  0  0  0  0  0  0  0  0  0  0  0
   38.1270   30.6020   41.4790 C   0  0  0  0  0  0  0  0  0  0  0  0
   39.1000   31.5680   41.4680 N   0  0  0  0  0  0  0  0  0  0  0  0
   38.9560   32.6930   40.7170 C   0  0  0  0  0  0  0  0  0  0  0  0
   37.8460   32.9010   39.9530 N   0  0  0  0  0  0  0  0  0  0  0  0
   35.9940   32.0890   39.3650 H   0  0  0  0  0  0  0  0  0  0  0  0
   36.1930   30.0480   40.6910 H   0  0  0  0  0  0  0  0  0  0  0  0
   39.7940   33.3500   40.8120 H   0  0  0  0  0  0  0  0  0  0  0  0
   40.1080   24.6470   40.1490 C   0  0  0  0  0  2  0  0  0  0  0  0
   39.2250   24.5790   39.4650 H   0  0  0  0  0  0  0  0  0  0  0  0
   40.6260   25.2140   42.5310 C   0  0  0  0  0  2  0  0  0  0  0  0
   41.5550   24.7800   42.0870 H   0  0  0  0  0  0  0  0  0  0  0  0
  1  2  1  0  0  0  0
  1 22  1  0  0  0  0
  2  3  1  0  0  0  0
  3  4  1  0  0  0  0
  4  5  2  0  0  0  0
  6  9  1  1  0  0  0
  6  4  1  0  0  0  0
  7  8  1  1  0  0  0
  7  6  1  0  0  0  0
  7  3  1  0  0  0  0
  8  1  1  0  0  0  0
  9 10  2  0  0  0  0
 11 16  2  0  0  0  0
 11 12  1  0  0  0  0
 12 13  2  0  0  0  0
 13  9  1  0  0  0  0
 14 13  1  0  0  0  0
 15 19  1  0  0  0  0
 15 14  2  0  0  0  0
 16 15  1  0  0  0  0
 17 11  1  0  0  0  0
 18 12  1  0  0  0  0
 20  1  1  0  0  0  0
 21 20  1  0  0  0  0
 23 22  1  0  0  0  0
M  END
>  <minimizedAffinity>
-4.51522303

$$$$

 OpenBabel03252501123D

 23 25  0  0  1  0  0  0  0  0999 V2000
   39.1150   27.8380   42.6540 C   0  0  0  0  0  0  0  0  0  0  0  0
   38.1600   28.8150   43.1970 C   0  0  0  0  0  2  0  0  0  0  0  0
   37.2220   29.2250   42.2110 N   0  0  0  0  0  0  0  0  0  0  0  0
   36.3750   29.8900   41.2860 C   0  0  0  0  0  0  0  0  0  0  0  0
   36.1870   31.1480   41.1790 O   0  0  0  0  0  0  0  0  0  0  0  0
   35.9170   28.6320   40.6410 C   0  0  2  0  0  3  0  0  0  0  0  0
   36.6460   27.9990   41.7710 C   0  0  1  0  0  3  0  0  0  0  0  0
   38.1520   27.0760   41.3020 S   0  0  0  0  0  0  0  0  0  0  0  0
   36.5040   28.5260   39.2880 C   0  0  0  0  0  0  0  0  0  0  0  0
   37.6320   28.9420   38.8790 O   0  0  0  0  0  0  0  0  0  0  0  0
   34.8970   25.7950   37.3950 C   0  0  0  0  0  0  0  0  0  0  0  0
   35.8060   26.4970   38.2060 C   0  0  0  0  0  0  0  0  0  0  0  0
   35.5530   27.8440   38.4570 C   0  0  0  0  0  0  0  0  0  0  0  0
   34.4390   28.4270   37.9110 N   0  0  0  0  0  0  0  0  0  0  0  0
   33.5870   27.7070   37.1320 C   0  0  0  0  0  0  0  0  0  0  0  0
   33.8070   26.3880   36.8680 N   0  0  0  0  0  0  0  0  0  0  0  0
   35.1040   24.7650   37.2130 H   0  0  0  0  0  0  0  0  0  0  0  0
   36.6720   26.0020   38.6180 H   0  0  0  0  0  0  0  0  0  0  0  0
   32.7680   28.2980   36.7800 H   0  0  0  0  0  0  0  0  0  0  0  0
   39.3490   26.7420   43.6740 C   0  0  0  0  0  2  0  0  0  0  0  0
   38.3970   26.5930   44.2430 H   0  0  0  0  0  0  0  0  0  0  0  0
   40.4040   28.4250   42.1500 C   0  0  0  0  0  2  0  0  0  0  0  0
   41.1950   27.6850   42.4220 H   0  0  0  0  0  0  0  0  0  0  0  0
  1  2  1  0  0  0  0
  1 20  1  0  0  0  0
  3  2  1  0  0  0  0
  4  3  1  0  0  0  0
  5  4  2  0  0  0  0
  6  9  1  6  0  0  0
  6  4  1  0  0  0  0
  6  7  1  0  0  0  0
  7  8  1  6  0  0  0
  7  3  1  0  0  0  0
  8  1  1  0  0  0  0
 10  9  2  0  0  0  0
 11 12  1  0  0  0  0
 12 13  2  0  0  0  0
 12 18  1  0  0  0  0
 13  9  1  0  0  0  0
 14 13  1  0  0  0  0
 15 14  2  0  0  0  0
 16 15  1  0  0  0  0
 16 11  2  0  0  0  0
 17 11  1  0  0  0  0
 19 15  1  0  0  0  0
 20 21  1  0  0  0  0
 22 23  1  0  0  0  0
 22  1  1  0  0  0  0
M  END
>  <minimizedAffinity>
-4.47471571

$$$$

 OpenBabel03252501123D

 23 25  0  0  1  0  0  0  0  0999 V2000
   35.4030   28.6340   38.8990 C   0  0  0  0  0  0  0  0  0  0  0  0
   35.1080   28.9080   40.3130 C   0  0  0  0  0  2  0  0  0  0  0  0
   36.2170   29.5110   40.9650 N   0  0  0  0  0  0  0  0  0  0  0  0
   37.3030   29.9000   41.7930 C   0  0  0  0  0  0  0  0  0  0  0  0
   37.6370   29.3930   42.9160 O   0  0  0  0  0  0  0  0  0  0  0  0
   37.7550   30.9750   40.8720 C   0  0  2  0  0  3  0  0  0  0  0  0
   36.4820   30.6630   40.1710 C   0  0  1  0  0  3  0  0  0  0  0  0
   36.6730   29.8920   38.5250 S   0  0  0  0  0  0  0  0  0  0  0  0
   39.0220   30.5730   40.2250 C   0  0  0  0  0  0  0  0  0  0  0  0
   39.4810   29.4030   40.0400 O   0  0  0  0  0  0  0  0  0  0  0  0
   40.2300   34.0600   40.2990 C   0  0  0  0  0  0  0  0  0  0  0  0
   39.5830   32.8680   40.6670 C   0  0  0  0  0  0  0  0  0  0  0  0
   39.6970   31.7710   39.8140 C   0  0  0  0  0  0  0  0  0  0  0  0
   40.4290   31.8950   38.6620 N   0  0  0  0  0  0  0  0  0  0  0  0
   41.0380   33.0710   38.3470 C   0  0  0  0  0  0  0  0  0  0  0  0
   40.9450   34.1610   39.1600 N   0  0  0  0  0  0  0  0  0  0  0  0
   40.1330   34.8890   40.9610 H   0  0  0  0  0  0  0  0  0  0  0  0
   39.0160   32.8090   41.5830 H   0  0  0  0  0  0  0  0  0  0  0  0
   41.5700   33.0120   37.4210 H   0  0  0  0  0  0  0  0  0  0  0  0
   34.1960   28.9900   38.0550 C   0  0  0  0  0  2  0  0  0  0  0  0
   33.6820   29.8590   38.5380 H   0  0  0  0  0  0  0  0  0  0  0  0
   35.9020   27.2450   38.6130 C   0  0  0  0  0  2  0  0  0  0  0  0
   35.4500   26.9610   37.6320 H   0  0  0  0  0  0  0  0  0  0  0  0
  1  2  1  0  0  0  0
  2  3  1  0  0  0  0
  3  4  1  0  0  0  0
  4  5  2  0  0  0  0
  6  9  1  6  0  0  0
  6  4  1  0  0  0  0
  7  8  1  6  0  0  0
  7  6  1  0  0  0  0
  7  3  1  0  0  0  0
  8  1  1  0  0  0  0
 10  9  2  0  0  0  0
 11 12  1  0  0  0  0
 11 17  1  0  0  0  0
 12 18  1  0  0  0  0
 13  9  1  0  0  0  0
 13 12  2  0  0  0  0
 14 13  1  0  0  0  0
 15 14  2  0  0  0  0
 15 16  1  0  0  0  0
 16 11  2  0  0  0  0
 19 15  1  0  0  0  0
 20 21  1  0  0  0  0
 20  1  1  0  0  0  0
 22  1  1  0  0  0  0
 23 22  1  0  0  0  0
M  END
>  <minimizedAffinity>
-4.41373014

$$$$

 OpenBabel03252501123D

 23 25  0  0  1  0  0  0  0  0999 V2000
   36.7060   29.2820   37.1060 C   0  0  0  0  0  0  0  0  0  0  0  0
   37.2990   30.6240   37.0010 C   0  0  0  0  0  2  0  0  0  0  0  0
   37.5670   31.1730   38.2840 N   0  0  0  0  0  0  0  0  0  0  0  0
   37.6750   31.9330   39.4780 C   0  0  0  0  0  0  0  0  0  0  0  0
   37.2780   33.1300   39.6700 O   0  0  0  0  0  0  0  0  0  0  0  0
   38.3490   30.8430   40.2320 C   0  0  2  0  0  3  0  0  0  0  0  0
   38.3990   30.1940   38.8970 C   0  0  1  0  0  3  0  0  0  0  0  0
   37.3480   28.7090   38.7170 S   0  0  0  0  0  0  0  0  0  0  0  0
   37.4200   30.2900   41.2410 C   0  0  0  0  0  0  0  0  0  0  0  0
   36.1880   30.5470   41.4070 O   0  0  0  0  0  0  0  0  0  0  0  0
   38.1040   27.5650   43.6340 C   0  0  0  0  0  0  0  0  0  0  0  0
   37.4130   28.4840   42.8260 C   0  0  0  0  0  0  0  0  0  0  0  0
   38.1620   29.3680   42.0520 C   0  0  0  0  0  0  0  0  0  0  0  0
   39.5310   29.3080   42.1080 N   0  0  0  0  0  0  0  0  0  0  0  0
   40.1560   28.4010   42.9060 C   0  0  0  0  0  0  0  0  0  0  0  0
   39.4510   27.5230   43.6740 N   0  0  0  0  0  0  0  0  0  0  0  0
   37.5160   26.8960   44.2200 H   0  0  0  0  0  0  0  0  0  0  0  0
   36.3340   28.5000   42.8090 H   0  0  0  0  0  0  0  0  0  0  0  0
   41.2210   28.4760   42.8420 H   0  0  0  0  0  0  0  0  0  0  0  0
   37.3230   28.3760   36.0610 C   0  0  0  0  0  2  0  0  0  0  0  0
   38.3850   28.6940   35.9120 H   0  0  0  0  0  0  0  0  0  0  0  0
   35.2040   29.2490   37.0680 C   0  0  0  0  0  2  0  0  0  0  0  0
   34.9400   28.3270   36.4940 H   0  0  0  0  0  0  0  0  0  0  0  0
  1  8  1  0  0  0  0
  2  1  1  0  0  0  0
  2  3  1  0  0  0  0
  3  7  1  0  0  0  0
  3  4  1  0  0  0  0
  4  5  2  0  0  0  0
  4  6  1  0  0  0  0
  6  9  1  1  0  0  0
  7  8  1  1  0  0  0
  7  6  1  0  0  0  0
  9 10  2  0  0  0  0
  9 13  1  0  0  0  0
 11 16  1  0  0  0  0
 11 17  1  0  0  0  0
 12 11  2  0  0  0  0
 13 14  2  0  0  0  0
 13 12  1  0  0  0  0
 14 15  1  0  0  0  0
 15 16  2  0  0  0  0
 18 12  1  0  0  0  0
 19 15  1  0  0  0  0
 20  1  1  0  0  0  0
 21 20  1  0  0  0  0
 22  1  1  0  0  0  0
 23 22  1  0  0  0  0
M  END
>  <minimizedAffinity>
-4.40086126

$$$$
