
 OpenBabel03242520023D

 33 36  0  0  1  0  0  0  0  0999 V2000
   40.7930   30.8870   38.4460 Br  0  0  0  0  0  0  0  0  0  0  0  0
   39.7490   32.3200   39.1260 C   0  0  0  0  0  0  0  0  0  0  0  0
   40.2890   33.5600   39.4370 C   0  0  0  0  0  0  0  0  0  0  0  0
   39.4360   34.5330   39.9220 C   0  0  0  0  0  0  0  0  0  0  0  0
   38.0930   34.3360   40.1100 C   0  0  0  0  0  0  0  0  0  0  0  0
   37.5410   33.0970   39.8020 C   0  0  0  0  0  0  0  0  0  0  0  0
   38.4080   32.1320   39.3160 C   0  0  0  0  0  0  0  0  0  0  0  0
   39.9730   35.4420   40.1210 H   0  0  0  0  0  0  0  0  0  0  0  0
   37.5050   35.1600   40.4950 H   0  0  0  0  0  0  0  0  0  0  0  0
   36.4860   32.9520   39.9520 H   0  0  0  0  0  0  0  0  0  0  0  0
   44.0300   33.7360   40.0530 C   0  0  0  0  0  0  0  0  0  0  0  0
   42.6600   33.5750   40.2470 C   0  0  0  0  0  0  0  0  0  0  0  0
   41.7200   33.7300   39.2260 C   0  0  0  0  0  0  0  0  0  0  0  0
   42.2430   34.0520   38.0150 N   0  0  0  0  0  0  0  0  0  0  0  0
   43.5630   34.2080   37.8250 C   0  0  0  0  0  0  0  0  0  0  0  0
   44.4480   34.0540   38.8180 N   0  0  0  0  0  0  0  0  0  0  0  0
   44.6220   33.5820   40.9390 H   0  0  0  0  0  0  0  0  0  0  0  0
   42.2500   33.3190   41.2110 H   0  0  0  0  0  0  0  0  0  0  0  0
   43.9030   34.4680   36.8180 H   0  0  0  0  0  0  0  0  0  0  0  0
   37.8040   30.8690   38.9930 C   0  0  0  0  0  0  0  0  0  0  0  0
   37.2610   30.6190   37.8980 O   0  0  0  0  0  0  0  0  0  0  0  0
   38.0750   27.2470   42.6470 C   0  0  0  0  0  0  0  0  0  0  0  0
   37.5410   28.6750   42.8460 C   0  0  0  0  0  2  0  0  0  0  0  0
   37.0130   29.0950   41.5580 N   0  0  0  0  0  0  0  0  0  0  0  0
   36.3100   29.4970   40.3980 C   0  0  0  0  0  0  0  0  0  0  0  0
   35.0770   29.7380   40.2300 O   0  0  0  0  0  0  0  0  0  0  0  0
   37.5160   29.5210   39.5050 C   0  0  2  0  0  3  0  0  0  0  0  0
   38.2490   29.2070   40.7570 C   0  0  2  0  0  3  0  0  0  0  0  0
   38.7770   27.4540   40.9600 S   0  0  0  0  0  0  0  0  0  0  0  0
   36.9750   26.2420   42.6600 C   0  0  0  0  0  2  0  0  0  0  0  0
   36.0920   26.6610   42.1430 H   0  0  0  0  0  0  0  0  0  0  0  0
   39.1510   27.0340   43.6650 C   0  0  0  0  0  2  0  0  0  0  0  0
   39.8990   26.2770   43.3560 H   0  0  0  0  0  0  0  0  0  0  0  0
  1  2  1  0  0  0  0
  2  7  2  0  0  0  0
  2  3  1  0  0  0  0
  3  4  2  0  0  0  0
  4  5  1  0  0  0  0
  4  8  1  0  0  0  0
  5  9  1  0  0  0  0
  6 10  1  0  0  0  0
  6  5  2  0  0  0  0
  7  6  1  0  0  0  0
 11 12  1  0  0  0  0
 11 17  1  0  0  0  0
 12 18  1  0  0  0  0
 13  3  1  0  0  0  0
 13 12  2  0  0  0  0
 14 13  1  0  0  0  0
 15 14  2  0  0  0  0
 15 16  1  0  0  0  0
 16 11  2  0  0  0  0
 19 15  1  0  0  0  0
 20  7  1  0  0  0  0
 21 20  2  0  0  0  0
 22 30  1  0  0  0  0
 22 23  1  0  0  0  0
 22 32  1  0  0  0  0
 24 23  1  0  0  0  0
 25 24  1  0  0  0  0
 26 25  2  0  0  0  0
 27 20  1  1  0  0  0
 27 25  1  0  0  0  0
 27 28  1  0  0  0  0
 28 29  1  6  0  0  0
 28 24  1  0  0  0  0
 29 22  1  0  0  0  0
 31 30  1  0  0  0  0
 33 32  1  0  0  0  0
M  END
>  <minimizedAffinity>
-6.01548243

$$$$

 OpenBabel03242520023D

 33 36  0  0  1  0  0  0  0  0999 V2000
   37.0900   26.5940   40.5840 Br  0  0  0  0  0  0  0  0  0  0  0  0
   38.4040   26.1120   41.8660 C   0  0  0  0  0  0  0  0  0  0  0  0
   39.0870   24.9040   41.8230 C   0  0  0  0  0  0  0  0  0  0  0  0
   40.0280   24.6580   42.8050 C   0  0  0  0  0  0  0  0  0  0  0  0
   40.3170   25.5400   43.8130 C   0  0  0  0  0  0  0  0  0  0  0  0
   39.6390   26.7530   43.8670 C   0  0  0  0  0  0  0  0  0  0  0  0
   38.7000   26.9860   42.8760 C   0  0  0  0  0  0  0  0  0  0  0  0
   40.4840   23.6970   42.6590 H   0  0  0  0  0  0  0  0  0  0  0  0
   41.0710   25.2570   44.5380 H   0  0  0  0  0  0  0  0  0  0  0  0
   39.8730   27.4390   44.6610 H   0  0  0  0  0  0  0  0  0  0  0  0
   37.3930   22.1780   39.7980 C   0  0  0  0  0  0  0  0  0  0  0  0
   37.7210   23.0530   40.8310 C   0  0  0  0  0  0  0  0  0  0  0  0
   38.7500   23.9930   40.7390 C   0  0  0  0  0  0  0  0  0  0  0  0
   39.4160   23.9930   39.5550 N   0  0  0  0  0  0  0  0  0  0  0  0
   39.1010   23.1500   38.5570 C   0  0  0  0  0  0  0  0  0  0  0  0
   38.1100   22.2570   38.6660 N   0  0  0  0  0  0  0  0  0  0  0  0
   36.5750   21.5150   40.0250 H   0  0  0  0  0  0  0  0  0  0  0  0
   37.1890   23.0490   41.7680 H   0  0  0  0  0  0  0  0  0  0  0  0
   39.6870   23.2160   37.6360 H   0  0  0  0  0  0  0  0  0  0  0  0
   38.0280   28.2540   42.9500 C   0  0  0  0  0  0  0  0  0  0  0  0
   36.9510   28.4350   43.5550 O   0  0  0  0  0  0  0  0  0  0  0  0
   39.7880   32.0150   39.9020 C   0  0  0  0  0  0  0  0  0  0  0  0
   39.1020   30.7270   39.4200 C   0  0  0  0  0  2  0  0  0  0  0  0
   38.2050   30.3190   40.4900 N   0  0  0  0  0  0  0  0  0  0  0  0
   37.1760   29.9720   41.3970 C   0  0  0  0  0  0  0  0  0  0  0  0
   35.9190   29.9480   41.2390 O   0  0  0  0  0  0  0  0  0  0  0  0
   38.0970   29.6650   42.5410 C   0  0  2  0  0  3  0  0  0  0  0  0
   39.1630   29.9280   41.5430 C   0  0  2  0  0  3  0  0  0  0  0  0
   39.9970   31.5660   41.6720 S   0  0  0  0  0  0  0  0  0  0  0  0
   38.9010   33.2020   39.7420 C   0  0  0  0  0  2  0  0  0  0  0  0
   37.8600   32.9160   39.9840 H   0  0  0  0  0  0  0  0  0  0  0  0
   41.1070   32.1010   39.1990 C   0  0  0  0  0  2  0  0  0  0  0  0
   41.8620   32.6850   39.7610 H   0  0  0  0  0  0  0  0  0  0  0  0
  1  2  1  0  0  0  0
  2  7  1  0  0  0  0
  3  2  2  0  0  0  0
  3  4  1  0  0  0  0
  4  5  2  0  0  0  0
  5  6  1  0  0  0  0
  5  9  1  0  0  0  0
  6 10  1  0  0  0  0
  7 20  1  0  0  0  0
  7  6  2  0  0  0  0
  8  4  1  0  0  0  0
 11 17  1  0  0  0  0
 11 12  1  0  0  0  0
 12 18  1  0  0  0  0
 13 12  2  0  0  0  0
 13  3  1  0  0  0  0
 14 13  1  0  0  0  0
 15 16  1  0  0  0  0
 15 14  2  0  0  0  0
 16 11  2  0  0  0  0
 19 15  1  0  0  0  0
 20 21  2  0  0  0  0
 22 29  1  0  0  0  0
 23 22  1  0  0  0  0
 23 24  1  0  0  0  0
 24 25  1  0  0  0  0
 24 28  1  0  0  0  0
 25 27  1  0  0  0  0
 26 25  2  0  0  0  0
 27 20  1  6  0  0  0
 28 29  1  1  0  0  0
 28 27  1  0  0  0  0
 30 22  1  0  0  0  0
 30 31  1  0  0  0  0
 32 33  1  0  0  0  0
 32 22  1  0  0  0  0
M  END
>  <minimizedAffinity>
-5.90723944

$$$$

 OpenBabel03242520023D

 33 36  0  0  1  0  0  0  0  0999 V2000
   39.8640   28.1440   41.5550 Br  0  0  0  0  0  0  0  0  0  0  0  0
   38.1320   28.8320   41.1910 C   0  0  0  0  0  0  0  0  0  0  0  0
   37.0370   28.0150   40.9430 C   0  0  0  0  0  0  0  0  0  0  0  0
   35.8210   28.6230   40.6940 C   0  0  0  0  0  0  0  0  0  0  0  0
   35.6440   29.9820   40.6790 C   0  0  0  0  0  0  0  0  0  0  0  0
   36.7340   30.8100   40.9260 C   0  0  0  0  0  0  0  0  0  0  0  0
   37.9460   30.1870   41.1740 C   0  0  0  0  0  0  0  0  0  0  0  0
   35.0590   27.8870   40.5200 H   0  0  0  0  0  0  0  0  0  0  0  0
   34.6520   30.3660   40.4730 H   0  0  0  0  0  0  0  0  0  0  0  0
   36.5850   31.8750   40.9120 H   0  0  0  0  0  0  0  0  0  0  0  0
   37.2950   24.4210   42.1350 C   0  0  0  0  0  0  0  0  0  0  0  0
   37.0780   25.7980   42.1070 C   0  0  0  0  0  0  0  0  0  0  0  0
   37.2660   26.5780   40.9640 C   0  0  0  0  0  0  0  0  0  0  0  0
   37.6800   25.8920   39.8680 N   0  0  0  0  0  0  0  0  0  0  0  0
   37.8900   24.5650   39.8920 C   0  0  0  0  0  0  0  0  0  0  0  0
   37.7040   23.8350   40.9990 N   0  0  0  0  0  0  0  0  0  0  0  0
   37.1060   23.9650   43.0910 H   0  0  0  0  0  0  0  0  0  0  0  0
   36.7490   26.3380   42.9800 H   0  0  0  0  0  0  0  0  0  0  0  0
   38.2230   24.0880   38.9650 H   0  0  0  0  0  0  0  0  0  0  0  0
   39.0490   31.0690   41.4410 C   0  0  0  0  0  0  0  0  0  0  0  0
   39.4870   31.3060   42.5840 O   0  0  0  0  0  0  0  0  0  0  0  0
   42.1990   32.3410   37.5680 C   0  0  0  0  0  0  0  0  0  0  0  0
   40.6950   32.0500   37.4340 C   0  0  0  0  0  2  0  0  0  0  0  0
   40.0960   32.4080   38.7100 N   0  0  0  0  0  0  0  0  0  0  0  0
   39.4210   32.9140   39.8450 C   0  0  0  0  0  0  0  0  0  0  0  0
   38.5840   33.8610   39.9470 O   0  0  0  0  0  0  0  0  0  0  0  0
   40.0430   31.9540   40.8170 C   0  0  2  0  0  3  0  0  0  0  0  0
   40.6570   31.3700   39.5980 C   0  0  2  0  0  3  0  0  0  0  0  0
   42.4260   31.7940   39.3090 S   0  0  0  0  0  0  0  0  0  0  0  0
   42.4940   33.7930   37.4100 C   0  0  0  0  0  2  0  0  0  0  0  0
   41.6940   34.3830   37.8940 H   0  0  0  0  0  0  0  0  0  0  0  0
   42.9090   31.4340   36.6120 C   0  0  0  0  0  2  0  0  0  0  0  0
   43.9500   31.2100   36.9170 H   0  0  0  0  0  0  0  0  0  0  0  0
  2  1  1  0  0  0  0
  3 13  1  0  0  0  0
  3  2  2  0  0  0  0
  4  3  1  0  0  0  0
  5  4  2  0  0  0  0
  5  6  1  0  0  0  0
  6  7  2  0  0  0  0
  7  2  1  0  0  0  0
  7 20  1  0  0  0  0
  8  4  1  0  0  0  0
  9  5  1  0  0  0  0
 10  6  1  0  0  0  0
 11 17  1  0  0  0  0
 12 11  1  0  0  0  0
 12 18  1  0  0  0  0
 13 12  2  0  0  0  0
 14 15  2  0  0  0  0
 14 13  1  0  0  0  0
 15 16  1  0  0  0  0
 16 11  2  0  0  0  0
 19 15  1  0  0  0  0
 20 21  2  0  0  0  0
 22 29  1  0  0  0  0
 23 22  1  0  0  0  0
 23 24  1  0  0  0  0
 24 28  1  0  0  0  0
 24 25  1  0  0  0  0
 25 26  2  0  0  0  0
 25 27  1  0  0  0  0
 27 20  1  6  0  0  0
 28 29  1  1  0  0  0
 28 27  1  0  0  0  0
 30 22  1  0  0  0  0
 30 31  1  0  0  0  0
 32 33  1  0  0  0  0
 32 22  1  0  0  0  0
M  END
>  <minimizedAffinity>
-5.83538246

$$$$

 OpenBabel03242520023D

 33 36  0  0  1  0  0  0  0  0999 V2000
   39.7440   27.2510   40.3900 Br  0  0  0  0  0  0  0  0  0  0  0  0
   38.4550   27.3760   41.7780 C   0  0  0  0  0  0  0  0  0  0  0  0
   37.4520   26.4340   41.9580 C   0  0  0  0  0  0  0  0  0  0  0  0
   36.5700   26.6210   43.0040 C   0  0  0  0  0  0  0  0  0  0  0  0
   36.6340   27.6850   43.8670 C   0  0  0  0  0  0  0  0  0  0  0  0
   37.6350   28.6360   43.6960 C   0  0  0  0  0  0  0  0  0  0  0  0
   38.5120   28.4340   42.6440 C   0  0  0  0  0  0  0  0  0  0  0  0
   35.8470   25.8280   43.0370 H   0  0  0  0  0  0  0  0  0  0  0  0
   35.8960   27.7460   44.6580 H   0  0  0  0  0  0  0  0  0  0  0  0
   37.6770   29.4660   44.3780 H   0  0  0  0  0  0  0  0  0  0  0  0
   37.9530   23.0070   40.4050 C   0  0  0  0  0  0  0  0  0  0  0  0
   37.9850   24.0760   41.2980 C   0  0  0  0  0  0  0  0  0  0  0  0
   37.4150   25.3210   41.0200 C   0  0  0  0  0  0  0  0  0  0  0  0
   36.8210   25.4160   39.8030 N   0  0  0  0  0  0  0  0  0  0  0  0
   36.7890   24.3860   38.9400 C   0  0  0  0  0  0  0  0  0  0  0  0
   37.3410   23.2000   39.2270 N   0  0  0  0  0  0  0  0  0  0  0  0
   38.4360   22.1160   40.7690 H   0  0  0  0  0  0  0  0  0  0  0  0
   38.4580   23.9960   42.2630 H   0  0  0  0  0  0  0  0  0  0  0  0
   36.2900   24.5460   37.9800 H   0  0  0  0  0  0  0  0  0  0  0  0
   39.5430   29.4250   42.5030 C   0  0  0  0  0  0  0  0  0  0  0  0
   40.7390   29.2290   42.7980 O   0  0  0  0  0  0  0  0  0  0  0  0
   41.7000   32.8600   39.3270 C   0  0  0  0  0  0  0  0  0  0  0  0
   40.7830   31.7030   38.8970 C   0  0  0  0  0  2  0  0  0  0  0  0
   39.9010   31.4440   40.0240 N   0  0  0  0  0  0  0  0  0  0  0  0
   38.8890   31.2660   40.9960 C   0  0  0  0  0  0  0  0  0  0  0  0
   37.6370   31.4500   40.9180 O   0  0  0  0  0  0  0  0  0  0  0  0
   39.8170   30.8070   42.0820 C   0  0  2  0  0  3  0  0  0  0  0  0
   40.8460   30.8960   41.0170 C   0  0  2  0  0  3  0  0  0  0  0  0
   41.9440   32.3740   41.0830 S   0  0  0  0  0  0  0  0  0  0  0  0
   41.0120   34.1760   39.2160 C   0  0  0  0  0  2  0  0  0  0  0  0
   39.9560   34.0640   39.5240 H   0  0  0  0  0  0  0  0  0  0  0  0
   42.9680   32.7300   38.5410 C   0  0  0  0  0  2  0  0  0  0  0  0
   43.8430   33.1800   39.0510 H   0  0  0  0  0  0  0  0  0  0  0  0
  1  2  1  0  0  0  0
  2  3  2  0  0  0  0
  2  7  1  0  0  0  0
  3  4  1  0  0  0  0
  4  8  1  0  0  0  0
  4  5  2  0  0  0  0
  5  9  1  0  0  0  0
  6  5  1  0  0  0  0
  6 10  1  0  0  0  0
  7  6  2  0  0  0  0
 11 17  1  0  0  0  0
 11 12  1  0  0  0  0
 12 18  1  0  0  0  0
 13 12  2  0  0  0  0
 13  3  1  0  0  0  0
 14 13  1  0  0  0  0
 15 16  1  0  0  0  0
 15 14  2  0  0  0  0
 16 11  2  0  0  0  0
 19 15  1  0  0  0  0
 20  7  1  0  0  0  0
 20 21  2  0  0  0  0
 22 29  1  0  0  0  0
 23 22  1  0  0  0  0
 23 24  1  0  0  0  0
 24 25  1  0  0  0  0
 24 28  1  0  0  0  0
 25 27  1  0  0  0  0
 26 25  2  0  0  0  0
 27 20  1  6  0  0  0
 28 29  1  1  0  0  0
 28 27  1  0  0  0  0
 30 22  1  0  0  0  0
 30 31  1  0  0  0  0
 32 33  1  0  0  0  0
 32 22  1  0  0  0  0
M  END
>  <minimizedAffinity>
-5.69648075

$$$$

 OpenBabel03242520023D

 33 36  0  0  1  0  0  0  0  0999 V2000
   37.0950   27.4740   39.0430 Br  0  0  0  0  0  0  0  0  0  0  0  0
   37.2800   27.5780   40.9300 C   0  0  0  0  0  0  0  0  0  0  0  0
   37.5240   26.4650   41.7220 C   0  0  0  0  0  0  0  0  0  0  0  0
   37.6460   26.6560   43.0860 C   0  0  0  0  0  0  0  0  0  0  0  0
   37.5360   27.8820   43.6900 C   0  0  0  0  0  0  0  0  0  0  0  0
   37.2910   29.0040   42.9060 C   0  0  0  0  0  0  0  0  0  0  0  0
   37.1730   28.7970   41.5420 C   0  0  0  0  0  0  0  0  0  0  0  0
   37.8340   25.7240   43.5830 H   0  0  0  0  0  0  0  0  0  0  0  0
   37.6460   27.9320   44.7670 H   0  0  0  0  0  0  0  0  0  0  0  0
   37.2080   29.9610   43.3890 H   0  0  0  0  0  0  0  0  0  0  0  0
   36.6220   23.1340   40.1430 C   0  0  0  0  0  0  0  0  0  0  0  0
   36.5270   24.3640   40.7920 C   0  0  0  0  0  0  0  0  0  0  0  0
   37.6310   25.1810   41.0440 C   0  0  0  0  0  0  0  0  0  0  0  0
   38.8180   24.6870   40.6070 N   0  0  0  0  0  0  0  0  0  0  0  0
   38.9110   23.5010   39.9810 C   0  0  0  0  0  0  0  0  0  0  0  0
   37.8400   22.7330   39.7490 N   0  0  0  0  0  0  0  0  0  0  0  0
   35.6800   22.6250   40.0250 H   0  0  0  0  0  0  0  0  0  0  0  0
   35.5830   24.7510   41.1370 H   0  0  0  0  0  0  0  0  0  0  0  0
   39.9050   23.1760   39.6610 H   0  0  0  0  0  0  0  0  0  0  0  0
   36.9350   29.9780   40.7580 C   0  0  0  0  0  0  0  0  0  0  0  0
   35.8240   30.2790   40.2770 O   0  0  0  0  0  0  0  0  0  0  0  0
   40.9890   33.0840   40.0830 C   0  0  0  0  0  0  0  0  0  0  0  0
   40.9660   31.5740   39.7940 C   0  0  0  0  0  2  0  0  0  0  0  0
   39.5900   31.2450   39.4570 N   0  0  0  0  0  0  0  0  0  0  0  0
   38.3250   30.8900   38.9340 C   0  0  0  0  0  0  0  0  0  0  0  0
   38.0020   30.4730   37.7810 O   0  0  0  0  0  0  0  0  0  0  0  0
   37.5660   31.1810   40.1960 C   0  0  2  0  0  3  0  0  0  0  0  0
   38.9150   31.4440   40.7550 C   0  0  2  0  0  3  0  0  0  0  0  0
   39.3720   33.2180   40.9480 S   0  0  0  0  0  0  0  0  0  0  0  0
   41.0030   33.8840   38.8260 C   0  0  0  0  0  2  0  0  0  0  0  0
   40.3520   33.3970   38.0760 H   0  0  0  0  0  0  0  0  0  0  0  0
   42.1320   33.3360   41.0160 C   0  0  0  0  0  2  0  0  0  0  0  0
   41.9910   34.2390   41.6420 H   0  0  0  0  0  0  0  0  0  0  0  0
  1  2  1  0  0  0  0
  2  7  2  0  0  0  0
  2  3  1  0  0  0  0
  3  4  2  0  0  0  0
  4  8  1  0  0  0  0
  4  5  1  0  0  0  0
  5  9  1  0  0  0  0
  6 10  1  0  0  0  0
  6  5  2  0  0  0  0
  7  6  1  0  0  0  0
 11 12  1  0  0  0  0
 12 13  2  0  0  0  0
 12 18  1  0  0  0  0
 13  3  1  0  0  0  0
 14 13  1  0  0  0  0
 15 14  2  0  0  0  0
 16 15  1  0  0  0  0
 16 11  2  0  0  0  0
 17 11  1  0  0  0  0
 19 15  1  0  0  0  0
 20  7  1  0  0  0  0
 21 20  2  0  0  0  0
 22 29  1  0  0  0  0
 22 32  1  0  0  0  0
 23 22  1  0  0  0  0
 24 23  1  0  0  0  0
 24 28  1  0  0  0  0
 25 24  1  0  0  0  0
 25 27  1  0  0  0  0
 26 25  2  0  0  0  0
 27 28  1  0  0  0  0
 27 20  1  1  0  0  0
 28 29  1  6  0  0  0
 30 22  1  0  0  0  0
 31 30  1  0  0  0  0
 32 33  1  0  0  0  0
M  END
>  <minimizedAffinity>
-5.57436895

$$$$

 OpenBabel03242520023D

 33 36  0  0  1  0  0  0  0  0999 V2000
   40.6310   30.3110   39.3790 Br  0  0  0  0  0  0  0  0  0  0  0  0
   39.3900   31.7390   39.5350 C   0  0  0  0  0  0  0  0  0  0  0  0
   39.7830   33.0570   39.7210 C   0  0  0  0  0  0  0  0  0  0  0  0
   38.7940   34.0180   39.8170 C   0  0  0  0  0  0  0  0  0  0  0  0
   37.4550   33.7360   39.7380 C   0  0  0  0  0  0  0  0  0  0  0  0
   37.0500   32.4190   39.5510 C   0  0  0  0  0  0  0  0  0  0  0  0
   38.0520   31.4670   39.4570 C   0  0  0  0  0  0  0  0  0  0  0  0
   39.2250   34.9910   39.9570 H   0  0  0  0  0  0  0  0  0  0  0  0
   36.7550   34.5580   39.8240 H   0  0  0  0  0  0  0  0  0  0  0  0
   35.9980   32.2080   39.4900 H   0  0  0  0  0  0  0  0  0  0  0  0
   43.3490   33.9390   38.7680 C   0  0  0  0  0  0  0  0  0  0  0  0
   41.9800   33.6900   38.6970 C   0  0  0  0  0  0  0  0  0  0  0  0
   41.2130   33.3160   39.8030 C   0  0  0  0  0  0  0  0  0  0  0  0
   41.9050   33.2110   40.9670 N   0  0  0  0  0  0  0  0  0  0  0  0
   43.2250   33.4500   41.0370 C   0  0  0  0  0  0  0  0  0  0  0  0
   43.9420   33.8080   39.9650 N   0  0  0  0  0  0  0  0  0  0  0  0
   43.7950   34.2180   37.8290 H   0  0  0  0  0  0  0  0  0  0  0  0
   41.4350   33.7750   37.7710 H   0  0  0  0  0  0  0  0  0  0  0  0
   43.7070   33.3430   42.0140 H   0  0  0  0  0  0  0  0  0  0  0  0
   37.6020   30.1180   39.2490 C   0  0  0  0  0  0  0  0  0  0  0  0
   37.6240   29.5410   38.1430 O   0  0  0  0  0  0  0  0  0  0  0  0
   37.9040   25.2440   40.8880 C   0  0  0  0  0  0  0  0  0  0  0  0
   38.9090   26.3590   41.2190 C   0  0  0  0  0  2  0  0  0  0  0  0
   38.1620   27.6060   41.1780 N   0  0  0  0  0  0  0  0  0  0  0  0
   37.4660   28.8260   41.3460 C   0  0  0  0  0  0  0  0  0  0  0  0
   37.2990   29.5370   42.3820 O   0  0  0  0  0  0  0  0  0  0  0  0
   37.0320   28.9370   39.9140 C   0  0  2  0  0  3  0  0  0  0  0  0
   37.8570   27.7170   39.7370 C   0  0  2  0  0  3  0  0  0  0  0  0
   36.9280   26.1310   39.6070 S   0  0  0  0  0  0  0  0  0  0  0  0
   37.0640   24.8930   42.0670 C   0  0  0  0  0  2  0  0  0  0  0  0
   36.8190   25.8140   42.6280 H   0  0  0  0  0  0  0  0  0  0  0  0
   38.6830   24.1110   40.2950 C   0  0  0  0  0  2  0  0  0  0  0  0
   38.0790   23.4740   39.6190 H   0  0  0  0  0  0  0  0  0  0  0  0
  1  2  1  0  0  0  0
  2  3  1  0  0  0  0
  3 13  1  0  0  0  0
  3  4  2  0  0  0  0
  4  8  1  0  0  0  0
  5  4  1  0  0  0  0
  5  9  1  0  0  0  0
  6  5  2  0  0  0  0
  7  2  2  0  0  0  0
  7  6  1  0  0  0  0
 10  6  1  0  0  0  0
 11 16  1  0  0  0  0
 12 11  2  0  0  0  0
 12 13  1  0  0  0  0
 13 14  2  0  0  0  0
 14 15  1  0  0  0  0
 15 19  1  0  0  0  0
 16 15  2  0  0  0  0
 17 11  1  0  0  0  0
 18 12  1  0  0  0  0
 20  7  1  0  0  0  0
 21 20  2  0  0  0  0
 22 23  1  0  0  0  0
 22 30  1  0  0  0  0
 24 23  1  0  0  0  0
 24 25  1  0  0  0  0
 25 26  2  0  0  0  0
 27 20  1  6  0  0  0
 27 25  1  0  0  0  0
 28 29  1  1  0  0  0
 28 27  1  0  0  0  0
 28 24  1  0  0  0  0
 29 22  1  0  0  0  0
 30 31  1  0  0  0  0
 32 22  1  0  0  0  0
 33 32  1  0  0  0  0
M  END
>  <minimizedAffinity>
-5.49614382

$$$$

 OpenBabel03242520023D

 33 36  0  0  1  0  0  0  0  0999 V2000
   38.2380   28.5340   41.3600 Br  0  0  0  0  0  0  0  0  0  0  0  0
   36.9780   28.2570   39.9670 C   0  0  0  0  0  0  0  0  0  0  0  0
   36.6460   26.9930   39.4960 C   0  0  0  0  0  0  0  0  0  0  0  0
   35.7120   26.9070   38.4820 C   0  0  0  0  0  0  0  0  0  0  0  0
   35.1020   27.9980   37.9200 C   0  0  0  0  0  0  0  0  0  0  0  0
   35.4270   29.2690   38.3840 C   0  0  0  0  0  0  0  0  0  0  0  0
   36.3640   29.3400   39.4010 C   0  0  0  0  0  0  0  0  0  0  0  0
   35.5430   25.8820   38.2090 H   0  0  0  0  0  0  0  0  0  0  0  0
   34.3820   27.8300   37.1280 H   0  0  0  0  0  0  0  0  0  0  0  0
   34.9430   30.1190   37.9370 H   0  0  0  0  0  0  0  0  0  0  0  0
   39.1270   24.2030   40.1790 C   0  0  0  0  0  0  0  0  0  0  0  0
   38.4790   25.2880   39.5910 C   0  0  0  0  0  0  0  0  0  0  0  0
   37.3180   25.8600   40.1160 C   0  0  0  0  0  0  0  0  0  0  0  0
   36.8590   25.2760   41.2530 N   0  0  0  0  0  0  0  0  0  0  0  0
   37.4820   24.2300   41.8210 C   0  0  0  0  0  0  0  0  0  0  0  0
   38.5950   23.6970   41.3020 N   0  0  0  0  0  0  0  0  0  0  0  0
   40.0090   23.8800   39.6530 H   0  0  0  0  0  0  0  0  0  0  0  0
   38.8470   25.7480   38.6890 H   0  0  0  0  0  0  0  0  0  0  0  0
   37.0460   23.8190   42.7360 H   0  0  0  0  0  0  0  0  0  0  0  0
   36.6660   30.6650   39.8680 C   0  0  0  0  0  0  0  0  0  0  0  0
   36.1860   31.1610   40.9080 O   0  0  0  0  0  0  0  0  0  0  0  0
   41.0130   33.4240   40.0310 C   0  0  0  0  0  0  0  0  0  0  0  0
   40.8830   32.0010   39.4640 C   0  0  0  0  0  2  0  0  0  0  0  0
   39.5130   31.8770   38.9890 N   0  0  0  0  0  0  0  0  0  0  0  0
   38.2660   31.7490   38.3340 C   0  0  0  0  0  0  0  0  0  0  0  0
   37.9990   31.5820   37.1060 O   0  0  0  0  0  0  0  0  0  0  0  0
   37.4400   31.8810   39.5800 C   0  0  2  0  0  3  0  0  0  0  0  0
   38.7600   31.9040   40.2590 C   0  0  2  0  0  3  0  0  0  0  0  0
   39.3520   33.5600   40.8070 S   0  0  0  0  0  0  0  0  0  0  0  0
   41.1940   34.4320   38.9490 C   0  0  0  0  0  2  0  0  0  0  0  0
   40.5630   34.1560   38.0830 H   0  0  0  0  0  0  0  0  0  0  0  0
   42.0990   33.3880   41.0620 C   0  0  0  0  0  2  0  0  0  0  0  0
   41.9880   34.1730   41.8360 H   0  0  0  0  0  0  0  0  0  0  0  0
  2  1  1  0  0  0  0
  3  2  1  0  0  0  0
  3 13  1  0  0  0  0
  4  3  2  0  0  0  0
  5  6  2  0  0  0  0
  5  4  1  0  0  0  0
  6  7  1  0  0  0  0
  7 20  1  0  0  0  0
  7  2  2  0  0  0  0
  8  4  1  0  0  0  0
  9  5  1  0  0  0  0
 10  6  1  0  0  0  0
 11 16  1  0  0  0  0
 12 13  1  0  0  0  0
 12 11  2  0  0  0  0
 13 14  2  0  0  0  0
 14 15  1  0  0  0  0
 15 19  1  0  0  0  0
 16 15  2  0  0  0  0
 17 11  1  0  0  0  0
 18 12  1  0  0  0  0
 20 21  2  0  0  0  0
 22 29  1  0  0  0  0
 22 32  1  0  0  0  0
 23 22  1  0  0  0  0
 24 23  1  0  0  0  0
 24 28  1  0  0  0  0
 25 24  1  0  0  0  0
 25 27  1  0  0  0  0
 26 25  2  0  0  0  0
 27 20  1  1  0  0  0
 27 28  1  0  0  0  0
 28 29  1  6  0  0  0
 30 22  1  0  0  0  0
 31 30  1  0  0  0  0
 32 33  1  0  0  0  0
M  END
>  <minimizedAffinity>
-5.42448759

$$$$

 OpenBabel03242520023D

 33 36  0  0  1  0  0  0  0  0999 V2000
   40.0180   29.0040   40.9960 Br  0  0  0  0  0  0  0  0  0  0  0  0
   38.1450   29.2400   40.7900 C   0  0  0  0  0  0  0  0  0  0  0  0
   37.2520   28.1780   40.7830 C   0  0  0  0  0  0  0  0  0  0  0  0
   35.9090   28.4650   40.6300 C   0  0  0  0  0  0  0  0  0  0  0  0
   35.4190   29.7370   40.4850 C   0  0  0  0  0  0  0  0  0  0  0  0
   36.3050   30.8090   40.4900 C   0  0  0  0  0  0  0  0  0  0  0  0
   37.6470   30.5060   40.6440 C   0  0  0  0  0  0  0  0  0  0  0  0
   35.3250   27.5640   40.6440 H   0  0  0  0  0  0  0  0  0  0  0  0
   34.3480   29.8620   40.3710 H   0  0  0  0  0  0  0  0  0  0  0  0
   35.9110   31.8030   40.3750 H   0  0  0  0  0  0  0  0  0  0  0  0
   38.4180   24.9120   42.3240 C   0  0  0  0  0  0  0  0  0  0  0  0
   37.8850   26.1900   42.1690 C   0  0  0  0  0  0  0  0  0  0  0  0
   37.8110   26.8430   40.9370 C   0  0  0  0  0  0  0  0  0  0  0  0
   38.3010   26.1350   39.8870 N   0  0  0  0  0  0  0  0  0  0  0  0
   38.8170   24.9030   40.0340 C   0  0  0  0  0  0  0  0  0  0  0  0
   38.8780   24.2940   41.2250 N   0  0  0  0  0  0  0  0  0  0  0  0
   38.4030   24.5480   43.3370 H   0  0  0  0  0  0  0  0  0  0  0  0
   37.4960   26.7470   43.0060 H   0  0  0  0  0  0  0  0  0  0  0  0
   39.1910   24.4010   39.1370 H   0  0  0  0  0  0  0  0  0  0  0  0
   38.5360   31.6350   40.6600 C   0  0  0  0  0  0  0  0  0  0  0  0
   38.9850   32.1510   41.7040 O   0  0  0  0  0  0  0  0  0  0  0  0
   42.8840   33.7480   38.8810 C   0  0  0  0  0  0  0  0  0  0  0  0
   42.5540   32.2470   38.8690 C   0  0  0  0  0  2  0  0  0  0  0  0
   41.1050   32.1500   38.7930 N   0  0  0  0  0  0  0  0  0  0  0  0
   39.7260   31.9780   38.5260 C   0  0  0  0  0  0  0  0  0  0  0  0
   39.1440   31.4690   37.5220 O   0  0  0  0  0  0  0  0  0  0  0  0
   39.2570   32.5950   39.8110 C   0  0  2  0  0  3  0  0  0  0  0  0
   40.7070   32.6660   40.1190 C   0  0  2  0  0  3  0  0  0  0  0  0
   41.4870   34.3240   39.9290 S   0  0  0  0  0  0  0  0  0  0  0  0
   42.8180   34.3370   37.5140 C   0  0  0  0  0  2  0  0  0  0  0  0
   41.9750   33.8830   36.9610 H   0  0  0  0  0  0  0  0  0  0  0  0
   44.1970   33.9040   39.5840 C   0  0  0  0  0  2  0  0  0  0  0  0
   44.3220   34.8990   40.0550 H   0  0  0  0  0  0  0  0  0  0  0  0
  2  1  1  0  0  0  0
  3  2  1  0  0  0  0
  3 13  1  0  0  0  0
  4  8  1  0  0  0  0
  4  3  2  0  0  0  0
  5  6  2  0  0  0  0
  5  4  1  0  0  0  0
  6  7  1  0  0  0  0
  7 20  1  0  0  0  0
  7  2  2  0  0  0  0
  9  5  1  0  0  0  0
 10  6  1  0  0  0  0
 11 17  1  0  0  0  0
 12 11  1  0  0  0  0
 12 18  1  0  0  0  0
 13 12  2  0  0  0  0
 14 15  2  0  0  0  0
 14 13  1  0  0  0  0
 15 16  1  0  0  0  0
 16 11  2  0  0  0  0
 19 15  1  0  0  0  0
 20 21  2  0  0  0  0
 22 32  1  0  0  0  0
 22 29  1  0  0  0  0
 23 22  1  0  0  0  0
 24 23  1  0  0  0  0
 24 28  1  0  0  0  0
 25 24  1  0  0  0  0
 25 27  1  0  0  0  0
 26 25  2  0  0  0  0
 27 28  1  0  0  0  0
 27 20  1  1  0  0  0
 28 29  1  6  0  0  0
 30 22  1  0  0  0  0
 31 30  1  0  0  0  0
 32 33  1  0  0  0  0
M  END
>  <minimizedAffinity>
-5.38525534

$$$$

 OpenBabel03242520023D

 33 36  0  0  1  0  0  0  0  0999 V2000
   38.3320   31.4200   39.0140 Br  0  0  0  0  0  0  0  0  0  0  0  0
   39.4810   30.9670   40.4560 C   0  0  0  0  0  0  0  0  0  0  0  0
   40.7720   31.4640   40.5710 C   0  0  0  0  0  0  0  0  0  0  0  0
   41.5200   31.0720   41.6650 C   0  0  0  0  0  0  0  0  0  0  0  0
   41.0550   30.2220   42.6340 C   0  0  0  0  0  0  0  0  0  0  0  0
   39.7620   29.7190   42.5290 C   0  0  0  0  0  0  0  0  0  0  0  0
   39.0250   30.1210   41.4290 C   0  0  0  0  0  0  0  0  0  0  0  0
   42.4940   31.5230   41.6390 H   0  0  0  0  0  0  0  0  0  0  0  0
   41.7160   29.9730   43.4550 H   0  0  0  0  0  0  0  0  0  0  0  0
   39.4060   29.0530   43.2950 H   0  0  0  0  0  0  0  0  0  0  0  0
   42.2120   32.7550   37.3050 C   0  0  0  0  0  0  0  0  0  0  0  0
   41.7710   31.9030   38.3160 C   0  0  0  0  0  0  0  0  0  0  0  0
   41.2320   32.3610   39.5200 C   0  0  0  0  0  0  0  0  0  0  0  0
   41.1670   33.7120   39.6380 N   0  0  0  0  0  0  0  0  0  0  0  0
   41.5930   34.5360   38.6660 C   0  0  0  0  0  0  0  0  0  0  0  0
   42.1060   34.0760   37.5180 N   0  0  0  0  0  0  0  0  0  0  0  0
   42.6010   32.2470   36.4390 H   0  0  0  0  0  0  0  0  0  0  0  0
   41.8240   30.8310   38.2170 H   0  0  0  0  0  0  0  0  0  0  0  0
   41.5060   35.6120   38.8410 H   0  0  0  0  0  0  0  0  0  0  0  0
   37.6890   29.5950   41.3570 C   0  0  0  0  0  0  0  0  0  0  0  0
   36.6690   30.2470   41.6590 O   0  0  0  0  0  0  0  0  0  0  0  0
   37.2760   24.7180   39.7490 C   0  0  0  0  0  0  0  0  0  0  0  0
   38.1520   25.2000   40.9170 C   0  0  0  0  0  2  0  0  0  0  0  0
   37.5010   26.3850   41.4520 N   0  0  0  0  0  0  0  0  0  0  0  0
   36.8290   27.4200   42.1430 C   0  0  0  0  0  0  0  0  0  0  0  0
   36.3540   27.4470   43.3180 O   0  0  0  0  0  0  0  0  0  0  0  0
   36.8940   28.4070   41.0140 C   0  0  2  0  0  3  0  0  0  0  0  0
   37.6910   27.3470   40.3480 C   0  0  2  0  0  3  0  0  0  0  0  0
   36.8050   26.3610   39.0690 S   0  0  0  0  0  0  0  0  0  0  0  0
   36.0840   23.9660   40.2300 C   0  0  0  0  0  2  0  0  0  0  0  0
   35.6980   24.4420   41.1510 H   0  0  0  0  0  0  0  0  0  0  0  0
   38.1690   23.9710   38.8080 C   0  0  0  0  0  2  0  0  0  0  0  0
   37.8010   23.9760   37.7630 H   0  0  0  0  0  0  0  0  0  0  0  0
  1  2  1  0  0  0  0
  2  3  2  0  0  0  0
  2  7  1  0  0  0  0
  3  4  1  0  0  0  0
  4  5  2  0  0  0  0
  5  9  1  0  0  0  0
  6  5  1  0  0  0  0
  6 10  1  0  0  0  0
  7  6  2  0  0  0  0
  8  4  1  0  0  0  0
 11 16  2  0  0  0  0
 11 12  1  0  0  0  0
 12 13  2  0  0  0  0
 13 14  1  0  0  0  0
 13  3  1  0  0  0  0
 15 19  1  0  0  0  0
 15 14  2  0  0  0  0
 16 15  1  0  0  0  0
 17 11  1  0  0  0  0
 18 12  1  0  0  0  0
 20  7  1  0  0  0  0
 20 21  2  0  0  0  0
 22 30  1  0  0  0  0
 22 23  1  0  0  0  0
 23 24  1  0  0  0  0
 24 25  1  0  0  0  0
 25 26  2  0  0  0  0
 27 20  1  1  0  0  0
 27 25  1  0  0  0  0
 28 29  1  6  0  0  0
 28 27  1  0  0  0  0
 28 24  1  0  0  0  0
 29 22  1  0  0  0  0
 30 31  1  0  0  0  0
 32 22  1  0  0  0  0
 33 32  1  0  0  0  0
M  END
>  <minimizedAffinity>
-5.34963751

$$$$
