
 OpenBabel03242518553D

 45 48  0  0  1  0  0  0  0  0999 V2000
   45.6750   31.1240   46.4990 C   0  0  2  0  0  0  0  0  0  0  0  0
   45.8060   30.2780   47.7250 C   0  0  0  0  0  0  0  0  0  0  0  0
   45.0220   29.0350   47.4800 C   0  0  0  0  0  0  0  0  0  0  0  0
   44.2730   28.9830   46.1960 C   0  0  0  0  0  0  0  0  0  0  0  0
   45.1990   29.2260   45.0360 C   0  0  0  0  0  0  0  0  0  0  0  0
   46.1260   30.3170   45.2980 C   0  0  2  0  0  0  0  0  0  0  0  0
   44.6000   31.3180   46.3060 H   0  0  0  0  0  0  0  0  0  0  0  0
   46.8340   30.0770   48.0440 H   0  0  0  0  0  0  0  0  0  0  0  0
   45.3700   30.8890   48.5780 H   0  0  0  0  0  0  0  0  0  0  0  0
   45.5990   28.0830   47.6160 H   0  0  0  0  0  0  0  0  0  0  0  0
   44.2410   28.9690   48.2910 H   0  0  0  0  0  0  0  0  0  0  0  0
   43.8500   27.9520   46.1180 H   0  0  0  0  0  0  0  0  0  0  0  0
   43.3780   29.6600   46.1870 H   0  0  0  0  0  0  0  0  0  0  0  0
   45.6060   28.2450   44.7300 H   0  0  0  0  0  0  0  0  0  0  0  0
   44.5300   29.5240   44.1760 H   0  0  0  0  0  0  0  0  0  0  0  0
   46.2290   30.9960   44.4500 H   0  0  0  0  0  0  0  0  0  0  0  0
   47.4450   29.6790   45.5690 C   0  0  0  0  0  0  0  0  0  0  0  0
   47.4930   28.5930   45.3670 H   0  0  0  0  0  0  0  0  0  0  0  0
   47.6660   29.8270   46.6510 H   0  0  0  0  0  0  0  0  0  0  0  0
   49.2310   31.6080   41.1400 C   0  0  0  0  0  0  0  0  0  0  0  0
   48.9000   30.1490   41.3430 C   0  0  0  0  0  2  0  0  0  0  0  0
   49.0510   29.8440   42.7500 N   0  0  0  0  0  0  0  0  0  0  0  0
   49.4110   29.3570   44.0390 C   0  0  0  0  0  0  0  0  0  0  0  0
   50.1850   28.3980   44.3630 O   0  0  0  0  0  0  0  0  0  0  0  0
   48.5850   30.3350   44.7880 C   0  0  1  0  0  3  0  0  0  0  0  0
   48.0690   30.7040   43.4180 C   0  0  1  0  0  3  0  0  0  0  0  0
   48.7190   32.2960   42.7670 S   0  0  0  0  0  0  0  0  0  0  0  0
   48.3240   32.2530   40.1140 C   0  0  0  0  0  2  0  0  0  0  0  0
   48.1670   31.6260   39.2120 H   0  0  0  0  0  0  0  0  0  0  0  0
   50.6820   31.8490   40.8550 C   0  0  0  0  0  2  0  0  0  0  0  0
   51.0800   30.9130   40.3650 H   0  0  0  0  0  0  0  0  0  0  0  0
   46.3510   32.4420   46.5920 C   0  0  0  0  0  0  0  0  0  0  0  0
   47.3710   32.6340   47.3020 O   0  0  0  0  0  0  0  0  0  0  0  0
   44.4430   35.4210   45.6840 C   0  0  0  0  0  0  0  0  0  0  0  0
   44.6920   35.5860   44.2990 C   0  0  0  0  0  0  0  0  0  0  0  0
   45.5280   34.6530   43.7100 C   0  0  0  0  0  0  0  0  0  0  0  0
   45.9990   33.7070   44.5240 N   0  0  0  0  0  0  0  0  0  0  0  0
   45.7740   33.5440   45.8110 C   0  0  0  0  0  0  0  0  0  0  0  0
   44.9680   34.4350   46.4080 N   0  0  0  0  0  0  0  0  0  0  0  0
   43.7860   36.1390   46.1900 H   0  0  0  0  0  0  0  0  0  0  0  0
   44.2330   36.4100   43.7750 H   0  0  0  0  0  0  0  0  0  0  0  0
   45.7830   34.8120   42.2870 C   0  0  0  0  0  0  0  0  0  0  0  0
   45.7490   33.5690   41.6640 F   0  0  0  0  0  0  0  0  0  0  0  0
   47.0300   35.3330   42.1660 F   0  0  0  0  0  0  0  0  0  0  0  0
   44.8050   35.5710   41.6560 F   0  0  0  0  0  0  0  0  0  0  0  0
  1  7  1  6  0  0  0
  1 32  1  0  0  0  0
  1  2  1  0  0  0  0
  2  8  1  0  0  0  0
  2  9  1  0  0  0  0
  3 10  1  0  0  0  0
  3  2  1  0  0  0  0
  3 11  1  0  0  0  0
  4  3  1  0  0  0  0
  5  6  1  0  0  0  0
  5  4  1  0  0  0  0
  6 16  1  6  0  0  0
  6 17  1  0  0  0  0
  6  1  1  0  0  0  0
 12  4  1  0  0  0  0
 13  4  1  0  0  0  0
 14  5  1  0  0  0  0
 15  5  1  0  0  0  0
 17 19  1  0  0  0  0
 18 17  1  0  0  0  0
 20 21  1  0  0  0  0
 20 27  1  0  0  0  0
 21 22  1  0  0  0  0
 22 26  1  0  0  0  0
 22 23  1  0  0  0  0
 23 24  2  0  0  0  0
 23 25  1  0  0  0  0
 25 17  1  1  0  0  0
 26 27  1  6  0  0  0
 26 25  1  0  0  0  0
 28 20  1  0  0  0  0
 29 28  1  0  0  0  0
 30 20  1  0  0  0  0
 31 30  1  0  0  0  0
 32 33  2  0  0  0  0
 34 40  1  0  0  0  0
 34 39  1  0  0  0  0
 35 34  2  0  0  0  0
 36 35  1  0  0  0  0
 36 37  2  0  0  0  0
 37 38  1  0  0  0  0
 38 39  2  0  0  0  0
 38 32  1  0  0  0  0
 41 35  1  0  0  0  0
 42 36  1  0  0  0  0
 43 42  1  0  0  0  0
 44 42  1  0  0  0  0
 45 42  1  0  0  0  0
M  END
>  <minimizedAffinity>
-5.3533392

>  <minimizedRMSD>
2.7615099

$$$$
