
 OpenBabel03242516163D

 46 51  0  0  1  0  0  0  0  0999 V2000
   45.8540   35.4930   42.9850 C   0  0  0  0  0  0  0  0  0  0  0  0
   46.5050   34.2690   42.9410 C   0  0  0  0  0  0  0  0  0  0  0  0
   46.3480   33.4370   44.0450 C   0  0  0  0  0  0  0  0  0  0  0  0
   45.5920   33.8200   45.1040 N   0  0  0  0  0  0  0  0  0  0  0  0
   44.9900   35.0210   45.0780 C   0  0  0  0  0  0  0  0  0  0  0  0
   45.1130   35.8420   44.0500 N   0  0  0  0  0  0  0  0  0  0  0  0
   44.1790   35.4800   46.1640 N   0  0  0  0  0  0  0  0  0  0  0  0
   45.9450   36.1750   42.1490 H   0  0  0  0  0  0  0  0  0  0  0  0
   43.2810   34.9150   46.1910 H   0  0  0  0  0  0  0  0  0  0  0  0
   44.6770   36.2600   46.6580 H   0  0  0  0  0  0  0  0  0  0  0  0
   47.3350   33.8860   41.7580 C   0  0  0  0  0  0  0  0  0  0  0  0
   47.9920   35.0420   41.0020 C   0  0  0  0  0  0  0  0  0  0  0  0
   48.7670   34.0950   41.7750 C   0  0  0  0  0  0  0  0  0  0  0  0
   47.7230   36.0690   41.3820 H   0  0  0  0  0  0  0  0  0  0  0  0
   48.0400   35.0170   39.9030 H   0  0  0  0  0  0  0  0  0  0  0  0
   49.3930   33.3630   41.2140 H   0  0  0  0  0  0  0  0  0  0  0  0
   49.3650   34.5990   42.5410 H   0  0  0  0  0  0  0  0  0  0  0  0
   46.7810   32.8300   40.8580 C   0  0  0  0  0  0  0  0  0  0  0  0
   47.8130   31.8530   40.3160 C   0  0  0  0  0  0  0  0  0  0  0  0
   46.9760   30.8120   39.5480 C   0  0  0  0  0  0  0  0  0  0  0  0
   46.5990   31.4320   38.3490 O   0  0  0  0  0  0  0  0  0  0  0  0
   45.5700   32.3160   38.7770 C   0  0  0  0  0  0  0  0  0  0  0  0
   46.1750   33.4450   39.5920 C   0  0  0  0  0  0  0  0  0  0  0  0
   46.0030   32.2330   41.3580 H   0  0  0  0  0  0  0  0  0  0  0  0
   48.5510   32.3400   39.6730 H   0  0  0  0  0  0  0  0  0  0  0  0
   48.2530   31.2940   41.1650 H   0  0  0  0  0  0  0  0  0  0  0  0
   47.5890   29.9150   39.3740 H   0  0  0  0  0  0  0  0  0  0  0  0
   46.0880   30.5880   40.1820 H   0  0  0  0  0  0  0  0  0  0  0  0
   44.7890   31.7960   39.3330 H   0  0  0  0  0  0  0  0  0  0  0  0
   45.2050   32.7990   37.8390 H   0  0  0  0  0  0  0  0  0  0  0  0
   45.3230   34.0650   39.9400 H   0  0  0  0  0  0  0  0  0  0  0  0
   46.9130   33.9860   39.0020 H   0  0  0  0  0  0  0  0  0  0  0  0
   47.0130   32.1560   44.1490 C   0  0  1  0  0  0  0  0  0  0  0  0
   48.2340   31.8630   43.9380 O   0  0  0  0  0  0  0  0  0  0  0  0
   45.7950   31.2880   47.9290 C   0  0  0  0  0  0  0  0  0  0  0  0
   45.1280   30.2180   47.1420 C   0  0  0  0  0  0  0  0  0  0  0  0
   45.6930   30.1640   45.8350 N   0  0  0  0  0  0  0  0  0  0  0  0
   45.7590   30.0700   44.4310 C   0  0  0  0  0  0  0  0  0  0  0  0
   45.0150   29.6280   43.4930 O   0  0  0  0  0  0  0  0  0  0  0  0
   47.1020   30.7120   44.4120 C   0  0  2  0  0  0  0  0  0  0  0  0
   47.1180   30.2590   45.8580 C   0  0  1  0  0  0  0  0  0  0  0  0
   47.3370   31.6470   47.0390 S   0  0  0  0  0  0  0  0  0  0  0  0
   44.9840   32.5220   48.1720 C   0  0  0  0  0  0  0  0  0  0  0  0
   45.3810   33.4280   47.6320 H   0  0  0  0  0  0  0  0  0  0  0  0
   46.2070   30.6480   49.2620 C   0  0  0  0  0  0  0  0  0  0  0  0
   45.3600   30.6710   49.9830 H   0  0  0  0  0  0  0  0  0  0  0  0
  1  6  1  0  0  0  0
  2  1  2  0  0  0  0
  2  3  1  0  0  0  0
  3  4  2  0  0  0  0
  5  4  1  0  0  0  0
  5  7  1  0  0  0  0
  6  5  2  0  0  0  0
  7  9  1  0  0  0  0
  7 10  1  0  0  0  0
  8  1  1  0  0  0  0
 11 13  1  0  0  0  0
 11  2  1  0  0  0  0
 12 14  1  0  0  0  0
 12 11  1  0  0  0  0
 12 13  1  0  0  0  0
 13 17  1  0  0  0  0
 15 12  1  0  0  0  0
 16 13  1  0  0  0  0
 18 24  1  0  0  0  0
 18 11  1  0  0  0  0
 19 18  1  0  0  0  0
 19 26  1  0  0  0  0
 20 28  1  0  0  0  0
 20 19  1  0  0  0  0
 21 22  1  0  0  0  0
 21 20  1  0  0  0  0
 22 29  1  0  0  0  0
 22 23  1  0  0  0  0
 23 31  1  0  0  0  0
 23 18  1  0  0  0  0
 25 19  1  0  0  0  0
 27 20  1  0  0  0  0
 30 22  1  0  0  0  0
 32 23  1  0  0  0  0
 33  3  1  1  0  0  0
 33 40  1  0  0  0  0
 34 33  1  0  0  0  0
 35 43  1  0  0  0  0
 35 45  1  0  0  0  0
 36 35  1  0  0  0  0
 37 41  1  0  0  0  0
 37 36  1  0  0  0  0
 38 37  1  0  0  0  0
 39 38  2  0  0  0  0
 40 34  1  6  0  0  0
 40 38  1  0  0  0  0
 40 41  1  0  0  0  0
 41 42  1  1  0  0  0
 42 35  1  0  0  0  0
 44 43  1  0  0  0  0
 45 46  1  0  0  0  0
M  END
>  <minimizedAffinity>
-5.94003916

>  <minimizedRMSD>
4.21559668

$$$$
