
     RDKit          3D

 37 39  0  0  0  0  0  0  0  0999 V2000
   46.5280   33.6177   44.3334 C   0  0  0  0  0  0  0  0  0  0  0  0
   46.2316   33.2033   45.6436 C   0  0  0  0  0  0  0  0  0  0  0  0
   45.2983   33.9017   46.3685 C   0  0  0  0  0  0  0  0  0  0  0  0
   44.7075   34.9649   45.7700 N   0  0  0  0  0  0  0  0  0  0  0  0
   44.9824   35.3666   44.5241 C   0  0  0  0  0  0  0  0  0  0  0  0
   45.8961   34.6905   43.8038 N   0  0  0  0  0  0  0  0  0  0  0  0
   45.0481   33.4538   47.6480 O   0  0  0  0  0  0  0  0  0  0  0  0
   45.3295   30.8582   47.4595 O   0  0  0  0  0  0  0  0  0  0  0  0
   45.8115   32.0789   48.2624 P   0  0  2  0  0  0  0  0  0  0  0  0
   45.3204   31.8468   49.8549 O   0  0  0  0  0  0  0  0  0  0  0  0
   47.4498   32.1986   48.1144 O   0  0  0  0  0  0  0  0  0  0  0  0
   48.4689   31.4382   48.5613 C   0  0  0  0  0  0  0  0  0  0  0  0
   49.2179   32.0227   49.4191 O   0  0  0  0  0  0  0  0  0  0  0  0
   47.2438   33.1378   43.6847 H   0  0  0  0  0  0  0  0  0  0  0  0
   46.8148   32.3390   45.9072 H   0  0  0  0  0  0  0  0  0  0  0  0
   44.4729   36.2151   44.1236 H   0  0  0  0  0  0  0  0  0  0  0  0
   44.4264   32.2011   50.0154 H   0  0  0  0  0  0  0  0  0  0  0  0
   53.5182   31.8960   51.1038 C   0  0  0  0  0  0  0  0  0  0  0  0
   52.9330   31.6026   51.9897 H   0  0  0  0  0  0  0  0  0  0  0  0
   52.6705   31.7647   49.8864 C   0  0  0  0  0  0  0  0  0  0  0  0
   53.0577   32.6479   48.7415 C   0  0  0  0  0  0  0  0  0  0  0  0
   54.0681   33.1065   48.8713 H   0  0  0  0  0  0  0  0  0  0  0  0
   52.6491   30.3069   49.3944 C   0  0  0  0  0  0  0  0  0  0  0  0
   51.4322   30.1952   48.5727 N   0  0  0  0  0  0  0  0  0  0  0  0
   50.3678   30.0763   47.6413 C   0  0  0  0  0  0  0  0  0  0  0  0
   50.5533   29.9050   46.4034 O   0  0  0  0  0  0  0  0  0  0  0  0
   49.2966   30.2224   48.6419 C   0  0  1  0  0  0  0  0  0  0  0  0
   50.3936   30.2802   49.6236 C   0  0  2  0  0  0  0  0  0  0  0  0
   50.8726   31.9049   50.2776 S   0  0  0  0  0  0  0  0  0  0  0  0
   54.3370   31.1377   51.0177 H   0  0  0  0  0  0  0  0  0  0  0  0
   53.9029   32.9156   51.2086 H   0  0  0  0  0  0  0  0  0  0  0  0
   53.0905   32.0590   47.7837 H   0  0  0  0  0  0  0  0  0  0  0  0
   52.3087   33.4609   48.5516 H   0  0  0  0  0  0  0  0  0  0  0  0
   52.4932   29.6654   50.2744 H   0  0  0  0  0  0  0  0  0  0  0  0
   53.5315   30.0597   48.8047 H   0  0  0  0  0  0  0  0  0  0  0  0
   48.7404   29.2579   48.6531 H   0  0  0  0  0  0  0  0  0  0  0  0
   50.4705   29.4537   50.3592 H   0  0  0  0  0  0  0  0  0  0  0  0
  1  2  2  0
  2  3  1  0
  3  7  1  0
  4  3  2  0
  5  4  1  0
  6  1  1  0
  6  5  2  0
  9  7  1  6
  9  8  2  0
  9 10  1  0
 11  9  1  0
 11 12  1  0
 12 13  2  0
  1 14  1  0
  2 15  1  0
  5 16  1  0
 10 17  1  0
 18 19  1  0
 18 20  1  0
 20 21  1  0
 21 22  1  0
 20 23  1  0
 23 24  1  0
 24 25  1  0
 25 26  2  0
 25 27  1  0
 27 28  1  0
 28 29  1  0
 29 20  1  0
 28 24  1  0
 18 30  1  0
 18 31  1  0
 21 32  1  0
 21 33  1  0
 23 34  1  0
 23 35  1  0
 27 36  1  1
 28 37  1  1
 12 27  1  0
M  ISO  6  14  14  15  14  16  14  17   3  19   8  22   8
M  END
>  <DihAtoms>  (1) 
10,11,26,24

>  <DihDeg>  (1) 
175.1679550824895

$$$$
