REMARK  Name = 
REMARK  4 active torsions:
REMARK  status: ('A' for Active; 'I' for Inactive)
REMARK    1  A    between atoms: C_2  and  C_7
REMARK    2  A    between atoms: C_7  and  C_21
REMARK    3  A    between atoms: C_12  and  C_14
REMARK    4  A    between atoms: C_14  and  C_15
REMARK                            x       y       z     vdW  Elec       q    Type
REMARK                         _______ _______ _______ _____ _____    ______ ____
ROOT
ATOM      1  C   UNL     1      43.262  33.326  38.896  0.00  0.00    +0.000 C 
ATOM      2  C   UNL     1      43.824  32.155  39.608  0.00  0.00    +0.000 C 
ATOM      3  N   UNL     1      44.999  32.520  40.316  0.00  0.00    +0.000 N 
ATOM      4  C   UNL     1      46.310  32.559  40.867  0.00  0.00    +0.000 C 
ATOM      5  O   UNL     1      47.102  31.632  41.248  0.00  0.00    +0.000 OA
ATOM      6  C   UNL     1      46.248  34.032  40.765  0.00  0.00    +0.000 C 
ATOM      7  C   UNL     1      44.774  33.737  41.020  0.00  0.00    +0.000 C 
ATOM      8  S   UNL     1      43.629  34.704  40.052  0.00  0.00    +0.000 S 
ENDROOT
BRANCH   6   9
ATOM      9  C   UNL     1      46.801  34.798  41.908  0.00  0.00    +0.000 C 
ATOM     10  O   UNL     1      47.918  35.393  41.848  0.00  0.00    +0.000 OA
BRANCH   9  12
ATOM     11  C   UNL     1      45.198  35.969  43.370  0.00  0.00    +0.000 A 
ATOM     12  C   UNL     1      46.084  34.902  43.156  0.00  0.00    +0.000 A 
ATOM     13  C   UNL     1      46.254  33.950  44.167  0.00  0.00    +0.000 A 
ATOM     14  N   UNL     1      45.546  34.114  45.310  0.00  0.00    +0.000 NA
ATOM     15  C   UNL     1      44.700  35.153  45.490  0.00  0.00    +0.000 A 
ATOM     16  N   UNL     1      44.529  36.073  44.524  0.00  0.00    +0.000 NA
ATOM     17  H   UNL     1      45.042  36.718  42.618  0.00  0.00    +0.000 HD
ATOM     18  H   UNL     1      46.936  33.131  43.997  0.00  0.00    +0.000 HD
ATOM     19  H   UNL     1      44.251  35.074  46.474  0.00  0.00    +0.000 HD
ENDBRANCH   9  12
ENDBRANCH   6   9
BRANCH   1  20
ATOM     20  C   UNL     1      41.740  33.312  38.785  0.00  0.00    +0.000 C 
ATOM     21  H   UNL     1      41.482  34.101  38.026  0.00  0.00    +0.000 HD
ENDBRANCH   1  20
BRANCH   1  22
ATOM     22  C   UNL     1      43.895  33.668  37.587  0.00  0.00    +0.000 C 
ATOM     23  H   UNL     1      43.140  34.271  37.003  0.00  0.00    +0.000 HD
ENDBRANCH   1  22
TORSDOF 4
