
 OpenBabel03242519103D

 50 54  0  0  1  0  0  0  0  0999 V2000
   48.7800   32.2910   37.0450 C   0  0  0  0  0  0  0  0  0  0  0  0
   48.1150   32.9320   38.1130 C   0  0  0  0  0  0  0  0  0  0  0  0
   46.7880   33.2030   37.8520 C   0  0  0  0  0  0  0  0  0  0  0  0
   46.1230   32.9070   36.6960 C   0  0  0  0  0  0  0  0  0  0  0  0
   46.8140   32.2780   35.6770 C   0  0  0  0  0  0  0  0  0  0  0  0
   48.1340   31.9820   35.8750 C   0  0  0  0  0  0  0  0  0  0  0  0
   46.2450   33.6960   38.6480 H   0  0  0  0  0  0  0  0  0  0  0  0
   45.0750   33.1430   36.5420 H   0  0  0  0  0  0  0  0  0  0  0  0
   46.3150   32.0300   34.7490 H   0  0  0  0  0  0  0  0  0  0  0  0
   48.5130   31.7140   33.4650 C   0  0  0  0  0  0  0  0  0  0  0  0
   47.6440   32.6160   33.2360 O   0  0  0  0  0  0  0  0  0  0  0  0
   48.8170   31.3330   34.8010 N   0  0  0  0  0  0  0  0  0  0  0  0
   49.5090   30.6080   35.0510 H   0  0  0  0  0  0  0  0  0  0  0  0
   46.4920   28.3270   32.0980 C   0  0  0  0  0  0  0  0  0  0  0  0
   47.1760   28.7590   30.8360 C   0  0  0  0  0  2  0  0  0  0  0  0
   48.0110   29.8910   31.1090 N   0  0  0  0  0  0  0  0  0  0  0  0
   48.6400   31.1680   31.1050 C   0  0  0  0  0  0  0  0  0  0  0  0
   48.6440   32.1380   30.2750 O   0  0  0  0  0  0  0  0  0  0  0  0
   49.2970   30.9660   32.4240 C   0  0  2  0  0  3  0  0  0  0  0  0
   48.9350   29.5500   32.2010 C   0  0  1  0  0  3  0  0  0  0  0  0
   47.6840   28.8770   33.3630 S   0  0  0  0  0  0  0  0  0  0  0  0
   45.1300   28.9010   32.3060 C   0  0  0  0  0  2  0  0  0  0  0  0
   44.9000   29.7990   31.7260 H   0  0  0  0  0  0  0  0  0  0  0  0
   46.4210   26.8110   32.0590 C   0  0  0  0  0  2  0  0  0  0  0  0
   47.4290   26.3530   32.0810 H   0  0  0  0  0  0  0  0  0  0  0  0
   48.7190   33.2750   39.3340 N   0  0  0  0  0  0  0  0  0  0  0  0
   49.7150   33.5240   39.1330 H   0  0  0  0  0  0  0  0  0  0  0  0
   47.5460   34.4760   42.4700 N   0  0  0  0  0  0  0  0  0  0  0  0
   47.5250   34.5980   41.0130 C   0  0  0  0  0  0  0  0  0  0  0  0
   48.2290   33.3270   40.6700 C   0  0  2  0  0  0  0  0  0  0  0  0
   49.4210   33.3410   41.6080 C   0  0  0  0  0  0  0  0  0  0  0  0
   48.8700   34.0460   42.8260 C   0  0  0  0  0  0  0  0  0  0  0  0
   48.1190   35.4610   40.6640 H   0  0  0  0  0  0  0  0  0  0  0  0
   46.4830   34.6000   40.6310 H   0  0  0  0  0  0  0  0  0  0  0  0
   47.5410   32.4880   40.9000 H   0  0  0  0  0  0  0  0  0  0  0  0
   49.7650   32.3170   41.8540 H   0  0  0  0  0  0  0  0  0  0  0  0
   50.2000   33.9820   41.1630 H   0  0  0  0  0  0  0  0  0  0  0  0
   48.8120   33.3380   43.6970 H   0  0  0  0  0  0  0  0  0  0  0  0
   49.4850   34.9010   43.1420 H   0  0  0  0  0  0  0  0  0  0  0  0
   44.6000   35.8550   44.3070 C   0  0  0  0  0  0  0  0  0  0  0  0
   45.5620   35.7040   43.3150 C   0  0  0  0  0  0  0  0  0  0  0  0
   46.5350   34.7070   43.4150 C   0  0  0  0  0  0  0  0  0  0  0  0
   46.4700   33.9230   44.5160 N   0  0  0  0  0  0  0  0  0  0  0  0
   45.5520   34.0520   45.4810 C   0  0  0  0  0  0  0  0  0  0  0  0
   44.6090   35.0340   45.3640 N   0  0  0  0  0  0  0  0  0  0  0  0
   43.8900   36.6520   44.1430 H   0  0  0  0  0  0  0  0  0  0  0  0
   45.6600   36.3030   42.4140 H   0  0  0  0  0  0  0  0  0  0  0  0
   45.5330   33.3990   46.3550 H   0  0  0  0  0  0  0  0  0  0  0  0
   51.2900   31.7190   37.3890 N   0  0  0  0  0  0  0  0  0  0  0  0
   50.1760   31.9750   37.2460 C   0  0  0  0  0  0  0  0  0  0  0  0
  1 50  1  0  0  0  0
  1  2  1  0  0  0  0
  2 26  1  0  0  0  0
  3  2  2  0  0  0  0
  3  7  1  0  0  0  0
  4  3  1  0  0  0  0
  5  6  1  0  0  0  0
  5  4  2  0  0  0  0
  6  1  2  0  0  0  0
  8  4  1  0  0  0  0
  9  5  1  0  0  0  0
 10 12  1  0  0  0  0
 11 10  2  0  0  0  0
 12 13  1  0  0  0  0
 12  6  1  0  0  0  0
 14 22  1  0  0  0  0
 14 21  1  0  0  0  0
 15 16  1  0  0  0  0
 15 14  1  0  0  0  0
 16 20  1  0  0  0  0
 17 16  1  0  0  0  0
 17 19  1  0  0  0  0
 18 17  2  0  0  0  0
 19 10  1  1  0  0  0
 20 19  1  0  0  0  0
 20 21  1  1  0  0  0
 23 22  1  0  0  0  0
 24 25  1  0  0  0  0
 24 14  1  0  0  0  0
 26 30  1  0  0  0  0
 27 26  1  0  0  0  0
 28 32  1  0  0  0  0
 28 42  1  0  0  0  0
 29 28  1  0  0  0  0
 30 35  1  1  0  0  0
 30 29  1  0  0  0  0
 30 31  1  0  0  0  0
 31 36  1  0  0  0  0
 31 32  1  0  0  0  0
 32 39  1  0  0  0  0
 32 38  1  0  0  0  0
 33 29  1  0  0  0  0
 34 29  1  0  0  0  0
 37 31  1  0  0  0  0
 40 45  1  0  0  0  0
 41 42  1  0  0  0  0
 41 40  2  0  0  0  0
 42 43  2  0  0  0  0
 43 44  1  0  0  0  0
 44 48  1  0  0  0  0
 45 44  2  0  0  0  0
 46 40  1  0  0  0  0
 47 41  1  0  0  0  0
 50 49  3  0  0  0  0
M  END
>  <minimizedAffinity>
-6.39069128

>  <minimizedRMSD>
1.91420364

$$$$
