
     RDKit          3D

 31 33  0  0  0  0  0  0  0  0999 V2000
   45.2043   35.9731   43.3731 C   0  0  0  0  0  0  0  0  0  0  0  0
   46.0873   34.9126   43.1511 C   0  0  0  0  0  0  0  0  0  0  0  0
   46.2463   33.9585   44.1669 C   0  0  0  0  0  0  0  0  0  0  0  0
   45.5335   34.1170   45.3111 N   0  0  0  0  0  0  0  0  0  0  0  0
   44.6878   35.1508   45.4986 C   0  0  0  0  0  0  0  0  0  0  0  0
   44.5362   36.0590   44.5322 N   0  0  0  0  0  0  0  0  0  0  0  0
   46.8248   34.7834   41.9192 C   0  0  0  0  0  0  0  0  0  0  0  0
   47.9087   35.3986   41.8208 O   0  0  0  0  0  0  0  0  0  0  0  0
   45.0488   36.7305   42.6229 H   0  0  0  0  0  0  0  0  0  0  0  0
   44.1411   35.2306   46.4339 H   0  0  0  0  0  0  0  0  0  0  0  0
   46.2777   34.1304   41.2404 H   0  0  0  0  0  0  0  0  0  0  0  0
   47.1692   32.8177   43.9797 C   0  0  0  0  0  0  0  0  0  0  0  0
   46.8675   31.7868   45.0343 C   0  0  2  0  0  0  0  0  0  0  0  0
   47.0493   32.3386   46.4085 C   0  0  0  0  0  0  0  0  0  0  0  0
   47.6589   33.2625   46.3810 H   0  0  0  0  0  0  0  0  0  0  0  0
   47.6883   30.5377   44.9008 C   0  0  0  0  0  0  0  0  0  0  0  0
   46.9644   29.6258   44.0519 N   0  0  0  0  0  0  0  0  0  0  0  0
   46.6189   28.7247   42.9935 C   0  0  0  0  0  0  0  0  0  0  0  0
   47.3521   28.0715   42.2015 O   0  0  0  0  0  0  0  0  0  0  0  0
   45.1440   28.8943   43.2316 C   0  0  1  0  0  0  0  0  0  0  0  0
   44.6769   29.6316   42.5570 H   0  0  0  0  0  0  0  0  0  0  0  0
   45.6193   29.4195   44.5619 C   0  0  2  0  0  0  0  0  0  0  0  0
   45.1688   31.1532   44.8912 S   0  0  0  0  0  0  0  0  0  0  0  0
   48.1938   33.2017   44.2255 H   0  0  0  0  0  0  0  0  0  0  0  0
   47.1860   32.4063   42.9730 H   0  0  0  0  0  0  0  0  0  0  0  0
   47.6235   31.6360   47.0697 H   0  0  0  0  0  0  0  0  0  0  0  0
   46.0713   32.4824   46.9537 H   0  0  0  0  0  0  0  0  0  0  0  0
   48.6355   30.7999   44.4360 H   0  0  0  0  0  0  0  0  0  0  0  0
   47.8683   30.0645   45.8984 H   0  0  0  0  0  0  0  0  0  0  0  0
   44.5896   27.9363   43.3508 H   0  0  0  0  0  0  0  0  0  0  0  0
   45.5326   28.7447   45.4153 H   0  0  0  0  0  0  0  0  0  0  0  0
  1  6  2  0
  2  1  1  0
  2  3  2  0
  3  4  1  0
  4  5  2  0
  6  5  1  0
  7  2  1  0
  8  7  2  0
  1  9  1  0
  5 10  1  0
  7 11  1  0
 13 12  1  6
 13 14  1  0
 14 15  1  0
 13 16  1  0
 16 17  1  0
 17 18  1  0
 18 19  2  0
 18 20  1  0
 20 21  1  6
 20 22  1  0
 22 23  1  0
 23 13  1  0
 22 17  1  0
 12 24  1  0
 12 25  1  0
 14 26  1  0
 14 27  1  0
 16 28  1  0
 16 29  1  0
 20 30  1  0
 22 31  1  1
  3 12  1  0
M  ISO  5   9  14  10  14  11   6  15   8  21  15
M  END
>  <DihAtoms>  (1) 
1,2,11,12

>  <DihDeg>  (1) 
-179.99274185765947

$$$$
