
     RDKit          3D

 31 33  0  0  0  0  0  0  0  0999 V2000
   45.2043   35.9731   43.3731 C   0  0  0  0  0  0  0  0  0  0  0  0
   46.0873   34.9126   43.1511 C   0  0  0  0  0  0  0  0  0  0  0  0
   46.2463   33.9585   44.1669 C   0  0  0  0  0  0  0  0  0  0  0  0
   45.5335   34.1170   45.3111 N   0  0  0  0  0  0  0  0  0  0  0  0
   44.6878   35.1508   45.4986 C   0  0  0  0  0  0  0  0  0  0  0  0
   44.5362   36.0590   44.5322 N   0  0  0  0  0  0  0  0  0  0  0  0
   46.8248   34.7834   41.9192 C   0  0  0  0  0  0  0  0  0  0  0  0
   47.9087   35.3986   41.8208 O   0  0  0  0  0  0  0  0  0  0  0  0
   45.0488   36.7305   42.6229 H   0  0  0  0  0  0  0  0  0  0  0  0
   44.1411   35.2306   46.4339 H   0  0  0  0  0  0  0  0  0  0  0  0
   46.2777   34.1304   41.2404 H   0  0  0  0  0  0  0  0  0  0  0  0
   47.1692   32.8177   43.9797 C   0  0  0  0  0  0  0  0  0  0  0  0
   46.6436   31.6491   44.7697 C   0  0  2  0  0  0  0  0  0  0  0  0
   46.5526   31.9670   46.2245 C   0  0  0  0  0  0  0  0  0  0  0  0
   47.1702   32.8526   46.4702 H   0  0  0  0  0  0  0  0  0  0  0  0
   47.4539   30.3980   44.5964 C   0  0  0  0  0  0  0  0  0  0  0  0
   46.9018   29.6685   43.4832 N   0  0  0  0  0  0  0  0  0  0  0  0
   46.7629   28.9642   42.2437 C   0  0  0  0  0  0  0  0  0  0  0  0
   47.6303   28.4093   41.5150 O   0  0  0  0  0  0  0  0  0  0  0  0
   45.2733   29.1664   42.2113 C   0  0  1  0  0  0  0  0  0  0  0  0
   44.9645   30.0231   41.5888 H   0  0  0  0  0  0  0  0  0  0  0  0
   45.4782   29.4505   43.6771 C   0  0  2  0  0  0  0  0  0  0  0  0
   44.9988   31.1304   44.1925 S   0  0  0  0  0  0  0  0  0  0  0  0
   48.1290   33.1072   44.4823 H   0  0  0  0  0  0  0  0  0  0  0  0
   47.3826   32.5704   42.9423 H   0  0  0  0  0  0  0  0  0  0  0  0
   46.9696   31.1413   46.8608 H   0  0  0  0  0  0  0  0  0  0  0  0
   45.4871   32.0706   46.5825 H   0  0  0  0  0  0  0  0  0  0  0  0
   48.4797   30.6835   44.3769 H   0  0  0  0  0  0  0  0  0  0  0  0
   47.4205   29.7647   45.5180 H   0  0  0  0  0  0  0  0  0  0  0  0
   44.6906   28.2300   42.0595 H   0  0  0  0  0  0  0  0  0  0  0  0
   45.2097   28.6543   44.3737 H   0  0  0  0  0  0  0  0  0  0  0  0
  1  6  2  0
  2  1  1  0
  2  3  2  0
  3  4  1  0
  4  5  2  0
  6  5  1  0
  7  2  1  0
  8  7  2  0
  1  9  1  0
  5 10  1  0
  7 11  1  0
 13 12  1  6
 13 14  1  0
 14 15  1  0
 13 16  1  0
 16 17  1  0
 17 18  1  0
 18 19  2  0
 18 20  1  0
 20 21  1  6
 20 22  1  0
 22 23  1  0
 23 13  1  0
 22 17  1  0
 12 24  1  0
 12 25  1  0
 14 26  1  0
 14 27  1  0
 16 28  1  0
 16 29  1  0
 20 30  1  0
 22 31  1  1
  3 12  1  0
M  ISO  5   9  14  10  14  11   6  15   8  21  15
M  END
>  <DihAtoms>  (1) 
1,2,11,12

>  <DihDeg>  (1) 
-179.99274185765947

$$$$
