REMARK  Name = 
REMARK  4 active torsions:
REMARK  status: ('A' for Active; 'I' for Inactive)
REMARK    1  A    between atoms: C_5  and  C_8
REMARK    2  A    between atoms: C_8  and  C_23
REMARK    3  A    between atoms: C_14  and  C_16
REMARK    4  A    between atoms: C_16  and  C_17
REMARK                            x       y       z     vdW  Elec       q    Type
REMARK                         _______ _______ _______ _____ _____    ______ ____
ROOT
ATOM      1  C   UNL     1      46.324  32.734  46.738  0.00  0.00    +0.000 C 
ATOM      2  O   UNL     1      45.427  32.659  47.611  0.00  0.00    +0.000 OA
ENDROOT
BRANCH   1   7
ATOM      3  C   UNL     1      44.886  35.066  44.350  0.00  0.00    +0.000 A 
ATOM      4  C   UNL     1      45.807  35.014  43.284  0.00  0.00    +0.000 A 
ATOM      5  C   UNL     1      46.932  34.172  43.380  0.00  0.00    +0.000 A 
ATOM      6  N   UNL     1      47.065  33.450  44.514  0.00  0.00    +0.000 NA
ATOM      7  C   UNL     1      46.172  33.517  45.520  0.00  0.00    +0.000 A 
ATOM      8  N   UNL     1      45.101  34.320  45.425  0.00  0.00    +0.000 NA
ATOM      9  N   UNL     1      43.760  35.916  44.240  0.00  0.00    +0.000 N 
ATOM     10  H   UNL     1      45.674  35.604  42.389  0.00  0.00    +0.000 HD
ATOM     11  H   UNL     1      47.624  34.138  42.570  0.00  0.00    +0.000 HD
ATOM     12  H   UNL     1      44.057  36.879  44.550  0.00  0.00    +0.000 HD
ATOM     13  H   UNL     1      42.826  35.581  43.902  0.00  0.00    +0.000 HD
ENDBRANCH   1   7
BRANCH   1  19
ATOM     14  C   UNL     1      49.806  29.301  46.562  0.00  0.00    +0.000 C 
ATOM     15  C   UNL     1      49.200  29.346  47.922  0.00  0.00    +0.000 C 
ATOM     16  N   UNL     1      48.319  30.432  48.036  0.00  0.00    +0.000 N 
ATOM     17  C   UNL     1      47.590  31.584  48.452  0.00  0.00    +0.000 C 
ATOM     18  O   UNL     1      47.216  31.939  49.608  0.00  0.00    +0.000 OA
ATOM     19  C   UNL     1      47.577  31.971  47.012  0.00  0.00    +0.000 C 
ATOM     20  C   UNL     1      47.459  30.482  46.871  0.00  0.00    +0.000 C 
ATOM     21  S   UNL     1      48.347  29.717  45.532  0.00  0.00    +0.000 S 
BRANCH  14  22
ATOM     22  C   UNL     1      50.393  27.986  46.191  0.00  0.00    +0.000 C 
ATOM     23  H   UNL     1      50.143  27.671  45.165  0.00  0.00    +0.000 HD
ENDBRANCH  14  22
BRANCH  14  24
ATOM     24  C   UNL     1      50.831  30.390  46.329  0.00  0.00    +0.000 C 
ATOM     25  H   UNL     1      51.279  30.710  47.293  0.00  0.00    +0.000 HD
ENDBRANCH  14  24
ENDBRANCH   1  19
TORSDOF 4
