
 OpenBabel03252508513D

 31 34  0  0  1  0  0  0  0  0999 V2000
   45.8160   34.0600   41.0280 C   0  0  0  0  0  0  0  0  0  0  0  0
   46.4370   34.7420   42.0730 C   0  0  0  0  0  0  0  0  0  0  0  0
   47.7630   35.1400   41.8780 C   0  0  0  0  0  0  0  0  0  0  0  0
   48.3600   34.8390   40.6910 N   0  0  0  0  0  0  0  0  0  0  0  0
   47.7270   34.1810   39.7120 C   0  0  0  0  0  0  0  0  0  0  0  0
   46.4460   33.7910   39.8850 N   0  0  0  0  0  0  0  0  0  0  0  0
   48.2390   35.6610   42.6740 H   0  0  0  0  0  0  0  0  0  0  0  0
   48.1840   33.9340   38.7620 H   0  0  0  0  0  0  0  0  0  0  0  0
   45.6960   35.0110   43.3070 C   0  0  0  0  0  0  0  0  0  0  0  0
   45.0060   36.1950   43.5260 C   0  0  0  0  0  0  0  0  0  0  0  0
   44.4700   36.0220   44.7850 C   0  0  0  0  0  0  0  0  0  0  0  0
   44.8110   34.8150   45.2970 N   0  0  0  0  0  0  0  0  0  0  0  0
   45.5510   34.2280   44.3830 N   0  0  0  0  0  0  0  0  0  0  0  0
   44.8890   37.0760   42.8840 H   0  0  0  0  0  0  0  0  0  0  0  0
   43.8520   36.7460   45.3190 H   0  0  0  0  0  0  0  0  0  0  0  0
   44.5140   34.4740   46.2400 H   0  0  0  0  0  0  0  0  0  0  0  0
   44.5110   33.6610   41.2020 O   0  0  0  0  0  0  0  0  0  0  0  0
   43.3970   34.2190   40.6410 C   0  0  0  0  0  0  0  0  0  0  0  0
   43.1390   35.4570   40.4880 O   0  0  0  0  0  0  0  0  0  0  0  0
   38.8680   31.8470   40.2940 C   0  0  0  0  0  0  0  0  0  0  0  0
   38.7780   33.3380   40.5450 C   0  0  0  0  0  2  0  0  0  0  0  0
   40.0820   33.8970   40.2380 N   0  0  0  0  0  0  0  0  0  0  0  0
   41.1520   34.6830   39.6720 C   0  0  0  0  0  0  0  0  0  0  0  0
   41.0710   35.8300   39.1140 O   0  0  0  0  0  0  0  0  0  0  0  0
   42.1420   33.6380   40.0340 C   0  0  2  0  0  3  0  0  0  0  0  0
   41.1060   33.2510   41.0390 C   0  0  2  0  0  3  0  0  0  0  0  0
   40.5600   31.5130   40.9250 S   0  0  0  0  0  0  0  0  0  0  0  0
   37.8430   31.1060   41.1240 C   0  0  0  0  0  2  0  0  0  0  0  0
   36.9180   31.7060   41.2420 H   0  0  0  0  0  0  0  0  0  0  0  0
   38.7150   31.4740   38.8520 C   0  0  0  0  0  2  0  0  0  0  0  0
   39.6360   31.5830   38.2470 H   0  0  0  0  0  0  0  0  0  0  0  0
  1 17  1  0  0  0  0
  1  2  1  0  0  0  0
  2  9  1  0  0  0  0
  3  2  2  0  0  0  0
  3  7  1  0  0  0  0
  4  3  1  0  0  0  0
  5  6  1  0  0  0  0
  5  4  2  0  0  0  0
  6  1  2  0  0  0  0
  8  5  1  0  0  0  0
  9 10  1  0  0  0  0
  9 13  2  0  0  0  0
 10 11  2  0  0  0  0
 11 12  1  0  0  0  0
 11 15  1  0  0  0  0
 12 16  1  0  0  0  0
 13 12  1  0  0  0  0
 14 10  1  0  0  0  0
 18 17  1  0  0  0  0
 19 18  2  0  0  0  0
 20 21  1  0  0  0  0
 20 27  1  0  0  0  0
 20 28  1  0  0  0  0
 22 21  1  0  0  0  0
 22 26  1  0  0  0  0
 23 25  1  0  0  0  0
 23 22  1  0  0  0  0
 24 23  2  0  0  0  0
 25 18  1  1  0  0  0
 25 26  1  0  0  0  0
 26 27  1  6  0  0  0
 28 29  1  0  0  0  0
 30 20  1  0  0  0  0
 31 30  1  0  0  0  0
M  END
>  <minimizedAffinity>
-6.43170595

>  <minimizedRMSD>
1.02170622

$$$$
