
 OpenBabel03252501413D

 48 53  0  0  1  0  0  0  0  0999 V2000
   44.3470   34.5000   41.7430 C   0  0  0  0  0  0  0  0  0  0  0  0
   44.2000   33.3070   42.2060 O   0  0  0  0  0  0  0  0  0  0  0  0
   45.2260   35.2870   42.5450 N   0  0  0  0  0  0  0  0  0  0  0  0
   45.4940   36.2440   42.3200 H   0  0  0  0  0  0  0  0  0  0  0  0
   45.6530   34.5150   43.6890 C   0  0  0  0  0  0  0  0  0  0  0  0
   45.1610   34.6040   44.9530 C   0  0  0  0  0  0  0  0  0  0  0  0
   45.7070   33.7760   45.8990 C   0  0  0  0  0  0  0  0  0  0  0  0
   46.6960   32.9310   45.5030 N   0  0  0  0  0  0  0  0  0  0  0  0
   47.1600   32.8650   44.2490 C   0  0  0  0  0  0  0  0  0  0  0  0
   46.6320   33.6770   43.2990 N   0  0  0  0  0  0  0  0  0  0  0  0
   45.3320   33.8290   46.9100 H   0  0  0  0  0  0  0  0  0  0  0  0
   44.1360   35.5370   45.1820 N   0  0  0  0  0  0  0  0  0  0  0  0
   43.4020   35.0870   45.7680 H   0  0  0  0  0  0  0  0  0  0  0  0
   44.0820   36.5150   44.8430 H   0  0  0  0  0  0  0  0  0  0  0  0
   48.2450   31.8860   43.9830 C   0  0  0  0  0  2  0  0  0  0  0  0
   48.1190   31.3620   42.5750 C   0  0  1  0  0  0  0  0  0  0  0  0
   48.3000   32.3720   41.5270 C   0  0  0  0  0  2  0  0  0  0  0  0
   48.9660   31.8900   40.3980 N   0  0  1  0  0  0  0  0  0  0  0  0
   49.5770   31.8990   39.1360 C   0  0  1  0  0  0  0  0  0  0  0  0
   49.4780   32.4180   37.9950 O   0  0  0  0  0  1  0  0  0  0  0  0
   50.5540   30.9060   39.7180 C   0  0  0  0  0  3  0  0  0  0  0  0
   51.2610   31.3660   40.4280 H   0  0  0  0  0  0  0  0  0  0  0  0
   49.3070   30.4820   40.4160 C   0  0  1  0  0  0  0  0  0  0  0  0
   49.4300   30.1630   42.1960 S   0  0  0  0  0  0  0  0  0  0  0  0
   46.8110   30.6510   42.3830 C   0  0  0  0  0  2  0  0  0  0  0  0
   45.9740   31.3340   42.1200 H   0  0  0  0  0  0  0  0  0  0  0  0
   43.7540   35.0390   40.6010 O   0  0  0  0  0  0  0  0  0  0  0  0
   43.0610   32.4280   39.3610 Cl  0  0  0  0  0  0  0  0  0  0  0  0
   41.9460   33.6820   39.8730 C   0  0  0  0  0  0  0  0  0  0  0  0
   42.3640   34.8800   40.4480 C   0  0  0  0  0  0  0  0  0  0  0  0
   41.4560   35.8210   40.8270 C   0  0  0  0  0  0  0  0  0  0  0  0
   40.0930   35.6620   40.6760 C   0  0  0  0  0  0  0  0  0  0  0  0
   39.6410   34.4570   40.0970 C   0  0  0  0  0  0  0  0  0  0  0  0
   37.9260   34.1650   39.8640 Cl  0  0  0  0  0  0  0  0  0  0  0  0
   40.5920   33.5270   39.7240 C   0  0  0  0  0  0  0  0  0  0  0  0
   41.8160   36.7400   41.2710 H   0  0  0  0  0  0  0  0  0  0  0  0
   39.3890   36.4200   40.9830 H   0  0  0  0  0  0  0  0  0  0  0  0
   40.0180   31.3910   41.3120 F   0  0  0  0  0  0  0  0  0  0  0  0
   39.8490   31.2110   39.9600 C   0  0  0  0  0  0  0  0  0  0  0  0
   40.1320   32.2780   39.1240 C   0  0  0  0  0  0  0  0  0  0  0  0
   39.9470   32.0550   37.7570 C   0  0  0  0  0  0  0  0  0  0  0  0
   39.5040   30.8170   37.3240 C   0  0  0  0  0  0  0  0  0  0  0  0
   39.2350   29.7770   38.2270 C   0  0  0  0  0  0  0  0  0  0  0  0
   39.4080   29.9630   39.5930 C   0  0  0  0  0  0  0  0  0  0  0  0
   40.1660   32.8820   37.1120 H   0  0  0  0  0  0  0  0  0  0  0  0
   39.3750   30.6910   36.2530 H   0  0  0  0  0  0  0  0  0  0  0  0
   38.8880   28.8150   37.8590 H   0  0  0  0  0  0  0  0  0  0  0  0
   39.2100   29.1910   40.2940 H   0  0  0  0  0  0  0  0  0  0  0  0
  1  2  2  0  0  0  0
  1  3  1  0  0  0  0
  3  5  1  0  0  0  0
  4  3  1  0  0  0  0
  5  6  1  0  0  0  0
  6 12  1  0  0  0  0
  6  7  2  0  0  0  0
  7 11  1  0  0  0  0
  8  7  1  0  0  0  0
  9  8  2  0  0  0  0
 10  5  2  0  0  0  0
 10  9  1  0  0  0  0
 12 13  1  0  0  0  0
 14 12  1  0  0  0  0
 15  9  1  0  0  0  0
 16 25  1  6  0  0  0
 16 15  1  0  0  0  0
 17 16  1  0  0  0  0
 18 23  1  0  0  0  0
 18 17  1  1  0  0  0
 19 20  1  6  0  0  0
 19 21  1  0  0  0  0
 19 18  1  0  0  0  0
 19 23  1  0  0  0  0
 21 22  1  0  0  0  0
 23 21  1  1  0  0  0
 23 24  1  0  0  0  0
 24 16  1  0  0  0  0
 26 25  1  0  0  0  0
 27  1  1  0  0  0  0
 28 29  1  0  0  0  0
 29 30  1  0  0  0  0
 30 27  1  0  0  0  0
 30 31  2  0  0  0  0
 31 36  1  0  0  0  0
 32 31  1  0  0  0  0
 32 37  1  0  0  0  0
 33 32  2  0  0  0  0
 34 33  1  0  0  0  0
 35 29  2  0  0  0  0
 35 33  1  0  0  0  0
 39 38  1  0  0  0  0
 40 35  1  0  0  0  0
 40 39  2  0  0  0  0
 41 40  1  0  0  0  0
 42 41  2  0  0  0  0
 42 43  1  0  0  0  0
 43 44  2  0  0  0  0
 44 39  1  0  0  0  0
 44 48  1  0  0  0  0
 45 41  1  0  0  0  0
 46 42  1  0  0  0  0
 47 43  1  0  0  0  0
M  END
>  <minimizedAffinity>
-6.49645042

>  <minimizedRMSD>
0.803830028

$$$$
