
 OpenBabel03242520593D

 44 47  0  0  1  0  0  0  0  0999 V2000
   37.1850   28.6580   39.3490 C   0  0  0  0  0  0  0  0  0  0  0  0
   36.8360   27.8750   40.4490 C   0  0  0  0  0  0  0  0  0  0  0  0
   36.6350   28.5340   41.6810 C   0  0  0  0  0  0  0  0  0  0  0  0
   36.8000   29.8730   41.7130 N   0  0  0  0  0  0  0  0  0  0  0  0
   37.1410   30.5910   40.6250 C   0  0  0  0  0  0  0  0  0  0  0  0
   37.3370   29.9830   39.4220 N   0  0  0  0  0  0  0  0  0  0  0  0
   37.3520   28.2870   38.3840 H   0  0  0  0  0  0  0  0  0  0  0  0
   37.3360   32.0320   40.7210 C   0  0  0  0  0  3  0  0  0  0  0  0
   37.8620   32.7440   39.7390 C   0  0  0  0  0  3  0  0  0  0  0  0
   38.0410   34.2170   39.9050 C   0  0  0  0  0  0  0  0  0  0  0  0
   37.0600   34.6510   40.1770 H   0  0  0  0  0  0  0  0  0  0  0  0
   38.2580   34.5780   38.8910 H   0  0  0  0  0  0  0  0  0  0  0  0
   40.2450   34.8060   40.3780 C   0  0  0  0  0  0  0  0  0  0  0  0
   40.7290   34.8580   39.2120 O   0  0  0  0  0  0  0  0  0  0  0  0
   38.9900   34.5330   40.9130 N   0  0  0  0  0  0  0  0  0  0  0  0
   38.8480   34.5810   41.9230 H   0  0  0  0  0  0  0  0  0  0  0  0
   42.6240   32.9050   40.5140 Cl  0  0  0  0  0  0  0  0  0  0  0  0
   42.6120   34.4360   41.3460 C   0  0  0  0  0  0  0  0  0  0  0  0
   41.4510   35.1330   41.1570 C   0  0  0  0  0  0  0  0  0  0  0  0
   41.2750   36.3860   41.7630 C   0  0  0  0  0  0  0  0  0  0  0  0
   42.2560   36.9440   42.5580 C   0  0  0  0  0  0  0  0  0  0  0  0
   43.4250   36.2240   42.7380 C   0  0  0  0  0  0  0  0  0  0  0  0
   44.7410   36.8330   43.7170 Cl  0  0  0  0  0  0  0  0  0  0  0  0
   43.5890   34.9980   42.1400 C   0  0  0  0  0  0  0  0  0  0  0  0
   40.4070   37.0270   41.6970 H   0  0  0  0  0  0  0  0  0  0  0  0
   42.1900   37.8950   43.0570 H   0  0  0  0  0  0  0  0  0  0  0  0
   44.4820   34.3780   42.2310 H   0  0  0  0  0  0  0  0  0  0  0  0
   36.2750   27.8940   42.8350 O   0  0  0  0  0  0  0  0  0  0  0  0
   37.2110   28.0050   43.9370 C   0  0  0  0  0  0  0  0  0  0  0  0
   36.5210   27.9260   45.1510 F   0  0  0  0  0  0  0  0  0  0  0  0
   38.0750   26.9120   43.8850 F   0  0  0  0  0  0  0  0  0  0  0  0
   37.9700   29.1690   43.8740 F   0  0  0  0  0  0  0  0  0  0  0  0
   36.8340   26.4220   40.4180 C   0  0  0  0  0  2  0  0  0  0  0  0
   38.0570   25.6250   40.1650 C   0  0  1  0  0  0  0  0  0  0  0  0
   39.3660   26.3080   40.1200 C   0  0  0  0  0  2  0  0  0  0  0  0
   40.0990   26.1070   41.3410 N   0  0  0  0  0  0  0  0  0  0  0  0
   40.8990   26.3410   42.4970 C   0  0  0  0  0  0  0  0  0  0  0  0
   41.6950   27.2470   42.8790 O   0  0  0  0  0  0  0  0  0  0  0  0
   40.4840   25.0850   43.1770 C   0  0  0  0  0  3  0  0  0  0  0  0
   39.6580   25.2850   43.8710 H   0  0  0  0  0  0  0  0  0  0  0  0
   40.0510   24.7040   41.7910 C   0  0  1  0  0  3  0  0  0  0  0  0
   38.2400   24.4660   41.5820 S   0  0  0  0  0  0  0  0  0  0  0  0
   37.8400   24.7360   38.9350 C   0  0  0  0  0  2  0  0  0  0  0  0
   38.4010   23.7420   39.1120 H   0  0  0  0  0  0  0  0  0  0  0  0
  1  6  2  0  0  0  0
  1  2  1  0  0  0  0
  2  3  2  0  0  0  0
  3  4  1  0  0  0  0
  3 28  1  0  0  0  0
  5  8  1  0  0  0  0
  5  4  2  0  0  0  0
  6  5  1  0  0  0  0
  7  1  1  0  0  0  0
  9 10  1  0  0  0  0
  9  8  2  0  0  0  0
 10 11  1  0  0  0  0
 10 15  1  0  0  0  0
 12 10  1  0  0  0  0
 13 15  1  0  0  0  0
 13 19  1  0  0  0  0
 14 13  2  0  0  0  0
 15 16  1  0  0  0  0
 17 18  1  0  0  0  0
 18 24  1  0  0  0  0
 19 18  2  0  0  0  0
 19 20  1  0  0  0  0
 20 21  2  0  0  0  0
 21 22  1  0  0  0  0
 21 26  1  0  0  0  0
 22 23  1  0  0  0  0
 24 27  1  0  0  0  0
 24 22  2  0  0  0  0
 25 20  1  0  0  0  0
 28 29  1  0  0  0  0
 29 30  1  0  0  0  0
 31 29  1  0  0  0  0
 32 29  1  0  0  0  0
 33  2  1  0  0  0  0
 34 43  1  6  0  0  0
 34 33  1  0  0  0  0
 34 42  1  0  0  0  0
 35 34  1  0  0  0  0
 35 36  1  0  0  0  0
 36 41  1  0  0  0  0
 36 37  1  0  0  0  0
 37 38  2  0  0  0  0
 37 39  1  0  0  0  0
 39 40  1  0  0  0  0
 41 42  1  1  0  0  0
 41 39  1  0  0  0  0
 43 44  1  0  0  0  0
M  END
>  <minimizedAffinity>
-7.62656116

$$$$

 OpenBabel03242520593D

 44 47  0  0  1  0  0  0  0  0999 V2000
   36.8910   29.1720   38.8530 C   0  0  0  0  0  0  0  0  0  0  0  0
   36.5700   28.2810   39.8760 C   0  0  0  0  0  0  0  0  0  0  0  0
   36.5250   28.7900   41.1930 C   0  0  0  0  0  0  0  0  0  0  0  0
   36.8000   30.0990   41.3720 N   0  0  0  0  0  0  0  0  0  0  0  0
   37.1090   30.9240   40.3530 C   0  0  0  0  0  0  0  0  0  0  0  0
   37.1560   30.4630   39.0720 N   0  0  0  0  0  0  0  0  0  0  0  0
   36.9470   28.9170   37.8390 H   0  0  0  0  0  0  0  0  0  0  0  0
   37.4280   32.3240   40.6050 C   0  0  0  0  0  3  0  0  0  0  0  0
   37.7600   33.1610   39.6370 C   0  0  0  0  0  3  0  0  0  0  0  0
   38.0830   34.5820   39.9640 C   0  0  0  0  0  0  0  0  0  0  0  0
   37.1510   35.0730   40.3060 H   0  0  0  0  0  0  0  0  0  0  0  0
   38.3220   35.0350   38.9940 H   0  0  0  0  0  0  0  0  0  0  0  0
   40.2720   35.1860   40.4870 C   0  0  0  0  0  0  0  0  0  0  0  0
   40.6810   35.5820   39.3590 O   0  0  0  0  0  0  0  0  0  0  0  0
   39.0690   34.6890   40.9800 N   0  0  0  0  0  0  0  0  0  0  0  0
   38.9850   34.4560   41.9700 H   0  0  0  0  0  0  0  0  0  0  0  0
   42.6150   33.2460   40.3060 Cl  0  0  0  0  0  0  0  0  0  0  0  0
   42.6510   34.6480   41.3390 C   0  0  0  0  0  0  0  0  0  0  0  0
   41.4990   35.3840   41.2740 C   0  0  0  0  0  0  0  0  0  0  0  0
   41.3610   36.5450   42.0500 C   0  0  0  0  0  0  0  0  0  0  0  0
   42.3690   36.9720   42.8900 C   0  0  0  0  0  0  0  0  0  0  0  0
   43.5280   36.2160   42.9430 C   0  0  0  0  0  0  0  0  0  0  0  0
   44.8760   36.6630   43.9640 Cl  0  0  0  0  0  0  0  0  0  0  0  0
   43.6550   35.0800   42.1790 C   0  0  0  0  0  0  0  0  0  0  0  0
   40.5040   37.2030   42.0920 H   0  0  0  0  0  0  0  0  0  0  0  0
   42.3330   37.8480   43.5150 H   0  0  0  0  0  0  0  0  0  0  0  0
   44.5370   34.4380   42.1630 H   0  0  0  0  0  0  0  0  0  0  0  0
   36.2100   28.0340   42.2890 O   0  0  0  0  0  0  0  0  0  0  0  0
   37.3100   27.7300   43.1820 C   0  0  0  0  0  0  0  0  0  0  0  0
   38.4180   28.5170   42.8520 F   0  0  0  0  0  0  0  0  0  0  0  0
   36.9290   28.0840   44.4760 F   0  0  0  0  0  0  0  0  0  0  0  0
   37.6420   26.3800   43.1760 F   0  0  0  0  0  0  0  0  0  0  0  0
   36.4470   26.8490   39.6700 C   0  0  0  0  0  2  0  0  0  0  0  0
   37.6190   25.9420   39.6290 C   0  0  1  0  0  0  0  0  0  0  0  0
   37.5480   24.6410   40.3240 C   0  0  0  0  0  2  0  0  0  0  0  0
   37.3240   23.5670   39.3950 N   0  0  0  0  0  0  0  0  0  0  0  0
   36.8130   22.3830   38.7870 C   0  0  0  0  0  0  0  0  0  0  0  0
   36.1730   21.3660   39.1820 O   0  0  0  0  0  0  0  0  0  0  0  0
   37.3100   22.7320   37.4290 C   0  0  0  0  0  3  0  0  0  0  0  0
   36.5140   23.2140   36.8470 H   0  0  0  0  0  0  0  0  0  0  0  0
   38.1780   23.6830   38.1990 C   0  0  1  0  0  3  0  0  0  0  0  0
   37.8600   25.4630   37.8700 S   0  0  0  0  0  0  0  0  0  0  0  0
   38.8800   26.7230   40.0180 C   0  0  0  0  0  2  0  0  0  0  0  0
   39.7600   26.3070   39.3960 H   0  0  0  0  0  0  0  0  0  0  0  0
  1  6  2  0  0  0  0
  1  2  1  0  0  0  0
  2  3  2  0  0  0  0
  3  4  1  0  0  0  0
  3 28  1  0  0  0  0
  5  8  1  0  0  0  0
  5  4  2  0  0  0  0
  6  5  1  0  0  0  0
  7  1  1  0  0  0  0
  9 10  1  0  0  0  0
  9  8  2  0  0  0  0
 10 11  1  0  0  0  0
 10 15  1  0  0  0  0
 12 10  1  0  0  0  0
 13 15  1  0  0  0  0
 13 19  1  0  0  0  0
 14 13  2  0  0  0  0
 15 16  1  0  0  0  0
 17 18  1  0  0  0  0
 18 24  1  0  0  0  0
 19 18  2  0  0  0  0
 19 20  1  0  0  0  0
 20 25  1  0  0  0  0
 20 21  2  0  0  0  0
 21 22  1  0  0  0  0
 21 26  1  0  0  0  0
 22 23  1  0  0  0  0
 24 22  2  0  0  0  0
 27 24  1  0  0  0  0
 28 29  1  0  0  0  0
 29 31  1  0  0  0  0
 30 29  1  0  0  0  0
 32 29  1  0  0  0  0
 33  2  1  0  0  0  0
 34 33  1  1  0  0  0
 34 43  1  0  0  0  0
 34 35  1  0  0  0  0
 36 35  1  0  0  0  0
 37 38  2  0  0  0  0
 37 36  1  0  0  0  0
 39 37  1  0  0  0  0
 40 39  1  0  0  0  0
 41 39  1  6  0  0  0
 41 36  1  0  0  0  0
 42 41  1  0  0  0  0
 42 34  1  0  0  0  0
 44 43  1  0  0  0  0
M  END
>  <minimizedAffinity>
-7.04662609

$$$$

 OpenBabel03242520593D

 44 47  0  0  1  0  0  0  0  0999 V2000
   38.2120   28.1080   39.1970 C   0  0  0  0  0  0  0  0  0  0  0  0
   37.4820   27.5620   40.2510 C   0  0  0  0  0  0  0  0  0  0  0  0
   37.0850   28.4340   41.2890 C   0  0  0  0  0  0  0  0  0  0  0  0
   37.4450   29.7310   41.1940 N   0  0  0  0  0  0  0  0  0  0  0  0
   38.1550   30.2160   40.1570 C   0  0  0  0  0  0  0  0  0  0  0  0
   38.5470   29.4000   39.1390 N   0  0  0  0  0  0  0  0  0  0  0  0
   38.5550   27.5670   38.3680 H   0  0  0  0  0  0  0  0  0  0  0  0
   38.5430   31.6200   40.1180 C   0  0  0  0  0  3  0  0  0  0  0  0
   37.6580   32.6010   40.1450 C   0  0  0  0  0  3  0  0  0  0  0  0
   38.1220   34.0200   40.0950 C   0  0  0  0  0  0  0  0  0  0  0  0
   37.2430   34.6730   40.2630 H   0  0  0  0  0  0  0  0  0  0  0  0
   38.4120   34.1720   39.0470 H   0  0  0  0  0  0  0  0  0  0  0  0
   40.2880   34.7680   40.5130 C   0  0  0  0  0  0  0  0  0  0  0  0
   40.6780   35.0240   39.3380 O   0  0  0  0  0  0  0  0  0  0  0  0
   39.1070   34.2990   41.0780 N   0  0  0  0  0  0  0  0  0  0  0  0
   39.0350   34.1980   42.0920 H   0  0  0  0  0  0  0  0  0  0  0  0
   42.6540   32.8540   40.6780 Cl  0  0  0  0  0  0  0  0  0  0  0  0
   42.6700   34.4150   41.4500 C   0  0  0  0  0  0  0  0  0  0  0  0
   41.5110   35.1150   41.2560 C   0  0  0  0  0  0  0  0  0  0  0  0
   41.3560   36.3920   41.8170 C   0  0  0  0  0  0  0  0  0  0  0  0
   42.3570   36.9710   42.5710 C   0  0  0  0  0  0  0  0  0  0  0  0
   43.5230   36.2480   42.7570 C   0  0  0  0  0  0  0  0  0  0  0  0
   44.8620   36.8830   43.6870 Cl  0  0  0  0  0  0  0  0  0  0  0  0
   43.6660   34.9990   42.2040 C   0  0  0  0  0  0  0  0  0  0  0  0
   40.4920   37.0370   41.7410 H   0  0  0  0  0  0  0  0  0  0  0  0
   42.3080   37.9410   43.0340 H   0  0  0  0  0  0  0  0  0  0  0  0
   44.5550   34.3740   42.3020 H   0  0  0  0  0  0  0  0  0  0  0  0
   36.3530   28.0380   42.3750 O   0  0  0  0  0  0  0  0  0  0  0  0
   37.0890   27.8990   43.6160 C   0  0  0  0  0  0  0  0  0  0  0  0
   37.7090   29.1110   43.9350 F   0  0  0  0  0  0  0  0  0  0  0  0
   36.1770   27.6250   44.6340 F   0  0  0  0  0  0  0  0  0  0  0  0
   38.0180   26.8650   43.5690 F   0  0  0  0  0  0  0  0  0  0  0  0
   37.2590   26.1350   40.4060 C   0  0  0  0  0  2  0  0  0  0  0  0
   38.3670   25.1500   40.4280 C   0  0  1  0  0  0  0  0  0  0  0  0
   38.7870   24.5100   39.1650 C   0  0  0  0  0  2  0  0  0  0  0  0
   39.9970   25.1000   38.6610 N   0  0  0  0  0  0  0  0  0  0  0  0
   40.9670   25.6640   37.7830 C   0  0  0  0  0  0  0  0  0  0  0  0
   41.1520   25.6870   36.5320 O   0  0  0  0  0  0  0  0  0  0  0  0
   41.7720   26.2680   38.8790 C   0  0  0  0  0  3  0  0  0  0  0  0
   41.4880   27.3170   39.0250 H   0  0  0  0  0  0  0  0  0  0  0  0
   41.0020   25.2940   39.7220 C   0  0  1  0  0  3  0  0  0  0  0  0
   39.8760   26.0590   40.9580 S   0  0  0  0  0  0  0  0  0  0  0  0
   38.1050   24.1150   41.5280 C   0  0  0  0  0  2  0  0  0  0  0  0
   39.1240   23.8140   41.9820 H   0  0  0  0  0  0  0  0  0  0  0  0
  1  2  1  0  0  0  0
  2 33  1  0  0  0  0
  2  3  2  0  0  0  0
  3 28  1  0  0  0  0
  4  3  1  0  0  0  0
  5  4  2  0  0  0  0
  6  1  2  0  0  0  0
  6  5  1  0  0  0  0
  7  1  1  0  0  0  0
  8  9  2  0  0  0  0
  8  5  1  0  0  0  0
 10  9  1  0  0  0  0
 10 11  1  0  0  0  0
 10 15  1  0  0  0  0
 12 10  1  0  0  0  0
 13 15  1  0  0  0  0
 13 19  1  0  0  0  0
 14 13  2  0  0  0  0
 15 16  1  0  0  0  0
 17 18  1  0  0  0  0
 18 24  1  0  0  0  0
 19 18  2  0  0  0  0
 19 20  1  0  0  0  0
 20 21  2  0  0  0  0
 21 22  1  0  0  0  0
 21 26  1  0  0  0  0
 22 23  1  0  0  0  0
 24 27  1  0  0  0  0
 24 22  2  0  0  0  0
 25 20  1  0  0  0  0
 28 29  1  0  0  0  0
 29 30  1  0  0  0  0
 29 31  1  0  0  0  0
 32 29  1  0  0  0  0
 34 33  1  6  0  0  0
 34 42  1  0  0  0  0
 34 43  1  0  0  0  0
 35 34  1  0  0  0  0
 36 35  1  0  0  0  0
 36 41  1  0  0  0  0
 37 36  1  0  0  0  0
 37 39  1  0  0  0  0
 38 37  2  0  0  0  0
 39 40  1  0  0  0  0
 41 39  1  6  0  0  0
 41 42  1  0  0  0  0
 43 44  1  0  0  0  0
M  END
>  <minimizedAffinity>
-7.0287528

$$$$

 OpenBabel03242520593D

 44 47  0  0  1  0  0  0  0  0999 V2000
   35.9610   28.8470   39.6120 C   0  0  0  0  0  0  0  0  0  0  0  0
   36.6570   27.9310   40.3990 C   0  0  0  0  0  0  0  0  0  0  0  0
   37.5760   28.4450   41.3400 C   0  0  0  0  0  0  0  0  0  0  0  0
   37.7240   29.7850   41.4070 N   0  0  0  0  0  0  0  0  0  0  0  0
   37.0330   30.6340   40.6230 C   0  0  0  0  0  0  0  0  0  0  0  0
   36.1360   30.1680   39.7100 N   0  0  0  0  0  0  0  0  0  0  0  0
   35.2500   28.5890   38.8880 H   0  0  0  0  0  0  0  0  0  0  0  0
   37.2530   32.0720   40.7160 C   0  0  0  0  0  3  0  0  0  0  0  0
   37.8480   32.7620   39.7570 C   0  0  0  0  0  3  0  0  0  0  0  0
   38.0490   34.2330   39.9180 C   0  0  0  0  0  0  0  0  0  0  0  0
   37.0710   34.6850   40.1750 H   0  0  0  0  0  0  0  0  0  0  0  0
   38.2860   34.5860   38.9060 H   0  0  0  0  0  0  0  0  0  0  0  0
   40.2460   34.8290   40.4170 C   0  0  0  0  0  0  0  0  0  0  0  0
   40.7360   34.9060   39.2540 O   0  0  0  0  0  0  0  0  0  0  0  0
   38.9890   34.5380   40.9380 N   0  0  0  0  0  0  0  0  0  0  0  0
   38.8400   34.5670   41.9470 H   0  0  0  0  0  0  0  0  0  0  0  0
   42.6080   32.9120   40.5920 Cl  0  0  0  0  0  0  0  0  0  0  0  0
   42.5970   34.4470   41.4160 C   0  0  0  0  0  0  0  0  0  0  0  0
   41.4440   35.1520   41.2090 C   0  0  0  0  0  0  0  0  0  0  0  0
   41.2700   36.4090   41.8070 C   0  0  0  0  0  0  0  0  0  0  0  0
   42.2450   36.9630   42.6110 C   0  0  0  0  0  0  0  0  0  0  0  0
   43.4070   36.2360   42.8090 C   0  0  0  0  0  0  0  0  0  0  0  0
   44.7150   36.8400   43.8010 Cl  0  0  0  0  0  0  0  0  0  0  0  0
   43.5680   35.0050   42.2190 C   0  0  0  0  0  0  0  0  0  0  0  0
   40.4070   37.0560   41.7260 H   0  0  0  0  0  0  0  0  0  0  0  0
   42.1800   37.9180   43.1040 H   0  0  0  0  0  0  0  0  0  0  0  0
   44.4560   34.3790   42.3240 H   0  0  0  0  0  0  0  0  0  0  0  0
   38.3130   27.6640   42.1870 O   0  0  0  0  0  0  0  0  0  0  0  0
   37.8140   27.5570   43.5430 C   0  0  0  0  0  0  0  0  0  0  0  0
   38.7200   26.8330   44.3230 F   0  0  0  0  0  0  0  0  0  0  0  0
   37.7450   28.8410   44.0830 F   0  0  0  0  0  0  0  0  0  0  0  0
   36.5460   26.9880   43.6000 F   0  0  0  0  0  0  0  0  0  0  0  0
   36.5980   26.4950   40.1840 C   0  0  0  0  0  2  0  0  0  0  0  0
   37.1940   25.8400   38.9960 C   0  0  1  0  0  0  0  0  0  0  0  0
   36.3810   25.6880   37.7720 C   0  0  0  0  0  2  0  0  0  0  0  0
   36.7420   26.6680   36.7830 N   0  0  0  0  0  0  0  0  0  0  0  0
   36.6600   27.6670   35.7710 C   0  0  0  0  0  0  0  0  0  0  0  0
   35.7700   28.0740   34.9700 O   0  0  0  0  0  0  0  0  0  0  0  0
   38.0640   28.1250   35.9520 C   0  0  0  0  0  3  0  0  0  0  0  0
   38.0960   28.9940   36.6210 H   0  0  0  0  0  0  0  0  0  0  0  0
   38.2040   26.8030   36.6470 C   0  0  1  0  0  3  0  0  0  0  0  0
   38.5860   26.9070   38.4420 S   0  0  0  0  0  0  0  0  0  0  0  0
   37.8370   24.5120   39.4160 C   0  0  0  0  0  2  0  0  0  0  0  0
   38.7810   24.3560   38.7690 H   0  0  0  0  0  0  0  0  0  0  0  0
  1  6  2  0  0  0  0
  1  2  1  0  0  0  0
  2  3  2  0  0  0  0
  3  4  1  0  0  0  0
  3 28  1  0  0  0  0
  5  8  1  0  0  0  0
  5  4  2  0  0  0  0
  6  5  1  0  0  0  0
  7  1  1  0  0  0  0
  9 10  1  0  0  0  0
  9  8  2  0  0  0  0
 10 11  1  0  0  0  0
 10 15  1  0  0  0  0
 12 10  1  0  0  0  0
 13 15  1  0  0  0  0
 13 19  1  0  0  0  0
 14 13  2  0  0  0  0
 15 16  1  0  0  0  0
 17 18  1  0  0  0  0
 18 24  1  0  0  0  0
 19 18  2  0  0  0  0
 19 20  1  0  0  0  0
 20 21  2  0  0  0  0
 21 22  1  0  0  0  0
 21 26  1  0  0  0  0
 22 23  1  0  0  0  0
 24 27  1  0  0  0  0
 24 22  2  0  0  0  0
 25 20  1  0  0  0  0
 28 29  1  0  0  0  0
 29 32  1  0  0  0  0
 29 31  1  0  0  0  0
 29 30  1  0  0  0  0
 33  2  1  0  0  0  0
 34 43  1  1  0  0  0
 34 33  1  0  0  0  0
 35 34  1  0  0  0  0
 36 35  1  0  0  0  0
 37 39  1  0  0  0  0
 37 36  1  0  0  0  0
 38 37  2  0  0  0  0
 39 40  1  0  0  0  0
 41 39  1  6  0  0  0
 41 36  1  0  0  0  0
 41 42  1  0  0  0  0
 42 34  1  0  0  0  0
 44 43  1  0  0  0  0
M  END
>  <minimizedAffinity>
-7.0137229

$$$$

 OpenBabel03242520593D

 44 47  0  0  1  0  0  0  0  0999 V2000
   36.4440   29.9210   38.3570 C   0  0  0  0  0  0  0  0  0  0  0  0
   36.0590   28.9160   39.2430 C   0  0  0  0  0  0  0  0  0  0  0  0
   36.1720   29.1860   40.6250 C   0  0  0  0  0  0  0  0  0  0  0  0
   36.6500   30.3930   40.9930 N   0  0  0  0  0  0  0  0  0  0  0  0
   37.0150   31.3350   40.1020 C   0  0  0  0  0  0  0  0  0  0  0  0
   36.9130   31.1050   38.7630 N   0  0  0  0  0  0  0  0  0  0  0  0
   36.3990   29.8440   37.3140 H   0  0  0  0  0  0  0  0  0  0  0  0
   37.5550   32.6120   40.5540 C   0  0  0  0  0  3  0  0  0  0  0  0
   38.0720   33.4980   39.7200 C   0  0  0  0  0  3  0  0  0  0  0  0
   38.6150   34.7850   40.2490 C   0  0  0  0  0  0  0  0  0  0  0  0
   37.8320   35.2520   40.8780 H   0  0  0  0  0  0  0  0  0  0  0  0
   38.7080   35.4240   39.3610 H   0  0  0  0  0  0  0  0  0  0  0  0
   40.8950   35.2150   40.4560 C   0  0  0  0  0  0  0  0  0  0  0  0
   41.0930   35.9230   39.4280 O   0  0  0  0  0  0  0  0  0  0  0  0
   39.7880   34.5940   41.0250 N   0  0  0  0  0  0  0  0  0  0  0  0
   39.8900   34.0830   41.9030 H   0  0  0  0  0  0  0  0  0  0  0  0
   42.9980   33.3100   39.3430 Cl  0  0  0  0  0  0  0  0  0  0  0  0
   43.3450   34.4160   40.6440 C   0  0  0  0  0  0  0  0  0  0  0  0
   42.2650   35.1780   40.9940 C   0  0  0  0  0  0  0  0  0  0  0  0
   42.3720   36.1180   42.0310 C   0  0  0  0  0  0  0  0  0  0  0  0
   43.5550   36.2970   42.7180 C   0  0  0  0  0  0  0  0  0  0  0  0
   44.6390   35.5170   42.3500 C   0  0  0  0  0  0  0  0  0  0  0  0
   46.1910   35.6610   43.1440 Cl  0  0  0  0  0  0  0  0  0  0  0  0
   44.5240   34.5990   41.3340 C   0  0  0  0  0  0  0  0  0  0  0  0
   41.5940   36.7710   42.4030 H   0  0  0  0  0  0  0  0  0  0  0  0
   43.7100   36.9930   43.5240 H   0  0  0  0  0  0  0  0  0  0  0  0
   45.3330   33.9550   40.9850 H   0  0  0  0  0  0  0  0  0  0  0  0
   35.8170   28.2990   41.6030 O   0  0  0  0  0  0  0  0  0  0  0  0
   36.9010   27.7930   42.4200 C   0  0  0  0  0  0  0  0  0  0  0  0
   36.7160   26.4260   42.6550 F   0  0  0  0  0  0  0  0  0  0  0  0
   38.0870   27.9270   41.7000 F   0  0  0  0  0  0  0  0  0  0  0  0
   37.0340   28.4870   43.6180 F   0  0  0  0  0  0  0  0  0  0  0  0
   35.7100   27.5730   38.8140 C   0  0  0  0  0  2  0  0  0  0  0  0
   36.7010   26.6350   38.2370 C   0  0  1  0  0  0  0  0  0  0  0  0
   38.0710   26.6030   38.7890 C   0  0  0  0  0  2  0  0  0  0  0  0
   38.2560   25.4690   39.6540 N   0  0  0  0  0  0  0  0  0  0  0  0
   38.6340   24.6540   40.7610 C   0  0  0  0  0  0  0  0  0  0  0  0
   39.4470   24.7560   41.7240 O   0  0  0  0  0  0  0  0  0  0  0  0
   37.7040   23.5480   40.4070 C   0  0  0  0  0  3  0  0  0  0  0  0
   36.7670   23.6460   40.9700 H   0  0  0  0  0  0  0  0  0  0  0  0
   37.7010   24.2330   39.0720 C   0  0  1  0  0  3  0  0  0  0  0  0
   36.0790   24.9350   38.5650 S   0  0  0  0  0  0  0  0  0  0  0  0
   36.7110   26.7790   36.7100 C   0  0  0  0  0  2  0  0  0  0  0  0
   36.9040   25.7350   36.2560 H   0  0  0  0  0  0  0  0  0  0  0  0
  1  6  2  0  0  0  0
  1  2  1  0  0  0  0
  2  3  2  0  0  0  0
  3  4  1  0  0  0  0
  3 28  1  0  0  0  0
  5  8  1  0  0  0  0
  5  4  2  0  0  0  0
  6  5  1  0  0  0  0
  7  1  1  0  0  0  0
  9 10  1  0  0  0  0
  9  8  2  0  0  0  0
 10 11  1  0  0  0  0
 10 15  1  0  0  0  0
 12 10  1  0  0  0  0
 13 19  1  0  0  0  0
 13 15  1  0  0  0  0
 14 13  2  0  0  0  0
 15 16  1  0  0  0  0
 17 18  1  0  0  0  0
 18 19  2  0  0  0  0
 18 24  1  0  0  0  0
 19 20  1  0  0  0  0
 20 25  1  0  0  0  0
 20 21  2  0  0  0  0
 21 26  1  0  0  0  0
 22 21  1  0  0  0  0
 22 23  1  0  0  0  0
 24 22  2  0  0  0  0
 27 24  1  0  0  0  0
 28 29  1  0  0  0  0
 29 30  1  0  0  0  0
 29 32  1  0  0  0  0
 31 29  1  0  0  0  0
 33  2  1  0  0  0  0
 34 43  1  6  0  0  0
 34 42  1  0  0  0  0
 34 35  1  0  0  0  0
 34 33  1  0  0  0  0
 35 36  1  0  0  0  0
 36 37  1  0  0  0  0
 37 38  2  0  0  0  0
 39 37  1  0  0  0  0
 39 40  1  0  0  0  0
 41 42  1  1  0  0  0
 41 36  1  0  0  0  0
 41 39  1  0  0  0  0
 44 43  1  0  0  0  0
M  END
>  <minimizedAffinity>
-6.97407055

$$$$

 OpenBabel03242520593D

 44 47  0  0  1  0  0  0  0  0999 V2000
   37.6630   28.0540   38.9890 C   0  0  0  0  0  0  0  0  0  0  0  0
   37.0090   27.5640   40.1180 C   0  0  0  0  0  0  0  0  0  0  0  0
   36.8900   28.4290   41.2290 C   0  0  0  0  0  0  0  0  0  0  0  0
   37.4220   29.6640   41.1230 N   0  0  0  0  0  0  0  0  0  0  0  0
   38.0490   30.0960   40.0120 C   0  0  0  0  0  0  0  0  0  0  0  0
   38.1750   29.2860   38.9240 N   0  0  0  0  0  0  0  0  0  0  0  0
   37.8060   27.5130   38.1030 H   0  0  0  0  0  0  0  0  0  0  0  0
   38.6330   31.4310   39.9630 C   0  0  0  0  0  3  0  0  0  0  0  0
   37.9450   32.5170   40.2730 C   0  0  0  0  0  3  0  0  0  0  0  0
   38.6010   33.8570   40.1940 C   0  0  0  0  0  0  0  0  0  0  0  0
   37.8380   34.6240   40.4300 H   0  0  0  0  0  0  0  0  0  0  0  0
   38.8320   33.9810   39.1280 H   0  0  0  0  0  0  0  0  0  0  0  0
   40.8690   34.3200   40.4560 C   0  0  0  0  0  0  0  0  0  0  0  0
   41.1970   34.5660   39.2610 O   0  0  0  0  0  0  0  0  0  0  0  0
   39.6850   33.9790   41.1020 N   0  0  0  0  0  0  0  0  0  0  0  0
   39.6790   33.8530   42.1160 H   0  0  0  0  0  0  0  0  0  0  0  0
   41.6160   36.9010   41.8940 Cl  0  0  0  0  0  0  0  0  0  0  0  0
   42.7050   35.5450   41.7980 C   0  0  0  0  0  0  0  0  0  0  0  0
   42.1780   34.4890   41.1080 C   0  0  0  0  0  0  0  0  0  0  0  0
   42.9280   33.3160   40.9340 C   0  0  0  0  0  0  0  0  0  0  0  0
   44.2040   33.1970   41.4470 C   0  0  0  0  0  0  0  0  0  0  0  0
   44.7220   34.2760   42.1430 C   0  0  0  0  0  0  0  0  0  0  0  0
   46.3240   34.2380   42.8450 Cl  0  0  0  0  0  0  0  0  0  0  0  0
   43.9800   35.4200   42.3090 C   0  0  0  0  0  0  0  0  0  0  0  0
   42.6280   32.4220   40.4060 H   0  0  0  0  0  0  0  0  0  0  0  0
   44.8380   32.3330   41.3490 H   0  0  0  0  0  0  0  0  0  0  0  0
   44.3180   36.3060   42.8490 H   0  0  0  0  0  0  0  0  0  0  0  0
   36.2610   28.0860   42.3940 O   0  0  0  0  0  0  0  0  0  0  0  0
   37.1090   28.0000   43.5660 C   0  0  0  0  0  0  0  0  0  0  0  0
   37.5740   29.2740   43.9070 F   0  0  0  0  0  0  0  0  0  0  0  0
   36.3300   27.5510   44.6330 F   0  0  0  0  0  0  0  0  0  0  0  0
   38.1680   27.1160   43.3930 F   0  0  0  0  0  0  0  0  0  0  0  0
   36.6000   26.1770   40.2580 C   0  0  0  0  0  2  0  0  0  0  0  0
   37.5560   25.0480   40.1690 C   0  0  1  0  0  0  0  0  0  0  0  0
   38.9900   25.3330   39.9540 C   0  0  0  0  0  2  0  0  0  0  0  0
   39.7350   25.2030   41.1770 N   0  0  0  0  0  0  0  0  0  0  0  0
   40.6500   25.4520   42.2400 C   0  0  0  0  0  0  0  0  0  0  0  0
   41.6770   26.1720   42.4010 O   0  0  0  0  0  0  0  0  0  0  0  0
   39.9770   24.5220   43.1870 C   0  0  0  0  0  3  0  0  0  0  0  0
   39.2840   25.0750   43.8320 H   0  0  0  0  0  0  0  0  0  0  0  0
   39.3600   23.9900   41.9260 C   0  0  1  0  0  3  0  0  0  0  0  0
   37.5390   24.2050   41.8040 S   0  0  0  0  0  0  0  0  0  0  0  0
   37.0290   24.0130   39.1680 C   0  0  0  0  0  2  0  0  0  0  0  0
   37.3270   22.9650   39.5520 H   0  0  0  0  0  0  0  0  0  0  0  0
  1  2  1  0  0  0  0
  2 33  1  0  0  0  0
  2  3  2  0  0  0  0
  3 28  1  0  0  0  0
  4  3  1  0  0  0  0
  5  4  2  0  0  0  0
  6  1  2  0  0  0  0
  6  5  1  0  0  0  0
  7  1  1  0  0  0  0
  8  5  1  0  0  0  0
  8  9  2  0  0  0  0
 10  9  1  0  0  0  0
 10 11  1  0  0  0  0
 10 15  1  0  0  0  0
 12 10  1  0  0  0  0
 13 15  1  0  0  0  0
 13 19  1  0  0  0  0
 14 13  2  0  0  0  0
 15 16  1  0  0  0  0
 18 17  1  0  0  0  0
 18 24  1  0  0  0  0
 19 18  2  0  0  0  0
 20 19  1  0  0  0  0
 20 21  2  0  0  0  0
 21 22  1  0  0  0  0
 22 24  2  0  0  0  0
 22 23  1  0  0  0  0
 24 27  1  0  0  0  0
 25 20  1  0  0  0  0
 26 21  1  0  0  0  0
 28 29  1  0  0  0  0
 29 30  1  0  0  0  0
 29 31  1  0  0  0  0
 32 29  1  0  0  0  0
 34 43  1  6  0  0  0
 34 33  1  0  0  0  0
 34 42  1  0  0  0  0
 35 34  1  0  0  0  0
 35 36  1  0  0  0  0
 36 41  1  0  0  0  0
 36 37  1  0  0  0  0
 37 38  2  0  0  0  0
 37 39  1  0  0  0  0
 39 40  1  0  0  0  0
 41 42  1  1  0  0  0
 41 39  1  0  0  0  0
 43 44  1  0  0  0  0
M  END
>  <minimizedAffinity>
-6.84888363

$$$$

 OpenBabel03242520593D

 44 47  0  0  1  0  0  0  0  0999 V2000
   36.1600   27.2400   39.2100 C   0  0  0  0  0  0  0  0  0  0  0  0
   36.9090   26.7310   40.2700 C   0  0  0  0  0  0  0  0  0  0  0  0
   37.5710   27.6590   41.1050 C   0  0  0  0  0  0  0  0  0  0  0  0
   37.4390   28.9710   40.8160 N   0  0  0  0  0  0  0  0  0  0  0  0
   36.7080   29.4180   39.7770 C   0  0  0  0  0  0  0  0  0  0  0  0
   36.0540   28.5480   38.9580 N   0  0  0  0  0  0  0  0  0  0  0  0
   35.6200   26.6550   38.5300 H   0  0  0  0  0  0  0  0  0  0  0  0
   36.6240   30.8450   39.4910 C   0  0  0  0  0  3  0  0  0  0  0  0
   37.5770   31.6950   39.8370 C   0  0  0  0  0  3  0  0  0  0  0  0
   37.4250   33.1470   39.5200 C   0  0  0  0  0  0  0  0  0  0  0  0
   36.3640   33.4210   39.6790 H   0  0  0  0  0  0  0  0  0  0  0  0
   37.5910   33.2060   38.4370 H   0  0  0  0  0  0  0  0  0  0  0  0
   39.5780   33.9390   39.9290 C   0  0  0  0  0  0  0  0  0  0  0  0
   40.2140   33.3800   38.9910 O   0  0  0  0  0  0  0  0  0  0  0  0
   38.2490   33.9640   40.3390 N   0  0  0  0  0  0  0  0  0  0  0  0
   37.9760   34.5320   41.1420 H   0  0  0  0  0  0  0  0  0  0  0  0
   39.5720   36.9710   40.2330 Cl  0  0  0  0  0  0  0  0  0  0  0  0
   40.8780   35.9830   40.8260 C   0  0  0  0  0  0  0  0  0  0  0  0
   40.6860   34.6500   40.5860 C   0  0  0  0  0  0  0  0  0  0  0  0
   41.6490   33.7150   40.9940 C   0  0  0  0  0  0  0  0  0  0  0  0
   42.8030   34.1070   41.6420 C   0  0  0  0  0  0  0  0  0  0  0  0
   42.9800   35.4600   41.8780 C   0  0  0  0  0  0  0  0  0  0  0  0
   44.3980   36.0750   42.6970 Cl  0  0  0  0  0  0  0  0  0  0  0  0
   42.0320   36.3690   41.4740 C   0  0  0  0  0  0  0  0  0  0  0  0
   41.6160   32.6420   40.8570 H   0  0  0  0  0  0  0  0  0  0  0  0
   43.5840   33.4490   41.9800 H   0  0  0  0  0  0  0  0  0  0  0  0
   42.1000   37.4470   41.6300 H   0  0  0  0  0  0  0  0  0  0  0  0
   38.3250   27.3030   42.1880 O   0  0  0  0  0  0  0  0  0  0  0  0
   37.8190   27.7290   43.4780 C   0  0  0  0  0  0  0  0  0  0  0  0
   36.4550   27.4370   43.5690 F   0  0  0  0  0  0  0  0  0  0  0  0
   38.4630   26.9850   44.4650 F   0  0  0  0  0  0  0  0  0  0  0  0
   38.0540   29.0780   43.7210 F   0  0  0  0  0  0  0  0  0  0  0  0
   37.1660   25.3130   40.4510 C   0  0  0  0  0  2  0  0  0  0  0  0
   38.1200   24.5590   39.6040 C   0  0  1  0  0  0  0  0  0  0  0  0
   38.8780   23.4370   40.1950 C   0  0  0  0  0  2  0  0  0  0  0  0
   38.3180   22.1710   39.8080 N   0  0  0  0  0  0  0  0  0  0  0  0
   37.8270   20.8340   39.8550 C   0  0  0  0  0  0  0  0  0  0  0  0
   37.9280   19.8590   40.6540 O   0  0  0  0  0  0  0  0  0  0  0  0
   37.0980   20.9380   38.5620 C   0  0  0  0  0  3  0  0  0  0  0  0
   36.0450   21.1900   38.7400 H   0  0  0  0  0  0  0  0  0  0  0  0
   37.9960   22.1250   38.3700 C   0  0  1  0  0  3  0  0  0  0  0  0
   37.1310   23.7450   38.2840 S   0  0  0  0  0  0  0  0  0  0  0  0
   39.0430   25.5440   38.8760 C   0  0  0  0  0  2  0  0  0  0  0  0
   39.2740   25.1080   37.8320 H   0  0  0  0  0  0  0  0  0  0  0  0
  1  2  1  0  0  0  0
  2 33  1  0  0  0  0
  2  3  2  0  0  0  0
  3 28  1  0  0  0  0
  4  3  1  0  0  0  0
  5  4  2  0  0  0  0
  6  1  2  0  0  0  0
  6  5  1  0  0  0  0
  7  1  1  0  0  0  0
  8  5  1  0  0  0  0
  8  9  2  0  0  0  0
 10 11  1  0  0  0  0
 10  9  1  0  0  0  0
 10 15  1  0  0  0  0
 12 10  1  0  0  0  0
 13 15  1  0  0  0  0
 13 19  1  0  0  0  0
 14 13  2  0  0  0  0
 15 16  1  0  0  0  0
 17 18  1  0  0  0  0
 18 24  1  0  0  0  0
 19 18  2  0  0  0  0
 19 20  1  0  0  0  0
 20 21  2  0  0  0  0
 21 22  1  0  0  0  0
 21 26  1  0  0  0  0
 22 23  1  0  0  0  0
 24 27  1  0  0  0  0
 24 22  2  0  0  0  0
 25 20  1  0  0  0  0
 28 29  1  0  0  0  0
 29 30  1  0  0  0  0
 29 32  1  0  0  0  0
 29 31  1  0  0  0  0
 34 43  1  6  0  0  0
 34 35  1  0  0  0  0
 34 33  1  0  0  0  0
 36 37  1  0  0  0  0
 36 35  1  0  0  0  0
 37 38  2  0  0  0  0
 39 40  1  0  0  0  0
 39 37  1  0  0  0  0
 41 42  1  1  0  0  0
 41 39  1  0  0  0  0
 41 36  1  0  0  0  0
 42 34  1  0  0  0  0
 44 43  1  0  0  0  0
M  END
>  <minimizedAffinity>
-6.79633951

$$$$

 OpenBabel03242520593D

 44 47  0  0  1  0  0  0  0  0999 V2000
   36.5430   29.5680   38.5550 C   0  0  0  0  0  0  0  0  0  0  0  0
   36.2520   28.6270   39.5420 C   0  0  0  0  0  0  0  0  0  0  0  0
   36.3260   29.0490   40.8870 C   0  0  0  0  0  0  0  0  0  0  0  0
   36.6780   30.3300   41.1260 N   0  0  0  0  0  0  0  0  0  0  0  0
   36.9550   31.2060   40.1410 C   0  0  0  0  0  0  0  0  0  0  0  0
   36.8870   30.8290   38.8340 N   0  0  0  0  0  0  0  0  0  0  0  0
   36.5140   29.3780   37.5260 H   0  0  0  0  0  0  0  0  0  0  0  0
   37.3600   32.5700   40.4560 C   0  0  0  0  0  3  0  0  0  0  0  0
   37.9000   33.3750   39.5560 C   0  0  0  0  0  3  0  0  0  0  0  0
   38.3000   34.7600   39.9460 C   0  0  0  0  0  0  0  0  0  0  0  0
   37.3950   35.2890   40.3010 H   0  0  0  0  0  0  0  0  0  0  0  0
   38.5740   35.2390   38.9970 H   0  0  0  0  0  0  0  0  0  0  0  0
   40.4960   35.2790   40.5280 C   0  0  0  0  0  0  0  0  0  0  0  0
   40.9200   35.7550   39.4370 O   0  0  0  0  0  0  0  0  0  0  0  0
   39.2810   34.7670   40.9720 N   0  0  0  0  0  0  0  0  0  0  0  0
   39.1850   34.4580   41.9410 H   0  0  0  0  0  0  0  0  0  0  0  0
   42.6470   33.1210   40.4710 Cl  0  0  0  0  0  0  0  0  0  0  0  0
   42.7960   34.5520   41.4530 C   0  0  0  0  0  0  0  0  0  0  0  0
   41.7210   35.3900   41.3360 C   0  0  0  0  0  0  0  0  0  0  0  0
   41.6780   36.5870   42.0650 C   0  0  0  0  0  0  0  0  0  0  0  0
   42.7060   36.9490   42.9130 C   0  0  0  0  0  0  0  0  0  0  0  0
   43.7870   36.0900   43.0190 C   0  0  0  0  0  0  0  0  0  0  0  0
   45.1510   36.4470   44.0540 Cl  0  0  0  0  0  0  0  0  0  0  0  0
   43.8200   34.9190   42.3000 C   0  0  0  0  0  0  0  0  0  0  0  0
   40.8870   37.3240   42.0640 H   0  0  0  0  0  0  0  0  0  0  0  0
   42.7400   37.8470   43.5050 H   0  0  0  0  0  0  0  0  0  0  0  0
   44.6380   34.1970   42.3280 H   0  0  0  0  0  0  0  0  0  0  0  0
   36.0530   28.2380   41.9540 O   0  0  0  0  0  0  0  0  0  0  0  0
   37.1760   27.9290   42.8160 C   0  0  0  0  0  0  0  0  0  0  0  0
   37.0050   28.5540   44.0560 F   0  0  0  0  0  0  0  0  0  0  0  0
   37.1790   26.5550   43.0490 F   0  0  0  0  0  0  0  0  0  0  0  0
   38.3950   28.2820   42.2480 F   0  0  0  0  0  0  0  0  0  0  0  0
   36.0430   27.2180   39.2560 C   0  0  0  0  0  2  0  0  0  0  0  0
   36.6850   26.5300   38.1110 C   0  0  1  0  0  0  0  0  0  0  0  0
   37.8440   27.1610   37.4490 C   0  0  0  0  0  2  0  0  0  0  0  0
   39.0760   26.5420   37.8570 N   0  0  0  0  0  0  0  0  0  0  0  0
   40.4210   26.3540   38.2880 C   0  0  0  0  0  0  0  0  0  0  0  0
   41.4710   27.0590   38.3170 O   0  0  0  0  0  0  0  0  0  0  0  0
   40.2010   24.9490   38.7280 C   0  0  0  0  0  3  0  0  0  0  0  0
   39.9920   24.9180   39.8050 H   0  0  0  0  0  0  0  0  0  0  0  0
   38.9810   25.0710   37.8630 C   0  0  1  0  0  3  0  0  0  0  0  0
   37.3800   24.9550   38.7590 S   0  0  0  0  0  0  0  0  0  0  0  0
   35.6100   26.1170   37.0990 C   0  0  0  0  0  2  0  0  0  0  0  0
   35.9310   25.1110   36.6310 H   0  0  0  0  0  0  0  0  0  0  0  0
  1  6  2  0  0  0  0
  1  2  1  0  0  0  0
  2  3  2  0  0  0  0
  3  4  1  0  0  0  0
  3 28  1  0  0  0  0
  5  8  1  0  0  0  0
  5  4  2  0  0  0  0
  6  5  1  0  0  0  0
  7  1  1  0  0  0  0
  9 10  1  0  0  0  0
  9  8  2  0  0  0  0
 10 11  1  0  0  0  0
 10 15  1  0  0  0  0
 12 10  1  0  0  0  0
 13 15  1  0  0  0  0
 13 19  1  0  0  0  0
 14 13  2  0  0  0  0
 15 16  1  0  0  0  0
 17 18  1  0  0  0  0
 18 24  1  0  0  0  0
 19 18  2  0  0  0  0
 19 20  1  0  0  0  0
 20 21  2  0  0  0  0
 21 22  1  0  0  0  0
 21 26  1  0  0  0  0
 22 23  1  0  0  0  0
 24 27  1  0  0  0  0
 24 22  2  0  0  0  0
 25 20  1  0  0  0  0
 28 29  1  0  0  0  0
 29 31  1  0  0  0  0
 29 30  1  0  0  0  0
 32 29  1  0  0  0  0
 33  2  1  0  0  0  0
 34 43  1  6  0  0  0
 34 42  1  0  0  0  0
 34 33  1  0  0  0  0
 35 36  1  0  0  0  0
 35 34  1  0  0  0  0
 36 41  1  0  0  0  0
 36 37  1  0  0  0  0
 37 38  2  0  0  0  0
 37 39  1  0  0  0  0
 39 40  1  0  0  0  0
 41 39  1  1  0  0  0
 41 42  1  0  0  0  0
 44 43  1  0  0  0  0
M  END
>  <minimizedAffinity>
-6.73291683

$$$$

 OpenBabel03242520593D

 44 47  0  0  1  0  0  0  0  0999 V2000
   36.0280   28.0130   41.2850 C   0  0  0  0  0  0  0  0  0  0  0  0
   37.0970   27.1810   41.6120 C   0  0  0  0  0  0  0  0  0  0  0  0
   38.3660   27.7800   41.7670 C   0  0  0  0  0  0  0  0  0  0  0  0
   38.4590   29.1140   41.5820 N   0  0  0  0  0  0  0  0  0  0  0  0
   37.3990   29.8810   41.2620 C   0  0  0  0  0  0  0  0  0  0  0  0
   36.1610   29.3310   41.1110 N   0  0  0  0  0  0  0  0  0  0  0  0
   35.0410   27.6890   41.1520 H   0  0  0  0  0  0  0  0  0  0  0  0
   37.5600   31.3130   41.0430 C   0  0  0  0  0  3  0  0  0  0  0  0
   37.3980   31.8710   39.8550 C   0  0  0  0  0  3  0  0  0  0  0  0
   37.5860   33.3440   39.6970 C   0  0  0  0  0  0  0  0  0  0  0  0
   36.6080   33.8330   39.8740 H   0  0  0  0  0  0  0  0  0  0  0  0
   37.7980   33.4760   38.6280 H   0  0  0  0  0  0  0  0  0  0  0  0
   39.8200   33.8990   40.0570 C   0  0  0  0  0  0  0  0  0  0  0  0
   40.3190   33.5970   38.9360 O   0  0  0  0  0  0  0  0  0  0  0  0
   38.5430   33.8650   40.6080 N   0  0  0  0  0  0  0  0  0  0  0  0
   38.3930   34.1980   41.5610 H   0  0  0  0  0  0  0  0  0  0  0  0
   40.3690   36.8550   40.5560 Cl  0  0  0  0  0  0  0  0  0  0  0  0
   41.4680   35.6080   41.0770 C   0  0  0  0  0  0  0  0  0  0  0  0
   41.0360   34.3510   40.7520 C   0  0  0  0  0  0  0  0  0  0  0  0
   41.8080   33.2310   41.0950 C   0  0  0  0  0  0  0  0  0  0  0  0
   43.0100   33.3630   41.7600 C   0  0  0  0  0  0  0  0  0  0  0  0
   43.4320   34.6420   42.0810 C   0  0  0  0  0  0  0  0  0  0  0  0
   44.9330   34.9320   42.9300 Cl  0  0  0  0  0  0  0  0  0  0  0  0
   42.6690   35.7340   41.7420 C   0  0  0  0  0  0  0  0  0  0  0  0
   41.5800   32.1940   40.8890 H   0  0  0  0  0  0  0  0  0  0  0  0
   43.6550   32.5520   42.0500 H   0  0  0  0  0  0  0  0  0  0  0  0
   42.9330   36.7690   41.9660 H   0  0  0  0  0  0  0  0  0  0  0  0
   39.4970   27.0880   42.1020 O   0  0  0  0  0  0  0  0  0  0  0  0
   39.7520   26.9430   43.5220 C   0  0  0  0  0  0  0  0  0  0  0  0
   40.8340   27.7480   43.8910 F   0  0  0  0  0  0  0  0  0  0  0  0
   38.6370   27.4150   44.2130 F   0  0  0  0  0  0  0  0  0  0  0  0
   39.9700   25.6200   43.8900 F   0  0  0  0  0  0  0  0  0  0  0  0
   36.9940   25.7320   41.6380 C   0  0  0  0  0  2  0  0  0  0  0  0
   37.2720   24.8890   40.4510 C   0  0  1  0  0  0  0  0  0  0  0  0
   37.6450   25.5380   39.1770 C   0  0  0  0  0  2  0  0  0  0  0  0
   39.0610   25.4470   38.9430 N   0  0  0  0  0  0  0  0  0  0  0  0
   40.4030   25.7800   38.5990 C   0  0  0  0  0  0  0  0  0  0  0  0
   40.9670   26.7040   37.9450 O   0  0  0  0  0  0  0  0  0  0  0  0
   40.9920   24.6070   39.2990 C   0  0  0  0  0  3  0  0  0  0  0  0
   41.3200   24.8930   40.3070 H   0  0  0  0  0  0  0  0  0  0  0  0
   39.5830   24.0970   39.2270 C   0  0  1  0  0  3  0  0  0  0  0  0
   38.7540   23.8760   40.8530 S   0  0  0  0  0  0  0  0  0  0  0  0
   36.1280   23.8850   40.2610 C   0  0  0  0  0  2  0  0  0  0  0  0
   36.5820   22.9030   39.8560 H   0  0  0  0  0  0  0  0  0  0  0  0
  1  2  1  0  0  0  0
  2 33  1  0  0  0  0
  2  3  2  0  0  0  0
  3 28  1  0  0  0  0
  4  3  1  0  0  0  0
  5  4  2  0  0  0  0
  6  5  1  0  0  0  0
  6  1  2  0  0  0  0
  7  1  1  0  0  0  0
  8  5  1  0  0  0  0
  9  8  2  0  0  0  0
 10  9  1  0  0  0  0
 10 11  1  0  0  0  0
 10 15  1  0  0  0  0
 12 10  1  0  0  0  0
 13 15  1  0  0  0  0
 13 19  1  0  0  0  0
 14 13  2  0  0  0  0
 15 16  1  0  0  0  0
 17 18  1  0  0  0  0
 18 24  1  0  0  0  0
 19 18  2  0  0  0  0
 19 20  1  0  0  0  0
 20 21  2  0  0  0  0
 21 26  1  0  0  0  0
 21 22  1  0  0  0  0
 22 23  1  0  0  0  0
 24 27  1  0  0  0  0
 24 22  2  0  0  0  0
 25 20  1  0  0  0  0
 28 29  1  0  0  0  0
 29 32  1  0  0  0  0
 29 30  1  0  0  0  0
 29 31  1  0  0  0  0
 34 43  1  6  0  0  0
 34 42  1  0  0  0  0
 34 33  1  0  0  0  0
 35 34  1  0  0  0  0
 36 35  1  0  0  0  0
 36 41  1  0  0  0  0
 37 36  1  0  0  0  0
 37 39  1  0  0  0  0
 38 37  2  0  0  0  0
 39 40  1  0  0  0  0
 41 39  1  1  0  0  0
 41 42  1  0  0  0  0
 44 43  1  0  0  0  0
M  END
>  <minimizedAffinity>
-6.58880138

$$$$
