
     RDKit          3D

 31 33  0  0  0  0  0  0  0  0999 V2000
   46.2164   34.8419   43.1920 C   0  0  0  0  0  0  0  0  0  0  0  0
   45.3248   35.9118   43.2772 C   0  0  0  0  0  0  0  0  0  0  0  0
   44.5613   36.0073   44.4531 C   0  0  0  0  0  0  0  0  0  0  0  0
   44.7379   35.0642   45.4189 N   0  0  0  0  0  0  0  0  0  0  0  0
   45.6206   34.0428   45.2839 C   0  0  0  0  0  0  0  0  0  0  0  0
   46.3467   33.9485   44.1703 N   0  0  0  0  0  0  0  0  0  0  0  0
   46.9675   34.7948   41.9724 C   0  0  0  0  0  0  0  0  0  0  0  0
   48.0519   35.3919   41.7263 O   0  0  0  0  0  0  0  0  0  0  0  0
   45.1867   36.6552   42.5138 H   0  0  0  0  0  0  0  0  0  0  0  0
   43.8529   36.8059   44.5896 H   0  0  0  0  0  0  0  0  0  0  0  0
   46.6319   34.1982   41.1106 H   0  0  0  0  0  0  0  0  0  0  0  0
   45.7776   33.0470   46.3543 C   0  0  0  0  0  0  0  0  0  0  0  0
   47.0304   32.2256   46.1836 C   0  0  2  0  0  0  0  0  0  0  0  0
   47.0577   31.4566   44.8803 C   0  0  0  0  0  0  0  0  0  0  0  0
   47.5491   32.0260   44.0854 H   0  0  0  0  0  0  0  0  0  0  0  0
   47.1776   31.2293   47.2870 C   0  0  0  0  0  0  0  0  0  0  0  0
   48.1289   31.7012   48.2349 N   0  0  0  0  0  0  0  0  0  0  0  0
   48.7906   32.0765   49.4354 C   0  0  0  0  0  0  0  0  0  0  0  0
   48.6973   31.8932   50.6745 O   0  0  0  0  0  0  0  0  0  0  0  0
   49.8164   32.8951   48.7359 C   0  0  2  0  0  0  0  0  0  0  0  0
   50.8615   32.6988   49.0095 H   0  0  0  0  0  0  0  0  0  0  0  0
   49.3156   32.1264   47.5396 C   0  0  2  0  0  0  0  0  0  0  0  0
   48.5487   33.2053   46.2636 S   0  0  0  0  0  0  0  0  0  0  0  0
   44.9397   32.3272   46.2686 H   0  0  0  0  0  0  0  0  0  0  0  0
   45.8023   33.4936   47.3501 H   0  0  0  0  0  0  0  0  0  0  0  0
   47.6498   30.5029   45.0058 H   0  0  0  0  0  0  0  0  0  0  0  0
   46.0374   31.1151   44.6405 H   0  0  0  0  0  0  0  0  0  0  0  0
   46.1643   31.1063   47.7511 H   0  0  0  0  0  0  0  0  0  0  0  0
   47.4849   30.2133   46.9601 H   0  0  0  0  0  0  0  0  0  0  0  0
   49.4940   33.9561   48.7863 H   0  0  0  0  0  0  0  0  0  0  0  0
   49.9778   31.3670   47.1248 H   0  0  0  0  0  0  0  0  0  0  0  0
  1  2  2  0
  1  6  1  0
  2  3  1  0
  3  4  2  0
  5  4  1  0
  6  5  2  0
  7  1  1  0
  8  7  2  0
  2  9  1  0
  3 10  1  0
  7 11  1  0
 13 12  1  1
 13 14  1  0
 14 15  1  0
 13 16  1  0
 16 17  1  0
 17 18  1  0
 18 19  2  0
 18 20  1  0
 20 21  1  1
 20 22  1  0
 22 23  1  0
 23 13  1  0
 22 17  1  0
 12 24  1  0
 12 25  1  0
 14 26  1  0
 14 27  1  0
 16 28  1  0
 16 29  1  0
 20 30  1  0
 22 31  1  6
  5 12  1  0
M  ISO  5   9  14  10  14  11   6  15   8  21  15
M  END
>  <DihAtoms>  (1) 
3,4,11,12

>  <DihDeg>  (1) 
89.99995369881678

$$$$
