
 OpenBabel03252508513D

 31 34  0  0  1  0  0  0  0  0999 V2000
   46.2140   34.0480   41.1060 C   0  0  0  0  0  0  0  0  0  0  0  0
   46.6770   34.8510   42.1470 C   0  0  0  0  0  0  0  0  0  0  0  0
   47.9330   35.4440   41.9870 C   0  0  0  0  0  0  0  0  0  0  0  0
   48.6200   35.2020   40.8360 N   0  0  0  0  0  0  0  0  0  0  0  0
   48.1390   34.4220   39.8590 C   0  0  0  0  0  0  0  0  0  0  0  0
   46.9280   33.8440   39.9990 N   0  0  0  0  0  0  0  0  0  0  0  0
   48.2880   36.0570   42.7810 H   0  0  0  0  0  0  0  0  0  0  0  0
   48.6690   34.2190   38.9380 H   0  0  0  0  0  0  0  0  0  0  0  0
   45.8510   35.0400   43.3400 C   0  0  0  0  0  0  0  0  0  0  0  0
   45.0500   36.1570   43.5300 C   0  0  0  0  0  0  0  0  0  0  0  0
   44.4650   35.9240   44.7570 C   0  0  0  0  0  0  0  0  0  0  0  0
   44.8820   34.7450   45.2790 N   0  0  0  0  0  0  0  0  0  0  0  0
   45.7170   34.2340   44.4010 N   0  0  0  0  0  0  0  0  0  0  0  0
   44.8910   37.0320   42.8890 H   0  0  0  0  0  0  0  0  0  0  0  0
   43.7580   36.5850   45.2620 H   0  0  0  0  0  0  0  0  0  0  0  0
   44.5660   34.3690   46.2020 H   0  0  0  0  0  0  0  0  0  0  0  0
   44.9800   33.4560   41.2450 O   0  0  0  0  0  0  0  0  0  0  0  0
   43.8060   33.8570   40.6730 C   0  0  0  0  0  0  0  0  0  0  0  0
   43.3800   35.0470   40.5200 O   0  0  0  0  0  0  0  0  0  0  0  0
   39.1530   32.9400   38.7300 C   0  0  0  0  0  0  0  0  0  0  0  0
   40.1740   33.4130   37.7170 C   0  0  0  0  0  2  0  0  0  0  0  0
   41.4810   33.2570   38.3300 N   0  0  0  0  0  0  0  0  0  0  0  0
   42.8440   32.8690   38.6010 C   0  0  0  0  0  0  0  0  0  0  0  0
   43.7320   32.4900   37.7640 O   0  0  0  0  0  0  0  0  0  0  0  0
   42.6490   33.1090   40.0530 C   0  0  2  0  0  3  0  0  0  0  0  0
   41.5410   33.9950   39.5780 C   0  0  2  0  0  3  0  0  0  0  0  0
   39.9040   33.5880   40.2750 S   0  0  0  0  0  0  0  0  0  0  0  0
   37.8140   33.5970   38.4830 C   0  0  0  0  0  2  0  0  0  0  0  0
   37.6470   33.7640   37.3980 H   0  0  0  0  0  0  0  0  0  0  0  0
   38.9870   31.4520   38.7600 C   0  0  0  0  0  2  0  0  0  0  0  0
   39.7540   30.9140   39.3520 H   0  0  0  0  0  0  0  0  0  0  0  0
  1 17  1  0  0  0  0
  1  2  1  0  0  0  0
  2  9  1  0  0  0  0
  3  2  2  0  0  0  0
  3  7  1  0  0  0  0
  4  3  1  0  0  0  0
  5  6  1  0  0  0  0
  5  4  2  0  0  0  0
  6  1  2  0  0  0  0
  8  5  1  0  0  0  0
  9 10  1  0  0  0  0
  9 13  2  0  0  0  0
 10 11  2  0  0  0  0
 11 15  1  0  0  0  0
 11 12  1  0  0  0  0
 12 16  1  0  0  0  0
 13 12  1  0  0  0  0
 14 10  1  0  0  0  0
 18 17  1  0  0  0  0
 19 18  2  0  0  0  0
 20 30  1  0  0  0  0
 20 27  1  0  0  0  0
 21 22  1  0  0  0  0
 21 20  1  0  0  0  0
 22 23  1  0  0  0  0
 22 26  1  0  0  0  0
 23 25  1  0  0  0  0
 24 23  2  0  0  0  0
 25 18  1  6  0  0  0
 26 25  1  0  0  0  0
 26 27  1  1  0  0  0
 28 20  1  0  0  0  0
 29 28  1  0  0  0  0
 30 31  1  0  0  0  0
M  END
>  <minimizedAffinity>
-5.73840141

>  <minimizedRMSD>
0.886451364

$$$$
