
 OpenBabel03252508243D

 51 56  0  0  1  0  0  0  0  0999 V2000
   38.3710   29.4760   42.4300 C   0  0  0  0  0  0  0  0  0  0  0  0
   39.2660   29.0050   41.9350 H   0  0  0  0  0  0  0  0  0  0  0  0
   38.7430   30.4080   42.8670 H   0  0  0  0  0  0  0  0  0  0  0  0
   37.3650   29.6540   41.3830 C   0  0  0  0  0  0  0  0  0  0  0  0
   36.1980   28.9240   41.2960 C   0  0  0  0  0  0  0  0  0  0  0  0
   35.2490   29.0890   40.3190 C   0  0  0  0  0  0  0  0  0  0  0  0
   35.5240   30.0790   39.3640 C   0  0  0  0  0  0  0  0  0  0  0  0
   36.6710   30.8310   39.4070 C   0  0  0  0  0  0  0  0  0  0  0  0
   37.5820   30.6280   40.3960 C   0  0  0  0  0  0  0  0  0  0  0  0
   35.9180   28.1400   41.9830 H   0  0  0  0  0  0  0  0  0  0  0  0
   34.3350   28.5420   40.2230 H   0  0  0  0  0  0  0  0  0  0  0  0
   34.8010   30.2570   38.5590 H   0  0  0  0  0  0  0  0  0  0  0  0
   36.8040   31.5770   38.6250 H   0  0  0  0  0  0  0  0  0  0  0  0
   38.7300   31.4470   40.3460 N   0  0  0  0  0  0  0  0  0  0  0  0
   39.9160   31.1410   39.6030 C   0  0  0  0  0  0  0  0  0  0  0  0
   40.7440   32.3840   39.3500 C   0  0  0  0  0  0  0  0  0  0  0  0
   39.9860   33.5590   39.0820 N   0  0  0  0  0  0  0  0  0  0  0  0
   38.9980   33.8610   40.0530 C   0  0  0  0  0  0  0  0  0  0  0  0
   38.8830   32.7310   41.0480 C   0  0  0  0  0  0  0  0  0  0  0  0
   39.8060   30.4760   38.7440 H   0  0  0  0  0  0  0  0  0  0  0  0
   40.5520   30.5440   40.3240 H   0  0  0  0  0  0  0  0  0  0  0  0
   41.3690   32.1760   38.4400 H   0  0  0  0  0  0  0  0  0  0  0  0
   41.4210   32.6230   40.2150 H   0  0  0  0  0  0  0  0  0  0  0  0
   40.6470   34.3220   38.9120 H   0  0  0  0  0  0  0  0  0  0  0  0
   39.3320   34.7670   40.6000 H   0  0  0  0  0  0  0  0  0  0  0  0
   37.9740   34.0220   39.6120 H   0  0  0  0  0  0  0  0  0  0  0  0
   37.9060   32.8820   41.5640 H   0  0  0  0  0  0  0  0  0  0  0  0
   39.7370   32.6770   41.7360 H   0  0  0  0  0  0  0  0  0  0  0  0
   37.8890   28.5430   43.5210 C   0  0  0  0  0  0  0  0  0  0  0  0
   36.7700   28.4060   43.4540 H   0  0  0  0  0  0  0  0  0  0  0  0
   38.1220   28.8330   44.5310 H   0  0  0  0  0  0  0  0  0  0  0  0
   40.2680   25.6120   43.4550 C   0  0  0  0  0  0  0  0  0  0  0  0
   39.7600   26.9100   43.6800 C   0  0  0  0  0  0  0  0  0  0  0  0
   38.4490   27.1920   43.2880 C   0  0  0  0  0  0  0  0  0  0  0  0
   37.7170   26.1890   42.7000 N   0  0  0  0  0  0  0  0  0  0  0  0
   38.2430   24.9680   42.5050 C   0  0  0  0  0  0  0  0  0  0  0  0
   39.5060   24.6780   42.8780 N   0  0  0  0  0  0  0  0  0  0  0  0
   41.2770   25.3790   43.7510 H   0  0  0  0  0  0  0  0  0  0  0  0
   40.4050   27.6470   44.1510 H   0  0  0  0  0  0  0  0  0  0  0  0
   37.2540   24.0620   41.8540 C   0  0  0  0  0  2  0  0  0  0  0  0
   37.6800   23.9540   40.3860 C   0  0  2  0  0  0  0  0  0  0  0  0
   38.4950   25.1440   40.0530 C   0  0  0  0  0  2  0  0  0  0  0  0
   37.8210   26.0220   39.1670 N   0  0  1  0  0  0  0  0  0  0  0  0
   37.7410   27.0830   38.2280 C   0  0  1  0  0  0  0  0  0  0  0  0
   38.3500   28.1840   38.0210 O   0  0  0  0  0  1  0  0  0  0  0  0
   36.6080   26.3110   37.5970 C   0  0  0  0  0  3  0  0  0  0  0  0
   35.8390   26.9570   37.1430 H   0  0  0  0  0  0  0  0  0  0  0  0
   36.3740   25.9040   39.0100 C   0  0  1  0  0  0  0  0  0  0  0  0
   36.2420   24.0920   39.2930 S   0  0  0  0  0  0  0  0  0  0  0  0
   38.4050   22.6430   40.1880 C   0  0  0  0  0  2  0  0  0  0  0  0
   39.4880   22.7360   40.0720 H   0  0  0  0  0  0  0  0  0  0  0  0
  1  3  1  0  0  0  0
  1 29  1  0  0  0  0
  2  1  1  0  0  0  0
  4  1  1  0  0  0  0
  5  4  1  0  0  0  0
  5 10  1  0  0  0  0
  6  5  2  0  0  0  0
  7  8  2  0  0  0  0
  7  6  1  0  0  0  0
  8  9  1  0  0  0  0
  9  4  2  0  0  0  0
 11  6  1  0  0  0  0
 12  7  1  0  0  0  0
 13  8  1  0  0  0  0
 14  9  1  0  0  0  0
 14 19  1  0  0  0  0
 15 21  1  0  0  0  0
 15 14  1  0  0  0  0
 16 15  1  0  0  0  0
 16 23  1  0  0  0  0
 17 16  1  0  0  0  0
 17 18  1  0  0  0  0
 18 25  1  0  0  0  0
 18 19  1  0  0  0  0
 19 27  1  0  0  0  0
 19 28  1  0  0  0  0
 20 15  1  0  0  0  0
 22 16  1  0  0  0  0
 24 17  1  0  0  0  0
 26 18  1  0  0  0  0
 29 31  1  0  0  0  0
 30 29  1  0  0  0  0
 32 33  1  0  0  0  0
 32 38  1  0  0  0  0
 33 39  1  0  0  0  0
 34 29  1  0  0  0  0
 34 33  2  0  0  0  0
 35 34  1  0  0  0  0
 36 35  2  0  0  0  0
 36 37  1  0  0  0  0
 37 32  2  0  0  0  0
 40 36  1  0  0  0  0
 41 50  1  6  0  0  0
 41 40  1  0  0  0  0
 42 41  1  0  0  0  0
 43 42  1  6  0  0  0
 44 45  1  1  0  0  0
 44 48  1  0  0  0  0
 44 43  1  0  0  0  0
 46 44  1  0  0  0  0
 47 46  1  0  0  0  0
 48 46  1  6  0  0  0
 48 43  1  0  0  0  0
 48 49  1  0  0  0  0
 49 41  1  0  0  0  0
 51 50  1  0  0  0  0
M  END
>  <minimizedAffinity>
-6.28870678

$$$$

 OpenBabel03252508243D

 51 56  0  0  1  0  0  0  0  0999 V2000
   38.7060   27.2160   43.6450 C   0  0  0  0  0  0  0  0  0  0  0  0
   38.7770   26.7470   44.6660 H   0  0  0  0  0  0  0  0  0  0  0  0
   39.6740   27.7040   43.4860 H   0  0  0  0  0  0  0  0  0  0  0  0
   38.4110   26.1300   42.7100 C   0  0  0  0  0  0  0  0  0  0  0  0
   37.1410   25.6790   42.4210 C   0  0  0  0  0  0  0  0  0  0  0  0
   36.8580   24.6640   41.5430 C   0  0  0  0  0  0  0  0  0  0  0  0
   37.9650   24.0720   40.9180 C   0  0  0  0  0  0  0  0  0  0  0  0
   39.2490   24.4850   41.1740 C   0  0  0  0  0  0  0  0  0  0  0  0
   39.4780   25.4950   42.0540 C   0  0  0  0  0  0  0  0  0  0  0  0
   36.2390   26.0730   42.8650 H   0  0  0  0  0  0  0  0  0  0  0  0
   35.8860   24.2920   41.2950 H   0  0  0  0  0  0  0  0  0  0  0  0
   37.8010   23.2550   40.2050 H   0  0  0  0  0  0  0  0  0  0  0  0
   40.0500   23.9690   40.6450 H   0  0  0  0  0  0  0  0  0  0  0  0
   40.8310   25.8380   42.2520 N   0  0  0  0  0  0  0  0  0  0  0  0
   41.6400   25.3670   43.3380 C   0  0  0  0  0  0  0  0  0  0  0  0
   43.1150   25.4970   43.0230 C   0  0  0  0  0  0  0  0  0  0  0  0
   43.4620   25.2210   41.6700 N   0  0  0  0  0  0  0  0  0  0  0  0
   42.7250   25.9570   40.7080 C   0  0  0  0  0  0  0  0  0  0  0  0
   41.6140   26.7280   41.3800 C   0  0  0  0  0  0  0  0  0  0  0  0
   41.3470   24.4230   43.8020 H   0  0  0  0  0  0  0  0  0  0  0  0
   41.4790   26.1300   44.1580 H   0  0  0  0  0  0  0  0  0  0  0  0
   43.6500   24.7450   43.6630 H   0  0  0  0  0  0  0  0  0  0  0  0
   43.5080   26.5250   43.2560 H   0  0  0  0  0  0  0  0  0  0  0  0
   44.4760   25.3230   41.5830 H   0  0  0  0  0  0  0  0  0  0  0  0
   43.4180   26.6900   40.2430 H   0  0  0  0  0  0  0  0  0  0  0  0
   42.2500   25.3100   39.9180 H   0  0  0  0  0  0  0  0  0  0  0  0
   40.9060   27.0090   40.5650 H   0  0  0  0  0  0  0  0  0  0  0  0
   41.9780   27.5870   41.9600 H   0  0  0  0  0  0  0  0  0  0  0  0
   37.6000   28.2480   43.6760 C   0  0  0  0  0  0  0  0  0  0  0  0
   37.5910   28.7850   44.6700 H   0  0  0  0  0  0  0  0  0  0  0  0
   36.6030   27.8830   43.4950 H   0  0  0  0  0  0  0  0  0  0  0  0
   39.3550   31.0060   41.7870 C   0  0  0  0  0  0  0  0  0  0  0  0
   39.0960   30.0090   42.7520 C   0  0  0  0  0  0  0  0  0  0  0  0
   37.8910   29.3050   42.6800 C   0  0  0  0  0  0  0  0  0  0  0  0
   37.0160   29.6180   41.6690 N   0  0  0  0  0  0  0  0  0  0  0  0
   37.3050   30.5770   40.7720 C   0  0  0  0  0  0  0  0  0  0  0  0
   38.4620   31.2660   40.8260 N   0  0  0  0  0  0  0  0  0  0  0  0
   40.2780   31.5580   41.8290 H   0  0  0  0  0  0  0  0  0  0  0  0
   39.8410   29.8220   43.5200 H   0  0  0  0  0  0  0  0  0  0  0  0
   36.2010   30.7270   39.7820 C   0  0  0  0  0  2  0  0  0  0  0  0
   36.6550   29.9800   38.5230 C   0  0  2  0  0  0  0  0  0  0  0  0
   35.4570   29.4070   37.8690 C   0  0  0  0  0  2  0  0  0  0  0  0
   35.4200   27.9920   37.9650 N   0  0  1  0  0  0  0  0  0  0  0  0
   34.9810   26.6940   37.6010 C   0  0  1  0  0  0  0  0  0  0  0  0
   33.9020   26.1690   37.1690 O   0  0  0  0  0  1  0  0  0  0  0  0
   36.3700   26.2270   37.9600 C   0  0  0  0  0  3  0  0  0  0  0  0
   36.3950   25.2010   38.3640 H   0  0  0  0  0  0  0  0  0  0  0  0
   36.2550   27.3240   38.9600 C   0  0  1  0  0  0  0  0  0  0  0  0
   37.6450   28.5290   38.9650 S   0  0  0  0  0  0  0  0  0  0  0  0
   37.4300   30.9350   37.6470 C   0  0  0  0  0  2  0  0  0  0  0  0
   36.8920   31.2750   36.7580 H   0  0  0  0  0  0  0  0  0  0  0  0
  1 29  1  0  0  0  0
  1  2  1  0  0  0  0
  3  1  1  0  0  0  0
  4  1  1  0  0  0  0
  5  4  1  0  0  0  0
  5 10  1  0  0  0  0
  6  5  2  0  0  0  0
  7  8  2  0  0  0  0
  7  6  1  0  0  0  0
  8  9  1  0  0  0  0
  9 14  1  0  0  0  0
  9  4  2  0  0  0  0
 11  6  1  0  0  0  0
 12  7  1  0  0  0  0
 13  8  1  0  0  0  0
 14 15  1  0  0  0  0
 15 20  1  0  0  0  0
 15 21  1  0  0  0  0
 16 23  1  0  0  0  0
 16 15  1  0  0  0  0
 16 22  1  0  0  0  0
 17 16  1  0  0  0  0
 18 19  1  0  0  0  0
 18 17  1  0  0  0  0
 19 28  1  0  0  0  0
 19 14  1  0  0  0  0
 24 17  1  0  0  0  0
 25 18  1  0  0  0  0
 26 18  1  0  0  0  0
 27 19  1  0  0  0  0
 29 30  1  0  0  0  0
 31 29  1  0  0  0  0
 32 38  1  0  0  0  0
 32 33  1  0  0  0  0
 33 39  1  0  0  0  0
 34 33  2  0  0  0  0
 34 29  1  0  0  0  0
 35 34  1  0  0  0  0
 36 37  1  0  0  0  0
 36 35  2  0  0  0  0
 37 32  2  0  0  0  0
 40 36  1  0  0  0  0
 41 50  1  6  0  0  0
 41 49  1  0  0  0  0
 41 40  1  0  0  0  0
 42 41  1  0  0  0  0
 43 42  1  6  0  0  0
 43 48  1  0  0  0  0
 44 45  1  1  0  0  0
 44 46  1  0  0  0  0
 44 43  1  0  0  0  0
 44 48  1  0  0  0  0
 46 47  1  0  0  0  0
 48 46  1  6  0  0  0
 48 49  1  0  0  0  0
 51 50  1  0  0  0  0
M  END
>  <minimizedAffinity>
-6.27154541

$$$$

 OpenBabel03252508243D

 51 56  0  0  1  0  0  0  0  0999 V2000
   36.2370   30.5680   40.4200 C   0  0  0  0  0  0  0  0  0  0  0  0
   37.2500   30.7320   40.8850 H   0  0  0  0  0  0  0  0  0  0  0  0
   35.6570   31.4610   40.6760 H   0  0  0  0  0  0  0  0  0  0  0  0
   36.4650   30.3810   38.9870 C   0  0  0  0  0  0  0  0  0  0  0  0
   35.8200   29.4370   38.2170 C   0  0  0  0  0  0  0  0  0  0  0  0
   36.0260   29.2590   36.8720 C   0  0  0  0  0  0  0  0  0  0  0  0
   36.9650   30.1170   36.2810 C   0  0  0  0  0  0  0  0  0  0  0  0
   37.6330   31.0720   37.0060 C   0  0  0  0  0  0  0  0  0  0  0  0
   37.3950   31.2080   38.3370 C   0  0  0  0  0  0  0  0  0  0  0  0
   35.0940   28.7340   38.5960 H   0  0  0  0  0  0  0  0  0  0  0  0
   35.5440   28.5400   36.2450 H   0  0  0  0  0  0  0  0  0  0  0  0
   37.1710   30.0230   35.2080 H   0  0  0  0  0  0  0  0  0  0  0  0
   38.3460   31.6950   36.4660 H   0  0  0  0  0  0  0  0  0  0  0  0
   38.1380   32.2120   38.9920 N   0  0  0  0  0  0  0  0  0  0  0  0
   37.6330   33.5110   39.3260 C   0  0  0  0  0  0  0  0  0  0  0  0
   38.4590   34.1590   40.4180 C   0  0  0  0  0  0  0  0  0  0  0  0
   38.9220   33.2650   41.4250 N   0  0  0  0  0  0  0  0  0  0  0  0
   39.6230   32.1340   40.9340 C   0  0  0  0  0  0  0  0  0  0  0  0
   39.5370   32.0790   39.4280 C   0  0  0  0  0  0  0  0  0  0  0  0
   36.5520   33.6090   39.4440 H   0  0  0  0  0  0  0  0  0  0  0  0
   37.8610   34.1420   38.4150 H   0  0  0  0  0  0  0  0  0  0  0  0
   37.7950   34.9130   40.9210 H   0  0  0  0  0  0  0  0  0  0  0  0
   39.3650   34.6830   40.0070 H   0  0  0  0  0  0  0  0  0  0  0  0
   39.4480   33.8150   42.1090 H   0  0  0  0  0  0  0  0  0  0  0  0
   40.6910   32.2550   41.2130 H   0  0  0  0  0  0  0  0  0  0  0  0
   39.2220   31.1570   41.3270 H   0  0  0  0  0  0  0  0  0  0  0  0
   39.8160   31.0360   39.1480 H   0  0  0  0  0  0  0  0  0  0  0  0
   40.1520   32.8440   38.9360 H   0  0  0  0  0  0  0  0  0  0  0  0
   35.6190   29.3430   41.0570 C   0  0  0  0  0  0  0  0  0  0  0  0
   35.2650   28.6230   40.2610 H   0  0  0  0  0  0  0  0  0  0  0  0
   34.7940   29.5190   41.7260 H   0  0  0  0  0  0  0  0  0  0  0  0
   38.5930   28.5720   43.2520 C   0  0  0  0  0  0  0  0  0  0  0  0
   37.6120   29.3020   42.5470 C   0  0  0  0  0  0  0  0  0  0  0  0
   36.6630   28.6000   41.7990 C   0  0  0  0  0  0  0  0  0  0  0  0
   36.7320   27.2280   41.7880 N   0  0  0  0  0  0  0  0  0  0  0  0
   37.6850   26.5750   42.4750 C   0  0  0  0  0  0  0  0  0  0  0  0
   38.6080   27.2360   43.2020 N   0  0  0  0  0  0  0  0  0  0  0  0
   39.3310   29.0990   43.8320 H   0  0  0  0  0  0  0  0  0  0  0  0
   37.6260   30.3870   42.6080 H   0  0  0  0  0  0  0  0  0  0  0  0
   37.5470   25.1010   42.3020 C   0  0  0  0  0  2  0  0  0  0  0  0
   38.4860   24.7180   41.1530 C   0  0  2  0  0  0  0  0  0  0  0  0
   38.2230   25.6320   40.0190 C   0  0  0  0  0  2  0  0  0  0  0  0
   37.6000   24.9690   38.9310 N   0  0  1  0  0  0  0  0  0  0  0  0
   37.1950   24.8250   37.5790 C   0  0  1  0  0  0  0  0  0  0  0  0
   36.8300   25.6000   36.6350 O   0  0  0  0  0  1  0  0  0  0  0  0
   37.3950   23.3430   37.7760 C   0  0  0  0  0  3  0  0  0  0  0  0
   36.7010   22.7260   37.1810 H   0  0  0  0  0  0  0  0  0  0  0  0
   36.9550   23.6780   39.1580 C   0  0  1  0  0  0  0  0  0  0  0  0
   38.0620   23.0820   40.5010 S   0  0  0  0  0  0  0  0  0  0  0  0
   39.9100   24.7630   41.6550 C   0  0  0  0  0  2  0  0  0  0  0  0
   40.4890   25.6210   41.3030 H   0  0  0  0  0  0  0  0  0  0  0  0
  1  3  1  0  0  0  0
  1  2  1  0  0  0  0
  1 29  1  0  0  0  0
  4  1  1  0  0  0  0
  5 10  1  0  0  0  0
  5  4  2  0  0  0  0
  6  5  1  0  0  0  0
  7  6  2  0  0  0  0
  7  8  1  0  0  0  0
  8  9  2  0  0  0  0
  9  4  1  0  0  0  0
  9 14  1  0  0  0  0
 11  6  1  0  0  0  0
 12  7  1  0  0  0  0
 13  8  1  0  0  0  0
 14 15  1  0  0  0  0
 14 19  1  0  0  0  0
 15 20  1  0  0  0  0
 15 16  1  0  0  0  0
 16 22  1  0  0  0  0
 16 17  1  0  0  0  0
 17 24  1  0  0  0  0
 18 25  1  0  0  0  0
 18 26  1  0  0  0  0
 18 17  1  0  0  0  0
 19 18  1  0  0  0  0
 21 15  1  0  0  0  0
 23 16  1  0  0  0  0
 27 19  1  0  0  0  0
 28 19  1  0  0  0  0
 29 31  1  0  0  0  0
 29 34  1  0  0  0  0
 30 29  1  0  0  0  0
 32 38  1  0  0  0  0
 33 39  1  0  0  0  0
 33 32  2  0  0  0  0
 34 33  1  0  0  0  0
 35 34  2  0  0  0  0
 35 36  1  0  0  0  0
 36 37  2  0  0  0  0
 37 32  1  0  0  0  0
 40 36  1  0  0  0  0
 41 50  1  1  0  0  0
 41 40  1  0  0  0  0
 42 41  1  0  0  0  0
 43 48  1  0  0  0  0
 43 42  1  6  0  0  0
 44 45  1  6  0  0  0
 44 46  1  0  0  0  0
 44 43  1  0  0  0  0
 44 48  1  0  0  0  0
 47 46  1  0  0  0  0
 48 46  1  6  0  0  0
 48 49  1  0  0  0  0
 49 41  1  0  0  0  0
 51 50  1  0  0  0  0
M  END
>  <minimizedAffinity>
-6.14438152

$$$$

 OpenBabel03252508243D

 51 56  0  0  1  0  0  0  0  0999 V2000
   36.7260   27.4220   42.7330 C   0  0  0  0  0  0  0  0  0  0  0  0
   35.7400   27.1250   43.1890 H   0  0  0  0  0  0  0  0  0  0  0  0
   37.3430   26.5180   42.7720 H   0  0  0  0  0  0  0  0  0  0  0  0
   36.4290   27.8960   41.3810 C   0  0  0  0  0  0  0  0  0  0  0  0
   35.7540   29.0650   41.1000 C   0  0  0  0  0  0  0  0  0  0  0  0
   35.4770   29.5180   39.8340 C   0  0  0  0  0  0  0  0  0  0  0  0
   35.9290   28.7050   38.7840 C   0  0  0  0  0  0  0  0  0  0  0  0
   36.6050   27.5320   39.0130 C   0  0  0  0  0  0  0  0  0  0  0  0
   36.8540   27.1260   40.2860 C   0  0  0  0  0  0  0  0  0  0  0  0
   35.3660   29.7390   41.8480 H   0  0  0  0  0  0  0  0  0  0  0  0
   34.9580   30.4180   39.5820 H   0  0  0  0  0  0  0  0  0  0  0  0
   35.7370   29.0160   37.7510 H   0  0  0  0  0  0  0  0  0  0  0  0
   36.9180   26.9630   38.1390 H   0  0  0  0  0  0  0  0  0  0  0  0
   37.5470   25.9040   40.4130 N   0  0  0  0  0  0  0  0  0  0  0  0
   38.9740   25.7760   40.4320 C   0  0  0  0  0  0  0  0  0  0  0  0
   39.4010   24.4630   41.0550 C   0  0  0  0  0  0  0  0  0  0  0  0
   38.6070   24.0410   42.1590 N   0  0  0  0  0  0  0  0  0  0  0  0
   37.2130   23.9900   41.9000 C   0  0  0  0  0  0  0  0  0  0  0  0
   36.9120   24.5830   40.5440 C   0  0  0  0  0  0  0  0  0  0  0  0
   39.5470   26.6480   40.7530 H   0  0  0  0  0  0  0  0  0  0  0  0
   39.2580   25.6550   39.3430 H   0  0  0  0  0  0  0  0  0  0  0  0
   40.4480   24.6110   41.4350 H   0  0  0  0  0  0  0  0  0  0  0  0
   39.3950   23.6210   40.3100 H   0  0  0  0  0  0  0  0  0  0  0  0
   38.9970   23.1610   42.5030 H   0  0  0  0  0  0  0  0  0  0  0  0
   36.9150   22.9210   41.8810 H   0  0  0  0  0  0  0  0  0  0  0  0
   36.5990   24.5560   42.6550 H   0  0  0  0  0  0  0  0  0  0  0  0
   35.8190   24.8000   40.5470 H   0  0  0  0  0  0  0  0  0  0  0  0
   37.2290   23.9370   39.7140 H   0  0  0  0  0  0  0  0  0  0  0  0
   37.3340   28.5100   43.5900 C   0  0  0  0  0  0  0  0  0  0  0  0
   37.4380   28.1550   44.6590 H   0  0  0  0  0  0  0  0  0  0  0  0
   36.8110   29.4500   43.6080 H   0  0  0  0  0  0  0  0  0  0  0  0
   41.0050   28.0270   42.8470 C   0  0  0  0  0  0  0  0  0  0  0  0
   39.6900   27.7650   43.2890 C   0  0  0  0  0  0  0  0  0  0  0  0
   38.7230   28.7630   43.1420 C   0  0  0  0  0  0  0  0  0  0  0  0
   39.1010   29.9550   42.5720 N   0  0  0  0  0  0  0  0  0  0  0  0
   40.3660   30.1590   42.1670 C   0  0  0  0  0  0  0  0  0  0  0  0
   41.3110   29.2080   42.3000 N   0  0  0  0  0  0  0  0  0  0  0  0
   41.7610   27.2690   42.9540 H   0  0  0  0  0  0  0  0  0  0  0  0
   39.4720   26.7960   43.7290 H   0  0  0  0  0  0  0  0  0  0  0  0
   40.5220   31.5240   41.5850 C   0  0  0  0  0  2  0  0  0  0  0  0
   40.4430   31.3480   40.0650 C   0  0  2  0  0  0  0  0  0  0  0  0
   41.8060   31.0640   39.5620 C   0  0  0  0  0  2  0  0  0  0  0  0
   42.3320   32.1430   38.8060 N   0  0  2  0  0  0  0  0  0  0  0  0
   43.2240   32.7460   37.8820 C   0  0  1  0  0  0  0  0  0  0  0  0
   44.4440   32.6000   37.5430 O   0  0  0  0  0  1  0  0  0  0  0  0
   42.0680   33.6340   37.4930 C   0  0  0  0  0  3  0  0  0  0  0  0
   42.3800   34.6460   37.1830 H   0  0  0  0  0  0  0  0  0  0  0  0
   41.7230   33.4650   38.9310 C   0  0  1  0  0  0  0  0  0  0  0  0
   40.0010   32.9120   39.2650 S   0  0  0  0  0  0  0  0  0  0  0  0
   39.4400   30.2630   39.7540 C   0  0  0  0  0  2  0  0  0  0  0  0
   39.8800   29.3160   39.4320 H   0  0  0  0  0  0  0  0  0  0  0  0
  1  3  1  0  0  0  0
  1  2  1  0  0  0  0
  1 29  1  0  0  0  0
  4  1  1  0  0  0  0
  5  4  1  0  0  0  0
  5 10  1  0  0  0  0
  6  5  2  0  0  0  0
  7  8  2  0  0  0  0
  7  6  1  0  0  0  0
  8  9  1  0  0  0  0
  9 14  1  0  0  0  0
  9  4  2  0  0  0  0
 11  6  1  0  0  0  0
 12  7  1  0  0  0  0
 13  8  1  0  0  0  0
 14 15  1  0  0  0  0
 14 19  1  0  0  0  0
 15 20  1  0  0  0  0
 15 16  1  0  0  0  0
 16 22  1  0  0  0  0
 16 17  1  0  0  0  0
 17 24  1  0  0  0  0
 18 17  1  0  0  0  0
 18 26  1  0  0  0  0
 19 27  1  0  0  0  0
 19 18  1  0  0  0  0
 21 15  1  0  0  0  0
 23 16  1  0  0  0  0
 25 18  1  0  0  0  0
 28 19  1  0  0  0  0
 29 31  1  0  0  0  0
 29 30  1  0  0  0  0
 32 38  1  0  0  0  0
 32 33  1  0  0  0  0
 33 39  1  0  0  0  0
 34 33  2  0  0  0  0
 34 29  1  0  0  0  0
 35 34  1  0  0  0  0
 36 37  1  0  0  0  0
 36 35  2  0  0  0  0
 37 32  2  0  0  0  0
 40 36  1  0  0  0  0
 41 50  1  6  0  0  0
 41 40  1  0  0  0  0
 42 41  1  0  0  0  0
 43 48  1  0  0  0  0
 43 42  1  1  0  0  0
 44 45  1  1  0  0  0
 44 43  1  0  0  0  0
 44 48  1  0  0  0  0
 46 44  1  0  0  0  0
 47 46  1  0  0  0  0
 48 46  1  6  0  0  0
 48 49  1  0  0  0  0
 49 41  1  0  0  0  0
 51 50  1  0  0  0  0
M  END
>  <minimizedAffinity>
-6.09196281

$$$$

 OpenBabel03252508243D

 51 56  0  0  1  0  0  0  0  0999 V2000
   37.1060   26.7500   42.6170 C   0  0  0  0  0  0  0  0  0  0  0  0
   36.2500   26.2120   43.1140 H   0  0  0  0  0  0  0  0  0  0  0  0
   37.8520   25.9740   42.4130 H   0  0  0  0  0  0  0  0  0  0  0  0
   36.5540   27.3910   41.4230 C   0  0  0  0  0  0  0  0  0  0  0  0
   35.7980   28.5440   41.4420 C   0  0  0  0  0  0  0  0  0  0  0  0
   35.2810   29.1530   40.3260 C   0  0  0  0  0  0  0  0  0  0  0  0
   35.5640   28.5250   39.1040 C   0  0  0  0  0  0  0  0  0  0  0  0
   36.3110   27.3760   39.0340 C   0  0  0  0  0  0  0  0  0  0  0  0
   36.8000   26.8110   40.1690 C   0  0  0  0  0  0  0  0  0  0  0  0
   35.5280   29.0810   42.3380 H   0  0  0  0  0  0  0  0  0  0  0  0
   34.6940   30.0460   40.3050 H   0  0  0  0  0  0  0  0  0  0  0  0
   35.1780   28.9660   38.1770 H   0  0  0  0  0  0  0  0  0  0  0  0
   36.4820   26.9560   38.0430 H   0  0  0  0  0  0  0  0  0  0  0  0
   37.5470   25.6280   39.9900 N   0  0  0  0  0  0  0  0  0  0  0  0
   38.9760   25.5740   39.8940 C   0  0  0  0  0  0  0  0  0  0  0  0
   39.4970   24.1840   40.1950 C   0  0  0  0  0  0  0  0  0  0  0  0
   38.8000   23.4980   41.2300 N   0  0  0  0  0  0  0  0  0  0  0  0
   37.3950   23.4290   41.0510 C   0  0  0  0  0  0  0  0  0  0  0  0
   36.9760   24.2770   39.8740 C   0  0  0  0  0  0  0  0  0  0  0  0
   39.5360   26.3880   40.3580 H   0  0  0  0  0  0  0  0  0  0  0  0
   39.1870   25.7000   38.7890 H   0  0  0  0  0  0  0  0  0  0  0  0
   40.5620   24.3040   40.5340 H   0  0  0  0  0  0  0  0  0  0  0  0
   39.4720   23.5190   39.2890 H   0  0  0  0  0  0  0  0  0  0  0  0
   39.2480   22.5870   41.3530 H   0  0  0  0  0  0  0  0  0  0  0  0
   37.1380   22.3730   40.8220 H   0  0  0  0  0  0  0  0  0  0  0  0
   36.8140   23.7900   41.9450 H   0  0  0  0  0  0  0  0  0  0  0  0
   35.8780   24.4300   39.9890 H   0  0  0  0  0  0  0  0  0  0  0  0
   37.2580   23.8380   38.9070 H   0  0  0  0  0  0  0  0  0  0  0  0
   37.6590   27.7630   43.5950 C   0  0  0  0  0  0  0  0  0  0  0  0
   37.7920   27.2930   44.6140 H   0  0  0  0  0  0  0  0  0  0  0  0
   37.0830   28.6630   43.7250 H   0  0  0  0  0  0  0  0  0  0  0  0
   41.3010   27.5530   42.6190 C   0  0  0  0  0  0  0  0  0  0  0  0
   40.0070   27.1630   43.0270 C   0  0  0  0  0  0  0  0  0  0  0  0
   39.0270   28.1480   43.1770 C   0  0  0  0  0  0  0  0  0  0  0  0
   39.3730   29.4520   42.9190 N   0  0  0  0  0  0  0  0  0  0  0  0
   40.6190   29.7770   42.5340 C   0  0  0  0  0  0  0  0  0  0  0  0
   41.5760   28.8400   42.3830 N   0  0  0  0  0  0  0  0  0  0  0  0
   42.0660   26.8060   42.5000 H   0  0  0  0  0  0  0  0  0  0  0  0
   39.8140   26.1090   43.2110 H   0  0  0  0  0  0  0  0  0  0  0  0
   40.7410   31.2470   42.3170 C   0  0  0  0  0  2  0  0  0  0  0  0
   40.6420   31.4620   40.8030 C   0  0  2  0  0  0  0  0  0  0  0  0
   39.9850   32.7670   40.5650 C   0  0  0  0  0  2  0  0  0  0  0  0
   38.6830   32.6200   40.0210 N   0  0  2  0  0  0  0  0  0  0  0  0
   37.5160   33.0660   39.3500 C   0  0  1  0  0  0  0  0  0  0  0  0
   36.8630   34.1570   39.2540 O   0  0  0  0  0  1  0  0  0  0  0  0
   37.4070   31.6620   38.8090 C   0  0  0  0  0  3  0  0  0  0  0  0
   36.3650   31.3340   38.6530 H   0  0  0  0  0  0  0  0  0  0  0  0
   38.0090   31.3280   40.1290 C   0  0  1  0  0  0  0  0  0  0  0  0
   39.5060   30.2620   40.0610 S   0  0  0  0  0  0  0  0  0  0  0  0
   42.0260   31.3580   40.2070 C   0  0  0  0  0  2  0  0  0  0  0  0
   42.4640   32.3130   39.9050 H   0  0  0  0  0  0  0  0  0  0  0  0
  1  2  1  0  0  0  0
  1 29  1  0  0  0  0
  3  1  1  0  0  0  0
  4  5  1  0  0  0  0
  4  1  1  0  0  0  0
  5 10  1  0  0  0  0
  6  5  2  0  0  0  0
  7  6  1  0  0  0  0
  8  7  2  0  0  0  0
  8  9  1  0  0  0  0
  9  4  2  0  0  0  0
 11  6  1  0  0  0  0
 12  7  1  0  0  0  0
 13  8  1  0  0  0  0
 14  9  1  0  0  0  0
 15 14  1  0  0  0  0
 15 16  1  0  0  0  0
 15 20  1  0  0  0  0
 16 22  1  0  0  0  0
 16 17  1  0  0  0  0
 17 24  1  0  0  0  0
 18 17  1  0  0  0  0
 18 26  1  0  0  0  0
 19 27  1  0  0  0  0
 19 14  1  0  0  0  0
 19 18  1  0  0  0  0
 21 15  1  0  0  0  0
 23 16  1  0  0  0  0
 25 18  1  0  0  0  0
 28 19  1  0  0  0  0
 29 31  1  0  0  0  0
 29 30  1  0  0  0  0
 32 33  1  0  0  0  0
 33 34  2  0  0  0  0
 33 39  1  0  0  0  0
 34 29  1  0  0  0  0
 35 34  1  0  0  0  0
 36 35  2  0  0  0  0
 37 36  1  0  0  0  0
 37 32  2  0  0  0  0
 38 32  1  0  0  0  0
 40 36  1  0  0  0  0
 41 50  1  6  0  0  0
 41 40  1  0  0  0  0
 42 41  1  0  0  0  0
 43 48  1  0  0  0  0
 43 42  1  1  0  0  0
 44 45  1  1  0  0  0
 44 43  1  0  0  0  0
 44 48  1  0  0  0  0
 46 44  1  0  0  0  0
 47 46  1  0  0  0  0
 48 46  1  6  0  0  0
 49 48  1  0  0  0  0
 49 41  1  0  0  0  0
 51 50  1  0  0  0  0
M  END
>  <minimizedAffinity>
-6.07327986

$$$$

 OpenBabel03252508243D

 51 56  0  0  1  0  0  0  0  0999 V2000
   37.7140   31.3360   37.6660 C   0  0  0  0  0  0  0  0  0  0  0  0
   37.1630   31.0830   36.7170 H   0  0  0  0  0  0  0  0  0  0  0  0
   37.7520   32.4300   37.6920 H   0  0  0  0  0  0  0  0  0  0  0  0
   36.9540   30.7290   38.7590 C   0  0  0  0  0  0  0  0  0  0  0  0
   36.8810   31.2480   40.0340 C   0  0  0  0  0  0  0  0  0  0  0  0
   36.1670   30.6850   41.0620 C   0  0  0  0  0  0  0  0  0  0  0  0
   35.4800   29.5030   40.7510 C   0  0  0  0  0  0  0  0  0  0  0  0
   35.5230   28.9470   39.4970 C   0  0  0  0  0  0  0  0  0  0  0  0
   36.2460   29.5420   38.5120 C   0  0  0  0  0  0  0  0  0  0  0  0
   37.3860   32.1450   40.3560 H   0  0  0  0  0  0  0  0  0  0  0  0
   36.0880   31.0620   42.0600 H   0  0  0  0  0  0  0  0  0  0  0  0
   34.8910   29.0080   41.5330 H   0  0  0  0  0  0  0  0  0  0  0  0
   34.9600   28.0270   39.3440 H   0  0  0  0  0  0  0  0  0  0  0  0
   36.2320   28.8870   37.2630 N   0  0  0  0  0  0  0  0  0  0  0  0
   35.4740   29.3200   36.1260 C   0  0  0  0  0  0  0  0  0  0  0  0
   36.0240   28.7340   34.8420 C   0  0  0  0  0  0  0  0  0  0  0  0
   37.4440   28.6400   34.7910 N   0  0  0  0  0  0  0  0  0  0  0  0
   38.0310   27.9610   35.8890 C   0  0  0  0  0  0  0  0  0  0  0  0
   36.9880   27.6670   36.9400 C   0  0  0  0  0  0  0  0  0  0  0  0
   35.2130   30.3780   36.0770 H   0  0  0  0  0  0  0  0  0  0  0  0
   34.4740   28.8020   36.2430 H   0  0  0  0  0  0  0  0  0  0  0  0
   35.7060   29.4210   34.0110 H   0  0  0  0  0  0  0  0  0  0  0  0
   35.6220   27.7030   34.6420 H   0  0  0  0  0  0  0  0  0  0  0  0
   37.6960   28.2500   33.8790 H   0  0  0  0  0  0  0  0  0  0  0  0
   38.4230   26.9920   35.5130 H   0  0  0  0  0  0  0  0  0  0  0  0
   38.8510   28.5490   36.3890 H   0  0  0  0  0  0  0  0  0  0  0  0
   37.5550   27.4380   37.8720 H   0  0  0  0  0  0  0  0  0  0  0  0
   36.2930   26.8700   36.6430 H   0  0  0  0  0  0  0  0  0  0  0  0
   39.1120   30.7650   37.5670 C   0  0  0  0  0  0  0  0  0  0  0  0
   39.5740   31.0290   36.5690 H   0  0  0  0  0  0  0  0  0  0  0  0
   39.2020   29.7000   37.6950 H   0  0  0  0  0  0  0  0  0  0  0  0
   40.8060   33.4240   39.6450 C   0  0  0  0  0  0  0  0  0  0  0  0
   39.9770   32.8180   38.6760 C   0  0  0  0  0  0  0  0  0  0  0  0
   39.9790   31.4250   38.5690 C   0  0  0  0  0  0  0  0  0  0  0  0
   40.7920   30.7110   39.4160 N   0  0  0  0  0  0  0  0  0  0  0  0
   41.5660   31.3320   40.3230 C   0  0  0  0  0  0  0  0  0  0  0  0
   41.5750   32.6740   40.4410 N   0  0  0  0  0  0  0  0  0  0  0  0
   40.8150   34.4960   39.7390 H   0  0  0  0  0  0  0  0  0  0  0  0
   39.3630   33.4550   38.0450 H   0  0  0  0  0  0  0  0  0  0  0  0
   42.3500   30.3420   41.1160 C   0  0  0  0  0  2  0  0  0  0  0  0
   41.6940   30.2930   42.5010 C   0  0  2  0  0  0  0  0  0  0  0  0
   41.6740   28.8830   42.9510 C   0  0  0  0  0  2  0  0  0  0  0  0
   40.3610   28.3470   42.9740 N   0  0  1  0  0  0  0  0  0  0  0  0
   39.3640   27.4130   43.3560 C   0  0  1  0  0  0  0  0  0  0  0  0
   39.3140   26.1650   43.6090 O   0  0  0  0  0  1  0  0  0  0  0  0
   38.4000   28.5730   43.3220 C   0  0  0  0  0  3  0  0  0  0  0  0
   37.3790   28.2830   43.0220 H   0  0  0  0  0  0  0  0  0  0  0  0
   39.3030   29.0230   42.2270 C   0  0  1  0  0  0  0  0  0  0  0  0
   39.9420   30.7390   42.3920 S   0  0  0  0  0  0  0  0  0  0  0  0
   42.4470   31.2190   43.4270 C   0  0  0  0  0  2  0  0  0  0  0  0
   43.0820   30.7130   44.1580 H   0  0  0  0  0  0  0  0  0  0  0  0
  1  3  1  0  0  0  0
  1  4  1  0  0  0  0
  2  1  1  0  0  0  0
  4  5  1  0  0  0  0
  5 10  1  0  0  0  0
  5  6  2  0  0  0  0
  6 11  1  0  0  0  0
  7  6  1  0  0  0  0
  7 12  1  0  0  0  0
  8  7  2  0  0  0  0
  9  4  2  0  0  0  0
  9  8  1  0  0  0  0
 13  8  1  0  0  0  0
 14  9  1  0  0  0  0
 15 21  1  0  0  0  0
 15 14  1  0  0  0  0
 16 15  1  0  0  0  0
 17 16  1  0  0  0  0
 17 18  1  0  0  0  0
 18 26  1  0  0  0  0
 18 19  1  0  0  0  0
 19 14  1  0  0  0  0
 19 27  1  0  0  0  0
 20 15  1  0  0  0  0
 22 16  1  0  0  0  0
 23 16  1  0  0  0  0
 24 17  1  0  0  0  0
 25 18  1  0  0  0  0
 28 19  1  0  0  0  0
 29  1  1  0  0  0  0
 29 31  1  0  0  0  0
 29 34  1  0  0  0  0
 30 29  1  0  0  0  0
 32 38  1  0  0  0  0
 32 37  1  0  0  0  0
 33 32  2  0  0  0  0
 34 33  1  0  0  0  0
 34 35  2  0  0  0  0
 35 36  1  0  0  0  0
 36 37  2  0  0  0  0
 36 40  1  0  0  0  0
 39 33  1  0  0  0  0
 41 40  1  6  0  0  0
 41 42  1  0  0  0  0
 41 50  1  0  0  0  0
 43 42  1  1  0  0  0
 43 44  1  0  0  0  0
 44 45  1  6  0  0  0
 46 44  1  0  0  0  0
 47 46  1  0  0  0  0
 48 49  1  6  0  0  0
 48 43  1  0  0  0  0
 48 46  1  0  0  0  0
 48 44  1  0  0  0  0
 49 41  1  0  0  0  0
 50 51  1  0  0  0  0
M  END
>  <minimizedAffinity>
-5.9599824

$$$$

 OpenBabel03252508243D

 51 56  0  0  1  0  0  0  0  0999 V2000
   39.4820   30.2150   41.0480 C   0  0  0  0  0  0  0  0  0  0  0  0
   38.9540   29.4270   40.4410 H   0  0  0  0  0  0  0  0  0  0  0  0
   40.5430   30.1000   40.8050 H   0  0  0  0  0  0  0  0  0  0  0  0
   38.9020   31.4990   40.6520 C   0  0  0  0  0  0  0  0  0  0  0  0
   39.4390   32.7260   40.9810 C   0  0  0  0  0  0  0  0  0  0  0  0
   38.9030   33.9330   40.6090 C   0  0  0  0  0  0  0  0  0  0  0  0
   37.7300   33.8690   39.8430 C   0  0  0  0  0  0  0  0  0  0  0  0
   37.1570   32.6720   39.4900 C   0  0  0  0  0  0  0  0  0  0  0  0
   37.7270   31.5020   39.8850 C   0  0  0  0  0  0  0  0  0  0  0  0
   40.3300   32.8610   41.5740 H   0  0  0  0  0  0  0  0  0  0  0  0
   39.2930   34.9000   40.8450 H   0  0  0  0  0  0  0  0  0  0  0  0
   37.2560   34.8020   39.5150 H   0  0  0  0  0  0  0  0  0  0  0  0
   36.2470   32.7150   38.8950 H   0  0  0  0  0  0  0  0  0  0  0  0
   37.0570   30.3290   39.4790 N   0  0  0  0  0  0  0  0  0  0  0  0
   35.9390   29.7510   40.1640 C   0  0  0  0  0  0  0  0  0  0  0  0
   35.1550   28.8250   39.2580 C   0  0  0  0  0  0  0  0  0  0  0  0
   35.0470   29.2640   37.9080 N   0  0  0  0  0  0  0  0  0  0  0  0
   36.2830   29.5720   37.2850 C   0  0  0  0  0  0  0  0  0  0  0  0
   37.4030   29.5250   38.2960 C   0  0  0  0  0  0  0  0  0  0  0  0
   35.3330   30.4200   40.7780 H   0  0  0  0  0  0  0  0  0  0  0  0
   36.4060   29.0480   40.9170 H   0  0  0  0  0  0  0  0  0  0  0  0
   34.1130   28.7700   39.6740 H   0  0  0  0  0  0  0  0  0  0  0  0
   35.5950   27.7910   39.2290 H   0  0  0  0  0  0  0  0  0  0  0  0
   34.4870   28.5740   37.4010 H   0  0  0  0  0  0  0  0  0  0  0  0
   36.4770   28.7900   36.5210 H   0  0  0  0  0  0  0  0  0  0  0  0
   36.3020   30.5950   36.8140 H   0  0  0  0  0  0  0  0  0  0  0  0
   38.2540   30.0730   37.8290 H   0  0  0  0  0  0  0  0  0  0  0  0
   37.6580   28.5020   38.6060 H   0  0  0  0  0  0  0  0  0  0  0  0
   39.2460   29.9190   42.5130 C   0  0  0  0  0  0  0  0  0  0  0  0
   38.5800   30.7090   42.9710 H   0  0  0  0  0  0  0  0  0  0  0  0
   40.1240   29.8360   43.1300 H   0  0  0  0  0  0  0  0  0  0  0  0
   36.5490   27.4440   43.4400 C   0  0  0  0  0  0  0  0  0  0  0  0
   37.2690   28.6540   43.3410 C   0  0  0  0  0  0  0  0  0  0  0  0
   38.4760   28.6600   42.6380 C   0  0  0  0  0  0  0  0  0  0  0  0
   38.9040   27.4820   42.0730 N   0  0  0  0  0  0  0  0  0  0  0  0
   38.1850   26.3530   42.1940 C   0  0  0  0  0  0  0  0  0  0  0  0
   37.0180   26.3300   42.8690 N   0  0  0  0  0  0  0  0  0  0  0  0
   35.6180   27.4230   43.9790 H   0  0  0  0  0  0  0  0  0  0  0  0
   36.8610   29.5420   43.8170 H   0  0  0  0  0  0  0  0  0  0  0  0
   38.8580   25.2190   41.4980 C   0  0  0  0  0  2  0  0  0  0  0  0
   38.2460   25.1600   40.0940 C   0  0  2  0  0  0  0  0  0  0  0  0
   36.7730   25.1210   40.2350 C   0  0  0  0  0  2  0  0  0  0  0  0
   36.2330   23.8610   39.8690 N   0  0  1  0  0  0  0  0  0  0  0  0
   35.1950   22.9740   39.4840 C   0  0  1  0  0  0  0  0  0  0  0  0
   33.9480   22.8530   39.7160 O   0  0  0  0  0  1  0  0  0  0  0  0
   36.2460   22.2470   38.6810 C   0  0  0  0  0  3  0  0  0  0  0  0
   36.0680   21.1600   38.6130 H   0  0  0  0  0  0  0  0  0  0  0  0
   37.1180   22.7010   39.7980 C   0  0  1  0  0  0  0  0  0  0  0  0
   38.6470   23.5870   39.2900 S   0  0  0  0  0  0  0  0  0  0  0  0
   38.7510   26.3370   39.2950 C   0  0  0  0  0  2  0  0  0  0  0  0
   38.0160   27.1310   39.1400 H   0  0  0  0  0  0  0  0  0  0  0  0
  1 29  1  0  0  0  0
  2  1  1  0  0  0  0
  3  1  1  0  0  0  0
  4  5  1  0  0  0  0
  4  1  1  0  0  0  0
  5 10  1  0  0  0  0
  6 11  1  0  0  0  0
  6  5  2  0  0  0  0
  7  6  1  0  0  0  0
  8  7  2  0  0  0  0
  8  9  1  0  0  0  0
  9  4  2  0  0  0  0
 12  7  1  0  0  0  0
 13  8  1  0  0  0  0
 14  9  1  0  0  0  0
 14 15  1  0  0  0  0
 15 20  1  0  0  0  0
 15 21  1  0  0  0  0
 16 22  1  0  0  0  0
 16 15  1  0  0  0  0
 17 16  1  0  0  0  0
 18 17  1  0  0  0  0
 18 19  1  0  0  0  0
 19 28  1  0  0  0  0
 19 14  1  0  0  0  0
 23 16  1  0  0  0  0
 24 17  1  0  0  0  0
 25 18  1  0  0  0  0
 26 18  1  0  0  0  0
 27 19  1  0  0  0  0
 29 34  1  0  0  0  0
 29 30  1  0  0  0  0
 29 31  1  0  0  0  0
 32 38  1  0  0  0  0
 33 32  1  0  0  0  0
 33 39  1  0  0  0  0
 34 33  2  0  0  0  0
 35 36  2  0  0  0  0
 35 34  1  0  0  0  0
 36 37  1  0  0  0  0
 37 32  2  0  0  0  0
 40 36  1  0  0  0  0
 41 50  1  6  0  0  0
 41 42  1  0  0  0  0
 41 40  1  0  0  0  0
 43 42  1  6  0  0  0
 44 45  1  1  0  0  0
 44 48  1  0  0  0  0
 44 43  1  0  0  0  0
 46 44  1  0  0  0  0
 47 46  1  0  0  0  0
 48 46  1  6  0  0  0
 48 43  1  0  0  0  0
 49 48  1  0  0  0  0
 49 41  1  0  0  0  0
 51 50  1  0  0  0  0
M  END
>  <minimizedAffinity>
-5.88985205

$$$$

 OpenBabel03252508243D

 51 56  0  0  1  0  0  0  0  0999 V2000
   35.9310   28.9320   40.1970 C   0  0  0  0  0  0  0  0  0  0  0  0
   34.8270   28.9900   39.9830 H   0  0  0  0  0  0  0  0  0  0  0  0
   36.2830   28.0520   39.6470 H   0  0  0  0  0  0  0  0  0  0  0  0
   36.5070   30.1990   39.7480 C   0  0  0  0  0  0  0  0  0  0  0  0
   36.7170   31.2890   40.5660 C   0  0  0  0  0  0  0  0  0  0  0  0
   37.2610   32.4790   40.1520 C   0  0  0  0  0  0  0  0  0  0  0  0
   37.6120   32.5490   38.7960 C   0  0  0  0  0  0  0  0  0  0  0  0
   37.4220   31.4920   37.9410 C   0  0  0  0  0  0  0  0  0  0  0  0
   36.8780   30.3340   38.4010 C   0  0  0  0  0  0  0  0  0  0  0  0
   36.4660   31.3200   41.6160 H   0  0  0  0  0  0  0  0  0  0  0  0
   37.4380   33.3410   40.7590 H   0  0  0  0  0  0  0  0  0  0  0  0
   38.0520   33.4750   38.4070 H   0  0  0  0  0  0  0  0  0  0  0  0
   37.7230   31.6330   36.9040 H   0  0  0  0  0  0  0  0  0  0  0  0
   36.7170   29.3120   37.4420 N   0  0  0  0  0  0  0  0  0  0  0  0
   35.6870   29.2850   36.4460 C   0  0  0  0  0  0  0  0  0  0  0  0
   36.0530   28.3670   35.2990 C   0  0  0  0  0  0  0  0  0  0  0  0
   37.4290   28.3870   34.9360 N   0  0  0  0  0  0  0  0  0  0  0  0
   38.3270   28.1540   36.0090 C   0  0  0  0  0  0  0  0  0  0  0  0
   37.5780   28.1240   37.3190 C   0  0  0  0  0  0  0  0  0  0  0  0
   35.2550   30.2440   36.1520 H   0  0  0  0  0  0  0  0  0  0  0  0
   34.8270   28.7470   36.9480 H   0  0  0  0  0  0  0  0  0  0  0  0
   35.4680   28.7170   34.4050 H   0  0  0  0  0  0  0  0  0  0  0  0
   35.7880   27.2950   35.5140 H   0  0  0  0  0  0  0  0  0  0  0  0
   37.5510   27.7470   34.1470 H   0  0  0  0  0  0  0  0  0  0  0  0
   38.7840   27.1540   35.8520 H   0  0  0  0  0  0  0  0  0  0  0  0
   39.1260   28.9420   36.1000 H   0  0  0  0  0  0  0  0  0  0  0  0
   38.3500   28.2600   38.1110 H   0  0  0  0  0  0  0  0  0  0  0  0
   36.9740   27.2160   37.4470 H   0  0  0  0  0  0  0  0  0  0  0  0
   36.1140   28.7260   41.6850 C   0  0  0  0  0  0  0  0  0  0  0  0
   35.1760   28.2900   42.1390 H   0  0  0  0  0  0  0  0  0  0  0  0
   36.3780   29.5990   42.2570 H   0  0  0  0  0  0  0  0  0  0  0  0
   39.3800   27.0740   42.6130 C   0  0  0  0  0  0  0  0  0  0  0  0
   38.4070   28.0740   42.3990 C   0  0  0  0  0  0  0  0  0  0  0  0
   37.1540   27.6960   41.9100 C   0  0  0  0  0  0  0  0  0  0  0  0
   36.9300   26.3640   41.6610 N   0  0  0  0  0  0  0  0  0  0  0  0
   37.8870   25.4460   41.8790 C   0  0  0  0  0  0  0  0  0  0  0  0
   39.1010   25.7930   42.3510 N   0  0  0  0  0  0  0  0  0  0  0  0
   40.3500   27.3490   42.9890 H   0  0  0  0  0  0  0  0  0  0  0  0
   38.6640   29.1060   42.6220 H   0  0  0  0  0  0  0  0  0  0  0  0
   37.4000   24.0800   41.5330 C   0  0  0  0  0  2  0  0  0  0  0  0
   37.6220   23.9200   40.0250 C   0  0  2  0  0  0  0  0  0  0  0  0
   37.0260   25.0910   39.3440 C   0  0  0  0  0  2  0  0  0  0  0  0
   35.8680   24.7450   38.6000 N   0  0  2  0  0  0  0  0  0  0  0  0
   34.8670   24.9520   37.6170 C   0  0  1  0  0  0  0  0  0  0  0  0
   34.2460   25.9500   37.1240 O   0  0  0  0  0  1  0  0  0  0  0  0
   34.8800   23.4550   37.4270 C   0  0  0  0  0  3  0  0  0  0  0  0
   33.8960   23.0420   37.1480 H   0  0  0  0  0  0  0  0  0  0  0  0
   35.1910   23.4820   38.8830 C   0  0  1  0  0  0  0  0  0  0  0  0
   36.6730   22.5160   39.3860 S   0  0  0  0  0  0  0  0  0  0  0  0
   39.1010   23.7530   39.7680 C   0  0  0  0  0  2  0  0  0  0  0  0
   39.5890   24.6300   39.3360 H   0  0  0  0  0  0  0  0  0  0  0  0
  1 29  1  0  0  0  0
  2  1  1  0  0  0  0
  3  1  1  0  0  0  0
  4  1  1  0  0  0  0
  4  5  1  0  0  0  0
  5 10  1  0  0  0  0
  6  5  2  0  0  0  0
  6 11  1  0  0  0  0
  7  6  1  0  0  0  0
  8  9  1  0  0  0  0
  8  7  2  0  0  0  0
  9  4  2  0  0  0  0
 12  7  1  0  0  0  0
 13  8  1  0  0  0  0
 14  9  1  0  0  0  0
 15 21  1  0  0  0  0
 15 14  1  0  0  0  0
 16 23  1  0  0  0  0
 16 15  1  0  0  0  0
 17 16  1  0  0  0  0
 17 18  1  0  0  0  0
 18 26  1  0  0  0  0
 18 19  1  0  0  0  0
 19 14  1  0  0  0  0
 19 28  1  0  0  0  0
 19 27  1  0  0  0  0
 20 15  1  0  0  0  0
 22 16  1  0  0  0  0
 24 17  1  0  0  0  0
 25 18  1  0  0  0  0
 29 34  1  0  0  0  0
 29 30  1  0  0  0  0
 29 31  1  0  0  0  0
 32 38  1  0  0  0  0
 33 32  1  0  0  0  0
 33 39  1  0  0  0  0
 34 33  2  0  0  0  0
 35 36  2  0  0  0  0
 35 34  1  0  0  0  0
 36 37  1  0  0  0  0
 37 32  2  0  0  0  0
 40 36  1  0  0  0  0
 41 50  1  6  0  0  0
 41 40  1  0  0  0  0
 42 41  1  0  0  0  0
 43 48  1  0  0  0  0
 43 42  1  1  0  0  0
 44 45  1  6  0  0  0
 44 43  1  0  0  0  0
 44 48  1  0  0  0  0
 46 44  1  0  0  0  0
 47 46  1  0  0  0  0
 48 46  1  6  0  0  0
 48 49  1  0  0  0  0
 49 41  1  0  0  0  0
 51 50  1  0  0  0  0
M  END
>  <minimizedAffinity>
-5.84407282

$$$$

 OpenBabel03252508243D

 51 56  0  0  1  0  0  0  0  0999 V2000
   36.8500   27.6550   40.1900 C   0  0  0  0  0  0  0  0  0  0  0  0
   35.7990   27.7270   39.7920 H   0  0  0  0  0  0  0  0  0  0  0  0
   36.8780   28.3330   41.0500 H   0  0  0  0  0  0  0  0  0  0  0  0
   37.0720   26.2460   40.5190 C   0  0  0  0  0  0  0  0  0  0  0  0
   36.4850   25.1930   39.8500 C   0  0  0  0  0  0  0  0  0  0  0  0
   36.6920   23.8700   40.1510 C   0  0  0  0  0  0  0  0  0  0  0  0
   37.5670   23.6180   41.2180 C   0  0  0  0  0  0  0  0  0  0  0  0
   38.1740   24.6320   41.9150 C   0  0  0  0  0  0  0  0  0  0  0  0
   37.9360   25.9270   41.5780 C   0  0  0  0  0  0  0  0  0  0  0  0
   35.7950   25.3020   39.0280 H   0  0  0  0  0  0  0  0  0  0  0  0
   36.2560   23.0300   39.6540 H   0  0  0  0  0  0  0  0  0  0  0  0
   37.7710   22.5790   41.5040 H   0  0  0  0  0  0  0  0  0  0  0  0
   38.8380   24.3460   42.7290 H   0  0  0  0  0  0  0  0  0  0  0  0
   38.6010   26.8940   42.3600 N   0  0  0  0  0  0  0  0  0  0  0  0
   39.9050   27.4160   42.0740 C   0  0  0  0  0  0  0  0  0  0  0  0
   40.1350   28.7390   42.7730 C   0  0  0  0  0  0  0  0  0  0  0  0
   38.9950   29.5910   42.8260 N   0  0  0  0  0  0  0  0  0  0  0  0
   37.8310   28.9870   43.3660 C   0  0  0  0  0  0  0  0  0  0  0  0
   38.0610   27.5110   43.5830 C   0  0  0  0  0  0  0  0  0  0  0  0
   40.2380   27.3770   41.0350 H   0  0  0  0  0  0  0  0  0  0  0  0
   40.6110   26.7110   42.6090 H   0  0  0  0  0  0  0  0  0  0  0  0
   40.9270   29.2810   42.1880 H   0  0  0  0  0  0  0  0  0  0  0  0
   40.4880   28.6030   43.8310 H   0  0  0  0  0  0  0  0  0  0  0  0
   39.2740   30.4530   43.3010 H   0  0  0  0  0  0  0  0  0  0  0  0
   37.6410   29.4540   44.3560 H   0  0  0  0  0  0  0  0  0  0  0  0
   36.9270   29.0900   42.7030 H   0  0  0  0  0  0  0  0  0  0  0  0
   37.0470   27.0610   43.6940 H   0  0  0  0  0  0  0  0  0  0  0  0
   38.7290   27.3000   44.4290 H   0  0  0  0  0  0  0  0  0  0  0  0
   37.7970   28.1370   39.1130 C   0  0  0  0  0  0  0  0  0  0  0  0
   37.3260   28.0160   38.0930 H   0  0  0  0  0  0  0  0  0  0  0  0
   38.7640   27.6650   39.0830 H   0  0  0  0  0  0  0  0  0  0  0  0
   37.1630   31.8590   39.1560 C   0  0  0  0  0  0  0  0  0  0  0  0
   36.9470   30.4730   38.9990 C   0  0  0  0  0  0  0  0  0  0  0  0
   38.0020   29.5960   39.2620 C   0  0  0  0  0  0  0  0  0  0  0  0
   39.2040   30.1290   39.6620 N   0  0  0  0  0  0  0  0  0  0  0  0
   39.3640   31.4560   39.7970 C   0  0  0  0  0  0  0  0  0  0  0  0
   38.3560   32.3170   39.5480 N   0  0  0  0  0  0  0  0  0  0  0  0
   36.3600   32.5470   38.9560 H   0  0  0  0  0  0  0  0  0  0  0  0
   35.9650   30.1320   38.6780 H   0  0  0  0  0  0  0  0  0  0  0  0
   40.7500   31.7810   40.2400 C   0  0  0  0  0  2  0  0  0  0  0  0
   41.3980   32.5460   39.0800 C   0  0  2  0  0  0  0  0  0  0  0  0
   41.1500   31.7880   37.8330 C   0  0  0  0  0  2  0  0  0  0  0  0
   42.3350   31.2050   37.3170 N   0  0  2  0  0  0  0  0  0  0  0  0
   43.1370   30.6070   36.3110 C   0  0  1  0  0  0  0  0  0  0  0  0
   42.9480   29.8360   35.3130 O   0  0  0  0  0  1  0  0  0  0  0  0
   44.3060   31.3000   36.9650 C   0  0  0  0  0  3  0  0  0  0  0  0
   45.2490   30.7330   36.8870 H   0  0  0  0  0  0  0  0  0  0  0  0
   43.4960   31.0580   38.1910 C   0  0  1  0  0  0  0  0  0  0  0  0
   43.2020   32.5390   39.2410 S   0  0  0  0  0  0  0  0  0  0  0  0
   40.8470   33.9520   39.0600 C   0  0  0  0  0  2  0  0  0  0  0  0
   40.1330   34.1490   38.2570 H   0  0  0  0  0  0  0  0  0  0  0  0
  1  4  1  0  0  0  0
  1  3  1  0  0  0  0
  2  1  1  0  0  0  0
  4  9  1  0  0  0  0
  5  6  1  0  0  0  0
  5  4  2  0  0  0  0
  6  7  2  0  0  0  0
  7 12  1  0  0  0  0
  7  8  1  0  0  0  0
  8 13  1  0  0  0  0
  9  8  2  0  0  0  0
  9 14  1  0  0  0  0
 10  5  1  0  0  0  0
 11  6  1  0  0  0  0
 14 19  1  0  0  0  0
 15 14  1  0  0  0  0
 15 21  1  0  0  0  0
 15 16  1  0  0  0  0
 16 17  1  0  0  0  0
 16 23  1  0  0  0  0
 17 24  1  0  0  0  0
 17 18  1  0  0  0  0
 18 19  1  0  0  0  0
 18 25  1  0  0  0  0
 19 27  1  0  0  0  0
 19 28  1  0  0  0  0
 20 15  1  0  0  0  0
 22 16  1  0  0  0  0
 26 18  1  0  0  0  0
 29 34  1  0  0  0  0
 29  1  1  0  0  0  0
 30 29  1  0  0  0  0
 31 29  1  0  0  0  0
 32 37  1  0  0  0  0
 33 32  2  0  0  0  0
 33 34  1  0  0  0  0
 34 35  2  0  0  0  0
 35 36  1  0  0  0  0
 36 40  1  0  0  0  0
 37 36  2  0  0  0  0
 38 32  1  0  0  0  0
 39 33  1  0  0  0  0
 41 50  1  6  0  0  0
 41 49  1  0  0  0  0
 41 40  1  0  0  0  0
 42 41  1  0  0  0  0
 43 42  1  1  0  0  0
 43 48  1  0  0  0  0
 44 45  1  6  0  0  0
 44 46  1  0  0  0  0
 44 43  1  0  0  0  0
 44 48  1  0  0  0  0
 47 46  1  0  0  0  0
 48 46  1  6  0  0  0
 48 49  1  0  0  0  0
 51 50  1  0  0  0  0
M  END
>  <minimizedAffinity>
-5.81801653

$$$$
