
     RDKit          3D

 31 33  0  0  0  0  0  0  0  0999 V2000
   45.1984   35.9694   43.3698 C   0  0  0  0  0  0  0  0  0  0  0  0
   46.0835   34.9021   43.1555 C   0  0  0  0  0  0  0  0  0  0  0  0
   46.2535   33.9505   44.1673 C   0  0  0  0  0  0  0  0  0  0  0  0
   45.5461   34.1143   45.3104 N   0  0  0  0  0  0  0  0  0  0  0  0
   44.6998   35.1527   45.4903 C   0  0  0  0  0  0  0  0  0  0  0  0
   44.5290   36.0732   44.5239 N   0  0  0  0  0  0  0  0  0  0  0  0
   46.8010   34.7981   41.9080 C   0  0  0  0  0  0  0  0  0  0  0  0
   47.9177   35.3926   41.8477 O   0  0  0  0  0  0  0  0  0  0  0  0
   45.0420   36.7181   42.6179 H   0  0  0  0  0  0  0  0  0  0  0  0
   46.9360   33.1308   43.9971 H   0  0  0  0  0  0  0  0  0  0  0  0
   44.2506   35.0740   46.4739 H   0  0  0  0  0  0  0  0  0  0  0  0
   48.1020   31.8021   36.7207 C   0  0  0  0  0  0  0  0  0  0  0  0
   48.4095   30.7408   36.9285 H   0  0  0  0  0  0  0  0  0  0  0  0
   47.1034   32.1666   37.8155 C   0  0  0  0  0  0  0  0  0  0  0  0
   46.2976   30.9775   38.2279 C   0  0  0  0  0  0  0  0  0  0  0  0
   46.9178   30.0629   37.9959 H   0  0  0  0  0  0  0  0  0  0  0  0
   46.3444   33.4099   37.5490 C   0  0  0  0  0  0  0  0  0  0  0  0
   46.0466   34.0817   38.7630 N   0  0  0  0  0  0  0  0  0  0  0  0
   45.3977   34.7833   39.8173 C   0  0  0  0  0  0  0  0  0  0  0  0
   44.4778   35.6689   39.8117 O   0  0  0  0  0  0  0  0  0  0  0  0
   46.2485   34.0324   40.7652 C   0  0  1  0  0  0  0  0  0  0  0  0
   47.2089   34.1231   39.5842 C   0  0  1  0  0  0  0  0  0  0  0  0
   48.1444   32.6402   39.2521 S   0  0  0  0  0  0  0  0  0  0  0  0
   47.6187   31.8146   35.7274 H   0  0  0  0  0  0  0  0  0  0  0  0
   48.9640   32.5062   36.7783 H   0  0  0  0  0  0  0  0  0  0  0  0
   46.1650   30.9321   39.3335 H   0  0  0  0  0  0  0  0  0  0  0  0
   45.3343   30.8525   37.7016 H   0  0  0  0  0  0  0  0  0  0  0  0
   46.9640   34.0830   36.9184 H   0  0  0  0  0  0  0  0  0  0  0  0
   45.4602   33.1350   36.9373 H   0  0  0  0  0  0  0  0  0  0  0  0
   45.9364   33.0024   40.9906 H   0  0  0  0  0  0  0  0  0  0  0  0
   47.7258   35.0944   39.5231 H   0  0  0  0  0  0  0  0  0  0  0  0
  1  6  2  0
  2  1  1  0
  2  3  2  0
  3  4  1  0
  4  5  2  0
  6  5  1  0
  7  2  1  0
  8  7  2  0
  1  9  1  0
  3 10  1  0
  5 11  1  0
 12 13  1  0
 12 14  1  0
 14 15  1  0
 15 16  1  0
 14 17  1  0
 17 18  1  0
 18 19  1  0
 19 20  2  0
 19 21  1  0
 21 22  1  0
 22 23  1  0
 23 14  1  0
 22 18  1  0
 12 24  1  0
 12 25  1  0
 15 26  1  0
 15 27  1  0
 17 28  1  0
 17 29  1  0
 21 30  1  1
 22 31  1  1
  7 21  1  0
M  ISO  5   9  14  10  14  11  14  13   8  16   8
M  END
>  <DihAtoms>  (1) 
1,6,20,18

>  <DihDeg>  (1) 
60.00722590004805

$$$$
