
 OpenBabel03252503063D

 23 25  0  0  1  0  0  0  0  0999 V2000
   47.2740   33.2330   43.9270 C   0  0  0  0  0  2  0  0  0  0  0  0
   46.2960   33.0520   42.7970 C   0  0  2  0  0  0  0  0  0  0  0  0
   46.7130   32.0030   41.8080 C   0  0  0  0  0  2  0  0  0  0  0  0
   47.5010   32.6490   40.7890 N   0  0  0  0  0  0  0  0  0  0  0  0
   48.5630   32.9820   39.8890 C   0  0  0  0  0  0  0  0  0  0  0  0
   49.5440   32.2960   39.4880 O   0  0  0  0  0  0  0  0  0  0  0  0
   48.0350   34.3710   39.6640 C   0  0  0  0  0  3  0  0  0  0  0  0
   48.5280   35.1320   40.2920 H   0  0  0  0  0  0  0  0  0  0  0  0
   46.7710   33.7680   40.2190 C   0  0  2  0  0  3  0  0  0  0  0  0
   46.1820   34.5410   41.7600 S   0  0  0  0  0  0  0  0  0  0  0  0
   44.9300   32.7250   43.3010 C   0  0  0  0  0  2  0  0  0  0  0  0
   44.9750   32.3730   44.3500 H   0  0  0  0  0  0  0  0  0  0  0  0
   45.9820   31.6790   47.1050 C   0  0  0  0  0  0  0  0  0  0  0  0
   46.6810   31.8230   45.9040 C   0  0  0  0  0  0  0  0  0  0  0  0
   46.5530   33.0320   45.2030 C   0  0  0  0  0  0  0  0  0  0  0  0
   45.7570   33.9960   45.7300 N   0  0  0  0  0  0  0  0  0  0  0  0
   45.0920   33.8300   46.8910 C   0  0  0  0  0  0  0  0  0  0  0  0
   45.2140   32.6800   47.5590 N   0  0  0  0  0  0  0  0  0  0  0  0
   46.0480   30.7700   47.6780 H   0  0  0  0  0  0  0  0  0  0  0  0
   44.4670   34.6340   47.2690 H   0  0  0  0  0  0  0  0  0  0  0  0
   47.5180   30.7720   45.3800 C   0  0  0  0  0  0  0  0  0  0  0  0
   46.9590   29.8200   44.7930 O   0  0  0  0  0  0  0  0  0  0  0  0
   48.5600   31.0000   45.5990 H   0  0  0  0  0  0  0  0  0  0  0  0
  1 15  1  0  0  0  0
  2 11  1  1  0  0  0
  2  1  1  0  0  0  0
  3  2  1  0  0  0  0
  4  3  1  0  0  0  0
  5  4  1  0  0  0  0
  6  5  2  0  0  0  0
  7  5  1  0  0  0  0
  7  8  1  0  0  0  0
  9  7  1  1  0  0  0
  9  4  1  0  0  0  0
  9 10  1  0  0  0  0
 10  2  1  0  0  0  0
 11 12  1  0  0  0  0
 13 18  1  0  0  0  0
 13 19  1  0  0  0  0
 14 13  2  0  0  0  0
 15 16  2  0  0  0  0
 15 14  1  0  0  0  0
 16 17  1  0  0  0  0
 17 20  1  0  0  0  0
 17 18  2  0  0  0  0
 21 23  1  0  0  0  0
 21 14  1  0  0  0  0
 22 21  2  0  0  0  0
M  END
>  <minimizedAffinity>
-3.79027438

>  <minimizedRMSD>
5.28001928

$$$$
