
 OpenBabel03242518553D

 45 48  0  0  1  0  0  0  0  0999 V2000
   45.8150   31.3290   46.5120 C   0  0  2  0  0  0  0  0  0  0  0  0
   45.5260   30.7040   47.8390 C   0  0  0  0  0  0  0  0  0  0  0  0
   44.8660   29.3950   47.5670 C   0  0  0  0  0  0  0  0  0  0  0  0
   44.5900   29.0920   46.1380 C   0  0  0  0  0  0  0  0  0  0  0  0
   45.8510   29.1940   45.3250 C   0  0  0  0  0  0  0  0  0  0  0  0
   46.6390   30.3630   45.6850 C   0  0  2  0  0  0  0  0  0  0  0  0
   44.8670   31.4290   45.9450 H   0  0  0  0  0  0  0  0  0  0  0  0
   46.3880   30.6150   48.5080 H   0  0  0  0  0  0  0  0  0  0  0  0
   44.8320   31.4200   48.3820 H   0  0  0  0  0  0  0  0  0  0  0  0
   45.3620   28.5120   48.0480 H   0  0  0  0  0  0  0  0  0  0  0  0
   43.8590   29.4190   48.0740 H   0  0  0  0  0  0  0  0  0  0  0  0
   44.2150   28.0400   46.1040 H   0  0  0  0  0  0  0  0  0  0  0  0
   43.7510   29.7080   45.7170 H   0  0  0  0  0  0  0  0  0  0  0  0
   46.3340   28.2010   45.3440 H   0  0  0  0  0  0  0  0  0  0  0  0
   45.5090   29.3100   44.2540 H   0  0  0  0  0  0  0  0  0  0  0  0
   47.0220   30.8990   44.8140 H   0  0  0  0  0  0  0  0  0  0  0  0
   47.7900   29.8520   46.4820 C   0  0  0  0  0  0  0  0  0  0  0  0
   47.5240   29.3920   47.4520 H   0  0  0  0  0  0  0  0  0  0  0  0
   48.4550   30.7200   46.6950 H   0  0  0  0  0  0  0  0  0  0  0  0
   52.2060   27.2540   45.9530 C   0  0  0  0  0  0  0  0  0  0  0  0
   52.0910   28.7510   45.7840 C   0  0  0  0  0  2  0  0  0  0  0  0
   50.7370   29.0520   45.3700 N   0  0  0  0  0  0  0  0  0  0  0  0
   49.5360   29.4560   44.7210 C   0  0  0  0  0  0  0  0  0  0  0  0
   49.3730   30.1300   43.6500 O   0  0  0  0  0  0  0  0  0  0  0  0
   48.6280   28.8290   45.7120 C   0  0  1  0  0  3  0  0  0  0  0  0
   49.9030   28.5850   46.4820 C   0  0  1  0  0  3  0  0  0  0  0  0
   50.4850   26.8420   46.4500 S   0  0  0  0  0  0  0  0  0  0  0  0
   53.0770   26.8900   47.1370 C   0  0  0  0  0  2  0  0  0  0  0  0
   54.0060   27.4920   47.1990 H   0  0  0  0  0  0  0  0  0  0  0  0
   52.6190   26.5480   44.6980 C   0  0  0  0  0  2  0  0  0  0  0  0
   53.2220   27.2830   44.0900 H   0  0  0  0  0  0  0  0  0  0  0  0
   46.4240   32.6800   46.5940 C   0  0  0  0  0  0  0  0  0  0  0  0
   47.2670   32.9930   47.4720 O   0  0  0  0  0  0  0  0  0  0  0  0
   44.6240   35.4040   44.9570 C   0  0  0  0  0  0  0  0  0  0  0  0
   45.2100   35.4860   43.6700 C   0  0  0  0  0  0  0  0  0  0  0  0
   46.2280   34.5890   43.4000 C   0  0  0  0  0  0  0  0  0  0  0  0
   46.5350   33.7510   44.3930 N   0  0  0  0  0  0  0  0  0  0  0  0
   45.9970   33.6660   45.5910 C   0  0  0  0  0  0  0  0  0  0  0  0
   45.0070   34.5250   45.8800 N   0  0  0  0  0  0  0  0  0  0  0  0
   43.8120   36.0980   45.2120 H   0  0  0  0  0  0  0  0  0  0  0  0
   44.8480   36.2250   42.9720 H   0  0  0  0  0  0  0  0  0  0  0  0
   46.8300   34.6620   42.0790 C   0  0  0  0  0  0  0  0  0  0  0  0
   47.5780   33.5150   41.8410 F   0  0  0  0  0  0  0  0  0  0  0  0
   47.6580   35.7370   42.0820 F   0  0  0  0  0  0  0  0  0  0  0  0
   45.8790   34.7020   41.0660 F   0  0  0  0  0  0  0  0  0  0  0  0
  1  7  1  6  0  0  0
  1 32  1  0  0  0  0
  1  2  1  0  0  0  0
  2  9  1  0  0  0  0
  2  8  1  0  0  0  0
  3  2  1  0  0  0  0
  3 10  1  0  0  0  0
  3 11  1  0  0  0  0
  4  3  1  0  0  0  0
  5 14  1  0  0  0  0
  5  6  1  0  0  0  0
  5  4  1  0  0  0  0
  6 16  1  6  0  0  0
  6 17  1  0  0  0  0
  6  1  1  0  0  0  0
 12  4  1  0  0  0  0
 13  4  1  0  0  0  0
 15  5  1  0  0  0  0
 17 19  1  0  0  0  0
 17 18  1  0  0  0  0
 20 27  1  0  0  0  0
 20 28  1  0  0  0  0
 21 20  1  0  0  0  0
 22 21  1  0  0  0  0
 22 26  1  0  0  0  0
 23 22  1  0  0  0  0
 23 25  1  0  0  0  0
 24 23  2  0  0  0  0
 25 26  1  0  0  0  0
 25 17  1  1  0  0  0
 26 27  1  6  0  0  0
 28 29  1  0  0  0  0
 30 20  1  0  0  0  0
 31 30  1  0  0  0  0
 32 33  2  0  0  0  0
 34 40  1  0  0  0  0
 34 39  1  0  0  0  0
 35 34  2  0  0  0  0
 36 35  1  0  0  0  0
 36 37  2  0  0  0  0
 37 38  1  0  0  0  0
 38 39  2  0  0  0  0
 38 32  1  0  0  0  0
 41 35  1  0  0  0  0
 42 44  1  0  0  0  0
 42 36  1  0  0  0  0
 43 42  1  0  0  0  0
 45 42  1  0  0  0  0
M  END
>  <minimizedAffinity>
-5.33070135

>  <minimizedRMSD>
0.560469925

$$$$
