
     RDKit          3D

 31 33  0  0  0  0  0  0  0  0999 V2000
   45.1984   35.9694   43.3698 C   0  0  0  0  0  0  0  0  0  0  0  0
   46.0835   34.9021   43.1555 C   0  0  0  0  0  0  0  0  0  0  0  0
   46.2535   33.9505   44.1673 C   0  0  0  0  0  0  0  0  0  0  0  0
   45.5461   34.1143   45.3104 N   0  0  0  0  0  0  0  0  0  0  0  0
   44.6998   35.1527   45.4903 C   0  0  0  0  0  0  0  0  0  0  0  0
   44.5290   36.0732   44.5239 N   0  0  0  0  0  0  0  0  0  0  0  0
   46.8010   34.7981   41.9080 C   0  0  0  0  0  0  0  0  0  0  0  0
   47.9177   35.3926   41.8477 O   0  0  0  0  0  0  0  0  0  0  0  0
   45.0420   36.7181   42.6179 H   0  0  0  0  0  0  0  0  0  0  0  0
   46.9360   33.1308   43.9971 H   0  0  0  0  0  0  0  0  0  0  0  0
   44.2506   35.0740   46.4739 H   0  0  0  0  0  0  0  0  0  0  0  0
   47.4901   33.3214   35.9986 C   0  0  0  0  0  0  0  0  0  0  0  0
   48.2054   32.4631   35.8731 H   0  0  0  0  0  0  0  0  0  0  0  0
   46.8005   33.0938   37.3408 C   0  0  0  0  0  0  0  0  0  0  0  0
   46.6377   31.6353   37.6228 C   0  0  0  0  0  0  0  0  0  0  0  0
   47.4464   31.0964   37.0478 H   0  0  0  0  0  0  0  0  0  0  0  0
   45.6028   33.9382   37.5535 C   0  0  0  0  0  0  0  0  0  0  0  0
   45.4580   34.2601   38.9280 N   0  0  0  0  0  0  0  0  0  0  0  0
   44.9445   34.4857   40.2358 C   0  0  0  0  0  0  0  0  0  0  0  0
   43.8106   34.9068   40.6450 O   0  0  0  0  0  0  0  0  0  0  0  0
   46.2485   34.0324   40.7652 C   0  0  1  0  0  0  0  0  0  0  0  0
   46.7151   34.6662   39.4591 C   0  0  1  0  0  0  0  0  0  0  0  0
   47.9774   33.7579   38.5840 S   0  0  0  0  0  0  0  0  0  0  0  0
   46.7633   33.2660   35.1685 H   0  0  0  0  0  0  0  0  0  0  0  0
   48.0165   34.3031   36.0324 H   0  0  0  0  0  0  0  0  0  0  0  0
   46.8648   31.3927   38.6865 H   0  0  0  0  0  0  0  0  0  0  0  0
   45.6743   31.1963   37.3068 H   0  0  0  0  0  0  0  0  0  0  0  0
   45.7217   34.8839   36.9824 H   0  0  0  0  0  0  0  0  0  0  0  0
   44.7379   33.4081   37.1035 H   0  0  0  0  0  0  0  0  0  0  0  0
   46.4097   32.9452   40.8001 H   0  0  0  0  0  0  0  0  0  0  0  0
   46.8048   35.7628   39.5205 H   0  0  0  0  0  0  0  0  0  0  0  0
  1  6  2  0
  2  1  1  0
  2  3  2  0
  3  4  1  0
  4  5  2  0
  6  5  1  0
  7  2  1  0
  8  7  2  0
  1  9  1  0
  3 10  1  0
  5 11  1  0
 12 13  1  0
 12 14  1  0
 14 15  1  0
 15 16  1  0
 14 17  1  0
 17 18  1  0
 18 19  1  0
 19 20  2  0
 19 21  1  0
 21 22  1  0
 22 23  1  0
 23 14  1  0
 22 18  1  0
 12 24  1  0
 12 25  1  0
 15 26  1  0
 15 27  1  0
 17 28  1  0
 17 29  1  0
 21 30  1  1
 22 31  1  1
  7 21  1  0
M  ISO  5   9  14  10  14  11  14  13   8  16   8
M  END
>  <DihAtoms>  (1) 
1,6,20,18

>  <DihDeg>  (1) 
60.00722590004805

$$$$
