
     RDKit          3D

 31 33  0  0  0  0  0  0  0  0999 V2000
   45.2043   35.9731   43.3731 C   0  0  0  0  0  0  0  0  0  0  0  0
   46.0873   34.9126   43.1511 C   0  0  0  0  0  0  0  0  0  0  0  0
   46.2463   33.9585   44.1669 C   0  0  0  0  0  0  0  0  0  0  0  0
   45.5335   34.1170   45.3111 N   0  0  0  0  0  0  0  0  0  0  0  0
   44.6878   35.1508   45.4986 C   0  0  0  0  0  0  0  0  0  0  0  0
   44.5362   36.0590   44.5322 N   0  0  0  0  0  0  0  0  0  0  0  0
   46.8248   34.7834   41.9192 C   0  0  0  0  0  0  0  0  0  0  0  0
   47.9087   35.3986   41.8208 O   0  0  0  0  0  0  0  0  0  0  0  0
   45.0488   36.7305   42.6229 H   0  0  0  0  0  0  0  0  0  0  0  0
   44.1411   35.2306   46.4339 H   0  0  0  0  0  0  0  0  0  0  0  0
   46.2777   34.1304   41.2404 H   0  0  0  0  0  0  0  0  0  0  0  0
   47.1692   32.8177   43.9797 C   0  0  0  0  0  0  0  0  0  0  0  0
   47.4194   32.1859   45.3229 C   0  0  2  0  0  0  0  0  0  0  0  0
   48.0311   33.1542   46.2790 C   0  0  0  0  0  0  0  0  0  0  0  0
   48.4625   34.0183   45.7375 H   0  0  0  0  0  0  0  0  0  0  0  0
   48.2825   30.9603   45.2552 C   0  0  0  0  0  0  0  0  0  0  0  0
   47.4159   29.8228   45.0775 N   0  0  0  0  0  0  0  0  0  0  0  0
   46.8169   28.6270   44.5648 C   0  0  0  0  0  0  0  0  0  0  0  0
   47.2765   27.7510   43.7820 O   0  0  0  0  0  0  0  0  0  0  0  0
   45.5303   28.8666   45.3051 C   0  0  1  0  0  0  0  0  0  0  0  0
   44.7543   29.3451   44.6841 H   0  0  0  0  0  0  0  0  0  0  0  0
   46.3986   29.7951   46.1147 C   0  0  2  0  0  0  0  0  0  0  0  0
   45.8870   31.5423   46.0610 S   0  0  0  0  0  0  0  0  0  0  0  0
   48.1531   33.2596   43.6724 H   0  0  0  0  0  0  0  0  0  0  0  0
   46.8597   32.1014   43.2220 H   0  0  0  0  0  0  0  0  0  0  0  0
   48.8961   32.7039   46.8356 H   0  0  0  0  0  0  0  0  0  0  0  0
   47.3193   33.4685   47.0968 H   0  0  0  0  0  0  0  0  0  0  0  0
   48.9444   31.0560   44.3980 H   0  0  0  0  0  0  0  0  0  0  0  0
   48.8823   30.8368   46.1914 H   0  0  0  0  0  0  0  0  0  0  0  0
   45.1883   28.0000   45.9146 H   0  0  0  0  0  0  0  0  0  0  0  0
   46.7252   29.4344   47.0917 H   0  0  0  0  0  0  0  0  0  0  0  0
  1  6  2  0
  2  1  1  0
  2  3  2  0
  3  4  1  0
  4  5  2  0
  6  5  1  0
  7  2  1  0
  8  7  2  0
  1  9  1  0
  5 10  1  0
  7 11  1  0
 13 12  1  6
 13 14  1  0
 14 15  1  0
 13 16  1  0
 16 17  1  0
 17 18  1  0
 18 19  2  0
 18 20  1  0
 20 21  1  6
 20 22  1  0
 22 23  1  0
 23 13  1  0
 22 17  1  0
 12 24  1  0
 12 25  1  0
 14 26  1  0
 14 27  1  0
 16 28  1  0
 16 29  1  0
 20 30  1  0
 22 31  1  1
  3 12  1  0
M  ISO  5   9  14  10  14  11   6  15   8  21  15
M  END
>  <DihAtoms>  (1) 
1,2,11,12

>  <DihDeg>  (1) 
-179.99274185765947

$$$$
