
     RDKit          3D

 58 62  0  0  0  0  0  0  0  0999 V2000
   47.5173   34.4915   42.4358 N   0  0  0  0  0  0  0  0  0  0  0  0
   47.5113   34.7460   40.9965 C   0  0  0  0  0  0  0  0  0  0  0  0
   48.1223   33.4634   40.5385 C   0  0  2  0  0  0  0  0  0  0  0  0
   49.3071   33.3049   41.4707 C   0  0  0  0  0  0  0  0  0  0  0  0
   48.8054   33.9351   42.7491 C   0  0  0  0  0  0  0  0  0  0  0  0
   44.5929   35.8367   44.3325 C   0  0  0  0  0  0  0  0  0  0  0  0
   45.5380   35.6989   43.3230 C   0  0  0  0  0  0  0  0  0  0  0  0
   46.5220   34.7099   43.4012 C   0  0  0  0  0  0  0  0  0  0  0  0
   46.4851   33.9221   44.5001 N   0  0  0  0  0  0  0  0  0  0  0  0
   45.5838   34.0388   45.4824 C   0  0  0  0  0  0  0  0  0  0  0  0
   44.6295   35.0133   45.3860 N   0  0  0  0  0  0  0  0  0  0  0  0
   48.6117   33.4956   39.2021 N   0  0  0  0  0  0  0  0  0  0  0  0
   48.8209   32.2698   37.0417 C   0  0  0  0  0  0  0  0  0  0  0  0
   48.0899   33.0241   37.9855 C   0  0  0  0  0  0  0  0  0  0  0  0
   46.7870   33.2670   37.6059 C   0  0  0  0  0  0  0  0  0  0  0  0
   46.2001   32.8478   36.4456 C   0  0  0  0  0  0  0  0  0  0  0  0
   46.9531   32.1124   35.5513 C   0  0  0  0  0  0  0  0  0  0  0  0
   48.2541   31.8375   35.8696 C   0  0  0  0  0  0  0  0  0  0  0  0
   49.4974   31.7240   33.7572 C   0  0  0  0  0  0  0  0  0  0  0  0
   49.2697   32.9622   33.5658 O   0  0  0  0  0  0  0  0  0  0  0  0
   49.0033   31.0750   34.9223 N   0  0  0  0  0  0  0  0  0  0  0  0
   51.2967   31.7362   37.6181 N   0  0  0  0  0  0  0  0  0  0  0  0
   50.1974   31.9757   37.3724 C   0  0  0  0  0  0  0  0  0  0  0  0
   48.1689   35.5906   40.7248 H   0  0  0  0  0  0  0  0  0  0  0  0
   46.4744   34.8594   40.6187 H   0  0  0  0  0  0  0  0  0  0  0  0
   47.3730   32.6600   40.6930 H   0  0  0  0  0  0  0  0  0  0  0  0
   49.5744   32.2396   41.6216 H   0  0  0  0  0  0  0  0  0  0  0  0
   50.1334   33.9239   41.0845 H   0  0  0  0  0  0  0  0  0  0  0  0
   48.6909   33.1578   43.5524 H   0  0  0  0  0  0  0  0  0  0  0  0
   49.4786   34.7106   43.1392 H   0  0  0  0  0  0  0  0  0  0  0  0
   43.8725   36.6281   44.1853 H   0  0  0  0  0  0  0  0  0  0  0  0
   45.6135   36.3018   42.4223 H   0  0  0  0  0  0  0  0  0  0  0  0
   45.5875   33.3830   46.3536 H   0  0  0  0  0  0  0  0  0  0  0  0
   49.5366   33.9404   38.9965 H   0  0  0  0  0  0  0  0  0  0  0  0
   46.1954   33.8429   38.3053 H   0  0  0  0  0  0  0  0  0  0  0  0
   45.1670   33.0674   36.1954 H   0  0  0  0  0  0  0  0  0  0  0  0
   46.5168   31.7656   34.6228 H   0  0  0  0  0  0  0  0  0  0  0  0
   49.1521   30.0747   35.1325 H   0  0  0  0  0  0  0  0  0  0  0  0
   45.8732   29.4417   32.2255 C   0  0  0  0  0  0  0  0  0  0  0  0
   45.8648   30.3415   31.6048 H   0  0  0  0  0  0  0  0  0  0  0  0
   47.1381   28.6508   32.2050 C   0  0  0  0  0  0  0  0  0  0  0  0
   46.8274   27.1644   32.1844 C   0  0  0  0  0  0  0  0  0  0  0  0
   47.7372   26.5538   32.3444 H   0  0  0  0  0  0  0  0  0  0  0  0
   48.0344   28.9194   31.0328 C   0  0  0  0  0  0  0  0  0  0  0  0
   49.0013   29.9141   31.3899 N   0  0  0  0  0  0  0  0  0  0  0  0
   49.8254   31.0736   31.4436 C   0  0  0  0  0  0  0  0  0  0  0  0
   50.0892   31.9981   30.6034 O   0  0  0  0  0  0  0  0  0  0  0  0
   50.2728   30.8217   32.8387 C   0  0  2  0  0  0  0  0  0  0  0  0
   49.7152   29.4738   32.5976 C   0  0  1  0  0  0  0  0  0  0  0  0
   48.2382   29.0533   33.6018 S   0  0  0  0  0  0  0  0  0  0  0  0
   44.9690   28.7871   32.0772 H   0  0  0  0  0  0  0  0  0  0  0  0
   45.7447   29.8168   33.2816 H   0  0  0  0  0  0  0  0  0  0  0  0
   46.4349   26.8856   31.1852 H   0  0  0  0  0  0  0  0  0  0  0  0
   46.0302   26.9299   32.9242 H   0  0  0  0  0  0  0  0  0  0  0  0
   48.5523   27.9997   30.6640 H   0  0  0  0  0  0  0  0  0  0  0  0
   47.4208   29.2992   30.2169 H   0  0  0  0  0  0  0  0  0  0  0  0
   51.3665   30.8415   33.0118 H   0  0  0  0  0  0  0  0  0  0  0  0
   50.4127   28.6519   32.4548 H   0  0  0  0  0  0  0  0  0  0  0  0
  1  5  1  0
  1  8  1  0
  2  1  1  0
  3  2  1  0
  3  4  1  0
  4  5  1  0
  6 11  2  0
  7  8  2  0
  7  6  1  0
  8  9  1  0
  9 10  2  0
 11 10  1  0
 12  3  1  0
 13 23  1  0
 13 14  2  0
 14 12  1  0
 15 14  1  0
 16 15  2  0
 17 18  2  0
 17 16  1  0
 18 13  1  0
 19 21  1  0
 20 19  2  0
 21 18  1  0
 23 22  3  0
  2 24  1  0
  2 25  1  0
  3 26  1  6
  4 27  1  0
  4 28  1  0
  5 29  1  0
  5 30  1  0
  6 31  1  0
  7 32  1  0
 10 33  1  0
 12 34  1  0
 15 35  1  0
 16 36  1  0
 17 37  1  0
 21 38  1  0
 39 40  1  0
 39 41  1  0
 41 42  1  0
 42 43  1  0
 41 44  1  0
 44 45  1  0
 45 46  1  0
 46 47  2  0
 46 48  1  0
 48 49  1  0
 49 50  1  0
 50 41  1  0
 49 45  1  0
 39 51  1  0
 39 52  1  0
 42 53  1  0
 42 54  1  0
 44 55  1  0
 44 56  1  0
 48 57  1  6
 49 58  1  6
 19 48  1  0
M  ISO  8  24  13  25  13  26  13  27  13  28  13  29  13  30  13  31  14
M  ISO  7  32  14  33  14  35  14  36  14  37  14  40   8  43   8
M  END
>  <DihAtoms>  (1) 
20,18,47,45

>  <DihDeg>  (1) 
-59.99339417864761

$$$$
