REMARK  Name = 
REMARK  8 active torsions:
REMARK  status: ('A' for Active; 'I' for Inactive)
REMARK    1  A    between atoms: C_2  and  O_7
REMARK    2  A    between atoms: O_7  and  P_9
REMARK    3  A    between atoms: P_9  and  O_10
REMARK    4  A    between atoms: P_9  and  O_11
REMARK    5  A    between atoms: O_11  and  C_12
REMARK    6  A    between atoms: C_12  and  C_27
REMARK    7  A    between atoms: C_18  and  C_20
REMARK    8  A    between atoms: C_20  and  C_21
REMARK                            x       y       z     vdW  Elec       q    Type
REMARK                         _______ _______ _______ _____ _____    ______ ____
ROOT
ATOM      1  O   UNL     1      48.407  35.037  40.510  0.00  0.00    +0.000 OA
ENDROOT
BRANCH   1   3
ATOM      2  O   UNL     1      49.550  35.361  42.787  0.00  0.00    +0.000 OA
ATOM      3  P   UNL     1      48.974  34.304  41.900  0.00  0.00    +0.000 P 
BRANCH   3   4
ATOM      4  O   UNL     1      50.221  33.250  41.504  0.00  0.00    +0.000 OA
ATOM      5  H   UNL     1      50.385  33.167  40.545  0.00  0.00    +0.000 HD
ENDBRANCH   3   4
BRANCH   3   6
ATOM      6  O   UNL     1      47.703  33.472  42.694  0.00  0.00    +0.000 OA
BRANCH   6   8
ATOM      7  C   UNL     1      46.130  35.276  42.694  0.00  0.00    +0.000 A 
ATOM      8  C   UNL     1      46.686  34.179  43.349  0.00  0.00    +0.000 A 
ATOM      9  C   UNL     1      46.208  33.837  44.615  0.00  0.00    +0.000 A 
ATOM     10  N   UNL     1      45.212  34.606  45.147  0.00  0.00    +0.000 NA
ATOM     11  C   UNL     1      44.701  35.651  44.494  0.00  0.00    +0.000 A 
ATOM     12  N   UNL     1      45.155  35.981  43.283  0.00  0.00    +0.000 NA
ATOM     13  H   UNL     1      46.428  35.624  41.711  0.00  0.00    +0.000 HD
ATOM     14  H   UNL     1      46.647  32.983  45.116  0.00  0.00    +0.000 HD
ATOM     15  H   UNL     1      43.908  36.267  44.913  0.00  0.00    +0.000 HD
ENDBRANCH   6   8
ENDBRANCH   3   6
ENDBRANCH   1   3
BRANCH   1  16
ATOM     16  C   UNL     1      48.064  34.389  39.367  0.00  0.00    +0.000 C 
ATOM     17  O   UNL     1      46.957  33.745  39.505  0.00  0.00    +0.000 OA
BRANCH  16  23
ATOM     18  C   UNL     1      45.952  32.580  35.194  0.00  0.00    +0.000 C 
ATOM     19  C   UNL     1      46.553  31.491  36.014  0.00  0.00    +0.000 C 
ATOM     20  N   UNL     1      47.349  32.097  37.051  0.00  0.00    +0.000 N 
ATOM     21  C   UNL     1      48.469  32.411  37.900  0.00  0.00    +0.000 C 
ATOM     22  O   UNL     1      49.444  31.660  38.246  0.00  0.00    +0.000 OA
ATOM     23  C   UNL     1      47.875  33.767  38.033  0.00  0.00    +0.000 C 
ATOM     24  C   UNL     1      46.591  33.048  37.800  0.00  0.00    +0.000 C 
ATOM     25  S   UNL     1      45.574  33.825  36.486  0.00  0.00    +0.000 S 
BRANCH  18  26
ATOM     26  C   UNL     1      46.810  33.122  34.104  0.00  0.00    +0.000 C 
ATOM     27  H   UNL     1      47.850  33.336  34.364  0.00  0.00    +0.000 HD
ENDBRANCH  18  26
BRANCH  18  28
ATOM     28  C   UNL     1      44.668  32.053  34.593  0.00  0.00    +0.000 C 
ATOM     29  H   UNL     1      43.932  32.020  35.439  0.00  0.00    +0.000 HD
ENDBRANCH  18  28
ENDBRANCH  16  23
ENDBRANCH   1  16
TORSDOF 8
