
     RDKit          3D

 31 33  0  0  0  0  0  0  0  0999 V2000
   46.2164   34.8419   43.1920 C   0  0  0  0  0  0  0  0  0  0  0  0
   45.3248   35.9118   43.2772 C   0  0  0  0  0  0  0  0  0  0  0  0
   44.5613   36.0073   44.4531 C   0  0  0  0  0  0  0  0  0  0  0  0
   44.7379   35.0642   45.4189 N   0  0  0  0  0  0  0  0  0  0  0  0
   45.6206   34.0428   45.2839 C   0  0  0  0  0  0  0  0  0  0  0  0
   46.3467   33.9485   44.1703 N   0  0  0  0  0  0  0  0  0  0  0  0
   46.9675   34.7948   41.9724 C   0  0  0  0  0  0  0  0  0  0  0  0
   48.0519   35.3919   41.7263 O   0  0  0  0  0  0  0  0  0  0  0  0
   45.1867   36.6552   42.5138 H   0  0  0  0  0  0  0  0  0  0  0  0
   43.8529   36.8059   44.5896 H   0  0  0  0  0  0  0  0  0  0  0  0
   46.6319   34.1982   41.1106 H   0  0  0  0  0  0  0  0  0  0  0  0
   45.7776   33.0470   46.3543 C   0  0  0  0  0  0  0  0  0  0  0  0
   46.1766   31.6962   45.8163 C   0  0  2  0  0  0  0  0  0  0  0  0
   45.1626   31.1243   44.8491 C   0  0  0  0  0  0  0  0  0  0  0  0
   45.3941   31.3948   43.8142 H   0  0  0  0  0  0  0  0  0  0  0  0
   46.3429   30.7030   46.9197 C   0  0  0  0  0  0  0  0  0  0  0  0
   47.7272   30.5248   47.1995 N   0  0  0  0  0  0  0  0  0  0  0  0
   48.9848   30.4033   47.8504 C   0  0  0  0  0  0  0  0  0  0  0  0
   49.4496   30.2137   49.0017 O   0  0  0  0  0  0  0  0  0  0  0  0
   49.7667   30.5906   46.5992 C   0  0  2  0  0  0  0  0  0  0  0  0
   50.5495   29.8465   46.4016 H   0  0  0  0  0  0  0  0  0  0  0  0
   48.4313   30.2945   45.9651 C   0  0  2  0  0  0  0  0  0  0  0  0
   47.7790   31.7013   44.9774 S   0  0  0  0  0  0  0  0  0  0  0  0
   44.7841   32.8963   46.8209 H   0  0  0  0  0  0  0  0  0  0  0  0
   46.5152   33.3409   47.1035 H   0  0  0  0  0  0  0  0  0  0  0  0
   45.1755   29.9958   44.8969 H   0  0  0  0  0  0  0  0  0  0  0  0
   44.1489   31.4003   45.1828 H   0  0  0  0  0  0  0  0  0  0  0  0
   45.7952   31.1106   47.8091 H   0  0  0  0  0  0  0  0  0  0  0  0
   45.8958   29.7059   46.7211 H   0  0  0  0  0  0  0  0  0  0  0  0
   50.0867   31.6526   46.5565 H   0  0  0  0  0  0  0  0  0  0  0  0
   48.3190   29.3293   45.4724 H   0  0  0  0  0  0  0  0  0  0  0  0
  1  2  2  0
  1  6  1  0
  2  3  1  0
  3  4  2  0
  5  4  1  0
  6  5  2  0
  7  1  1  0
  8  7  2  0
  2  9  1  0
  3 10  1  0
  7 11  1  0
 13 12  1  1
 13 14  1  0
 14 15  1  0
 13 16  1  0
 16 17  1  0
 17 18  1  0
 18 19  2  0
 18 20  1  0
 20 21  1  6
 20 22  1  0
 22 23  1  0
 23 13  1  0
 22 17  1  0
 12 24  1  0
 12 25  1  0
 14 26  1  0
 14 27  1  0
 16 28  1  0
 16 29  1  0
 20 30  1  0
 22 31  1  6
  5 12  1  0
M  ISO  5   9  14  10  14  11   6  15   8  21  15
M  END
>  <DihAtoms>  (1) 
3,4,11,12

>  <DihDeg>  (1) 
89.99995369881678

$$$$
