
 OpenBabel03242518543D

 45 48  0  0  1  0  0  0  0  0999 V2000
   45.8330   31.2750   46.5800 C   0  0  2  0  0  0  0  0  0  0  0  0
   45.8800   30.5150   47.8670 C   0  0  0  0  0  0  0  0  0  0  0  0
   45.1510   29.2350   47.6410 C   0  0  0  0  0  0  0  0  0  0  0  0
   44.5150   29.0770   46.3060 C   0  0  0  0  0  0  0  0  0  0  0  0
   45.5300   29.2720   45.2130 C   0  0  0  0  0  0  0  0  0  0  0  0
   46.4040   30.4050   45.4770 C   0  0  2  0  0  0  0  0  0  0  0  0
   44.7740   31.4230   46.2850 H   0  0  0  0  0  0  0  0  0  0  0  0
   46.8830   30.3660   48.2820 H   0  0  0  0  0  0  0  0  0  0  0  0
   45.3590   31.1660   48.6370 H   0  0  0  0  0  0  0  0  0  0  0  0
   45.7370   28.3120   47.8880 H   0  0  0  0  0  0  0  0  0  0  0  0
   44.3050   29.1980   48.3880 H   0  0  0  0  0  0  0  0  0  0  0  0
   44.1260   28.0300   46.2630 H   0  0  0  0  0  0  0  0  0  0  0  0
   43.6070   29.7250   46.1770 H   0  0  0  0  0  0  0  0  0  0  0  0
   45.9850   28.2860   45.0090 H   0  0  0  0  0  0  0  0  0  0  0  0
   44.9290   29.4930   44.2830 H   0  0  0  0  0  0  0  0  0  0  0  0
   46.5620   31.0300   44.5960 H   0  0  0  0  0  0  0  0  0  0  0  0
   47.7110   29.8260   45.8990 C   0  0  0  0  0  0  0  0  0  0  0  0
   47.6590   29.1170   46.7460 H   0  0  0  0  0  0  0  0  0  0  0  0
   48.3610   30.6740   46.2120 H   0  0  0  0  0  0  0  0  0  0  0  0
   52.1080   28.1460   43.8110 C   0  0  0  0  0  0  0  0  0  0  0  0
   51.7750   29.6060   43.9960 C   0  0  0  0  0  2  0  0  0  0  0  0
   50.3350   29.7440   43.9840 N   0  0  0  0  0  0  0  0  0  0  0  0
   48.9660   30.0480   43.7360 C   0  0  0  0  0  0  0  0  0  0  0  0
   48.4480   30.8610   42.9010 O   0  0  0  0  0  0  0  0  0  0  0  0
   48.4310   29.1110   44.7540 C   0  0  1  0  0  3  0  0  0  0  0  0
   49.8840   28.9530   45.1360 C   0  0  1  0  0  3  0  0  0  0  0  0
   50.6400   27.3670   44.5980 S   0  0  0  0  0  0  0  0  0  0  0  0
   53.2970   27.7310   44.6520 C   0  0  0  0  0  2  0  0  0  0  0  0
   54.1320   28.4610   44.6240 H   0  0  0  0  0  0  0  0  0  0  0  0
   52.2570   27.7520   42.3740 C   0  0  0  0  0  2  0  0  0  0  0  0
   52.5880   28.6740   41.8130 H   0  0  0  0  0  0  0  0  0  0  0  0
   46.4660   32.6160   46.6400 C   0  0  0  0  0  0  0  0  0  0  0  0
   47.3660   32.9060   47.4680 O   0  0  0  0  0  0  0  0  0  0  0  0
   44.5880   35.3640   45.1380 C   0  0  0  0  0  0  0  0  0  0  0  0
   45.1180   35.4760   43.8290 C   0  0  0  0  0  0  0  0  0  0  0  0
   46.1280   34.5890   43.4980 C   0  0  0  0  0  0  0  0  0  0  0  0
   46.4800   33.7320   44.4590 N   0  0  0  0  0  0  0  0  0  0  0  0
   45.9930   33.6200   45.6770 C   0  0  0  0  0  0  0  0  0  0  0  0
   45.0130   34.4680   46.0250 N   0  0  0  0  0  0  0  0  0  0  0  0
   43.7850   36.0480   45.4420 H   0  0  0  0  0  0  0  0  0  0  0  0
   44.7240   36.2280   43.1630 H   0  0  0  0  0  0  0  0  0  0  0  0
   46.6730   34.6930   42.1550 C   0  0  0  0  0  0  0  0  0  0  0  0
   47.3640   33.5290   41.8390 F   0  0  0  0  0  0  0  0  0  0  0  0
   47.5420   35.7350   42.1610 F   0  0  0  0  0  0  0  0  0  0  0  0
   45.6800   34.8090   41.1890 F   0  0  0  0  0  0  0  0  0  0  0  0
  1  7  1  6  0  0  0
  1 32  1  0  0  0  0
  1  2  1  0  0  0  0
  2  8  1  0  0  0  0
  2  9  1  0  0  0  0
  3  2  1  0  0  0  0
  3 10  1  0  0  0  0
  3 11  1  0  0  0  0
  4  3  1  0  0  0  0
  5  6  1  0  0  0  0
  5  4  1  0  0  0  0
  6 16  1  6  0  0  0
  6 17  1  0  0  0  0
  6  1  1  0  0  0  0
 12  4  1  0  0  0  0
 13  4  1  0  0  0  0
 14  5  1  0  0  0  0
 15  5  1  0  0  0  0
 17 19  1  0  0  0  0
 17 18  1  0  0  0  0
 20 21  1  0  0  0  0
 20 27  1  0  0  0  0
 20 28  1  0  0  0  0
 22 21  1  0  0  0  0
 22 26  1  0  0  0  0
 23 22  1  0  0  0  0
 23 25  1  0  0  0  0
 24 23  2  0  0  0  0
 25 26  1  0  0  0  0
 25 17  1  1  0  0  0
 26 27  1  6  0  0  0
 29 28  1  0  0  0  0
 30 20  1  0  0  0  0
 31 30  1  0  0  0  0
 32 33  2  0  0  0  0
 34 40  1  0  0  0  0
 34 39  1  0  0  0  0
 35 34  2  0  0  0  0
 36 35  1  0  0  0  0
 36 37  2  0  0  0  0
 37 38  1  0  0  0  0
 38 39  2  0  0  0  0
 38 32  1  0  0  0  0
 41 35  1  0  0  0  0
 42 44  1  0  0  0  0
 42 36  1  0  0  0  0
 43 42  1  0  0  0  0
 45 42  1  0  0  0  0
M  END
>  <minimizedAffinity>
-5.41053009

>  <minimizedRMSD>
0.894622564

$$$$
