
 OpenBabel03252502463D

 48 52  0  0  1  0  0  0  0  0999 V2000
   47.6060   35.3220   41.9190 C   0  0  0  0  0  0  0  0  0  0  0  0
   47.7320   35.9560   42.8280 H   0  0  0  0  0  0  0  0  0  0  0  0
   47.2010   36.0190   41.1330 H   0  0  0  0  0  0  0  0  0  0  0  0
   48.9210   34.7230   41.5530 C   0  0  1  0  0  0  0  0  0  0  0  0
   50.0590   34.8850   42.5150 C   0  0  0  0  0  0  0  0  0  0  0  0
   49.3670   33.5710   42.3130 C   0  0  2  0  0  0  0  0  0  0  0  0
   49.1880   34.8610   40.5060 H   0  0  0  0  0  0  0  0  0  0  0  0
   49.8240   35.4840   43.4360 H   0  0  0  0  0  0  0  0  0  0  0  0
   51.0800   35.0660   42.1440 H   0  0  0  0  0  0  0  0  0  0  0  0
   48.9190   33.1770   43.2150 H   0  0  0  0  0  0  0  0  0  0  0  0
   50.1730   32.6320   41.5300 N   0  0  0  0  0  0  0  0  0  0  0  0
   49.5770   32.2120   40.3270 C   0  0  0  0  0  0  0  0  0  0  0  0
   50.5490   31.2320   39.6980 C   0  0  0  0  0  0  0  0  0  0  0  0
   50.7390   30.0770   40.5000 N   0  0  0  0  0  0  0  0  0  0  0  0
   50.5350   30.3000   41.9190 C   0  0  0  0  0  0  0  0  0  0  0  0
   50.9560   31.7330   42.2720 C   0  0  0  0  0  0  0  0  0  0  0  0
   48.6010   31.6870   40.4500 H   0  0  0  0  0  0  0  0  0  0  0  0
   49.5080   33.0750   39.6270 H   0  0  0  0  0  0  0  0  0  0  0  0
   50.1340   30.9720   38.7030 H   0  0  0  0  0  0  0  0  0  0  0  0
   51.5290   31.7550   39.5000 H   0  0  0  0  0  0  0  0  0  0  0  0
   51.6190   29.5730   40.2740 H   0  0  0  0  0  0  0  0  0  0  0  0
   51.1290   29.5420   42.4620 H   0  0  0  0  0  0  0  0  0  0  0  0
   49.4490   30.2450   42.1450 H   0  0  0  0  0  0  0  0  0  0  0  0
   52.0340   31.8760   41.9790 H   0  0  0  0  0  0  0  0  0  0  0  0
   50.8790   31.9020   43.3480 H   0  0  0  0  0  0  0  0  0  0  0  0
   46.6730   34.1820   42.2250 C   0  0  0  0  0  0  0  0  0  0  0  0
   47.0810   33.1860   42.1620 H   0  0  0  0  0  0  0  0  0  0  0  0
   45.8710   34.2240   41.4270 H   0  0  0  0  0  0  0  0  0  0  0  0
   44.5180   35.8960   44.7690 C   0  0  0  0  0  0  0  0  0  0  0  0
   45.1850   35.6220   43.5420 C   0  0  0  0  0  0  0  0  0  0  0  0
   45.9540   34.4890   43.4980 C   0  0  0  0  0  0  0  0  0  0  0  0
   46.0460   33.6950   44.5990 N   0  0  0  0  0  0  0  0  0  0  0  0
   45.4230   33.9630   45.7220 C   0  0  0  0  0  0  0  0  0  0  0  0
   44.6530   35.0660   45.8180 N   0  0  0  0  0  0  0  0  0  0  0  0
   43.9070   36.7960   44.8050 H   0  0  0  0  0  0  0  0  0  0  0  0
   45.0350   36.3290   42.7360 H   0  0  0  0  0  0  0  0  0  0  0  0
   45.4680   33.1510   46.9520 C   0  0  0  0  0  2  0  0  0  0  0  0
   46.1410   31.8420   46.8170 C   0  0  1  0  0  0  0  0  0  0  0  0
   45.3720   30.8220   47.6750 C   0  0  0  0  0  2  0  0  0  0  0  0
   45.8230   29.5120   47.1930 N   0  0  0  0  0  0  0  0  0  0  0  0
   46.3380   28.2080   46.8280 C   0  0  0  0  0  0  0  0  0  0  0  0
   46.9760   27.5050   47.6550 O   0  0  0  0  0  0  0  0  0  0  0  0
   45.8340   28.2500   45.4520 C   0  0  0  0  0  3  0  0  0  0  0  0
   46.6020   28.3780   44.6640 H   0  0  0  0  0  0  0  0  0  0  0  0
   45.1220   29.4830   45.8900 C   0  0  2  0  0  3  0  0  0  0  0  0
   45.8460   31.0320   45.1920 S   0  0  0  0  0  0  0  0  0  0  0  0
   47.5730   31.7950   47.1840 C   0  0  0  0  0  2  0  0  0  0  0  0
   48.2170   31.3450   46.3700 H   0  0  0  0  0  0  0  0  0  0  0  0
  1 26  1  0  0  0  0
  1  2  1  0  0  0  0
  3  1  1  0  0  0  0
  4  7  1  6  0  0  0
  4  1  1  0  0  0  0
  4  6  1  0  0  0  0
  4  5  1  0  0  0  0
  5  8  1  0  0  0  0
  6  5  1  0  0  0  0
  6 10  1  1  0  0  0
  9  5  1  0  0  0  0
 11 16  1  0  0  0  0
 11  6  1  0  0  0  0
 12 17  1  0  0  0  0
 12 11  1  0  0  0  0
 13 12  1  0  0  0  0
 13 14  1  0  0  0  0
 14 15  1  0  0  0  0
 15 23  1  0  0  0  0
 15 16  1  0  0  0  0
 15 22  1  0  0  0  0
 16 25  1  0  0  0  0
 18 12  1  0  0  0  0
 19 13  1  0  0  0  0
 20 13  1  0  0  0  0
 21 14  1  0  0  0  0
 24 16  1  0  0  0  0
 26 31  1  0  0  0  0
 27 26  1  0  0  0  0
 28 26  1  0  0  0  0
 29 35  1  0  0  0  0
 29 34  1  0  0  0  0
 30 29  2  0  0  0  0
 31 30  1  0  0  0  0
 31 32  2  0  0  0  0
 32 33  1  0  0  0  0
 33 34  2  0  0  0  0
 33 37  1  0  0  0  0
 36 30  1  0  0  0  0
 38 37  1  1  0  0  0
 38 47  1  0  0  0  0
 38 39  1  0  0  0  0
 40 39  1  0  0  0  0
 41 40  1  0  0  0  0
 41 42  2  0  0  0  0
 43 45  1  0  0  0  0
 43 41  1  0  0  0  0
 44 43  1  0  0  0  0
 45 46  1  6  0  0  0
 45 40  1  0  0  0  0
 46 38  1  0  0  0  0
 48 47  1  0  0  0  0
M  END
>  <minimizedAffinity>
-5.65633154

>  <minimizedRMSD>
1.09641421

$$$$
