
 OpenBabel03242519103D

 50 54  0  0  1  0  0  0  0  0999 V2000
   49.3260   32.3400   37.0770 C   0  0  0  0  0  0  0  0  0  0  0  0
   48.5080   32.7540   38.1500 C   0  0  0  0  0  0  0  0  0  0  0  0
   47.2000   32.9930   37.7850 C   0  0  0  0  0  0  0  0  0  0  0  0
   46.6830   32.8610   36.5280 C   0  0  0  0  0  0  0  0  0  0  0  0
   47.5200   32.4520   35.5070 C   0  0  0  0  0  0  0  0  0  0  0  0
   48.8300   32.1990   35.8050 C   0  0  0  0  0  0  0  0  0  0  0  0
   46.5420   33.3130   38.5820 H   0  0  0  0  0  0  0  0  0  0  0  0
   45.6420   33.0620   36.2940 H   0  0  0  0  0  0  0  0  0  0  0  0
   47.1400   32.3390   34.5000 H   0  0  0  0  0  0  0  0  0  0  0  0
   49.2990   32.1270   33.3970 C   0  0  0  0  0  0  0  0  0  0  0  0
   48.2390   32.7970   33.1780 O   0  0  0  0  0  0  0  0  0  0  0  0
   49.6670   31.7790   34.7260 N   0  0  0  0  0  0  0  0  0  0  0  0
   50.5120   31.2370   34.9680 H   0  0  0  0  0  0  0  0  0  0  0  0
   47.9020   28.7010   31.4650 C   0  0  0  0  0  0  0  0  0  0  0  0
   48.6050   29.3830   30.3290 C   0  0  0  0  0  2  0  0  0  0  0  0
   49.2420   30.5730   30.8070 N   0  0  0  0  0  0  0  0  0  0  0  0
   49.6750   31.9130   31.0100 C   0  0  0  0  0  0  0  0  0  0  0  0
   49.5960   32.9740   30.3040 O   0  0  0  0  0  0  0  0  0  0  0  0
   50.2580   31.6350   32.3500 C   0  0  2  0  0  3  0  0  0  0  0  0
   50.1250   30.2240   31.9300 C   0  0  1  0  0  3  0  0  0  0  0  0
   48.9060   29.2410   32.8880 S   0  0  0  0  0  0  0  0  0  0  0  0
   46.4590   29.0520   31.6150 C   0  0  0  0  0  2  0  0  0  0  0  0
   46.1410   29.9760   31.1280 H   0  0  0  0  0  0  0  0  0  0  0  0
   48.0580   27.2070   31.2410 C   0  0  0  0  0  2  0  0  0  0  0  0
   49.1180   26.8920   31.3000 H   0  0  0  0  0  0  0  0  0  0  0  0
   48.9540   32.9180   39.4720 N   0  0  0  0  0  0  0  0  0  0  0  0
   49.9970   32.9920   39.4450 H   0  0  0  0  0  0  0  0  0  0  0  0
   47.6420   34.1090   42.5560 N   0  0  0  0  0  0  0  0  0  0  0  0
   47.9210   34.3750   41.1460 C   0  0  0  0  0  0  0  0  0  0  0  0
   48.2690   32.9880   40.7180 C   0  0  2  0  0  0  0  0  0  0  0  0
   49.2220   32.5320   41.8060 C   0  0  0  0  0  0  0  0  0  0  0  0
   48.6940   33.2490   43.0270 C   0  0  0  0  0  0  0  0  0  0  0  0
   48.7970   35.0370   41.0180 H   0  0  0  0  0  0  0  0  0  0  0  0
   47.0130   34.7440   40.6270 H   0  0  0  0  0  0  0  0  0  0  0  0
   47.3340   32.3910   40.7200 H   0  0  0  0  0  0  0  0  0  0  0  0
   49.1980   31.4320   41.9410 H   0  0  0  0  0  0  0  0  0  0  0  0
   50.2220   32.9340   41.5770 H   0  0  0  0  0  0  0  0  0  0  0  0
   48.2730   32.5130   43.7640 H   0  0  0  0  0  0  0  0  0  0  0  0
   49.4660   33.8300   43.5510 H   0  0  0  0  0  0  0  0  0  0  0  0
   44.7410   35.9970   43.9610 C   0  0  0  0  0  0  0  0  0  0  0  0
   45.7570   35.6340   43.0850 C   0  0  0  0  0  0  0  0  0  0  0  0
   46.5920   34.5510   43.3740 C   0  0  0  0  0  0  0  0  0  0  0  0
   46.3420   33.9040   44.5360 N   0  0  0  0  0  0  0  0  0  0  0  0
   45.3690   34.2380   45.3910 C   0  0  0  0  0  0  0  0  0  0  0  0
   44.5640   35.3000   45.0890 N   0  0  0  0  0  0  0  0  0  0  0  0
   44.1480   36.8450   43.6530 H   0  0  0  0  0  0  0  0  0  0  0  0
   46.0010   36.1170   42.1420 H   0  0  0  0  0  0  0  0  0  0  0  0
   45.1990   33.6900   46.3200 H   0  0  0  0  0  0  0  0  0  0  0  0
   51.8210   31.8560   37.6110 N   0  0  0  0  0  0  0  0  0  0  0  0
   50.7120   32.0710   37.3840 C   0  0  0  0  0  0  0  0  0  0  0  0
  1 50  1  0  0  0  0
  1  2  1  0  0  0  0
  2 26  1  0  0  0  0
  3  2  2  0  0  0  0
  3  7  1  0  0  0  0
  4  3  1  0  0  0  0
  5  6  1  0  0  0  0
  5  4  2  0  0  0  0
  6  1  2  0  0  0  0
  8  4  1  0  0  0  0
  9  5  1  0  0  0  0
 10 12  1  0  0  0  0
 11 10  2  0  0  0  0
 12 13  1  0  0  0  0
 12  6  1  0  0  0  0
 14 22  1  0  0  0  0
 14 21  1  0  0  0  0
 15 16  1  0  0  0  0
 15 14  1  0  0  0  0
 16 17  1  0  0  0  0
 16 20  1  0  0  0  0
 17 19  1  0  0  0  0
 18 17  2  0  0  0  0
 19 10  1  1  0  0  0
 20 19  1  0  0  0  0
 20 21  1  1  0  0  0
 23 22  1  0  0  0  0
 24 25  1  0  0  0  0
 24 14  1  0  0  0  0
 26 30  1  0  0  0  0
 27 26  1  0  0  0  0
 28 32  1  0  0  0  0
 28 42  1  0  0  0  0
 29 28  1  0  0  0  0
 30 35  1  6  0  0  0
 30 29  1  0  0  0  0
 30 31  1  0  0  0  0
 31 36  1  0  0  0  0
 31 32  1  0  0  0  0
 32 39  1  0  0  0  0
 32 38  1  0  0  0  0
 33 29  1  0  0  0  0
 34 29  1  0  0  0  0
 37 31  1  0  0  0  0
 40 45  1  0  0  0  0
 41 42  1  0  0  0  0
 41 40  2  0  0  0  0
 42 43  2  0  0  0  0
 43 44  1  0  0  0  0
 44 48  1  0  0  0  0
 45 44  2  0  0  0  0
 46 40  1  0  0  0  0
 47 41  1  0  0  0  0
 50 49  3  0  0  0  0
M  END
>  <minimizedAffinity>
-6.68315458

>  <minimizedRMSD>
0.968098283

$$$$
