
 OpenBabel03252508513D

 31 34  0  0  1  0  0  0  0  0999 V2000
   46.2040   34.2060   41.0250 C   0  0  0  0  0  0  0  0  0  0  0  0
   46.7020   34.8950   42.1290 C   0  0  0  0  0  0  0  0  0  0  0  0
   48.0050   35.3950   42.0360 C   0  0  0  0  0  0  0  0  0  0  0  0
   48.6990   35.1790   40.8840 N   0  0  0  0  0  0  0  0  0  0  0  0
   48.1820   34.5110   39.8460 C   0  0  0  0  0  0  0  0  0  0  0  0
   46.9260   34.0230   39.9200 N   0  0  0  0  0  0  0  0  0  0  0  0
   48.3880   35.9210   42.8780 H   0  0  0  0  0  0  0  0  0  0  0  0
   48.7180   34.3300   38.9220 H   0  0  0  0  0  0  0  0  0  0  0  0
   45.8640   35.0670   43.3170 C   0  0  0  0  0  0  0  0  0  0  0  0
   45.0830   36.1940   43.5280 C   0  0  0  0  0  0  0  0  0  0  0  0
   44.4770   35.9380   44.7400 C   0  0  0  0  0  0  0  0  0  0  0  0
   44.8640   34.7370   45.2340 N   0  0  0  0  0  0  0  0  0  0  0  0
   45.7010   34.2350   44.3530 N   0  0  0  0  0  0  0  0  0  0  0  0
   44.9490   37.0900   42.9100 H   0  0  0  0  0  0  0  0  0  0  0  0
   43.7760   36.5980   45.2550 H   0  0  0  0  0  0  0  0  0  0  0  0
   44.5290   34.3410   46.1420 H   0  0  0  0  0  0  0  0  0  0  0  0
   44.9240   33.7080   41.0970 O   0  0  0  0  0  0  0  0  0  0  0  0
   43.8020   34.2320   40.5190 C   0  0  0  0  0  0  0  0  0  0  0  0
   43.3960   35.4390   40.5580 O   0  0  0  0  0  0  0  0  0  0  0  0
   39.2740   32.1800   39.2740 C   0  0  0  0  0  0  0  0  0  0  0  0
   39.3090   33.6930   39.2330 C   0  0  0  0  0  2  0  0  0  0  0  0
   40.7080   34.0830   39.2300 N   0  0  0  0  0  0  0  0  0  0  0  0
   41.9820   34.6610   38.8760 C   0  0  0  0  0  0  0  0  0  0  0  0
   42.2020   35.6780   38.1340 O   0  0  0  0  0  0  0  0  0  0  0  0
   42.6950   33.6360   39.6800 C   0  0  2  0  0  3  0  0  0  0  0  0
   41.3840   33.5330   40.3920 C   0  0  2  0  0  3  0  0  0  0  0  0
   40.6740   31.8520   40.4160 S   0  0  0  0  0  0  0  0  0  0  0  0
   37.9770   31.6940   39.8820 C   0  0  0  0  0  2  0  0  0  0  0  0
   37.1380   32.3730   39.6230 H   0  0  0  0  0  0  0  0  0  0  0  0
   39.4730   31.5430   37.9340 C   0  0  0  0  0  2  0  0  0  0  0  0
   40.5310   31.4620   37.6130 H   0  0  0  0  0  0  0  0  0  0  0  0
  1 17  1  0  0  0  0
  1  2  1  0  0  0  0
  2  9  1  0  0  0  0
  3  2  2  0  0  0  0
  3  7  1  0  0  0  0
  4  3  1  0  0  0  0
  5  6  1  0  0  0  0
  5  4  2  0  0  0  0
  6  1  2  0  0  0  0
  8  5  1  0  0  0  0
  9 10  1  0  0  0  0
  9 13  2  0  0  0  0
 10 11  2  0  0  0  0
 11 12  1  0  0  0  0
 11 15  1  0  0  0  0
 12 16  1  0  0  0  0
 13 12  1  0  0  0  0
 14 10  1  0  0  0  0
 18 19  2  0  0  0  0
 18 17  1  0  0  0  0
 20 28  1  0  0  0  0
 20 27  1  0  0  0  0
 21 20  1  0  0  0  0
 22 21  1  0  0  0  0
 22 26  1  0  0  0  0
 23 22  1  0  0  0  0
 23 25  1  0  0  0  0
 24 23  2  0  0  0  0
 25 26  1  0  0  0  0
 25 18  1  1  0  0  0
 26 27  1  6  0  0  0
 29 28  1  0  0  0  0
 30 20  1  0  0  0  0
 31 30  1  0  0  0  0
M  END
>  <minimizedAffinity>
-6.02645016

>  <minimizedRMSD>
0.30130589

$$$$
