REMARK  Name = 
REMARK  8 active torsions:
REMARK  status: ('A' for Active; 'I' for Inactive)
REMARK    1  A    between atoms: C_3  and  O_16
REMARK    2  A    between atoms: C_8  and  C_11
REMARK    3  A    between atoms: O_16  and  C_17
REMARK    4  A    between atoms: N_19  and  C_20
REMARK    5  A    between atoms: C_21  and  N_26
REMARK    6  A    between atoms: C_24  and  C_37
REMARK    7  A    between atoms: C_37  and  C_38
REMARK    8  A    between atoms: C_38  and  C_39
REMARK                            x       y       z     vdW  Elec       q    Type
REMARK                         _______ _______ _______ _____ _____    ______ ____
ROOT
ATOM      1  C   UNL     1      44.420  34.196  41.779  0.00  0.00    +0.000 C 
ATOM      2  O   UNL     1      44.049  33.175  42.471  0.00  0.00    +0.000 OA
ATOM      3  N   UNL     1      45.470  34.926  42.413  0.00  0.00    +0.000 N 
ATOM      4  H   UNL     1      45.920  35.742  42.002  0.00  0.00    +0.000 HD
ENDROOT
BRANCH   3   5
ATOM      5  C   UNL     1      45.770  34.323  43.691  0.00  0.00    +0.000 A 
ATOM      6  C   UNL     1      45.145  34.578  44.871  0.00  0.00    +0.000 A 
ATOM      7  C   UNL     1      45.584  33.895  45.975  0.00  0.00    +0.000 A 
ATOM      8  N   UNL     1      46.608  33.016  45.807  0.00  0.00    +0.000 NA
ATOM      9  C   UNL     1      47.205  32.785  44.631  0.00  0.00    +0.000 A 
ATOM     10  N   UNL     1      46.784  33.452  43.527  0.00  0.00    +0.000 NA
ATOM     11  H   UNL     1      45.102  34.081  46.923  0.00  0.00    +0.000 HD
BRANCH   6  12
ATOM     12  N   UNL     1      44.103  35.520  44.858  0.00  0.00    +0.000 N 
ATOM     13  H   UNL     1      43.309  35.145  45.419  0.00  0.00    +0.000 HD
ATOM     14  H   UNL     1      44.087  36.442  44.384  0.00  0.00    +0.000 HD
ENDBRANCH   6  12
BRANCH   9  15
ATOM     15  C   UNL     1      48.310  31.793  44.619  0.00  0.00    +0.000 C 
BRANCH  15  16
ATOM     16  C   UNL     1      47.906  30.575  45.410  0.00  0.00    +0.000 C 
ATOM     17  C   UNL     1      46.790  29.815  44.836  0.00  0.00    +0.000 C 
ATOM     18  N   UNL     1      46.917  28.433  44.996  0.00  0.00    +0.000 N 
ATOM     19  C   UNL     1      46.612  27.070  44.883  0.00  0.00    +0.000 C 
ATOM     20  O   UNL     1      45.638  26.274  44.864  0.00  0.00    +0.000 OA
ATOM     21  C   UNL     1      48.102  26.852  44.776  0.00  0.00    +0.000 C 
ATOM     22  H   UNL     1      48.514  27.177  43.807  0.00  0.00    +0.000 HD
ATOM     23  C   UNL     1      48.074  27.985  45.744  0.00  0.00    +0.000 C 
ATOM     24  S   UNL     1      49.240  29.342  45.454  0.00  0.00    +0.000 S 
BRANCH  16  25
ATOM     25  C   UNL     1      47.602  30.938  46.834  0.00  0.00    +0.000 C 
ATOM     26  H   UNL     1      46.557  31.285  46.986  0.00  0.00    +0.000 HD
ENDBRANCH  16  25
ENDBRANCH  15  16
ENDBRANCH   9  15
ENDBRANCH   3   5
BRANCH   1  27
ATOM     27  O   UNL     1      43.910  34.610  40.548  0.00  0.00    +0.000 OA
BRANCH  27  30
ATOM     28 CL   UNL     1      42.896  32.065  39.395  0.00  0.00    +0.000 Cl
ATOM     29  C   UNL     1      41.947  33.468  39.854  0.00  0.00    +0.000 A 
ATOM     30  C   UNL     1      42.512  34.623  40.390  0.00  0.00    +0.000 A 
ATOM     31  C   UNL     1      41.729  35.684  40.729  0.00  0.00    +0.000 A 
ATOM     32  C   UNL     1      40.358  35.694  40.573  0.00  0.00    +0.000 A 
ATOM     33  C   UNL     1      39.758  34.536  40.033  0.00  0.00    +0.000 A 
ATOM     34 CL   UNL     1      38.021  34.455  39.797  0.00  0.00    +0.000 Cl
ATOM     35  C   UNL     1      40.585  33.480  39.700  0.00  0.00    +0.000 A 
ATOM     36  H   UNL     1      42.202  36.565  41.143  0.00  0.00    +0.000 HD
ATOM     37  H   UNL     1      39.755  36.545  40.848  0.00  0.00    +0.000 HD
BRANCH  35  40
ATOM     38  F   UNL     1      39.718  31.502  41.359  0.00  0.00    +0.000 F 
ATOM     39  C   UNL     1      39.542  31.292  40.012  0.00  0.00    +0.000 A 
ATOM     40  C   UNL     1      39.972  32.279  39.141  0.00  0.00    +0.000 A 
ATOM     41  C   UNL     1      39.775  32.028  37.780  0.00  0.00    +0.000 A 
ATOM     42  C   UNL     1      39.179  30.842  37.387  0.00  0.00    +0.000 A 
ATOM     43  C   UNL     1      38.766  29.882  38.325  0.00  0.00    +0.000 A 
ATOM     44  C   UNL     1      38.946  30.099  39.685  0.00  0.00    +0.000 A 
ATOM     45  H   UNL     1      40.108  32.792  37.108  0.00  0.00    +0.000 HD
ATOM     46  H   UNL     1      39.047  30.691  36.320  0.00  0.00    +0.000 HD
ATOM     47  H   UNL     1      38.300  28.960  37.988  0.00  0.00    +0.000 HD
ATOM     48  H   UNL     1      38.641  29.388  40.412  0.00  0.00    +0.000 HD
ENDBRANCH  35  40
ENDBRANCH  27  30
ENDBRANCH   1  27
TORSDOF 8
