
     RDKit          3D

 40 43  0  0  0  0  0  0  0  0999 V2000
   45.2679   36.1613   43.1676 C   0  0  0  0  0  0  0  0  0  0  0  0
   45.8677   34.9088   42.9111 C   0  0  0  0  0  0  0  0  0  0  0  0
   45.8279   33.9426   43.9046 C   0  0  0  0  0  0  0  0  0  0  0  0
   45.2246   34.2261   45.0709 N   0  0  0  0  0  0  0  0  0  0  0  0
   44.6466   35.4435   45.3084 C   0  0  0  0  0  0  0  0  0  0  0  0
   44.6796   36.3744   44.3640 N   0  0  0  0  0  0  0  0  0  0  0  0
   46.4479   32.6537   43.6340 C   0  0  0  0  0  0  0  0  0  0  0  0
   45.6598   31.5800   43.2995 C   0  0  0  0  0  0  0  0  0  0  0  0
   46.2796   30.3728   43.0493 C   0  0  0  0  0  0  0  0  0  0  0  0
   47.6537   30.1858   43.1174 C   0  0  0  0  0  0  0  0  0  0  0  0
   48.3789   31.3045   43.4579 C   0  0  0  0  0  0  0  0  0  0  0  0
   47.7767   32.4885   43.7038 N   0  0  0  0  0  0  0  0  0  0  0  0
   46.4913   34.6813   41.6447 C   0  0  0  0  0  0  0  0  0  0  0  0
   47.6680   35.1348   41.4759 O   0  0  0  0  0  0  0  0  0  0  0  0
   45.2789   36.9448   42.4124 H   0  0  0  0  0  0  0  0  0  0  0  0
   44.1695   35.6390   46.2573 H   0  0  0  0  0  0  0  0  0  0  0  0
   44.5885   31.6719   43.2329 H   0  0  0  0  0  0  0  0  0  0  0  0
   45.6297   29.5514   42.7895 H   0  0  0  0  0  0  0  0  0  0  0  0
   48.0781   29.2099   42.9088 H   0  0  0  0  0  0  0  0  0  0  0  0
   49.4560   31.2055   43.5232 H   0  0  0  0  0  0  0  0  0  0  0  0
   41.8132   31.5952   38.5977 C   0  0  0  0  0  0  0  0  0  0  0  0
   42.2568   31.2157   37.6340 H   0  0  0  0  0  0  0  0  0  0  0  0
   42.8790   31.7176   39.6536 C   0  0  0  0  0  0  0  0  0  0  0  0
   42.6176   30.8880   40.8693 C   0  0  0  0  0  0  0  0  0  0  0  0
   41.9560   30.0178   40.6612 H   0  0  0  0  0  0  0  0  0  0  0  0
   44.2460   31.5240   39.1277 C   0  0  0  0  0  0  0  0  0  0  0  0
   45.2076   32.1676   39.9238 N   0  0  0  0  0  0  0  0  0  0  0  0
   46.4597   32.5689   40.4633 C   0  0  0  0  0  0  0  0  0  0  0  0
   47.5297   31.9684   40.7192 O   0  0  0  0  0  0  0  0  0  0  0  0
   45.8239   33.9438   40.5328 C   0  0  1  0  0  0  0  0  0  0  0  0
   44.6760   33.1052   40.9382 C   0  0  1  0  0  0  0  0  0  0  0  0
   43.0410   33.4553   40.2500 S   0  0  0  0  0  0  0  0  0  0  0  0
   41.0549   30.8340   38.8748 H   0  0  0  0  0  0  0  0  0  0  0  0
   41.3343   32.5834   38.4414 H   0  0  0  0  0  0  0  0  0  0  0  0
   42.0997   31.4813   41.6752 H   0  0  0  0  0  0  0  0  0  0  0  0
   43.5903   30.5769   41.3147 H   0  0  0  0  0  0  0  0  0  0  0  0
   44.4880   30.4195   39.0927 H   0  0  0  0  0  0  0  0  0  0  0  0
   44.2267   31.8180   38.0568 H   0  0  0  0  0  0  0  0  0  0  0  0
   45.7698   34.4682   39.5731 H   0  0  0  0  0  0  0  0  0  0  0  0
   44.7269   32.7614   41.9689 H   0  0  0  0  0  0  0  0  0  0  0  0
  1  6  2  0
  2  1  1  0
  2  3  2  0
  3  4  1  0
  4  5  2  0
  6  5  1  0
  7 12  1  0
  7  3  1  0
  8  7  2  0
  9 10  2  0
  9  8  1  0
 10 11  1  0
 11 12  2  0
 13  2  1  0
 14 13  2  0
  1 15  1  0
  5 16  1  0
  8 17  1  0
  9 18  1  0
 10 19  1  0
 11 20  1  0
 21 22  1  0
 21 23  1  0
 23 24  1  0
 24 25  1  0
 23 26  1  0
 26 27  1  0
 27 28  1  0
 28 29  2  0
 28 30  1  0
 30 31  1  0
 31 32  1  0
 32 23  1  0
 31 27  1  0
 21 33  1  0
 21 34  1  0
 24 35  1  0
 24 36  1  0
 26 37  1  0
 26 38  1  0
 30 39  1  6
 31 40  1  1
 13 30  1  0
M  ISO  8  15  14  16  14  17  14  18  14  19  14  20  14  22   8  25   8
M  END
>  <DihAtoms>  (1) 
1,12,29,27

>  <DihDeg>  (1) 
60.00911303127712

$$$$
