
 OpenBabel03252501413D

 48 53  0  0  1  0  0  0  0  0999 V2000
   44.7370   33.0380   42.3640 C   0  0  0  0  0  0  0  0  0  0  0  0
   44.3170   32.1210   43.1650 O   0  0  0  0  0  0  0  0  0  0  0  0
   45.6000   33.9700   43.0150 N   0  0  0  0  0  0  0  0  0  0  0  0
   46.0600   34.7440   42.5380 H   0  0  0  0  0  0  0  0  0  0  0  0
   45.7010   33.6330   44.4160 C   0  0  0  0  0  0  0  0  0  0  0  0
   45.1160   34.2940   45.4500 C   0  0  0  0  0  0  0  0  0  0  0  0
   45.3390   33.8080   46.7120 C   0  0  0  0  0  0  0  0  0  0  0  0
   46.1260   32.7050   46.8340 N   0  0  0  0  0  0  0  0  0  0  0  0
   46.6890   32.0750   45.7960 C   0  0  0  0  0  0  0  0  0  0  0  0
   46.4800   32.5410   44.5390 N   0  0  0  0  0  0  0  0  0  0  0  0
   44.8840   34.3160   47.5490 H   0  0  0  0  0  0  0  0  0  0  0  0
   44.3340   35.4170   45.1370 N   0  0  0  0  0  0  0  0  0  0  0  0
   43.4540   35.3750   45.6940 H   0  0  0  0  0  0  0  0  0  0  0  0
   44.5570   36.1810   44.4720 H   0  0  0  0  0  0  0  0  0  0  0  0
   47.5220   30.8840   46.1020 C   0  0  0  0  0  2  0  0  0  0  0  0
   46.6890   29.6350   45.9670 C   0  0  1  0  0  0  0  0  0  0  0  0
   45.2770   29.7970   46.3360 C   0  0  0  0  0  2  0  0  0  0  0  0
   44.4050   29.0580   45.5340 N   0  0  1  0  0  0  0  0  0  0  0  0
   43.1940   28.5620   45.0290 C   0  0  1  0  0  0  0  0  0  0  0  0
   42.0420   28.2140   45.3930 O   0  0  0  0  0  1  0  0  0  0  0  0
   43.8640   28.5980   43.6770 C   0  0  0  0  0  3  0  0  0  0  0  0
   43.9890   29.6210   43.2860 H   0  0  0  0  0  0  0  0  0  0  0  0
   45.0240   28.2160   44.5320 C   0  0  1  0  0  0  0  0  0  0  0  0
   46.5850   29.0900   44.2380 S   0  0  0  0  0  0  0  0  0  0  0  0
   47.2940   28.5020   46.7440 C   0  0  0  0  0  2  0  0  0  0  0  0
   46.9930   28.4920   47.8150 H   0  0  0  0  0  0  0  0  0  0  0  0
   44.4340   33.1770   41.0090 O   0  0  0  0  0  0  0  0  0  0  0  0
   42.5050   30.9500   40.6180 Cl  0  0  0  0  0  0  0  0  0  0  0  0
   42.1790   32.6680   40.4670 C   0  0  0  0  0  0  0  0  0  0  0  0
   43.1510   33.6440   40.6700 C   0  0  0  0  0  0  0  0  0  0  0  0
   42.8450   34.9650   40.5400 C   0  0  0  0  0  0  0  0  0  0  0  0
   41.5860   35.4210   40.2070 C   0  0  0  0  0  0  0  0  0  0  0  0
   40.5800   34.4530   39.9960 C   0  0  0  0  0  0  0  0  0  0  0  0
   38.9480   34.9360   39.5690 Cl  0  0  0  0  0  0  0  0  0  0  0  0
   40.9290   33.1230   40.1370 C   0  0  0  0  0  0  0  0  0  0  0  0
   43.6250   35.6960   40.7050 H   0  0  0  0  0  0  0  0  0  0  0  0
   41.3630   36.4710   40.1090 H   0  0  0  0  0  0  0  0  0  0  0  0
   39.3890   32.2900   42.2230 F   0  0  0  0  0  0  0  0  0  0  0  0
   39.1290   31.7140   41.0020 C   0  0  0  0  0  0  0  0  0  0  0  0
   39.8940   32.1160   39.9200 C   0  0  0  0  0  0  0  0  0  0  0  0
   39.5990   31.5080   38.6970 C   0  0  0  0  0  0  0  0  0  0  0  0
   38.5880   30.5640   38.6340 C   0  0  0  0  0  0  0  0  0  0  0  0
   37.8500   30.2020   39.7720 C   0  0  0  0  0  0  0  0  0  0  0  0
   38.1160   30.7870   41.0030 C   0  0  0  0  0  0  0  0  0  0  0  0
   40.1920   31.8190   37.8610 H   0  0  0  0  0  0  0  0  0  0  0  0
   38.3950   30.1190   37.6630 H   0  0  0  0  0  0  0  0  0  0  0  0
   37.0610   29.4590   39.6930 H   0  0  0  0  0  0  0  0  0  0  0  0
   37.5700   30.5300   41.8760 H   0  0  0  0  0  0  0  0  0  0  0  0
  1  3  1  0  0  0  0
  1  2  2  0  0  0  0
  3  5  1  0  0  0  0
  4  3  1  0  0  0  0
  5 10  2  0  0  0  0
  5  6  1  0  0  0  0
  6  7  2  0  0  0  0
  7  8  1  0  0  0  0
  7 11  1  0  0  0  0
  9 15  1  0  0  0  0
  9  8  2  0  0  0  0
 10  9  1  0  0  0  0
 12  6  1  0  0  0  0
 12 13  1  0  0  0  0
 14 12  1  0  0  0  0
 16 15  1  1  0  0  0
 16 17  1  0  0  0  0
 16 25  1  0  0  0  0
 18 17  1  6  0  0  0
 19 20  1  1  0  0  0
 19 18  1  0  0  0  0
 21 19  1  0  0  0  0
 22 21  1  0  0  0  0
 23 21  1  6  0  0  0
 23 19  1  0  0  0  0
 23 18  1  0  0  0  0
 24 23  1  0  0  0  0
 24 16  1  0  0  0  0
 25 26  1  0  0  0  0
 27  1  1  0  0  0  0
 29 28  1  0  0  0  0
 29 30  1  0  0  0  0
 30 27  1  0  0  0  0
 31 30  2  0  0  0  0
 31 36  1  0  0  0  0
 32 31  1  0  0  0  0
 33 35  1  0  0  0  0
 33 32  2  0  0  0  0
 34 33  1  0  0  0  0
 35 29  2  0  0  0  0
 37 32  1  0  0  0  0
 39 44  1  0  0  0  0
 39 38  1  0  0  0  0
 40 35  1  0  0  0  0
 40 39  2  0  0  0  0
 41 40  1  0  0  0  0
 42 41  2  0  0  0  0
 42 43  1  0  0  0  0
 43 44  2  0  0  0  0
 44 48  1  0  0  0  0
 45 41  1  0  0  0  0
 46 42  1  0  0  0  0
 47 43  1  0  0  0  0
M  END
>  <minimizedAffinity>
-6.40505409

>  <minimizedRMSD>
2.12471318

$$$$
