
     RDKit          3D

 31 33  0  0  0  0  0  0  0  0999 V2000
   46.2189   34.8340   43.1857 C   0  0  0  0  0  0  0  0  0  0  0  0
   45.3183   35.9105   43.2799 C   0  0  0  0  0  0  0  0  0  0  0  0
   44.5589   36.0097   44.4570 C   0  0  0  0  0  0  0  0  0  0  0  0
   44.7443   35.0655   45.4182 N   0  0  0  0  0  0  0  0  0  0  0  0
   45.6178   34.0530   45.2838 C   0  0  0  0  0  0  0  0  0  0  0  0
   46.3515   33.9427   44.1664 N   0  0  0  0  0  0  0  0  0  0  0  0
   46.9603   34.7922   41.9621 C   0  0  0  0  0  0  0  0  0  0  0  0
   48.0570   35.3953   41.7410 O   0  0  0  0  0  0  0  0  0  0  0  0
   45.1441   36.6682   42.5525 H   0  0  0  0  0  0  0  0  0  0  0  0
   43.8476   36.7865   44.6311 H   0  0  0  0  0  0  0  0  0  0  0  0
   45.6917   33.3514   46.1084 H   0  0  0  0  0  0  0  0  0  0  0  0
   46.6257   29.6202   42.6616 C   0  0  0  0  0  0  0  0  0  0  0  0
   46.1276   29.6568   41.6753 H   0  0  0  0  0  0  0  0  0  0  0  0
   47.4867   30.8781   42.8423 C   0  0  0  0  0  0  0  0  0  0  0  0
   48.4472   30.6985   43.9906 C   0  0  0  0  0  0  0  0  0  0  0  0
   48.1765   29.7599   44.5141 H   0  0  0  0  0  0  0  0  0  0  0  0
   48.1078   31.2106   41.5608 C   0  0  0  0  0  0  0  0  0  0  0  0
   47.4776   32.2715   40.9101 N   0  0  0  0  0  0  0  0  0  0  0  0
   47.3224   33.3410   40.0347 C   0  0  0  0  0  0  0  0  0  0  0  0
   47.7453   33.7963   38.9399 O   0  0  0  0  0  0  0  0  0  0  0  0
   46.3006   33.9400   40.9256 C   0  0  1  0  0  0  0  0  0  0  0  0
   46.1203   32.5073   41.3221 C   0  0  2  0  0  0  0  0  0  0  0  0
   46.2976   32.2191   43.1276 S   0  0  0  0  0  0  0  0  0  0  0  0
   45.8847   29.6414   43.4867 H   0  0  0  0  0  0  0  0  0  0  0  0
   47.2345   28.7019   42.7763 H   0  0  0  0  0  0  0  0  0  0  0  0
   49.4857   30.6311   43.5705 H   0  0  0  0  0  0  0  0  0  0  0  0
   48.3557   31.5066   44.7463 H   0  0  0  0  0  0  0  0  0  0  0  0
   49.2082   31.3699   41.7669 H   0  0  0  0  0  0  0  0  0  0  0  0
   48.1189   30.3070   40.8831 H   0  0  0  0  0  0  0  0  0  0  0  0
   45.4416   34.4314   40.4213 H   0  0  0  0  0  0  0  0  0  0  0  0
   45.3202   31.9620   40.8353 H   0  0  0  0  0  0  0  0  0  0  0  0
  1  2  2  0
  1  6  1  0
  2  3  1  0
  3  4  2  0
  5  4  1  0
  6  5  2  0
  7  1  1  0
  8  7  2  0
  2  9  1  0
  3 10  1  0
  5 11  1  0
 12 13  1  0
 12 14  1  0
 14 15  1  0
 15 16  1  0
 14 17  1  0
 17 18  1  0
 18 19  1  0
 19 20  2  0
 19 21  1  0
 21 22  1  0
 22 23  1  0
 23 14  1  0
 22 18  1  0
 12 24  1  0
 12 25  1  0
 15 26  1  0
 15 27  1  0
 17 28  1  0
 17 29  1  0
 21 30  1  6
 22 31  1  6
  7 21  1  0
M  ISO  5   9  14  10  14  11  14  13   8  16   8
M  END
>  <DihAtoms>  (1) 
0,6,20,18

>  <DihDeg>  (1) 
59.99856609194603

$$$$
