REMARK  Name = 
REMARK  4 active torsions:
REMARK  status: ('A' for Active; 'I' for Inactive)
REMARK    1  A    between atoms: C_3  and  S_7
REMARK    2  A    between atoms: S_7  and  C_11
REMARK    3  A    between atoms: C_11  and  C_12
REMARK    4  A    between atoms: C_12  and  C_13
REMARK                            x       y       z     vdW  Elec       q    Type
REMARK                         _______ _______ _______ _____ _____    ______ ____
ROOT
ATOM      1  C   UNL     1      48.096  33.086  41.837  0.00  0.00    +0.000 C 
ENDROOT
BRANCH   1   2
ATOM      2  C   UNL     1      48.572  32.725  40.452  0.00  0.00    +0.000 C 
ATOM      3  C   UNL     1      49.349  31.440  40.424  0.00  0.00    +0.000 C 
ATOM      4  N   UNL     1      48.394  30.357  40.262  0.00  0.00    +0.000 N 
ATOM      5  C   UNL     1      47.562  29.204  40.372  0.00  0.00    +0.000 C 
ATOM      6  O   UNL     1      47.536  28.232  41.178  0.00  0.00    +0.000 OA
ATOM      7  C   UNL     1      46.725  29.544  39.194  0.00  0.00    +0.000 C 
ATOM      8  H   UNL     1      46.775  28.782  38.365  0.00  0.00    +0.000 HD
ATOM      9  C   UNL     1      47.739  30.603  38.967  0.00  0.00    +0.000 C 
ATOM     10  S   UNL     1      47.190  32.317  39.345  0.00  0.00    +0.000 S 
BRANCH   2  11
ATOM     11  C   UNL     1      49.380  33.804  39.812  0.00  0.00    +0.000 C 
ATOM     12  H   UNL     1      49.689  33.391  38.807  0.00  0.00    +0.000 HD
ENDBRANCH   2  11
ENDBRANCH   1   2
BRANCH   1  13
ATOM     13  S   UNL     1      47.072  34.567  41.696  0.00  0.00    +0.000 S 
BRANCH  13  16
ATOM     14  C   UNL     1      44.542  36.028  44.528  0.00  0.00    +0.000 A 
ATOM     15  C   UNL     1      45.260  35.894  43.319  0.00  0.00    +0.000 A 
ATOM     16  C   UNL     1      46.134  34.788  43.209  0.00  0.00    +0.000 A 
ATOM     17  N   UNL     1      46.230  33.934  44.257  0.00  0.00    +0.000 NA
ATOM     18  C   UNL     1      45.529  34.099  45.390  0.00  0.00    +0.000 A 
ATOM     19  N   UNL     1      44.683  35.144  45.531  0.00  0.00    +0.000 NA
ATOM     20  H   UNL     1      43.902  36.893  44.529  0.00  0.00    +0.000 HD
ATOM     21  H   UNL     1      45.160  36.596  42.500  0.00  0.00    +0.000 HD
ATOM     22  H   UNL     1      45.599  33.423  46.230  0.00  0.00    +0.000 HD
ENDBRANCH  13  16
ENDBRANCH   1  13
TORSDOF 4
