
     RDKit          3D

 30 32  0  0  0  0  0  0  0  0999 V2000
   44.5422   36.0278   44.5277 C   0  0  0  0  0  0  0  0  0  0  0  0
   45.2604   35.8936   43.3185 C   0  0  0  0  0  0  0  0  0  0  0  0
   46.1344   34.7880   43.2093 C   0  0  0  0  0  0  0  0  0  0  0  0
   46.2305   33.9337   44.2566 N   0  0  0  0  0  0  0  0  0  0  0  0
   45.5285   34.0987   45.3899 C   0  0  0  0  0  0  0  0  0  0  0  0
   44.6827   35.1440   45.5311 N   0  0  0  0  0  0  0  0  0  0  0  0
   47.0723   34.5672   41.6959 S   0  0  0  0  0  0  0  0  0  0  0  0
   43.9017   36.8926   44.5289 H   0  0  0  0  0  0  0  0  0  0  0  0
   45.1595   36.5962   42.4998 H   0  0  0  0  0  0  0  0  0  0  0  0
   45.5985   33.4229   46.2300 H   0  0  0  0  0  0  0  0  0  0  0  0
   48.0964   33.0857   41.8367 C   0  0  0  0  0  0  0  0  0  0  0  0
   49.4717   33.4296   41.3227 C   0  0  1  0  0  0  0  0  0  0  0  0
   50.1222   34.5334   42.0878 C   0  0  0  0  0  0  0  0  0  0  0  0
   51.1420   34.6619   41.6193 H   0  0  0  0  0  0  0  0  0  0  0  0
   50.3895   32.2416   41.2887 C   0  0  0  0  0  0  0  0  0  0  0  0
   50.1953   31.5785   40.0099 N   0  0  0  0  0  0  0  0  0  0  0  0
   49.9157   30.6931   38.9271 C   0  0  0  0  0  0  0  0  0  0  0  0
   49.6349   29.4635   38.8677 O   0  0  0  0  0  0  0  0  0  0  0  0
   50.0711   31.7315   37.8776 C   0  0  1  0  0  0  0  0  0  0  0  0
   50.9034   31.5198   37.1466 H   0  0  0  0  0  0  0  0  0  0  0  0
   50.5796   32.5689   38.9920 C   0  0  1  0  0  0  0  0  0  0  0  0
   49.4427   33.8951   39.5664 S   0  0  0  0  0  0  0  0  0  0  0  0
   48.2366   32.7849   42.8996 H   0  0  0  0  0  0  0  0  0  0  0  0
   47.6443   32.2404   41.3227 H   0  0  0  0  0  0  0  0  0  0  0  0
   49.6384   35.5222   41.9361 H   0  0  0  0  0  0  0  0  0  0  0  0
   50.3148   34.2746   43.1376 H   0  0  0  0  0  0  0  0  0  0  0  0
   50.0864   31.5590   42.1093 H   0  0  0  0  0  0  0  0  0  0  0  0
   51.4499   32.5379   41.3402 H   0  0  0  0  0  0  0  0  0  0  0  0
   49.1290   32.0741   37.4045 H   0  0  0  0  0  0  0  0  0  0  0  0
   51.6302   32.8606   39.0036 H   0  0  0  0  0  0  0  0  0  0  0  0
  1  6  2  0
  2  1  1  0
  3  2  2  0
  3  4  1  0
  4  5  2  0
  5  6  1  0
  7  3  1  0
  1  8  1  0
  2  9  1  0
  5 10  1  0
 12 11  1  1
 12 13  1  0
 13 14  1  0
 12 15  1  0
 15 16  1  0
 16 17  1  0
 17 18  2  0
 17 19  1  0
 19 20  1  6
 19 21  1  0
 21 22  1  0
 22 12  1  0
 21 16  1  0
 11 23  1  0
 11 24  1  0
 13 25  1  0
 13 26  1  0
 15 27  1  0
 15 28  1  0
 19 29  1  0
 21 30  1  6
  7 11  1  0
M  ISO  5   8  14   9  14  10  14  14   8  20  15
M  END
>  <DihAtoms>  (1) 
2,6,10,11

>  <DihDeg>  (1) 
179.99985870743572

$$$$
