
     RDKit          3D

 30 32  0  0  0  0  0  0  0  0999 V2000
   44.5422   36.0278   44.5277 C   0  0  0  0  0  0  0  0  0  0  0  0
   45.2604   35.8936   43.3185 C   0  0  0  0  0  0  0  0  0  0  0  0
   46.1344   34.7880   43.2093 C   0  0  0  0  0  0  0  0  0  0  0  0
   46.2305   33.9337   44.2566 N   0  0  0  0  0  0  0  0  0  0  0  0
   45.5285   34.0987   45.3899 C   0  0  0  0  0  0  0  0  0  0  0  0
   44.6827   35.1440   45.5311 N   0  0  0  0  0  0  0  0  0  0  0  0
   47.0723   34.5672   41.6959 S   0  0  0  0  0  0  0  0  0  0  0  0
   43.9017   36.8926   44.5289 H   0  0  0  0  0  0  0  0  0  0  0  0
   45.1595   36.5962   42.4998 H   0  0  0  0  0  0  0  0  0  0  0  0
   45.5985   33.4229   46.2300 H   0  0  0  0  0  0  0  0  0  0  0  0
   48.0964   33.0857   41.8367 C   0  0  0  0  0  0  0  0  0  0  0  0
   47.1758   31.9126   42.0610 C   0  0  1  0  0  0  0  0  0  0  0  0
   46.2007   31.7143   40.9489 C   0  0  0  0  0  0  0  0  0  0  0  0
   45.6049   30.7976   41.2329 H   0  0  0  0  0  0  0  0  0  0  0  0
   47.9207   30.6313   42.3019 C   0  0  0  0  0  0  0  0  0  0  0  0
   48.1958   30.5496   43.7268 N   0  0  0  0  0  0  0  0  0  0  0  0
   48.7567   30.4725   45.0359 C   0  0  0  0  0  0  0  0  0  0  0  0
   49.9317   30.2955   45.4628 O   0  0  0  0  0  0  0  0  0  0  0  0
   47.4628   30.6752   45.7349 C   0  0  1  0  0  0  0  0  0  0  0  0
   47.1552   29.8069   46.3855 H   0  0  0  0  0  0  0  0  0  0  0  0
   46.8777   30.5220   44.3799 C   0  0  1  0  0  0  0  0  0  0  0  0
   46.2441   32.0685   43.6133 S   0  0  0  0  0  0  0  0  0  0  0  0
   48.6363   32.8700   40.8871 H   0  0  0  0  0  0  0  0  0  0  0  0
   48.8493   33.1960   42.6140 H   0  0  0  0  0  0  0  0  0  0  0  0
   45.4331   32.5154   40.8848 H   0  0  0  0  0  0  0  0  0  0  0  0
   46.6816   31.4644   39.9937 H   0  0  0  0  0  0  0  0  0  0  0  0
   48.8776   30.6886   41.7430 H   0  0  0  0  0  0  0  0  0  0  0  0
   47.3170   29.7474   42.0390 H   0  0  0  0  0  0  0  0  0  0  0  0
   47.3298   31.6674   46.2110 H   0  0  0  0  0  0  0  0  0  0  0  0
   46.2694   29.6447   44.1576 H   0  0  0  0  0  0  0  0  0  0  0  0
  1  6  2  0
  2  1  1  0
  3  2  2  0
  3  4  1  0
  4  5  2  0
  5  6  1  0
  7  3  1  0
  1  8  1  0
  2  9  1  0
  5 10  1  0
 12 11  1  6
 12 13  1  0
 13 14  1  0
 12 15  1  0
 15 16  1  0
 16 17  1  0
 17 18  2  0
 17 19  1  0
 19 20  1  1
 19 21  1  0
 21 22  1  0
 22 12  1  0
 21 16  1  0
 11 23  1  0
 11 24  1  0
 13 25  1  0
 13 26  1  0
 15 27  1  0
 15 28  1  0
 19 29  1  0
 21 30  1  1
  7 11  1  0
M  ISO  5   8  14   9  14  10  14  14   8  20  15
M  END
>  <DihAtoms>  (1) 
2,6,10,11

>  <DihDeg>  (1) 
179.99985870743572

$$$$
