
     RDKit          3D

 30 32  0  0  0  0  0  0  0  0999 V2000
   44.5422   36.0278   44.5277 C   0  0  0  0  0  0  0  0  0  0  0  0
   45.2604   35.8936   43.3185 C   0  0  0  0  0  0  0  0  0  0  0  0
   46.1344   34.7880   43.2093 C   0  0  0  0  0  0  0  0  0  0  0  0
   46.2305   33.9337   44.2566 N   0  0  0  0  0  0  0  0  0  0  0  0
   45.5285   34.0987   45.3899 C   0  0  0  0  0  0  0  0  0  0  0  0
   44.6827   35.1440   45.5311 N   0  0  0  0  0  0  0  0  0  0  0  0
   47.0723   34.5672   41.6959 S   0  0  0  0  0  0  0  0  0  0  0  0
   43.9017   36.8926   44.5289 H   0  0  0  0  0  0  0  0  0  0  0  0
   45.1595   36.5962   42.4998 H   0  0  0  0  0  0  0  0  0  0  0  0
   45.5985   33.4229   46.2300 H   0  0  0  0  0  0  0  0  0  0  0  0
   48.0964   33.0857   41.8367 C   0  0  0  0  0  0  0  0  0  0  0  0
   49.4240   33.5008   42.4191 C   0  0  1  0  0  0  0  0  0  0  0  0
   49.3003   34.1250   43.7689 C   0  0  0  0  0  0  0  0  0  0  0  0
   50.3585   34.3551   44.0904 H   0  0  0  0  0  0  0  0  0  0  0  0
   50.4059   32.3666   42.4851 C   0  0  0  0  0  0  0  0  0  0  0  0
   51.1021   32.3194   41.2100 N   0  0  0  0  0  0  0  0  0  0  0  0
   51.6613   31.9959   39.9384 C   0  0  0  0  0  0  0  0  0  0  0  0
   51.7053   30.9320   39.2599 O   0  0  0  0  0  0  0  0  0  0  0  0
   52.1823   33.3624   39.6833 C   0  0  1  0  0  0  0  0  0  0  0  0
   53.3041   33.4103   39.5777 H   0  0  0  0  0  0  0  0  0  0  0  0
   51.7977   33.6107   41.0948 C   0  0  1  0  0  0  0  0  0  0  0  0
   50.3075   34.6609   41.3348 S   0  0  0  0  0  0  0  0  0  0  0  0
   47.6637   32.3564   42.5583 H   0  0  0  0  0  0  0  0  0  0  0  0
   48.1873   32.5737   40.8813 H   0  0  0  0  0  0  0  0  0  0  0  0
   48.8095   35.1218   43.7524 H   0  0  0  0  0  0  0  0  0  0  0  0
   48.9089   33.4350   44.5283 H   0  0  0  0  0  0  0  0  0  0  0  0
   49.8283   31.4298   42.6263 H   0  0  0  0  0  0  0  0  0  0  0  0
   51.1696   32.5269   43.2635 H   0  0  0  0  0  0  0  0  0  0  0  0
   51.6301   33.9471   38.9204 H   0  0  0  0  0  0  0  0  0  0  0  0
   52.5771   33.7845   41.8373 H   0  0  0  0  0  0  0  0  0  0  0  0
  1  6  2  0
  2  1  1  0
  3  2  2  0
  3  4  1  0
  4  5  2  0
  5  6  1  0
  7  3  1  0
  1  8  1  0
  2  9  1  0
  5 10  1  0
 12 11  1  6
 12 13  1  0
 13 14  1  0
 12 15  1  0
 15 16  1  0
 16 17  1  0
 17 18  2  0
 17 19  1  0
 19 20  1  1
 19 21  1  0
 21 22  1  0
 22 12  1  0
 21 16  1  0
 11 23  1  0
 11 24  1  0
 13 25  1  0
 13 26  1  0
 15 27  1  0
 15 28  1  0
 19 29  1  0
 21 30  1  1
  7 11  1  0
M  ISO  5   8  14   9  14  10  14  14   8  20  15
M  END
>  <DihAtoms>  (1) 
2,6,10,11

>  <DihDeg>  (1) 
179.99985870743572

$$$$
