REMARK  Name = 
REMARK  4 active torsions:
REMARK  status: ('A' for Active; 'I' for Inactive)
REMARK    1  A    between atoms: C_3  and  S_7
REMARK    2  A    between atoms: S_7  and  C_11
REMARK    3  A    between atoms: C_11  and  C_12
REMARK    4  A    between atoms: C_12  and  C_13
REMARK                            x       y       z     vdW  Elec       q    Type
REMARK                         _______ _______ _______ _____ _____    ______ ____
ROOT
ATOM      1  C   UNL     1      48.096  33.086  41.837  0.00  0.00    +0.000 C 
ENDROOT
BRANCH   1   2
ATOM      2  C   UNL     1      49.424  33.501  42.419  0.00  0.00    +0.000 C 
ATOM      3  C   UNL     1      50.406  32.367  42.485  0.00  0.00    +0.000 C 
ATOM      4  N   UNL     1      51.102  32.319  41.210  0.00  0.00    +0.000 N 
ATOM      5  C   UNL     1      51.661  31.996  39.938  0.00  0.00    +0.000 C 
ATOM      6  O   UNL     1      51.705  30.932  39.260  0.00  0.00    +0.000 OA
ATOM      7  C   UNL     1      52.182  33.362  39.683  0.00  0.00    +0.000 C 
ATOM      8  H   UNL     1      53.304  33.410  39.578  0.00  0.00    +0.000 HD
ATOM      9  C   UNL     1      51.798  33.611  41.095  0.00  0.00    +0.000 C 
ATOM     10  S   UNL     1      50.307  34.661  41.335  0.00  0.00    +0.000 S 
BRANCH   2  11
ATOM     11  C   UNL     1      49.300  34.125  43.769  0.00  0.00    +0.000 C 
ATOM     12  H   UNL     1      50.358  34.355  44.090  0.00  0.00    +0.000 HD
ENDBRANCH   2  11
ENDBRANCH   1   2
BRANCH   1  13
ATOM     13  S   UNL     1      47.072  34.567  41.696  0.00  0.00    +0.000 S 
BRANCH  13  16
ATOM     14  C   UNL     1      44.542  36.028  44.528  0.00  0.00    +0.000 A 
ATOM     15  C   UNL     1      45.260  35.894  43.319  0.00  0.00    +0.000 A 
ATOM     16  C   UNL     1      46.134  34.788  43.209  0.00  0.00    +0.000 A 
ATOM     17  N   UNL     1      46.230  33.934  44.257  0.00  0.00    +0.000 NA
ATOM     18  C   UNL     1      45.529  34.099  45.390  0.00  0.00    +0.000 A 
ATOM     19  N   UNL     1      44.683  35.144  45.531  0.00  0.00    +0.000 NA
ATOM     20  H   UNL     1      43.902  36.893  44.529  0.00  0.00    +0.000 HD
ATOM     21  H   UNL     1      45.160  36.596  42.500  0.00  0.00    +0.000 HD
ATOM     22  H   UNL     1      45.599  33.423  46.230  0.00  0.00    +0.000 HD
ENDBRANCH  13  16
ENDBRANCH   1  13
TORSDOF 4
