
     RDKit          3D

 30 32  0  0  0  0  0  0  0  0999 V2000
   44.5422   36.0278   44.5277 C   0  0  0  0  0  0  0  0  0  0  0  0
   45.2604   35.8936   43.3185 C   0  0  0  0  0  0  0  0  0  0  0  0
   46.1344   34.7880   43.2093 C   0  0  0  0  0  0  0  0  0  0  0  0
   46.2305   33.9337   44.2566 N   0  0  0  0  0  0  0  0  0  0  0  0
   45.5285   34.0987   45.3899 C   0  0  0  0  0  0  0  0  0  0  0  0
   44.6827   35.1440   45.5311 N   0  0  0  0  0  0  0  0  0  0  0  0
   47.0723   34.5672   41.6959 S   0  0  0  0  0  0  0  0  0  0  0  0
   43.9017   36.8926   44.5289 H   0  0  0  0  0  0  0  0  0  0  0  0
   45.1595   36.5962   42.4998 H   0  0  0  0  0  0  0  0  0  0  0  0
   45.5985   33.4229   46.2300 H   0  0  0  0  0  0  0  0  0  0  0  0
   48.0964   33.0857   41.8367 C   0  0  0  0  0  0  0  0  0  0  0  0
   48.8658   32.9371   40.5483 C   0  0  1  0  0  0  0  0  0  0  0  0
   49.7511   34.1030   40.2587 C   0  0  0  0  0  0  0  0  0  0  0  0
   50.2800   33.8450   39.2945 H   0  0  0  0  0  0  0  0  0  0  0  0
   49.6773   31.6745   40.5023 C   0  0  0  0  0  0  0  0  0  0  0  0
   48.8172   30.6235   39.9841 N   0  0  0  0  0  0  0  0  0  0  0  0
   48.0231   29.4628   39.7466 C   0  0  0  0  0  0  0  0  0  0  0  0
   47.8625   28.3821   40.3795 O   0  0  0  0  0  0  0  0  0  0  0  0
   47.4413   29.9707   38.4788 C   0  0  1  0  0  0  0  0  0  0  0  0
   47.6920   29.3408   37.5775 H   0  0  0  0  0  0  0  0  0  0  0  0
   48.4415   31.0564   38.6291 C   0  0  1  0  0  0  0  0  0  0  0  0
   47.7636   32.6923   39.1244 S   0  0  0  0  0  0  0  0  0  0  0  0
   48.8632   33.1931   42.6369 H   0  0  0  0  0  0  0  0  0  0  0  0
   47.4980   32.2115   42.0833 H   0  0  0  0  0  0  0  0  0  0  0  0
   49.1933   35.0316   40.0106 H   0  0  0  0  0  0  0  0  0  0  0  0
   50.5487   34.2334   41.0023 H   0  0  0  0  0  0  0  0  0  0  0  0
   49.9762   31.4290   41.5423 H   0  0  0  0  0  0  0  0  0  0  0  0
   50.5334   31.7592   39.8134 H   0  0  0  0  0  0  0  0  0  0  0  0
   46.3782   30.2799   38.5338 H   0  0  0  0  0  0  0  0  0  0  0  0
   49.2665   31.1236   37.9193 H   0  0  0  0  0  0  0  0  0  0  0  0
  1  6  2  0
  2  1  1  0
  3  2  2  0
  3  4  1  0
  4  5  2  0
  5  6  1  0
  7  3  1  0
  1  8  1  0
  2  9  1  0
  5 10  1  0
 12 11  1  1
 12 13  1  0
 13 14  1  0
 12 15  1  0
 15 16  1  0
 16 17  1  0
 17 18  2  0
 17 19  1  0
 19 20  1  6
 19 21  1  0
 21 22  1  0
 22 12  1  0
 21 16  1  0
 11 23  1  0
 11 24  1  0
 13 25  1  0
 13 26  1  0
 15 27  1  0
 15 28  1  0
 19 29  1  0
 21 30  1  6
  7 11  1  0
M  ISO  5   8  14   9  14  10  14  14   8  20  15
M  END
>  <DihAtoms>  (1) 
2,6,10,11

>  <DihDeg>  (1) 
179.99985870743572

$$$$
