
 OpenBabel03242511163D

 22 24  0  0  1  0  0  0  0  0999 V2000
   47.6130   32.7320   42.0020 C   0  0  0  0  0  0  0  0  0  0  0  0
   48.8330   33.2870   41.3090 C   0  0  1  0  0  0  0  0  0  0  0  0
   50.0100   33.4260   42.2320 C   0  0  0  0  0  0  0  0  0  0  0  0
   50.7170   32.1560   42.2260 N   0  0  0  0  0  0  0  0  0  0  0  0
   51.3430   30.9070   42.5170 C   0  0  0  0  0  0  0  0  0  0  0  0
   51.5940   30.2970   43.5940 O   0  0  0  0  0  0  0  0  0  0  0  0
   51.6010   30.5660   41.0960 C   0  0  0  0  0  0  0  0  0  0  0  0
   52.6950   30.4580   40.8440 H   0  0  0  0  0  0  0  0  0  0  0  0
   51.1600   31.9590   40.8370 C   0  0  1  0  0  0  0  0  0  0  0  0
   49.4960   32.1320   40.0730 S   0  0  0  0  0  0  0  0  0  0  0  0
   48.5780   34.5950   40.6370 C   0  0  0  0  0  0  0  0  0  0  0  0
   49.5700   34.9010   40.1920 H   0  0  0  0  0  0  0  0  0  0  0  0
   46.2620   33.9040   41.7540 S   0  0  0  0  0  0  0  0  0  0  0  0
   44.4380   36.0140   44.7170 C   0  0  0  0  0  0  0  0  0  0  0  0
   44.9210   35.6460   43.4420 C   0  0  0  0  0  0  0  0  0  0  0  0
   45.6240   34.4230   43.3490 C   0  0  0  0  0  0  0  0  0  0  0  0
   45.7910   33.6860   44.4740 N   0  0  0  0  0  0  0  0  0  0  0  0
   45.3150   34.0730   45.6690 C   0  0  0  0  0  0  0  0  0  0  0  0
   44.6370   35.2360   45.7960 N   0  0  0  0  0  0  0  0  0  0  0  0
   43.9160   36.9550   44.7010 H   0  0  0  0  0  0  0  0  0  0  0  0
   44.7710   36.2590   42.5620 H   0  0  0  0  0  0  0  0  0  0  0  0
   45.4430   33.4920   46.5700 H   0  0  0  0  0  0  0  0  0  0  0  0
  2 11  1  6  0  0  0
  2  1  1  0  0  0  0
  2  3  1  0  0  0  0
  4  3  1  0  0  0  0
  4  5  1  0  0  0  0
  5  6  2  0  0  0  0
  7  5  1  0  0  0  0
  8  7  1  0  0  0  0
  9 10  1  6  0  0  0
  9  7  1  0  0  0  0
  9  4  1  0  0  0  0
 10  2  1  0  0  0  0
 12 11  1  0  0  0  0
 13  1  1  0  0  0  0
 13 16  1  0  0  0  0
 14 19  1  0  0  0  0
 15 14  2  0  0  0  0
 16 15  1  0  0  0  0
 16 17  2  0  0  0  0
 17 18  1  0  0  0  0
 18 19  2  0  0  0  0
 18 22  1  0  0  0  0
 20 14  1  0  0  0  0
 21 15  1  0  0  0  0
M  END
>  <minimizedAffinity>
-4.1506815

>  <minimizedRMSD>
2.28314614

$$$$
