
     RDKit          3D

 30 32  0  0  0  0  0  0  0  0999 V2000
   44.5422   36.0278   44.5277 C   0  0  0  0  0  0  0  0  0  0  0  0
   45.2604   35.8936   43.3185 C   0  0  0  0  0  0  0  0  0  0  0  0
   46.1344   34.7880   43.2093 C   0  0  0  0  0  0  0  0  0  0  0  0
   46.2305   33.9337   44.2566 N   0  0  0  0  0  0  0  0  0  0  0  0
   45.5285   34.0987   45.3899 C   0  0  0  0  0  0  0  0  0  0  0  0
   44.6827   35.1440   45.5311 N   0  0  0  0  0  0  0  0  0  0  0  0
   47.0723   34.5672   41.6959 S   0  0  0  0  0  0  0  0  0  0  0  0
   43.9017   36.8926   44.5289 H   0  0  0  0  0  0  0  0  0  0  0  0
   45.1595   36.5962   42.4998 H   0  0  0  0  0  0  0  0  0  0  0  0
   45.5985   33.4229   46.2300 H   0  0  0  0  0  0  0  0  0  0  0  0
   48.0964   33.0857   41.8367 C   0  0  0  0  0  0  0  0  0  0  0  0
   49.5196   33.5325   42.0577 C   0  0  1  0  0  0  0  0  0  0  0  0
   49.6900   34.3493   43.2949 C   0  0  0  0  0  0  0  0  0  0  0  0
   50.7934   34.5852   43.3484 H   0  0  0  0  0  0  0  0  0  0  0  0
   50.4880   32.3852   42.0835 C   0  0  0  0  0  0  0  0  0  0  0  0
   50.8953   32.1291   40.7119 N   0  0  0  0  0  0  0  0  0  0  0  0
   51.1684   31.6053   39.4137 C   0  0  0  0  0  0  0  0  0  0  0  0
   51.0617   30.4536   38.9073 O   0  0  0  0  0  0  0  0  0  0  0  0
   51.6287   32.9010   38.8540 C   0  0  1  0  0  0  0  0  0  0  0  0
   52.7022   32.8926   38.5083 H   0  0  0  0  0  0  0  0  0  0  0  0
   51.5558   33.3644   40.2617 C   0  0  1  0  0  0  0  0  0  0  0  0
   50.1559   34.4911   40.6512 S   0  0  0  0  0  0  0  0  0  0  0  0
   47.8248   32.4845   42.7337 H   0  0  0  0  0  0  0  0  0  0  0  0
   47.9787   32.4381   40.9708 H   0  0  0  0  0  0  0  0  0  0  0  0
   49.2113   35.3503   43.2341 H   0  0  0  0  0  0  0  0  0  0  0  0
   49.4670   33.7909   44.2139 H   0  0  0  0  0  0  0  0  0  0  0  0
   49.9499   31.5000   42.4811 H   0  0  0  0  0  0  0  0  0  0  0  0
   51.4011   32.6287   42.6507 H   0  0  0  0  0  0  0  0  0  0  0  0
   50.9287   33.3887   38.1462 H   0  0  0  0  0  0  0  0  0  0  0  0
   52.4766   33.6154   40.7889 H   0  0  0  0  0  0  0  0  0  0  0  0
  1  6  2  0
  2  1  1  0
  3  2  2  0
  3  4  1  0
  4  5  2  0
  5  6  1  0
  7  3  1  0
  1  8  1  0
  2  9  1  0
  5 10  1  0
 12 11  1  6
 12 13  1  0
 13 14  1  0
 12 15  1  0
 15 16  1  0
 16 17  1  0
 17 18  2  0
 17 19  1  0
 19 20  1  6
 19 21  1  0
 21 22  1  0
 22 12  1  0
 21 16  1  0
 11 23  1  0
 11 24  1  0
 13 25  1  0
 13 26  1  0
 15 27  1  0
 15 28  1  0
 19 29  1  0
 21 30  1  1
  7 11  1  0
M  ISO  5   8  14   9  14  10  14  14   8  20  15
M  END
>  <DihAtoms>  (1) 
2,6,10,11

>  <DihDeg>  (1) 
179.99985870743572

$$$$
