REMARK  Name = 
REMARK  4 active torsions:
REMARK  status: ('A' for Active; 'I' for Inactive)
REMARK    1  A    between atoms: C_3  and  S_7
REMARK    2  A    between atoms: S_7  and  C_11
REMARK    3  A    between atoms: C_11  and  C_12
REMARK    4  A    between atoms: C_12  and  C_13
REMARK                            x       y       z     vdW  Elec       q    Type
REMARK                         _______ _______ _______ _____ _____    ______ ____
ROOT
ATOM      1  C   UNL     1      48.096  33.086  41.837  0.00  0.00    +0.000 C 
ENDROOT
BRANCH   1   2
ATOM      2  C   UNL     1      48.866  32.937  40.548  0.00  0.00    +0.000 C 
ATOM      3  C   UNL     1      49.677  31.674  40.502  0.00  0.00    +0.000 C 
ATOM      4  N   UNL     1      48.817  30.623  39.984  0.00  0.00    +0.000 N 
ATOM      5  C   UNL     1      48.023  29.463  39.747  0.00  0.00    +0.000 C 
ATOM      6  O   UNL     1      47.862  28.382  40.380  0.00  0.00    +0.000 OA
ATOM      7  C   UNL     1      47.441  29.971  38.479  0.00  0.00    +0.000 C 
ATOM      8  H   UNL     1      47.692  29.341  37.578  0.00  0.00    +0.000 HD
ATOM      9  C   UNL     1      48.441  31.056  38.629  0.00  0.00    +0.000 C 
ATOM     10  S   UNL     1      47.764  32.692  39.124  0.00  0.00    +0.000 S 
BRANCH   2  11
ATOM     11  C   UNL     1      49.751  34.103  40.259  0.00  0.00    +0.000 C 
ATOM     12  H   UNL     1      50.280  33.845  39.294  0.00  0.00    +0.000 HD
ENDBRANCH   2  11
ENDBRANCH   1   2
BRANCH   1  13
ATOM     13  S   UNL     1      47.072  34.567  41.696  0.00  0.00    +0.000 S 
BRANCH  13  16
ATOM     14  C   UNL     1      44.542  36.028  44.528  0.00  0.00    +0.000 A 
ATOM     15  C   UNL     1      45.260  35.894  43.319  0.00  0.00    +0.000 A 
ATOM     16  C   UNL     1      46.134  34.788  43.209  0.00  0.00    +0.000 A 
ATOM     17  N   UNL     1      46.230  33.934  44.257  0.00  0.00    +0.000 NA
ATOM     18  C   UNL     1      45.529  34.099  45.390  0.00  0.00    +0.000 A 
ATOM     19  N   UNL     1      44.683  35.144  45.531  0.00  0.00    +0.000 NA
ATOM     20  H   UNL     1      43.902  36.893  44.529  0.00  0.00    +0.000 HD
ATOM     21  H   UNL     1      45.160  36.596  42.500  0.00  0.00    +0.000 HD
ATOM     22  H   UNL     1      45.599  33.423  46.230  0.00  0.00    +0.000 HD
ENDBRANCH  13  16
ENDBRANCH   1  13
TORSDOF 4
