
     RDKit          3D

 30 32  0  0  0  0  0  0  0  0999 V2000
   44.5422   36.0278   44.5277 C   0  0  0  0  0  0  0  0  0  0  0  0
   45.2604   35.8936   43.3185 C   0  0  0  0  0  0  0  0  0  0  0  0
   46.1344   34.7880   43.2093 C   0  0  0  0  0  0  0  0  0  0  0  0
   46.2305   33.9337   44.2566 N   0  0  0  0  0  0  0  0  0  0  0  0
   45.5285   34.0987   45.3899 C   0  0  0  0  0  0  0  0  0  0  0  0
   44.6827   35.1440   45.5311 N   0  0  0  0  0  0  0  0  0  0  0  0
   47.0723   34.5672   41.6959 S   0  0  0  0  0  0  0  0  0  0  0  0
   43.9017   36.8926   44.5289 H   0  0  0  0  0  0  0  0  0  0  0  0
   45.1595   36.5962   42.4998 H   0  0  0  0  0  0  0  0  0  0  0  0
   45.5985   33.4229   46.2300 H   0  0  0  0  0  0  0  0  0  0  0  0
   48.0964   33.0857   41.8367 C   0  0  0  0  0  0  0  0  0  0  0  0
   47.9611   32.3118   40.5495 C   0  0  1  0  0  0  0  0  0  0  0  0
   48.4042   33.0859   39.3532 C   0  0  0  0  0  0  0  0  0  0  0  0
   48.2773   32.3831   38.4780 H   0  0  0  0  0  0  0  0  0  0  0  0
   48.6863   30.9975   40.5866 C   0  0  0  0  0  0  0  0  0  0  0  0
   47.7753   30.0138   41.1479 N   0  0  0  0  0  0  0  0  0  0  0  0
   47.0923   29.0255   41.9167 C   0  0  0  0  0  0  0  0  0  0  0  0
   47.4264   28.3211   42.9098 O   0  0  0  0  0  0  0  0  0  0  0  0
   45.8333   29.1116   41.1347 C   0  0  1  0  0  0  0  0  0  0  0  0
   45.5509   28.1497   40.6180 H   0  0  0  0  0  0  0  0  0  0  0  0
   46.6358   29.9593   40.2187 C   0  0  1  0  0  0  0  0  0  0  0  0
   46.2537   31.7573   40.2677 S   0  0  0  0  0  0  0  0  0  0  0  0
   49.1765   33.3419   41.9241 H   0  0  0  0  0  0  0  0  0  0  0  0
   47.8340   32.5041   42.7176 H   0  0  0  0  0  0  0  0  0  0  0  0
   47.7350   33.9373   39.1039 H   0  0  0  0  0  0  0  0  0  0  0  0
   49.4736   33.3354   39.3733 H   0  0  0  0  0  0  0  0  0  0  0  0
   49.5623   31.1158   41.2574 H   0  0  0  0  0  0  0  0  0  0  0  0
   48.9570   30.6471   39.5772 H   0  0  0  0  0  0  0  0  0  0  0  0
   44.9891   29.6155   41.6467 H   0  0  0  0  0  0  0  0  0  0  0  0
   46.8706   29.5910   39.2196 H   0  0  0  0  0  0  0  0  0  0  0  0
  1  6  2  0
  2  1  1  0
  3  2  2  0
  3  4  1  0
  4  5  2  0
  5  6  1  0
  7  3  1  0
  1  8  1  0
  2  9  1  0
  5 10  1  0
 12 11  1  1
 12 13  1  0
 13 14  1  0
 12 15  1  0
 15 16  1  0
 16 17  1  0
 17 18  2  0
 17 19  1  0
 19 20  1  6
 19 21  1  0
 21 22  1  0
 22 12  1  0
 21 16  1  0
 11 23  1  0
 11 24  1  0
 13 25  1  0
 13 26  1  0
 15 27  1  0
 15 28  1  0
 19 29  1  0
 21 30  1  6
  7 11  1  0
M  ISO  5   8  14   9  14  10  14  14   8  20  15
M  END
>  <DihAtoms>  (1) 
2,6,10,11

>  <DihDeg>  (1) 
179.99985870743572

$$$$
