
 OpenBabel03252506333D

 36 39  0  0  1  0  0  0  0  0999 V2000
   44.4690   35.6900   44.9900 C   0  0  0  0  0  0  0  0  0  0  0  0
   45.1390   35.6650   43.7380 C   0  0  0  0  0  0  0  0  0  0  0  0
   46.0750   34.6940   43.5010 C   0  0  0  0  0  0  0  0  0  0  0  0
   46.2890   33.8150   44.5080 N   0  0  0  0  0  0  0  0  0  0  0  0
   45.6690   33.8310   45.6780 C   0  0  0  0  0  0  0  0  0  0  0  0
   44.7480   34.7680   45.9420 N   0  0  0  0  0  0  0  0  0  0  0  0
   46.0070   32.8370   46.6280 N   0  0  0  0  0  0  0  0  0  0  0  0
   45.1980   32.5280   47.8170 C   0  0  0  0  0  0  0  0  0  0  0  0
   46.2650   32.2380   48.8440 C   0  0  0  0  0  0  0  0  0  0  0  0
   47.5690   32.1380   48.1120 C   0  0  0  0  0  0  0  0  0  0  0  0
   47.1410   31.9430   46.6720 C   0  0  1  0  0  0  0  0  0  0  0  0
   43.7170   36.4210   45.2610 H   0  0  0  0  0  0  0  0  0  0  0  0
   46.5580   34.7020   42.5550 H   0  0  0  0  0  0  0  0  0  0  0  0
   44.5450   31.6590   47.5930 H   0  0  0  0  0  0  0  0  0  0  0  0
   44.6140   33.4180   48.0950 H   0  0  0  0  0  0  0  0  0  0  0  0
   46.2780   33.0470   49.6060 H   0  0  0  0  0  0  0  0  0  0  0  0
   46.0040   31.2460   49.2980 H   0  0  0  0  0  0  0  0  0  0  0  0
   48.1170   31.2270   48.4130 H   0  0  0  0  0  0  0  0  0  0  0  0
   48.1960   33.0530   48.2150 H   0  0  0  0  0  0  0  0  0  0  0  0
   47.9330   32.2540   45.9600 H   0  0  0  0  0  0  0  0  0  0  0  0
   44.7480   36.6990   42.8220 N   0  0  0  0  0  0  0  0  0  0  0  0
   43.7270   36.9590   42.7520 H   0  0  0  0  0  0  0  0  0  0  0  0
   45.5430   37.1280   42.2740 H   0  0  0  0  0  0  0  0  0  0  0  0
   46.6450   30.2220   46.4420 S   0  0  0  0  0  0  0  0  0  0  0  0
   45.6560   30.1260   44.9260 C   0  0  0  0  0  2  0  0  0  0  0  0
   44.7060   28.9550   44.9490 C   0  0  2  0  0  0  0  0  0  0  0  0
   45.4230   27.7330   44.4290 C   0  0  0  0  0  2  0  0  0  0  0  0
   44.4450   26.9280   43.7330 N   0  0  0  0  0  0  0  0  0  0  0  0
   43.5560   25.9140   43.2760 C   0  0  0  0  0  0  0  0  0  0  0  0
   43.3680   24.7000   43.5210 O   0  0  0  0  0  0  0  0  0  0  0  0
   42.8470   26.8110   42.3300 C   0  0  0  0  0  3  0  0  0  0  0  0
   41.8290   27.1110   42.6090 H   0  0  0  0  0  0  0  0  0  0  0  0
   43.9560   27.7590   42.6210 C   0  0  1  0  0  3  0  0  0  0  0  0
   43.4880   29.2320   43.6170 S   0  0  0  0  0  0  0  0  0  0  0  0
   44.0680   28.7500   46.2830 C   0  0  0  0  0  2  0  0  0  0  0  0
   43.0640   28.3090   46.2640 H   0  0  0  0  0  0  0  0  0  0  0  0
  1 12  1  0  0  0  0
  1  6  1  0  0  0  0
  2  1  2  0  0  0  0
  3  2  1  0  0  0  0
  3  4  2  0  0  0  0
  4  5  1  0  0  0  0
  5  6  2  0  0  0  0
  5  7  1  0  0  0  0
  7 11  1  0  0  0  0
  7  8  1  0  0  0  0
  8 15  1  0  0  0  0
  8  9  1  0  0  0  0
  9 17  1  0  0  0  0
  9 16  1  0  0  0  0
 10 19  1  0  0  0  0
 10 18  1  0  0  0  0
 10  9  1  0  0  0  0
 11 20  1  6  0  0  0
 11 10  1  0  0  0  0
 13  3  1  0  0  0  0
 14  8  1  0  0  0  0
 21  2  1  0  0  0  0
 22 21  1  0  0  0  0
 23 21  1  0  0  0  0
 24 11  1  0  0  0  0
 25 24  1  0  0  0  0
 26 25  1  1  0  0  0
 26 35  1  0  0  0  0
 27 26  1  0  0  0  0
 28 27  1  0  0  0  0
 29 30  2  0  0  0  0
 29 28  1  0  0  0  0
 31 32  1  0  0  0  0
 31 29  1  0  0  0  0
 33 31  1  1  0  0  0
 33 34  1  0  0  0  0
 33 28  1  0  0  0  0
 34 26  1  0  0  0  0
 36 35  1  0  0  0  0
M  END
>  <minimizedAffinity>
-5.06952381

>  <minimizedRMSD>
0.491037607

$$$$
