
 OpenBabel03252506343D

 36 39  0  0  1  0  0  0  0  0999 V2000
   44.4080   35.7650   45.0280 C   0  0  0  0  0  0  0  0  0  0  0  0
   45.0810   35.7770   43.7780 C   0  0  0  0  0  0  0  0  0  0  0  0
   46.0310   34.8240   43.5220 C   0  0  0  0  0  0  0  0  0  0  0  0
   46.2550   33.9260   44.5100 N   0  0  0  0  0  0  0  0  0  0  0  0
   45.6320   33.9080   45.6780 C   0  0  0  0  0  0  0  0  0  0  0  0
   44.6970   34.8260   45.9610 N   0  0  0  0  0  0  0  0  0  0  0  0
   45.9820   32.8980   46.6070 N   0  0  0  0  0  0  0  0  0  0  0  0
   45.1740   32.5510   47.7860 C   0  0  0  0  0  0  0  0  0  0  0  0
   46.2440   32.2530   48.8100 C   0  0  0  0  0  0  0  0  0  0  0  0
   47.5500   32.1880   48.0790 C   0  0  0  0  0  0  0  0  0  0  0  0
   47.1280   32.0190   46.6340 C   0  0  1  0  0  0  0  0  0  0  0  0
   43.6460   36.4790   45.3140 H   0  0  0  0  0  0  0  0  0  0  0  0
   46.5160   34.8600   42.5780 H   0  0  0  0  0  0  0  0  0  0  0  0
   44.5350   31.6790   47.5420 H   0  0  0  0  0  0  0  0  0  0  0  0
   44.5770   33.4270   48.0830 H   0  0  0  0  0  0  0  0  0  0  0  0
   46.2440   33.0450   49.5890 H   0  0  0  0  0  0  0  0  0  0  0  0
   45.9950   31.2490   49.2410 H   0  0  0  0  0  0  0  0  0  0  0  0
   48.1100   31.2780   48.3610 H   0  0  0  0  0  0  0  0  0  0  0  0
   48.1640   33.1090   48.2040 H   0  0  0  0  0  0  0  0  0  0  0  0
   47.9170   32.3570   45.9310 H   0  0  0  0  0  0  0  0  0  0  0  0
   44.6780   36.8250   42.8840 N   0  0  0  0  0  0  0  0  0  0  0  0
   43.6530   37.0730   42.8170 H   0  0  0  0  0  0  0  0  0  0  0  0
   45.4680   37.2780   42.3470 H   0  0  0  0  0  0  0  0  0  0  0  0
   46.6560   30.2970   46.3650 S   0  0  0  0  0  0  0  0  0  0  0  0
   45.6290   30.2280   44.8730 C   0  0  0  0  0  2  0  0  0  0  0  0
   46.4350   29.8580   43.6540 C   0  0  2  0  0  0  0  0  0  0  0  0
   47.6770   30.7150   43.6090 C   0  0  0  0  0  2  0  0  0  0  0  0
   47.9810   30.9540   42.2160 N   0  0  0  0  0  0  0  0  0  0  0  0
   48.5590   31.0300   40.9170 C   0  0  0  0  0  0  0  0  0  0  0  0
   49.6810   30.8020   40.4120 O   0  0  0  0  0  0  0  0  0  0  0  0
   47.3100   31.5080   40.2730 C   0  0  0  0  0  3  0  0  0  0  0  0
   46.7820   30.7890   39.6330 H   0  0  0  0  0  0  0  0  0  0  0  0
   46.8250   31.6810   41.6690 C   0  0  1  0  0  3  0  0  0  0  0  0
   45.5270   30.4930   42.2020 S   0  0  0  0  0  0  0  0  0  0  0  0
   46.7170   28.3950   43.5650 C   0  0  0  0  0  2  0  0  0  0  0  0
   46.8200   27.9930   42.5500 H   0  0  0  0  0  0  0  0  0  0  0  0
  1 12  1  0  0  0  0
  1  6  1  0  0  0  0
  2  1  2  0  0  0  0
  3  2  1  0  0  0  0
  3  4  2  0  0  0  0
  4  5  1  0  0  0  0
  5  6  2  0  0  0  0
  5  7  1  0  0  0  0
  7 11  1  0  0  0  0
  7  8  1  0  0  0  0
  8 15  1  0  0  0  0
  8  9  1  0  0  0  0
  9 17  1  0  0  0  0
  9 16  1  0  0  0  0
 10 19  1  0  0  0  0
 10 18  1  0  0  0  0
 10  9  1  0  0  0  0
 11 20  1  6  0  0  0
 11 10  1  0  0  0  0
 13  3  1  0  0  0  0
 14  8  1  0  0  0  0
 21  2  1  0  0  0  0
 22 21  1  0  0  0  0
 23 21  1  0  0  0  0
 24 11  1  0  0  0  0
 25 24  1  0  0  0  0
 26 35  1  6  0  0  0
 26 25  1  0  0  0  0
 27 26  1  0  0  0  0
 28 27  1  0  0  0  0
 29 28  1  0  0  0  0
 30 29  2  0  0  0  0
 31 29  1  0  0  0  0
 32 31  1  0  0  0  0
 33 31  1  6  0  0  0
 33 34  1  0  0  0  0
 33 28  1  0  0  0  0
 34 26  1  0  0  0  0
 36 35  1  0  0  0  0
M  END
>  <minimizedAffinity>
-5.05090523

>  <minimizedRMSD>
1.78727162

$$$$
