
     RDKit          3D

 44 47  0  0  0  0  0  0  0  0999 V2000
   44.4875   35.7567   45.0066 C   0  0  0  0  0  0  0  0  0  0  0  0
   45.1250   35.7102   43.7392 C   0  0  0  0  0  0  0  0  0  0  0  0
   46.0162   34.7038   43.4775 C   0  0  0  0  0  0  0  0  0  0  0  0
   46.2198   33.8136   44.4762 N   0  0  0  0  0  0  0  0  0  0  0  0
   45.6291   33.8505   45.6607 C   0  0  0  0  0  0  0  0  0  0  0  0
   44.7519   34.8215   45.9501 N   0  0  0  0  0  0  0  0  0  0  0  0
   45.9510   32.8409   46.5999 N   0  0  0  0  0  0  0  0  0  0  0  0
   45.1589   32.5586   47.8074 C   0  0  0  0  0  0  0  0  0  0  0  0
   46.2389   32.2236   48.8083 C   0  0  0  0  0  0  0  0  0  0  0  0
   47.5197   32.0759   48.0436 C   0  0  0  0  0  0  0  0  0  0  0  0
   47.0497   31.9034   46.6144 C   0  0  1  0  0  0  0  0  0  0  0  0
   44.7532   36.7622   42.8347 N   0  0  0  0  0  0  0  0  0  0  0  0
   46.4811   30.2031   46.3924 S   0  0  0  0  0  0  0  0  0  0  0  0
   43.7710   36.5164   45.2982 H   0  0  0  0  0  0  0  0  0  0  0  0
   46.4761   34.6965   42.5204 H   0  0  0  0  0  0  0  0  0  0  0  0
   44.4680   31.7172   47.5971 H   0  0  0  0  0  0  0  0  0  0  0  0
   44.6174   33.4701   48.1022 H   0  0  0  0  0  0  0  0  0  0  0  0
   46.3023   33.0294   49.5711 H   0  0  0  0  0  0  0  0  0  0  0  0
   45.9501   31.2416   49.2654 H   0  0  0  0  0  0  0  0  0  0  0  0
   48.0390   31.1429   48.3292 H   0  0  0  0  0  0  0  0  0  0  0  0
   48.1842   32.9649   48.1337 H   0  0  0  0  0  0  0  0  0  0  0  0
   47.8358   32.1847   45.8840 H   0  0  0  0  0  0  0  0  0  0  0  0
   43.7411   37.0625   42.7912 H   0  0  0  0  0  0  0  0  0  0  0  0
   45.5497   37.1617   42.2687 H   0  0  0  0  0  0  0  0  0  0  0  0
   45.8030   30.0584   44.7167 C   0  0  0  0  0  0  0  0  0  0  0  0
   46.6998   30.7064   43.6919 C   0  0  2  0  0  0  0  0  0  0  0  0
   48.0649   30.1023   43.6479 C   0  0  0  0  0  0  0  0  0  0  0  0
   48.5656   30.1348   42.6729 H   0  0  0  0  0  0  0  0  0  0  0  0
   46.7076   32.1981   43.9218 C   0  0  0  0  0  0  0  0  0  0  0  0
   46.8425   32.8280   42.6269 N   0  0  0  0  0  0  0  0  0  0  0  0
   47.2544   33.5652   41.4806 C   0  0  0  0  0  0  0  0  0  0  0  0
   48.1334   34.4187   41.2224 O   0  0  0  0  0  0  0  0  0  0  0  0
   46.2300   32.9613   40.5922 C   0  0  2  0  0  0  0  0  0  0  0  0
   46.5907   32.2415   39.8466 H   0  0  0  0  0  0  0  0  0  0  0  0
   45.6562   32.4246   41.8559 C   0  0  1  0  0  0  0  0  0  0  0  0
   45.8309   30.6089   42.0882 S   0  0  0  0  0  0  0  0  0  0  0  0
   45.6498   28.9957   44.4216 H   0  0  0  0  0  0  0  0  0  0  0  0
   44.8097   30.5591   44.7059 H   0  0  0  0  0  0  0  0  0  0  0  0
   48.6886   30.5263   44.4608 H   0  0  0  0  0  0  0  0  0  0  0  0
   47.9375   29.0116   43.9042 H   0  0  0  0  0  0  0  0  0  0  0  0
   45.7900   32.5476   44.4215 H   0  0  0  0  0  0  0  0  0  0  0  0
   47.5872   32.4386   44.5219 H   0  0  0  0  0  0  0  0  0  0  0  0
   45.5418   33.7348   40.1443 H   0  0  0  0  0  0  0  0  0  0  0  0
   44.7056   32.8258   42.2063 H   0  0  0  0  0  0  0  0  0  0  0  0
  1  6  2  0
  2  1  1  0
  3  2  2  0
  3  4  1  0
  4  5  2  0
  5  6  1  0
  5  7  1  0
  7 11  1  0
  7  8  1  0
  8  9  1  0
 10  9  1  0
 11 10  1  0
 12  2  1  0
 13 11  1  0
  1 14  1  0
  3 15  1  0
  8 16  1  0
  8 17  1  0
  9 18  1  0
  9 19  1  0
 10 20  1  0
 10 21  1  0
 11 22  1  6
 12 23  1  0
 12 24  1  0
 26 25  1  1
 26 27  1  0
 27 28  1  0
 26 29  1  0
 29 30  1  0
 30 31  1  0
 31 32  2  0
 31 33  1  0
 33 34  1  6
 33 35  1  0
 35 36  1  0
 36 26  1  0
 35 30  1  0
 25 37  1  0
 25 38  1  0
 27 39  1  0
 27 40  1  0
 29 41  1  0
 29 42  1  0
 33 43  1  0
 35 44  1  1
 13 25  1  0
M  ISO  8  14  14  15  14  16  13  17  13  18  13  19  13  20  13  21  13
M  ISO  3  22  13  28   8  34  15
M  END
>  <DihAtoms>  (1) 
10,12,24,25

>  <DihDeg>  (1) 
-179.7067622155192

$$$$
