
 OpenBabel03252508103D

 47 51  0  0  1  0  0  0  0  0999 V2000
   40.3610   33.6720   40.3160 C   0  0  0  0  0  0  0  0  0  0  0  0
   39.5790   32.5310   40.2200 C   0  0  0  0  0  0  0  0  0  0  0  0
   38.2230   32.6420   40.0360 C   0  0  0  0  0  0  0  0  0  0  0  0
   37.7050   33.9200   39.9550 N   0  0  0  0  0  0  0  0  0  0  0  0
   38.4630   35.0120   40.0480 C   0  0  0  0  0  0  0  0  0  0  0  0
   39.7920   34.8720   40.2300 N   0  0  0  0  0  0  0  0  0  0  0  0
   41.4300   33.6240   40.4620 H   0  0  0  0  0  0  0  0  0  0  0  0
   38.0670   36.0080   39.9870 H   0  0  0  0  0  0  0  0  0  0  0  0
   37.2920   31.5850   39.9180 C   0  0  0  0  0  0  0  0  0  0  0  0
   36.6330   30.9960   41.0010 C   0  0  0  0  0  0  0  0  0  0  0  0
   35.7820   29.9280   40.8960 C   0  0  0  0  0  0  0  0  0  0  0  0
   35.5350   29.3720   39.6640 C   0  0  0  0  0  0  0  0  0  0  0  0
   36.1970   29.9570   38.5420 C   0  0  0  0  0  0  0  0  0  0  0  0
   35.9560   29.4070   37.3110 C   0  0  0  0  0  0  0  0  0  0  0  0
   36.5630   29.9270   36.1870 C   0  0  0  0  0  0  0  0  0  0  0  0
   37.4260   31.0260   36.3140 C   0  0  0  0  0  0  0  0  0  0  0  0
   37.6400   31.5530   37.6010 C   0  0  0  0  0  0  0  0  0  0  0  0
   37.0280   31.0140   38.7000 C   0  0  0  0  0  0  0  0  0  0  0  0
   36.8140   31.4200   41.9790 H   0  0  0  0  0  0  0  0  0  0  0  0
   35.2960   29.5110   41.7650 H   0  0  0  0  0  0  0  0  0  0  0  0
   34.8850   28.5420   39.5240 H   0  0  0  0  0  0  0  0  0  0  0  0
   35.2920   28.5630   37.2110 H   0  0  0  0  0  0  0  0  0  0  0  0
   36.3370   29.4490   35.2330 H   0  0  0  0  0  0  0  0  0  0  0  0
   37.8360   31.3470   35.3890 H   0  0  0  0  0  0  0  0  0  0  0  0
   38.2990   32.3860   37.4880 H   0  0  0  0  0  0  0  0  0  0  0  0
   40.2170   31.3260   40.3120 O   0  0  0  0  0  0  0  0  0  0  0  0
   39.8450   31.1710   42.8980 O   0  0  0  0  0  0  0  0  0  0  0  0
   40.5480   30.5180   41.7630 P   0  0  1  0  0  0  0  0  0  0  0  0
   40.0060   28.9170   41.6910 O   0  0  0  0  0  0  0  0  0  0  0  0
   39.0150   28.6370   42.6110 C   0  0  0  0  0  2  0  0  0  0  0  0
   38.9580   27.1140   42.7160 C   0  0  2  0  0  0  0  0  0  0  0  0
   39.3980   26.4500   41.4430 C   0  0  0  0  0  2  0  0  0  0  0  0
   38.5680   25.2920   41.2140 N   0  0  0  0  0  0  0  0  0  0  0  0
   38.0720   23.9740   40.9980 C   0  0  0  0  0  0  0  0  0  0  0  0
   38.5740   22.8400   40.7020 O   0  0  0  0  0  0  0  0  0  0  0  0
   36.6530   24.3650   41.2450 C   0  0  0  0  0  3  0  0  0  0  0  0
   35.9270   24.0930   40.4740 H   0  0  0  0  0  0  0  0  0  0  0  0
   37.1790   25.7690   41.1340 C   0  0  1  0  0  3  0  0  0  0  0  0
   37.1630   26.7190   42.7010 S   0  0  0  0  0  0  0  0  0  0  0  0
   39.6300   26.6190   43.9510 C   0  0  0  0  0  2  0  0  0  0  0  0
   40.4810   27.3020   44.1850 H   0  0  0  0  0  0  0  0  0  0  0  0
   42.2110   30.5150   41.9950 O   0  0  0  0  0  0  0  0  0  0  0  0
   43.0750   31.5840   41.8230 C   0  0  0  0  0  0  0  0  0  0  0  0
   43.7840   31.2650   40.8520 O   0  0  0  0  0  0  0  0  0  0  0  0
   42.8210   32.6110   42.8040 N   0  0  0  0  0  0  0  0  0  0  0  0
   41.9250   33.1680   42.7220 H   0  0  0  0  0  0  0  0  0  0  0  0
   43.4030   32.9090   43.6220 H   0  0  0  0  0  0  0  0  0  0  0  0
  1  7  1  0  0  0  0
  2 26  1  0  0  0  0
  2  1  2  0  0  0  0
  3  2  1  0  0  0  0
  4  3  2  0  0  0  0
  4  5  1  0  0  0  0
  5  6  2  0  0  0  0
  6  1  1  0  0  0  0
  8  5  1  0  0  0  0
  9  3  1  0  0  0  0
  9 10  1  0  0  0  0
 10 19  1  0  0  0  0
 11 10  2  0  0  0  0
 11 20  1  0  0  0  0
 12 11  1  0  0  0  0
 13 18  1  0  0  0  0
 13 12  2  0  0  0  0
 14 13  1  0  0  0  0
 15 16  1  0  0  0  0
 15 14  2  0  0  0  0
 16 17  2  0  0  0  0
 17 18  1  0  0  0  0
 18  9  2  0  0  0  0
 21 12  1  0  0  0  0
 22 14  1  0  0  0  0
 23 15  1  0  0  0  0
 24 16  1  0  0  0  0
 25 17  1  0  0  0  0
 26 28  1  0  0  0  0
 28 42  1  0  0  0  0
 28 27  2  1  0  0  0
 29 28  1  0  0  0  0
 29 30  1  0  0  0  0
 31 30  1  6  0  0  0
 31 40  1  0  0  0  0
 32 31  1  0  0  0  0
 33 32  1  0  0  0  0
 34 33  1  0  0  0  0
 34 36  1  0  0  0  0
 35 34  2  0  0  0  0
 37 36  1  0  0  0  0
 38 33  1  0  0  0  0
 38 36  1  1  0  0  0
 38 39  1  0  0  0  0
 39 31  1  0  0  0  0
 40 41  1  0  0  0  0
 43 42  1  0  0  0  0
 43 45  1  0  0  0  0
 44 43  2  0  0  0  0
 45 47  1  0  0  0  0
 46 45  1  0  0  0  0
M  END
>  <minimizedAffinity>
-6.77824306

$$$$

 OpenBabel03252508103D

 47 51  0  0  1  0  0  0  0  0999 V2000
   37.7330   30.3570   37.7460 C   0  0  0  0  0  0  0  0  0  0  0  0
   37.9650   29.8470   39.0140 C   0  0  0  0  0  0  0  0  0  0  0  0
   36.9760   29.1500   39.6630 C   0  0  0  0  0  0  0  0  0  0  0  0
   35.7780   28.9920   38.9940 N   0  0  0  0  0  0  0  0  0  0  0  0
   35.5620   29.4850   37.7760 C   0  0  0  0  0  0  0  0  0  0  0  0
   36.5520   30.1680   37.1630 N   0  0  0  0  0  0  0  0  0  0  0  0
   38.4850   30.9120   37.2040 H   0  0  0  0  0  0  0  0  0  0  0  0
   34.6340   29.3680   37.2510 H   0  0  0  0  0  0  0  0  0  0  0  0
   37.0520   28.5680   40.9490 C   0  0  0  0  0  0  0  0  0  0  0  0
   37.2650   29.2920   42.1260 C   0  0  0  0  0  0  0  0  0  0  0  0
   37.4050   28.7240   43.3650 C   0  0  0  0  0  0  0  0  0  0  0  0
   37.3390   27.3590   43.5000 C   0  0  0  0  0  0  0  0  0  0  0  0
   37.1220   26.5970   42.3120 C   0  0  0  0  0  0  0  0  0  0  0  0
   37.0570   25.2360   42.4390 C   0  0  0  0  0  0  0  0  0  0  0  0
   36.8470   24.4430   41.3300 C   0  0  0  0  0  0  0  0  0  0  0  0
   36.6980   25.0430   40.0700 C   0  0  0  0  0  0  0  0  0  0  0  0
   36.7740   26.4460   39.9950 C   0  0  0  0  0  0  0  0  0  0  0  0
   36.9880   27.2080   41.1110 C   0  0  0  0  0  0  0  0  0  0  0  0
   37.3190   30.3690   42.0400 H   0  0  0  0  0  0  0  0  0  0  0  0
   37.5670   29.3300   44.2440 H   0  0  0  0  0  0  0  0  0  0  0  0
   37.4430   26.8650   44.4360 H   0  0  0  0  0  0  0  0  0  0  0  0
   37.1700   24.7720   43.4060 H   0  0  0  0  0  0  0  0  0  0  0  0
   36.8050   23.3650   41.4880 H   0  0  0  0  0  0  0  0  0  0  0  0
   36.5390   24.3440   39.2880 H   0  0  0  0  0  0  0  0  0  0  0  0
   36.6160   26.7090   38.9700 H   0  0  0  0  0  0  0  0  0  0  0  0
   39.1970   30.0690   39.5620 O   0  0  0  0  0  0  0  0  0  0  0  0
   40.7070   31.3850   41.2470 O   0  0  0  0  0  0  0  0  0  0  0  0
   39.7440   31.5670   40.1300 P   0  0  1  0  0  0  0  0  0  0  0  0
   40.5490   32.4120   38.9050 O   0  0  0  0  0  0  0  0  0  0  0  0
   41.6230   33.1460   39.3670 C   0  0  0  0  0  2  0  0  0  0  0  0
   42.7500   32.9210   38.3600 C   0  0  2  0  0  0  0  0  0  0  0  0
   42.2730   32.1750   37.1480 C   0  0  0  0  0  2  0  0  0  0  0  0
   43.3060   31.2550   36.7340 N   0  0  0  0  0  0  0  0  0  0  0  0
   44.3050   30.5400   36.0130 C   0  0  0  0  0  0  0  0  0  0  0  0
   44.6840   30.4630   34.7980 O   0  0  0  0  0  0  0  0  0  0  0  0
   44.8180   29.8430   37.2290 C   0  0  0  0  0  3  0  0  0  0  0  0
   44.8860   28.7520   37.1780 H   0  0  0  0  0  0  0  0  0  0  0  0
   43.5580   30.3550   37.8700 C   0  0  1  0  0  3  0  0  0  0  0  0
   43.8180   31.6470   39.1430 S   0  0  0  0  0  0  0  0  0  0  0  0
   43.4960   34.1790   38.0740 C   0  0  0  0  0  2  0  0  0  0  0  0
   42.7810   35.0330   38.1400 H   0  0  0  0  0  0  0  0  0  0  0  0
   38.4090   32.4640   40.6150 O   0  0  0  0  0  0  0  0  0  0  0  0
   38.0860   33.7520   40.2180 C   0  0  0  0  0  0  0  0  0  0  0  0
   38.8370   34.4860   40.8860 O   0  0  0  0  0  0  0  0  0  0  0  0
   37.0430   33.7350   39.2230 N   0  0  0  0  0  0  0  0  0  0  0  0
   37.2800   33.3690   38.2580 H   0  0  0  0  0  0  0  0  0  0  0  0
   36.0430   34.0370   39.3010 H   0  0  0  0  0  0  0  0  0  0  0  0
  1  2  1  0  0  0  0
  2 26  1  0  0  0  0
  2  3  2  0  0  0  0
  3  9  1  0  0  0  0
  4  3  1  0  0  0  0
  5  4  2  0  0  0  0
  6  1  2  0  0  0  0
  6  5  1  0  0  0  0
  7  1  1  0  0  0  0
  8  5  1  0  0  0  0
  9 18  2  0  0  0  0
  9 10  1  0  0  0  0
 10 11  2  0  0  0  0
 11 12  1  0  0  0  0
 11 20  1  0  0  0  0
 12 21  1  0  0  0  0
 13 14  1  0  0  0  0
 13 12  2  0  0  0  0
 14 22  1  0  0  0  0
 15 23  1  0  0  0  0
 15 14  2  0  0  0  0
 16 15  1  0  0  0  0
 17 16  2  0  0  0  0
 17 18  1  0  0  0  0
 18 13  1  0  0  0  0
 19 10  1  0  0  0  0
 24 16  1  0  0  0  0
 25 17  1  0  0  0  0
 26 28  1  0  0  0  0
 28 42  1  0  0  0  0
 28 27  2  1  0  0  0
 29 30  1  0  0  0  0
 29 28  1  0  0  0  0
 31 40  1  6  0  0  0
 31 39  1  0  0  0  0
 31 30  1  0  0  0  0
 32 31  1  0  0  0  0
 33 32  1  0  0  0  0
 33 38  1  0  0  0  0
 34 33  1  0  0  0  0
 34 36  1  0  0  0  0
 35 34  2  0  0  0  0
 37 36  1  0  0  0  0
 38 36  1  6  0  0  0
 38 39  1  0  0  0  0
 40 41  1  0  0  0  0
 43 42  1  0  0  0  0
 43 44  2  0  0  0  0
 45 47  1  0  0  0  0
 45 43  1  0  0  0  0
 46 45  1  0  0  0  0
M  END
>  <minimizedAffinity>
-6.75463963

$$$$

 OpenBabel03252508103D

 47 51  0  0  1  0  0  0  0  0999 V2000
   37.6350   29.5960   37.2410 C   0  0  0  0  0  0  0  0  0  0  0  0
   37.7830   29.1400   38.5420 C   0  0  0  0  0  0  0  0  0  0  0  0
   36.7770   28.4170   39.1330 C   0  0  0  0  0  0  0  0  0  0  0  0
   35.6470   28.1800   38.3750 N   0  0  0  0  0  0  0  0  0  0  0  0
   35.5120   28.6210   37.1250 C   0  0  0  0  0  0  0  0  0  0  0  0
   36.5170   29.3300   36.5700 N   0  0  0  0  0  0  0  0  0  0  0  0
   38.4040   30.1680   36.7430 H   0  0  0  0  0  0  0  0  0  0  0  0
   34.6370   28.4420   36.5310 H   0  0  0  0  0  0  0  0  0  0  0  0
   36.7710   27.8820   40.4420 C   0  0  0  0  0  0  0  0  0  0  0  0
   36.6370   28.6510   41.6020 C   0  0  0  0  0  0  0  0  0  0  0  0
   36.6980   28.1430   42.8730 C   0  0  0  0  0  0  0  0  0  0  0  0
   36.9030   26.7980   43.0610 C   0  0  0  0  0  0  0  0  0  0  0  0
   37.0420   25.9920   41.8900 C   0  0  0  0  0  0  0  0  0  0  0  0
   37.2470   24.6500   42.0700 C   0  0  0  0  0  0  0  0  0  0  0  0
   37.3870   23.8170   40.9800 C   0  0  0  0  0  0  0  0  0  0  0  0
   37.3140   24.3530   39.6860 C   0  0  0  0  0  0  0  0  0  0  0  0
   37.1030   25.7390   39.5570 C   0  0  0  0  0  0  0  0  0  0  0  0
   36.9720   26.5430   40.6560 C   0  0  0  0  0  0  0  0  0  0  0  0
   36.4750   29.7120   41.4750 H   0  0  0  0  0  0  0  0  0  0  0  0
   36.5880   28.7810   43.7370 H   0  0  0  0  0  0  0  0  0  0  0  0
   36.9610   26.3500   44.0230 H   0  0  0  0  0  0  0  0  0  0  0  0
   37.3030   24.2350   43.0640 H   0  0  0  0  0  0  0  0  0  0  0  0
   37.5500   22.7570   41.1810 H   0  0  0  0  0  0  0  0  0  0  0  0
   37.4320   23.6260   38.9220 H   0  0  0  0  0  0  0  0  0  0  0  0
   37.0550   25.9470   38.5090 H   0  0  0  0  0  0  0  0  0  0  0  0
   38.9530   29.4390   39.1810 O   0  0  0  0  0  0  0  0  0  0  0  0
   39.3640   30.9660   41.2670 O   0  0  0  0  0  0  0  0  0  0  0  0
   39.3610   30.9690   39.7810 P   0  0  1  0  0  0  0  0  0  0  0  0
   40.9130   31.4140   39.2760 O   0  0  0  0  0  0  0  0  0  0  0  0
   40.9070   32.3600   38.2720 C   0  0  0  0  0  2  0  0  0  0  0  0
   42.0200   33.3480   38.6200 C   0  0  2  0  0  0  0  0  0  0  0  0
   43.1010   32.7040   39.4380 C   0  0  0  0  0  2  0  0  0  0  0  0
   43.5590   33.6500   40.4270 N   0  0  0  0  0  0  0  0  0  0  0  0
   44.3330   34.5310   41.2360 C   0  0  0  0  0  0  0  0  0  0  0  0
   45.5740   34.7560   41.4220 O   0  0  0  0  0  0  0  0  0  0  0  0
   43.1350   35.1680   41.8570 C   0  0  0  0  0  3  0  0  0  0  0  0
   43.1040   35.1960   42.9490 H   0  0  0  0  0  0  0  0  0  0  0  0
   42.3920   34.0120   41.2460 C   0  0  1  0  0  3  0  0  0  0  0  0
   41.2690   34.4650   39.8710 S   0  0  0  0  0  0  0  0  0  0  0  0
   42.4960   34.0920   37.4190 C   0  0  0  0  0  2  0  0  0  0  0  0
   42.4140   33.4160   36.5330 H   0  0  0  0  0  0  0  0  0  0  0  0
   38.2580   32.0810   39.1750 O   0  0  0  0  0  0  0  0  0  0  0  0
   37.3410   32.8210   39.9040 C   0  0  0  0  0  0  0  0  0  0  0  0
   37.6010   34.0060   39.6290 O   0  0  0  0  0  0  0  0  0  0  0  0
   36.4760   31.9570   40.6680 N   0  0  0  0  0  0  0  0  0  0  0  0
   35.7660   31.3710   40.1440 H   0  0  0  0  0  0  0  0  0  0  0  0
   36.4320   31.8040   41.7040 H   0  0  0  0  0  0  0  0  0  0  0  0
  1  2  1  0  0  0  0
  2  3  2  0  0  0  0
  2 26  1  0  0  0  0
  3  9  1  0  0  0  0
  4  3  1  0  0  0  0
  5  4  2  0  0  0  0
  6  5  1  0  0  0  0
  6  1  2  0  0  0  0
  7  1  1  0  0  0  0
  8  5  1  0  0  0  0
  9 18  2  0  0  0  0
  9 10  1  0  0  0  0
 10 11  2  0  0  0  0
 11 12  1  0  0  0  0
 11 20  1  0  0  0  0
 12 21  1  0  0  0  0
 13 14  1  0  0  0  0
 13 12  2  0  0  0  0
 14 22  1  0  0  0  0
 15 23  1  0  0  0  0
 15 14  2  0  0  0  0
 16 15  1  0  0  0  0
 17 16  2  0  0  0  0
 17 18  1  0  0  0  0
 18 13  1  0  0  0  0
 19 10  1  0  0  0  0
 24 16  1  0  0  0  0
 25 17  1  0  0  0  0
 26 28  1  0  0  0  0
 28 27  2  1  0  0  0
 29 28  1  0  0  0  0
 30 31  1  0  0  0  0
 30 29  1  0  0  0  0
 31 40  1  6  0  0  0
 31 32  1  0  0  0  0
 31 39  1  0  0  0  0
 32 33  1  0  0  0  0
 33 34  1  0  0  0  0
 33 38  1  0  0  0  0
 34 35  2  0  0  0  0
 34 36  1  0  0  0  0
 36 37  1  0  0  0  0
 38 39  1  6  0  0  0
 38 36  1  0  0  0  0
 41 40  1  0  0  0  0
 42 28  1  0  0  0  0
 42 43  1  0  0  0  0
 43 45  1  0  0  0  0
 44 43  2  0  0  0  0
 45 47  1  0  0  0  0
 46 45  1  0  0  0  0
M  END
>  <minimizedAffinity>
-6.66212606

$$$$

 OpenBabel03252508103D

 47 51  0  0  1  0  0  0  0  0999 V2000
   40.0760   33.4310   40.5730 C   0  0  0  0  0  0  0  0  0  0  0  0
   39.2770   32.3060   40.4360 C   0  0  0  0  0  0  0  0  0  0  0  0
   37.9670   32.4400   40.0460 C   0  0  0  0  0  0  0  0  0  0  0  0
   37.5130   33.7210   39.8030 N   0  0  0  0  0  0  0  0  0  0  0  0
   38.2870   34.7980   39.9360 C   0  0  0  0  0  0  0  0  0  0  0  0
   39.5700   34.6360   40.3230 N   0  0  0  0  0  0  0  0  0  0  0  0
   41.1100   33.3660   40.8800 H   0  0  0  0  0  0  0  0  0  0  0  0
   37.9410   35.7960   39.7500 H   0  0  0  0  0  0  0  0  0  0  0  0
   37.0270   31.4010   39.8600 C   0  0  0  0  0  0  0  0  0  0  0  0
   36.3010   30.8060   40.8960 C   0  0  0  0  0  0  0  0  0  0  0  0
   35.4390   29.7550   40.7270 C   0  0  0  0  0  0  0  0  0  0  0  0
   35.2490   29.2230   39.4750 C   0  0  0  0  0  0  0  0  0  0  0  0
   35.9790   29.8150   38.3990 C   0  0  0  0  0  0  0  0  0  0  0  0
   35.7950   29.2900   37.1490 C   0  0  0  0  0  0  0  0  0  0  0  0
   36.4680   29.8170   36.0670 C   0  0  0  0  0  0  0  0  0  0  0  0
   37.3420   30.8990   36.2580 C   0  0  0  0  0  0  0  0  0  0  0  0
   37.4960   31.4010   37.5640 C   0  0  0  0  0  0  0  0  0  0  0  0
   36.8170   30.8550   38.6200 C   0  0  0  0  0  0  0  0  0  0  0  0
   36.4370   31.2100   41.8890 H   0  0  0  0  0  0  0  0  0  0  0  0
   34.9010   29.3310   41.5620 H   0  0  0  0  0  0  0  0  0  0  0  0
   34.5940   28.4070   39.2860 H   0  0  0  0  0  0  0  0  0  0  0  0
   35.1230   28.4590   36.9990 H   0  0  0  0  0  0  0  0  0  0  0  0
   36.2860   29.3600   35.0940 H   0  0  0  0  0  0  0  0  0  0  0  0
   37.8060   31.2290   35.3620 H   0  0  0  0  0  0  0  0  0  0  0  0
   38.1740   32.2250   37.5000 H   0  0  0  0  0  0  0  0  0  0  0  0
   39.8500   31.0950   40.7020 O   0  0  0  0  0  0  0  0  0  0  0  0
   42.3610   30.7730   40.0340 O   0  0  0  0  0  0  0  0  0  0  0  0
   40.9820   30.3240   39.7060 P   0  0  1  0  0  0  0  0  0  0  0  0
   40.9330   28.6480   39.9320 O   0  0  0  0  0  0  0  0  0  0  0  0
   41.6760   28.2250   41.0150 C   0  0  0  0  0  2  0  0  0  0  0  0
   40.8170   27.1820   41.7310 C   0  0  2  0  0  0  0  0  0  0  0  0
   39.8200   26.5500   40.8040 C   0  0  0  0  0  2  0  0  0  0  0  0
   38.5850   26.3450   41.5220 N   0  0  0  0  0  0  0  0  0  0  0  0
   37.4270   25.7920   42.1410 C   0  0  0  0  0  0  0  0  0  0  0  0
   36.8130   24.6750   42.1080 O   0  0  0  0  0  0  0  0  0  0  0  0
   37.1270   27.0350   42.9090 C   0  0  0  0  0  3  0  0  0  0  0  0
   36.1160   27.4410   42.8120 H   0  0  0  0  0  0  0  0  0  0  0  0
   38.1400   27.6650   41.9940 C   0  0  1  0  0  3  0  0  0  0  0  0
   39.7020   28.1670   42.8090 S   0  0  0  0  0  0  0  0  0  0  0  0
   41.6490   26.2230   42.5120 C   0  0  0  0  0  2  0  0  0  0  0  0
   42.6170   26.0790   41.9760 H   0  0  0  0  0  0  0  0  0  0  0  0
   40.5940   30.6650   38.1080 O   0  0  0  0  0  0  0  0  0  0  0  0
   41.3300   31.4330   37.2210 C   0  0  0  0  0  0  0  0  0  0  0  0
   42.1690   30.6470   36.7440 O   0  0  0  0  0  0  0  0  0  0  0  0
   40.8520   32.7930   37.2000 N   0  0  0  0  0  0  0  0  0  0  0  0
   39.9060   32.9820   36.7630 H   0  0  0  0  0  0  0  0  0  0  0  0
   41.3060   33.6650   37.5630 H   0  0  0  0  0  0  0  0  0  0  0  0
  1  7  1  0  0  0  0
  2  1  1  0  0  0  0
  2 26  1  0  0  0  0
  3  2  2  0  0  0  0
  4  5  2  0  0  0  0
  4  3  1  0  0  0  0
  5  6  1  0  0  0  0
  6  1  2  0  0  0  0
  8  5  1  0  0  0  0
  9  3  1  0  0  0  0
  9 10  1  0  0  0  0
 10 19  1  0  0  0  0
 11 10  2  0  0  0  0
 11 20  1  0  0  0  0
 12 11  1  0  0  0  0
 13 18  1  0  0  0  0
 13 12  2  0  0  0  0
 14 13  1  0  0  0  0
 15 16  1  0  0  0  0
 15 14  2  0  0  0  0
 16 17  2  0  0  0  0
 17 18  1  0  0  0  0
 18  9  2  0  0  0  0
 21 12  1  0  0  0  0
 22 14  1  0  0  0  0
 23 15  1  0  0  0  0
 24 16  1  0  0  0  0
 25 17  1  0  0  0  0
 28 29  1  0  0  0  0
 28 27  2  1  0  0  0
 28 26  1  0  0  0  0
 29 30  1  0  0  0  0
 31 30  1  6  0  0  0
 31 40  1  0  0  0  0
 31 39  1  0  0  0  0
 32 33  1  0  0  0  0
 32 31  1  0  0  0  0
 33 38  1  0  0  0  0
 33 34  1  0  0  0  0
 34 36  1  0  0  0  0
 35 34  2  0  0  0  0
 37 36  1  0  0  0  0
 38 39  1  1  0  0  0
 38 36  1  0  0  0  0
 41 40  1  0  0  0  0
 42 28  1  0  0  0  0
 43 42  1  0  0  0  0
 44 43  2  0  0  0  0
 45 43  1  0  0  0  0
 45 47  1  0  0  0  0
 46 45  1  0  0  0  0
M  END
>  <minimizedAffinity>
-6.5782547

$$$$

 OpenBabel03252508103D

 47 51  0  0  1  0  0  0  0  0999 V2000
   37.8940   24.2670   38.5350 C   0  0  0  0  0  0  0  0  0  0  0  0
   38.1070   25.2070   39.5310 C   0  0  0  0  0  0  0  0  0  0  0  0
   37.8250   24.8960   40.8380 C   0  0  0  0  0  0  0  0  0  0  0  0
   37.3340   23.6300   41.0890 N   0  0  0  0  0  0  0  0  0  0  0  0
   37.1310   22.7310   40.1270 C   0  0  0  0  0  0  0  0  0  0  0  0
   37.4170   23.0660   38.8510 N   0  0  0  0  0  0  0  0  0  0  0  0
   38.1030   24.4750   37.4960 H   0  0  0  0  0  0  0  0  0  0  0  0
   36.7490   21.7470   40.3140 H   0  0  0  0  0  0  0  0  0  0  0  0
   37.9860   25.7360   41.9650 C   0  0  0  0  0  0  0  0  0  0  0  0
   36.9760   26.5510   42.4850 C   0  0  0  0  0  0  0  0  0  0  0  0
   37.1490   27.4150   43.5350 C   0  0  0  0  0  0  0  0  0  0  0  0
   38.3780   27.5150   44.1400 C   0  0  0  0  0  0  0  0  0  0  0  0
   39.4250   26.6910   43.6260 C   0  0  0  0  0  0  0  0  0  0  0  0
   40.6530   26.7860   44.2240 C   0  0  0  0  0  0  0  0  0  0  0  0
   41.7060   26.0160   43.7770 C   0  0  0  0  0  0  0  0  0  0  0  0
   41.5080   25.1310   42.7050 C   0  0  0  0  0  0  0  0  0  0  0  0
   40.2270   25.0720   42.1260 C   0  0  0  0  0  0  0  0  0  0  0  0
   39.2010   25.8520   42.5870 C   0  0  0  0  0  0  0  0  0  0  0  0
   36.0020   26.4870   42.0220 H   0  0  0  0  0  0  0  0  0  0  0  0
   36.3350   28.0230   43.9000 H   0  0  0  0  0  0  0  0  0  0  0  0
   38.5690   28.1680   44.9560 H   0  0  0  0  0  0  0  0  0  0  0  0
   40.8080   27.4640   45.0490 H   0  0  0  0  0  0  0  0  0  0  0  0
   42.6620   26.1320   44.2880 H   0  0  0  0  0  0  0  0  0  0  0  0
   42.3800   24.5860   42.4430 H   0  0  0  0  0  0  0  0  0  0  0  0
   40.2720   24.3350   41.3530 H   0  0  0  0  0  0  0  0  0  0  0  0
   38.6020   26.4220   39.1500 O   0  0  0  0  0  0  0  0  0  0  0  0
   36.3840   27.7960   39.3670 O   0  0  0  0  0  0  0  0  0  0  0  0
   37.6590   27.7200   38.6070 P   0  0  1  0  0  0  0  0  0  0  0  0
   38.4710   29.1860   38.8420 O   0  0  0  0  0  0  0  0  0  0  0  0
   37.6700   30.1690   39.3860 C   0  0  0  0  0  2  0  0  0  0  0  0
   38.2240   31.4960   38.8690 C   0  0  2  0  0  0  0  0  0  0  0  0
   39.6290   31.7360   39.3420 C   0  0  0  0  0  2  0  0  0  0  0  0
   39.7820   33.1380   39.6470 N   0  0  0  0  0  0  0  0  0  0  0  0
   40.1980   34.5000   39.6940 C   0  0  0  0  0  0  0  0  0  0  0  0
   41.1890   35.1740   39.2600 O   0  0  0  0  0  0  0  0  0  0  0  0
   39.0060   34.9350   40.4790 C   0  0  0  0  0  3  0  0  0  0  0  0
   39.2010   35.4940   41.3980 H   0  0  0  0  0  0  0  0  0  0  0  0
   38.7900   33.4610   40.6830 C   0  0  1  0  0  3  0  0  0  0  0  0
   37.3210   32.7770   39.8280 S   0  0  0  0  0  0  0  0  0  0  0  0
   38.0180   31.6480   37.4000 C   0  0  0  0  0  2  0  0  0  0  0  0
   38.0800   30.6360   36.9320 H   0  0  0  0  0  0  0  0  0  0  0  0
   37.3790   27.5160   36.9640 O   0  0  0  0  0  0  0  0  0  0  0  0
   37.9780   28.2130   35.9270 C   0  0  0  0  0  0  0  0  0  0  0  0
   37.0720   28.3740   35.0900 O   0  0  0  0  0  0  0  0  0  0  0  0
   39.3680   28.4680   36.2160 N   0  0  0  0  0  0  0  0  0  0  0  0
   39.5990   29.1670   36.9780 H   0  0  0  0  0  0  0  0  0  0  0  0
   40.2260   28.0570   35.7780 H   0  0  0  0  0  0  0  0  0  0  0  0
  1  6  2  0  0  0  0
  1  2  1  0  0  0  0
  2  3  2  0  0  0  0
  3  4  1  0  0  0  0
  3  9  1  0  0  0  0
  5  8  1  0  0  0  0
  5  4  2  0  0  0  0
  6  5  1  0  0  0  0
  7  1  1  0  0  0  0
  9 10  2  0  0  0  0
  9 18  1  0  0  0  0
 10 11  1  0  0  0  0
 11 20  1  0  0  0  0
 11 12  2  0  0  0  0
 12 21  1  0  0  0  0
 13 12  1  0  0  0  0
 13 14  1  0  0  0  0
 14 22  1  0  0  0  0
 15 14  2  0  0  0  0
 15 23  1  0  0  0  0
 16 15  1  0  0  0  0
 17 18  1  0  0  0  0
 17 16  2  0  0  0  0
 18 13  2  0  0  0  0
 19 10  1  0  0  0  0
 24 16  1  0  0  0  0
 25 17  1  0  0  0  0
 26  2  1  0  0  0  0
 28 29  1  0  0  0  0
 28 26  1  0  0  0  0
 28 27  2  1  0  0  0
 29 30  1  0  0  0  0
 31 40  1  6  0  0  0
 31 32  1  0  0  0  0
 31 30  1  0  0  0  0
 31 39  1  0  0  0  0
 32 33  1  0  0  0  0
 33 34  1  0  0  0  0
 33 38  1  0  0  0  0
 34 36  1  0  0  0  0
 35 34  2  0  0  0  0
 36 38  1  0  0  0  0
 36 37  1  0  0  0  0
 38 39  1  6  0  0  0
 41 40  1  0  0  0  0
 42 28  1  0  0  0  0
 43 45  1  0  0  0  0
 43 42  1  0  0  0  0
 44 43  2  0  0  0  0
 45 46  1  0  0  0  0
 47 45  1  0  0  0  0
M  END
>  <minimizedAffinity>
-6.52831221

$$$$

 OpenBabel03252508103D

 47 51  0  0  1  0  0  0  0  0999 V2000
   41.4290   31.8060   40.3730 C   0  0  0  0  0  0  0  0  0  0  0  0
   40.5240   30.8360   40.7750 C   0  0  0  0  0  0  0  0  0  0  0  0
   40.5660   30.3500   42.0590 C   0  0  0  0  0  0  0  0  0  0  0  0
   41.5330   30.8730   42.8950 N   0  0  0  0  0  0  0  0  0  0  0  0
   42.3990   31.8050   42.5020 C   0  0  0  0  0  0  0  0  0  0  0  0
   42.3350   32.2630   41.2340 N   0  0  0  0  0  0  0  0  0  0  0  0
   41.4280   32.2110   39.3710 H   0  0  0  0  0  0  0  0  0  0  0  0
   43.1530   32.2150   43.1450 H   0  0  0  0  0  0  0  0  0  0  0  0
   39.7200   29.3680   42.6230 C   0  0  0  0  0  0  0  0  0  0  0  0
   38.3950   29.6000   43.0040 C   0  0  0  0  0  0  0  0  0  0  0  0
   37.5950   28.6690   43.6120 C   0  0  0  0  0  0  0  0  0  0  0  0
   38.0900   27.4160   43.8820 C   0  0  0  0  0  0  0  0  0  0  0  0
   39.4410   27.1550   43.5010 C   0  0  0  0  0  0  0  0  0  0  0  0
   39.9410   25.9090   43.7680 C   0  0  0  0  0  0  0  0  0  0  0  0
   41.2380   25.5920   43.4230 C   0  0  0  0  0  0  0  0  0  0  0  0
   42.0410   26.5560   42.7940 C   0  0  0  0  0  0  0  0  0  0  0  0
   41.4790   27.8220   42.5430 C   0  0  0  0  0  0  0  0  0  0  0  0
   40.1890   28.1100   42.9000 C   0  0  0  0  0  0  0  0  0  0  0  0
   37.9870   30.5800   42.8000 H   0  0  0  0  0  0  0  0  0  0  0  0
   36.5760   28.8990   43.8860 H   0  0  0  0  0  0  0  0  0  0  0  0
   37.5150   26.6560   44.3530 H   0  0  0  0  0  0  0  0  0  0  0  0
   39.3260   25.1650   44.2500 H   0  0  0  0  0  0  0  0  0  0  0  0
   41.5860   24.5860   43.6600 H   0  0  0  0  0  0  0  0  0  0  0  0
   43.0190   26.2090   42.5700 H   0  0  0  0  0  0  0  0  0  0  0  0
   42.2280   28.3990   42.0450 H   0  0  0  0  0  0  0  0  0  0  0  0
   39.6140   30.4060   39.8510 O   0  0  0  0  0  0  0  0  0  0  0  0
   38.3060   31.6970   37.9860 O   0  0  0  0  0  0  0  0  0  0  0  0
   38.2200   31.2570   39.4030 P   0  0  1  0  0  0  0  0  0  0  0  0
   36.8510   30.2720   39.5410 O   0  0  0  0  0  0  0  0  0  0  0  0
   36.5100   29.6480   38.3570 C   0  0  0  0  0  2  0  0  0  0  0  0
   36.3230   28.1710   38.7000 C   0  0  2  0  0  0  0  0  0  0  0  0
   36.2380   27.9500   40.1830 C   0  0  0  0  0  2  0  0  0  0  0  0
   36.9320   26.7270   40.5090 N   0  0  0  0  0  0  0  0  0  0  0  0
   37.2890   25.4250   40.9630 C   0  0  0  0  0  0  0  0  0  0  0  0
   36.7630   24.5360   41.7110 O   0  0  0  0  0  0  0  0  0  0  0  0
   38.5880   25.4200   40.2280 C   0  0  0  0  0  3  0  0  0  0  0  0
   39.4820   25.1890   40.8130 H   0  0  0  0  0  0  0  0  0  0  0  0
   38.3220   26.8900   40.0550 C   0  0  1  0  0  3  0  0  0  0  0  0
   37.9520   27.4040   38.3360 S   0  0  0  0  0  0  0  0  0  0  0  0
   35.2230   27.5530   37.9070 C   0  0  0  0  0  2  0  0  0  0  0  0
   34.4430   28.3310   37.7240 H   0  0  0  0  0  0  0  0  0  0  0  0
   38.0480   32.5660   40.4400 O   0  0  0  0  0  0  0  0  0  0  0  0
   38.0420   33.9070   40.0890 C   0  0  0  0  0  0  0  0  0  0  0  0
   39.0050   34.3990   40.7050 O   0  0  0  0  0  0  0  0  0  0  0  0
   36.9590   34.1950   39.1810 N   0  0  0  0  0  0  0  0  0  0  0  0
   37.0210   33.8140   38.1950 H   0  0  0  0  0  0  0  0  0  0  0  0
   36.0800   34.7410   39.3440 H   0  0  0  0  0  0  0  0  0  0  0  0
  1  2  2  0  0  0  0
  1  6  1  0  0  0  0
  2  3  1  0  0  0  0
  3  9  1  0  0  0  0
  3  4  2  0  0  0  0
  5  4  1  0  0  0  0
  5  8  1  0  0  0  0
  6  5  2  0  0  0  0
  7  1  1  0  0  0  0
  9 18  2  0  0  0  0
  9 10  1  0  0  0  0
 10 11  2  0  0  0  0
 11 12  1  0  0  0  0
 11 20  1  0  0  0  0
 12 21  1  0  0  0  0
 13 14  1  0  0  0  0
 13 12  2  0  0  0  0
 14 22  1  0  0  0  0
 15 23  1  0  0  0  0
 15 14  2  0  0  0  0
 16 15  1  0  0  0  0
 17 16  2  0  0  0  0
 17 18  1  0  0  0  0
 18 13  1  0  0  0  0
 19 10  1  0  0  0  0
 24 16  1  0  0  0  0
 25 17  1  0  0  0  0
 26  2  1  0  0  0  0
 28 27  2  6  0  0  0
 28 29  1  0  0  0  0
 28 26  1  0  0  0  0
 28 42  1  0  0  0  0
 30 31  1  0  0  0  0
 30 29  1  0  0  0  0
 31 40  1  6  0  0  0
 31 32  1  0  0  0  0
 32 33  1  0  0  0  0
 33 34  1  0  0  0  0
 34 35  2  0  0  0  0
 36 37  1  0  0  0  0
 36 34  1  0  0  0  0
 38 39  1  6  0  0  0
 38 36  1  0  0  0  0
 38 33  1  0  0  0  0
 39 31  1  0  0  0  0
 41 40  1  0  0  0  0
 43 42  1  0  0  0  0
 43 44  2  0  0  0  0
 45 47  1  0  0  0  0
 45 43  1  0  0  0  0
 46 45  1  0  0  0  0
M  END
>  <minimizedAffinity>
-6.51158237

$$$$

 OpenBabel03252508103D

 47 51  0  0  1  0  0  0  0  0999 V2000
   36.5410   25.3730   38.4320 C   0  0  0  0  0  0  0  0  0  0  0  0
   37.0000   26.1390   39.4930 C   0  0  0  0  0  0  0  0  0  0  0  0
   36.9370   25.6430   40.7720 C   0  0  0  0  0  0  0  0  0  0  0  0
   36.4090   24.3760   40.9280 N   0  0  0  0  0  0  0  0  0  0  0  0
   35.9710   23.6460   39.9040 C   0  0  0  0  0  0  0  0  0  0  0  0
   36.0430   24.1600   38.6580 N   0  0  0  0  0  0  0  0  0  0  0  0
   36.5720   25.7290   37.4120 H   0  0  0  0  0  0  0  0  0  0  0  0
   35.5590   22.6630   40.0180 H   0  0  0  0  0  0  0  0  0  0  0  0
   37.3610   26.2910   41.9550 C   0  0  0  0  0  0  0  0  0  0  0  0
   36.5680   27.1800   42.6880 C   0  0  0  0  0  0  0  0  0  0  0  0
   36.9990   27.8600   43.7970 C   0  0  0  0  0  0  0  0  0  0  0  0
   38.2850   27.6840   44.2480 C   0  0  0  0  0  0  0  0  0  0  0  0
   39.1130   26.7800   43.5160 C   0  0  0  0  0  0  0  0  0  0  0  0
   40.3960   26.6010   43.9580 C   0  0  0  0  0  0  0  0  0  0  0  0
   41.2460   25.7400   43.2970 C   0  0  0  0  0  0  0  0  0  0  0  0
   40.7850   25.0460   42.1670 C   0  0  0  0  0  0  0  0  0  0  0  0
   39.4580   25.2670   41.7530 C   0  0  0  0  0  0  0  0  0  0  0  0
   38.6380   26.1310   42.4270 C   0  0  0  0  0  0  0  0  0  0  0  0
   35.5530   27.3320   42.3490 H   0  0  0  0  0  0  0  0  0  0  0  0
   36.3460   28.5350   44.3290 H   0  0  0  0  0  0  0  0  0  0  0  0
   38.6730   28.1860   45.1010 H   0  0  0  0  0  0  0  0  0  0  0  0
   40.7530   27.1320   44.8270 H   0  0  0  0  0  0  0  0  0  0  0  0
   42.2570   25.6360   43.6920 H   0  0  0  0  0  0  0  0  0  0  0  0
   41.5170   24.4100   41.7370 H   0  0  0  0  0  0  0  0  0  0  0  0
   39.2920   24.6400   40.9030 H   0  0  0  0  0  0  0  0  0  0  0  0
   37.5040   27.3750   39.2020 O   0  0  0  0  0  0  0  0  0  0  0  0
   35.2030   28.5470   39.6340 O   0  0  0  0  0  0  0  0  0  0  0  0
   36.6160   28.8160   39.2570 P   0  0  1  0  0  0  0  0  0  0  0  0
   37.2550   29.8660   40.4190 O   0  0  0  0  0  0  0  0  0  0  0  0
   38.5600   29.5710   40.7580 C   0  0  0  0  0  2  0  0  0  0  0  0
   39.1910   30.8940   41.1910 C   0  0  2  0  0  0  0  0  0  0  0  0
   38.2830   32.0590   40.9200 C   0  0  0  0  0  2  0  0  0  0  0  0
   39.0820   33.1750   40.4750 N   0  0  0  0  0  0  0  0  0  0  0  0
   39.7220   34.4400   40.3290 C   0  0  0  0  0  0  0  0  0  0  0  0
   39.5810   35.6040   40.8290 O   0  0  0  0  0  0  0  0  0  0  0  0
   40.6980   33.9360   39.3190 C   0  0  0  0  0  3  0  0  0  0  0  0
   40.7660   34.4940   38.3810 H   0  0  0  0  0  0  0  0  0  0  0  0
   39.7920   32.7370   39.2640 C   0  0  1  0  0  3  0  0  0  0  0  0
   40.5140   31.2000   39.9530 S   0  0  0  0  0  0  0  0  0  0  0  0
   39.7280   30.8230   42.5790 C   0  0  0  0  0  2  0  0  0  0  0  0
   39.0810   30.1320   43.1710 H   0  0  0  0  0  0  0  0  0  0  0  0
   36.7160   29.5520   37.7510 O   0  0  0  0  0  0  0  0  0  0  0  0
   37.8390   30.1330   37.1850 C   0  0  0  0  0  0  0  0  0  0  0  0
   37.5020   31.3090   36.9520 O   0  0  0  0  0  0  0  0  0  0  0  0
   38.9170   29.1810   37.0900 N   0  0  0  0  0  0  0  0  0  0  0  0
   39.3860   28.8680   37.9870 H   0  0  0  0  0  0  0  0  0  0  0  0
   39.3330   28.7250   36.2430 H   0  0  0  0  0  0  0  0  0  0  0  0
  1  6  2  0  0  0  0
  1  2  1  0  0  0  0
  2  3  2  0  0  0  0
  3  4  1  0  0  0  0
  3  9  1  0  0  0  0
  5  8  1  0  0  0  0
  5  4  2  0  0  0  0
  6  5  1  0  0  0  0
  7  1  1  0  0  0  0
  9 18  2  0  0  0  0
  9 10  1  0  0  0  0
 10 11  2  0  0  0  0
 11 12  1  0  0  0  0
 11 20  1  0  0  0  0
 12 21  1  0  0  0  0
 13 14  1  0  0  0  0
 13 12  2  0  0  0  0
 14 22  1  0  0  0  0
 15 23  1  0  0  0  0
 15 14  2  0  0  0  0
 16 15  1  0  0  0  0
 17 16  2  0  0  0  0
 17 18  1  0  0  0  0
 18 13  1  0  0  0  0
 19 10  1  0  0  0  0
 24 16  1  0  0  0  0
 25 17  1  0  0  0  0
 26 28  1  0  0  0  0
 26  2  1  0  0  0  0
 28 27  2  1  0  0  0
 28 29  1  0  0  0  0
 29 30  1  0  0  0  0
 31 30  1  6  0  0  0
 31 40  1  0  0  0  0
 32 31  1  0  0  0  0
 33 32  1  0  0  0  0
 34 33  1  0  0  0  0
 34 35  2  0  0  0  0
 36 34  1  0  0  0  0
 37 36  1  0  0  0  0
 38 36  1  1  0  0  0
 38 39  1  0  0  0  0
 38 33  1  0  0  0  0
 39 31  1  0  0  0  0
 40 41  1  0  0  0  0
 42 28  1  0  0  0  0
 43 42  1  0  0  0  0
 44 43  2  0  0  0  0
 45 43  1  0  0  0  0
 45 46  1  0  0  0  0
 47 45  1  0  0  0  0
M  END
>  <minimizedAffinity>
-6.50981092

$$$$

 OpenBabel03252508103D

 47 51  0  0  1  0  0  0  0  0999 V2000
   37.0550   25.8050   40.0490 C   0  0  0  0  0  0  0  0  0  0  0  0
   38.1820   26.2490   40.7230 C   0  0  0  0  0  0  0  0  0  0  0  0
   38.8970   25.3800   41.5080 C   0  0  0  0  0  0  0  0  0  0  0  0
   38.4400   24.0780   41.5790 N   0  0  0  0  0  0  0  0  0  0  0  0
   37.3560   23.6580   40.9290 C   0  0  0  0  0  0  0  0  0  0  0  0
   36.6720   24.5360   40.1650 N   0  0  0  0  0  0  0  0  0  0  0  0
   36.4650   26.4590   39.4230 H   0  0  0  0  0  0  0  0  0  0  0  0
   36.9950   22.6490   40.9800 H   0  0  0  0  0  0  0  0  0  0  0  0
   40.0620   25.6720   42.2550 C   0  0  0  0  0  0  0  0  0  0  0  0
   40.0520   26.1240   43.5770 C   0  0  0  0  0  0  0  0  0  0  0  0
   41.1750   26.4710   44.2800 C   0  0  0  0  0  0  0  0  0  0  0  0
   42.4090   26.3830   43.6820 C   0  0  0  0  0  0  0  0  0  0  0  0
   42.4450   25.9220   42.3310 C   0  0  0  0  0  0  0  0  0  0  0  0
   43.6700   25.8330   41.7280 C   0  0  0  0  0  0  0  0  0  0  0  0
   43.7740   25.3930   40.4250 C   0  0  0  0  0  0  0  0  0  0  0  0
   42.6120   25.0350   39.7230 C   0  0  0  0  0  0  0  0  0  0  0  0
   41.3780   25.1460   40.3890 C   0  0  0  0  0  0  0  0  0  0  0  0
   41.3040   25.5900   41.6810 C   0  0  0  0  0  0  0  0  0  0  0  0
   39.0900   26.2010   44.0660 H   0  0  0  0  0  0  0  0  0  0  0  0
   41.1130   26.8150   45.3020 H   0  0  0  0  0  0  0  0  0  0  0  0
   43.3130   26.6410   44.1790 H   0  0  0  0  0  0  0  0  0  0  0  0
   44.5640   26.1070   42.2660 H   0  0  0  0  0  0  0  0  0  0  0  0
   44.7740   25.3420   39.9930 H   0  0  0  0  0  0  0  0  0  0  0  0
   42.8050   24.7080   38.7310 H   0  0  0  0  0  0  0  0  0  0  0  0
   40.6270   24.8100   39.7050 H   0  0  0  0  0  0  0  0  0  0  0  0
   38.5300   27.5610   40.5630 O   0  0  0  0  0  0  0  0  0  0  0  0
   39.0650   29.2650   42.4770 O   0  0  0  0  0  0  0  0  0  0  0  0
   37.9900   28.8280   41.5480 P   0  0  1  0  0  0  0  0  0  0  0  0
   37.5600   30.1700   40.6110 O   0  0  0  0  0  0  0  0  0  0  0  0
   37.9080   30.0380   39.2820 C   0  0  0  0  0  2  0  0  0  0  0  0
   38.3580   31.4250   38.8260 C   0  0  2  0  0  0  0  0  0  0  0  0
   39.7570   31.7320   39.2760 C   0  0  0  0  0  2  0  0  0  0  0  0
   39.8270   33.1230   39.6550 N   0  0  0  0  0  0  0  0  0  0  0  0
   40.1540   34.5050   39.7670 C   0  0  0  0  0  0  0  0  0  0  0  0
   41.0860   35.2660   39.3470 O   0  0  0  0  0  0  0  0  0  0  0  0
   38.9580   34.8170   40.6050 C   0  0  0  0  0  3  0  0  0  0  0  0
   39.1430   35.3370   41.5490 H   0  0  0  0  0  0  0  0  0  0  0  0
   38.8460   33.3230   40.7320 C   0  0  1  0  0  3  0  0  0  0  0  0
   37.4010   32.5890   39.8780 S   0  0  0  0  0  0  0  0  0  0  0  0
   38.1010   31.6410   37.3740 C   0  0  0  0  0  2  0  0  0  0  0  0
   38.2150   30.6630   36.8480 H   0  0  0  0  0  0  0  0  0  0  0  0
   36.6350   28.3000   42.3880 O   0  0  0  0  0  0  0  0  0  0  0  0
   36.6040   27.7840   43.6740 C   0  0  0  0  0  0  0  0  0  0  0  0
   36.3450   26.5770   43.5230 O   0  0  0  0  0  0  0  0  0  0  0  0
   36.8750   28.8140   44.6460 N   0  0  0  0  0  0  0  0  0  0  0  0
   37.8580   29.2040   44.6990 H   0  0  0  0  0  0  0  0  0  0  0  0
   36.2310   29.2620   45.3400 H   0  0  0  0  0  0  0  0  0  0  0  0
  1  6  2  0  0  0  0
  1  2  1  0  0  0  0
  2  3  2  0  0  0  0
  3  4  1  0  0  0  0
  3  9  1  0  0  0  0
  5  8  1  0  0  0  0
  5  4  2  0  0  0  0
  6  5  1  0  0  0  0
  7  1  1  0  0  0  0
  9 10  1  0  0  0  0
 10 19  1  0  0  0  0
 10 11  2  0  0  0  0
 11 20  1  0  0  0  0
 12 21  1  0  0  0  0
 12 11  1  0  0  0  0
 13 12  2  0  0  0  0
 14 22  1  0  0  0  0
 14 13  1  0  0  0  0
 15 14  2  0  0  0  0
 16 17  2  0  0  0  0
 16 15  1  0  0  0  0
 17 18  1  0  0  0  0
 18  9  2  0  0  0  0
 18 13  1  0  0  0  0
 23 15  1  0  0  0  0
 24 16  1  0  0  0  0
 25 17  1  0  0  0  0
 26  2  1  0  0  0  0
 26 28  1  0  0  0  0
 28 42  1  0  0  0  0
 28 27  2  1  0  0  0
 29 28  1  0  0  0  0
 30 29  1  0  0  0  0
 31 40  1  6  0  0  0
 31 32  1  0  0  0  0
 31 30  1  0  0  0  0
 31 39  1  0  0  0  0
 32 33  1  0  0  0  0
 33 34  1  0  0  0  0
 33 38  1  0  0  0  0
 34 36  1  0  0  0  0
 35 34  2  0  0  0  0
 36 38  1  0  0  0  0
 36 37  1  0  0  0  0
 38 39  1  6  0  0  0
 41 40  1  0  0  0  0
 42 43  1  0  0  0  0
 43 45  1  0  0  0  0
 44 43  2  0  0  0  0
 45 46  1  0  0  0  0
 45 47  1  0  0  0  0
M  END
>  <minimizedAffinity>
-6.45727873

$$$$

 OpenBabel03252508103D

 47 51  0  0  1  0  0  0  0  0999 V2000
   38.1410   30.7160   40.0590 C   0  0  0  0  0  0  0  0  0  0  0  0
   38.8520   29.6850   40.6530 C   0  0  0  0  0  0  0  0  0  0  0  0
   38.2770   28.9450   41.6560 C   0  0  0  0  0  0  0  0  0  0  0  0
   36.9870   29.2790   42.0210 N   0  0  0  0  0  0  0  0  0  0  0  0
   36.3090   30.2710   41.4450 C   0  0  0  0  0  0  0  0  0  0  0  0
   36.9010   30.9820   40.4630 N   0  0  0  0  0  0  0  0  0  0  0  0
   38.5600   31.3210   39.2680 H   0  0  0  0  0  0  0  0  0  0  0  0
   35.3080   30.5360   41.7240 H   0  0  0  0  0  0  0  0  0  0  0  0
   38.8630   27.8680   42.3600 C   0  0  0  0  0  0  0  0  0  0  0  0
   39.9180   28.0050   43.2680 C   0  0  0  0  0  0  0  0  0  0  0  0
   40.5310   26.9560   43.9000 C   0  0  0  0  0  0  0  0  0  0  0  0
   40.1120   25.6720   43.6520 C   0  0  0  0  0  0  0  0  0  0  0  0
   39.0360   25.5050   42.7280 C   0  0  0  0  0  0  0  0  0  0  0  0
   38.6140   24.2280   42.4750 C   0  0  0  0  0  0  0  0  0  0  0  0
   37.5770   23.9990   41.5950 C   0  0  0  0  0  0  0  0  0  0  0  0
   36.9560   25.0870   40.9620 C   0  0  0  0  0  0  0  0  0  0  0  0
   37.4280   26.3800   41.2570 C   0  0  0  0  0  0  0  0  0  0  0  0
   38.4620   26.5770   42.1310 C   0  0  0  0  0  0  0  0  0  0  0  0
   40.2620   29.0090   43.4760 H   0  0  0  0  0  0  0  0  0  0  0  0
   41.3420   27.1170   44.5940 H   0  0  0  0  0  0  0  0  0  0  0  0
   40.5520   24.8200   44.1120 H   0  0  0  0  0  0  0  0  0  0  0  0
   39.0890   23.3900   42.9610 H   0  0  0  0  0  0  0  0  0  0  0  0
   37.2820   22.9630   41.4290 H   0  0  0  0  0  0  0  0  0  0  0  0
   36.1700   24.8010   40.3090 H   0  0  0  0  0  0  0  0  0  0  0  0
   36.8210   27.0640   40.7030 H   0  0  0  0  0  0  0  0  0  0  0  0
   40.1190   29.4540   40.1960 O   0  0  0  0  0  0  0  0  0  0  0  0
   41.8230   28.8580   38.3000 O   0  0  0  0  0  0  0  0  0  0  0  0
   40.6240   29.6850   38.5960 P   0  0  1  0  0  0  0  0  0  0  0  0
   39.4100   29.2160   37.5140 O   0  0  0  0  0  0  0  0  0  0  0  0
   39.0910   27.8760   37.6050 C   0  0  0  0  0  2  0  0  0  0  0  0
   37.7970   27.6990   36.8110 C   0  0  2  0  0  0  0  0  0  0  0  0
   37.4050   28.9590   36.0960 C   0  0  0  0  0  2  0  0  0  0  0  0
   35.9700   29.0960   36.1520 N   0  0  0  0  0  0  0  0  0  0  0  0
   34.5850   29.2290   35.8420 C   0  0  0  0  0  0  0  0  0  0  0  0
   33.8980   29.4960   34.8010 O   0  0  0  0  0  0  0  0  0  0  0  0
   34.1470   28.9330   37.2370 C   0  0  0  0  0  3  0  0  0  0  0  0
   33.4720   29.6560   37.7030 H   0  0  0  0  0  0  0  0  0  0  0  0
   35.5980   29.1320   37.5750 C   0  0  1  0  0  3  0  0  0  0  0  0
   36.4800   27.6110   38.0900 S   0  0  0  0  0  0  0  0  0  0  0  0
   37.8330   26.4760   35.9600 C   0  0  0  0  0  2  0  0  0  0  0  0
   38.8860   26.3130   35.6240 H   0  0  0  0  0  0  0  0  0  0  0  0
   40.9400   31.3190   38.3760 O   0  0  0  0  0  0  0  0  0  0  0  0
   40.8700   32.0250   37.1850 C   0  0  0  0  0  0  0  0  0  0  0  0
   42.0560   32.2380   36.8740 O   0  0  0  0  0  0  0  0  0  0  0  0
   39.4980   32.2280   36.7900 N   0  0  0  0  0  0  0  0  0  0  0  0
   38.9440   31.3870   36.4610 H   0  0  0  0  0  0  0  0  0  0  0  0
   38.9330   33.1090   36.7730 H   0  0  0  0  0  0  0  0  0  0  0  0
  1  6  2  0  0  0  0
  1  2  1  0  0  0  0
  2  3  2  0  0  0  0
  3  4  1  0  0  0  0
  3  9  1  0  0  0  0
  5  8  1  0  0  0  0
  5  4  2  0  0  0  0
  6  5  1  0  0  0  0
  7  1  1  0  0  0  0
  9 10  1  0  0  0  0
 10 19  1  0  0  0  0
 10 11  2  0  0  0  0
 11 20  1  0  0  0  0
 12 11  1  0  0  0  0
 12 21  1  0  0  0  0
 13 12  2  0  0  0  0
 14 13  1  0  0  0  0
 14 22  1  0  0  0  0
 15 14  2  0  0  0  0
 16 17  2  0  0  0  0
 16 15  1  0  0  0  0
 17 18  1  0  0  0  0
 18  9  2  0  0  0  0
 18 13  1  0  0  0  0
 23 15  1  0  0  0  0
 24 16  1  0  0  0  0
 25 17  1  0  0  0  0
 26  2  1  0  0  0  0
 28 27  2  6  0  0  0
 28 26  1  0  0  0  0
 29 30  1  0  0  0  0
 29 28  1  0  0  0  0
 31 40  1  6  0  0  0
 31 30  1  0  0  0  0
 31 39  1  0  0  0  0
 32 33  1  0  0  0  0
 32 31  1  0  0  0  0
 33 38  1  0  0  0  0
 34 33  1  0  0  0  0
 34 36  1  0  0  0  0
 35 34  2  0  0  0  0
 36 37  1  0  0  0  0
 38 36  1  6  0  0  0
 38 39  1  0  0  0  0
 41 40  1  0  0  0  0
 42 28  1  0  0  0  0
 43 42  1  0  0  0  0
 44 43  2  0  0  0  0
 45 43  1  0  0  0  0
 46 45  1  0  0  0  0
 47 45  1  0  0  0  0
M  END
>  <minimizedAffinity>
-6.26699781

$$$$
