REMARK  Name = 
REMARK  9 active torsions:
REMARK  status: ('A' for Active; 'I' for Inactive)
REMARK    1  A    between atoms: C_1  and  C_3
REMARK    2  A    between atoms: C_2  and  C_9
REMARK    3  A    between atoms: C_9  and  O_10
REMARK    4  A    between atoms: O_10  and  P_12
REMARK    5  A    between atoms: P_12  and  O_13
REMARK    6  A    between atoms: P_12  and  O_14
REMARK    7  A    between atoms: O_14  and  C_23
REMARK    8  A    between atoms: C_23  and  C_24
REMARK    9  A    between atoms: C_24  and  C_25
REMARK                            x       y       z     vdW  Elec       q    Type
REMARK                         _______ _______ _______ _____ _____    ______ ____
ROOT
ATOM      1  O   UNL     1      42.891  42.169  45.608  0.00  0.00    +0.000 OA
ATOM      2  P   UNL     1      44.357  41.974  45.931  0.00  0.00    +0.000 P 
ENDROOT
BRANCH   2   3
ATOM      3  O   UNL     1      44.622  42.315  47.566  0.00  0.00    +0.000 OA
ATOM      4  H   UNL     1      44.016  43.052  47.856  0.00  0.00    +0.000 HD
ENDBRANCH   2   3
BRANCH   2   5
ATOM      5  O   UNL     1      44.730  40.365  45.594  0.00  0.00    +0.000 OA
BRANCH   5   6
ATOM      6  C   UNL     1      45.342  40.215  44.386  0.00  0.00    +0.000 C 
ATOM      7  H   UNL     1      46.378  40.638  44.409  0.00  0.00    +0.000 HD
ATOM      8  H   UNL     1      44.793  40.799  43.598  0.00  0.00    +0.000 HD
BRANCH   6  10
ATOM      9  C   UNL     1      44.875  37.812  44.628  0.00  0.00    +0.000 C 
ATOM     10  C   UNL     1      45.377  38.811  43.923  0.00  0.00    +0.000 C 
BRANCH   9  11
ATOM     11  C   UNL     1      44.962  36.465  44.079  0.00  0.00    +0.000 A 
ATOM     12  C   UNL     1      45.003  36.332  42.675  0.00  0.00    +0.000 A 
ATOM     13  C   UNL     1      45.087  35.057  42.110  0.00  0.00    +0.000 A 
ATOM     14  N   UNL     1      45.124  33.989  42.958  0.00  0.00    +0.000 NA
ATOM     15  C   UNL     1      45.083  34.150  44.298  0.00  0.00    +0.000 A 
ATOM     16  N   UNL     1      45.003  35.366  44.835  0.00  0.00    +0.000 NA
ATOM     17  H   UNL     1      44.975  37.150  41.983  0.00  0.00    +0.000 HD
ATOM     18  H   UNL     1      45.122  34.879  41.044  0.00  0.00    +0.000 HD
ATOM     19  H   UNL     1      45.113  33.292  44.959  0.00  0.00    +0.000 HD
ENDBRANCH   9  11
ENDBRANCH   6  10
ENDBRANCH   5   6
ENDBRANCH   2   5
BRANCH   2  20
ATOM     20  O   UNL     1      45.264  43.065  45.027  0.00  0.00    +0.000 OA
BRANCH  20  21
ATOM     21  C   UNL     1      44.448  43.869  44.273  0.00  0.00    +0.000 C 
BRANCH  21  22
ATOM     22  C   UNL     1      43.503  44.665  45.130  0.00  0.00    +0.000 C 
ATOM     23  C   UNL     1      42.704  45.633  44.294  0.00  0.00    +0.000 C 
ATOM     24  N   UNL     1      43.508  46.834  44.158  0.00  0.00    +0.000 N 
ATOM     25  C   UNL     1      44.295  47.952  43.733  0.00  0.00    +0.000 C 
ATOM     26  O   UNL     1      44.588  48.391  42.586  0.00  0.00    +0.000 OA
ATOM     27  C   UNL     1      44.625  48.387  45.107  0.00  0.00    +0.000 C 
ATOM     28  H   UNL     1      45.667  48.311  45.432  0.00  0.00    +0.000 HD
ATOM     29  C   UNL     1      43.658  47.346  45.531  0.00  0.00    +0.000 C 
ATOM     30  S   UNL     1      44.394  45.813  46.231  0.00  0.00    +0.000 S 
BRANCH  22  31
ATOM     31  C   UNL     1      42.587  43.840  45.972  0.00  0.00    +0.000 C 
ATOM     32  H   UNL     1      41.757  44.522  46.309  0.00  0.00    +0.000 HD
ENDBRANCH  22  31
ENDBRANCH  21  22
ENDBRANCH  20  21
ENDBRANCH   2  20
TORSDOF 9
