
     RDKit          3D

 42 44  0  0  0  0  0  0  0  0999 V2000
   44.8747   37.8116   44.6278 C   0  0  0  0  0  0  0  0  0  0  0  0
   45.3772   38.8110   43.9226 C   0  0  0  0  0  0  0  0  0  0  0  0
   44.9616   36.4652   44.0791 C   0  0  0  0  0  0  0  0  0  0  0  0
   45.0032   36.3323   42.6746 C   0  0  0  0  0  0  0  0  0  0  0  0
   45.0866   35.0571   42.1103 C   0  0  0  0  0  0  0  0  0  0  0  0
   45.1241   33.9888   42.9582 N   0  0  0  0  0  0  0  0  0  0  0  0
   45.0826   34.1495   44.2978 C   0  0  0  0  0  0  0  0  0  0  0  0
   45.0031   35.3657   44.8350 N   0  0  0  0  0  0  0  0  0  0  0  0
   45.3419   40.2155   44.3862 C   0  0  0  0  0  0  0  0  0  0  0  0
   44.7297   40.3649   45.5936 O   0  0  0  0  0  0  0  0  0  0  0  0
   42.8914   42.1692   45.6080 O   0  0  0  0  0  0  0  0  0  0  0  0
   44.3566   41.9735   45.9315 P   0  0  1  0  0  0  0  0  0  0  0  0
   44.6220   42.3150   47.5656 O   0  0  0  0  0  0  0  0  0  0  0  0
   45.2645   43.0648   45.0267 O   0  0  0  0  0  0  0  0  0  0  0  0
   44.4108   38.0190   45.5961 H   0  0  0  0  0  0  0  0  0  0  0  0
   45.8649   38.7351   42.9443 H   0  0  0  0  0  0  0  0  0  0  0  0
   44.9755   37.1496   41.9834 H   0  0  0  0  0  0  0  0  0  0  0  0
   45.1224   34.8786   41.0435 H   0  0  0  0  0  0  0  0  0  0  0  0
   45.1132   33.2919   44.9590 H   0  0  0  0  0  0  0  0  0  0  0  0
   46.3783   40.6379   44.4094 H   0  0  0  0  0  0  0  0  0  0  0  0
   44.7930   40.7986   43.5979 H   0  0  0  0  0  0  0  0  0  0  0  0
   44.0164   43.0517   47.8562 H   0  0  0  0  0  0  0  0  0  0  0  0
   44.4481   43.8688   44.2733 C   0  0  0  0  0  0  0  0  0  0  0  0
   43.5029   44.6647   45.1301 C   0  0  2  0  0  0  0  0  0  0  0  0
   42.5867   43.8404   45.9721 C   0  0  0  0  0  0  0  0  0  0  0  0
   41.7566   44.5223   46.3087 H   0  0  0  0  0  0  0  0  0  0  0  0
   42.7043   45.6327   44.2937 C   0  0  0  0  0  0  0  0  0  0  0  0
   43.5076   46.8345   44.1584 N   0  0  0  0  0  0  0  0  0  0  0  0
   44.2948   47.9524   43.7335 C   0  0  0  0  0  0  0  0  0  0  0  0
   44.5882   48.3908   42.5855 O   0  0  0  0  0  0  0  0  0  0  0  0
   44.6249   48.3870   45.1071 C   0  0  1  0  0  0  0  0  0  0  0  0
   45.6673   48.3108   45.4318 H   0  0  0  0  0  0  0  0  0  0  0  0
   43.6577   47.3457   45.5309 C   0  0  2  0  0  0  0  0  0  0  0  0
   44.3939   45.8129   46.2308 S   0  0  0  0  0  0  0  0  0  0  0  0
   43.8145   43.2135   43.6433 H   0  0  0  0  0  0  0  0  0  0  0  0
   44.9664   44.5444   43.5913 H   0  0  0  0  0  0  0  0  0  0  0  0
   43.1028   43.5350   46.8991 H   0  0  0  0  0  0  0  0  0  0  0  0
   42.1833   42.9775   45.3981 H   0  0  0  0  0  0  0  0  0  0  0  0
   42.5341   45.1711   43.3142 H   0  0  0  0  0  0  0  0  0  0  0  0
   41.7395   45.9179   44.7344 H   0  0  0  0  0  0  0  0  0  0  0  0
   44.1970   49.4029   45.3293 H   0  0  0  0  0  0  0  0  0  0  0  0
   42.7085   47.6523   45.9895 H   0  0  0  0  0  0  0  0  0  0  0  0
  2  9  1  0
  2  1  2  0
  3  1  1  0
  3  8  1  0
  4  3  2  0
  5  4  1  0
  5  6  2  0
  6  7  1  0
  7  8  2  0
  9 10  1  0
 12 10  1  1
 11 12  2  0
 12 13  1  0
 14 12  1  0
  1 15  1  0
  2 16  1  0
  4 17  1  0
  5 18  1  0
  7 19  1  0
  9 20  1  0
  9 21  1  0
 13 22  1  0
 24 23  1  6
 24 25  1  0
 25 26  1  0
 24 27  1  0
 27 28  1  0
 28 29  1  0
 29 30  2  0
 29 31  1  0
 31 32  1  1
 31 33  1  0
 33 34  1  0
 34 24  1  0
 33 28  1  0
 23 35  1  0
 23 36  1  0
 25 37  1  0
 25 38  1  0
 27 39  1  0
 27 40  1  0
 31 41  1  0
 33 42  1  1
 14 23  1  0
M  ISO  8  17  14  18  14  19  14  20   8  21   8  22   3  26   8  32  15
M  END
>  <DihAtoms>  (1) 
11,13,22,23

>  <DihDeg>  (1) 
-179.97360084733435

$$$$
