
 OpenBabel03242512543D

 32 34  0  0  1  0  0  0  0  0999 V2000
   42.9230   42.4490   45.2680 O   0  0  0  0  0  0  0  0  0  0  0  0
   44.3050   42.4060   45.8850 P   0  0  1  0  0  0  0  0  0  0  0  0
   44.1840   42.6690   47.5510 O   0  0  0  0  0  0  0  0  0  0  0  0
   43.4420   43.3100   47.7350 H   0  0  0  0  0  0  0  0  0  0  0  0
   44.9420   40.8770   45.5720 O   0  0  0  0  0  0  0  0  0  0  0  0
   45.2070   40.6850   44.2490 C   0  0  0  0  0  0  0  0  0  0  0  0
   46.1770   41.1640   43.9640 H   0  0  0  0  0  0  0  0  0  0  0  0
   44.4230   41.1890   43.6190 H   0  0  0  0  0  0  0  0  0  0  0  0
   44.9600   38.2820   44.7130 C   0  0  0  0  0  3  0  0  0  0  0  0
   45.2100   39.2590   43.8580 C   0  0  0  0  0  3  0  0  0  0  0  0
   44.9890   36.9100   44.2240 C   0  0  0  0  0  0  0  0  0  0  0  0
   45.1870   36.7120   42.8410 C   0  0  0  0  0  0  0  0  0  0  0  0
   45.2220   35.4110   42.3330 C   0  0  0  0  0  0  0  0  0  0  0  0
   45.0570   34.3830   43.2130 N   0  0  0  0  0  0  0  0  0  0  0  0
   44.8680   34.6050   44.5320 C   0  0  0  0  0  0  0  0  0  0  0  0
   44.8360   35.8460   45.0140 N   0  0  0  0  0  0  0  0  0  0  0  0
   45.3190   37.4990   42.1240 H   0  0  0  0  0  0  0  0  0  0  0  0
   45.3690   35.1850   41.2860 H   0  0  0  0  0  0  0  0  0  0  0  0
   44.7390   33.7780   45.2190 H   0  0  0  0  0  0  0  0  0  0  0  0
   45.2310   43.6520   45.2360 O   0  0  0  0  0  0  0  0  0  0  0  0
   44.7040   44.8740   45.5680 C   0  0  0  0  0  2  0  0  0  0  0  0
   45.7170   45.7510   46.2510 C   0  0  2  0  0  0  0  0  0  0  0  0
   45.1460   47.1200   46.5240 C   0  0  0  0  0  2  0  0  0  0  0  0
   45.3510   47.9090   45.3220 N   0  0  0  0  0  0  0  0  0  0  0  0
   45.2550   48.6970   44.1310 C   0  0  0  0  0  0  0  0  0  0  0  0
   44.2720   49.2420   43.5560 O   0  0  0  0  0  0  0  0  0  0  0  0
   46.7030   48.6350   43.8380 C   0  0  0  0  0  3  0  0  0  0  0  0
   47.0220   48.0860   42.9470 H   0  0  0  0  0  0  0  0  0  0  0  0
   46.8140   47.9860   45.1660 C   0  0  2  0  0  3  0  0  0  0  0  0
   47.1030   46.1700   45.1430 S   0  0  0  0  0  0  0  0  0  0  0  0
   46.2890   45.1770   47.5040 C   0  0  0  0  0  2  0  0  0  0  0  0
   46.7730   46.0290   48.0580 H   0  0  0  0  0  0  0  0  0  0  0  0
  2  1  2  6  0  0  0
  2  3  1  0  0  0  0
  3  4  1  0  0  0  0
  5  2  1  0  0  0  0
  6  5  1  0  0  0  0
  7  6  1  0  0  0  0
  8  6  1  0  0  0  0
 10  6  1  0  0  0  0
 10  9  2  0  0  0  0
 11  9  1  0  0  0  0
 11 16  1  0  0  0  0
 12 11  2  0  0  0  0
 13 12  1  0  0  0  0
 13 14  2  0  0  0  0
 14 15  1  0  0  0  0
 15 16  2  0  0  0  0
 15 19  1  0  0  0  0
 17 12  1  0  0  0  0
 18 13  1  0  0  0  0
 20 21  1  0  0  0  0
 20  2  1  0  0  0  0
 22 21  1  6  0  0  0
 22 23  1  0  0  0  0
 22 31  1  0  0  0  0
 24 23  1  0  0  0  0
 25 24  1  0  0  0  0
 26 25  2  0  0  0  0
 27 25  1  0  0  0  0
 28 27  1  0  0  0  0
 29 27  1  6  0  0  0
 29 24  1  0  0  0  0
 30 29  1  0  0  0  0
 30 22  1  0  0  0  0
 31 32  1  0  0  0  0
M  END
>  <minimizedAffinity>
-1.47640824

>  <minimizedRMSD>
1.81537294

$$$$
