
 OpenBabel03242522203D

 48 52  0  0  0  0  0  0  0  0999 V2000
   42.1930   34.8150   39.8690 C   0  0  0  0  0  0  0  0  0  0  0  0
   41.7410   34.9570   38.5880 C   0  0  0  0  0  0  0  0  0  0  0  0
   40.5880   34.4100   38.0490 C   0  0  0  0  0  0  0  0  0  0  0  0
   39.8500   33.6530   38.9240 C   0  0  0  0  0  0  0  0  0  0  0  0
   40.2940   33.5050   40.2140 C   0  0  0  0  0  0  0  0  0  0  0  0
   41.4120   34.0490   40.6930 N   0  0  0  0  0  0  0  0  0  0  0  0
   42.3880   35.5720   37.9570 H   0  0  0  0  0  0  0  0  0  0  0  0
   40.3240   34.5800   37.0350 H   0  0  0  0  0  0  0  0  0  0  0  0
   39.4130   32.6650   41.0690 C   0  0  0  0  0  0  0  0  0  0  0  0
   38.0660   33.0230   40.8390 F   0  0  0  0  0  0  0  0  0  0  0  0
   39.7400   32.7020   42.3950 F   0  0  0  0  0  0  0  0  0  0  0  0
   39.4880   31.3370   40.6830 F   0  0  0  0  0  0  0  0  0  0  0  0
   43.3760   35.3480   40.5070 C   0  0  0  0  0  0  0  0  0  0  0  0
   44.2710   34.7710   40.1850 H   0  0  0  0  0  0  0  0  0  0  0  0
   43.5390   36.3800   40.1240 H   0  0  0  0  0  0  0  0  0  0  0  0
   43.3740   35.3900   42.0020 C   0  0  0  0  0  0  0  0  0  0  0  0
   43.2250   36.4130   42.3940 H   0  0  0  0  0  0  0  0  0  0  0  0
   42.5070   34.7870   42.3480 H   0  0  0  0  0  0  0  0  0  0  0  0
   46.6060   33.7270   42.7190 C   0  0  0  0  0  0  0  0  0  0  0  0
   46.6610   33.9390   44.0570 C   0  0  0  0  0  0  0  0  0  0  0  0
   45.0960   34.8620   44.3550 S   0  0  0  0  0  0  0  0  0  0  0  0
   44.6230   34.7980   42.5580 C   0  0  0  0  0  0  0  0  0  0  0  0
   45.5390   34.2180   42.1630 N   0  0  0  0  0  0  0  0  0  0  0  0
   47.4320   33.6340   44.7330 H   0  0  0  0  0  0  0  0  0  0  0  0
   48.9860   32.6080   40.0250 C   0  0  0  0  0  0  0  0  0  0  0  0
   47.9850   33.3440   40.6830 C   0  0  0  0  0  0  0  0  0  0  0  0
   47.6420   33.0130   41.9550 C   0  0  0  0  0  0  0  0  0  0  0  0
   48.3290   31.9350   42.5320 N   0  0  0  0  0  0  0  0  0  0  0  0
   49.2780   31.2660   41.8590 C   0  0  0  0  0  0  0  0  0  0  0  0
   49.6090   31.5980   40.6110 N   0  0  0  0  0  0  0  0  0  0  0  0
   49.2960   32.8340   39.0100 H   0  0  0  0  0  0  0  0  0  0  0  0
   49.6820   30.4750   42.4790 H   0  0  0  0  0  0  0  0  0  0  0  0
   47.3850   34.4120   39.9510 N   0  0  0  0  0  0  0  0  0  0  0  0
   46.6310   33.9090   39.4210 H   0  0  0  0  0  0  0  0  0  0  0  0
   47.7330   35.3750   40.0430 H   0  0  0  0  0  0  0  0  0  0  0  0
   38.3370   32.9040   38.3100 S   0  0  0  0  0  0  0  0  0  0  0  0
   39.7320   30.7990   37.4320 C   0  0  0  0  0  0  0  0  0  0  0  0
   38.6420   31.6220   37.1200 C   0  0  0  0  0  0  0  0  0  0  0  0
   37.9290   31.3720   35.9600 C   0  0  0  0  0  0  0  0  0  0  0  0
   37.1160   32.0650   35.8220 H   0  0  0  0  0  0  0  0  0  0  0  0
   38.2810   30.3350   35.1210 C   0  0  0  0  0  0  0  0  0  0  0  0
   37.7120   29.9480   33.9650 N   0  0  0  0  0  0  0  0  0  0  0  0
   36.8790   30.4040   33.5190 H   0  0  0  0  0  0  0  0  0  0  0  0
   38.3740   28.9020   33.4930 N   0  0  0  0  0  0  0  0  0  0  0  0
   39.3820   28.6150   34.3590 C   0  0  0  0  0  0  0  0  0  0  0  0
   40.1260   27.8220   34.2900 H   0  0  0  0  0  0  0  0  0  0  0  0
   39.3490   29.5050   35.3990 C   0  0  0  0  0  0  0  0  0  0  0  0
   40.0400   29.7710   36.5540 C   0  0  0  0  0  0  0  0  0  0  0  0
  1 13  1  0  0  0  0
  1  6  1  0  0  0  0
  2  1  2  0  0  0  0
  3  2  1  0  0  0  0
  3  4  2  0  0  0  0
  4  5  1  0  0  0  0
  5  6  2  0  0  0  0
  5  9  1  0  0  0  0
  7  2  1  0  0  0  0
  8  3  1  0  0  0  0
  9 11  1  0  0  0  0
 10  9  1  0  0  0  0
 12  9  1  0  0  0  0
 13 16  1  0  0  0  0
 14 13  1  0  0  0  0
 15 13  1  0  0  0  0
 16 18  1  0  0  0  0
 16 17  1  0  0  0  0
 16 22  1  0  0  0  0
 19 20  2  0  0  0  0
 20 21  1  0  0  0  0
 20 24  1  0  0  0  0
 22 21  1  0  0  0  0
 23 22  2  0  0  0  0
 23 19  1  0  0  0  0
 25 30  2  0  0  0  0
 25 26  1  0  0  0  0
 26 27  2  0  0  0  0
 27 28  1  0  0  0  0
 27 19  1  0  0  0  0
 29 32  1  0  0  0  0
 29 28  2  0  0  0  0
 30 29  1  0  0  0  0
 31 25  1  0  0  0  0
 33 35  1  0  0  0  0
 33 26  1  0  0  0  0
 34 33  1  0  0  0  0
 36  4  1  0  0  0  0
 38 37  1  0  0  0  0
 38 36  1  0  0  0  0
 39 38  2  0  0  0  0
 40 39  1  0  0  0  0
 41 47  2  0  0  0  0
 41 39  1  0  0  0  0
 42 41  1  0  0  0  0
 43 42  1  0  0  0  0
 44 42  1  0  0  0  0
 44 45  2  0  0  0  0
 45 47  1  0  0  0  0
 46 45  1  0  0  0  0
 47 48  1  0  0  0  0
 48 37  2  0  0  0  0
M  END
>  <minimizedAffinity>
-6.05891132

>  <minimizedRMSD>
0.712801695

$$$$
