
 OpenBabel03242519163D

 45 49  0  0  1  0  0  0  0  0999 V2000
   48.4200   34.1630   40.9610 C   0  0  0  0  0  0  0  0  0  0  0  0
   47.8870   34.3850   39.7120 C   0  0  0  0  0  0  0  0  0  0  0  0
   48.1770   33.5770   38.6110 C   0  0  0  0  0  0  0  0  0  0  0  0
   49.0310   32.5420   38.8550 N   0  0  0  0  0  0  0  0  0  0  0  0
   49.5470   32.3310   40.0750 C   0  0  0  0  0  0  0  0  0  0  0  0
   49.2450   33.1280   41.1050 N   0  0  0  0  0  0  0  0  0  0  0  0
   47.2200   35.2220   39.5980 H   0  0  0  0  0  0  0  0  0  0  0  0
   47.7410   33.7800   37.6420 H   0  0  0  0  0  0  0  0  0  0  0  0
   50.4600   31.1840   40.3580 C   0  0  2  0  0  0  0  0  0  0  0  0
   51.0500   31.0560   41.7270 C   0  0  0  0  0  0  0  0  0  0  0  0
   51.9030   31.5090   40.5350 C   0  0  1  0  0  0  0  0  0  0  0  0
   50.1850   30.2390   39.8500 H   0  0  0  0  0  0  0  0  0  0  0  0
   50.8800   31.8650   42.4680 H   0  0  0  0  0  0  0  0  0  0  0  0
   51.2220   30.0720   42.1800 H   0  0  0  0  0  0  0  0  0  0  0  0
   52.2270   32.5510   40.4940 H   0  0  0  0  0  0  0  0  0  0  0  0
   54.0200   30.2530   40.7680 C   0  0  0  0  0  3  0  0  0  0  0  0
   52.8420   30.4450   40.0870 C   0  0  0  0  0  0  0  0  0  0  0  0
   52.4960   29.6760   38.9880 C   0  0  0  0  0  0  0  0  0  0  0  0
   51.5770   29.8010   38.4290 H   0  0  0  0  0  0  0  0  0  0  0  0
   53.4210   28.7090   38.6340 C   0  0  0  0  0  0  0  0  0  0  0  0
   53.4060   27.8080   37.6430 N   0  0  0  0  0  0  0  0  0  0  0  0
   52.6930   27.6180   36.8960 H   0  0  0  0  0  0  0  0  0  0  0  0
   54.4850   27.0510   37.6330 N   0  0  0  0  0  0  0  0  0  0  0  0
   55.2880   27.4380   38.6610 C   0  0  0  0  0  0  0  0  0  0  0  0
   56.2530   27.0790   39.0010 H   0  0  0  0  0  0  0  0  0  0  0  0
   54.6100   28.4840   39.2880 C   0  0  0  0  0  0  0  0  0  0  0  0
   54.9130   29.2790   40.3830 C   0  0  0  0  0  3  0  0  0  0  0  0
   48.0980   35.0060   42.0950 C   0  0  0  0  0  0  0  0  0  0  0  0
   48.7180   34.7890   42.9790 H   0  0  0  0  0  0  0  0  0  0  0  0
   48.3190   36.0670   41.8110 H   0  0  0  0  0  0  0  0  0  0  0  0
   46.6360   34.9160   42.4030 C   0  0  0  0  0  0  0  0  0  0  0  0
   46.1280   35.9140   42.3620 H   0  0  0  0  0  0  0  0  0  0  0  0
   46.1250   34.2840   41.6670 H   0  0  0  0  0  0  0  0  0  0  0  0
   44.6330   36.3420   44.0920 Cl  0  0  0  0  0  0  0  0  0  0  0  0
   45.4690   34.8950   44.6260 C   0  0  0  0  0  0  0  0  0  0  0  0
   46.3610   34.3350   43.7450 C   0  0  0  0  0  0  0  0  0  0  0  0
   47.0140   33.1820   44.1580 C   0  0  0  0  0  0  0  0  0  0  0  0
   46.7710   32.6280   45.4060 C   0  0  0  0  0  0  0  0  0  0  0  0
   45.8570   33.2260   46.2760 C   0  0  0  0  0  0  0  0  0  0  0  0
   45.2170   34.3610   45.8630 C   0  0  0  0  0  0  0  0  0  0  0  0
   47.7340   32.6830   43.5140 H   0  0  0  0  0  0  0  0  0  0  0  0
   47.2990   31.7280   45.6960 H   0  0  0  0  0  0  0  0  0  0  0  0
   45.6590   32.8020   47.2540 H   0  0  0  0  0  0  0  0  0  0  0  0
   44.2850   35.0300   46.6650 O   0  0  0  0  0  0  0  0  0  0  0  0
   43.4570   34.5510   47.0200 H   0  0  0  0  0  0  0  0  0  0  0  0
  1  6  1  0  0  0  0
  1 28  1  0  0  0  0
  2  1  2  0  0  0  0
  3  4  2  0  0  0  0
  3  2  1  0  0  0  0
  4  5  1  0  0  0  0
  5  9  1  0  0  0  0
  5  6  2  0  0  0  0
  7  2  1  0  0  0  0
  8  3  1  0  0  0  0
  9 12  1  6  0  0  0
  9 11  1  0  0  0  0
  9 10  1  0  0  0  0
 10 14  1  0  0  0  0
 10 13  1  0  0  0  0
 11 15  1  6  0  0  0
 11 10  1  0  0  0  0
 17 11  1  0  0  0  0
 17 16  2  0  0  0  0
 18 17  1  0  0  0  0
 19 18  1  0  0  0  0
 20 18  2  0  0  0  0
 20 26  1  0  0  0  0
 21 20  1  0  0  0  0
 22 21  1  0  0  0  0
 23 21  1  0  0  0  0
 23 24  2  0  0  0  0
 24 25  1  0  0  0  0
 24 26  1  0  0  0  0
 26 27  2  0  0  0  0
 27 16  1  0  0  0  0
 28 31  1  0  0  0  0
 28 29  1  0  0  0  0
 30 28  1  0  0  0  0
 31 36  1  0  0  0  0
 32 31  1  0  0  0  0
 33 31  1  0  0  0  0
 34 35  1  0  0  0  0
 35 40  1  0  0  0  0
 36 37  1  0  0  0  0
 36 35  2  0  0  0  0
 37 38  2  0  0  0  0
 38 42  1  0  0  0  0
 38 39  1  0  0  0  0
 39 43  1  0  0  0  0
 40 39  2  0  0  0  0
 40 44  1  0  0  0  0
 41 37  1  0  0  0  0
 44 45  1  0  0  0  0
M  END
>  <minimizedAffinity>
-5.81881618

>  <minimizedRMSD>
0.372421145

$$$$
