
 OpenBabel03242519163D

 45 49  0  0  1  0  0  0  0  0999 V2000
   48.3340   33.9710   41.1490 C   0  0  0  0  0  0  0  0  0  0  0  0
   47.5960   34.3340   40.0450 C   0  0  0  0  0  0  0  0  0  0  0  0
   47.7750   33.7470   38.7910 C   0  0  0  0  0  0  0  0  0  0  0  0
   48.7360   32.7830   38.7280 N   0  0  0  0  0  0  0  0  0  0  0  0
   49.4520   32.4340   39.8080 C   0  0  0  0  0  0  0  0  0  0  0  0
   49.2510   33.0190   40.9930 N   0  0  0  0  0  0  0  0  0  0  0  0
   46.8550   35.1030   40.1730 H   0  0  0  0  0  0  0  0  0  0  0  0
   47.1780   34.0560   37.9430 H   0  0  0  0  0  0  0  0  0  0  0  0
   50.4860   31.3600   39.7560 C   0  0  2  0  0  0  0  0  0  0  0  0
   50.7380   30.5430   40.9840 C   0  0  0  0  0  0  0  0  0  0  0  0
   51.7430   31.6050   40.5190 C   0  0  1  0  0  0  0  0  0  0  0  0
   50.5480   30.8240   38.7870 H   0  0  0  0  0  0  0  0  0  0  0  0
   50.2270   30.8170   41.9300 H   0  0  0  0  0  0  0  0  0  0  0  0
   50.9960   29.4790   40.9140 H   0  0  0  0  0  0  0  0  0  0  0  0
   51.8420   32.5200   41.1070 H   0  0  0  0  0  0  0  0  0  0  0  0
   53.7030   30.1070   40.6690 C   0  0  0  0  0  3  0  0  0  0  0  0
   52.9630   30.9950   39.9260 C   0  0  0  0  0  0  0  0  0  0  0  0
   53.3170   31.3450   38.6330 C   0  0  0  0  0  0  0  0  0  0  0  0
   52.7580   32.0410   38.0210 H   0  0  0  0  0  0  0  0  0  0  0  0
   54.4650   30.7350   38.1540 C   0  0  0  0  0  0  0  0  0  0  0  0
   55.0810   30.8430   36.9690 N   0  0  0  0  0  0  0  0  0  0  0  0
   54.8450   31.4140   36.1210 H   0  0  0  0  0  0  0  0  0  0  0  0
   56.1610   30.0930   36.8930 N   0  0  0  0  0  0  0  0  0  0  0  0
   56.3070   29.4320   38.0730 C   0  0  0  0  0  0  0  0  0  0  0  0
   57.0530   28.7260   38.4210 H   0  0  0  0  0  0  0  0  0  0  0  0
   55.2330   29.8420   38.8640 C   0  0  0  0  0  0  0  0  0  0  0  0
   54.8380   29.5230   40.1550 C   0  0  0  0  0  3  0  0  0  0  0  0
   48.1260   34.5820   42.4460 C   0  0  0  0  0  0  0  0  0  0  0  0
   48.7120   34.1010   43.2440 H   0  0  0  0  0  0  0  0  0  0  0  0
   48.4850   35.6430   42.3910 H   0  0  0  0  0  0  0  0  0  0  0  0
   46.6660   34.6160   42.7700 C   0  0  0  0  0  0  0  0  0  0  0  0
   46.2420   35.6530   42.7290 H   0  0  0  0  0  0  0  0  0  0  0  0
   46.0950   34.0260   42.0420 H   0  0  0  0  0  0  0  0  0  0  0  0
   44.6390   36.0930   44.3870 Cl  0  0  0  0  0  0  0  0  0  0  0  0
   45.4520   34.6500   44.9680 C   0  0  0  0  0  0  0  0  0  0  0  0
   46.3570   34.0650   44.1180 C   0  0  0  0  0  0  0  0  0  0  0  0
   46.9910   32.9170   44.5680 C   0  0  0  0  0  0  0  0  0  0  0  0
   46.7180   32.3910   45.8210 C   0  0  0  0  0  0  0  0  0  0  0  0
   45.7910   33.0130   46.6590 C   0  0  0  0  0  0  0  0  0  0  0  0
   45.1690   34.1440   46.2100 C   0  0  0  0  0  0  0  0  0  0  0  0
   47.7210   32.3980   43.9500 H   0  0  0  0  0  0  0  0  0  0  0  0
   47.2320   31.4930   46.1410 H   0  0  0  0  0  0  0  0  0  0  0  0
   45.5680   32.6120   47.6420 H   0  0  0  0  0  0  0  0  0  0  0  0
   44.2260   34.8380   46.9780 O   0  0  0  0  0  0  0  0  0  0  0  0
   43.3870   34.3720   47.3260 H   0  0  0  0  0  0  0  0  0  0  0  0
  1 28  1  0  0  0  0
  2  7  1  0  0  0  0
  2  1  2  0  0  0  0
  3  2  1  0  0  0  0
  4  3  2  0  0  0  0
  4  5  1  0  0  0  0
  5  6  2  0  0  0  0
  6  1  1  0  0  0  0
  8  3  1  0  0  0  0
  9 12  1  6  0  0  0
  9  5  1  0  0  0  0
  9 11  1  0  0  0  0
  9 10  1  0  0  0  0
 10 13  1  0  0  0  0
 11 10  1  0  0  0  0
 11 15  1  1  0  0  0
 14 10  1  0  0  0  0
 17 11  1  0  0  0  0
 17 16  2  0  0  0  0
 18 17  1  0  0  0  0
 19 18  1  0  0  0  0
 20 18  2  0  0  0  0
 20 26  1  0  0  0  0
 21 20  1  0  0  0  0
 22 21  1  0  0  0  0
 23 21  1  0  0  0  0
 23 24  2  0  0  0  0
 24 25  1  0  0  0  0
 24 26  1  0  0  0  0
 26 27  2  0  0  0  0
 27 16  1  0  0  0  0
 28 31  1  0  0  0  0
 28 29  1  0  0  0  0
 30 28  1  0  0  0  0
 31 36  1  0  0  0  0
 32 31  1  0  0  0  0
 33 31  1  0  0  0  0
 34 35  1  0  0  0  0
 35 40  1  0  0  0  0
 36 37  1  0  0  0  0
 36 35  2  0  0  0  0
 37 38  2  0  0  0  0
 38 42  1  0  0  0  0
 38 39  1  0  0  0  0
 39 43  1  0  0  0  0
 40 39  2  0  0  0  0
 40 44  1  0  0  0  0
 41 37  1  0  0  0  0
 44 45  1  0  0  0  0
M  END
>  <minimizedAffinity>
-6.35849667

>  <minimizedRMSD>
1.11476958

$$$$
