
 OpenBabel03252508313D

 35 38  0  0  1  0  0  0  0  0999 V2000
   44.1900   34.2710   41.9420 N   0  0  0  0  0  0  0  0  0  0  0  0
   44.0670   33.4020   40.8350 C   0  0  1  0  0  0  0  0  0  0  0  0
   43.3360   33.9440   39.6630 C   0  0  0  0  0  0  0  0  0  0  0  0
   42.2240   34.7450   39.9560 N   0  0  0  0  0  0  0  0  0  0  0  0
   42.2910   35.5630   41.1010 C   0  0  0  0  0  0  0  0  0  0  0  0
   43.6730   35.5890   41.6970 C   0  0  0  0  0  0  0  0  0  0  0  0
   43.4940   32.5000   41.1810 H   0  0  0  0  0  0  0  0  0  0  0  0
   43.0370   33.1150   38.9870 H   0  0  0  0  0  0  0  0  0  0  0  0
   44.0740   34.5790   39.0900 H   0  0  0  0  0  0  0  0  0  0  0  0
   41.6450   35.0270   39.1700 H   0  0  0  0  0  0  0  0  0  0  0  0
   41.5860   35.2560   41.9230 H   0  0  0  0  0  0  0  0  0  0  0  0
   42.0000   36.6000   40.8500 H   0  0  0  0  0  0  0  0  0  0  0  0
   44.3940   36.1470   41.0440 H   0  0  0  0  0  0  0  0  0  0  0  0
   43.5720   36.2000   42.6180 H   0  0  0  0  0  0  0  0  0  0  0  0
   45.3260   31.4970   40.0350 C   0  0  0  0  0  3  0  0  0  0  0  0
   45.3810   32.8510   40.3390 C   0  0  0  0  0  0  0  0  0  0  0  0
   46.5880   33.4900   40.1660 C   0  0  0  0  0  0  0  0  0  0  0  0
   46.5300   34.5520   40.4310 H   0  0  0  0  0  0  0  0  0  0  0  0
   47.6750   32.8190   39.7180 C   0  0  0  0  0  0  0  0  0  0  0  0
   48.8980   33.3160   39.5090 N   0  0  0  0  0  0  0  0  0  0  0  0
   49.2920   34.2880   39.6310 H   0  0  0  0  0  0  0  0  0  0  0  0
   49.6630   32.3390   39.0740 N   0  0  0  0  0  0  0  0  0  0  0  0
   48.9490   31.2170   39.0010 C   0  0  0  0  0  0  0  0  0  0  0  0
   49.2640   30.2200   38.6830 H   0  0  0  0  0  0  0  0  0  0  0  0
   47.6500   31.4750   39.4090 C   0  0  0  0  0  0  0  0  0  0  0  0
   46.4630   30.8240   39.5730 C   0  0  0  0  0  3  0  0  0  0  0  0
   45.0670   34.7700   44.1080 C   0  0  0  0  0  0  0  0  0  0  0  0
   44.7860   33.7910   43.1300 C   0  0  0  0  0  0  0  0  0  0  0  0
   45.1130   32.4770   43.4050 C   0  0  0  0  0  0  0  0  0  0  0  0
   45.6920   32.1420   44.5890 N   0  0  0  0  0  0  0  0  0  0  0  0
   45.9540   33.1060   45.5210 C   0  0  0  0  0  0  0  0  0  0  0  0
   45.6450   34.3960   45.2770 N   0  0  0  0  0  0  0  0  0  0  0  0
   44.8950   35.8330   44.0870 H   0  0  0  0  0  0  0  0  0  0  0  0
   44.8930   31.7350   42.6670 H   0  0  0  0  0  0  0  0  0  0  0  0
   46.4190   32.8150   46.4630 H   0  0  0  0  0  0  0  0  0  0  0  0
  1 28  1  0  0  0  0
  2  7  1  1  0  0  0
  2  1  1  0  0  0  0
  3  4  1  0  0  0  0
  3  2  1  0  0  0  0
  4  5  1  0  0  0  0
  5  6  1  0  0  0  0
  5 11  1  0  0  0  0
  6  1  1  0  0  0  0
  6 14  1  0  0  0  0
  8  3  1  0  0  0  0
  9  3  1  0  0  0  0
 10  4  1  0  0  0  0
 12  5  1  0  0  0  0
 13  6  1  0  0  0  0
 15 16  1  0  0  0  0
 16  2  1  0  0  0  0
 17 16  2  0  0  0  0
 17 18  1  0  0  0  0
 19 17  1  0  0  0  0
 20 21  1  0  0  0  0
 20 19  1  0  0  0  0
 22 20  1  0  0  0  0
 23 22  2  0  0  0  0
 23 25  1  0  0  0  0
 24 23  1  0  0  0  0
 25 26  1  0  0  0  0
 25 19  2  0  0  0  0
 26 15  2  0  0  0  0
 27 32  1  0  0  0  0
 28 29  1  0  0  0  0
 28 27  2  0  0  0  0
 29 30  2  0  0  0  0
 30 31  1  0  0  0  0
 31 35  1  0  0  0  0
 32 31  2  0  0  0  0
 33 27  1  0  0  0  0
 34 29  1  0  0  0  0
M  END
>  <minimizedAffinity>
-4.18915462

>  <minimizedRMSD>
0.957379699

$$$$
