
 OpenBabel03252508313D

 35 38  0  0  1  0  0  0  0  0999 V2000
   44.2190   34.3170   41.9780 N   0  0  0  0  0  0  0  0  0  0  0  0
   44.1510   33.3600   40.9410 C   0  0  1  0  0  0  0  0  0  0  0  0
   43.4580   33.7950   39.7030 C   0  0  0  0  0  0  0  0  0  0  0  0
   42.3250   34.5990   39.8890 N   0  0  0  0  0  0  0  0  0  0  0  0
   42.3370   35.5050   40.9660 C   0  0  0  0  0  0  0  0  0  0  0  0
   43.6940   35.6020   41.6090 C   0  0  0  0  0  0  0  0  0  0  0  0
   43.5770   32.4790   41.3360 H   0  0  0  0  0  0  0  0  0  0  0  0
   43.1970   32.9100   39.0840 H   0  0  0  0  0  0  0  0  0  0  0  0
   44.2080   34.3940   39.1080 H   0  0  0  0  0  0  0  0  0  0  0  0
   41.7730   34.8070   39.0620 H   0  0  0  0  0  0  0  0  0  0  0  0
   41.6040   35.2530   41.7830 H   0  0  0  0  0  0  0  0  0  0  0  0
   42.0410   36.5140   40.6220 H   0  0  0  0  0  0  0  0  0  0  0  0
   44.4320   36.1180   40.9410 H   0  0  0  0  0  0  0  0  0  0  0  0
   43.5500   36.2820   42.4730 H   0  0  0  0  0  0  0  0  0  0  0  0
   45.4690   31.4170   40.3560 C   0  0  0  0  0  3  0  0  0  0  0  0
   45.4900   32.7930   40.5400 C   0  0  0  0  0  0  0  0  0  0  0  0
   46.6920   33.4370   40.3510 C   0  0  0  0  0  0  0  0  0  0  0  0
   46.6060   34.5170   40.5180 H   0  0  0  0  0  0  0  0  0  0  0  0
   47.8030   32.7500   40.0000 C   0  0  0  0  0  0  0  0  0  0  0  0
   49.0250   33.2500   39.7880 N   0  0  0  0  0  0  0  0  0  0  0  0
   49.3980   34.2380   39.8370 H   0  0  0  0  0  0  0  0  0  0  0  0
   49.8200   32.2550   39.4690 N   0  0  0  0  0  0  0  0  0  0  0  0
   49.1290   31.1170   39.4730 C   0  0  0  0  0  0  0  0  0  0  0  0
   49.4720   30.1010   39.2550 H   0  0  0  0  0  0  0  0  0  0  0  0
   47.8120   31.3840   39.8120 C   0  0  0  0  0  0  0  0  0  0  0  0
   46.6310   30.7260   39.9940 C   0  0  0  0  0  3  0  0  0  0  0  0
   44.8750   34.9760   44.1790 C   0  0  0  0  0  0  0  0  0  0  0  0
   44.7750   33.9420   43.2230 C   0  0  0  0  0  0  0  0  0  0  0  0
   45.2230   32.6820   43.5700 C   0  0  0  0  0  0  0  0  0  0  0  0
   45.7460   32.4500   44.8030 N   0  0  0  0  0  0  0  0  0  0  0  0
   45.8330   33.4660   45.7130 C   0  0  0  0  0  0  0  0  0  0  0  0
   45.4040   34.7050   45.3990 N   0  0  0  0  0  0  0  0  0  0  0  0
   44.5900   36.0120   44.1050 H   0  0  0  0  0  0  0  0  0  0  0  0
   45.1400   31.8980   42.8470 H   0  0  0  0  0  0  0  0  0  0  0  0
   46.2560   33.2570   46.6950 H   0  0  0  0  0  0  0  0  0  0  0  0
  1 28  1  0  0  0  0
  2  7  1  1  0  0  0
  2  1  1  0  0  0  0
  3  4  1  0  0  0  0
  3  2  1  0  0  0  0
  4  5  1  0  0  0  0
  5  6  1  0  0  0  0
  5 11  1  0  0  0  0
  6  1  1  0  0  0  0
  6 14  1  0  0  0  0
  8  3  1  0  0  0  0
  9  3  1  0  0  0  0
 10  4  1  0  0  0  0
 12  5  1  0  0  0  0
 13  6  1  0  0  0  0
 15 16  1  0  0  0  0
 16  2  1  0  0  0  0
 17 18  1  0  0  0  0
 17 16  2  0  0  0  0
 19 17  1  0  0  0  0
 20 21  1  0  0  0  0
 20 19  1  0  0  0  0
 22 23  2  0  0  0  0
 22 20  1  0  0  0  0
 23 25  1  0  0  0  0
 24 23  1  0  0  0  0
 25 26  1  0  0  0  0
 25 19  2  0  0  0  0
 26 15  2  0  0  0  0
 27 32  1  0  0  0  0
 28 29  1  0  0  0  0
 28 27  2  0  0  0  0
 29 30  2  0  0  0  0
 30 31  1  0  0  0  0
 31 35  1  0  0  0  0
 32 31  2  0  0  0  0
 33 27  1  0  0  0  0
 34 29  1  0  0  0  0
M  END
>  <minimizedAffinity>
-4.26857281

>  <minimizedRMSD>
0.683404505

$$$$
