
     RDKit          3D

 43 47  0  0  0  0  0  0  0  0999 V2000
   45.2211   33.5312   41.1481 F   0  0  0  0  0  0  0  0  0  0  0  0
   46.4183   34.1859   41.0540 C   0  0  0  0  0  0  0  0  0  0  0  0
   46.9127   34.8716   42.1147 C   0  0  0  0  0  0  0  0  0  0  0  0
   48.1641   35.4316   41.9604 C   0  0  0  0  0  0  0  0  0  0  0  0
   48.8922   35.3066   40.7984 C   0  0  0  0  0  0  0  0  0  0  0  0
   48.3140   34.5951   39.7823 C   0  0  0  0  0  0  0  0  0  0  0  0
   47.0780   34.0265   39.8725 C   0  0  0  0  0  0  0  0  0  0  0  0
   44.4535   35.8947   44.8006 C   0  0  0  0  0  0  0  0  0  0  0  0
   45.1781   35.8988   43.5975 C   0  0  0  0  0  0  0  0  0  0  0  0
   46.1255   34.9300   43.3397 C   0  0  0  0  0  0  0  0  0  0  0  0
   46.2904   33.9955   44.3272 N   0  0  0  0  0  0  0  0  0  0  0  0
   45.5929   34.0060   45.4654 C   0  0  0  0  0  0  0  0  0  0  0  0
   44.6765   34.9535   45.7025 N   0  0  0  0  0  0  0  0  0  0  0  0
   46.5679   33.3548   38.7053 C   0  0  0  0  0  0  0  0  0  0  0  0
   45.4379   32.5664   38.8221 C   0  0  0  0  0  0  0  0  0  0  0  0
   45.0076   31.8920   37.7057 C   0  0  0  0  0  0  0  0  0  0  0  0
   45.6634   31.9766   36.4868 C   0  0  0  0  0  0  0  0  0  0  0  0
   46.8079   32.7977   36.4291 C   0  0  0  0  0  0  0  0  0  0  0  0
   47.2499   33.4825   37.5355 C   0  0  0  0  0  0  0  0  0  0  0  0
   48.4534   35.9673   42.8852 H   0  0  0  0  0  0  0  0  0  0  0  0
   49.8236   35.8201   40.9193 H   0  0  0  0  0  0  0  0  0  0  0  0
   49.1134   34.6270   39.0947 H   0  0  0  0  0  0  0  0  0  0  0  0
   43.7671   36.7413   44.7910 H   0  0  0  0  0  0  0  0  0  0  0  0
   45.0864   36.6106   42.7844 H   0  0  0  0  0  0  0  0  0  0  0  0
   45.7271   33.2657   46.2395 H   0  0  0  0  0  0  0  0  0  0  0  0
   44.8124   32.3620   39.6471 H   0  0  0  0  0  0  0  0  0  0  0  0
   44.1158   31.2423   37.7117 H   0  0  0  0  0  0  0  0  0  0  0  0
   45.2673   31.4086   35.6385 H   0  0  0  0  0  0  0  0  0  0  0  0
   47.2212   32.7721   35.4312 H   0  0  0  0  0  0  0  0  0  0  0  0
   48.7948   33.9429   35.7725 C   0  0  0  0  0  0  0  0  0  0  0  0
   48.3354   34.2898   37.0674 C   0  0  0  0  0  0  0  0  0  0  0  0
   49.0029   35.3165   37.7808 C   0  0  0  0  0  0  0  0  0  0  0  0
   48.6026   35.5290   38.7587 H   0  0  0  0  0  0  0  0  0  0  0  0
   50.0744   35.9252   37.1645 C   0  0  0  0  0  0  0  0  0  0  0  0
   50.8698   36.9127   37.6134 N   0  0  0  0  0  0  0  0  0  0  0  0
   50.8039   37.3920   38.5268 H   0  0  0  0  0  0  0  0  0  0  0  0
   51.7675   37.1695   36.6654 N   0  0  0  0  0  0  0  0  0  0  0  0
   51.5956   36.3835   35.5976 C   0  0  0  0  0  0  0  0  0  0  0  0
   52.1154   36.3038   34.6602 H   0  0  0  0  0  0  0  0  0  0  0  0
   50.5138   35.5807   35.9038 C   0  0  0  0  0  0  0  0  0  0  0  0
   49.8693   34.5819   35.2018 C   0  0  0  0  0  0  0  0  0  0  0  0
   48.3258   33.1701   35.1823 H   0  0  0  0  0  0  0  0  0  0  0  0
   50.2070   34.3024   34.2082 H   0  0  0  0  0  0  0  0  0  0  0  0
  2  1  1  0
  2  3  2  0
  3 10  1  0
  4  3  1  0
  5  4  2  0
  6  7  2  0
  6  5  1  0
  7  2  1  0
  8 13  2  0
  9  8  1  0
 10  9  2  0
 10 11  1  0
 11 12  2  0
 12 13  1  0
 14 15  2  0
 14  7  1  0
 16 15  1  0
 17 16  2  0
 18 17  1  0
 18 19  2  0
 19 14  1  0
  4 20  1  0
  5 21  1  0
  6 22  1  0
  8 23  1  0
  9 24  1  0
 12 25  1  0
 15 26  1  0
 16 27  1  0
 17 28  1  0
 18 29  1  0
 30 31  2  0
 31 32  1  0
 32 33  1  0
 32 34  2  0
 34 35  1  0
 35 36  1  0
 35 37  1  0
 37 38  2  0
 38 39  1  0
 38 40  1  0
 40 41  2  0
 41 30  1  0
 40 34  1  0
 30 42  1  0
 41 43  1  0
 19 31  1  0
M  ISO  8  20  14  21  14  22  14  23  14  24  14  25  14  26  14  27  14
M  ISO  5  28  14  29  14  33  16  36   5  39  15
M  END
>  <DihAtoms>  (1) 
17,18,30,29

>  <DihDeg>  (1) 
107.17779285707304

$$$$
