
 OpenBabel03252508313D

 35 38  0  0  1  0  0  0  0  0999 V2000
   44.4280   34.1990   41.6880 N   0  0  0  0  0  0  0  0  0  0  0  0
   44.1250   33.4600   40.5220 C   0  0  1  0  0  0  0  0  0  0  0  0
   43.1780   34.1010   39.5770 C   0  0  0  0  0  0  0  0  0  0  0  0
   42.1190   34.8090   40.1620 N   0  0  0  0  0  0  0  0  0  0  0  0
   42.3750   35.4890   41.3680 C   0  0  0  0  0  0  0  0  0  0  0  0
   43.8420   35.5110   41.7050 C   0  0  0  0  0  0  0  0  0  0  0  0
   43.6490   32.4980   40.8500 H   0  0  0  0  0  0  0  0  0  0  0  0
   42.7800   33.3450   38.8680 H   0  0  0  0  0  0  0  0  0  0  0  0
   43.7810   34.8330   38.9640 H   0  0  0  0  0  0  0  0  0  0  0  0
   41.3980   35.1530   39.5340 H   0  0  0  0  0  0  0  0  0  0  0  0
   41.8410   35.0540   42.2600 H   0  0  0  0  0  0  0  0  0  0  0  0
   42.0160   36.5330   41.3050 H   0  0  0  0  0  0  0  0  0  0  0  0
   44.4160   36.1750   41.0080 H   0  0  0  0  0  0  0  0  0  0  0  0
   43.8970   36.0030   42.6970 H   0  0  0  0  0  0  0  0  0  0  0  0
   45.2430   31.7410   39.2400 C   0  0  0  0  0  3  0  0  0  0  0  0
   45.3390   33.0350   39.7330 C   0  0  0  0  0  0  0  0  0  0  0  0
   46.4940   33.7320   39.4600 C   0  0  0  0  0  0  0  0  0  0  0  0
   46.4730   34.7400   39.8910 H   0  0  0  0  0  0  0  0  0  0  0  0
   47.4920   33.1730   38.7390 C   0  0  0  0  0  0  0  0  0  0  0  0
   48.6580   33.7360   38.4050 N   0  0  0  0  0  0  0  0  0  0  0  0
   49.0590   34.6920   38.6060 H   0  0  0  0  0  0  0  0  0  0  0  0
   49.3440   32.8630   37.7030 N   0  0  0  0  0  0  0  0  0  0  0  0
   48.6370   31.7410   37.5810 C   0  0  0  0  0  0  0  0  0  0  0  0
   48.9020   30.8130   37.0650 H   0  0  0  0  0  0  0  0  0  0  0  0
   47.4250   31.8910   38.2360 C   0  0  0  0  0  0  0  0  0  0  0  0
   46.2890   31.1810   38.4950 C   0  0  0  0  0  3  0  0  0  0  0  0
   46.3810   34.3600   43.0550 C   0  0  0  0  0  0  0  0  0  0  0  0
   45.2440   33.6110   42.6810 C   0  0  0  0  0  0  0  0  0  0  0  0
   45.0300   32.3920   43.2960 C   0  0  0  0  0  0  0  0  0  0  0  0
   45.8980   31.9310   44.2360 N   0  0  0  0  0  0  0  0  0  0  0  0
   46.9910   32.6740   44.5830 C   0  0  0  0  0  0  0  0  0  0  0  0
   47.2230   33.8670   43.9980 N   0  0  0  0  0  0  0  0  0  0  0  0
   46.7220   35.3180   42.6980 H   0  0  0  0  0  0  0  0  0  0  0  0
   44.1660   31.8290   43.0170 H   0  0  0  0  0  0  0  0  0  0  0  0
   47.6730   32.2850   45.3400 H   0  0  0  0  0  0  0  0  0  0  0  0
  1  6  1  0  0  0  0
  1 28  1  0  0  0  0
  2  7  1  1  0  0  0
  2  1  1  0  0  0  0
  3  4  1  0  0  0  0
  3  2  1  0  0  0  0
  4  5  1  0  0  0  0
  5  6  1  0  0  0  0
  5 11  1  0  0  0  0
  6 14  1  0  0  0  0
  8  3  1  0  0  0  0
  9  3  1  0  0  0  0
 10  4  1  0  0  0  0
 12  5  1  0  0  0  0
 13  6  1  0  0  0  0
 15 16  1  0  0  0  0
 16  2  1  0  0  0  0
 17 16  2  0  0  0  0
 17 18  1  0  0  0  0
 19 17  1  0  0  0  0
 20 21  1  0  0  0  0
 20 19  1  0  0  0  0
 22 20  1  0  0  0  0
 23 22  2  0  0  0  0
 23 25  1  0  0  0  0
 24 23  1  0  0  0  0
 25 26  1  0  0  0  0
 25 19  2  0  0  0  0
 26 15  2  0  0  0  0
 27 32  1  0  0  0  0
 28 27  2  0  0  0  0
 28 29  1  0  0  0  0
 29 30  2  0  0  0  0
 30 31  1  0  0  0  0
 31 35  1  0  0  0  0
 32 31  2  0  0  0  0
 33 27  1  0  0  0  0
 34 29  1  0  0  0  0
M  END
>  <minimizedAffinity>
-4.12634563

>  <minimizedRMSD>
1.75487602

$$$$
