
     RDKit          3D

 40 44  0  0  0  0  0  0  0  0999 V2000
   46.9530   30.8564   45.2793 C   0  0  0  0  0  0  0  0  0  0  0  0
   46.5802   32.1741   45.0786 C   0  0  0  0  0  0  0  0  0  0  0  0
   46.0661   32.9653   46.1036 C   0  0  0  0  0  0  0  0  0  0  0  0
   45.9176   32.4234   47.3775 C   0  0  0  0  0  0  0  0  0  0  0  0
   45.4635   32.8897   48.5777 N   0  0  0  0  0  0  0  0  0  0  0  0
   45.5707   31.8420   49.4842 C   0  0  0  0  0  0  0  0  0  0  0  0
   46.0826   30.7789   48.8130 N   0  0  0  0  0  0  0  0  0  0  0  0
   46.2985   31.1127   47.5374 C   0  0  0  0  0  0  0  0  0  0  0  0
   46.8099   30.3031   46.5461 C   0  0  0  0  0  0  0  0  0  0  0  0
   45.9139   33.2583   41.6443 C   0  0  0  0  0  0  0  0  0  0  0  0
   47.0543   33.9832   41.3171 C   0  0  0  0  0  0  0  0  0  0  0  0
   48.0410   34.0884   42.2891 C   0  0  0  0  0  0  0  0  0  0  0  0
   47.8232   33.4763   43.4904 N   0  0  0  0  0  0  0  0  0  0  0  0
   46.7143   32.7869   43.7715 C   0  0  0  0  0  0  0  0  0  0  0  0
   45.7439   32.6681   42.8526 N   0  0  0  0  0  0  0  0  0  0  0  0
   49.2789   34.8507   41.9928 C   0  0  0  0  0  0  0  0  0  0  0  0
   48.9810   36.0048   41.2677 F   0  0  0  0  0  0  0  0  0  0  0  0
   49.8689   35.2723   43.1538 F   0  0  0  0  0  0  0  0  0  0  0  0
   50.1189   34.0466   41.2611 F   0  0  0  0  0  0  0  0  0  0  0  0
   47.1627   34.5539   40.0793 O   0  0  0  0  0  0  0  0  0  0  0  0
   47.3536   30.2618   44.4527 H   0  0  0  0  0  0  0  0  0  0  0  0
   45.7671   33.9968   45.9748 H   0  0  0  0  0  0  0  0  0  0  0  0
   45.1095   33.8661   48.7359 H   0  0  0  0  0  0  0  0  0  0  0  0
   45.2576   32.0165   50.4984 H   0  0  0  0  0  0  0  0  0  0  0  0
   47.0989   29.2758   46.7094 H   0  0  0  0  0  0  0  0  0  0  0  0
   45.0846   33.1129   40.9644 H   0  0  0  0  0  0  0  0  0  0  0  0
   45.1065   35.3298   39.2220 C   0  0  0  0  0  0  0  0  0  0  0  0
   46.1080   34.3790   39.1904 C   0  0  0  0  0  0  0  0  0  0  0  0
   45.9951   33.3364   38.2926 C   0  0  0  0  0  0  0  0  0  0  0  0
   46.7905   32.6116   38.2912 H   0  0  0  0  0  0  0  0  0  0  0  0
   44.8986   33.3062   37.4874 C   0  0  0  0  0  0  0  0  0  0  0  0
   44.5669   32.4029   36.5429 N   0  0  0  0  0  0  0  0  0  0  0  0
   45.1146   31.5569   36.2700 H   0  0  0  0  0  0  0  0  0  0  0  0
   43.4124   32.7336   35.9792 N   0  0  0  0  0  0  0  0  0  0  0  0
   42.9551   33.8654   36.5406 C   0  0  0  0  0  0  0  0  0  0  0  0
   42.0830   34.4766   36.3981 H   0  0  0  0  0  0  0  0  0  0  0  0
   43.8812   34.2408   37.4949 C   0  0  0  0  0  0  0  0  0  0  0  0
   43.9977   35.2831   38.3951 C   0  0  0  0  0  0  0  0  0  0  0  0
   45.1502   36.1699   39.9118 H   0  0  0  0  0  0  0  0  0  0  0  0
   43.2249   36.0210   38.4228 H   0  0  0  0  0  0  0  0  0  0  0  0
  1  9  2  0
  2  1  1  0
  2  3  2  0
  3  4  1  0
  4  8  2  0
  4  5  1  0
  5  6  1  0
  7  6  2  0
  8  7  1  0
  9  8  1  0
 10 15  2  0
 11 10  1  0
 11 12  2  0
 12 13  1  0
 13 14  2  0
 14  2  1  0
 15 14  1  0
 16 12  1  0
 16 18  1  0
 17 16  1  0
 19 16  1  0
 20 11  1  0
  1 21  1  0
  3 22  1  0
  5 23  1  0
  6 24  1  0
  9 25  1  0
 10 26  1  0
 27 28  2  0
 28 29  1  0
 29 30  1  0
 29 31  2  0
 31 32  1  0
 32 33  1  0
 32 34  1  0
 34 35  2  0
 35 36  1  0
 35 37  1  0
 37 38  2  0
 38 27  1  0
 37 31  1  0
 27 39  1  0
 38 40  1  0
 20 28  1  0
M  ISO  8  21  14  22  14  23   9  24  14  25  14  26  14  30  16  33   5
M  ISO  1  36  15
M  END
>  <DihAtoms>  (1) 
10,19,27,26

>  <DihDeg>  (1) 
-90.00672651555182

$$$$
