
     RDKit          3D

 45 49  0  0  0  0  0  0  0  0999 V2000
   46.4503   33.8656   43.2447 C   0  0  0  0  0  0  0  0  0  0  0  0
   45.7508   34.8623   42.4353 C   0  0  0  0  0  0  0  0  0  0  0  0
   45.3299   36.0767   43.1786 C   0  0  0  0  0  0  0  0  0  0  0  0
   44.5529   35.7729   44.4480 C   0  0  0  0  0  0  0  0  0  0  0  0
   44.9822   34.5048   45.1459 C   0  0  0  0  0  0  0  0  0  0  0  0
   46.4030   34.1566   44.7559 C   0  0  0  0  0  0  0  0  0  0  0  0
   47.8745   33.7050   42.8941 C   0  0  0  0  0  0  0  0  0  0  0  0
   48.5811   34.8972   42.7164 C   0  0  0  0  0  0  0  0  0  0  0  0
   49.9460   34.8716   42.3848 C   0  0  0  0  0  0  0  0  0  0  0  0
   50.5055   33.6191   42.2555 N   0  0  0  0  0  0  0  0  0  0  0  0
   49.7811   32.4738   42.4376 C   0  0  0  0  0  0  0  0  0  0  0  0
   48.4902   32.5290   42.7506 N   0  0  0  0  0  0  0  0  0  0  0  0
   50.5249   31.2307   42.2693 C   0  0  0  0  0  0  0  0  0  0  0  0
   51.5701   31.2479   41.4080 N   0  0  0  0  0  0  0  0  0  0  0  0
   52.1442   30.0344   41.3704 C   0  0  0  0  0  0  0  0  0  0  0  0
   51.4303   29.2447   42.2357 N   0  0  0  0  0  0  0  0  0  0  0  0
   50.4529   29.9779   42.7742 N   0  0  0  0  0  0  0  0  0  0  0  0
   45.9935   32.8366   43.1472 H   0  0  0  0  0  0  0  0  0  0  0  0
   44.8165   34.4155   41.9907 H   0  0  0  0  0  0  0  0  0  0  0  0
   46.4115   35.1919   41.6131 H   0  0  0  0  0  0  0  0  0  0  0  0
   46.0937   36.8367   43.3598 H   0  0  0  0  0  0  0  0  0  0  0  0
   44.5703   36.5944   42.5190 H   0  0  0  0  0  0  0  0  0  0  0  0
   44.7624   36.6092   45.1705 H   0  0  0  0  0  0  0  0  0  0  0  0
   43.4559   35.7877   44.3033 H   0  0  0  0  0  0  0  0  0  0  0  0
   44.8873   34.5522   46.2299 H   0  0  0  0  0  0  0  0  0  0  0  0
   44.3542   33.6859   44.7111 H   0  0  0  0  0  0  0  0  0  0  0  0
   47.0593   35.0623   44.8882 H   0  0  0  0  0  0  0  0  0  0  0  0
   46.7442   33.2840   45.3244 H   0  0  0  0  0  0  0  0  0  0  0  0
   48.2279   35.9159   42.7970 H   0  0  0  0  0  0  0  0  0  0  0  0
   50.5525   35.7481   42.2327 H   0  0  0  0  0  0  0  0  0  0  0  0
   52.9885   29.6629   40.8119 H   0  0  0  0  0  0  0  0  0  0  0  0
   50.9908   27.3202   43.7266 C   0  0  0  0  0  0  0  0  0  0  0  0
   51.5865   27.8764   42.5950 C   0  0  0  0  0  0  0  0  0  0  0  0
   52.3506   27.0232   41.8221 C   0  0  0  0  0  0  0  0  0  0  0  0
   52.8134   27.4506   40.9449 H   0  0  0  0  0  0  0  0  0  0  0  0
   52.5414   25.6878   42.1153 C   0  0  0  0  0  0  0  0  0  0  0  0
   53.2480   24.7349   41.4716 N   0  0  0  0  0  0  0  0  0  0  0  0
   53.7824   24.9078   40.5976 H   0  0  0  0  0  0  0  0  0  0  0  0
   53.1103   23.6120   42.1639 N   0  0  0  0  0  0  0  0  0  0  0  0
   52.3199   23.8269   43.2527 C   0  0  0  0  0  0  0  0  0  0  0  0
   52.0214   23.1202   44.0053 H   0  0  0  0  0  0  0  0  0  0  0  0
   51.9388   25.1493   43.2497 C   0  0  0  0  0  0  0  0  0  0  0  0
   51.1781   25.9876   44.0238 C   0  0  0  0  0  0  0  0  0  0  0  0
   50.3869   27.9702   44.3479 H   0  0  0  0  0  0  0  0  0  0  0  0
   50.7075   25.5738   44.9067 H   0  0  0  0  0  0  0  0  0  0  0  0
  1  6  1  0
  2  3  1  0
  2  1  1  0
  3  4  1  0
  4  5  1  0
  6  5  1  0
  7  1  1  0
  8  7  2  0
  9  8  1  0
 10  9  2  0
 10 11  1  0
 11 12  2  0
 12  7  1  0
 13 11  1  0
 13 17  2  0
 14 13  1  0
 15 14  2  0
 15 16  1  0
 16 17  1  0
  1 18  1  0
  2 19  1  0
  2 20  1  0
  3 21  1  0
  3 22  1  0
  4 23  1  0
  4 24  1  0
  5 25  1  0
  5 26  1  0
  6 27  1  0
  6 28  1  0
  8 29  1  0
  9 30  1  0
 15 31  1  0
 32 33  2  0
 33 34  1  0
 34 35  1  0
 34 36  2  0
 36 37  1  0
 37 38  1  0
 37 39  1  0
 39 40  2  0
 40 41  1  0
 40 42  1  0
 42 43  2  0
 43 32  1  0
 42 36  1  0
 32 44  1  0
 43 45  1  0
 16 33  1  0
M  ISO  8  18  13  19  13  20  13  21  13  22  13  23  13  24  13  25  13
M  ISO  8  26  13  27  13  28  13  29  14  30  14  31  14  35  16  38   5
M  ISO  1  41  15
M  END
>  <DihAtoms>  (1) 
14,15,32,31

>  <DihDeg>  (1) 
43.50749451453178

$$$$
