
     RDKit          3D

 50 54  0  0  0  0  0  0  0  0999 V2000
   43.4226   35.2652   42.0896 C   0  0  0  0  0  0  0  0  0  0  0  0
   46.6385   33.5366   42.7186 C   0  0  0  0  0  0  0  0  0  0  0  0
   46.7568   33.7872   44.0468 C   0  0  0  0  0  0  0  0  0  0  0  0
   45.2309   34.7601   44.3826 S   0  0  0  0  0  0  0  0  0  0  0  0
   44.6795   34.6556   42.6096 C   0  0  0  0  0  0  0  0  0  0  0  0
   45.5616   34.0399   42.1939 N   0  0  0  0  0  0  0  0  0  0  0  0
   49.3682   32.5441   40.3233 C   0  0  0  0  0  0  0  0  0  0  0  0
   48.4579   33.3493   41.0310 C   0  0  0  0  0  0  0  0  0  0  0  0
   47.6222   32.7727   41.9336 C   0  0  0  0  0  0  0  0  0  0  0  0
   47.7317   31.3842   42.0968 N   0  0  0  0  0  0  0  0  0  0  0  0
   48.6194   30.6625   41.3945 C   0  0  0  0  0  0  0  0  0  0  0  0
   49.4359   31.2363   40.5107 N   0  0  0  0  0  0  0  0  0  0  0  0
   48.4760   34.7470   40.7451 N   0  0  0  0  0  0  0  0  0  0  0  0
   43.4889   35.4537   40.6082 C   0  0  0  0  0  0  0  0  0  0  0  0
   42.3193   35.0699   39.8495 C   0  0  0  0  0  0  0  0  0  0  0  0
   41.9837   35.3296   38.5514 C   0  0  0  0  0  0  0  0  0  0  0  0
   40.8346   34.9228   37.8929 C   0  0  0  0  0  0  0  0  0  0  0  0
   39.9680   34.1842   38.6578 C   0  0  0  0  0  0  0  0  0  0  0  0
   40.2942   33.9166   39.9637 C   0  0  0  0  0  0  0  0  0  0  0  0
   41.4126   34.3277   40.5605 N   0  0  0  0  0  0  0  0  0  0  0  0
   39.2797   33.1089   40.6925 C   0  0  0  0  0  0  0  0  0  0  0  0
   37.9972   33.6478   40.4514 F   0  0  0  0  0  0  0  0  0  0  0  0
   39.5428   32.9739   42.0273 F   0  0  0  0  0  0  0  0  0  0  0  0
   39.2201   31.8267   40.1730 F   0  0  0  0  0  0  0  0  0  0  0  0
   38.4497   33.6134   37.8848 S   0  0  0  0  0  0  0  0  0  0  0  0
   43.2006   36.2068   42.6248 H   0  0  0  0  0  0  0  0  0  0  0  0
   42.5765   34.5739   42.2968 H   0  0  0  0  0  0  0  0  0  0  0  0
   47.5491   33.4807   44.6976 H   0  0  0  0  0  0  0  0  0  0  0  0
   50.0561   32.9571   39.5922 H   0  0  0  0  0  0  0  0  0  0  0  0
   48.5426   29.6169   41.6683 H   0  0  0  0  0  0  0  0  0  0  0  0
   47.8378   34.8015   39.9128 H   0  0  0  0  0  0  0  0  0  0  0  0
   49.0326   35.3945   41.3172 H   0  0  0  0  0  0  0  0  0  0  0  0
   44.3790   34.9023   40.2339 H   0  0  0  0  0  0  0  0  0  0  0  0
   43.6991   36.5260   40.3973 H   0  0  0  0  0  0  0  0  0  0  0  0
   42.7281   35.9234   38.0133 H   0  0  0  0  0  0  0  0  0  0  0  0
   40.6675   35.1789   36.8762 H   0  0  0  0  0  0  0  0  0  0  0  0
   38.0372   30.9716   37.8344 C   0  0  0  0  0  0  0  0  0  0  0  0
   38.6290   32.0209   37.1198 C   0  0  0  0  0  0  0  0  0  0  0  0
   39.2746   31.7339   35.9290 C   0  0  0  0  0  0  0  0  0  0  0  0
   39.6910   32.6136   35.4666 H   0  0  0  0  0  0  0  0  0  0  0  0
   39.3374   30.4417   35.4502 C   0  0  0  0  0  0  0  0  0  0  0  0
   39.9150   29.9806   34.3262 N   0  0  0  0  0  0  0  0  0  0  0  0
   40.4235   30.5693   33.6224 H   0  0  0  0  0  0  0  0  0  0  0  0
   39.7343   28.6695   34.2602 N   0  0  0  0  0  0  0  0  0  0  0  0
   39.0302   28.2857   35.3589 C   0  0  0  0  0  0  0  0  0  0  0  0
   38.7023   27.2843   35.6342 H   0  0  0  0  0  0  0  0  0  0  0  0
   38.7650   29.3856   36.1298 C   0  0  0  0  0  0  0  0  0  0  0  0
   38.1311   29.6931   37.3063 C   0  0  0  0  0  0  0  0  0  0  0  0
   37.5112   31.1002   38.7744 H   0  0  0  0  0  0  0  0  0  0  0  0
   37.6825   28.8434   37.8326 H   0  0  0  0  0  0  0  0  0  0  0  0
  1  5  1  0
  2  3  2  0
  3  4  1  0
  5  4  1  0
  6  5  2  0
  6  2  1  0
  7 12  2  0
  7  8  1  0
  8  9  2  0
  9 10  1  0
  9  2  1  0
 11 10  2  0
 12 11  1  0
 13  8  1  0
 14  1  1  0
 15 20  1  0
 15 14  1  0
 16 15  2  0
 17 16  1  0
 17 18  2  0
 18 19  1  0
 19 20  2  0
 19 21  1  0
 21 23  1  0
 22 21  1  0
 24 21  1  0
 25 18  1  0
  1 26  1  0
  1 27  1  0
  3 28  1  0
  7 29  1  0
 11 30  1  0
 13 31  1  0
 13 32  1  0
 14 33  1  0
 14 34  1  0
 16 35  1  0
 17 36  1  0
 37 38  2  0
 38 39  1  0
 39 40  1  0
 39 41  2  0
 41 42  1  0
 42 43  1  0
 42 44  1  0
 44 45  2  0
 45 46  1  0
 45 47  1  0
 47 48  2  0
 48 37  1  0
 47 41  1  0
 37 49  1  0
 48 50  1  0
 25 38  1  0
M  ISO  8  26   8  27   8  28  14  29  14  30  14  33   8  34   8  35  14
M  ISO  4  36  14  40  16  43   5  46  15
M  END
>  <DihAtoms>  (1) 
17,24,37,36

>  <DihDeg>  (1) 
179.9981478398378

$$$$
