
 OpenBabel03252508313D

 35 38  0  0  1  0  0  0  0  0999 V2000
   44.3070   34.4710   41.7690 N   0  0  0  0  0  0  0  0  0  0  0  0
   44.6100   33.4150   40.8810 C   0  0  1  0  0  0  0  0  0  0  0  0
   44.1140   33.5750   39.4910 C   0  0  0  0  0  0  0  0  0  0  0  0
   42.8470   34.1610   39.3600 N   0  0  0  0  0  0  0  0  0  0  0  0
   42.4910   35.1610   40.2840 C   0  0  0  0  0  0  0  0  0  0  0  0
   43.6560   35.5850   41.1370 C   0  0  0  0  0  0  0  0  0  0  0  0
   44.1270   32.4870   41.2880 H   0  0  0  0  0  0  0  0  0  0  0  0
   44.1350   32.5970   38.9670 H   0  0  0  0  0  0  0  0  0  0  0  0
   44.8550   34.2420   38.9600 H   0  0  0  0  0  0  0  0  0  0  0  0
   42.4430   34.1700   38.4280 H   0  0  0  0  0  0  0  0  0  0  0  0
   41.6630   34.8600   40.9870 H   0  0  0  0  0  0  0  0  0  0  0  0
   42.1020   36.0520   39.7560 H   0  0  0  0  0  0  0  0  0  0  0  0
   44.4140   36.1600   40.5440 H   0  0  0  0  0  0  0  0  0  0  0  0
   43.2290   36.3120   41.8580 H   0  0  0  0  0  0  0  0  0  0  0  0
   46.8720   34.1680   40.4670 C   0  0  0  0  0  3  0  0  0  0  0  0
   46.0790   33.0790   40.8050 C   0  0  0  0  0  0  0  0  0  0  0  0
   46.7120   31.8740   41.0060 C   0  0  0  0  0  0  0  0  0  0  0  0
   46.0040   31.0800   41.2670 H   0  0  0  0  0  0  0  0  0  0  0  0
   48.0550   31.7620   40.8780 C   0  0  0  0  0  0  0  0  0  0  0  0
   48.7890   30.6570   41.0440 N   0  0  0  0  0  0  0  0  0  0  0  0
   48.5230   29.6670   41.3000 H   0  0  0  0  0  0  0  0  0  0  0  0
   50.0470   30.9720   40.8290 N   0  0  0  0  0  0  0  0  0  0  0  0
   50.1340   32.2650   40.5260 C   0  0  0  0  0  0  0  0  0  0  0  0
   51.0220   32.8600   40.2890 H   0  0  0  0  0  0  0  0  0  0  0  0
   48.8670   32.8250   40.5440 C   0  0  0  0  0  0  0  0  0  0  0  0
   48.2590   34.0300   40.3400 C   0  0  0  0  0  3  0  0  0  0  0  0
   44.4520   35.4960   43.9230 C   0  0  0  0  0  0  0  0  0  0  0  0
   44.6600   34.3450   43.1320 C   0  0  0  0  0  0  0  0  0  0  0  0
   45.1830   33.2180   43.7380 C   0  0  0  0  0  0  0  0  0  0  0  0
   45.4890   33.2250   45.0630 N   0  0  0  0  0  0  0  0  0  0  0  0
   45.2790   34.3510   45.8090 C   0  0  0  0  0  0  0  0  0  0  0  0
   44.7700   35.4630   45.2420 N   0  0  0  0  0  0  0  0  0  0  0  0
   44.0630   36.4610   43.6450 H   0  0  0  0  0  0  0  0  0  0  0  0
   45.3330   32.3450   43.1390 H   0  0  0  0  0  0  0  0  0  0  0  0
   45.5320   34.3330   46.8690 H   0  0  0  0  0  0  0  0  0  0  0  0
  1 28  1  0  0  0  0
  2  7  1  1  0  0  0
  2  1  1  0  0  0  0
  3  2  1  0  0  0  0
  4  3  1  0  0  0  0
  4  5  1  0  0  0  0
  5 11  1  0  0  0  0
  5  6  1  0  0  0  0
  6  1  1  0  0  0  0
  6 14  1  0  0  0  0
  8  3  1  0  0  0  0
  9  3  1  0  0  0  0
 10  4  1  0  0  0  0
 12  5  1  0  0  0  0
 13  6  1  0  0  0  0
 15 16  1  0  0  0  0
 16  2  1  0  0  0  0
 16 17  2  0  0  0  0
 17 18  1  0  0  0  0
 19 17  1  0  0  0  0
 19 20  1  0  0  0  0
 20 21  1  0  0  0  0
 22 20  1  0  0  0  0
 23 25  1  0  0  0  0
 23 22  2  0  0  0  0
 24 23  1  0  0  0  0
 25 19  2  0  0  0  0
 26 15  2  0  0  0  0
 26 25  1  0  0  0  0
 27 32  1  0  0  0  0
 28 29  1  0  0  0  0
 28 27  2  0  0  0  0
 29 30  2  0  0  0  0
 30 31  1  0  0  0  0
 31 35  1  0  0  0  0
 32 31  2  0  0  0  0
 33 27  1  0  0  0  0
 34 29  1  0  0  0  0
M  END
>  <minimizedAffinity>
-4.64859581

>  <minimizedRMSD>
1.0761987

$$$$
