REMARK  Name = 
REMARK  4 active torsions:
REMARK  status: ('A' for Active; 'I' for Inactive)
REMARK    1  A    between atoms: C_3  and  C_10
REMARK    2  A    between atoms: C_4  and  C_15
REMARK    3  A    between atoms: C_14  and  S_20
REMARK    4  A    between atoms: S_20  and  C_34
REMARK                            x       y       z     vdW  Elec       q    Type
REMARK                         _______ _______ _______ _____ _____    ______ ____
ROOT
ATOM      1  C   UNL     1      47.786  31.871  38.987  0.00  0.00    +0.000 A 
ATOM      2  C   UNL     1      47.234  33.113  38.877  0.00  0.00    +0.000 A 
ATOM      3  C   UNL     1      47.774  34.030  37.989  0.00  0.00    +0.000 A 
ATOM      4  C   UNL     1      48.863  33.697  37.219  0.00  0.00    +0.000 A 
ATOM      5  C   UNL     1      49.457  32.439  37.301  0.00  0.00    +0.000 A 
ATOM      6  C   UNL     1      48.893  31.533  38.204  0.00  0.00    +0.000 A 
ATOM      7  H   UNL     1      47.364  35.010  37.880  0.00  0.00    +0.000 HD
ATOM      8  H   UNL     1      49.327  34.347  36.521  0.00  0.00    +0.000 HD
ATOM      9  H   UNL     1      50.295  32.115  36.740  0.00  0.00    +0.000 HD
ATOM     10  H   UNL     1      49.335  30.548  38.287  0.00  0.00    +0.000 HD
ENDROOT
BRANCH   2  14
ATOM     11 CL   UNL     1      45.277  35.281  43.133  0.00  0.00    +0.000 Cl
ATOM     12  C   UNL     1      45.156  34.529  41.563  0.00  0.00    +0.000 A 
ATOM     13  C   UNL     1      46.264  34.144  40.880  0.00  0.00    +0.000 A 
ATOM     14  C   UNL     1      46.076  33.560  39.638  0.00  0.00    +0.000 A 
ATOM     15  C   UNL     1      44.822  33.375  39.109  0.00  0.00    +0.000 A 
ATOM     16  C   UNL     1      43.722  33.764  39.802  0.00  0.00    +0.000 A 
ATOM     17  C   UNL     1      43.894  34.348  41.045  0.00  0.00    +0.000 A 
ATOM     18  H   UNL     1      44.741  32.915  38.132  0.00  0.00    +0.000 HD
ATOM     19  H   UNL     1      42.760  33.599  39.351  0.00  0.00    +0.000 HD
ATOM     20  H   UNL     1      42.996  34.645  41.571  0.00  0.00    +0.000 HD
BRANCH  13  23
ATOM     21  C   UNL     1      49.543  35.748  41.891  0.00  0.00    +0.000 A 
ATOM     22  C   UNL     1      48.283  35.546  41.319  0.00  0.00    +0.000 A 
ATOM     23  C   UNL     1      47.576  34.364  41.468  0.00  0.00    +0.000 A 
ATOM     24  N   UNL     1      48.217  33.450  42.205  0.00  0.00    +0.000 NA
ATOM     25  C   UNL     1      49.416  33.621  42.759  0.00  0.00    +0.000 A 
ATOM     26  N   UNL     1      50.075  34.761  42.604  0.00  0.00    +0.000 NA
ATOM     27  H   UNL     1      50.035  36.703  41.729  0.00  0.00    +0.000 HD
ATOM     28  H   UNL     1      47.828  36.352  40.727  0.00  0.00    +0.000 HD
ATOM     29  H   UNL     1      49.746  32.737  43.320  0.00  0.00    +0.000 HD
ENDBRANCH  13  23
ENDBRANCH   2  14
BRANCH   1  30
ATOM     30  S   UNL     1      47.188  30.721  40.066  0.00  0.00    +0.000 S 
ATOM     31  O   UNL     1      46.807  29.438  39.285  0.00  0.00    +0.000 OA
ATOM     32  O   UNL     1      48.383  30.270  40.908  0.00  0.00    +0.000 OA
BRANCH  30  34
ATOM     33  C   UNL     1      45.550  31.751  42.099  0.00  0.00    +0.000 A 
ATOM     34  C   UNL     1      45.787  30.899  41.030  0.00  0.00    +0.000 A 
ATOM     35  C   UNL     1      44.635  30.084  40.859  0.00  0.00    +0.000 A 
ATOM     36  H   UNL     1      44.695  29.350  40.031  0.00  0.00    +0.000 HD
ATOM     37  C   UNL     1      43.465  30.091  41.586  0.00  0.00    +0.000 A 
ATOM     38  N   UNL     1      42.339  29.372  41.502  0.00  0.00    +0.000 N 
ATOM     39  H   UNL     1      42.162  28.622  40.800  0.00  0.00    +0.000 HD
ATOM     40  N   UNL     1      41.554  29.814  42.461  0.00  0.00    +0.000 NA
ATOM     41  C   UNL     1      42.154  30.795  43.152  0.00  0.00    +0.000 A 
ATOM     42  H   UNL     1      41.751  31.353  44.001  0.00  0.00    +0.000 HD
ATOM     43  C   UNL     1      43.413  30.994  42.592  0.00  0.00    +0.000 A 
ATOM     44  C   UNL     1      44.440  31.858  42.895  0.00  0.00    +0.000 A 
ENDBRANCH  30  34
ENDBRANCH   1  30
TORSDOF 4
