REMARK  Name = 
REMARK  8 active torsions:
REMARK  status: ('A' for Active; 'I' for Inactive)
REMARK    1  A    between atoms: C_1  and  C_5
REMARK    2  A    between atoms: C_1  and  C_14
REMARK    3  A    between atoms: C_2  and  C_9
REMARK    4  A    between atoms: C_8  and  N_13
REMARK    5  A    between atoms: C_14  and  C_15
REMARK    6  A    between atoms: C_18  and  S_25
REMARK    7  A    between atoms: C_19  and  C_21
REMARK    8  A    between atoms: S_25  and  C_38
REMARK                            x       y       z     vdW  Elec       q    Type
REMARK                         _______ _______ _______ _____ _____    ______ ____
ROOT
ATOM      1  C   UNL     1      42.319  35.070  39.849  0.00  0.00    +0.000 A 
ATOM      2  C   UNL     1      41.984  35.330  38.551  0.00  0.00    +0.000 A 
ATOM      3  C   UNL     1      40.835  34.923  37.893  0.00  0.00    +0.000 A 
ATOM      4  C   UNL     1      39.968  34.184  38.658  0.00  0.00    +0.000 A 
ATOM      5  C   UNL     1      40.294  33.917  39.964  0.00  0.00    +0.000 A 
ATOM      6  N   UNL     1      41.413  34.328  40.560  0.00  0.00    +0.000 NA
ATOM      7  H   UNL     1      42.728  35.923  38.013  0.00  0.00    +0.000 HD
ATOM      8  H   UNL     1      40.667  35.179  36.876  0.00  0.00    +0.000 HD
ENDROOT
BRANCH   5   9
ATOM      9  C   UNL     1      39.280  33.109  40.693  0.00  0.00    +0.000 C 
ATOM     10  F   UNL     1      37.997  33.648  40.451  0.00  0.00    +0.000 F 
ATOM     11  F   UNL     1      39.543  32.974  42.027  0.00  0.00    +0.000 F 
ATOM     12  F   UNL     1      39.220  31.827  40.173  0.00  0.00    +0.000 F 
ENDBRANCH   5   9
BRANCH   1  13
ATOM     13  C   UNL     1      43.489  35.454  40.608  0.00  0.00    +0.000 C 
ATOM     14  H   UNL     1      44.379  34.902  40.234  0.00  0.00    +0.000 HD
ATOM     15  H   UNL     1      43.699  36.526  40.397  0.00  0.00    +0.000 HD
BRANCH  13  16
ATOM     16  C   UNL     1      43.423  35.265  42.090  0.00  0.00    +0.000 C 
ATOM     17  H   UNL     1      43.201  36.207  42.625  0.00  0.00    +0.000 HD
ATOM     18  H   UNL     1      42.577  34.574  42.297  0.00  0.00    +0.000 HD
BRANCH  16  22
ATOM     19  C   UNL     1      46.639  33.537  42.719  0.00  0.00    +0.000 A 
ATOM     20  C   UNL     1      46.757  33.787  44.047  0.00  0.00    +0.000 A 
ATOM     21  S   UNL     1      45.231  34.760  44.383  0.00  0.00    +0.000 S 
ATOM     22  C   UNL     1      44.679  34.656  42.610  0.00  0.00    +0.000 A 
ATOM     23  N   UNL     1      45.562  34.040  42.194  0.00  0.00    +0.000 NA
ATOM     24  H   UNL     1      47.549  33.481  44.698  0.00  0.00    +0.000 HD
BRANCH  19  27
ATOM     25  C   UNL     1      49.368  32.544  40.323  0.00  0.00    +0.000 A 
ATOM     26  C   UNL     1      48.458  33.349  41.031  0.00  0.00    +0.000 A 
ATOM     27  C   UNL     1      47.622  32.773  41.934  0.00  0.00    +0.000 A 
ATOM     28  N   UNL     1      47.732  31.384  42.097  0.00  0.00    +0.000 NA
ATOM     29  C   UNL     1      48.619  30.663  41.395  0.00  0.00    +0.000 A 
ATOM     30  N   UNL     1      49.436  31.236  40.511  0.00  0.00    +0.000 NA
ATOM     31  H   UNL     1      50.056  32.957  39.592  0.00  0.00    +0.000 HD
ATOM     32  H   UNL     1      48.543  29.617  41.668  0.00  0.00    +0.000 HD
BRANCH  26  33
ATOM     33  N   UNL     1      48.476  34.747  40.745  0.00  0.00    +0.000 N 
ATOM     34  H   UNL     1      47.838  34.801  39.913  0.00  0.00    +0.000 HD
ATOM     35  H   UNL     1      49.033  35.395  41.317  0.00  0.00    +0.000 HD
ENDBRANCH  26  33
ENDBRANCH  19  27
ENDBRANCH  16  22
ENDBRANCH  13  16
ENDBRANCH   1  13
BRANCH   4  36
ATOM     36  S   UNL     1      38.450  33.613  37.885  0.00  0.00    +0.000 S 
BRANCH  36  38
ATOM     37  C   UNL     1      39.780  31.324  37.509  0.00  0.00    +0.000 A 
ATOM     38  C   UNL     1      38.629  32.021  37.120  0.00  0.00    +0.000 A 
ATOM     39  C   UNL     1      37.769  31.430  36.210  0.00  0.00    +0.000 A 
ATOM     40  H   UNL     1      36.920  32.053  35.984  0.00  0.00    +0.000 HD
ATOM     41  C   UNL     1      38.035  30.178  35.693  0.00  0.00    +0.000 A 
ATOM     42  N   UNL     1      37.322  29.456  34.810  0.00  0.00    +0.000 N 
ATOM     43  H   UNL     1      36.420  29.760  34.369  0.00  0.00    +0.000 HD
ATOM     44  N   UNL     1      37.947  28.308  34.593  0.00  0.00    +0.000 NA
ATOM     45  C   UNL     1      39.078  28.295  35.350  0.00  0.00    +0.000 A 
ATOM     46  H   UNL     1      39.831  27.513  35.423  0.00  0.00    +0.000 HD
ATOM     47  C   UNL     1      39.160  29.465  36.056  0.00  0.00    +0.000 A 
ATOM     48  C   UNL     1      39.997  30.070  36.958  0.00  0.00    +0.000 A 
ENDBRANCH  36  38
ENDBRANCH   4  36
TORSDOF 8
