
 OpenBabel03242522213D

 48 52  0  0  0  0  0  0  0  0999 V2000
   37.9090   30.2950   40.9310 C   0  0  0  0  0  0  0  0  0  0  0  0
   38.8750   29.5680   40.2970 C   0  0  0  0  0  0  0  0  0  0  0  0
   39.3790   28.3380   40.6860 C   0  0  0  0  0  0  0  0  0  0  0  0
   38.8250   27.8300   41.8340 C   0  0  0  0  0  0  0  0  0  0  0  0
   37.8530   28.5510   42.4800 C   0  0  0  0  0  0  0  0  0  0  0  0
   37.3960   29.7340   42.0710 N   0  0  0  0  0  0  0  0  0  0  0  0
   39.2630   30.0440   39.3920 H   0  0  0  0  0  0  0  0  0  0  0  0
   40.1350   27.8520   40.1200 H   0  0  0  0  0  0  0  0  0  0  0  0
   37.3280   27.9010   43.7110 C   0  0  0  0  0  0  0  0  0  0  0  0
   38.4030   27.3370   44.4320 F   0  0  0  0  0  0  0  0  0  0  0  0
   36.3330   26.9960   43.4710 F   0  0  0  0  0  0  0  0  0  0  0  0
   36.7960   28.8500   44.5680 F   0  0  0  0  0  0  0  0  0  0  0  0
   37.3300   31.5770   40.5950 C   0  0  0  0  0  0  0  0  0  0  0  0
   36.2230   31.4900   40.5490 H   0  0  0  0  0  0  0  0  0  0  0  0
   37.5350   32.2780   41.4340 H   0  0  0  0  0  0  0  0  0  0  0  0
   37.7920   32.2120   39.3220 C   0  0  0  0  0  0  0  0  0  0  0  0
   38.0290   31.4650   38.5410 H   0  0  0  0  0  0  0  0  0  0  0  0
   36.9490   32.8230   38.9330 H   0  0  0  0  0  0  0  0  0  0  0  0
   41.0740   33.9020   39.6300 C   0  0  0  0  0  0  0  0  0  0  0  0
   40.6620   35.0610   40.2030 C   0  0  0  0  0  0  0  0  0  0  0  0
   38.8460   34.7920   40.3300 S   0  0  0  0  0  0  0  0  0  0  0  0
   38.9620   33.1020   39.5600 C   0  0  0  0  0  0  0  0  0  0  0  0
   40.1040   33.0720   39.3910 N   0  0  0  0  0  0  0  0  0  0  0  0
   41.2680   35.8940   40.4920 H   0  0  0  0  0  0  0  0  0  0  0  0
   44.3270   33.3460   37.8170 C   0  0  0  0  0  0  0  0  0  0  0  0
   42.9730   33.6530   38.0400 C   0  0  0  0  0  0  0  0  0  0  0  0
   42.4770   33.5980   39.3040 C   0  0  0  0  0  0  0  0  0  0  0  0
   43.3750   33.2300   40.3160 N   0  0  0  0  0  0  0  0  0  0  0  0
   44.6580   32.9470   40.0480 C   0  0  0  0  0  0  0  0  0  0  0  0
   45.1370   33.0040   38.8050 N   0  0  0  0  0  0  0  0  0  0  0  0
   44.7690   33.3770   36.8260 H   0  0  0  0  0  0  0  0  0  0  0  0
   45.1780   32.6870   40.9630 H   0  0  0  0  0  0  0  0  0  0  0  0
   42.1960   34.0100   36.8970 N   0  0  0  0  0  0  0  0  0  0  0  0
   41.8980   33.0680   36.5420 H   0  0  0  0  0  0  0  0  0  0  0  0
   42.0660   34.9960   36.6340 H   0  0  0  0  0  0  0  0  0  0  0  0
   39.4190   26.2370   42.4150 S   0  0  0  0  0  0  0  0  0  0  0  0
   41.4490   27.5480   43.5600 C   0  0  0  0  0  3  0  0  0  0  0  0
   41.0880   26.3080   43.0180 C   0  0  0  0  0  0  0  0  0  0  0  0
   42.0270   25.2900   43.0020 C   0  0  0  0  0  0  0  0  0  0  0  0
   41.6410   24.3840   42.5630 H   0  0  0  0  0  0  0  0  0  0  0  0
   43.2950   25.4860   43.5070 C   0  0  0  0  0  0  0  0  0  0  0  0
   44.3250   24.6230   43.5740 N   0  0  0  0  0  0  0  0  0  0  0  0
   44.3050   23.6320   43.2340 H   0  0  0  0  0  0  0  0  0  0  0  0
   45.3570   25.2340   44.1380 N   0  0  0  0  0  0  0  0  0  0  0  0
   44.9820   26.5070   44.4370 C   0  0  0  0  0  0  0  0  0  0  0  0
   45.5730   27.2920   44.9050 H   0  0  0  0  0  0  0  0  0  0  0  0
   43.6820   26.6950   44.0490 C   0  0  0  0  0  0  0  0  0  0  0  0
   42.7370   27.6890   44.0550 C   0  0  0  0  0  3  0  0  0  0  0  0
  1  6  1  0  0  0  0
  2  3  1  0  0  0  0
  2  1  2  0  0  0  0
  3  4  2  0  0  0  0
  4 36  1  0  0  0  0
  4  5  1  0  0  0  0
  5  9  1  0  0  0  0
  6  5  2  0  0  0  0
  7  2  1  0  0  0  0
  8  3  1  0  0  0  0
  9 10  1  0  0  0  0
  9 12  1  0  0  0  0
 11  9  1  0  0  0  0
 13  1  1  0  0  0  0
 13 15  1  0  0  0  0
 14 13  1  0  0  0  0
 16 22  1  0  0  0  0
 16 13  1  0  0  0  0
 17 16  1  0  0  0  0
 18 16  1  0  0  0  0
 19 20  2  0  0  0  0
 20 21  1  0  0  0  0
 20 24  1  0  0  0  0
 22 21  1  0  0  0  0
 23 22  2  0  0  0  0
 23 19  1  0  0  0  0
 25 26  2  0  0  0  0
 25 30  1  0  0  0  0
 26 27  1  0  0  0  0
 27 19  1  0  0  0  0
 27 28  2  0  0  0  0
 29 28  1  0  0  0  0
 29 32  1  0  0  0  0
 30 29  2  0  0  0  0
 31 25  1  0  0  0  0
 33 26  1  0  0  0  0
 34 33  1  0  0  0  0
 35 33  1  0  0  0  0
 36 38  1  0  0  0  0
 37 48  1  0  0  0  0
 38 37  2  0  0  0  0
 39 38  1  0  0  0  0
 39 41  2  0  0  0  0
 40 39  1  0  0  0  0
 41 42  1  0  0  0  0
 41 47  1  0  0  0  0
 42 44  1  0  0  0  0
 43 42  1  0  0  0  0
 44 45  2  0  0  0  0
 45 46  1  0  0  0  0
 47 48  2  0  0  0  0
 47 45  1  0  0  0  0
M  END
>  <minimizedAffinity>
-7.47477674

$$$$

 OpenBabel03242522213D

 48 52  0  0  0  0  0  0  0  0999 V2000
   38.1320   30.3090   40.9340 C   0  0  0  0  0  0  0  0  0  0  0  0
   38.9230   29.5150   40.1530 C   0  0  0  0  0  0  0  0  0  0  0  0
   39.2920   28.2050   40.4080 C   0  0  0  0  0  0  0  0  0  0  0  0
   38.7920   27.6860   41.5760 C   0  0  0  0  0  0  0  0  0  0  0  0
   37.9950   28.4740   42.3680 C   0  0  0  0  0  0  0  0  0  0  0  0
   37.6640   29.7340   42.0850 N   0  0  0  0  0  0  0  0  0  0  0  0
   39.2790   30.0050   39.2430 H   0  0  0  0  0  0  0  0  0  0  0  0
   39.9140   27.6710   39.7340 H   0  0  0  0  0  0  0  0  0  0  0  0
   37.5130   27.8050   43.6060 C   0  0  0  0  0  0  0  0  0  0  0  0
   38.6130   27.2300   44.2800 F   0  0  0  0  0  0  0  0  0  0  0  0
   36.5100   26.9030   43.3860 F   0  0  0  0  0  0  0  0  0  0  0  0
   37.0120   28.7400   44.4950 F   0  0  0  0  0  0  0  0  0  0  0  0
   37.7010   31.6770   40.7430 C   0  0  0  0  0  0  0  0  0  0  0  0
   36.5970   31.7440   40.8590 H   0  0  0  0  0  0  0  0  0  0  0  0
   38.1200   32.2880   41.5720 H   0  0  0  0  0  0  0  0  0  0  0  0
   38.0650   32.3230   39.4440 C   0  0  0  0  0  0  0  0  0  0  0  0
   38.3320   31.5840   38.6660 H   0  0  0  0  0  0  0  0  0  0  0  0
   37.1620   32.8590   39.0780 H   0  0  0  0  0  0  0  0  0  0  0  0
   41.2150   34.2630   39.6310 C   0  0  0  0  0  0  0  0  0  0  0  0
   40.7230   35.4150   40.1520 C   0  0  0  0  0  0  0  0  0  0  0  0
   38.9330   35.0200   40.3130 S   0  0  0  0  0  0  0  0  0  0  0  0
   39.1670   33.3080   39.6250 C   0  0  0  0  0  0  0  0  0  0  0  0
   40.3070   33.3530   39.4450 N   0  0  0  0  0  0  0  0  0  0  0  0
   41.2680   36.3040   40.3930 H   0  0  0  0  0  0  0  0  0  0  0  0
   44.4650   33.7360   37.8060 C   0  0  0  0  0  0  0  0  0  0  0  0
   43.0930   33.9430   38.0290 C   0  0  0  0  0  0  0  0  0  0  0  0
   42.6340   34.0470   39.3040 C   0  0  0  0  0  0  0  0  0  0  0  0
   43.5870   33.9370   40.3270 N   0  0  0  0  0  0  0  0  0  0  0  0
   44.8860   33.7400   40.0580 C   0  0  0  0  0  0  0  0  0  0  0  0
   45.3290   33.6400   38.8040 N   0  0  0  0  0  0  0  0  0  0  0  0
   44.8800   33.6470   36.8060 H   0  0  0  0  0  0  0  0  0  0  0  0
   45.4510   33.6840   40.9810 H   0  0  0  0  0  0  0  0  0  0  0  0
   42.2580   34.0310   36.8750 N   0  0  0  0  0  0  0  0  0  0  0  0
   42.0490   33.0200   36.6870 H   0  0  0  0  0  0  0  0  0  0  0  0
   42.0220   34.9430   36.4630 H   0  0  0  0  0  0  0  0  0  0  0  0
   39.2200   25.9900   41.9870 S   0  0  0  0  0  0  0  0  0  0  0  0
   37.0780   25.3310   40.5290 C   0  0  0  0  0  3  0  0  0  0  0  0
   38.2440   24.8030   41.0990 C   0  0  0  0  0  0  0  0  0  0  0  0
   38.5200   23.4570   40.9240 C   0  0  0  0  0  0  0  0  0  0  0  0
   39.4390   23.1620   41.4030 H   0  0  0  0  0  0  0  0  0  0  0  0
   37.6660   22.6460   40.2050 C   0  0  0  0  0  0  0  0  0  0  0  0
   37.7710   21.3320   39.9360 N   0  0  0  0  0  0  0  0  0  0  0  0
   38.5550   20.7110   40.2510 H   0  0  0  0  0  0  0  0  0  0  0  0
   36.7250   20.9610   39.2110 N   0  0  0  0  0  0  0  0  0  0  0  0
   35.9400   22.0540   39.0130 C   0  0  0  0  0  0  0  0  0  0  0  0
   35.0020   22.1200   38.4650 H   0  0  0  0  0  0  0  0  0  0  0  0
   36.5100   23.1350   39.6310 C   0  0  0  0  0  0  0  0  0  0  0  0
   36.2580   24.4700   39.8160 C   0  0  0  0  0  3  0  0  0  0  0  0
  1  6  1  0  0  0  0
  2  3  1  0  0  0  0
  2  1  2  0  0  0  0
  3  4  2  0  0  0  0
  4 36  1  0  0  0  0
  4  5  1  0  0  0  0
  5  9  1  0  0  0  0
  6  5  2  0  0  0  0
  7  2  1  0  0  0  0
  8  3  1  0  0  0  0
  9 10  1  0  0  0  0
  9 12  1  0  0  0  0
 11  9  1  0  0  0  0
 13 14  1  0  0  0  0
 13  1  1  0  0  0  0
 13 15  1  0  0  0  0
 16 22  1  0  0  0  0
 16 13  1  0  0  0  0
 17 16  1  0  0  0  0
 18 16  1  0  0  0  0
 19 20  2  0  0  0  0
 20 21  1  0  0  0  0
 20 24  1  0  0  0  0
 22 21  1  0  0  0  0
 23 22  2  0  0  0  0
 23 19  1  0  0  0  0
 25 26  2  0  0  0  0
 25 30  1  0  0  0  0
 26 27  1  0  0  0  0
 27 19  1  0  0  0  0
 27 28  2  0  0  0  0
 29 28  1  0  0  0  0
 29 32  1  0  0  0  0
 30 29  2  0  0  0  0
 31 25  1  0  0  0  0
 33 26  1  0  0  0  0
 34 33  1  0  0  0  0
 35 33  1  0  0  0  0
 37 38  1  0  0  0  0
 38 36  1  0  0  0  0
 39 38  2  0  0  0  0
 39 40  1  0  0  0  0
 41 39  1  0  0  0  0
 42 41  1  0  0  0  0
 42 43  1  0  0  0  0
 44 42  1  0  0  0  0
 45 44  2  0  0  0  0
 45 47  1  0  0  0  0
 46 45  1  0  0  0  0
 47 48  1  0  0  0  0
 47 41  2  0  0  0  0
 48 37  2  0  0  0  0
M  END
>  <minimizedAffinity>
-7.43502569

$$$$

 OpenBabel03242522213D

 48 52  0  0  0  0  0  0  0  0999 V2000
   36.8070   30.9500   40.4350 C   0  0  0  0  0  0  0  0  0  0  0  0
   35.8620   29.9990   40.1780 C   0  0  0  0  0  0  0  0  0  0  0  0
   35.7690   28.7430   40.7560 C   0  0  0  0  0  0  0  0  0  0  0  0
   36.7470   28.4630   41.6770 C   0  0  0  0  0  0  0  0  0  0  0  0
   37.7030   29.4120   41.9430 C   0  0  0  0  0  0  0  0  0  0  0  0
   37.7560   30.6110   41.3630 N   0  0  0  0  0  0  0  0  0  0  0  0
   35.1210   30.3020   39.4330 H   0  0  0  0  0  0  0  0  0  0  0  0
   34.9910   28.0730   40.4860 H   0  0  0  0  0  0  0  0  0  0  0  0
   38.7090   28.9960   42.9570 C   0  0  0  0  0  0  0  0  0  0  0  0
   39.6000   28.0700   42.3710 F   0  0  0  0  0  0  0  0  0  0  0  0
   38.1580   28.5250   44.1150 F   0  0  0  0  0  0  0  0  0  0  0  0
   39.5090   30.0700   43.3110 F   0  0  0  0  0  0  0  0  0  0  0  0
   36.9750   32.2760   39.8810 C   0  0  0  0  0  0  0  0  0  0  0  0
   36.0110   32.6310   39.4550 H   0  0  0  0  0  0  0  0  0  0  0  0
   37.2000   32.9730   40.7190 H   0  0  0  0  0  0  0  0  0  0  0  0
   38.0280   32.4390   38.8310 C   0  0  0  0  0  0  0  0  0  0  0  0
   38.4350   31.4700   38.4900 H   0  0  0  0  0  0  0  0  0  0  0  0
   37.5420   32.9100   37.9480 H   0  0  0  0  0  0  0  0  0  0  0  0
   41.1760   34.2150   39.6430 C   0  0  0  0  0  0  0  0  0  0  0  0
   40.6670   35.2030   40.4210 C   0  0  0  0  0  0  0  0  0  0  0  0
   38.8690   34.8090   40.3990 S   0  0  0  0  0  0  0  0  0  0  0  0
   39.1260   33.3270   39.3060 C   0  0  0  0  0  0  0  0  0  0  0  0
   40.2720   33.3980   39.1910 N   0  0  0  0  0  0  0  0  0  0  0  0
   41.2050   35.9910   40.9050 H   0  0  0  0  0  0  0  0  0  0  0  0
   44.4670   33.8370   37.8530 C   0  0  0  0  0  0  0  0  0  0  0  0
   43.0830   33.9770   38.0620 C   0  0  0  0  0  0  0  0  0  0  0  0
   42.6070   34.0660   39.3310 C   0  0  0  0  0  0  0  0  0  0  0  0
   43.5540   34.0110   40.3640 N   0  0  0  0  0  0  0  0  0  0  0  0
   44.8640   33.8760   40.1090 C   0  0  0  0  0  0  0  0  0  0  0  0
   45.3230   33.7890   38.8610 N   0  0  0  0  0  0  0  0  0  0  0  0
   44.8960   33.7620   36.8590 H   0  0  0  0  0  0  0  0  0  0  0  0
   45.4210   33.8540   41.0390 H   0  0  0  0  0  0  0  0  0  0  0  0
   42.2570   34.0170   36.8990 N   0  0  0  0  0  0  0  0  0  0  0  0
   42.1000   32.9950   36.7160 H   0  0  0  0  0  0  0  0  0  0  0  0
   41.9810   34.9140   36.4790 H   0  0  0  0  0  0  0  0  0  0  0  0
   36.7060   26.8550   42.4770 S   0  0  0  0  0  0  0  0  0  0  0  0
   38.0680   26.0320   40.3280 C   0  0  0  0  0  3  0  0  0  0  0  0
   37.3880   25.5680   41.4620 C   0  0  0  0  0  0  0  0  0  0  0  0
   37.3140   24.2030   41.6810 C   0  0  0  0  0  0  0  0  0  0  0  0
   36.7690   23.9610   42.5790 H   0  0  0  0  0  0  0  0  0  0  0  0
   37.8940   23.3110   40.8020 C   0  0  0  0  0  0  0  0  0  0  0  0
   37.9220   21.9670   40.8530 N   0  0  0  0  0  0  0  0  0  0  0  0
   37.4840   21.3810   41.6040 H   0  0  0  0  0  0  0  0  0  0  0  0
   38.5910   21.5150   39.8020 N   0  0  0  0  0  0  0  0  0  0  0  0
   38.9970   22.5860   39.0690 C   0  0  0  0  0  0  0  0  0  0  0  0
   39.5690   22.5900   38.1410 H   0  0  0  0  0  0  0  0  0  0  0  0
   38.5710   23.7350   39.6770 C   0  0  0  0  0  0  0  0  0  0  0  0
   38.6330   25.0920   39.4810 C   0  0  0  0  0  3  0  0  0  0  0  0
  1  6  1  0  0  0  0
  2  1  2  0  0  0  0
  2  3  1  0  0  0  0
  3  4  2  0  0  0  0
  4  5  1  0  0  0  0
  4 36  1  0  0  0  0
  5  9  1  0  0  0  0
  6  5  2  0  0  0  0
  7  2  1  0  0  0  0
  8  3  1  0  0  0  0
  9 12  1  0  0  0  0
  9 11  1  0  0  0  0
 10  9  1  0  0  0  0
 13  1  1  0  0  0  0
 13 15  1  0  0  0  0
 14 13  1  0  0  0  0
 16 22  1  0  0  0  0
 16 13  1  0  0  0  0
 17 16  1  0  0  0  0
 18 16  1  0  0  0  0
 19 20  2  0  0  0  0
 20 24  1  0  0  0  0
 21 20  1  0  0  0  0
 22 21  1  0  0  0  0
 23 22  2  0  0  0  0
 23 19  1  0  0  0  0
 25 26  2  0  0  0  0
 25 30  1  0  0  0  0
 26 27  1  0  0  0  0
 27 19  1  0  0  0  0
 27 28  2  0  0  0  0
 29 28  1  0  0  0  0
 29 32  1  0  0  0  0
 30 29  2  0  0  0  0
 31 25  1  0  0  0  0
 33 26  1  0  0  0  0
 34 33  1  0  0  0  0
 35 33  1  0  0  0  0
 37 38  1  0  0  0  0
 38 39  2  0  0  0  0
 38 36  1  0  0  0  0
 39 40  1  0  0  0  0
 41 42  1  0  0  0  0
 41 39  1  0  0  0  0
 42 43  1  0  0  0  0
 44 42  1  0  0  0  0
 45 47  1  0  0  0  0
 45 44  2  0  0  0  0
 46 45  1  0  0  0  0
 47 41  2  0  0  0  0
 48 47  1  0  0  0  0
 48 37  2  0  0  0  0
M  END
>  <minimizedAffinity>
-7.39877224

$$$$

 OpenBabel03242522213D

 48 52  0  0  0  0  0  0  0  0999 V2000
   36.0600   28.4650   39.1760 C   0  0  0  0  0  0  0  0  0  0  0  0
   36.1810   28.8430   40.4820 C   0  0  0  0  0  0  0  0  0  0  0  0
   36.6260   28.0610   41.5350 C   0  0  0  0  0  0  0  0  0  0  0  0
   36.9740   26.7790   41.1890 C   0  0  0  0  0  0  0  0  0  0  0  0
   36.8570   26.3880   39.8790 C   0  0  0  0  0  0  0  0  0  0  0  0
   36.4220   27.1740   38.8940 N   0  0  0  0  0  0  0  0  0  0  0  0
   35.8830   29.8780   40.6720 H   0  0  0  0  0  0  0  0  0  0  0  0
   36.6840   28.4510   42.5210 H   0  0  0  0  0  0  0  0  0  0  0  0
   37.2620   24.9800   39.6240 C   0  0  0  0  0  0  0  0  0  0  0  0
   36.3580   24.1130   40.2780 F   0  0  0  0  0  0  0  0  0  0  0  0
   38.5620   24.7160   39.9490 F   0  0  0  0  0  0  0  0  0  0  0  0
   37.1230   24.6740   38.2800 F   0  0  0  0  0  0  0  0  0  0  0  0
   35.6070   29.2130   38.0240 C   0  0  0  0  0  0  0  0  0  0  0  0
   34.8110   28.6450   37.4940 H   0  0  0  0  0  0  0  0  0  0  0  0
   35.1120   30.1400   38.3890 H   0  0  0  0  0  0  0  0  0  0  0  0
   36.6450   29.5940   37.0160 C   0  0  0  0  0  0  0  0  0  0  0  0
   36.9170   28.7510   36.3530 H   0  0  0  0  0  0  0  0  0  0  0  0
   36.2020   30.3800   36.3670 H   0  0  0  0  0  0  0  0  0  0  0  0
   39.2790   31.5510   38.7350 C   0  0  0  0  0  0  0  0  0  0  0  0
   40.2590   30.6140   38.7550 C   0  0  0  0  0  0  0  0  0  0  0  0
   39.4390   29.1940   37.9190 S   0  0  0  0  0  0  0  0  0  0  0  0
   37.8590   30.1460   37.6780 C   0  0  0  0  0  0  0  0  0  0  0  0
   38.1840   31.1390   38.1700 N   0  0  0  0  0  0  0  0  0  0  0  0
   41.2440   30.7120   39.1630 H   0  0  0  0  0  0  0  0  0  0  0  0
   38.6710   34.8120   40.5160 C   0  0  0  0  0  0  0  0  0  0  0  0
   38.4510   33.5140   40.0210 C   0  0  0  0  0  0  0  0  0  0  0  0
   39.4230   32.9060   39.2920 C   0  0  0  0  0  0  0  0  0  0  0  0
   40.6030   33.6350   39.0830 N   0  0  0  0  0  0  0  0  0  0  0  0
   40.7610   34.8710   39.5790 C   0  0  0  0  0  0  0  0  0  0  0  0
   39.8020   35.4610   40.2940 N   0  0  0  0  0  0  0  0  0  0  0  0
   37.9260   35.3390   41.1040 H   0  0  0  0  0  0  0  0  0  0  0  0
   41.7360   35.2570   39.3060 H   0  0  0  0  0  0  0  0  0  0  0  0
   37.1930   32.9130   40.3250 N   0  0  0  0  0  0  0  0  0  0  0  0
   36.5880   33.2840   39.5510 H   0  0  0  0  0  0  0  0  0  0  0  0
   37.0870   32.2960   41.1410 H   0  0  0  0  0  0  0  0  0  0  0  0
   37.5630   25.6920   42.4920 S   0  0  0  0  0  0  0  0  0  0  0  0
   39.5510   27.2880   43.3000 C   0  0  0  0  0  3  0  0  0  0  0  0
   39.2680   25.9760   42.9000 C   0  0  0  0  0  0  0  0  0  0  0  0
   40.3010   25.0540   42.8620 C   0  0  0  0  0  0  0  0  0  0  0  0
   39.9690   24.0800   42.5410 H   0  0  0  0  0  0  0  0  0  0  0  0
   41.5870   25.4160   43.2080 C   0  0  0  0  0  0  0  0  0  0  0  0
   42.7020   24.6640   43.2290 N   0  0  0  0  0  0  0  0  0  0  0  0
   42.7520   23.6480   42.9730 H   0  0  0  0  0  0  0  0  0  0  0  0
   43.7170   25.4180   43.6260 N   0  0  0  0  0  0  0  0  0  0  0  0
   43.2430   26.6710   43.8620 C   0  0  0  0  0  0  0  0  0  0  0  0
   43.7940   27.5480   44.1990 H   0  0  0  0  0  0  0  0  0  0  0  0
   41.8990   26.7000   43.6060 C   0  0  0  0  0  0  0  0  0  0  0  0
   40.8600   27.5950   43.6370 C   0  0  0  0  0  3  0  0  0  0  0  0
  1  2  1  0  0  0  0
  2  7  1  0  0  0  0
  2  3  2  0  0  0  0
  3  8  1  0  0  0  0
  4  3  1  0  0  0  0
  4 36  1  0  0  0  0
  5  4  2  0  0  0  0
  6  1  2  0  0  0  0
  6  5  1  0  0  0  0
  9  5  1  0  0  0  0
  9 11  1  0  0  0  0
  9 10  1  0  0  0  0
 12  9  1  0  0  0  0
 13 15  1  0  0  0  0
 13  1  1  0  0  0  0
 14 13  1  0  0  0  0
 16 22  1  0  0  0  0
 16 13  1  0  0  0  0
 17 16  1  0  0  0  0
 18 16  1  0  0  0  0
 19 20  2  0  0  0  0
 19 27  1  0  0  0  0
 20 24  1  0  0  0  0
 21 20  1  0  0  0  0
 22 21  1  0  0  0  0
 22 23  2  0  0  0  0
 23 19  1  0  0  0  0
 25 31  1  0  0  0  0
 26 33  1  0  0  0  0
 26 25  2  0  0  0  0
 27 26  1  0  0  0  0
 28 27  2  0  0  0  0
 28 29  1  0  0  0  0
 29 30  2  0  0  0  0
 30 25  1  0  0  0  0
 32 29  1  0  0  0  0
 33 35  1  0  0  0  0
 34 33  1  0  0  0  0
 36 38  1  0  0  0  0
 37 48  1  0  0  0  0
 38 37  2  0  0  0  0
 39 38  1  0  0  0  0
 39 41  2  0  0  0  0
 40 39  1  0  0  0  0
 41 42  1  0  0  0  0
 41 47  1  0  0  0  0
 42 44  1  0  0  0  0
 43 42  1  0  0  0  0
 44 45  2  0  0  0  0
 45 46  1  0  0  0  0
 47 48  2  0  0  0  0
 47 45  1  0  0  0  0
M  END
>  <minimizedAffinity>
-7.09262562

$$$$

 OpenBabel03242522213D

 48 52  0  0  0  0  0  0  0  0999 V2000
   38.0220   31.2790   41.0960 C   0  0  0  0  0  0  0  0  0  0  0  0
   39.1450   30.8970   41.7720 C   0  0  0  0  0  0  0  0  0  0  0  0
   39.3660   29.6780   42.3920 C   0  0  0  0  0  0  0  0  0  0  0  0
   38.3250   28.7890   42.2960 C   0  0  0  0  0  0  0  0  0  0  0  0
   37.1910   29.1630   41.6190 C   0  0  0  0  0  0  0  0  0  0  0  0
   37.0180   30.3490   41.0360 N   0  0  0  0  0  0  0  0  0  0  0  0
   39.9250   31.6620   41.8010 H   0  0  0  0  0  0  0  0  0  0  0  0
   40.2800   29.4770   42.8940 H   0  0  0  0  0  0  0  0  0  0  0  0
   36.1310   28.1200   41.5810 C   0  0  0  0  0  0  0  0  0  0  0  0
   35.9200   27.6270   42.8880 F   0  0  0  0  0  0  0  0  0  0  0  0
   36.3780   27.1200   40.6830 F   0  0  0  0  0  0  0  0  0  0  0  0
   34.9160   28.6790   41.2220 F   0  0  0  0  0  0  0  0  0  0  0  0
   37.7120   32.5230   40.4250 C   0  0  0  0  0  0  0  0  0  0  0  0
   36.6310   32.5510   40.1640 H   0  0  0  0  0  0  0  0  0  0  0  0
   37.8590   33.3520   41.1520 H   0  0  0  0  0  0  0  0  0  0  0  0
   38.4900   32.8320   39.1870 C   0  0  0  0  0  0  0  0  0  0  0  0
   38.7660   31.9210   38.6240 H   0  0  0  0  0  0  0  0  0  0  0  0
   37.8290   33.4290   38.5220 H   0  0  0  0  0  0  0  0  0  0  0  0
   41.8510   34.3330   39.6060 C   0  0  0  0  0  0  0  0  0  0  0  0
   41.5080   35.4180   40.3430 C   0  0  0  0  0  0  0  0  0  0  0  0
   39.6850   35.2080   40.4950 S   0  0  0  0  0  0  0  0  0  0  0  0
   39.7050   33.6350   39.5020 C   0  0  0  0  0  0  0  0  0  0  0  0
   40.8380   33.5820   39.2920 N   0  0  0  0  0  0  0  0  0  0  0  0
   42.1580   36.1800   40.7210 H   0  0  0  0  0  0  0  0  0  0  0  0
   44.9670   33.6950   37.5920 C   0  0  0  0  0  0  0  0  0  0  0  0
   43.6300   34.0060   37.8970 C   0  0  0  0  0  0  0  0  0  0  0  0
   43.2290   34.0190   39.1950 C   0  0  0  0  0  0  0  0  0  0  0  0
   44.2030   33.7140   40.1580 N   0  0  0  0  0  0  0  0  0  0  0  0
   45.4660   33.4240   39.8110 C   0  0  0  0  0  0  0  0  0  0  0  0
   45.8520   33.4140   38.5350 N   0  0  0  0  0  0  0  0  0  0  0  0
   45.3360   33.6730   36.5710 H   0  0  0  0  0  0  0  0  0  0  0  0
   46.0540   33.2190   40.6980 H   0  0  0  0  0  0  0  0  0  0  0  0
   42.7680   34.2930   36.7970 N   0  0  0  0  0  0  0  0  0  0  0  0
   42.4540   33.3310   36.5170 H   0  0  0  0  0  0  0  0  0  0  0  0
   42.6090   35.2620   36.4900 H   0  0  0  0  0  0  0  0  0  0  0  0
   38.5240   27.1810   43.0720 S   0  0  0  0  0  0  0  0  0  0  0  0
   37.9540   24.7350   42.1550 C   0  0  0  0  0  3  0  0  0  0  0  0
   38.7290   25.8720   41.8910 C   0  0  0  0  0  0  0  0  0  0  0  0
   39.5500   25.8730   40.7760 C   0  0  0  0  0  0  0  0  0  0  0  0
   40.0980   26.7950   40.6710 H   0  0  0  0  0  0  0  0  0  0  0  0
   39.6110   24.7780   39.9390 C   0  0  0  0  0  0  0  0  0  0  0  0
   40.3440   24.6020   38.8240 N   0  0  0  0  0  0  0  0  0  0  0  0
   41.0030   25.3080   38.4170 H   0  0  0  0  0  0  0  0  0  0  0  0
   40.0910   23.3970   38.3340 N   0  0  0  0  0  0  0  0  0  0  0  0
   39.1830   22.7930   39.1470 C   0  0  0  0  0  0  0  0  0  0  0  0
   38.7480   21.7990   39.0510 H   0  0  0  0  0  0  0  0  0  0  0  0
   38.8610   23.6430   40.1710 C   0  0  0  0  0  0  0  0  0  0  0  0
   38.0540   23.6640   41.2800 C   0  0  0  0  0  3  0  0  0  0  0  0
  1  2  1  0  0  0  0
  2  7  1  0  0  0  0
  2  3  2  0  0  0  0
  3  8  1  0  0  0  0
  4  3  1  0  0  0  0
  4 36  1  0  0  0  0
  5  4  2  0  0  0  0
  6  1  2  0  0  0  0
  6  5  1  0  0  0  0
  9  5  1  0  0  0  0
  9 10  1  0  0  0  0
 11  9  1  0  0  0  0
 12  9  1  0  0  0  0
 13  1  1  0  0  0  0
 13 15  1  0  0  0  0
 14 13  1  0  0  0  0
 16 22  1  0  0  0  0
 16 13  1  0  0  0  0
 17 16  1  0  0  0  0
 18 16  1  0  0  0  0
 19 20  2  0  0  0  0
 20 21  1  0  0  0  0
 20 24  1  0  0  0  0
 22 21  1  0  0  0  0
 23 22  2  0  0  0  0
 23 19  1  0  0  0  0
 25 26  2  0  0  0  0
 25 30  1  0  0  0  0
 26 27  1  0  0  0  0
 27 19  1  0  0  0  0
 27 28  2  0  0  0  0
 29 28  1  0  0  0  0
 29 32  1  0  0  0  0
 30 29  2  0  0  0  0
 31 25  1  0  0  0  0
 33 26  1  0  0  0  0
 34 33  1  0  0  0  0
 35 33  1  0  0  0  0
 38 37  1  0  0  0  0
 38 36  1  0  0  0  0
 39 38  2  0  0  0  0
 40 39  1  0  0  0  0
 41 47  2  0  0  0  0
 41 39  1  0  0  0  0
 42 41  1  0  0  0  0
 43 42  1  0  0  0  0
 44 42  1  0  0  0  0
 44 45  2  0  0  0  0
 45 47  1  0  0  0  0
 46 45  1  0  0  0  0
 47 48  1  0  0  0  0
 48 37  2  0  0  0  0
M  END
>  <minimizedAffinity>
-7.04642534

$$$$

 OpenBabel03242522213D

 48 52  0  0  0  0  0  0  0  0999 V2000
   36.8170   30.7890   40.0970 C   0  0  0  0  0  0  0  0  0  0  0  0
   35.9300   29.7670   39.9140 C   0  0  0  0  0  0  0  0  0  0  0  0
   35.8140   28.6220   40.6860 C   0  0  0  0  0  0  0  0  0  0  0  0
   36.6980   28.5450   41.7330 C   0  0  0  0  0  0  0  0  0  0  0  0
   37.5930   29.5670   41.9260 C   0  0  0  0  0  0  0  0  0  0  0  0
   37.6720   30.6530   41.1580 N   0  0  0  0  0  0  0  0  0  0  0  0
   35.2640   29.9070   39.0600 H   0  0  0  0  0  0  0  0  0  0  0  0
   35.0870   27.8820   40.4600 H   0  0  0  0  0  0  0  0  0  0  0  0
   38.4990   29.3730   43.0890 C   0  0  0  0  0  0  0  0  0  0  0  0
   39.4530   28.3800   42.7720 F   0  0  0  0  0  0  0  0  0  0  0  0
   37.8420   29.1070   44.2570 F   0  0  0  0  0  0  0  0  0  0  0  0
   39.2500   30.5150   43.3120 F   0  0  0  0  0  0  0  0  0  0  0  0
   37.0040   32.0100   39.3430 C   0  0  0  0  0  0  0  0  0  0  0  0
   36.0300   32.5330   39.2250 H   0  0  0  0  0  0  0  0  0  0  0  0
   37.6330   32.6970   39.9520 H   0  0  0  0  0  0  0  0  0  0  0  0
   37.6210   31.8780   37.9870 C   0  0  0  0  0  0  0  0  0  0  0  0
   37.0560   31.1870   37.3340 H   0  0  0  0  0  0  0  0  0  0  0  0
   37.5770   32.8790   37.5060 H   0  0  0  0  0  0  0  0  0  0  0  0
   41.2820   31.4930   38.4040 C   0  0  0  0  0  0  0  0  0  0  0  0
   41.3900   30.1740   38.1070 C   0  0  0  0  0  0  0  0  0  0  0  0
   39.6400   29.7210   37.7590 S   0  0  0  0  0  0  0  0  0  0  0  0
   39.0450   31.4530   38.0850 C   0  0  0  0  0  0  0  0  0  0  0  0
   40.0620   31.9360   38.3390 N   0  0  0  0  0  0  0  0  0  0  0  0
   42.2820   29.5820   38.0920 H   0  0  0  0  0  0  0  0  0  0  0  0
   43.9190   34.1790   38.4260 C   0  0  0  0  0  0  0  0  0  0  0  0
   42.8190   33.4090   38.0080 C   0  0  0  0  0  0  0  0  0  0  0  0
   42.4200   32.3530   38.7640 C   0  0  0  0  0  0  0  0  0  0  0  0
   43.1530   32.1040   39.9340 N   0  0  0  0  0  0  0  0  0  0  0  0
   44.1940   32.8720   40.2870 C   0  0  0  0  0  0  0  0  0  0  0  0
   44.5800   33.9060   39.5390 N   0  0  0  0  0  0  0  0  0  0  0  0
   44.2760   35.0320   37.8570 H   0  0  0  0  0  0  0  0  0  0  0  0
   44.6200   32.5130   41.2170 H   0  0  0  0  0  0  0  0  0  0  0  0
   42.1850   33.7980   36.7900 N   0  0  0  0  0  0  0  0  0  0  0  0
   42.7730   33.3010   36.0770 H   0  0  0  0  0  0  0  0  0  0  0  0
   41.3650   34.4190   36.7980 H   0  0  0  0  0  0  0  0  0  0  0  0
   36.6180   27.0930   42.7880 S   0  0  0  0  0  0  0  0  0  0  0  0
   38.4720   25.2260   42.3120 C   0  0  0  0  0  3  0  0  0  0  0  0
   37.1730   25.6190   41.9670 C   0  0  0  0  0  0  0  0  0  0  0  0
   36.4660   24.8550   41.0540 C   0  0  0  0  0  0  0  0  0  0  0  0
   35.4820   25.2500   40.8640 H   0  0  0  0  0  0  0  0  0  0  0  0
   37.0250   23.7270   40.4900 C   0  0  0  0  0  0  0  0  0  0  0  0
   36.4940   22.8730   39.5960 N   0  0  0  0  0  0  0  0  0  0  0  0
   35.5340   22.9510   39.1830 H   0  0  0  0  0  0  0  0  0  0  0  0
   37.3830   21.9270   39.3300 N   0  0  0  0  0  0  0  0  0  0  0  0
   38.4990   22.1780   40.0660 C   0  0  0  0  0  0  0  0  0  0  0  0
   39.4280   21.6100   40.0990 H   0  0  0  0  0  0  0  0  0  0  0  0
   38.3020   23.3110   40.8090 C   0  0  0  0  0  0  0  0  0  0  0  0
   38.9830   24.0830   41.7160 C   0  0  0  0  0  3  0  0  0  0  0  0
  1  6  1  0  0  0  0
  2  1  2  0  0  0  0
  2  3  1  0  0  0  0
  3  4  2  0  0  0  0
  4  5  1  0  0  0  0
  4 36  1  0  0  0  0
  5  9  1  0  0  0  0
  6  5  2  0  0  0  0
  7  2  1  0  0  0  0
  8  3  1  0  0  0  0
  9 12  1  0  0  0  0
  9 11  1  0  0  0  0
 10  9  1  0  0  0  0
 13 15  1  0  0  0  0
 13  1  1  0  0  0  0
 14 13  1  0  0  0  0
 16 22  1  0  0  0  0
 16 13  1  0  0  0  0
 17 16  1  0  0  0  0
 18 16  1  0  0  0  0
 19 27  1  0  0  0  0
 20 19  2  0  0  0  0
 21 22  1  0  0  0  0
 21 20  1  0  0  0  0
 22 23  2  0  0  0  0
 23 19  1  0  0  0  0
 24 20  1  0  0  0  0
 25 30  1  0  0  0  0
 26 25  2  0  0  0  0
 26 27  1  0  0  0  0
 27 28  2  0  0  0  0
 28 29  1  0  0  0  0
 29 32  1  0  0  0  0
 30 29  2  0  0  0  0
 31 25  1  0  0  0  0
 33 35  1  0  0  0  0
 33 26  1  0  0  0  0
 34 33  1  0  0  0  0
 38 37  1  0  0  0  0
 38 36  1  0  0  0  0
 39 38  2  0  0  0  0
 40 39  1  0  0  0  0
 41 47  2  0  0  0  0
 41 39  1  0  0  0  0
 42 41  1  0  0  0  0
 43 42  1  0  0  0  0
 44 42  1  0  0  0  0
 44 45  2  0  0  0  0
 45 46  1  0  0  0  0
 45 47  1  0  0  0  0
 47 48  1  0  0  0  0
 48 37  2  0  0  0  0
M  END
>  <minimizedAffinity>
-6.88033152

$$$$

 OpenBabel03242522213D

 48 52  0  0  0  0  0  0  0  0999 V2000
   36.7830   30.6580   40.0630 C   0  0  0  0  0  0  0  0  0  0  0  0
   35.9440   29.6000   39.8610 C   0  0  0  0  0  0  0  0  0  0  0  0
   35.8550   28.4530   40.6310 C   0  0  0  0  0  0  0  0  0  0  0  0
   36.7150   28.4120   41.7000 C   0  0  0  0  0  0  0  0  0  0  0  0
   37.5620   29.4700   41.9140 C   0  0  0  0  0  0  0  0  0  0  0  0
   37.6160   30.5580   41.1460 N   0  0  0  0  0  0  0  0  0  0  0  0
   35.2940   29.7130   38.9890 H   0  0  0  0  0  0  0  0  0  0  0  0
   35.1650   27.6820   40.3880 H   0  0  0  0  0  0  0  0  0  0  0  0
   38.4460   29.3130   43.1000 C   0  0  0  0  0  0  0  0  0  0  0  0
   39.3880   28.2920   42.8440 F   0  0  0  0  0  0  0  0  0  0  0  0
   37.7660   29.1110   44.2670 F   0  0  0  0  0  0  0  0  0  0  0  0
   39.2120   30.4520   43.2840 F   0  0  0  0  0  0  0  0  0  0  0  0
   36.9390   31.8850   39.3130 C   0  0  0  0  0  0  0  0  0  0  0  0
   35.9430   32.3450   39.1300 H   0  0  0  0  0  0  0  0  0  0  0  0
   37.4840   32.6130   39.9550 H   0  0  0  0  0  0  0  0  0  0  0  0
   37.6460   31.7870   37.9990 C   0  0  0  0  0  0  0  0  0  0  0  0
   37.4070   30.8500   37.4620 H   0  0  0  0  0  0  0  0  0  0  0  0
   37.2790   32.6220   37.3640 H   0  0  0  0  0  0  0  0  0  0  0  0
   41.3470   31.6920   37.8770 C   0  0  0  0  0  0  0  0  0  0  0  0
   41.6150   32.5250   38.9140 C   0  0  0  0  0  0  0  0  0  0  0  0
   39.9220   32.9770   39.4780 S   0  0  0  0  0  0  0  0  0  0  0  0
   39.1190   31.9260   38.1700 C   0  0  0  0  0  0  0  0  0  0  0  0
   40.0760   31.5220   37.6670 N   0  0  0  0  0  0  0  0  0  0  0  0
   42.5760   32.8200   39.2790 H   0  0  0  0  0  0  0  0  0  0  0  0
   43.2530   29.2580   35.7280 C   0  0  0  0  0  0  0  0  0  0  0  0
   42.2120   29.8120   36.4940 C   0  0  0  0  0  0  0  0  0  0  0  0
   42.3810   31.0360   37.0600 C   0  0  0  0  0  0  0  0  0  0  0  0
   43.6110   31.6710   36.8320 N   0  0  0  0  0  0  0  0  0  0  0  0
   44.5710   31.0960   36.0910 C   0  0  0  0  0  0  0  0  0  0  0  0
   44.3970   29.8950   35.5390 N   0  0  0  0  0  0  0  0  0  0  0  0
   43.1660   28.2840   35.2560 H   0  0  0  0  0  0  0  0  0  0  0  0
   45.4350   31.7470   36.0380 H   0  0  0  0  0  0  0  0  0  0  0  0
   41.0240   29.0330   36.6280 N   0  0  0  0  0  0  0  0  0  0  0  0
   41.2650   28.4190   37.4450 H   0  0  0  0  0  0  0  0  0  0  0  0
   40.2270   29.1730   35.9930 H   0  0  0  0  0  0  0  0  0  0  0  0
   36.6680   26.9580   42.7550 S   0  0  0  0  0  0  0  0  0  0  0  0
   38.5220   25.1130   42.2020 C   0  0  0  0  0  3  0  0  0  0  0  0
   37.2030   25.4870   41.9170 C   0  0  0  0  0  0  0  0  0  0  0  0
   36.4640   24.7070   41.0430 C   0  0  0  0  0  0  0  0  0  0  0  0
   35.4670   25.0880   40.8980 H   0  0  0  0  0  0  0  0  0  0  0  0
   37.0110   23.5830   40.4590 C   0  0  0  0  0  0  0  0  0  0  0  0
   36.4500   22.7170   39.5970 N   0  0  0  0  0  0  0  0  0  0  0  0
   35.4700   22.7790   39.2290 H   0  0  0  0  0  0  0  0  0  0  0  0
   37.3380   21.7810   39.2950 N   0  0  0  0  0  0  0  0  0  0  0  0
   38.4850   22.0520   39.9740 C   0  0  0  0  0  0  0  0  0  0  0  0
   39.4220   21.4970   39.9660 H   0  0  0  0  0  0  0  0  0  0  0  0
   38.3080   23.1870   40.7190 C   0  0  0  0  0  0  0  0  0  0  0  0
   39.0210   23.9740   41.5880 C   0  0  0  0  0  3  0  0  0  0  0  0
  1  6  1  0  0  0  0
  2  1  2  0  0  0  0
  2  3  1  0  0  0  0
  3  4  2  0  0  0  0
  4  5  1  0  0  0  0
  4 36  1  0  0  0  0
  5  9  1  0  0  0  0
  6  5  2  0  0  0  0
  7  2  1  0  0  0  0
  8  3  1  0  0  0  0
  9 12  1  0  0  0  0
  9 11  1  0  0  0  0
 10  9  1  0  0  0  0
 13 15  1  0  0  0  0
 13  1  1  0  0  0  0
 14 13  1  0  0  0  0
 16 22  1  0  0  0  0
 16 13  1  0  0  0  0
 17 16  1  0  0  0  0
 18 16  1  0  0  0  0
 19 20  2  0  0  0  0
 20 24  1  0  0  0  0
 20 21  1  0  0  0  0
 22 21  1  0  0  0  0
 23 19  1  0  0  0  0
 23 22  2  0  0  0  0
 25 26  1  0  0  0  0
 26 33  1  0  0  0  0
 26 27  2  0  0  0  0
 27 19  1  0  0  0  0
 28 27  1  0  0  0  0
 29 28  2  0  0  0  0
 30 25  2  0  0  0  0
 30 29  1  0  0  0  0
 31 25  1  0  0  0  0
 32 29  1  0  0  0  0
 33 34  1  0  0  0  0
 35 33  1  0  0  0  0
 38 37  1  0  0  0  0
 38 36  1  0  0  0  0
 39 38  2  0  0  0  0
 40 39  1  0  0  0  0
 41 47  2  0  0  0  0
 41 39  1  0  0  0  0
 42 41  1  0  0  0  0
 43 42  1  0  0  0  0
 44 42  1  0  0  0  0
 44 45  2  0  0  0  0
 45 47  1  0  0  0  0
 46 45  1  0  0  0  0
 47 48  1  0  0  0  0
 48 37  2  0  0  0  0
M  END
>  <minimizedAffinity>
-6.8458457

$$$$

 OpenBabel03242522213D

 48 52  0  0  0  0  0  0  0  0999 V2000
   36.6660   26.0870   38.9810 C   0  0  0  0  0  0  0  0  0  0  0  0
   35.6530   25.5290   38.2550 C   0  0  0  0  0  0  0  0  0  0  0  0
   34.9630   26.1160   37.2070 C   0  0  0  0  0  0  0  0  0  0  0  0
   35.3680   27.3900   36.8960 C   0  0  0  0  0  0  0  0  0  0  0  0
   36.3850   27.9600   37.6190 C   0  0  0  0  0  0  0  0  0  0  0  0
   37.0240   27.3600   38.6230 N   0  0  0  0  0  0  0  0  0  0  0  0
   35.3920   24.5150   38.5670 H   0  0  0  0  0  0  0  0  0  0  0  0
   34.1870   25.5950   36.7030 H   0  0  0  0  0  0  0  0  0  0  0  0
   36.7370   29.3410   37.1930 C   0  0  0  0  0  0  0  0  0  0  0  0
   35.7540   30.2370   37.6680 F   0  0  0  0  0  0  0  0  0  0  0  0
   36.9440   29.4630   35.8480 F   0  0  0  0  0  0  0  0  0  0  0  0
   37.9070   29.7530   37.8090 F   0  0  0  0  0  0  0  0  0  0  0  0
   37.4340   25.5480   40.0820 C   0  0  0  0  0  0  0  0  0  0  0  0
   37.4570   24.4380   40.0190 H   0  0  0  0  0  0  0  0  0  0  0  0
   38.4910   25.8710   39.9550 H   0  0  0  0  0  0  0  0  0  0  0  0
   36.9870   25.9180   41.4610 C   0  0  0  0  0  0  0  0  0  0  0  0
   35.8850   25.9200   41.5600 H   0  0  0  0  0  0  0  0  0  0  0  0
   37.3680   25.1350   42.1520 H   0  0  0  0  0  0  0  0  0  0  0  0
   38.1610   29.4100   41.8500 C   0  0  0  0  0  0  0  0  0  0  0  0
   38.6890   29.3180   43.0960 C   0  0  0  0  0  0  0  0  0  0  0  0
   38.3670   27.5540   43.5100 S   0  0  0  0  0  0  0  0  0  0  0  0
   37.5470   27.2360   41.8720 C   0  0  0  0  0  0  0  0  0  0  0  0
   37.6510   28.2940   41.4220 N   0  0  0  0  0  0  0  0  0  0  0  0
   39.1620   30.0940   43.6600 H   0  0  0  0  0  0  0  0  0  0  0  0
   37.1100   32.4950   39.9650 C   0  0  0  0  0  0  0  0  0  0  0  0
   37.0230   31.3250   40.7390 C   0  0  0  0  0  0  0  0  0  0  0  0
   38.1570   30.6430   41.0450 C   0  0  0  0  0  0  0  0  0  0  0  0
   39.3610   31.1700   40.5540 N   0  0  0  0  0  0  0  0  0  0  0  0
   39.3870   32.2920   39.8190 C   0  0  0  0  0  0  0  0  0  0  0  0
   38.2690   32.9550   39.5230 N   0  0  0  0  0  0  0  0  0  0  0  0
   36.2320   33.0740   39.6950 H   0  0  0  0  0  0  0  0  0  0  0  0
   40.4070   32.5270   39.5400 H   0  0  0  0  0  0  0  0  0  0  0  0
   35.7190   30.9250   41.1600 N   0  0  0  0  0  0  0  0  0  0  0  0
   35.3900   30.3710   40.3310 H   0  0  0  0  0  0  0  0  0  0  0  0
   35.3530   31.2030   42.0800 H   0  0  0  0  0  0  0  0  0  0  0  0
   34.5270   28.2290   35.5480 S   0  0  0  0  0  0  0  0  0  0  0  0
   32.4620   29.8620   35.0820 C   0  0  0  0  0  3  0  0  0  0  0  0
   33.0770   29.1020   36.0850 C   0  0  0  0  0  0  0  0  0  0  0  0
   32.5220   29.1010   37.3540 C   0  0  0  0  0  0  0  0  0  0  0  0
   33.0770   28.4850   38.0420 H   0  0  0  0  0  0  0  0  0  0  0  0
   31.3860   29.8320   37.6310 C   0  0  0  0  0  0  0  0  0  0  0  0
   30.7150   29.9490   38.7920 N   0  0  0  0  0  0  0  0  0  0  0  0
   30.9750   29.4770   39.6910 H   0  0  0  0  0  0  0  0  0  0  0  0
   29.6780   30.7530   38.6050 N   0  0  0  0  0  0  0  0  0  0  0  0
   29.6850   31.1560   37.3060 C   0  0  0  0  0  0  0  0  0  0  0  0
   28.9840   31.8200   36.8020 H   0  0  0  0  0  0  0  0  0  0  0  0
   30.7550   30.5900   36.6660 C   0  0  0  0  0  0  0  0  0  0  0  0
   31.3210   30.5760   35.4170 C   0  0  0  0  0  3  0  0  0  0  0  0
  1 13  1  0  0  0  0
  2  7  1  0  0  0  0
  2  1  2  0  0  0  0
  3  2  1  0  0  0  0
  4  3  2  0  0  0  0
  4  5  1  0  0  0  0
  5  6  2  0  0  0  0
  6  1  1  0  0  0  0
  8  3  1  0  0  0  0
  9  5  1  0  0  0  0
  9 10  1  0  0  0  0
  9 12  1  0  0  0  0
 11  9  1  0  0  0  0
 13 16  1  0  0  0  0
 14 13  1  0  0  0  0
 15 13  1  0  0  0  0
 16 17  1  0  0  0  0
 16 22  1  0  0  0  0
 16 18  1  0  0  0  0
 19 20  2  0  0  0  0
 20 21  1  0  0  0  0
 20 24  1  0  0  0  0
 22 21  1  0  0  0  0
 23 19  1  0  0  0  0
 23 22  2  0  0  0  0
 25 26  1  0  0  0  0
 26 27  2  0  0  0  0
 26 33  1  0  0  0  0
 27 19  1  0  0  0  0
 28 27  1  0  0  0  0
 29 28  2  0  0  0  0
 30 29  1  0  0  0  0
 30 25  2  0  0  0  0
 31 25  1  0  0  0  0
 32 29  1  0  0  0  0
 33 35  1  0  0  0  0
 34 33  1  0  0  0  0
 36 38  1  0  0  0  0
 36  4  1  0  0  0  0
 37 48  2  0  0  0  0
 37 38  1  0  0  0  0
 38 39  2  0  0  0  0
 39 41  1  0  0  0  0
 39 40  1  0  0  0  0
 41 42  1  0  0  0  0
 42 43  1  0  0  0  0
 44 42  1  0  0  0  0
 45 44  2  0  0  0  0
 46 45  1  0  0  0  0
 47 45  1  0  0  0  0
 47 41  2  0  0  0  0
 48 47  1  0  0  0  0
M  END
>  <minimizedAffinity>
-6.78545904

$$$$

 OpenBabel03242522213D

 48 52  0  0  0  0  0  0  0  0999 V2000
   37.1140   31.5580   40.1950 C   0  0  0  0  0  0  0  0  0  0  0  0
   36.0930   30.6820   39.9640 C   0  0  0  0  0  0  0  0  0  0  0  0
   35.8700   29.4780   40.6130 C   0  0  0  0  0  0  0  0  0  0  0  0
   36.7930   29.1700   41.5800 C   0  0  0  0  0  0  0  0  0  0  0  0
   37.8230   30.0430   41.8210 C   0  0  0  0  0  0  0  0  0  0  0  0
   38.0020   31.1940   41.1720 N   0  0  0  0  0  0  0  0  0  0  0  0
   35.4040   31.0030   39.1780 H   0  0  0  0  0  0  0  0  0  0  0  0
   35.0410   28.8650   40.3580 H   0  0  0  0  0  0  0  0  0  0  0  0
   38.7590   29.6030   42.8900 C   0  0  0  0  0  0  0  0  0  0  0  0
   39.5450   30.7030   43.3000 F   0  0  0  0  0  0  0  0  0  0  0  0
   39.5200   28.5230   42.5410 F   0  0  0  0  0  0  0  0  0  0  0  0
   38.0570   29.2380   44.0260 F   0  0  0  0  0  0  0  0  0  0  0  0
   37.4180   32.8260   39.5680 C   0  0  0  0  0  0  0  0  0  0  0  0
   37.6870   32.6650   38.5010 H   0  0  0  0  0  0  0  0  0  0  0  0
   36.4850   33.4320   39.5470 H   0  0  0  0  0  0  0  0  0  0  0  0
   38.5020   33.6450   40.1940 C   0  0  0  0  0  0  0  0  0  0  0  0
   38.2610   34.7240   40.2070 H   0  0  0  0  0  0  0  0  0  0  0  0
   38.5870   33.3240   41.2550 H   0  0  0  0  0  0  0  0  0  0  0  0
   41.4640   32.4570   38.3120 C   0  0  0  0  0  0  0  0  0  0  0  0
   42.2850   33.5180   38.5170 C   0  0  0  0  0  0  0  0  0  0  0  0
   41.2250   34.6190   39.5430 S   0  0  0  0  0  0  0  0  0  0  0  0
   39.8090   33.4130   39.5160 C   0  0  0  0  0  0  0  0  0  0  0  0
   40.3010   32.5890   38.8760 N   0  0  0  0  0  0  0  0  0  0  0  0
   43.2840   33.6450   38.1580 H   0  0  0  0  0  0  0  0  0  0  0  0
   41.6670   28.9670   36.9150 C   0  0  0  0  0  0  0  0  0  0  0  0
   41.2500   30.0530   37.7040 C   0  0  0  0  0  0  0  0  0  0  0  0
   41.8370   31.2660   37.5320 C   0  0  0  0  0  0  0  0  0  0  0  0
   42.8420   31.3460   36.5550 N   0  0  0  0  0  0  0  0  0  0  0  0
   43.2010   30.2770   35.8290 C   0  0  0  0  0  0  0  0  0  0  0  0
   42.6190   29.0900   36.0040 N   0  0  0  0  0  0  0  0  0  0  0  0
   41.2290   27.9790   37.0150 H   0  0  0  0  0  0  0  0  0  0  0  0
   43.9880   30.5490   35.1360 H   0  0  0  0  0  0  0  0  0  0  0  0
   40.2140   29.8010   38.6530 N   0  0  0  0  0  0  0  0  0  0  0  0
   40.7620   29.4460   39.4750 H   0  0  0  0  0  0  0  0  0  0  0  0
   39.2290   29.9790   38.4180 H   0  0  0  0  0  0  0  0  0  0  0  0
   36.5820   27.6250   42.4740 S   0  0  0  0  0  0  0  0  0  0  0  0
   36.9480   24.9930   42.1760 C   0  0  0  0  0  3  0  0  0  0  0  0
   37.2580   26.2340   41.6030 C   0  0  0  0  0  0  0  0  0  0  0  0
   38.0320   26.2610   40.4550 C   0  0  0  0  0  0  0  0  0  0  0  0
   38.2070   27.2650   40.1030 H   0  0  0  0  0  0  0  0  0  0  0  0
   38.4930   25.0940   39.8820 C   0  0  0  0  0  0  0  0  0  0  0  0
   39.2480   24.9310   38.7800 N   0  0  0  0  0  0  0  0  0  0  0  0
   39.6090   25.7060   38.1740 H   0  0  0  0  0  0  0  0  0  0  0  0
   39.4550   23.6350   38.5940 N   0  0  0  0  0  0  0  0  0  0  0  0
   38.8230   22.9600   39.5910 C   0  0  0  0  0  0  0  0  0  0  0  0
   38.7800   21.8840   39.7550 H   0  0  0  0  0  0  0  0  0  0  0  0
   38.2060   23.8570   40.4210 C   0  0  0  0  0  0  0  0  0  0  0  0
   37.4380   23.8530   41.5570 C   0  0  0  0  0  3  0  0  0  0  0  0
  1  6  1  0  0  0  0
  2  1  2  0  0  0  0
  2  3  1  0  0  0  0
  3  4  2  0  0  0  0
  4  5  1  0  0  0  0
  4 36  1  0  0  0  0
  5  9  1  0  0  0  0
  6  5  2  0  0  0  0
  7  2  1  0  0  0  0
  8  3  1  0  0  0  0
  9 10  1  0  0  0  0
  9 12  1  0  0  0  0
 11  9  1  0  0  0  0
 13 16  1  0  0  0  0
 13  1  1  0  0  0  0
 14 13  1  0  0  0  0
 15 13  1  0  0  0  0
 16 17  1  0  0  0  0
 16 18  1  0  0  0  0
 19 20  2  0  0  0  0
 19 23  1  0  0  0  0
 20 21  1  0  0  0  0
 22 21  1  0  0  0  0
 22 16  1  0  0  0  0
 23 22  2  0  0  0  0
 24 20  1  0  0  0  0
 25 31  1  0  0  0  0
 25 26  1  0  0  0  0
 26 33  1  0  0  0  0
 27 26  2  0  0  0  0
 27 19  1  0  0  0  0
 28 27  1  0  0  0  0
 29 30  1  0  0  0  0
 29 28  2  0  0  0  0
 30 25  2  0  0  0  0
 32 29  1  0  0  0  0
 33 34  1  0  0  0  0
 35 33  1  0  0  0  0
 38 37  1  0  0  0  0
 38 36  1  0  0  0  0
 39 38  2  0  0  0  0
 40 39  1  0  0  0  0
 41 47  2  0  0  0  0
 41 39  1  0  0  0  0
 42 41  1  0  0  0  0
 43 42  1  0  0  0  0
 44 42  1  0  0  0  0
 44 45  2  0  0  0  0
 45 46  1  0  0  0  0
 45 47  1  0  0  0  0
 47 48  1  0  0  0  0
 48 37  2  0  0  0  0
M  END
>  <minimizedAffinity>
-6.75188589

$$$$
