
 OpenBabel03252508313D

 35 38  0  0  1  0  0  0  0  0999 V2000
   44.2190   34.3150   41.9780 N   0  0  0  0  0  0  0  0  0  0  0  0
   44.1510   33.3580   40.9410 C   0  0  1  0  0  0  0  0  0  0  0  0
   43.4580   33.7930   39.7030 C   0  0  0  0  0  0  0  0  0  0  0  0
   42.3260   34.5970   39.8890 N   0  0  0  0  0  0  0  0  0  0  0  0
   42.3370   35.5040   40.9660 C   0  0  0  0  0  0  0  0  0  0  0  0
   43.6950   35.6010   41.6090 C   0  0  0  0  0  0  0  0  0  0  0  0
   43.5780   32.4780   41.3360 H   0  0  0  0  0  0  0  0  0  0  0  0
   43.1970   32.9090   39.0840 H   0  0  0  0  0  0  0  0  0  0  0  0
   44.2090   34.3930   39.1080 H   0  0  0  0  0  0  0  0  0  0  0  0
   41.7730   34.8050   39.0620 H   0  0  0  0  0  0  0  0  0  0  0  0
   41.6050   35.2520   41.7840 H   0  0  0  0  0  0  0  0  0  0  0  0
   42.0410   36.5130   40.6230 H   0  0  0  0  0  0  0  0  0  0  0  0
   44.4330   36.1170   40.9410 H   0  0  0  0  0  0  0  0  0  0  0  0
   43.5500   36.2810   42.4740 H   0  0  0  0  0  0  0  0  0  0  0  0
   45.4690   31.4170   40.3570 C   0  0  0  0  0  3  0  0  0  0  0  0
   45.4910   32.7920   40.5390 C   0  0  0  0  0  0  0  0  0  0  0  0
   46.6920   33.4370   40.3500 C   0  0  0  0  0  0  0  0  0  0  0  0
   46.6060   34.5160   40.5170 H   0  0  0  0  0  0  0  0  0  0  0  0
   47.8050   32.7500   39.9990 C   0  0  0  0  0  0  0  0  0  0  0  0
   49.0250   33.2510   39.7860 N   0  0  0  0  0  0  0  0  0  0  0  0
   49.3990   34.2370   39.8340 H   0  0  0  0  0  0  0  0  0  0  0  0
   49.8210   32.2540   39.4670 N   0  0  0  0  0  0  0  0  0  0  0  0
   49.1290   31.1170   39.4720 C   0  0  0  0  0  0  0  0  0  0  0  0
   49.4720   30.1010   39.2540 H   0  0  0  0  0  0  0  0  0  0  0  0
   47.8130   31.3840   39.8110 C   0  0  0  0  0  0  0  0  0  0  0  0
   46.6320   30.7250   39.9950 C   0  0  0  0  0  3  0  0  0  0  0  0
   44.8780   34.9750   44.1780 C   0  0  0  0  0  0  0  0  0  0  0  0
   44.7760   33.9410   43.2230 C   0  0  0  0  0  0  0  0  0  0  0  0
   45.2220   32.6800   43.5700 C   0  0  0  0  0  0  0  0  0  0  0  0
   45.7460   32.4480   44.8030 N   0  0  0  0  0  0  0  0  0  0  0  0
   45.8350   33.4650   45.7130 C   0  0  0  0  0  0  0  0  0  0  0  0
   45.4070   34.7040   45.3980 N   0  0  0  0  0  0  0  0  0  0  0  0
   44.5940   36.0110   44.1040 H   0  0  0  0  0  0  0  0  0  0  0  0
   45.1370   31.8960   42.8480 H   0  0  0  0  0  0  0  0  0  0  0  0
   46.2580   33.2550   46.6950 H   0  0  0  0  0  0  0  0  0  0  0  0
  1 28  1  0  0  0  0
  2  7  1  1  0  0  0
  2  1  1  0  0  0  0
  3  4  1  0  0  0  0
  3  2  1  0  0  0  0
  4  5  1  0  0  0  0
  5  6  1  0  0  0  0
  5 11  1  0  0  0  0
  6  1  1  0  0  0  0
  6 14  1  0  0  0  0
  8  3  1  0  0  0  0
  9  3  1  0  0  0  0
 10  4  1  0  0  0  0
 12  5  1  0  0  0  0
 13  6  1  0  0  0  0
 15 16  1  0  0  0  0
 16  2  1  0  0  0  0
 17 18  1  0  0  0  0
 17 16  2  0  0  0  0
 19 17  1  0  0  0  0
 20 21  1  0  0  0  0
 20 19  1  0  0  0  0
 22 23  2  0  0  0  0
 22 20  1  0  0  0  0
 23 25  1  0  0  0  0
 24 23  1  0  0  0  0
 25 26  1  0  0  0  0
 25 19  2  0  0  0  0
 26 15  2  0  0  0  0
 27 32  1  0  0  0  0
 28 29  1  0  0  0  0
 28 27  2  0  0  0  0
 29 30  2  0  0  0  0
 30 31  1  0  0  0  0
 31 35  1  0  0  0  0
 32 31  2  0  0  0  0
 33 27  1  0  0  0  0
 34 29  1  0  0  0  0
M  END
>  <minimizedAffinity>
-4.26776171

>  <minimizedRMSD>
0.717287302

$$$$
