
 OpenBabel03252508313D

 35 38  0  0  1  0  0  0  0  0999 V2000
   44.4010   34.2630   41.8390 N   0  0  0  0  0  0  0  0  0  0  0  0
   44.5050   33.1950   40.9190 C   0  0  1  0  0  0  0  0  0  0  0  0
   43.9780   33.4580   39.5570 C   0  0  0  0  0  0  0  0  0  0  0  0
   42.8060   34.2250   39.4960 N   0  0  0  0  0  0  0  0  0  0  0  0
   42.6410   35.2440   40.4530 C   0  0  0  0  0  0  0  0  0  0  0  0
   43.8930   35.4740   41.2570 C   0  0  0  0  0  0  0  0  0  0  0  0
   43.9100   32.3380   41.3330 H   0  0  0  0  0  0  0  0  0  0  0  0
   43.8310   32.5000   39.0160 H   0  0  0  0  0  0  0  0  0  0  0  0
   44.7840   34.0230   39.0040 H   0  0  0  0  0  0  0  0  0  0  0  0
   42.3660   34.3150   38.5850 H   0  0  0  0  0  0  0  0  0  0  0  0
   41.8100   35.0500   41.1890 H   0  0  0  0  0  0  0  0  0  0  0  0
   42.3640   36.1950   39.9590 H   0  0  0  0  0  0  0  0  0  0  0  0
   44.7000   35.9470   40.6390 H   0  0  0  0  0  0  0  0  0  0  0  0
   43.6090   36.2380   42.0100 H   0  0  0  0  0  0  0  0  0  0  0  0
   45.9410   31.2670   40.6520 C   0  0  0  0  0  3  0  0  0  0  0  0
   45.9040   32.6500   40.7680 C   0  0  0  0  0  0  0  0  0  0  0  0
   47.1070   33.3190   40.7450 C   0  0  0  0  0  0  0  0  0  0  0  0
   46.9720   34.4030   40.8440 H   0  0  0  0  0  0  0  0  0  0  0  0
   48.2750   32.6500   40.6140 C   0  0  0  0  0  0  0  0  0  0  0  0
   49.5040   33.1760   40.5780 N   0  0  0  0  0  0  0  0  0  0  0  0
   49.8440   34.1740   40.6380 H   0  0  0  0  0  0  0  0  0  0  0  0
   50.3620   32.1890   40.4420 N   0  0  0  0  0  0  0  0  0  0  0  0
   49.7030   31.0340   40.3880 C   0  0  0  0  0  0  0  0  0  0  0  0
   50.0980   30.0200   40.2800 H   0  0  0  0  0  0  0  0  0  0  0  0
   48.3430   31.2780   40.4970 C   0  0  0  0  0  0  0  0  0  0  0  0
   47.1630   30.5950   40.5170 C   0  0  0  0  0  3  0  0  0  0  0  0
   44.6740   35.1760   44.0290 C   0  0  0  0  0  0  0  0  0  0  0  0
   44.7910   34.0540   43.1810 C   0  0  0  0  0  0  0  0  0  0  0  0
   45.2700   32.8730   43.7170 C   0  0  0  0  0  0  0  0  0  0  0  0
   45.6200   32.8020   45.0290 N   0  0  0  0  0  0  0  0  0  0  0  0
   45.4980   33.9010   45.8320 C   0  0  0  0  0  0  0  0  0  0  0  0
   45.0330   35.0650   45.3330 N   0  0  0  0  0  0  0  0  0  0  0  0
   44.3300   36.1730   43.8090 H   0  0  0  0  0  0  0  0  0  0  0  0
   45.3520   32.0220   43.0750 H   0  0  0  0  0  0  0  0  0  0  0  0
   45.7850   33.8210   46.8800 H   0  0  0  0  0  0  0  0  0  0  0  0
  1 28  1  0  0  0  0
  2  7  1  1  0  0  0
  2  1  1  0  0  0  0
  3  2  1  0  0  0  0
  4  3  1  0  0  0  0
  4  5  1  0  0  0  0
  5 11  1  0  0  0  0
  5  6  1  0  0  0  0
  6  1  1  0  0  0  0
  6 14  1  0  0  0  0
  8  3  1  0  0  0  0
  9  3  1  0  0  0  0
 10  4  1  0  0  0  0
 12  5  1  0  0  0  0
 13  6  1  0  0  0  0
 15 16  1  0  0  0  0
 16  2  1  0  0  0  0
 17 16  2  0  0  0  0
 17 18  1  0  0  0  0
 19 17  1  0  0  0  0
 20 19  1  0  0  0  0
 20 21  1  0  0  0  0
 22 20  1  0  0  0  0
 23 22  2  0  0  0  0
 23 25  1  0  0  0  0
 24 23  1  0  0  0  0
 25 26  1  0  0  0  0
 25 19  2  0  0  0  0
 26 15  2  0  0  0  0
 27 32  1  0  0  0  0
 28 29  1  0  0  0  0
 28 27  2  0  0  0  0
 29 30  2  0  0  0  0
 30 31  1  0  0  0  0
 31 35  1  0  0  0  0
 32 31  2  0  0  0  0
 33 27  1  0  0  0  0
 34 29  1  0  0  0  0
M  END
>  <minimizedAffinity>
-4.35651302

>  <minimizedRMSD>
0.571669221

$$$$
