
 OpenBabel03242522203D

 48 52  0  0  0  0  0  0  0  0999 V2000
   42.2780   34.8590   39.8350 C   0  0  0  0  0  0  0  0  0  0  0  0
   41.8250   35.0260   38.5570 C   0  0  0  0  0  0  0  0  0  0  0  0
   40.6450   34.5360   38.0240 C   0  0  0  0  0  0  0  0  0  0  0  0
   39.8770   33.8120   38.9020 C   0  0  0  0  0  0  0  0  0  0  0  0
   40.3220   33.6380   40.1880 C   0  0  0  0  0  0  0  0  0  0  0  0
   41.4670   34.1280   40.6620 N   0  0  0  0  0  0  0  0  0  0  0  0
   42.4960   35.6140   37.9240 H   0  0  0  0  0  0  0  0  0  0  0  0
   40.3820   34.7220   37.0120 H   0  0  0  0  0  0  0  0  0  0  0  0
   39.4080   32.8380   41.0470 C   0  0  0  0  0  0  0  0  0  0  0  0
   38.0750   33.2400   40.8050 F   0  0  0  0  0  0  0  0  0  0  0  0
   39.7290   32.8770   42.3740 F   0  0  0  0  0  0  0  0  0  0  0  0
   39.4400   31.5050   40.6740 F   0  0  0  0  0  0  0  0  0  0  0  0
   43.4890   35.3340   40.4670 C   0  0  0  0  0  0  0  0  0  0  0  0
   44.3590   34.7430   40.1070 H   0  0  0  0  0  0  0  0  0  0  0  0
   43.6760   36.3730   40.1170 H   0  0  0  0  0  0  0  0  0  0  0  0
   43.5170   35.3250   41.9630 C   0  0  0  0  0  0  0  0  0  0  0  0
   43.3830   36.3350   42.3920 H   0  0  0  0  0  0  0  0  0  0  0  0
   42.6510   34.7160   42.3040 H   0  0  0  0  0  0  0  0  0  0  0  0
   46.7310   33.5830   42.5620 C   0  0  0  0  0  0  0  0  0  0  0  0
   46.8470   33.8070   43.8950 C   0  0  0  0  0  0  0  0  0  0  0  0
   45.3210   34.7740   44.2480 S   0  0  0  0  0  0  0  0  0  0  0  0
   44.7710   34.7050   42.4720 C   0  0  0  0  0  0  0  0  0  0  0  0
   45.6550   34.0970   42.0460 N   0  0  0  0  0  0  0  0  0  0  0  0
   47.6380   33.4880   44.5410 H   0  0  0  0  0  0  0  0  0  0  0  0
   49.3760   32.6140   40.0650 C   0  0  0  0  0  0  0  0  0  0  0  0
   48.4580   33.4040   40.7800 C   0  0  0  0  0  0  0  0  0  0  0  0
   47.7150   32.8340   41.7640 C   0  0  0  0  0  0  0  0  0  0  0  0
   47.9240   31.4670   42.0000 N   0  0  0  0  0  0  0  0  0  0  0  0
   48.8140   30.7600   41.2880 C   0  0  0  0  0  0  0  0  0  0  0  0
   49.5400   31.3270   40.3240 N   0  0  0  0  0  0  0  0  0  0  0  0
   49.9930   33.0230   39.2710 H   0  0  0  0  0  0  0  0  0  0  0  0
   48.8220   29.7300   41.6250 H   0  0  0  0  0  0  0  0  0  0  0  0
   48.3690   34.7800   40.4130 N   0  0  0  0  0  0  0  0  0  0  0  0
   47.6820   34.7430   39.6200 H   0  0  0  0  0  0  0  0  0  0  0  0
   48.9150   35.4950   40.9120 H   0  0  0  0  0  0  0  0  0  0  0  0
   38.3270   33.1370   38.2960 S   0  0  0  0  0  0  0  0  0  0  0  0
   39.5940   30.9290   37.4790 C   0  0  0  0  0  3  0  0  0  0  0  0
   38.5640   31.8140   37.1360 C   0  0  0  0  0  0  0  0  0  0  0  0
   37.8520   31.5870   35.9700 C   0  0  0  0  0  0  0  0  0  0  0  0
   37.0860   32.3270   35.8070 H   0  0  0  0  0  0  0  0  0  0  0  0
   38.1470   30.5100   35.1590 C   0  0  0  0  0  0  0  0  0  0  0  0
   37.5690   30.1370   34.0020 N   0  0  0  0  0  0  0  0  0  0  0  0
   36.7740   30.6360   33.5340 H   0  0  0  0  0  0  0  0  0  0  0  0
   38.1690   29.0420   33.5600 N   0  0  0  0  0  0  0  0  0  0  0  0
   39.1450   28.7090   34.4470 C   0  0  0  0  0  0  0  0  0  0  0  0
   39.8370   27.8680   34.4050 H   0  0  0  0  0  0  0  0  0  0  0  0
   39.1550   29.6200   35.4680 C   0  0  0  0  0  0  0  0  0  0  0  0
   39.8460   29.8650   36.6270 C   0  0  0  0  0  3  0  0  0  0  0  0
  1 13  1  0  0  0  0
  1  6  1  0  0  0  0
  2  1  2  0  0  0  0
  3  2  1  0  0  0  0
  3  4  2  0  0  0  0
  4  5  1  0  0  0  0
  5  6  2  0  0  0  0
  5  9  1  0  0  0  0
  7  2  1  0  0  0  0
  8  3  1  0  0  0  0
  9 11  1  0  0  0  0
 10  9  1  0  0  0  0
 12  9  1  0  0  0  0
 13 16  1  0  0  0  0
 14 13  1  0  0  0  0
 15 13  1  0  0  0  0
 16 18  1  0  0  0  0
 16 17  1  0  0  0  0
 16 22  1  0  0  0  0
 19 20  2  0  0  0  0
 20 21  1  0  0  0  0
 20 24  1  0  0  0  0
 22 21  1  0  0  0  0
 23 22  2  0  0  0  0
 23 19  1  0  0  0  0
 25 30  2  0  0  0  0
 25 26  1  0  0  0  0
 26 27  2  0  0  0  0
 27 28  1  0  0  0  0
 27 19  1  0  0  0  0
 29 32  1  0  0  0  0
 29 28  2  0  0  0  0
 30 29  1  0  0  0  0
 31 25  1  0  0  0  0
 33 26  1  0  0  0  0
 33 35  1  0  0  0  0
 34 33  1  0  0  0  0
 36  4  1  0  0  0  0
 38 37  1  0  0  0  0
 38 36  1  0  0  0  0
 39 38  2  0  0  0  0
 40 39  1  0  0  0  0
 41 47  2  0  0  0  0
 41 39  1  0  0  0  0
 42 41  1  0  0  0  0
 43 42  1  0  0  0  0
 44 42  1  0  0  0  0
 44 45  2  0  0  0  0
 45 47  1  0  0  0  0
 46 45  1  0  0  0  0
 47 48  1  0  0  0  0
 48 37  2  0  0  0  0
M  END
>  <minimizedAffinity>
-5.9637866

>  <minimizedRMSD>
0.447489589

$$$$
