
 OpenBabel03252509083D

 44 48  0  0  0  0  0  0  0  0999 V2000
   47.3680   31.7470   39.2490 C   0  0  0  0  0  0  0  0  0  0  0  0
   46.9480   33.0320   39.0760 C   0  0  0  0  0  0  0  0  0  0  0  0
   47.5900   33.8480   38.1560 C   0  0  0  0  0  0  0  0  0  0  0  0
   48.6470   33.3700   37.4190 C   0  0  0  0  0  0  0  0  0  0  0  0
   49.1070   32.0630   37.5660 C   0  0  0  0  0  0  0  0  0  0  0  0
   48.4430   31.2620   38.4990 C   0  0  0  0  0  0  0  0  0  0  0  0
   47.2840   34.8590   37.9980 H   0  0  0  0  0  0  0  0  0  0  0  0
   49.1830   33.9360   36.7000 H   0  0  0  0  0  0  0  0  0  0  0  0
   49.9130   31.6290   37.0330 H   0  0  0  0  0  0  0  0  0  0  0  0
   48.7800   30.2410   38.6330 H   0  0  0  0  0  0  0  0  0  0  0  0
   45.1900   35.6420   43.1670 Cl  0  0  0  0  0  0  0  0  0  0  0  0
   45.0030   34.8020   41.6490 C   0  0  0  0  0  0  0  0  0  0  0  0
   46.0730   34.2760   41.0000 C   0  0  0  0  0  0  0  0  0  0  0  0
   45.8340   33.6300   39.7980 C   0  0  0  0  0  0  0  0  0  0  0  0
   44.5690   33.5230   39.2740 C   0  0  0  0  0  0  0  0  0  0  0  0
   43.5080   34.0540   39.9320 C   0  0  0  0  0  0  0  0  0  0  0  0
   43.7300   34.7010   41.1360 C   0  0  0  0  0  0  0  0  0  0  0  0
   44.4480   33.0090   38.3290 H   0  0  0  0  0  0  0  0  0  0  0  0
   42.5350   33.9460   39.4870 H   0  0  0  0  0  0  0  0  0  0  0  0
   42.8620   35.1110   41.6350 H   0  0  0  0  0  0  0  0  0  0  0  0
   49.5020   35.6190   41.8830 C   0  0  0  0  0  0  0  0  0  0  0  0
   48.2300   35.4930   41.3170 C   0  0  0  0  0  0  0  0  0  0  0  0
   47.3990   34.4160   41.5810 C   0  0  0  0  0  0  0  0  0  0  0  0
   47.9340   33.5240   42.4220 N   0  0  0  0  0  0  0  0  0  0  0  0
   49.1430   33.6240   42.9720 C   0  0  0  0  0  0  0  0  0  0  0  0
   49.9220   34.6640   42.7060 N   0  0  0  0  0  0  0  0  0  0  0  0
   50.0950   36.4930   41.6270 H   0  0  0  0  0  0  0  0  0  0  0  0
   47.8670   36.2740   40.6350 H   0  0  0  0  0  0  0  0  0  0  0  0
   49.3730   32.7760   43.6300 H   0  0  0  0  0  0  0  0  0  0  0  0
   46.6420   30.7150   40.3680 S   0  0  0  0  0  0  0  0  0  0  0  0
   46.7330   29.2570   39.8520 O   0  0  0  0  0  0  0  0  0  0  0  0
   47.5620   30.7050   41.5910 O   0  0  0  0  0  0  0  0  0  0  0  0
   44.4280   31.1370   42.0400 C   0  0  0  0  0  3  0  0  0  0  0  0
   44.9980   30.7540   40.8340 C   0  0  0  0  0  0  0  0  0  0  0  0
   43.9520   30.3100   39.9800 C   0  0  0  0  0  0  0  0  0  0  0  0
   44.2750   29.9720   38.9760 H   0  0  0  0  0  0  0  0  0  0  0  0
   42.6010   30.2470   40.2410 C   0  0  0  0  0  0  0  0  0  0  0  0
   41.5520   29.8500   39.5110 N   0  0  0  0  0  0  0  0  0  0  0  0
   41.6090   29.4900   38.5340 H   0  0  0  0  0  0  0  0  0  0  0  0
   40.4940   30.0120   40.2760 N   0  0  0  0  0  0  0  0  0  0  0  0
   40.8450   30.5030   41.4760 C   0  0  0  0  0  0  0  0  0  0  0  0
   40.1880   30.7400   42.3150 H   0  0  0  0  0  0  0  0  0  0  0  0
   42.2280   30.6650   41.4730 C   0  0  0  0  0  0  0  0  0  0  0  0
   43.1120   31.1250   42.4230 C   0  0  0  0  0  3  0  0  0  0  0  0
  1 30  1  0  0  0  0
  2  1  1  0  0  0  0
  2 14  1  0  0  0  0
  3  2  2  0  0  0  0
  4  5  2  0  0  0  0
  4  3  1  0  0  0  0
  5  6  1  0  0  0  0
  6 10  1  0  0  0  0
  6  1  2  0  0  0  0
  7  3  1  0  0  0  0
  8  4  1  0  0  0  0
  9  5  1  0  0  0  0
 12 11  1  0  0  0  0
 13 23  1  0  0  0  0
 13 12  2  0  0  0  0
 14 13  1  0  0  0  0
 15 14  2  0  0  0  0
 15 16  1  0  0  0  0
 16 17  2  0  0  0  0
 17 20  1  0  0  0  0
 17 12  1  0  0  0  0
 18 15  1  0  0  0  0
 19 16  1  0  0  0  0
 21 26  1  0  0  0  0
 22 23  1  0  0  0  0
 22 21  2  0  0  0  0
 23 24  2  0  0  0  0
 24 25  1  0  0  0  0
 25 29  1  0  0  0  0
 26 25  2  0  0  0  0
 27 21  1  0  0  0  0
 28 22  1  0  0  0  0
 30 34  1  0  0  0  0
 30 32  2  0  0  0  0
 31 30  2  0  0  0  0
 33 44  1  0  0  0  0
 34 33  2  0  0  0  0
 35 37  2  0  0  0  0
 35 34  1  0  0  0  0
 36 35  1  0  0  0  0
 37 43  1  0  0  0  0
 38 37  1  0  0  0  0
 38 40  1  0  0  0  0
 39 38  1  0  0  0  0
 40 41  2  0  0  0  0
 41 42  1  0  0  0  0
 43 41  1  0  0  0  0
 43 44  2  0  0  0  0
M  END
>  <minimizedAffinity>
-4.96392441

>  <minimizedRMSD>
1.24075139

$$$$
