
 OpenBabel03252505243D

 46 50  0  0  1  0  0  0  0  0999 V2000
   46.5570   33.2370   44.6650 F   0  0  0  0  0  0  0  0  0  0  0  0
   47.2910   32.0890   44.5420 C   0  0  0  0  0  0  0  0  0  0  0  0
   48.1410   31.9860   43.4580 C   0  0  0  0  0  0  0  0  0  0  0  0
   48.8720   30.8280   43.3460 C   0  0  0  0  0  0  0  0  0  0  0  0
   48.7410   29.8300   44.2910 C   0  0  0  0  0  0  0  0  0  0  0  0
   47.8930   29.9420   45.3660 C   0  0  0  0  0  0  0  0  0  0  0  0
   47.1500   31.1240   45.4750 C   0  0  0  0  0  0  0  0  0  0  0  0
   49.5490   30.7290   42.4950 H   0  0  0  0  0  0  0  0  0  0  0  0
   49.3640   28.9550   44.1100 H   0  0  0  0  0  0  0  0  0  0  0  0
   47.8340   29.1380   46.0640 H   0  0  0  0  0  0  0  0  0  0  0  0
   46.2950   31.1780   46.6040 N   0  0  0  0  0  0  0  0  0  0  0  0
   45.1980   30.3630   47.0160 C   0  0  0  0  0  0  0  0  0  0  0  0
   45.5090   30.0600   48.4880 C   0  0  0  0  0  0  0  0  0  0  0  0
   46.4380   31.1620   48.8950 C   0  0  0  0  0  0  0  0  0  0  0  0
   46.2880   32.1280   47.7260 C   0  0  2  0  0  0  0  0  0  0  0  0
   45.3110   29.3740   46.4840 H   0  0  0  0  0  0  0  0  0  0  0  0
   44.1970   30.7370   46.8480 H   0  0  0  0  0  0  0  0  0  0  0  0
   45.9150   29.0440   48.6330 H   0  0  0  0  0  0  0  0  0  0  0  0
   44.5680   30.1720   49.0480 H   0  0  0  0  0  0  0  0  0  0  0  0
   46.2150   31.6280   49.8570 H   0  0  0  0  0  0  0  0  0  0  0  0
   47.5090   30.8420   48.8810 H   0  0  0  0  0  0  0  0  0  0  0  0
   47.2230   32.7280   47.6150 H   0  0  0  0  0  0  0  0  0  0  0  0
   45.1120   33.0060   47.7900 C   0  0  0  0  0  0  0  0  0  0  0  0
   44.2400   32.7490   47.1800 H   0  0  0  0  0  0  0  0  0  0  0  0
   44.7490   33.1620   48.8460 H   0  0  0  0  0  0  0  0  0  0  0  0
   45.3940   34.0430   47.4610 H   0  0  0  0  0  0  0  0  0  0  0  0
   48.6740   35.2880   41.9720 C   0  0  0  0  0  0  0  0  0  0  0  0
   48.4090   35.0550   40.6010 C   0  0  0  0  0  0  0  0  0  0  0  0
   48.0550   33.7600   40.2440 C   0  0  0  0  0  0  0  0  0  0  0  0
   47.9860   32.8220   41.2060 N   0  0  0  0  0  0  0  0  0  0  0  0
   48.2410   33.0650   42.4920 C   0  0  0  0  0  0  0  0  0  0  0  0
   48.5840   34.2870   42.8860 N   0  0  0  0  0  0  0  0  0  0  0  0
   48.9460   36.3050   42.2150 H   0  0  0  0  0  0  0  0  0  0  0  0
   48.4710   35.8160   39.8630 H   0  0  0  0  0  0  0  0  0  0  0  0
   46.4530   33.0400   38.5580 C   0  0  0  0  0  0  0  0  0  0  0  0
   47.7520   33.3680   38.8750 C   0  0  0  0  0  0  0  0  0  0  0  0
   48.6860   33.3040   37.8670 C   0  0  0  0  0  0  0  0  0  0  0  0
   49.7100   33.5530   38.0760 H   0  0  0  0  0  0  0  0  0  0  0  0
   48.4010   32.9320   36.5680 C   0  0  0  0  0  0  0  0  0  0  0  0
   49.1180   32.7970   35.4390 N   0  0  0  0  0  0  0  0  0  0  0  0
   50.1440   32.9830   35.3910 H   0  0  0  0  0  0  0  0  0  0  0  0
   48.2870   32.3990   34.4690 N   0  0  0  0  0  0  0  0  0  0  0  0
   47.0290   32.2760   34.9610 C   0  0  0  0  0  0  0  0  0  0  0  0
   46.1310   31.9750   34.4380 H   0  0  0  0  0  0  0  0  0  0  0  0
   47.0680   32.6090   36.3000 C   0  0  0  0  0  0  0  0  0  0  0  0
   46.0730   32.6530   37.2730 C   0  0  0  0  0  0  0  0  0  0  0  0
  2  1  1  0  0  0  0
  2  7  1  0  0  0  0
  3  2  2  0  0  0  0
  4  3  1  0  0  0  0
  4  5  2  0  0  0  0
  5  6  1  0  0  0  0
  6  7  2  0  0  0  0
  6 10  1  0  0  0  0
  7 11  1  0  0  0  0
  8  4  1  0  0  0  0
  9  5  1  0  0  0  0
 11 12  1  0  0  0  0
 11 15  1  0  0  0  0
 12 13  1  0  0  0  0
 13 18  1  0  0  0  0
 13 14  1  0  0  0  0
 13 19  1  0  0  0  0
 14 20  1  0  0  0  0
 15 22  1  6  0  0  0
 15 23  1  0  0  0  0
 15 14  1  0  0  0  0
 16 12  1  0  0  0  0
 17 12  1  0  0  0  0
 21 14  1  0  0  0  0
 23 25  1  0  0  0  0
 24 23  1  0  0  0  0
 26 23  1  0  0  0  0
 27 33  1  0  0  0  0
 27 32  1  0  0  0  0
 28 27  2  0  0  0  0
 29 28  1  0  0  0  0
 29 30  2  0  0  0  0
 30 31  1  0  0  0  0
 31 32  2  0  0  0  0
 31  3  1  0  0  0  0
 34 28  1  0  0  0  0
 35 36  1  0  0  0  0
 36 29  1  0  0  0  0
 37 38  1  0  0  0  0
 37 36  2  0  0  0  0
 39 37  1  0  0  0  0
 40 39  1  0  0  0  0
 41 40  1  0  0  0  0
 42 43  2  0  0  0  0
 42 40  1  0  0  0  0
 43 45  1  0  0  0  0
 44 43  1  0  0  0  0
 45 39  2  0  0  0  0
 45 46  1  0  0  0  0
 46 35  2  0  0  0  0
M  END
>  <minimizedAffinity>
-6.25111055

>  <minimizedRMSD>
1.76752043

$$$$
