REMARK  Name = 
REMARK  9 active torsions:
REMARK  status: ('A' for Active; 'I' for Inactive)
REMARK    1  A    between atoms: O_1  and  C_2
REMARK    2  A    between atoms: O_1  and  P_10
REMARK    3  A    between atoms: C_6  and  C_7
REMARK    4  A    between atoms: C_7  and  O_8
REMARK    5  A    between atoms: P_10  and  O_11
REMARK    6  A    between atoms: P_10  and  O_12
REMARK    7  A    between atoms: O_12  and  C_13
REMARK    8  A    between atoms: C_13  and  C_16
REMARK    9  A    between atoms: C_18  and  C_37
REMARK                            x       y       z     vdW  Elec       q    Type
REMARK                         _______ _______ _______ _____ _____    ______ ____
ROOT
ATOM      1  O   UNL     1      46.477  33.495  45.605  0.00  0.00    +0.000 OA
ENDROOT
BRANCH   1   2
ATOM      2  C   UNL     1      46.242  32.154  45.571  0.00  0.00    +0.000 C 
ATOM      3  H   UNL     1      47.225  31.670  45.305  0.00  0.00    +0.000 HD
ATOM      4  H   UNL     1      45.532  31.775  44.842  0.00  0.00    +0.000 HD
BRANCH   2   7
ATOM      5  C   UNL     1      45.639  31.913  49.241  0.00  0.00    +0.000 A 
ATOM      6  C   UNL     1      45.978  32.459  47.996  0.00  0.00    +0.000 A 
ATOM      7  C   UNL     1      45.888  31.606  46.892  0.00  0.00    +0.000 A 
ATOM      8  N   UNL     1      45.482  30.308  47.075  0.00  0.00    +0.000 NA
ATOM      9  C   UNL     1      45.162  29.813  48.288  0.00  0.00    +0.000 A 
ATOM     10  N   UNL     1      45.241  30.611  49.353  0.00  0.00    +0.000 NA
ATOM     11  H   UNL     1      45.673  32.476  50.145  0.00  0.00    +0.000 HD
ATOM     12  H   UNL     1      46.289  33.493  47.939  0.00  0.00    +0.000 HD
BRANCH   9  14
ATOM     13  C   UNL     1      45.593  27.479  48.931  0.00  0.00    +0.000 A 
ATOM     14  C   UNL     1      44.737  28.423  48.411  0.00  0.00    +0.000 A 
ATOM     15  C   UNL     1      43.449  28.080  47.990  0.00  0.00    +0.000 A 
ATOM     16  H   UNL     1      42.738  28.782  47.575  0.00  0.00    +0.000 HD
ATOM     17  C   UNL     1      43.071  26.746  48.119  0.00  0.00    +0.000 A 
ATOM     18  N   UNL     1      41.958  26.039  47.840  0.00  0.00    +0.000 N 
ATOM     19  H   UNL     1      41.127  26.530  47.422  0.00  0.00    +0.000 HD
ATOM     20  N   UNL     1      42.118  24.763  48.162  0.00  0.00    +0.000 NA
ATOM     21  C   UNL     1      43.347  24.556  48.673  0.00  0.00    +0.000 A 
ATOM     22  H   UNL     1      43.750  23.635  49.015  0.00  0.00    +0.000 HD
ATOM     23  C   UNL     1      43.947  25.803  48.646  0.00  0.00    +0.000 A 
ATOM     24  C   UNL     1      45.225  26.157  49.061  0.00  0.00    +0.000 A 
ENDBRANCH   9  14
ENDBRANCH   2   7
ENDBRANCH   1   2
BRANCH   1  26
ATOM     25  O   UNL     1      44.724  35.346  44.992  0.00  0.00    +0.000 OA
ATOM     26  P   UNL     1      45.579  34.237  44.411  0.00  0.00    +0.000 P 
BRANCH  26  27
ATOM     27  O   UNL     1      44.610  33.034  43.716  0.00  0.00    +0.000 OA
ATOM     28  H   UNL     1      43.727  33.449  43.535  0.00  0.00    +0.000 HD
ENDBRANCH  26  27
BRANCH  26  29
ATOM     29  O   UNL     1      46.576  34.908  43.251  0.00  0.00    +0.000 OA
BRANCH  29  30
ATOM     30  C   UNL     1      46.803  33.975  42.228  0.00  0.00    +0.000 C 
ATOM     31  C   UNL     1      46.075  34.422  40.956  0.00  0.00    +0.000 C 
ATOM     32  C   UNL     1      46.679  33.483  39.946  0.00  0.00    +0.000 C 
ATOM     33  C   UNL     1      48.067  33.144  40.467  0.00  0.00    +0.000 C 
ATOM     34  C   UNL     1      48.218  33.957  41.743  0.00  0.00    +0.000 C 
ATOM     35  H   UNL     1      46.441  32.975  42.454  0.00  0.00    +0.000 HD
ATOM     36  H   UNL     1      44.987  34.203  41.122  0.00  0.00    +0.000 HD
ATOM     37  H   UNL     1      46.175  35.480  40.738  0.00  0.00    +0.000 HD
ATOM     38  H   UNL     1      46.025  32.591  39.894  0.00  0.00    +0.000 HD
ATOM     39  H   UNL     1      46.832  33.969  38.959  0.00  0.00    +0.000 HD
ATOM     40  H   UNL     1      48.870  33.396  39.752  0.00  0.00    +0.000 HD
ATOM     41  H   UNL     1      48.158  32.051  40.664  0.00  0.00    +0.000 HD
ATOM     42  H   UNL     1      48.868  33.398  42.457  0.00  0.00    +0.000 HD
BRANCH  34  43
ATOM     43  C   UNL     1      48.764  35.328  41.463  0.00  0.00    +0.000 C 
ATOM     44  H   UNL     1      49.305  35.290  40.485  0.00  0.00    +0.000 HD
ATOM     45  H   UNL     1      48.011  36.119  41.355  0.00  0.00    +0.000 HD
BRANCH  43  46
ATOM     46  O   UNL     1      49.659  35.753  42.421  0.00  0.00    +0.000 OA
ATOM     47  H   UNL     1      50.321  35.025  42.564  0.00  0.00    +0.000 HD
ENDBRANCH  43  46
ENDBRANCH  34  43
ENDBRANCH  29  30
ENDBRANCH  26  29
ENDBRANCH   1  26
TORSDOF 9
