
 OpenBabel03252509123D

 35 39  0  0  0  0  0  0  0  0999 V2000
   47.7030   31.0990   44.8490 C   0  0  0  0  0  0  0  0  0  0  0  0
   47.3810   32.1810   44.0410 C   0  0  0  0  0  0  0  0  0  0  0  0
   46.5430   33.1840   44.4530 C   0  0  0  0  0  0  0  0  0  0  0  0
   45.9730   33.1480   45.7300 C   0  0  0  0  0  0  0  0  0  0  0  0
   45.1350   33.9340   46.4450 N   0  0  0  0  0  0  0  0  0  0  0  0
   44.9340   33.3660   47.6660 C   0  0  0  0  0  0  0  0  0  0  0  0
   45.6600   32.2370   47.6690 N   0  0  0  0  0  0  0  0  0  0  0  0
   46.3080   32.0660   46.5110 C   0  0  0  0  0  0  0  0  0  0  0  0
   47.1430   31.0440   46.1320 C   0  0  0  0  0  0  0  0  0  0  0  0
   48.3690   30.3040   44.5160 H   0  0  0  0  0  0  0  0  0  0  0  0
   44.7780   34.8100   45.9980 H   0  0  0  0  0  0  0  0  0  0  0  0
   44.2860   33.8970   48.3230 H   0  0  0  0  0  0  0  0  0  0  0  0
   47.3680   30.2130   46.7990 H   0  0  0  0  0  0  0  0  0  0  0  0
   47.7890   31.8000   40.4130 C   0  0  0  0  0  0  0  0  0  0  0  0
   49.0290   32.4030   40.1790 C   0  0  0  0  0  0  0  0  0  0  0  0
   49.7150   32.9370   41.2720 C   0  0  0  0  0  0  0  0  0  0  0  0
   49.1480   32.8460   42.5160 N   0  0  0  0  0  0  0  0  0  0  0  0
   47.9530   32.2580   42.7020 C   0  0  0  0  0  0  0  0  0  0  0  0
   47.2750   31.7370   41.6620 N   0  0  0  0  0  0  0  0  0  0  0  0
   47.2810   31.3950   39.5470 H   0  0  0  0  0  0  0  0  0  0  0  0
   49.5230   32.5060   39.2380 H   0  0  0  0  0  0  0  0  0  0  0  0
   50.6740   33.4310   41.2530 H   0  0  0  0  0  0  0  0  0  0  0  0
   46.1320   34.5800   43.4110 S   0  0  0  0  0  0  0  0  0  0  0  0
   44.1350   33.1340   42.0890 C   0  0  0  0  0  3  0  0  0  0  0  0
   44.5730   34.3440   42.5850 C   0  0  0  0  0  0  0  0  0  0  0  0
   43.7690   35.4560   42.4440 C   0  0  0  0  0  0  0  0  0  0  0  0
   44.0780   36.4210   42.8200 H   0  0  0  0  0  0  0  0  0  0  0  0
   42.5590   35.2820   41.8050 C   0  0  0  0  0  0  0  0  0  0  0  0
   41.5940   36.2040   41.5410 N   0  0  0  0  0  0  0  0  0  0  0  0
   41.5270   37.2330   41.7450 H   0  0  0  0  0  0  0  0  0  0  0  0
   40.5790   35.6210   40.9050 N   0  0  0  0  0  0  0  0  0  0  0  0
   40.8740   34.3170   40.7490 C   0  0  0  0  0  0  0  0  0  0  0  0
   40.2710   33.5620   40.2760 H   0  0  0  0  0  0  0  0  0  0  0  0
   42.1280   34.0580   41.3090 C   0  0  0  0  0  0  0  0  0  0  0  0
   42.9280   32.9430   41.4480 C   0  0  0  0  0  3  0  0  0  0  0  0
  1  9  1  0  0  0  0
  2  3  1  0  0  0  0
  2  1  2  0  0  0  0
  3  4  2  0  0  0  0
  4  5  1  0  0  0  0
  4  8  1  0  0  0  0
  5  6  1  0  0  0  0
  6  7  2  0  0  0  0
  6 12  1  0  0  0  0
  8  7  1  0  0  0  0
  9  8  2  0  0  0  0
  9 13  1  0  0  0  0
 10  1  1  0  0  0  0
 11  5  1  0  0  0  0
 14 19  1  0  0  0  0
 15 14  2  0  0  0  0
 15 16  1  0  0  0  0
 16 17  2  0  0  0  0
 17 18  1  0  0  0  0
 18  2  1  0  0  0  0
 19 18  2  0  0  0  0
 20 14  1  0  0  0  0
 21 15  1  0  0  0  0
 22 16  1  0  0  0  0
 23  3  1  0  0  0  0
 24 25  1  0  0  0  0
 25 23  1  0  0  0  0
 26 25  2  0  0  0  0
 26 27  1  0  0  0  0
 28 26  1  0  0  0  0
 29 30  1  0  0  0  0
 29 28  1  0  0  0  0
 31 29  1  0  0  0  0
 32 31  2  0  0  0  0
 32 34  1  0  0  0  0
 33 32  1  0  0  0  0
 34 35  1  0  0  0  0
 34 28  2  0  0  0  0
 35 24  2  0  0  0  0
M  END
>  <minimizedAffinity>
-5.77106094

>  <minimizedRMSD>
1.9210428

$$$$
