REMARK  Name = 
REMARK  3 active torsions:
REMARK  status: ('A' for Active; 'I' for Inactive)
REMARK    1  A    between atoms: C_3  and  C_10
REMARK    2  A    between atoms: C_7  and  C_14
REMARK    3  A    between atoms: C_19  and  C_31
REMARK                            x       y       z     vdW  Elec       q    Type
REMARK                         _______ _______ _______ _____ _____    ______ ____
ROOT
ATOM      1  C   UNL     1      46.568  33.355  38.705  0.00  0.00    +0.000 A 
ATOM      2  C   UNL     1      45.438  32.566  38.822  0.00  0.00    +0.000 A 
ATOM      3  C   UNL     1      45.008  31.892  37.706  0.00  0.00    +0.000 A 
ATOM      4  C   UNL     1      45.663  31.977  36.487  0.00  0.00    +0.000 A 
ATOM      5  C   UNL     1      46.808  32.798  36.429  0.00  0.00    +0.000 A 
ATOM      6  C   UNL     1      47.250  33.483  37.535  0.00  0.00    +0.000 A 
ATOM      7  H   UNL     1      44.812  32.362  39.647  0.00  0.00    +0.000 HD
ATOM      8  H   UNL     1      44.116  31.242  37.712  0.00  0.00    +0.000 HD
ATOM      9  H   UNL     1      45.267  31.409  35.639  0.00  0.00    +0.000 HD
ATOM     10  H   UNL     1      47.221  32.772  35.431  0.00  0.00    +0.000 HD
ENDROOT
BRANCH   6  12
ATOM     11  C   UNL     1      48.795  33.943  35.773  0.00  0.00    +0.000 A 
ATOM     12  C   UNL     1      48.335  34.290  37.067  0.00  0.00    +0.000 A 
ATOM     13  C   UNL     1      49.003  35.316  37.781  0.00  0.00    +0.000 A 
ATOM     14  H   UNL     1      48.603  35.529  38.759  0.00  0.00    +0.000 HD
ATOM     15  C   UNL     1      50.074  35.925  37.164  0.00  0.00    +0.000 A 
ATOM     16  N   UNL     1      50.870  36.913  37.613  0.00  0.00    +0.000 N 
ATOM     17  H   UNL     1      50.804  37.392  38.527  0.00  0.00    +0.000 HD
ATOM     18  N   UNL     1      51.767  37.169  36.665  0.00  0.00    +0.000 NA
ATOM     19  C   UNL     1      51.596  36.383  35.598  0.00  0.00    +0.000 A 
ATOM     20  H   UNL     1      52.115  36.304  34.660  0.00  0.00    +0.000 HD
ATOM     21  C   UNL     1      50.514  35.581  35.904  0.00  0.00    +0.000 A 
ATOM     22  C   UNL     1      49.869  34.582  35.202  0.00  0.00    +0.000 A 
ENDBRANCH   6  12
BRANCH   1  29
ATOM     23  F   UNL     1      45.221  33.531  41.148  0.00  0.00    +0.000 F 
ATOM     24  C   UNL     1      46.418  34.186  41.054  0.00  0.00    +0.000 A 
ATOM     25  C   UNL     1      46.913  34.872  42.115  0.00  0.00    +0.000 A 
ATOM     26  C   UNL     1      48.164  35.432  41.960  0.00  0.00    +0.000 A 
ATOM     27  C   UNL     1      48.892  35.307  40.798  0.00  0.00    +0.000 A 
ATOM     28  C   UNL     1      48.314  34.595  39.782  0.00  0.00    +0.000 A 
ATOM     29  C   UNL     1      47.078  34.026  39.873  0.00  0.00    +0.000 A 
ATOM     30  H   UNL     1      48.453  35.967  42.885  0.00  0.00    +0.000 HD
ATOM     31  H   UNL     1      49.824  35.820  40.919  0.00  0.00    +0.000 HD
ATOM     32  H   UNL     1      49.113  34.627  39.095  0.00  0.00    +0.000 HD
BRANCH  25  35
ATOM     33  C   UNL     1      44.453  35.895  44.801  0.00  0.00    +0.000 A 
ATOM     34  C   UNL     1      45.178  35.899  43.597  0.00  0.00    +0.000 A 
ATOM     35  C   UNL     1      46.126  34.930  43.340  0.00  0.00    +0.000 A 
ATOM     36  N   UNL     1      46.290  33.995  44.327  0.00  0.00    +0.000 NA
ATOM     37  C   UNL     1      45.593  34.006  45.465  0.00  0.00    +0.000 A 
ATOM     38  N   UNL     1      44.676  34.953  45.703  0.00  0.00    +0.000 NA
ATOM     39  H   UNL     1      43.767  36.741  44.791  0.00  0.00    +0.000 HD
ATOM     40  H   UNL     1      45.086  36.611  42.784  0.00  0.00    +0.000 HD
ATOM     41  H   UNL     1      45.727  33.266  46.239  0.00  0.00    +0.000 HD
ENDBRANCH  25  35
ENDBRANCH   1  29
TORSDOF 3
