
 OpenBabel03242519163D

 45 49  0  0  1  0  0  0  0  0999 V2000
   48.3470   34.2230   40.9330 C   0  0  0  0  0  0  0  0  0  0  0  0
   47.8630   34.3750   39.6540 C   0  0  0  0  0  0  0  0  0  0  0  0
   48.2140   33.5220   38.6060 C   0  0  0  0  0  0  0  0  0  0  0  0
   49.0770   32.5190   38.9340 N   0  0  0  0  0  0  0  0  0  0  0  0
   49.5460   32.3760   40.1830 C   0  0  0  0  0  0  0  0  0  0  0  0
   49.1850   33.2150   41.1600 N   0  0  0  0  0  0  0  0  0  0  0  0
   47.1850   35.1910   39.4730 H   0  0  0  0  0  0  0  0  0  0  0  0
   47.8150   33.6700   37.6110 H   0  0  0  0  0  0  0  0  0  0  0  0
   50.4680   31.2640   40.5580 C   0  0  2  0  0  0  0  0  0  0  0  0
   51.2030   31.3470   41.8590 C   0  0  0  0  0  0  0  0  0  0  0  0
   51.9260   31.5670   40.5240 C   0  0  1  0  0  0  0  0  0  0  0  0
   50.1260   30.2560   40.2480 H   0  0  0  0  0  0  0  0  0  0  0  0
   51.1260   32.2720   42.4650 H   0  0  0  0  0  0  0  0  0  0  0  0
   51.4090   30.4470   42.4500 H   0  0  0  0  0  0  0  0  0  0  0  0
   52.2580   32.5770   40.2730 H   0  0  0  0  0  0  0  0  0  0  0  0
   54.0150   30.2700   40.7820 C   0  0  0  0  0  3  0  0  0  0  0  0
   52.7960   30.4140   40.1650 C   0  0  0  0  0  0  0  0  0  0  0  0
   52.3440   29.5150   39.2130 C   0  0  0  0  0  0  0  0  0  0  0  0
   51.3900   29.5990   38.7080 H   0  0  0  0  0  0  0  0  0  0  0  0
   53.2100   28.4700   38.9350 C   0  0  0  0  0  0  0  0  0  0  0  0
   53.0940   27.4430   38.0840 N   0  0  0  0  0  0  0  0  0  0  0  0
   52.3200   27.1810   37.4240 H   0  0  0  0  0  0  0  0  0  0  0  0
   54.1430   26.6480   38.1060 N   0  0  0  0  0  0  0  0  0  0  0  0
   55.0330   27.1400   39.0090 C   0  0  0  0  0  0  0  0  0  0  0  0
   56.0100   26.7930   39.3270 H   0  0  0  0  0  0  0  0  0  0  0  0
   54.4380   28.2900   39.5290 C   0  0  0  0  0  0  0  0  0  0  0  0
   54.8460   29.2160   40.4770 C   0  0  0  0  0  3  0  0  0  0  0  0
   47.9610   35.1120   42.0110 C   0  0  0  0  0  0  0  0  0  0  0  0
   48.5860   34.9900   42.9090 H   0  0  0  0  0  0  0  0  0  0  0  0
   48.1170   36.1660   41.6630 H   0  0  0  0  0  0  0  0  0  0  0  0
   46.5060   34.9470   42.3170 C   0  0  0  0  0  0  0  0  0  0  0  0
   45.9420   35.9120   42.2490 H   0  0  0  0  0  0  0  0  0  0  0  0
   46.0350   34.2680   41.5960 H   0  0  0  0  0  0  0  0  0  0  0  0
   44.5570   36.4120   44.0360 Cl  0  0  0  0  0  0  0  0  0  0  0  0
   45.3930   34.9640   44.5680 C   0  0  0  0  0  0  0  0  0  0  0  0
   46.2580   34.3850   43.6720 C   0  0  0  0  0  0  0  0  0  0  0  0
   46.9110   33.2320   44.0840 C   0  0  0  0  0  0  0  0  0  0  0  0
   46.6940   32.6950   45.3440 C   0  0  0  0  0  0  0  0  0  0  0  0
   45.8070   33.3120   46.2280 C   0  0  0  0  0  0  0  0  0  0  0  0
   45.1660   34.4470   45.8170 C   0  0  0  0  0  0  0  0  0  0  0  0
   47.6110   32.7180   43.4290 H   0  0  0  0  0  0  0  0  0  0  0  0
   47.2210   31.7940   45.6330 H   0  0  0  0  0  0  0  0  0  0  0  0
   45.6280   32.9030   47.2170 H   0  0  0  0  0  0  0  0  0  0  0  0
   44.2600   35.1350   46.6330 O   0  0  0  0  0  0  0  0  0  0  0  0
   43.4370   34.6670   47.0140 H   0  0  0  0  0  0  0  0  0  0  0  0
  1  6  1  0  0  0  0
  1 28  1  0  0  0  0
  2  1  2  0  0  0  0
  3  4  2  0  0  0  0
  3  2  1  0  0  0  0
  4  5  1  0  0  0  0
  5  9  1  0  0  0  0
  5  6  2  0  0  0  0
  7  2  1  0  0  0  0
  8  3  1  0  0  0  0
  9 12  1  6  0  0  0
  9 10  1  0  0  0  0
 10 14  1  0  0  0  0
 10 13  1  0  0  0  0
 11 15  1  6  0  0  0
 11  9  1  0  0  0  0
 11 10  1  0  0  0  0
 17 11  1  0  0  0  0
 17 16  2  0  0  0  0
 18 17  1  0  0  0  0
 19 18  1  0  0  0  0
 20 18  2  0  0  0  0
 20 26  1  0  0  0  0
 21 23  1  0  0  0  0
 21 20  1  0  0  0  0
 22 21  1  0  0  0  0
 23 24  2  0  0  0  0
 24 25  1  0  0  0  0
 24 26  1  0  0  0  0
 26 27  2  0  0  0  0
 27 16  1  0  0  0  0
 28 31  1  0  0  0  0
 28 29  1  0  0  0  0
 30 28  1  0  0  0  0
 31 36  1  0  0  0  0
 32 31  1  0  0  0  0
 33 31  1  0  0  0  0
 34 35  1  0  0  0  0
 35 40  1  0  0  0  0
 36 37  1  0  0  0  0
 36 35  2  0  0  0  0
 37 38  2  0  0  0  0
 38 42  1  0  0  0  0
 38 39  1  0  0  0  0
 39 43  1  0  0  0  0
 40 39  2  0  0  0  0
 40 44  1  0  0  0  0
 41 37  1  0  0  0  0
 44 45  1  0  0  0  0
M  END
>  <minimizedAffinity>
-5.83906746

>  <minimizedRMSD>
0.251449078

$$$$
