
 OpenBabel03242519253D

 43 47  0  0  0  0  0  0  0  0999 V2000
   47.8950   33.7310   42.8770 C   0  0  0  0  0  0  0  0  0  0  0  0
   48.5940   34.9310   42.7190 C   0  0  0  0  0  0  0  0  0  0  0  0
   49.9610   34.9200   42.3930 C   0  0  0  0  0  0  0  0  0  0  0  0
   50.5290   33.6740   42.2480 N   0  0  0  0  0  0  0  0  0  0  0  0
   49.8130   32.5210   42.4120 C   0  0  0  0  0  0  0  0  0  0  0  0
   48.5210   32.5620   42.7200 N   0  0  0  0  0  0  0  0  0  0  0  0
   48.2330   35.9460   42.8120 H   0  0  0  0  0  0  0  0  0  0  0  0
   50.5620   35.8030   42.2560 H   0  0  0  0  0  0  0  0  0  0  0  0
   46.4690   33.8770   43.2240 C   0  0  0  0  0  0  0  0  0  0  0  0
   45.7650   34.8760   42.4220 C   0  0  0  0  0  0  0  0  0  0  0  0
   45.3310   36.0800   43.1780 C   0  0  0  0  0  0  0  0  0  0  0  0
   44.5520   35.7550   44.4400 C   0  0  0  0  0  0  0  0  0  0  0  0
   44.9880   34.4830   45.1260 C   0  0  0  0  0  0  0  0  0  0  0  0
   46.4130   34.1510   44.7380 C   0  0  0  0  0  0  0  0  0  0  0  0
   46.0200   32.8460   43.1130 H   0  0  0  0  0  0  0  0  0  0  0  0
   44.8350   34.4280   41.9700 H   0  0  0  0  0  0  0  0  0  0  0  0
   46.4250   35.2210   41.6070 H   0  0  0  0  0  0  0  0  0  0  0  0
   46.0880   36.8440   43.3710 H   0  0  0  0  0  0  0  0  0  0  0  0
   44.5700   36.5980   42.5210 H   0  0  0  0  0  0  0  0  0  0  0  0
   44.7510   36.5850   45.1720 H   0  0  0  0  0  0  0  0  0  0  0  0
   43.4550   35.7630   44.2910 H   0  0  0  0  0  0  0  0  0  0  0  0
   44.8880   34.5170   46.2100 H   0  0  0  0  0  0  0  0  0  0  0  0
   44.3680   33.6640   44.6790 H   0  0  0  0  0  0  0  0  0  0  0  0
   47.0610   35.0590   44.8830 H   0  0  0  0  0  0  0  0  0  0  0  0
   46.7590   33.2740   45.2980 H   0  0  0  0  0  0  0  0  0  0  0  0
   50.5670   31.2860   42.2290 C   0  0  0  0  0  0  0  0  0  0  0  0
   51.5760   31.3050   41.3260 N   0  0  0  0  0  0  0  0  0  0  0  0
   52.1650   30.0980   41.2810 C   0  0  0  0  0  0  0  0  0  0  0  0
   51.4980   29.3120   42.1860 N   0  0  0  0  0  0  0  0  0  0  0  0
   50.5340   30.0390   42.7540 N   0  0  0  0  0  0  0  0  0  0  0  0
   52.9910   29.7310   40.6930 H   0  0  0  0  0  0  0  0  0  0  0  0
   51.8960   27.5500   43.8750 C   0  0  0  0  0  3  0  0  0  0  0  0
   51.6890   27.9500   42.5560 C   0  0  0  0  0  0  0  0  0  0  0  0
   51.6740   26.9480   41.6060 C   0  0  0  0  0  0  0  0  0  0  0  0
   51.5130   27.2550   40.5830 H   0  0  0  0  0  0  0  0  0  0  0  0
   51.8520   25.6110   41.8990 C   0  0  0  0  0  0  0  0  0  0  0  0
   51.8660   24.5250   41.0980 N   0  0  0  0  0  0  0  0  0  0  0  0
   51.7310   24.5700   40.0680 H   0  0  0  0  0  0  0  0  0  0  0  0
   52.0740   23.4700   41.8730 N   0  0  0  0  0  0  0  0  0  0  0  0
   52.1960   23.8600   43.1730 C   0  0  0  0  0  0  0  0  0  0  0  0
   52.3710   23.2450   44.0370 H   0  0  0  0  0  0  0  0  0  0  0  0
   52.0590   25.2280   43.2220 C   0  0  0  0  0  0  0  0  0  0  0  0
   52.0740   26.2160   44.1740 C   0  0  0  0  0  3  0  0  0  0  0  0
  1  9  1  0  0  0  0
  2  7  1  0  0  0  0
  2  1  2  0  0  0  0
  3  2  1  0  0  0  0
  4  3  2  0  0  0  0
  4  5  1  0  0  0  0
  5  6  2  0  0  0  0
  6  1  1  0  0  0  0
  8  3  1  0  0  0  0
  9 14  1  0  0  0  0
 10 11  1  0  0  0  0
 10  9  1  0  0  0  0
 11 18  1  0  0  0  0
 11 12  1  0  0  0  0
 12 13  1  0  0  0  0
 12 20  1  0  0  0  0
 13 22  1  0  0  0  0
 14 24  1  0  0  0  0
 14 13  1  0  0  0  0
 14 25  1  0  0  0  0
 15  9  1  0  0  0  0
 16 10  1  0  0  0  0
 17 10  1  0  0  0  0
 19 11  1  0  0  0  0
 21 12  1  0  0  0  0
 23 13  1  0  0  0  0
 26  5  1  0  0  0  0
 26 30  2  0  0  0  0
 27 26  1  0  0  0  0
 28 27  2  0  0  0  0
 28 29  1  0  0  0  0
 29 33  1  0  0  0  0
 29 30  1  0  0  0  0
 31 28  1  0  0  0  0
 32 43  1  0  0  0  0
 33 32  2  0  0  0  0
 34 36  2  0  0  0  0
 34 33  1  0  0  0  0
 35 34  1  0  0  0  0
 36 42  1  0  0  0  0
 37 39  1  0  0  0  0
 37 36  1  0  0  0  0
 38 37  1  0  0  0  0
 39 40  2  0  0  0  0
 40 42  1  0  0  0  0
 40 41  1  0  0  0  0
 42 43  2  0  0  0  0
M  END
>  <minimizedAffinity>
-4.14844418

>  <minimizedRMSD>
0.146937773

$$$$
