
 OpenBabel03252501223D

 36 38  0  0  0  0  0  0  0  0999 V2000
   45.7650   39.0400   44.0230 C   0  0  0  0  0  0  0  0  0  0  0  0
   46.6190   39.0630   44.7260 H   0  0  0  0  0  0  0  0  0  0  0  0
   46.0780   38.7750   42.9810 H   0  0  0  0  0  0  0  0  0  0  0  0
   45.0860   40.3830   43.9080 C   0  0  0  0  0  0  0  0  0  0  0  0
   44.1290   40.2070   43.3670 H   0  0  0  0  0  0  0  0  0  0  0  0
   45.7310   41.0730   43.3670 H   0  0  0  0  0  0  0  0  0  0  0  0
   44.6640   40.9500   45.5830 S   0  0  0  0  0  0  0  0  0  0  0  0
   42.9570   43.0400   45.1470 C   0  0  0  0  0  3  0  0  0  0  0  0
   44.2300   42.6920   45.5440 C   0  0  0  0  0  0  0  0  0  0  0  0
   45.1610   43.6460   45.9060 C   0  0  0  0  0  0  0  0  0  0  0  0
   46.1520   43.3800   46.2150 H   0  0  0  0  0  0  0  0  0  0  0  0
   44.8490   44.9960   45.8840 C   0  0  0  0  0  0  0  0  0  0  0  0
   45.5520   46.1220   46.1810 N   0  0  0  0  0  0  0  0  0  0  0  0
   46.5570   46.1620   46.5130 H   0  0  0  0  0  0  0  0  0  0  0  0
   44.7630   47.1890   45.9850 N   0  0  0  0  0  0  0  0  0  0  0  0
   43.5570   46.7430   45.5630 C   0  0  0  0  0  0  0  0  0  0  0  0
   42.6920   47.3390   45.3150 H   0  0  0  0  0  0  0  0  0  0  0  0
   43.5680   45.3610   45.4850 C   0  0  0  0  0  0  0  0  0  0  0  0
   42.6530   44.4030   45.1280 C   0  0  0  0  0  3  0  0  0  0  0  0
   44.8660   38.0090   44.4710 N   0  0  0  0  0  0  0  0  0  0  0  0
   43.9160   38.4430   44.4900 H   0  0  0  0  0  0  0  0  0  0  0  0
   44.9190   36.9280   43.4820 C   0  0  0  0  0  0  0  0  0  0  0  0
   45.5270   37.2680   42.6640 H   0  0  0  0  0  0  0  0  0  0  0  0
   43.8690   36.8570   43.0640 H   0  0  0  0  0  0  0  0  0  0  0  0
   44.7260   35.4600   45.4070 C   0  0  0  0  0  0  0  0  0  0  0  0
   45.1980   35.6670   44.1200 C   0  0  0  0  0  0  0  0  0  0  0  0
   45.9030   34.6270   43.5510 C   0  0  0  0  0  0  0  0  0  0  0  0
   46.1130   33.4610   44.2490 N   0  0  0  0  0  0  0  0  0  0  0  0
   45.6410   33.2990   45.4930 C   0  0  0  0  0  0  0  0  0  0  0  0
   44.9320   34.3200   46.0850 N   0  0  0  0  0  0  0  0  0  0  0  0
   44.1580   36.2070   45.9560 H   0  0  0  0  0  0  0  0  0  0  0  0
   45.8730   32.3370   45.9310 H   0  0  0  0  0  0  0  0  0  0  0  0
   46.3880   34.8780   42.1850 C   0  0  0  0  0  0  0  0  0  0  0  0
   47.0060   33.7320   41.7040 F   0  0  0  0  0  0  0  0  0  0  0  0
   47.3380   35.8490   42.2690 F   0  0  0  0  0  0  0  0  0  0  0  0
   45.3600   35.1080   41.3330 F   0  0  0  0  0  0  0  0  0  0  0  0
  1 20  1  0  0  0  0
  1  2  1  0  0  0  0
  3  1  1  0  0  0  0
  4  1  1  0  0  0  0
  4  7  1  0  0  0  0
  5  4  1  0  0  0  0
  6  4  1  0  0  0  0
  8  9  1  0  0  0  0
  9  7  1  0  0  0  0
  9 10  2  0  0  0  0
 10 11  1  0  0  0  0
 12 10  1  0  0  0  0
 12 13  1  0  0  0  0
 13 14  1  0  0  0  0
 15 13  1  0  0  0  0
 16 15  2  0  0  0  0
 17 16  1  0  0  0  0
 18 16  1  0  0  0  0
 18 12  2  0  0  0  0
 19  8  2  0  0  0  0
 19 18  1  0  0  0  0
 20 21  1  0  0  0  0
 22 26  1  0  0  0  0
 22 20  1  0  0  0  0
 23 22  1  0  0  0  0
 24 22  1  0  0  0  0
 25 31  1  0  0  0  0
 25 30  1  0  0  0  0
 26 25  2  0  0  0  0
 27 26  1  0  0  0  0
 27 28  2  0  0  0  0
 28 29  1  0  0  0  0
 29 32  1  0  0  0  0
 29 30  2  0  0  0  0
 33 35  1  0  0  0  0
 33 27  1  0  0  0  0
 34 33  1  0  0  0  0
 36 33  1  0  0  0  0
M  END
>  <minimizedAffinity>
-1.15806258

>  <minimizedRMSD>
1.25531423

$$$$
