
 OpenBabel03242519163D

 45 49  0  0  1  0  0  0  0  0999 V2000
   48.3510   34.0040   40.9900 C   0  0  0  0  0  0  0  0  0  0  0  0
   47.5840   34.2710   39.8780 C   0  0  0  0  0  0  0  0  0  0  0  0
   47.7470   33.5960   38.6670 C   0  0  0  0  0  0  0  0  0  0  0  0
   48.7240   32.6450   38.6550 N   0  0  0  0  0  0  0  0  0  0  0  0
   49.4680   32.3890   39.7410 C   0  0  0  0  0  0  0  0  0  0  0  0
   49.2820   33.0590   40.8840 N   0  0  0  0  0  0  0  0  0  0  0  0
   46.8320   35.0360   39.9650 H   0  0  0  0  0  0  0  0  0  0  0  0
   47.1270   33.8310   37.8120 H   0  0  0  0  0  0  0  0  0  0  0  0
   50.5200   31.3310   39.7460 C   0  0  2  0  0  0  0  0  0  0  0  0
   50.8220   30.6230   41.0290 C   0  0  0  0  0  0  0  0  0  0  0  0
   51.7930   31.6590   40.4480 C   0  0  1  0  0  0  0  0  0  0  0  0
   50.5640   30.7190   38.8230 H   0  0  0  0  0  0  0  0  0  0  0  0
   50.3330   30.9660   41.9640 H   0  0  0  0  0  0  0  0  0  0  0  0
   51.0970   29.5610   41.0380 H   0  0  0  0  0  0  0  0  0  0  0  0
   51.8920   32.6210   40.9570 H   0  0  0  0  0  0  0  0  0  0  0  0
   53.7300   30.1340   40.6300 C   0  0  0  0  0  3  0  0  0  0  0  0
   53.0070   31.0220   39.8710 C   0  0  0  0  0  0  0  0  0  0  0  0
   53.3740   31.3480   38.5750 C   0  0  0  0  0  0  0  0  0  0  0  0
   52.8280   32.0430   37.9500 H   0  0  0  0  0  0  0  0  0  0  0  0
   54.5140   30.7140   38.1120 C   0  0  0  0  0  0  0  0  0  0  0  0
   55.1380   30.7960   36.9290 N   0  0  0  0  0  0  0  0  0  0  0  0
   54.9150   31.3580   36.0710 H   0  0  0  0  0  0  0  0  0  0  0  0
   56.2070   30.0290   36.8690 N   0  0  0  0  0  0  0  0  0  0  0  0
   56.3360   29.3820   38.0600 C   0  0  0  0  0  0  0  0  0  0  0  0
   57.0690   28.6680   38.4210 H   0  0  0  0  0  0  0  0  0  0  0  0
   55.2640   29.8190   38.8390 C   0  0  0  0  0  0  0  0  0  0  0  0
   54.8580   29.5240   40.1310 C   0  0  0  0  0  3  0  0  0  0  0  0
   48.1590   34.7070   42.2420 C   0  0  0  0  0  0  0  0  0  0  0  0
   48.7510   34.2800   43.0660 H   0  0  0  0  0  0  0  0  0  0  0  0
   48.5220   35.7590   42.1080 H   0  0  0  0  0  0  0  0  0  0  0  0
   46.7020   34.7710   42.5770 C   0  0  0  0  0  0  0  0  0  0  0  0
   46.3040   35.8180   42.5570 H   0  0  0  0  0  0  0  0  0  0  0  0
   46.1120   34.2070   41.8440 H   0  0  0  0  0  0  0  0  0  0  0  0
   44.6790   36.2370   44.2080 Cl  0  0  0  0  0  0  0  0  0  0  0  0
   45.4850   34.7840   44.7730 C   0  0  0  0  0  0  0  0  0  0  0  0
   46.3890   34.2050   43.9170 C   0  0  0  0  0  0  0  0  0  0  0  0
   47.0190   33.0490   44.3550 C   0  0  0  0  0  0  0  0  0  0  0  0
   46.7410   32.5090   45.6020 C   0  0  0  0  0  0  0  0  0  0  0  0
   45.8150   33.1250   46.4450 C   0  0  0  0  0  0  0  0  0  0  0  0
   45.1980   34.2640   46.0090 C   0  0  0  0  0  0  0  0  0  0  0  0
   47.7460   32.5350   43.7320 H   0  0  0  0  0  0  0  0  0  0  0  0
   47.2510   31.6050   45.9110 H   0  0  0  0  0  0  0  0  0  0  0  0
   45.5900   32.7130   47.4230 H   0  0  0  0  0  0  0  0  0  0  0  0
   44.2570   34.9520   46.7840 O   0  0  0  0  0  0  0  0  0  0  0  0
   43.4160   34.4860   47.1250 H   0  0  0  0  0  0  0  0  0  0  0  0
  1 28  1  0  0  0  0
  2  7  1  0  0  0  0
  2  1  2  0  0  0  0
  3  2  1  0  0  0  0
  4  3  2  0  0  0  0
  4  5  1  0  0  0  0
  5  9  1  0  0  0  0
  5  6  2  0  0  0  0
  6  1  1  0  0  0  0
  8  3  1  0  0  0  0
  9 12  1  6  0  0  0
  9 11  1  0  0  0  0
  9 10  1  0  0  0  0
 10 14  1  0  0  0  0
 10 13  1  0  0  0  0
 11 15  1  1  0  0  0
 11 10  1  0  0  0  0
 17 11  1  0  0  0  0
 17 16  2  0  0  0  0
 18 17  1  0  0  0  0
 19 18  1  0  0  0  0
 20 18  2  0  0  0  0
 20 26  1  0  0  0  0
 21 20  1  0  0  0  0
 22 21  1  0  0  0  0
 23 21  1  0  0  0  0
 23 24  2  0  0  0  0
 24 25  1  0  0  0  0
 24 26  1  0  0  0  0
 26 27  2  0  0  0  0
 27 16  1  0  0  0  0
 28 31  1  0  0  0  0
 28 29  1  0  0  0  0
 30 28  1  0  0  0  0
 31 36  1  0  0  0  0
 32 31  1  0  0  0  0
 33 31  1  0  0  0  0
 34 35  1  0  0  0  0
 35 40  1  0  0  0  0
 36 37  1  0  0  0  0
 36 35  2  0  0  0  0
 37 38  2  0  0  0  0
 38 42  1  0  0  0  0
 38 39  1  0  0  0  0
 39 43  1  0  0  0  0
 40 39  2  0  0  0  0
 40 44  1  0  0  0  0
 41 37  1  0  0  0  0
 44 45  1  0  0  0  0
M  END
>  <minimizedAffinity>
-6.34511805

>  <minimizedRMSD>
0.997982085

$$$$
