
 OpenBabel03242519253D

 43 47  0  0  0  0  0  0  0  0999 V2000
   47.8790   33.7170   42.8920 C   0  0  0  0  0  0  0  0  0  0  0  0
   48.5830   34.9100   42.7100 C   0  0  0  0  0  0  0  0  0  0  0  0
   49.9480   34.8880   42.3810 C   0  0  0  0  0  0  0  0  0  0  0  0
   50.5110   33.6360   42.2560 N   0  0  0  0  0  0  0  0  0  0  0  0
   49.7900   32.4900   42.4420 C   0  0  0  0  0  0  0  0  0  0  0  0
   48.4990   32.5420   42.7540 N   0  0  0  0  0  0  0  0  0  0  0  0
   48.2260   35.9280   42.7870 H   0  0  0  0  0  0  0  0  0  0  0  0
   50.5530   35.7650   42.2260 H   0  0  0  0  0  0  0  0  0  0  0  0
   46.4540   33.8750   43.2400 C   0  0  0  0  0  0  0  0  0  0  0  0
   45.7570   34.8770   42.4360 C   0  0  0  0  0  0  0  0  0  0  0  0
   45.3340   36.0860   43.1890 C   0  0  0  0  0  0  0  0  0  0  0  0
   44.5540   35.7720   44.4530 C   0  0  0  0  0  0  0  0  0  0  0  0
   44.9810   34.4990   45.1420 C   0  0  0  0  0  0  0  0  0  0  0  0
   46.4030   34.1540   44.7530 C   0  0  0  0  0  0  0  0  0  0  0  0
   45.9980   32.8460   43.1330 H   0  0  0  0  0  0  0  0  0  0  0  0
   44.8230   34.4340   41.9860 H   0  0  0  0  0  0  0  0  0  0  0  0
   46.4190   35.2130   41.6180 H   0  0  0  0  0  0  0  0  0  0  0  0
   46.0970   36.8440   43.3770 H   0  0  0  0  0  0  0  0  0  0  0  0
   44.5750   36.6080   42.5310 H   0  0  0  0  0  0  0  0  0  0  0  0
   44.7610   36.6020   45.1820 H   0  0  0  0  0  0  0  0  0  0  0  0
   43.4570   35.7880   44.3060 H   0  0  0  0  0  0  0  0  0  0  0  0
   44.8830   34.5370   46.2270 H   0  0  0  0  0  0  0  0  0  0  0  0
   44.3540   33.6830   44.7000 H   0  0  0  0  0  0  0  0  0  0  0  0
   47.0590   35.0580   44.8940 H   0  0  0  0  0  0  0  0  0  0  0  0
   46.7430   33.2770   45.3150 H   0  0  0  0  0  0  0  0  0  0  0  0
   50.5380   31.2480   42.2790 C   0  0  0  0  0  0  0  0  0  0  0  0
   51.5560   31.2520   41.3850 N   0  0  0  0  0  0  0  0  0  0  0  0
   52.1370   30.0420   41.3570 C   0  0  0  0  0  0  0  0  0  0  0  0
   51.4570   29.2680   42.2630 N   0  0  0  0  0  0  0  0  0  0  0  0
   50.4920   30.0070   42.8150 N   0  0  0  0  0  0  0  0  0  0  0  0
   52.9680   29.6640   40.7820 H   0  0  0  0  0  0  0  0  0  0  0  0
   51.2170   26.8390   41.8580 C   0  0  0  0  0  3  0  0  0  0  0  0
   51.6360   27.9090   42.6490 C   0  0  0  0  0  0  0  0  0  0  0  0
   52.2410   27.5860   43.8470 C   0  0  0  0  0  0  0  0  0  0  0  0
   52.5660   28.4130   44.4620 H   0  0  0  0  0  0  0  0  0  0  0  0
   52.4440   26.2900   44.2790 C   0  0  0  0  0  0  0  0  0  0  0  0
   53.0110   25.8150   45.4070 N   0  0  0  0  0  0  0  0  0  0  0  0
   53.4010   26.4220   46.1550 H   0  0  0  0  0  0  0  0  0  0  0  0
   52.9600   24.4910   45.3410 N   0  0  0  0  0  0  0  0  0  0  0  0
   52.3630   24.1020   44.1790 C   0  0  0  0  0  0  0  0  0  0  0  0
   52.1730   23.1030   43.8340 H   0  0  0  0  0  0  0  0  0  0  0  0
   52.0200   25.2340   43.4760 C   0  0  0  0  0  0  0  0  0  0  0  0
   51.4170   25.5440   42.2840 C   0  0  0  0  0  3  0  0  0  0  0  0
  1  9  1  0  0  0  0
  2  7  1  0  0  0  0
  2  1  2  0  0  0  0
  3  2  1  0  0  0  0
  4  3  2  0  0  0  0
  4  5  1  0  0  0  0
  5  6  2  0  0  0  0
  6  1  1  0  0  0  0
  8  3  1  0  0  0  0
  9 14  1  0  0  0  0
 10 11  1  0  0  0  0
 10  9  1  0  0  0  0
 11 18  1  0  0  0  0
 11 12  1  0  0  0  0
 12 13  1  0  0  0  0
 12 20  1  0  0  0  0
 13 22  1  0  0  0  0
 14 24  1  0  0  0  0
 14 13  1  0  0  0  0
 14 25  1  0  0  0  0
 15  9  1  0  0  0  0
 16 10  1  0  0  0  0
 17 10  1  0  0  0  0
 19 11  1  0  0  0  0
 21 12  1  0  0  0  0
 23 13  1  0  0  0  0
 26  5  1  0  0  0  0
 26 30  2  0  0  0  0
 27 26  1  0  0  0  0
 28 27  2  0  0  0  0
 28 29  1  0  0  0  0
 29 33  1  0  0  0  0
 29 30  1  0  0  0  0
 31 28  1  0  0  0  0
 32 43  2  0  0  0  0
 32 33  1  0  0  0  0
 33 34  2  0  0  0  0
 34 36  1  0  0  0  0
 34 35  1  0  0  0  0
 36 37  1  0  0  0  0
 37 38  1  0  0  0  0
 39 37  1  0  0  0  0
 40 39  2  0  0  0  0
 41 40  1  0  0  0  0
 42 40  1  0  0  0  0
 42 36  2  0  0  0  0
 43 42  1  0  0  0  0
M  END
>  <minimizedAffinity>
-4.16109514

>  <minimizedRMSD>
0.0921251252

$$$$
