
 OpenBabel03242519253D

 43 47  0  0  0  0  0  0  0  0999 V2000
   47.9150   33.7910   42.8960 C   0  0  0  0  0  0  0  0  0  0  0  0
   48.5770   34.9990   42.6600 C   0  0  0  0  0  0  0  0  0  0  0  0
   49.9440   35.0090   42.3370 C   0  0  0  0  0  0  0  0  0  0  0  0
   50.5510   33.7740   42.2740 N   0  0  0  0  0  0  0  0  0  0  0  0
   49.8710   32.6130   42.5130 C   0  0  0  0  0  0  0  0  0  0  0  0
   48.5760   32.6340   42.8170 N   0  0  0  0  0  0  0  0  0  0  0  0
   48.1850   36.0060   42.6860 H   0  0  0  0  0  0  0  0  0  0  0  0
   50.5180   35.8990   42.1420 H   0  0  0  0  0  0  0  0  0  0  0  0
   46.4840   33.9150   43.2320 C   0  0  0  0  0  0  0  0  0  0  0  0
   45.7740   34.9140   42.4340 C   0  0  0  0  0  0  0  0  0  0  0  0
   45.3190   36.1030   43.1980 C   0  0  0  0  0  0  0  0  0  0  0  0
   44.5320   35.7560   44.4500 C   0  0  0  0  0  0  0  0  0  0  0  0
   44.9790   34.4820   45.1270 C   0  0  0  0  0  0  0  0  0  0  0  0
   46.4110   34.1720   44.7480 C   0  0  0  0  0  0  0  0  0  0  0  0
   46.0490   32.8790   43.1060 H   0  0  0  0  0  0  0  0  0  0  0  0
   44.8540   34.4580   41.9690 H   0  0  0  0  0  0  0  0  0  0  0  0
   46.4380   35.2750   41.6280 H   0  0  0  0  0  0  0  0  0  0  0  0
   46.0640   36.8750   43.4060 H   0  0  0  0  0  0  0  0  0  0  0  0
   44.5560   36.6190   42.5400 H   0  0  0  0  0  0  0  0  0  0  0  0
   44.7140   36.5800   45.1930 H   0  0  0  0  0  0  0  0  0  0  0  0
   43.4370   35.7510   44.2910 H   0  0  0  0  0  0  0  0  0  0  0  0
   44.8690   34.5040   46.2100 H   0  0  0  0  0  0  0  0  0  0  0  0
   44.3730   33.6600   44.6660 H   0  0  0  0  0  0  0  0  0  0  0  0
   47.0470   35.0870   44.9080 H   0  0  0  0  0  0  0  0  0  0  0  0
   46.7630   33.2940   45.3010 H   0  0  0  0  0  0  0  0  0  0  0  0
   50.6630   31.3920   42.4120 C   0  0  0  0  0  0  0  0  0  0  0  0
   51.5160   31.2940   41.3660 N   0  0  0  0  0  0  0  0  0  0  0  0
   52.1650   30.1190   41.4210 C   0  0  0  0  0  0  0  0  0  0  0  0
   51.6970   29.4740   42.5370 N   0  0  0  0  0  0  0  0  0  0  0  0
   50.7880   30.2520   43.1290 N   0  0  0  0  0  0  0  0  0  0  0  0
   52.9130   29.6870   40.7740 H   0  0  0  0  0  0  0  0  0  0  0  0
   51.2700   27.5940   44.0890 C   0  0  0  0  0  3  0  0  0  0  0  0
   52.0270   28.2020   43.0870 C   0  0  0  0  0  0  0  0  0  0  0  0
   53.1320   27.5030   42.6430 C   0  0  0  0  0  0  0  0  0  0  0  0
   53.7200   27.9720   41.8670 H   0  0  0  0  0  0  0  0  0  0  0  0
   53.5050   26.2680   43.1340 C   0  0  0  0  0  0  0  0  0  0  0  0
   54.5420   25.4660   42.8110 N   0  0  0  0  0  0  0  0  0  0  0  0
   55.2480   25.7040   42.0880 H   0  0  0  0  0  0  0  0  0  0  0  0
   54.4530   24.3870   43.5760 N   0  0  0  0  0  0  0  0  0  0  0  0
   53.3670   24.4800   44.3940 C   0  0  0  0  0  0  0  0  0  0  0  0
   53.0260   23.7710   45.1260 H   0  0  0  0  0  0  0  0  0  0  0  0
   52.7380   25.6750   44.1340 C   0  0  0  0  0  0  0  0  0  0  0  0
   51.6390   26.3620   44.5830 C   0  0  0  0  0  3  0  0  0  0  0  0
  1  9  1  0  0  0  0
  2  7  1  0  0  0  0
  2  1  2  0  0  0  0
  3  2  1  0  0  0  0
  4  3  2  0  0  0  0
  4  5  1  0  0  0  0
  5  6  2  0  0  0  0
  6  1  1  0  0  0  0
  8  3  1  0  0  0  0
  9 14  1  0  0  0  0
 10 11  1  0  0  0  0
 10  9  1  0  0  0  0
 11 18  1  0  0  0  0
 11 12  1  0  0  0  0
 12 13  1  0  0  0  0
 12 20  1  0  0  0  0
 13 22  1  0  0  0  0
 14 24  1  0  0  0  0
 14 13  1  0  0  0  0
 14 25  1  0  0  0  0
 15  9  1  0  0  0  0
 16 10  1  0  0  0  0
 17 10  1  0  0  0  0
 19 11  1  0  0  0  0
 21 12  1  0  0  0  0
 23 13  1  0  0  0  0
 26  5  1  0  0  0  0
 26 30  2  0  0  0  0
 27 28  2  0  0  0  0
 27 26  1  0  0  0  0
 28 29  1  0  0  0  0
 29 33  1  0  0  0  0
 29 30  1  0  0  0  0
 31 28  1  0  0  0  0
 32 43  1  0  0  0  0
 33 32  2  0  0  0  0
 34 33  1  0  0  0  0
 34 36  2  0  0  0  0
 35 34  1  0  0  0  0
 36 42  1  0  0  0  0
 37 36  1  0  0  0  0
 37 39  1  0  0  0  0
 38 37  1  0  0  0  0
 39 40  2  0  0  0  0
 40 41  1  0  0  0  0
 42 40  1  0  0  0  0
 42 43  2  0  0  0  0
M  END
>  <minimizedAffinity>
-4.19889259

>  <minimizedRMSD>
0.659440815

$$$$
