REMARK  Name = 
REMARK  3 active torsions:
REMARK  status: ('A' for Active; 'I' for Inactive)
REMARK    1  A    between atoms: C_1  and  C_7
REMARK    2  A    between atoms: C_11  and  C_13
REMARK    3  A    between atoms: N_16  and  C_33
REMARK                            x       y       z     vdW  Elec       q    Type
REMARK                         _______ _______ _______ _____ _____    ______ ____
ROOT
ATOM      1  C   UNL     1      47.874  33.705  42.894  0.00  0.00    +0.000 A 
ATOM      2  C   UNL     1      48.581  34.897  42.716  0.00  0.00    +0.000 A 
ATOM      3  C   UNL     1      49.946  34.872  42.385  0.00  0.00    +0.000 A 
ATOM      4  N   UNL     1      50.505  33.619  42.255  0.00  0.00    +0.000 NA
ATOM      5  C   UNL     1      49.781  32.474  42.438  0.00  0.00    +0.000 A 
ATOM      6  N   UNL     1      48.490  32.529  42.751  0.00  0.00    +0.000 NA
ATOM      7  H   UNL     1      48.228  35.916  42.797  0.00  0.00    +0.000 HD
ATOM      8  H   UNL     1      50.553  35.748  42.233  0.00  0.00    +0.000 HD
ENDROOT
BRANCH   1   9
ATOM      9  C   UNL     1      46.450  33.866  43.245  0.00  0.00    +0.000 C 
ATOM     10  C   UNL     1      45.751  34.862  42.435  0.00  0.00    +0.000 C 
ATOM     11  C   UNL     1      45.330  36.077  43.179  0.00  0.00    +0.000 C 
ATOM     12  C   UNL     1      44.553  35.773  44.448  0.00  0.00    +0.000 C 
ATOM     13  C   UNL     1      44.982  34.505  45.146  0.00  0.00    +0.000 C 
ATOM     14  C   UNL     1      46.403  34.157  44.756  0.00  0.00    +0.000 C 
ATOM     15  H   UNL     1      45.993  32.837  43.147  0.00  0.00    +0.000 HD
ATOM     16  H   UNL     1      44.816  34.416  41.991  0.00  0.00    +0.000 HD
ATOM     17  H   UNL     1      46.411  35.192  41.613  0.00  0.00    +0.000 HD
ATOM     18  H   UNL     1      46.094  36.837  43.360  0.00  0.00    +0.000 HD
ATOM     19  H   UNL     1      44.570  36.594  42.519  0.00  0.00    +0.000 HD
ATOM     20  H   UNL     1      44.762  36.609  45.170  0.00  0.00    +0.000 HD
ATOM     21  H   UNL     1      43.456  35.788  44.303  0.00  0.00    +0.000 HD
ATOM     22  H   UNL     1      44.887  34.552  46.230  0.00  0.00    +0.000 HD
ATOM     23  H   UNL     1      44.354  33.686  44.711  0.00  0.00    +0.000 HD
ATOM     24  H   UNL     1      47.059  35.062  44.888  0.00  0.00    +0.000 HD
ATOM     25  H   UNL     1      46.744  33.284  45.324  0.00  0.00    +0.000 HD
ENDBRANCH   1   9
BRANCH   5  26
ATOM     26  C   UNL     1      50.525  31.231  42.269  0.00  0.00    +0.000 A 
ATOM     27  N   UNL     1      51.570  31.248  41.408  0.00  0.00    +0.000 NA
ATOM     28  C   UNL     1      52.144  30.034  41.370  0.00  0.00    +0.000 A 
ATOM     29  N   UNL     1      51.430  29.245  42.236  0.00  0.00    +0.000 N 
ATOM     30  N   UNL     1      50.453  29.978  42.774  0.00  0.00    +0.000 NA
ATOM     31  H   UNL     1      52.989  29.663  40.812  0.00  0.00    +0.000 HD
BRANCH  29  33
ATOM     32  C   UNL     1      51.859  27.465  43.899  0.00  0.00    +0.000 A 
ATOM     33  C   UNL     1      51.587  27.876  42.595  0.00  0.00    +0.000 A 
ATOM     34  C   UNL     1      51.472  26.877  41.648  0.00  0.00    +0.000 A 
ATOM     35  H   UNL     1      51.260  27.192  40.637  0.00  0.00    +0.000 HD
ATOM     36  C   UNL     1      51.612  25.533  41.931  0.00  0.00    +0.000 A 
ATOM     37  N   UNL     1      51.531  24.449  41.131  0.00  0.00    +0.000 N 
ATOM     38  H   UNL     1      51.335  24.501  40.112  0.00  0.00    +0.000 HD
ATOM     39  N   UNL     1      51.743  23.385  41.893  0.00  0.00    +0.000 NA
ATOM     40  C   UNL     1      51.962  23.767  43.182  0.00  0.00    +0.000 A 
ATOM     41  H   UNL     1      52.164  23.144  44.034  0.00  0.00    +0.000 HD
ATOM     42  C   UNL     1      51.885  25.140  43.239  0.00  0.00    +0.000 A 
ATOM     43  C   UNL     1      52.000  26.124  44.187  0.00  0.00    +0.000 A 
ENDBRANCH  29  33
ENDBRANCH   5  26
TORSDOF 3
