
 OpenBabel03252509093D

 44 48  0  0  0  0  0  0  0  0999 V2000
   47.9270   32.7870   39.3050 C   0  0  0  0  0  0  0  0  0  0  0  0
   46.5690   32.9040   39.2610 C   0  0  0  0  0  0  0  0  0  0  0  0
   45.9270   33.7950   40.1050 C   0  0  0  0  0  0  0  0  0  0  0  0
   46.6480   34.5620   40.9890 C   0  0  0  0  0  0  0  0  0  0  0  0
   48.0370   34.4730   41.0670 C   0  0  0  0  0  0  0  0  0  0  0  0
   48.6600   33.5670   40.2040 C   0  0  0  0  0  0  0  0  0  0  0  0
   44.8650   33.9090   40.0940 H   0  0  0  0  0  0  0  0  0  0  0  0
   46.2240   35.2620   41.6630 H   0  0  0  0  0  0  0  0  0  0  0  0
   48.6550   35.0310   41.7210 H   0  0  0  0  0  0  0  0  0  0  0  0
   49.7390   33.4790   40.2430 H   0  0  0  0  0  0  0  0  0  0  0  0
   43.2510   29.0280   38.4770 Cl  0  0  0  0  0  0  0  0  0  0  0  0
   44.2180   30.3880   37.9650 C   0  0  0  0  0  0  0  0  0  0  0  0
   44.9850   31.0770   38.8470 C   0  0  0  0  0  0  0  0  0  0  0  0
   45.7160   32.1470   38.3560 C   0  0  0  0  0  0  0  0  0  0  0  0
   45.6710   32.5040   37.0300 C   0  0  0  0  0  0  0  0  0  0  0  0
   44.9000   31.8070   36.1590 C   0  0  0  0  0  0  0  0  0  0  0  0
   44.1650   30.7350   36.6350 C   0  0  0  0  0  0  0  0  0  0  0  0
   46.2640   33.3520   36.7080 H   0  0  0  0  0  0  0  0  0  0  0  0
   44.8960   32.1200   35.1300 H   0  0  0  0  0  0  0  0  0  0  0  0
   43.5620   30.2000   35.9120 H   0  0  0  0  0  0  0  0  0  0  0  0
   44.0940   30.7260   42.5120 C   0  0  0  0  0  0  0  0  0  0  0  0
   44.0720   31.1220   41.1710 C   0  0  0  0  0  0  0  0  0  0  0  0
   45.0010   30.6750   40.2450 C   0  0  0  0  0  0  0  0  0  0  0  0
   45.9080   29.8400   40.7620 N   0  0  0  0  0  0  0  0  0  0  0  0
   45.9480   29.4500   42.0350 C   0  0  0  0  0  0  0  0  0  0  0  0
   45.0490   29.8890   42.9040 N   0  0  0  0  0  0  0  0  0  0  0  0
   43.3310   31.1200   43.1780 H   0  0  0  0  0  0  0  0  0  0  0  0
   43.2890   31.8130   40.8290 H   0  0  0  0  0  0  0  0  0  0  0  0
   46.7800   28.7620   42.2350 H   0  0  0  0  0  0  0  0  0  0  0  0
   48.7630   31.7040   38.3190 S   0  0  0  0  0  0  0  0  0  0  0  0
   50.2290   31.5950   38.8090 O   0  0  0  0  0  0  0  0  0  0  0  0
   48.1910   30.3200   38.6330 O   0  0  0  0  0  0  0  0  0  0  0  0
   48.4620   32.7900   35.7490 C   0  0  0  0  0  3  0  0  0  0  0  0
   49.0320   31.8940   36.6410 C   0  0  0  0  0  0  0  0  0  0  0  0
   49.9050   31.0440   35.9080 C   0  0  0  0  0  0  0  0  0  0  0  0
   50.4280   30.2750   36.5080 H   0  0  0  0  0  0  0  0  0  0  0  0
   50.1790   31.0590   34.5580 C   0  0  0  0  0  0  0  0  0  0  0  0
   50.9770   30.3100   33.7860 N   0  0  0  0  0  0  0  0  0  0  0  0
   51.5690   29.5240   34.1270 H   0  0  0  0  0  0  0  0  0  0  0  0
   50.8410   30.7780   32.5640 N   0  0  0  0  0  0  0  0  0  0  0  0
   49.9770   31.8060   32.5410 C   0  0  0  0  0  0  0  0  0  0  0  0
   49.6650   32.3920   31.6740 H   0  0  0  0  0  0  0  0  0  0  0  0
   49.5300   32.0060   33.8440 C   0  0  0  0  0  0  0  0  0  0  0  0
   48.6490   32.9080   34.3970 C   0  0  0  0  0  3  0  0  0  0  0  0
  1  6  1  0  0  0  0
  2  1  2  0  0  0  0
  2  3  1  0  0  0  0
  3  4  2  0  0  0  0
  4  5  1  0  0  0  0
  4  8  1  0  0  0  0
  5  9  1  0  0  0  0
  6 10  1  0  0  0  0
  6  5  2  0  0  0  0
  7  3  1  0  0  0  0
 12 11  1  0  0  0  0
 12 13  1  0  0  0  0
 13 23  1  0  0  0  0
 14 13  2  0  0  0  0
 14  2  1  0  0  0  0
 15 14  1  0  0  0  0
 16 17  1  0  0  0  0
 16 15  2  0  0  0  0
 17 12  2  0  0  0  0
 18 15  1  0  0  0  0
 19 16  1  0  0  0  0
 20 17  1  0  0  0  0
 21 26  1  0  0  0  0
 21 27  1  0  0  0  0
 22 21  2  0  0  0  0
 23 24  2  0  0  0  0
 23 22  1  0  0  0  0
 24 25  1  0  0  0  0
 25 29  1  0  0  0  0
 25 26  2  0  0  0  0
 28 22  1  0  0  0  0
 30 32  2  0  0  0  0
 30 31  2  0  0  0  0
 30  1  1  0  0  0  0
 33 34  1  0  0  0  0
 34 30  1  0  0  0  0
 35 36  1  0  0  0  0
 35 34  2  0  0  0  0
 37 35  1  0  0  0  0
 38 39  1  0  0  0  0
 38 37  1  0  0  0  0
 40 38  1  0  0  0  0
 41 40  2  0  0  0  0
 41 43  1  0  0  0  0
 42 41  1  0  0  0  0
 43 44  1  0  0  0  0
 43 37  2  0  0  0  0
 44 33  2  0  0  0  0
M  END
>  <minimizedAffinity>
-4.00622272

>  <minimizedRMSD>
6.8067956

$$$$
