
 OpenBabel03252508313D

 35 38  0  0  1  0  0  0  0  0999 V2000
   44.3510   34.4990   41.8260 N   0  0  0  0  0  0  0  0  0  0  0  0
   44.7260   33.4350   40.9760 C   0  0  1  0  0  0  0  0  0  0  0  0
   44.2890   33.5490   39.5630 C   0  0  0  0  0  0  0  0  0  0  0  0
   43.0110   34.0900   39.3620 N   0  0  0  0  0  0  0  0  0  0  0  0
   42.5820   35.0970   40.2470 C   0  0  0  0  0  0  0  0  0  0  0  0
   43.6940   35.5780   41.1410 C   0  0  0  0  0  0  0  0  0  0  0  0
   44.2550   32.5010   41.3820 H   0  0  0  0  0  0  0  0  0  0  0  0
   44.3640   32.5610   39.0620 H   0  0  0  0  0  0  0  0  0  0  0  0
   45.0310   34.2290   39.0500 H   0  0  0  0  0  0  0  0  0  0  0  0
   42.6490   34.0660   38.4130 H   0  0  0  0  0  0  0  0  0  0  0  0
   41.7340   34.7840   40.9200 H   0  0  0  0  0  0  0  0  0  0  0  0
   42.1900   35.9640   39.6820 H   0  0  0  0  0  0  0  0  0  0  0  0
   44.4590   36.1650   40.5690 H   0  0  0  0  0  0  0  0  0  0  0  0
   43.2130   36.3050   41.8260 H   0  0  0  0  0  0  0  0  0  0  0  0
   46.9810   34.2590   40.6710 C   0  0  0  0  0  3  0  0  0  0  0  0
   46.2070   33.1460   40.9730 C   0  0  0  0  0  0  0  0  0  0  0  0
   46.8670   31.9610   41.2070 C   0  0  0  0  0  0  0  0  0  0  0  0
   46.1730   31.1450   41.4350 H   0  0  0  0  0  0  0  0  0  0  0  0
   48.2180   31.8920   41.1450 C   0  0  0  0  0  0  0  0  0  0  0  0
   48.9780   30.8110   41.3490 N   0  0  0  0  0  0  0  0  0  0  0  0
   48.7310   29.8140   41.5930 H   0  0  0  0  0  0  0  0  0  0  0  0
   50.2350   31.1640   41.1950 N   0  0  0  0  0  0  0  0  0  0  0  0
   50.2950   32.4600   40.8930 C   0  0  0  0  0  0  0  0  0  0  0  0
   51.1740   33.0820   40.6990 H   0  0  0  0  0  0  0  0  0  0  0  0
   49.0110   32.9800   40.8490 C   0  0  0  0  0  0  0  0  0  0  0  0
   48.3760   34.1640   40.6120 C   0  0  0  0  0  3  0  0  0  0  0  0
   44.3510   35.5670   43.9630 C   0  0  0  0  0  0  0  0  0  0  0  0
   44.6460   34.4130   43.2060 C   0  0  0  0  0  0  0  0  0  0  0  0
   45.1910   33.3230   43.8570 C   0  0  0  0  0  0  0  0  0  0  0  0
   45.4350   33.3670   45.1930 N   0  0  0  0  0  0  0  0  0  0  0  0
   45.1410   34.4950   45.9070 C   0  0  0  0  0  0  0  0  0  0  0  0
   44.6090   35.5730   45.2960 N   0  0  0  0  0  0  0  0  0  0  0  0
   43.9310   36.5080   43.6490 H   0  0  0  0  0  0  0  0  0  0  0  0
   45.4080   32.4470   43.2830 H   0  0  0  0  0  0  0  0  0  0  0  0
   45.3450   34.5080   46.9780 H   0  0  0  0  0  0  0  0  0  0  0  0
  1 28  1  0  0  0  0
  2  7  1  1  0  0  0
  2  1  1  0  0  0  0
  3  2  1  0  0  0  0
  4  3  1  0  0  0  0
  4  5  1  0  0  0  0
  5 11  1  0  0  0  0
  5  6  1  0  0  0  0
  6  1  1  0  0  0  0
  6 14  1  0  0  0  0
  8  3  1  0  0  0  0
  9  3  1  0  0  0  0
 10  4  1  0  0  0  0
 12  5  1  0  0  0  0
 13  6  1  0  0  0  0
 15 16  1  0  0  0  0
 16  2  1  0  0  0  0
 16 17  2  0  0  0  0
 17 18  1  0  0  0  0
 19 17  1  0  0  0  0
 19 20  1  0  0  0  0
 20 21  1  0  0  0  0
 22 20  1  0  0  0  0
 23 22  2  0  0  0  0
 24 23  1  0  0  0  0
 25 23  1  0  0  0  0
 25 19  2  0  0  0  0
 26 15  2  0  0  0  0
 26 25  1  0  0  0  0
 27 32  1  0  0  0  0
 28 29  1  0  0  0  0
 28 27  2  0  0  0  0
 29 30  2  0  0  0  0
 30 31  1  0  0  0  0
 31 35  1  0  0  0  0
 32 31  2  0  0  0  0
 33 27  1  0  0  0  0
 34 29  1  0  0  0  0
M  END
>  <minimizedAffinity>
-4.71062803

>  <minimizedRMSD>
1.08714521

$$$$
