
 OpenBabel03242519253D

 43 47  0  0  0  0  0  0  0  0999 V2000
   47.9150   33.7940   42.8950 C   0  0  0  0  0  0  0  0  0  0  0  0
   48.5770   35.0020   42.6590 C   0  0  0  0  0  0  0  0  0  0  0  0
   49.9440   35.0130   42.3360 C   0  0  0  0  0  0  0  0  0  0  0  0
   50.5520   33.7780   42.2730 N   0  0  0  0  0  0  0  0  0  0  0  0
   49.8710   32.6170   42.5110 C   0  0  0  0  0  0  0  0  0  0  0  0
   48.5770   32.6370   42.8150 N   0  0  0  0  0  0  0  0  0  0  0  0
   48.1840   36.0090   42.6860 H   0  0  0  0  0  0  0  0  0  0  0  0
   50.5180   35.9030   42.1430 H   0  0  0  0  0  0  0  0  0  0  0  0
   46.4840   33.9170   43.2300 C   0  0  0  0  0  0  0  0  0  0  0  0
   45.7740   34.9170   42.4340 C   0  0  0  0  0  0  0  0  0  0  0  0
   45.3180   36.1050   43.2000 C   0  0  0  0  0  0  0  0  0  0  0  0
   44.5320   35.7560   44.4510 C   0  0  0  0  0  0  0  0  0  0  0  0
   44.9780   34.4820   45.1260 C   0  0  0  0  0  0  0  0  0  0  0  0
   46.4110   34.1720   44.7470 C   0  0  0  0  0  0  0  0  0  0  0  0
   46.0500   32.8810   43.1030 H   0  0  0  0  0  0  0  0  0  0  0  0
   44.8550   34.4610   41.9680 H   0  0  0  0  0  0  0  0  0  0  0  0
   46.4380   35.2790   41.6290 H   0  0  0  0  0  0  0  0  0  0  0  0
   46.0630   36.8770   43.4080 H   0  0  0  0  0  0  0  0  0  0  0  0
   44.5560   36.6210   42.5420 H   0  0  0  0  0  0  0  0  0  0  0  0
   44.7140   36.5790   45.1950 H   0  0  0  0  0  0  0  0  0  0  0  0
   43.4360   35.7510   44.2920 H   0  0  0  0  0  0  0  0  0  0  0  0
   44.8690   34.5020   46.2090 H   0  0  0  0  0  0  0  0  0  0  0  0
   44.3740   33.6600   44.6640 H   0  0  0  0  0  0  0  0  0  0  0  0
   47.0460   35.0880   44.9080 H   0  0  0  0  0  0  0  0  0  0  0  0
   46.7640   33.2940   45.2990 H   0  0  0  0  0  0  0  0  0  0  0  0
   50.6640   31.3970   42.4100 C   0  0  0  0  0  0  0  0  0  0  0  0
   51.5140   31.2970   41.3600 N   0  0  0  0  0  0  0  0  0  0  0  0
   52.1640   30.1230   41.4150 C   0  0  0  0  0  0  0  0  0  0  0  0
   51.7000   29.4790   42.5340 N   0  0  0  0  0  0  0  0  0  0  0  0
   50.7930   30.2580   43.1290 N   0  0  0  0  0  0  0  0  0  0  0  0
   52.9090   29.6900   40.7660 H   0  0  0  0  0  0  0  0  0  0  0  0
   52.9860   27.3650   42.5160 C   0  0  0  0  0  3  0  0  0  0  0  0
   52.0330   28.2090   43.0850 C   0  0  0  0  0  0  0  0  0  0  0  0
   51.4140   27.7510   44.2320 C   0  0  0  0  0  0  0  0  0  0  0  0
   50.6760   28.4020   44.6770 H   0  0  0  0  0  0  0  0  0  0  0  0
   51.6910   26.5310   44.8170 C   0  0  0  0  0  0  0  0  0  0  0  0
   51.1820   25.9450   45.9210 N   0  0  0  0  0  0  0  0  0  0  0  0
   50.4520   26.3820   46.5190 H   0  0  0  0  0  0  0  0  0  0  0  0
   51.7840   24.7710   46.0530 N   0  0  0  0  0  0  0  0  0  0  0  0
   52.6810   24.5890   45.0440 C   0  0  0  0  0  0  0  0  0  0  0  0
   53.3230   23.7440   44.8720 H   0  0  0  0  0  0  0  0  0  0  0  0
   52.6450   25.7000   44.2330 C   0  0  0  0  0  0  0  0  0  0  0  0
   53.2650   26.1470   43.0950 C   0  0  0  0  0  3  0  0  0  0  0  0
  1  9  1  0  0  0  0
  2  7  1  0  0  0  0
  2  1  2  0  0  0  0
  3  2  1  0  0  0  0
  4  3  2  0  0  0  0
  4  5  1  0  0  0  0
  5  6  2  0  0  0  0
  6  1  1  0  0  0  0
  8  3  1  0  0  0  0
  9 14  1  0  0  0  0
 10 11  1  0  0  0  0
 10  9  1  0  0  0  0
 11 18  1  0  0  0  0
 11 12  1  0  0  0  0
 12 13  1  0  0  0  0
 12 20  1  0  0  0  0
 13 22  1  0  0  0  0
 14 24  1  0  0  0  0
 14 13  1  0  0  0  0
 14 25  1  0  0  0  0
 15  9  1  0  0  0  0
 16 10  1  0  0  0  0
 17 10  1  0  0  0  0
 19 11  1  0  0  0  0
 21 12  1  0  0  0  0
 23 13  1  0  0  0  0
 26  5  1  0  0  0  0
 26 30  2  0  0  0  0
 27 28  2  0  0  0  0
 27 26  1  0  0  0  0
 28 29  1  0  0  0  0
 29 33  1  0  0  0  0
 29 30  1  0  0  0  0
 31 28  1  0  0  0  0
 32 33  2  0  0  0  0
 32 43  1  0  0  0  0
 33 34  1  0  0  0  0
 34 35  1  0  0  0  0
 34 36  2  0  0  0  0
 36 37  1  0  0  0  0
 37 39  1  0  0  0  0
 37 38  1  0  0  0  0
 40 39  2  0  0  0  0
 41 40  1  0  0  0  0
 42 36  1  0  0  0  0
 42 40  1  0  0  0  0
 43 42  2  0  0  0  0
M  END
>  <minimizedAffinity>
-4.22289181

>  <minimizedRMSD>
0.921129763

$$$$
