
     RDKit          3D

 38 40  0  0  0  0  0  0  0  0999 V2000
   44.8798   36.1811   43.1990 C   0  0  0  0  0  0  0  0  0  0  0  0
   45.0832   34.7464   45.1482 C   0  0  0  0  0  0  0  0  0  0  0  0
   45.5218   35.0835   43.8783 C   0  0  0  0  0  0  0  0  0  0  0  0
   46.5531   34.3257   43.3634 C   0  0  0  0  0  0  0  0  0  0  0  0
   47.0960   33.2971   44.0961 N   0  0  0  0  0  0  0  0  0  0  0  0
   46.6437   33.0010   45.3234 C   0  0  0  0  0  0  0  0  0  0  0  0
   45.6153   33.7414   45.8611 N   0  0  0  0  0  0  0  0  0  0  0  0
   46.9938   34.7095   42.0131 C   0  0  0  0  0  0  0  0  0  0  0  0
   47.8945   33.7633   41.5440 F   0  0  0  0  0  0  0  0  0  0  0  0
   47.6639   35.8875   42.1296 F   0  0  0  0  0  0  0  0  0  0  0  0
   45.9642   34.6820   41.1325 F   0  0  0  0  0  0  0  0  0  0  0  0
   44.8190   37.3623   44.0646 N   0  0  0  0  0  0  0  0  0  0  0  0
   45.7429   38.3292   43.5322 C   0  0  0  0  0  0  0  0  0  0  0  0
   45.3509   39.7459   43.8725 C   0  0  0  0  0  0  0  0  0  0  0  0
   45.3189   39.9049   45.6830 S   0  0  0  0  0  0  0  0  0  0  0  0
   45.2312   36.5030   42.2374 H   0  0  0  0  0  0  0  0  0  0  0  0
   43.8013   35.8768   43.0374 H   0  0  0  0  0  0  0  0  0  0  0  0
   44.2778   35.2725   45.6550 H   0  0  0  0  0  0  0  0  0  0  0  0
   47.1547   32.1709   45.7928 H   0  0  0  0  0  0  0  0  0  0  0  0
   43.8753   37.8068   44.0144 H   0  0  0  0  0  0  0  0  0  0  0  0
   46.7490   38.0706   43.9126 H   0  0  0  0  0  0  0  0  0  0  0  0
   45.6808   38.2633   42.4156 H   0  0  0  0  0  0  0  0  0  0  0  0
   44.3071   39.8795   43.5095 H   0  0  0  0  0  0  0  0  0  0  0  0
   46.0354   40.4395   43.3888 H   0  0  0  0  0  0  0  0  0  0  0  0
   43.5186   41.8644   46.3117 C   0  0  0  0  0  0  0  0  0  0  0  0
   44.8558   41.5799   46.1382 C   0  0  0  0  0  0  0  0  0  0  0  0
   45.8292   42.5457   46.3057 C   0  0  0  0  0  0  0  0  0  0  0  0
   46.8700   42.3289   46.1718 H   0  0  0  0  0  0  0  0  0  0  0  0
   45.4962   43.8445   46.6567 C   0  0  0  0  0  0  0  0  0  0  0  0
   46.2280   44.9679   46.8822 N   0  0  0  0  0  0  0  0  0  0  0  0
   47.2834   45.0490   46.8217 H   0  0  0  0  0  0  0  0  0  0  0  0
   45.3963   45.9718   47.1973 N   0  0  0  0  0  0  0  0  0  0  0  0
   44.1323   45.4867   47.1725 C   0  0  0  0  0  0  0  0  0  0  0  0
   43.2221   46.0298   47.3782 H   0  0  0  0  0  0  0  0  0  0  0  0
   44.1502   44.1452   46.8349 C   0  0  0  0  0  0  0  0  0  0  0  0
   43.1941   43.1752   46.6651 C   0  0  0  0  0  0  0  0  0  0  0  0
   42.7369   41.1177   46.1845 H   0  0  0  0  0  0  0  0  0  0  0  0
   42.1715   43.4790   46.8194 H   0  0  0  0  0  0  0  0  0  0  0  0
  1  3  1  0
  1 12  1  0
  2  7  2  0
  3  2  1  0
  4  3  2  0
  4  5  1  0
  5  6  2  0
  6  7  1  0
  8 10  1  0
  8  4  1  0
  9  8  1  0
 11  8  1  0
 13 14  1  0
 13 12  1  0
 14 15  1  0
  1 16  1  0
  1 17  1  0
  2 18  1  0
  6 19  1  0
 12 20  1  0
 13 21  1  0
 13 22  1  0
 14 23  1  0
 14 24  1  0
 25 26  2  0
 26 27  1  0
 27 28  1  0
 27 29  2  0
 29 30  1  0
 30 31  1  0
 30 32  1  0
 32 33  2  0
 33 34  1  0
 33 35  1  0
 35 36  2  0
 36 25  1  0
 35 29  1  0
 25 37  1  0
 36 38  1  0
 15 26  1  0
M  ISO  8  16   8  17   8  18  14  19  14  20   5  21   8  22   8  23   8
M  ISO  4  24   8  28  16  31   5  34  15
M  END
>  <DihAtoms>  (1) 
13,14,25,24

>  <DihDeg>  (1) 
179.99597738578518

$$$$
