
 OpenBabel03242519163D

 45 49  0  0  1  0  0  0  0  0999 V2000
   48.3410   34.2290   40.9260 C   0  0  0  0  0  0  0  0  0  0  0  0
   47.8800   34.3790   39.6380 C   0  0  0  0  0  0  0  0  0  0  0  0
   48.2390   33.5150   38.6010 C   0  0  0  0  0  0  0  0  0  0  0  0
   49.0830   32.5030   38.9500 N   0  0  0  0  0  0  0  0  0  0  0  0
   49.5280   32.3620   40.2070 C   0  0  0  0  0  0  0  0  0  0  0  0
   49.1620   33.2110   41.1730 N   0  0  0  0  0  0  0  0  0  0  0  0
   47.2160   35.2020   39.4400 H   0  0  0  0  0  0  0  0  0  0  0  0
   47.8580   33.6620   37.5990 H   0  0  0  0  0  0  0  0  0  0  0  0
   50.4300   31.2410   40.6040 C   0  0  2  0  0  0  0  0  0  0  0  0
   51.1860   31.3480   41.8910 C   0  0  0  0  0  0  0  0  0  0  0  0
   51.8950   31.5080   40.5400 C   0  0  1  0  0  0  0  0  0  0  0  0
   50.0610   30.2320   40.3320 H   0  0  0  0  0  0  0  0  0  0  0  0
   51.1390   32.2930   42.4690 H   0  0  0  0  0  0  0  0  0  0  0  0
   51.3800   30.4620   42.5080 H   0  0  0  0  0  0  0  0  0  0  0  0
   52.2460   32.5020   40.2530 H   0  0  0  0  0  0  0  0  0  0  0  0
   52.1940   29.3060   39.4580 C   0  0  0  0  0  3  0  0  0  0  0  0
   52.7320   30.3250   40.2070 C   0  0  0  0  0  0  0  0  0  0  0  0
   54.0380   30.2870   40.6650 C   0  0  0  0  0  0  0  0  0  0  0  0
   54.4940   31.0730   41.2570 H   0  0  0  0  0  0  0  0  0  0  0  0
   54.7520   29.1540   40.3140 C   0  0  0  0  0  0  0  0  0  0  0  0
   56.0140   28.7980   40.5840 N   0  0  0  0  0  0  0  0  0  0  0  0
   56.7670   29.2900   41.1260 H   0  0  0  0  0  0  0  0  0  0  0  0
   56.3310   27.6290   40.0670 N   0  0  0  0  0  0  0  0  0  0  0  0
   55.2430   27.1450   39.4070 C   0  0  0  0  0  0  0  0  0  0  0  0
   55.0820   26.2280   38.8510 H   0  0  0  0  0  0  0  0  0  0  0  0
   54.2510   28.1130   39.5660 C   0  0  0  0  0  0  0  0  0  0  0  0
   52.9370   28.1960   39.1300 C   0  0  0  0  0  3  0  0  0  0  0  0
   47.9480   35.1280   41.9920 C   0  0  0  0  0  0  0  0  0  0  0  0
   48.5720   35.0220   42.8920 H   0  0  0  0  0  0  0  0  0  0  0  0
   48.0960   36.1790   41.6310 H   0  0  0  0  0  0  0  0  0  0  0  0
   46.4930   34.9570   42.2990 C   0  0  0  0  0  0  0  0  0  0  0  0
   45.9250   35.9210   42.2300 H   0  0  0  0  0  0  0  0  0  0  0  0
   46.0240   34.2760   41.5780 H   0  0  0  0  0  0  0  0  0  0  0  0
   44.5520   36.4260   44.0240 Cl  0  0  0  0  0  0  0  0  0  0  0  0
   45.3870   34.9760   44.5530 C   0  0  0  0  0  0  0  0  0  0  0  0
   46.2480   34.3960   43.6550 C   0  0  0  0  0  0  0  0  0  0  0  0
   46.9000   33.2410   44.0640 C   0  0  0  0  0  0  0  0  0  0  0  0
   46.6860   32.7050   45.3250 C   0  0  0  0  0  0  0  0  0  0  0  0
   45.8020   33.3240   46.2120 C   0  0  0  0  0  0  0  0  0  0  0  0
   45.1630   34.4600   45.8030 C   0  0  0  0  0  0  0  0  0  0  0  0
   47.5970   32.7260   43.4070 H   0  0  0  0  0  0  0  0  0  0  0  0
   47.2110   31.8030   45.6120 H   0  0  0  0  0  0  0  0  0  0  0  0
   45.6260   32.9140   47.2010 H   0  0  0  0  0  0  0  0  0  0  0  0
   44.2600   35.1500   46.6220 O   0  0  0  0  0  0  0  0  0  0  0  0
   43.4380   34.6840   47.0050 H   0  0  0  0  0  0  0  0  0  0  0  0
  1  6  1  0  0  0  0
  1 28  1  0  0  0  0
  2  1  2  0  0  0  0
  3  4  2  0  0  0  0
  3  2  1  0  0  0  0
  4  5  1  0  0  0  0
  5  9  1  0  0  0  0
  5  6  2  0  0  0  0
  7  2  1  0  0  0  0
  8  3  1  0  0  0  0
  9 12  1  6  0  0  0
  9 10  1  0  0  0  0
 10 13  1  0  0  0  0
 10 14  1  0  0  0  0
 11 15  1  6  0  0  0
 11  9  1  0  0  0  0
 11 10  1  0  0  0  0
 16 17  1  0  0  0  0
 17 11  1  0  0  0  0
 17 18  2  0  0  0  0
 18 19  1  0  0  0  0
 20 21  1  0  0  0  0
 20 18  1  0  0  0  0
 21 22  1  0  0  0  0
 23 21  1  0  0  0  0
 24 26  1  0  0  0  0
 24 23  2  0  0  0  0
 25 24  1  0  0  0  0
 26 20  2  0  0  0  0
 27 16  2  0  0  0  0
 27 26  1  0  0  0  0
 28 31  1  0  0  0  0
 28 29  1  0  0  0  0
 30 28  1  0  0  0  0
 31 36  1  0  0  0  0
 32 31  1  0  0  0  0
 33 31  1  0  0  0  0
 34 35  1  0  0  0  0
 35 40  1  0  0  0  0
 36 37  1  0  0  0  0
 36 35  2  0  0  0  0
 37 38  2  0  0  0  0
 38 42  1  0  0  0  0
 38 39  1  0  0  0  0
 39 43  1  0  0  0  0
 40 39  2  0  0  0  0
 40 44  1  0  0  0  0
 41 37  1  0  0  0  0
 44 45  1  0  0  0  0
M  END
>  <minimizedAffinity>
-5.85409498

>  <minimizedRMSD>
0.538899422

$$$$
