
 OpenBabel03242522203D

 48 52  0  0  0  0  0  0  0  0999 V2000
   42.2700   34.9320   39.8610 C   0  0  0  0  0  0  0  0  0  0  0  0
   41.8510   35.1340   38.5770 C   0  0  0  0  0  0  0  0  0  0  0  0
   40.6830   34.6620   38.0020 C   0  0  0  0  0  0  0  0  0  0  0  0
   39.8900   33.9210   38.8410 C   0  0  0  0  0  0  0  0  0  0  0  0
   40.3000   33.7120   40.1330 C   0  0  0  0  0  0  0  0  0  0  0  0
   41.4350   34.1840   40.6490 N   0  0  0  0  0  0  0  0  0  0  0  0
   42.5400   35.7330   37.9770 H   0  0  0  0  0  0  0  0  0  0  0  0
   40.4470   34.8760   36.9880 H   0  0  0  0  0  0  0  0  0  0  0  0
   39.3610   32.8950   40.9470 C   0  0  0  0  0  0  0  0  0  0  0  0
   38.0390   33.3330   40.7080 F   0  0  0  0  0  0  0  0  0  0  0  0
   39.6670   32.8710   42.2790 F   0  0  0  0  0  0  0  0  0  0  0  0
   39.3710   31.5780   40.5190 F   0  0  0  0  0  0  0  0  0  0  0  0
   43.4660   35.3850   40.5370 C   0  0  0  0  0  0  0  0  0  0  0  0
   44.3470   34.8180   40.1650 H   0  0  0  0  0  0  0  0  0  0  0  0
   43.6500   36.4410   40.2400 H   0  0  0  0  0  0  0  0  0  0  0  0
   43.4680   35.3040   42.0310 C   0  0  0  0  0  0  0  0  0  0  0  0
   43.2990   36.2890   42.5060 H   0  0  0  0  0  0  0  0  0  0  0  0
   42.6140   34.6570   42.3270 H   0  0  0  0  0  0  0  0  0  0  0  0
   46.7000   33.5900   42.6130 C   0  0  0  0  0  0  0  0  0  0  0  0
   46.8190   33.8100   43.9460 C   0  0  0  0  0  0  0  0  0  0  0  0
   45.2850   34.7620   44.3080 S   0  0  0  0  0  0  0  0  0  0  0  0
   44.7300   34.6940   42.5340 C   0  0  0  0  0  0  0  0  0  0  0  0
   45.6180   34.0960   42.1020 N   0  0  0  0  0  0  0  0  0  0  0  0
   47.6150   33.4960   44.5880 H   0  0  0  0  0  0  0  0  0  0  0  0
   49.3800   32.6660   40.1350 C   0  0  0  0  0  0  0  0  0  0  0  0
   48.4600   33.4450   40.8590 C   0  0  0  0  0  0  0  0  0  0  0  0
   47.6880   32.8540   41.8080 C   0  0  0  0  0  0  0  0  0  0  0  0
   47.8710   31.4760   42.0000 N   0  0  0  0  0  0  0  0  0  0  0  0
   48.7650   30.7800   41.2810 C   0  0  0  0  0  0  0  0  0  0  0  0
   49.5180   31.3680   40.3520 N   0  0  0  0  0  0  0  0  0  0  0  0
   50.0190   33.0920   39.3680 H   0  0  0  0  0  0  0  0  0  0  0  0
   48.7500   29.7390   41.5820 H   0  0  0  0  0  0  0  0  0  0  0  0
   48.3990   34.8340   40.5390 N   0  0  0  0  0  0  0  0  0  0  0  0
   47.7280   34.8360   39.7320 H   0  0  0  0  0  0  0  0  0  0  0  0
   48.9460   35.5230   41.0720 H   0  0  0  0  0  0  0  0  0  0  0  0
   38.3530   33.2680   38.1770 S   0  0  0  0  0  0  0  0  0  0  0  0
   37.7950   31.8250   35.9970 C   0  0  0  0  0  3  0  0  0  0  0  0
   38.6030   31.8490   37.1410 C   0  0  0  0  0  0  0  0  0  0  0  0
   39.4890   30.8060   37.3520 C   0  0  0  0  0  0  0  0  0  0  0  0
   40.0570   30.9290   38.2590 H   0  0  0  0  0  0  0  0  0  0  0  0
   39.5780   29.7600   36.4580 C   0  0  0  0  0  0  0  0  0  0  0  0
   40.3720   28.6740   36.4980 N   0  0  0  0  0  0  0  0  0  0  0  0
   41.0670   28.4610   37.2540 H   0  0  0  0  0  0  0  0  0  0  0  0
   40.1290   27.9270   35.4320 N   0  0  0  0  0  0  0  0  0  0  0  0
   39.1640   28.5440   34.6960 C   0  0  0  0  0  0  0  0  0  0  0  0
   38.7170   28.2160   33.7580 H   0  0  0  0  0  0  0  0  0  0  0  0
   38.7970   29.7050   35.3200 C   0  0  0  0  0  0  0  0  0  0  0  0
   37.9270   30.7490   35.1320 C   0  0  0  0  0  3  0  0  0  0  0  0
  1 13  1  0  0  0  0
  1  6  1  0  0  0  0
  2  1  2  0  0  0  0
  3  2  1  0  0  0  0
  3  4  2  0  0  0  0
  4  5  1  0  0  0  0
  5  6  2  0  0  0  0
  5  9  1  0  0  0  0
  7  2  1  0  0  0  0
  8  3  1  0  0  0  0
  9 11  1  0  0  0  0
 10  9  1  0  0  0  0
 12  9  1  0  0  0  0
 13 16  1  0  0  0  0
 14 13  1  0  0  0  0
 15 13  1  0  0  0  0
 16 18  1  0  0  0  0
 16 17  1  0  0  0  0
 16 22  1  0  0  0  0
 19 20  2  0  0  0  0
 20 21  1  0  0  0  0
 20 24  1  0  0  0  0
 22 21  1  0  0  0  0
 23 22  2  0  0  0  0
 23 19  1  0  0  0  0
 25 30  2  0  0  0  0
 25 26  1  0  0  0  0
 26 27  2  0  0  0  0
 27 28  1  0  0  0  0
 27 19  1  0  0  0  0
 29 32  1  0  0  0  0
 29 28  2  0  0  0  0
 30 29  1  0  0  0  0
 31 25  1  0  0  0  0
 33 26  1  0  0  0  0
 33 35  1  0  0  0  0
 34 33  1  0  0  0  0
 36  4  1  0  0  0  0
 37 38  1  0  0  0  0
 38 39  2  0  0  0  0
 38 36  1  0  0  0  0
 39 40  1  0  0  0  0
 41 42  1  0  0  0  0
 41 39  1  0  0  0  0
 42 43  1  0  0  0  0
 44 42  1  0  0  0  0
 45 47  1  0  0  0  0
 45 44  2  0  0  0  0
 46 45  1  0  0  0  0
 47 41  2  0  0  0  0
 48 47  1  0  0  0  0
 48 37  2  0  0  0  0
M  END
>  <minimizedAffinity>
-5.7740283

>  <minimizedRMSD>
0.371999174

$$$$
