
 OpenBabel03252508033D

 45 49  0  0  1  0  0  0  0  0999 V2000
   42.1710   33.2790   41.2100 C   0  0  0  0  0  0  0  0  0  0  0  0
   42.8590   34.4470   41.3690 C   0  0  0  0  0  0  0  0  0  0  0  0
   42.1390   35.6530   41.2710 C   0  0  0  0  0  0  0  0  0  0  0  0
   40.7890   35.7100   41.0280 C   0  0  0  0  0  0  0  0  0  0  0  0
   40.1060   34.5350   40.8700 C   0  0  0  0  0  0  0  0  0  0  0  0
   40.7940   33.3600   40.9610 C   0  0  0  0  0  0  0  0  0  0  0  0
   42.6020   36.6280   41.3750 H   0  0  0  0  0  0  0  0  0  0  0  0
   40.2530   36.6350   40.9550 H   0  0  0  0  0  0  0  0  0  0  0  0
   39.0590   34.4820   40.6780 H   0  0  0  0  0  0  0  0  0  0  0  0
   40.2480   32.4110   40.8350 H   0  0  0  0  0  0  0  0  0  0  0  0
   42.9140   31.7710   41.3420 S   0  0  0  0  0  0  0  0  0  0  0  0
   42.2420   30.9910   40.1940 O   0  0  0  0  0  0  0  0  0  0  0  0
   42.5240   31.0890   42.6430 O   0  0  0  0  0  0  0  0  0  0  0  0
   45.1860   30.5090   41.8360 C   0  0  0  0  0  3  0  0  0  0  0  0
   44.3950   31.1930   40.8770 C   0  0  0  0  0  0  0  0  0  0  0  0
   45.0410   31.2170   39.6150 C   0  0  0  0  0  0  0  0  0  0  0  0
   44.4120   31.7400   38.8680 H   0  0  0  0  0  0  0  0  0  0  0  0
   46.2490   30.7100   39.1940 C   0  0  0  0  0  0  0  0  0  0  0  0
   46.9670   30.6520   38.0950 N   0  0  0  0  0  0  0  0  0  0  0  0
   46.6450   31.0750   37.1990 H   0  0  0  0  0  0  0  0  0  0  0  0
   48.0600   29.9910   38.4230 N   0  0  0  0  0  0  0  0  0  0  0  0
   48.0610   29.6210   39.7140 C   0  0  0  0  0  0  0  0  0  0  0  0
   48.8390   29.0710   40.2290 H   0  0  0  0  0  0  0  0  0  0  0  0
   46.8620   30.0910   40.2430 C   0  0  0  0  0  0  0  0  0  0  0  0
   46.4050   29.9640   41.5220 C   0  0  0  0  0  3  0  0  0  0  0  0
   44.2910   34.4920   41.6230 C   0  0  0  0  0  0  0  0  0  0  0  0
   45.1860   34.4970   40.7140 O   0  0  0  0  0  0  0  0  0  0  0  0
   44.6100   34.5330   43.0200 C   0  0  0  0  0  0  0  0  0  0  0  0
   44.2930   35.7570   43.6990 C   0  0  0  0  0  0  0  0  0  0  0  0
   44.5860   35.8080   45.0540 C   0  0  0  0  0  0  0  0  0  0  0  0
   45.1430   34.7180   45.6430 N   0  0  0  0  0  0  0  0  0  0  0  0
   45.4260   33.5690   44.9490 C   0  0  0  0  0  0  0  0  0  0  0  0
   45.1540   33.5260   43.6940 N   0  0  0  0  0  0  0  0  0  0  0  0
   43.8620   36.6490   43.3150 H   0  0  0  0  0  0  0  0  0  0  0  0
   44.4020   36.6570   45.6780 H   0  0  0  0  0  0  0  0  0  0  0  0
   46.0240   32.4370   45.6760 C   0  0  1  0  0  0  0  0  0  0  0  0
   46.9780   32.7200   46.8210 C   0  0  0  0  0  0  0  0  0  0  0  0
   45.5650   32.2820   47.0830 C   0  0  1  0  0  0  0  0  0  0  0  0
   46.2530   31.5260   45.1320 H   0  0  0  0  0  0  0  0  0  0  0  0
   47.2860   33.7720   46.9160 H   0  0  0  0  0  0  0  0  0  0  0  0
   47.7840   32.0070   47.0440 H   0  0  0  0  0  0  0  0  0  0  0  0
   45.4530   31.2940   47.5580 H   0  0  0  0  0  0  0  0  0  0  0  0
   44.7900   33.3420   47.7100 N   0  0  0  0  0  0  0  0  0  0  0  0
   44.8780   33.3240   48.7500 H   0  0  0  0  0  0  0  0  0  0  0  0
   43.7770   33.0850   47.5340 H   0  0  0  0  0  0  0  0  0  0  0  0
  1 11  1  0  0  0  0
  1  2  1  0  0  0  0
  2 26  1  0  0  0  0
  3  2  2  0  0  0  0
  3  7  1  0  0  0  0
  4  3  1  0  0  0  0
  5  6  1  0  0  0  0
  5  4  2  0  0  0  0
  6  1  2  0  0  0  0
  8  4  1  0  0  0  0
  9  5  1  0  0  0  0
 10  6  1  0  0  0  0
 11 13  2  0  0  0  0
 12 11  2  0  0  0  0
 15 11  1  0  0  0  0
 15 14  2  0  0  0  0
 16 15  1  0  0  0  0
 17 16  1  0  0  0  0
 18 16  2  0  0  0  0
 18 24  1  0  0  0  0
 19 21  1  0  0  0  0
 19 18  1  0  0  0  0
 20 19  1  0  0  0  0
 21 22  2  0  0  0  0
 22 23  1  0  0  0  0
 22 24  1  0  0  0  0
 24 25  2  0  0  0  0
 25 14  1  0  0  0  0
 26 28  1  0  0  0  0
 27 26  2  0  0  0  0
 28 33  2  0  0  0  0
 28 29  1  0  0  0  0
 29 30  2  0  0  0  0
 30 31  1  0  0  0  0
 30 35  1  0  0  0  0
 32 31  2  0  0  0  0
 32 36  1  0  0  0  0
 33 32  1  0  0  0  0
 34 29  1  0  0  0  0
 36 39  1  6  0  0  0
 36 37  1  0  0  0  0
 36 38  1  0  0  0  0
 37 40  1  0  0  0  0
 37 41  1  0  0  0  0
 37 38  1  0  0  0  0
 38 42  1  1  0  0  0
 38 43  1  0  0  0  0
 43 44  1  0  0  0  0
 45 43  1  0  0  0  0
M  END
>  <minimizedAffinity>
-5.81731749

>  <minimizedRMSD>
1.09787929

$$$$
