
 OpenBabel03252500543D

 33 35  0  0  0  0  0  0  0  0999 V2000
   44.1670   33.7210   39.3450 O   0  0  0  0  0  0  0  0  0  0  0  0
   43.9760   33.1360   40.7410 P   0  0  1  0  0  0  0  0  0  0  0  0
   44.1440   31.4410   40.6290 O   0  0  0  0  0  0  0  0  0  0  0  0
   43.4310   30.9750   41.0920 H   0  0  0  0  0  0  0  0  0  0  0  0
   45.1890   33.7130   41.7700 O   0  0  0  0  0  0  0  0  0  0  0  0
   45.3280   33.5570   44.1250 C   0  0  0  0  0  0  0  0  0  0  0  0
   45.0090   34.3170   43.0080 C   0  0  0  0  0  0  0  0  0  0  0  0
   44.5320   35.6250   43.2110 C   0  0  0  0  0  0  0  0  0  0  0  0
   44.4200   36.0450   44.4960 N   0  0  0  0  0  0  0  0  0  0  0  0
   44.7390   35.2860   45.5580 C   0  0  0  0  0  0  0  0  0  0  0  0
   45.1860   34.0570   45.3600 N   0  0  0  0  0  0  0  0  0  0  0  0
   44.2960   36.1820   42.3420 H   0  0  0  0  0  0  0  0  0  0  0  0
   44.6430   35.6410   46.5750 H   0  0  0  0  0  0  0  0  0  0  0  0
   45.8300   32.1890   43.9820 C   0  0  0  0  0  0  0  0  0  0  0  0
   45.8470   31.9160   42.8860 H   0  0  0  0  0  0  0  0  0  0  0  0
   45.2160   31.4520   44.5090 H   0  0  0  0  0  0  0  0  0  0  0  0
   47.2720   32.1310   44.4440 C   0  0  0  0  0  0  0  0  0  0  0  0
   47.5490   31.0380   44.4700 H   0  0  0  0  0  0  0  0  0  0  0  0
   47.2520   32.4410   45.5090 H   0  0  0  0  0  0  0  0  0  0  0  0
   47.9250   32.7230   43.8030 H   0  0  0  0  0  0  0  0  0  0  0  0
   42.4110   33.4460   41.3100 O   0  0  0  0  0  0  0  0  0  0  0  0
   40.8020   34.8580   40.1030 C   0  0  0  0  0  3  0  0  0  0  0  0
   41.3720   33.6320   40.3810 C   0  0  0  0  0  0  0  0  0  0  0  0
   40.9030   32.5050   39.7120 C   0  0  0  0  0  0  0  0  0  0  0  0
   41.2690   31.5030   39.8460 H   0  0  0  0  0  0  0  0  0  0  0  0
   39.8780   32.5880   38.7730 C   0  0  0  0  0  0  0  0  0  0  0  0
   39.2320   31.6990   37.9870 N   0  0  0  0  0  0  0  0  0  0  0  0
   39.4310   30.6620   37.9600 H   0  0  0  0  0  0  0  0  0  0  0  0
   38.3090   32.3180   37.2560 N   0  0  0  0  0  0  0  0  0  0  0  0
   38.3340   33.6470   37.5520 C   0  0  0  0  0  0  0  0  0  0  0  0
   37.6860   34.3850   37.1000 H   0  0  0  0  0  0  0  0  0  0  0  0
   39.3010   33.8250   38.4900 C   0  0  0  0  0  0  0  0  0  0  0  0
   39.7850   34.9380   39.1710 C   0  0  0  0  0  3  0  0  0  0  0  0
  2  1  2  6  0  0  0
  2 21  1  0  0  0  0
  2  5  1  0  0  0  0
  3  2  1  0  0  0  0
  3  4  1  0  0  0  0
  5  7  1  0  0  0  0
  6 11  1  0  0  0  0
  7  8  1  0  0  0  0
  7  6  2  0  0  0  0
  8  9  2  0  0  0  0
  9 10  1  0  0  0  0
 10 13  1  0  0  0  0
 11 10  2  0  0  0  0
 12  8  1  0  0  0  0
 14  6  1  0  0  0  0
 14 17  1  0  0  0  0
 14 16  1  0  0  0  0
 15 14  1  0  0  0  0
 17 18  1  0  0  0  0
 17 19  1  0  0  0  0
 20 17  1  0  0  0  0
 22 23  1  0  0  0  0
 23 21  1  0  0  0  0
 24 25  1  0  0  0  0
 24 23  2  0  0  0  0
 26 24  1  0  0  0  0
 27 26  1  0  0  0  0
 28 27  1  0  0  0  0
 29 30  2  0  0  0  0
 29 27  1  0  0  0  0
 30 32  1  0  0  0  0
 31 30  1  0  0  0  0
 32 26  2  0  0  0  0
 32 33  1  0  0  0  0
 33 22  2  0  0  0  0
M  END
>  <minimizedAffinity>
-4.80550909

>  <minimizedRMSD>
4.18969154

$$$$
