
 OpenBabel03242515103D

 39 42  0  0  0  0  0  0  0  0999 V2000
   45.4430   31.7780   43.9330 N   0  0  0  0  0  0  0  0  0  0  0  0
   44.6050   31.1930   44.2210 H   0  0  0  0  0  0  0  0  0  0  0  0
   45.3500   33.7930   45.3670 C   0  0  0  0  0  0  0  0  0  0  0  0
   45.0490   35.1240   45.3740 C   0  0  0  0  0  0  0  0  0  0  0  0
   44.6070   35.8390   44.2760 C   0  0  0  0  0  0  0  0  0  0  0  0
   44.4550   35.1790   43.0940 C   0  0  0  0  0  0  0  0  0  0  0  0
   44.7450   33.8430   43.0340 C   0  0  0  0  0  0  0  0  0  0  0  0
   45.1880   33.1510   44.1560 C   0  0  0  0  0  0  0  0  0  0  0  0
   45.1490   35.7080   46.2900 H   0  0  0  0  0  0  0  0  0  0  0  0
   44.3700   36.8940   44.2920 H   0  0  0  0  0  0  0  0  0  0  0  0
   44.1110   35.7080   42.2100 H   0  0  0  0  0  0  0  0  0  0  0  0
   44.6070   33.3620   42.0650 H   0  0  0  0  0  0  0  0  0  0  0  0
   47.5420   31.9110   47.6070 C   0  0  0  0  0  0  0  0  0  0  0  0
   46.7620   31.7450   48.7470 C   0  0  0  0  0  0  0  0  0  0  0  0
   45.4660   32.2820   48.7550 C   0  0  0  0  0  0  0  0  0  0  0  0
   45.0060   32.9500   47.6530 N   0  0  0  0  0  0  0  0  0  0  0  0
   45.8090   33.0930   46.5450 C   0  0  0  0  0  0  0  0  0  0  0  0
   47.0430   32.5690   46.5630 N   0  0  0  0  0  0  0  0  0  0  0  0
   48.5320   31.4740   47.6600 H   0  0  0  0  0  0  0  0  0  0  0  0
   47.0630   31.2320   49.6440 H   0  0  0  0  0  0  0  0  0  0  0  0
   44.8060   32.1900   49.6090 H   0  0  0  0  0  0  0  0  0  0  0  0
   46.7880   30.9360   43.3160 S   0  0  0  0  0  0  0  0  0  0  0  0
   47.1700   31.5780   41.9770 O   0  0  0  0  0  0  0  0  0  0  0  0
   48.0200   31.4370   41.5160 H   0  0  0  0  0  0  0  0  0  0  0  0
   47.9830   30.9360   44.1980 O   0  0  0  0  0  0  0  0  0  0  0  0
   48.6640   31.6440   44.1640 H   0  0  0  0  0  0  0  0  0  0  0  0
   46.2530   29.3950   42.9090 O   0  0  0  0  0  0  0  0  0  0  0  0
   43.9290   28.8890   42.6310 C   0  0  0  0  0  3  0  0  0  0  0  0
   45.0950   28.8460   43.3740 C   0  0  0  0  0  0  0  0  0  0  0  0
   45.0970   28.2330   44.6240 C   0  0  0  0  0  0  0  0  0  0  0  0
   46.0240   28.2070   45.2000 H   0  0  0  0  0  0  0  0  0  0  0  0
   43.9360   27.6670   45.1250 C   0  0  0  0  0  0  0  0  0  0  0  0
   43.6350   27.0230   46.2680 N   0  0  0  0  0  0  0  0  0  0  0  0
   44.3540   26.8580   47.0090 H   0  0  0  0  0  0  0  0  0  0  0  0
   42.3610   26.6660   46.2770 N   0  0  0  0  0  0  0  0  0  0  0  0
   41.7630   27.0600   45.1370 C   0  0  0  0  0  0  0  0  0  0  0  0
   40.7240   26.9190   44.8390 H   0  0  0  0  0  0  0  0  0  0  0  0
   42.7600   27.6930   44.4090 C   0  0  0  0  0  0  0  0  0  0  0  0
   42.7870   28.3090   43.1690 C   0  0  0  0  0  3  0  0  0  0  0  0
  1  8  1  0  0  0  0
  1  2  1  0  0  0  0
  3  4  1  0  0  0  0
  3 17  1  0  0  0  0
  4  9  1  0  0  0  0
  5 10  1  0  0  0  0
  5  4  2  0  0  0  0
  6  5  1  0  0  0  0
  7  6  2  0  0  0  0
  7  8  1  0  0  0  0
  8  3  2  0  0  0  0
 11  6  1  0  0  0  0
 12  7  1  0  0  0  0
 13 19  1  0  0  0  0
 13 14  1  0  0  0  0
 14 15  2  0  0  0  0
 14 20  1  0  0  0  0
 15 21  1  0  0  0  0
 16 15  1  0  0  0  0
 17 18  1  0  0  0  0
 17 16  2  0  0  0  0
 18 13  2  0  0  0  0
 22  1  1  0  0  0  0
 22 25  1  0  0  0  0
 23 22  1  0  0  0  0
 24 23  1  0  0  0  0
 26 25  1  0  0  0  0
 27 22  1  0  0  0  0
 27 29  1  0  0  0  0
 28 39  2  0  0  0  0
 28 29  1  0  0  0  0
 29 30  2  0  0  0  0
 30 32  1  0  0  0  0
 30 31  1  0  0  0  0
 32 33  1  0  0  0  0
 33 35  1  0  0  0  0
 33 34  1  0  0  0  0
 36 35  2  0  0  0  0
 37 36  1  0  0  0  0
 38 32  2  0  0  0  0
 38 36  1  0  0  0  0
 39 38  1  0  0  0  0
M  END
>  <minimizedAffinity>
-4.47294426

>  <minimizedRMSD>
6.03712845

$$$$
