
 OpenBabel03252508033D

 45 49  0  0  1  0  0  0  0  0999 V2000
   42.2060   33.2780   41.1800 C   0  0  0  0  0  0  0  0  0  0  0  0
   42.8570   34.4590   41.3860 C   0  0  0  0  0  0  0  0  0  0  0  0
   42.0970   35.6450   41.3420 C   0  0  0  0  0  0  0  0  0  0  0  0
   40.7460   35.6680   41.1050 C   0  0  0  0  0  0  0  0  0  0  0  0
   40.1000   34.4800   40.8990 C   0  0  0  0  0  0  0  0  0  0  0  0
   40.8250   33.3250   40.9380 C   0  0  0  0  0  0  0  0  0  0  0  0
   42.5300   36.6280   41.4870 H   0  0  0  0  0  0  0  0  0  0  0  0
   40.1800   36.5780   41.0730 H   0  0  0  0  0  0  0  0  0  0  0  0
   39.0550   34.4020   40.7070 H   0  0  0  0  0  0  0  0  0  0  0  0
   40.3100   32.3650   40.7730 H   0  0  0  0  0  0  0  0  0  0  0  0
   42.9970   31.7900   41.2450 S   0  0  0  0  0  0  0  0  0  0  0  0
   42.2470   30.9900   40.1610 O   0  0  0  0  0  0  0  0  0  0  0  0
   42.7420   31.1000   42.5750 O   0  0  0  0  0  0  0  0  0  0  0  0
   45.3260   30.5670   41.5310 C   0  0  0  0  0  3  0  0  0  0  0  0
   44.4460   31.2500   40.6510 C   0  0  0  0  0  0  0  0  0  0  0  0
   44.9870   31.3090   39.3410 C   0  0  0  0  0  0  0  0  0  0  0  0
   44.2900   31.8320   38.6580 H   0  0  0  0  0  0  0  0  0  0  0  0
   46.1650   30.8340   38.8150 C   0  0  0  0  0  0  0  0  0  0  0  0
   46.7950   30.8090   37.6620 N   0  0  0  0  0  0  0  0  0  0  0  0
   46.3930   31.2410   36.8020 H   0  0  0  0  0  0  0  0  0  0  0  0
   47.9230   30.1660   37.8880 N   0  0  0  0  0  0  0  0  0  0  0  0
   48.0350   29.7740   39.1680 C   0  0  0  0  0  0  0  0  0  0  0  0
   48.8630   29.2310   39.6080 H   0  0  0  0  0  0  0  0  0  0  0  0
   46.8750   30.2110   39.8010 C   0  0  0  0  0  0  0  0  0  0  0  0
   46.5250   30.0530   41.1100 C   0  0  0  0  0  3  0  0  0  0  0  0
   44.2870   34.5390   41.6400 C   0  0  0  0  0  0  0  0  0  0  0  0
   45.1800   34.5850   40.7290 O   0  0  0  0  0  0  0  0  0  0  0  0
   44.6070   34.5650   43.0370 C   0  0  0  0  0  0  0  0  0  0  0  0
   44.2930   35.7810   43.7290 C   0  0  0  0  0  0  0  0  0  0  0  0
   44.5870   35.8180   45.0840 C   0  0  0  0  0  0  0  0  0  0  0  0
   45.1440   34.7210   45.6610 N   0  0  0  0  0  0  0  0  0  0  0  0
   45.4260   33.5790   44.9540 C   0  0  0  0  0  0  0  0  0  0  0  0
   45.1520   33.5500   43.6990 N   0  0  0  0  0  0  0  0  0  0  0  0
   43.8620   36.6790   43.3550 H   0  0  0  0  0  0  0  0  0  0  0  0
   44.4050   36.6600   45.7180 H   0  0  0  0  0  0  0  0  0  0  0  0
   46.0230   32.4390   45.6670 C   0  0  1  0  0  0  0  0  0  0  0  0
   46.9800   32.7080   46.8130 C   0  0  0  0  0  0  0  0  0  0  0  0
   45.5670   32.2700   47.0740 C   0  0  1  0  0  0  0  0  0  0  0  0
   46.2490   31.5320   45.1130 H   0  0  0  0  0  0  0  0  0  0  0  0
   47.2910   33.7590   46.9170 H   0  0  0  0  0  0  0  0  0  0  0  0
   47.7860   31.9920   47.0270 H   0  0  0  0  0  0  0  0  0  0  0  0
   45.4540   31.2770   47.5390 H   0  0  0  0  0  0  0  0  0  0  0  0
   44.7960   33.3250   47.7140 N   0  0  0  0  0  0  0  0  0  0  0  0
   44.8870   33.2960   48.7540 H   0  0  0  0  0  0  0  0  0  0  0  0
   43.7820   33.0720   47.5380 H   0  0  0  0  0  0  0  0  0  0  0  0
  1 11  1  0  0  0  0
  1  2  1  0  0  0  0
  2 26  1  0  0  0  0
  3  2  2  0  0  0  0
  3  7  1  0  0  0  0
  4  3  1  0  0  0  0
  5  6  1  0  0  0  0
  5  4  2  0  0  0  0
  6  1  2  0  0  0  0
  8  4  1  0  0  0  0
  9  5  1  0  0  0  0
 10  6  1  0  0  0  0
 11 13  2  0  0  0  0
 12 11  2  0  0  0  0
 15 11  1  0  0  0  0
 15 14  2  0  0  0  0
 16 15  1  0  0  0  0
 17 16  1  0  0  0  0
 18 16  2  0  0  0  0
 18 24  1  0  0  0  0
 19 21  1  0  0  0  0
 19 18  1  0  0  0  0
 20 19  1  0  0  0  0
 21 22  2  0  0  0  0
 22 23  1  0  0  0  0
 22 24  1  0  0  0  0
 24 25  2  0  0  0  0
 25 14  1  0  0  0  0
 26 28  1  0  0  0  0
 27 26  2  0  0  0  0
 28 33  2  0  0  0  0
 28 29  1  0  0  0  0
 29 30  2  0  0  0  0
 30 31  1  0  0  0  0
 30 35  1  0  0  0  0
 32 31  2  0  0  0  0
 32 36  1  0  0  0  0
 33 32  1  0  0  0  0
 34 29  1  0  0  0  0
 36 39  1  6  0  0  0
 36 37  1  0  0  0  0
 36 38  1  0  0  0  0
 37 40  1  0  0  0  0
 37 41  1  0  0  0  0
 37 38  1  0  0  0  0
 38 42  1  1  0  0  0
 38 43  1  0  0  0  0
 43 44  1  0  0  0  0
 45 43  1  0  0  0  0
M  END
>  <minimizedAffinity>
-5.84378862

>  <minimizedRMSD>
1.31752026

$$$$
