
 OpenBabel03242523123D

 49 54  0  0  1  0  0  0  0  0999 V2000
   46.6670   32.6600   46.3480 C   0  0  0  0  0  0  0  0  0  0  0  0
   46.5530   32.7500   44.9440 C   0  0  0  0  0  0  0  0  0  0  0  0
   47.0360   31.6160   44.3380 C   0  0  0  0  0  0  0  0  0  0  0  0
   47.5640   30.5300   44.9600 C   0  0  0  0  0  0  0  0  0  0  0  0
   47.6420   30.5260   46.3500 C   0  0  0  0  0  0  0  0  0  0  0  0
   47.1860   31.6070   47.0510 C   0  0  0  0  0  0  0  0  0  0  0  0
   48.2220   29.3080   46.6670 O   0  0  0  0  0  0  0  0  0  0  0  0
   48.4460   28.5500   45.4950 C   0  0  2  0  0  0  0  0  0  0  0  0
   48.0570   29.3680   44.3940 O   0  0  0  0  0  0  0  0  0  0  0  0
   46.3620   33.3900   47.1280 H   0  0  0  0  0  0  0  0  0  0  0  0
   46.9620   31.6600   43.2960 H   0  0  0  0  0  0  0  0  0  0  0  0
   47.2950   31.4890   48.0940 H   0  0  0  0  0  0  0  0  0  0  0  0
   49.5050   28.3030   45.3150 H   0  0  0  0  0  0  0  0  0  0  0  0
   45.5460   35.9320   43.2410 C   0  0  0  0  0  0  0  0  0  0  0  0
   46.2430   34.7310   43.3870 C   0  0  0  0  0  0  0  0  0  0  0  0
   46.0380   33.9690   44.4960 C   0  0  0  0  0  0  0  0  0  0  0  0
   45.1450   34.4390   45.4200 N   0  0  0  0  0  0  0  0  0  0  0  0
   44.4780   35.5900   45.2790 C   0  0  0  0  0  0  0  0  0  0  0  0
   44.6770   36.3210   44.2080 N   0  0  0  0  0  0  0  0  0  0  0  0
   45.7030   36.5420   42.3620 H   0  0  0  0  0  0  0  0  0  0  0  0
   43.7620   36.0160   45.9660 H   0  0  0  0  0  0  0  0  0  0  0  0
   47.1450   34.3920   42.3790 N   0  0  0  0  0  0  0  0  0  0  0  0
   48.5530   34.5340   42.5520 C   0  0  0  0  0  0  0  0  0  0  0  0
   49.3930   33.9670   41.4490 C   0  0  0  0  0  0  0  0  0  0  0  0
   48.9360   32.7500   40.9190 N   0  0  0  0  0  0  0  0  0  0  0  0
   47.5770   32.6370   40.7170 C   0  0  0  0  0  0  0  0  0  0  0  0
   46.8190   33.8890   41.1050 C   0  0  0  0  0  0  0  0  0  0  0  0
   48.9190   34.1220   43.5270 H   0  0  0  0  0  0  0  0  0  0  0  0
   48.7540   35.6250   42.6040 H   0  0  0  0  0  0  0  0  0  0  0  0
   49.5170   34.7150   40.6410 H   0  0  0  0  0  0  0  0  0  0  0  0
   50.4280   33.8040   41.8570 H   0  0  0  0  0  0  0  0  0  0  0  0
   49.5100   32.4600   40.1210 H   0  0  0  0  0  0  0  0  0  0  0  0
   47.1230   31.7240   41.1830 H   0  0  0  0  0  0  0  0  0  0  0  0
   47.3780   32.4860   39.6160 H   0  0  0  0  0  0  0  0  0  0  0  0
   47.0330   34.6760   40.3310 H   0  0  0  0  0  0  0  0  0  0  0  0
   45.7330   33.6800   41.0260 H   0  0  0  0  0  0  0  0  0  0  0  0
   47.5850   27.4410   45.5640 O   0  0  0  0  0  0  0  0  0  0  0  0
   45.3990   27.7040   46.4490 C   0  0  0  0  0  0  0  0  0  0  0  0
   46.6760   27.1400   46.5370 C   0  0  0  0  0  0  0  0  0  0  0  0
   46.9310   26.3110   47.6110 C   0  0  0  0  0  0  0  0  0  0  0  0
   47.8960   25.8590   47.7140 H   0  0  0  0  0  0  0  0  0  0  0  0
   45.9800   26.0380   48.5690 C   0  0  0  0  0  0  0  0  0  0  0  0
   46.0040   25.2710   49.6840 N   0  0  0  0  0  0  0  0  0  0  0  0
   46.7920   24.7060   50.0580 H   0  0  0  0  0  0  0  0  0  0  0  0
   44.8200   25.3300   50.2870 N   0  0  0  0  0  0  0  0  0  0  0  0
   44.0050   26.1240   49.5920 C   0  0  0  0  0  0  0  0  0  0  0  0
   42.9700   26.3960   49.7930 H   0  0  0  0  0  0  0  0  0  0  0  0
   44.7130   26.5780   48.5090 C   0  0  0  0  0  0  0  0  0  0  0  0
   44.4600   27.4160   47.4220 C   0  0  0  0  0  0  0  0  0  0  0  0
  1  6  1  0  0  0  0
  1 10  1  0  0  0  0
  2  1  2  0  0  0  0
  3  2  1  0  0  0  0
  3  4  2  0  0  0  0
  4  5  1  0  0  0  0
  5  7  1  0  0  0  0
  5  6  2  0  0  0  0
  6 12  1  0  0  0  0
  8 13  1  6  0  0  0
  8 37  1  0  0  0  0
  8  7  1  0  0  0  0
  9  4  1  0  0  0  0
  9  8  1  0  0  0  0
 11  3  1  0  0  0  0
 14 15  2  0  0  0  0
 14 19  1  0  0  0  0
 15 16  1  0  0  0  0
 16  2  1  0  0  0  0
 16 17  2  0  0  0  0
 18 17  1  0  0  0  0
 18 21  1  0  0  0  0
 19 18  2  0  0  0  0
 20 14  1  0  0  0  0
 22 23  1  0  0  0  0
 22 15  1  0  0  0  0
 23 29  1  0  0  0  0
 23 28  1  0  0  0  0
 24 31  1  0  0  0  0
 24 23  1  0  0  0  0
 25 24  1  0  0  0  0
 26 25  1  0  0  0  0
 26 27  1  0  0  0  0
 26 33  1  0  0  0  0
 27 22  1  0  0  0  0
 30 24  1  0  0  0  0
 32 25  1  0  0  0  0
 34 26  1  0  0  0  0
 35 27  1  0  0  0  0
 36 27  1  0  0  0  0
 37 39  1  0  0  0  0
 38 39  2  0  0  0  0
 38 49  1  0  0  0  0
 39 40  1  0  0  0  0
 40 41  1  0  0  0  0
 40 42  2  0  0  0  0
 42 43  1  0  0  0  0
 43 44  1  0  0  0  0
 43 45  1  0  0  0  0
 46 47  1  0  0  0  0
 46 45  2  0  0  0  0
 48 42  1  0  0  0  0
 48 46  1  0  0  0  0
 49 48  2  0  0  0  0
M  END
>  <minimizedAffinity>
-6.20294905

>  <minimizedRMSD>
5.13428736

$$$$
