
 OpenBabel03242515103D

 39 42  0  0  0  0  0  0  0  0999 V2000
   47.2710   33.2560   43.7000 N   0  0  0  0  0  0  0  0  0  0  0  0
   47.1080   32.3070   44.1470 H   0  0  0  0  0  0  0  0  0  0  0  0
   45.6440   34.1500   45.3370 C   0  0  0  0  0  0  0  0  0  0  0  0
   44.7110   35.1250   45.5390 C   0  0  0  0  0  0  0  0  0  0  0  0
   44.3770   36.1010   44.6180 C   0  0  0  0  0  0  0  0  0  0  0  0
   45.0170   36.1000   43.4150 C   0  0  0  0  0  0  0  0  0  0  0  0
   45.9620   35.1430   43.1630 C   0  0  0  0  0  0  0  0  0  0  0  0
   46.2770   34.1740   44.1110 C   0  0  0  0  0  0  0  0  0  0  0  0
   44.1640   35.1790   46.4810 H   0  0  0  0  0  0  0  0  0  0  0  0
   43.6350   36.8700   44.7880 H   0  0  0  0  0  0  0  0  0  0  0  0
   44.7810   36.8510   42.6670 H   0  0  0  0  0  0  0  0  0  0  0  0
   46.4460   35.1860   42.1870 H   0  0  0  0  0  0  0  0  0  0  0  0
   47.3690   31.4060   47.0270 C   0  0  0  0  0  0  0  0  0  0  0  0
   46.6190   31.2270   48.1860 C   0  0  0  0  0  0  0  0  0  0  0  0
   45.5060   32.0540   48.3970 C   0  0  0  0  0  0  0  0  0  0  0  0
   45.1890   33.0070   47.4680 N   0  0  0  0  0  0  0  0  0  0  0  0
   45.9560   33.1520   46.3350 C   0  0  0  0  0  0  0  0  0  0  0  0
   47.0140   32.3480   46.1570 N   0  0  0  0  0  0  0  0  0  0  0  0
   48.2150   30.7370   46.9200 H   0  0  0  0  0  0  0  0  0  0  0  0
   46.8150   30.4990   48.9530 H   0  0  0  0  0  0  0  0  0  0  0  0
   44.8800   31.9690   49.2770 H   0  0  0  0  0  0  0  0  0  0  0  0
   48.6190   33.3950   42.6690 S   0  0  0  0  0  0  0  0  0  0  0  0
   48.1380   34.0060   41.3470 O   0  0  0  0  0  0  0  0  0  0  0  0
   48.7240   34.3870   40.6650 H   0  0  0  0  0  0  0  0  0  0  0  0
   49.7280   34.2280   43.1980 O   0  0  0  0  0  0  0  0  0  0  0  0
   49.7730   35.2000   43.0550 H   0  0  0  0  0  0  0  0  0  0  0  0
   49.0860   31.8300   42.2660 O   0  0  0  0  0  0  0  0  0  0  0  0
   50.1240   31.7360   40.1100 C   0  0  0  0  0  3  0  0  0  0  0  0
   50.1590   31.5370   41.4780 C   0  0  0  0  0  0  0  0  0  0  0  0
   51.3100   31.0270   42.0750 C   0  0  0  0  0  0  0  0  0  0  0  0
   51.3240   30.8740   43.1550 H   0  0  0  0  0  0  0  0  0  0  0  0
   52.4170   30.7190   41.3020 C   0  0  0  0  0  0  0  0  0  0  0  0
   53.6380   30.2250   41.5820 N   0  0  0  0  0  0  0  0  0  0  0  0
   53.9210   29.9870   42.5610 H   0  0  0  0  0  0  0  0  0  0  0  0
   54.3560   30.1080   40.4780 N   0  0  0  0  0  0  0  0  0  0  0  0
   53.6390   30.5190   39.4150 C   0  0  0  0  0  0  0  0  0  0  0  0
   53.9420   30.5480   38.3690 H   0  0  0  0  0  0  0  0  0  0  0  0
   52.4130   30.9050   39.9370 C   0  0  0  0  0  0  0  0  0  0  0  0
   51.2550   31.4140   39.3720 C   0  0  0  0  0  3  0  0  0  0  0  0
  1  8  1  0  0  0  0
  1  2  1  0  0  0  0
  3  4  1  0  0  0  0
  3 17  1  0  0  0  0
  4  9  1  0  0  0  0
  5 10  1  0  0  0  0
  5  4  2  0  0  0  0
  6  5  1  0  0  0  0
  7  6  2  0  0  0  0
  7  8  1  0  0  0  0
  8  3  2  0  0  0  0
 11  6  1  0  0  0  0
 12  7  1  0  0  0  0
 13 14  1  0  0  0  0
 14 15  2  0  0  0  0
 14 20  1  0  0  0  0
 15 21  1  0  0  0  0
 16 15  1  0  0  0  0
 17 16  2  0  0  0  0
 18 17  1  0  0  0  0
 18 13  2  0  0  0  0
 19 13  1  0  0  0  0
 22 25  1  0  0  0  0
 22  1  1  0  0  0  0
 23 22  1  0  0  0  0
 24 23  1  0  0  0  0
 26 25  1  0  0  0  0
 27 22  1  0  0  0  0
 28 29  1  0  0  0  0
 29 30  2  0  0  0  0
 29 27  1  0  0  0  0
 30 31  1  0  0  0  0
 32 33  1  0  0  0  0
 32 30  1  0  0  0  0
 33 34  1  0  0  0  0
 35 33  1  0  0  0  0
 36 38  1  0  0  0  0
 36 35  2  0  0  0  0
 37 36  1  0  0  0  0
 38 32  2  0  0  0  0
 39 38  1  0  0  0  0
 39 28  2  0  0  0  0
M  END
>  <minimizedAffinity>
-6.05981493

>  <minimizedRMSD>
1.66612399

$$$$
