
 OpenBabel03252500553D

 33 35  0  0  0  0  0  0  0  0999 V2000
   37.1560   28.9850   39.7670 O   0  0  0  0  0  0  0  0  0  0  0  0
   36.5140   30.0050   40.7030 P   0  0  1  0  0  0  0  0  0  0  0  0
   34.8560   29.6230   40.8400 O   0  0  0  0  0  0  0  0  0  0  0  0
   34.2940   30.4050   40.7300 H   0  0  0  0  0  0  0  0  0  0  0  0
   37.2070   29.8800   42.2420 O   0  0  0  0  0  0  0  0  0  0  0  0
   38.2900   27.9600   43.0960 C   0  0  0  0  0  0  0  0  0  0  0  0
   38.3960   29.2380   42.5660 C   0  0  0  0  0  0  0  0  0  0  0  0
   39.6830   29.7810   42.3970 C   0  0  0  0  0  0  0  0  0  0  0  0
   40.7310   29.0040   42.7710 N   0  0  0  0  0  0  0  0  0  0  0  0
   40.5960   27.7680   43.2820 C   0  0  0  0  0  0  0  0  0  0  0  0
   39.3840   27.2640   43.4370 N   0  0  0  0  0  0  0  0  0  0  0  0
   39.7340   30.7580   41.9910 H   0  0  0  0  0  0  0  0  0  0  0  0
   41.4460   27.1660   43.5740 H   0  0  0  0  0  0  0  0  0  0  0  0
   36.9800   27.3370   43.2970 C   0  0  0  0  0  0  0  0  0  0  0  0
   36.1780   28.0370   42.9160 H   0  0  0  0  0  0  0  0  0  0  0  0
   36.7690   27.1140   44.3470 H   0  0  0  0  0  0  0  0  0  0  0  0
   36.8790   26.0910   42.4400 C   0  0  0  0  0  0  0  0  0  0  0  0
   35.9310   25.5690   42.7570 H   0  0  0  0  0  0  0  0  0  0  0  0
   37.6960   25.4270   42.7920 H   0  0  0  0  0  0  0  0  0  0  0  0
   36.9020   26.3290   41.3770 H   0  0  0  0  0  0  0  0  0  0  0  0
   36.6140   31.5630   40.0470 O   0  0  0  0  0  0  0  0  0  0  0  0
   38.6230   32.8260   40.6890 C   0  0  0  0  0  3  0  0  0  0  0  0
   37.8810   32.1070   39.7730 C   0  0  0  0  0  0  0  0  0  0  0  0
   38.4040   31.8990   38.5000 C   0  0  0  0  0  0  0  0  0  0  0  0
   37.9210   31.3570   37.7080 H   0  0  0  0  0  0  0  0  0  0  0  0
   39.6520   32.3980   38.1340 C   0  0  0  0  0  0  0  0  0  0  0  0
   40.4000   32.3590   37.0080 N   0  0  0  0  0  0  0  0  0  0  0  0
   40.1160   31.8810   36.1110 H   0  0  0  0  0  0  0  0  0  0  0  0
   41.5450   33.0120   37.1960 N   0  0  0  0  0  0  0  0  0  0  0  0
   41.5680   33.4980   38.4670 C   0  0  0  0  0  0  0  0  0  0  0  0
   42.3850   34.0700   38.8850 H   0  0  0  0  0  0  0  0  0  0  0  0
   40.4030   33.1250   39.0560 C   0  0  0  0  0  0  0  0  0  0  0  0
   39.8600   33.3190   40.3230 C   0  0  0  0  0  3  0  0  0  0  0  0
  2  1  2  6  0  0  0
  2  3  1  0  0  0  0
  2  5  1  0  0  0  0
  4  3  1  0  0  0  0
  5  7  1  0  0  0  0
  6 14  1  0  0  0  0
  6 11  1  0  0  0  0
  7  6  2  0  0  0  0
  8  7  1  0  0  0  0
  8  9  2  0  0  0  0
  9 10  1  0  0  0  0
 10 11  2  0  0  0  0
 10 13  1  0  0  0  0
 12  8  1  0  0  0  0
 14 16  1  0  0  0  0
 15 14  1  0  0  0  0
 17 18  1  0  0  0  0
 17 19  1  0  0  0  0
 17 14  1  0  0  0  0
 20 17  1  0  0  0  0
 21  2  1  0  0  0  0
 23 21  1  0  0  0  0
 23 22  2  0  0  0  0
 24 23  1  0  0  0  0
 25 24  1  0  0  0  0
 26 24  2  0  0  0  0
 26 32  1  0  0  0  0
 27 29  1  0  0  0  0
 27 26  1  0  0  0  0
 28 27  1  0  0  0  0
 29 30  2  0  0  0  0
 30 31  1  0  0  0  0
 30 32  1  0  0  0  0
 32 33  2  0  0  0  0
 33 22  1  0  0  0  0
M  END
>  <minimizedAffinity>
-5.77784443

$$$$

 OpenBabel03252500553D

 33 35  0  0  0  0  0  0  0  0999 V2000
   36.7580   29.1420   39.3720 O   0  0  0  0  0  0  0  0  0  0  0  0
   35.8820   29.3580   40.6040 P   0  0  1  0  0  0  0  0  0  0  0  0
   34.2500   29.3060   40.1040 O   0  0  0  0  0  0  0  0  0  0  0  0
   33.7370   30.0430   40.4680 H   0  0  0  0  0  0  0  0  0  0  0  0
   36.1310   28.0980   41.7060 O   0  0  0  0  0  0  0  0  0  0  0  0
   37.7920   26.4170   41.7790 C   0  0  0  0  0  0  0  0  0  0  0  0
   37.3520   27.6630   42.2050 C   0  0  0  0  0  0  0  0  0  0  0  0
   38.1660   28.3820   43.0990 C   0  0  0  0  0  0  0  0  0  0  0  0
   39.3290   27.7960   43.4790 N   0  0  0  0  0  0  0  0  0  0  0  0
   39.7290   26.5870   43.0480 C   0  0  0  0  0  0  0  0  0  0  0  0
   38.9590   25.9160   42.2080 N   0  0  0  0  0  0  0  0  0  0  0  0
   37.8060   29.3300   43.4080 H   0  0  0  0  0  0  0  0  0  0  0  0
   40.6610   26.1380   43.3640 H   0  0  0  0  0  0  0  0  0  0  0  0
   36.9930   25.6180   40.8490 C   0  0  0  0  0  0  0  0  0  0  0  0
   37.5940   25.4350   39.9100 H   0  0  0  0  0  0  0  0  0  0  0  0
   36.0540   26.1040   40.5650 H   0  0  0  0  0  0  0  0  0  0  0  0
   36.7410   24.2490   41.4490 C   0  0  0  0  0  0  0  0  0  0  0  0
   35.9910   23.7440   40.7750 H   0  0  0  0  0  0  0  0  0  0  0  0
   36.1870   24.4390   42.3920 H   0  0  0  0  0  0  0  0  0  0  0  0
   37.6650   23.6820   41.5630 H   0  0  0  0  0  0  0  0  0  0  0  0
   36.1520   30.8920   41.2670 O   0  0  0  0  0  0  0  0  0  0  0  0
   37.0600   32.5380   39.6830 C   0  0  0  0  0  3  0  0  0  0  0  0
   37.1980   31.6810   40.7570 C   0  0  0  0  0  0  0  0  0  0  0  0
   38.4380   31.5820   41.3820 C   0  0  0  0  0  0  0  0  0  0  0  0
   38.6640   30.9520   42.2230 H   0  0  0  0  0  0  0  0  0  0  0  0
   39.5340   32.3230   40.9490 C   0  0  0  0  0  0  0  0  0  0  0  0
   40.8230   32.4350   41.3430 N   0  0  0  0  0  0  0  0  0  0  0  0
   41.2570   31.9070   42.1470 H   0  0  0  0  0  0  0  0  0  0  0  0
   41.4640   33.3080   40.5680 N   0  0  0  0  0  0  0  0  0  0  0  0
   40.5940   33.7900   39.6400 C   0  0  0  0  0  0  0  0  0  0  0  0
   40.8540   34.5170   38.8820 H   0  0  0  0  0  0  0  0  0  0  0  0
   39.3980   33.1880   39.8650 C   0  0  0  0  0  0  0  0  0  0  0  0
   38.1500   33.2720   39.2560 C   0  0  0  0  0  3  0  0  0  0  0  0
  2  1  2  6  0  0  0
  2 21  1  0  0  0  0
  2  5  1  0  0  0  0
  3  4  1  0  0  0  0
  3  2  1  0  0  0  0
  5  7  1  0  0  0  0
  6  7  2  0  0  0  0
  6 11  1  0  0  0  0
  7  8  1  0  0  0  0
  8 12  1  0  0  0  0
  8  9  2  0  0  0  0
 10 13  1  0  0  0  0
 10  9  1  0  0  0  0
 11 10  2  0  0  0  0
 14 17  1  0  0  0  0
 14  6  1  0  0  0  0
 15 14  1  0  0  0  0
 16 14  1  0  0  0  0
 17 20  1  0  0  0  0
 17 19  1  0  0  0  0
 18 17  1  0  0  0  0
 22 23  1  0  0  0  0
 23 21  1  0  0  0  0
 23 24  2  0  0  0  0
 24 25  1  0  0  0  0
 26 27  1  0  0  0  0
 26 24  1  0  0  0  0
 27 28  1  0  0  0  0
 29 27  1  0  0  0  0
 30 32  1  0  0  0  0
 30 29  2  0  0  0  0
 31 30  1  0  0  0  0
 32 26  2  0  0  0  0
 33 22  2  0  0  0  0
 33 32  1  0  0  0  0
M  END
>  <minimizedAffinity>
-5.44330788

$$$$

 OpenBabel03252500553D

 33 35  0  0  0  0  0  0  0  0999 V2000
   36.6510   29.8250   38.7370 O   0  0  0  0  0  0  0  0  0  0  0  0
   36.2730   29.7550   40.2140 P   0  0  1  0  0  0  0  0  0  0  0  0
   34.6470   29.2450   40.3170 O   0  0  0  0  0  0  0  0  0  0  0  0
   34.1340   29.7970   40.9260 H   0  0  0  0  0  0  0  0  0  0  0  0
   37.2330   28.5980   40.9920 O   0  0  0  0  0  0  0  0  0  0  0  0
   37.3110   26.5430   42.1580 C   0  0  0  0  0  0  0  0  0  0  0  0
   37.0500   27.2220   40.9750 C   0  0  0  0  0  0  0  0  0  0  0  0
   36.6230   26.4730   39.8630 C   0  0  0  0  0  0  0  0  0  0  0  0
   36.5000   25.1330   40.0350 N   0  0  0  0  0  0  0  0  0  0  0  0
   36.7600   24.5040   41.1950 C   0  0  0  0  0  0  0  0  0  0  0  0
   37.1610   25.2140   42.2360 N   0  0  0  0  0  0  0  0  0  0  0  0
   36.4310   27.0150   38.9740 H   0  0  0  0  0  0  0  0  0  0  0  0
   36.6550   23.4340   41.3100 H   0  0  0  0  0  0  0  0  0  0  0  0
   37.7570   27.2630   43.3520 C   0  0  0  0  0  0  0  0  0  0  0  0
   37.1340   26.9330   44.2350 H   0  0  0  0  0  0  0  0  0  0  0  0
   37.6650   28.3500   43.2550 H   0  0  0  0  0  0  0  0  0  0  0  0
   39.1810   26.8610   43.6790 C   0  0  0  0  0  0  0  0  0  0  0  0
   39.5250   27.5610   44.4950 H   0  0  0  0  0  0  0  0  0  0  0  0
   39.7800   27.1500   42.7910 H   0  0  0  0  0  0  0  0  0  0  0  0
   39.2490   25.8100   43.9610 H   0  0  0  0  0  0  0  0  0  0  0  0
   36.3620   31.2890   40.9270 O   0  0  0  0  0  0  0  0  0  0  0  0
   37.4270   33.2390   39.8750 C   0  0  0  0  0  3  0  0  0  0  0  0
   37.4770   32.1020   40.6570 C   0  0  0  0  0  0  0  0  0  0  0  0
   38.6930   31.7270   41.2180 C   0  0  0  0  0  0  0  0  0  0  0  0
   38.8540   30.8660   41.8420 H   0  0  0  0  0  0  0  0  0  0  0  0
   39.8530   32.4680   41.0090 C   0  0  0  0  0  0  0  0  0  0  0  0
   41.1400   32.3570   41.4090 N   0  0  0  0  0  0  0  0  0  0  0  0
   41.5160   31.5870   42.0250 H   0  0  0  0  0  0  0  0  0  0  0  0
   41.8630   33.3590   40.9130 N   0  0  0  0  0  0  0  0  0  0  0  0
   41.0500   34.1570   40.1670 C   0  0  0  0  0  0  0  0  0  0  0  0
   41.3800   35.0460   39.6480 H   0  0  0  0  0  0  0  0  0  0  0  0
   39.8060   33.6160   40.2190 C   0  0  0  0  0  0  0  0  0  0  0  0
   38.5780   33.9730   39.6690 C   0  0  0  0  0  3  0  0  0  0  0  0
  2  1  2  6  0  0  0
  2  3  1  0  0  0  0
  2 21  1  0  0  0  0
  2  5  1  0  0  0  0
  3  4  1  0  0  0  0
  6 11  1  0  0  0  0
  6 14  1  0  0  0  0
  7  5  1  0  0  0  0
  7  6  2  0  0  0  0
  8  9  2  0  0  0  0
  8  7  1  0  0  0  0
  9 10  1  0  0  0  0
 10 13  1  0  0  0  0
 10 11  2  0  0  0  0
 12  8  1  0  0  0  0
 14 17  1  0  0  0  0
 14 15  1  0  0  0  0
 16 14  1  0  0  0  0
 17 20  1  0  0  0  0
 17 18  1  0  0  0  0
 19 17  1  0  0  0  0
 22 23  1  0  0  0  0
 23 21  1  0  0  0  0
 23 24  2  0  0  0  0
 24 25  1  0  0  0  0
 26 24  1  0  0  0  0
 26 27  1  0  0  0  0
 27 28  1  0  0  0  0
 29 27  1  0  0  0  0
 30 32  1  0  0  0  0
 30 29  2  0  0  0  0
 31 30  1  0  0  0  0
 32 26  2  0  0  0  0
 33 22  2  0  0  0  0
 33 32  1  0  0  0  0
M  END
>  <minimizedAffinity>
-5.42170143

$$$$

 OpenBabel03252500553D

 33 35  0  0  0  0  0  0  0  0999 V2000
   39.2150   27.6330   43.1570 O   0  0  0  0  0  0  0  0  0  0  0  0
   37.9070   28.1100   42.5310 P   0  0  1  0  0  0  0  0  0  0  0  0
   37.2170   29.2710   43.5740 O   0  0  0  0  0  0  0  0  0  0  0  0
   36.2750   29.1040   43.7280 H   0  0  0  0  0  0  0  0  0  0  0  0
   38.2280   28.8630   41.0490 O   0  0  0  0  0  0  0  0  0  0  0  0
   37.0530   30.5480   39.8790 C   0  0  0  0  0  0  0  0  0  0  0  0
   38.0760   30.2120   40.7550 C   0  0  0  0  0  0  0  0  0  0  0  0
   38.8720   31.2500   41.2730 C   0  0  0  0  0  0  0  0  0  0  0  0
   38.5750   32.5110   40.8710 N   0  0  0  0  0  0  0  0  0  0  0  0
   37.5760   32.8050   40.0210 C   0  0  0  0  0  0  0  0  0  0  0  0
   36.8320   31.8250   39.5380 N   0  0  0  0  0  0  0  0  0  0  0  0
   39.6460   30.9650   41.9390 H   0  0  0  0  0  0  0  0  0  0  0  0
   37.3560   33.8190   39.7140 H   0  0  0  0  0  0  0  0  0  0  0  0
   36.1890   29.5150   39.3050 C   0  0  0  0  0  0  0  0  0  0  0  0
   36.7300   28.5240   39.3350 H   0  0  0  0  0  0  0  0  0  0  0  0
   35.9080   29.7210   38.2680 H   0  0  0  0  0  0  0  0  0  0  0  0
   34.9640   29.3420   40.1800 C   0  0  0  0  0  0  0  0  0  0  0  0
   34.2640   28.6650   39.6100 H   0  0  0  0  0  0  0  0  0  0  0  0
   34.4600   30.3310   40.1800 H   0  0  0  0  0  0  0  0  0  0  0  0
   35.2230   28.9550   41.1660 H   0  0  0  0  0  0  0  0  0  0  0  0
   36.8030   26.8310   42.4070 O   0  0  0  0  0  0  0  0  0  0  0  0
   36.7380   26.0180   40.0890 C   0  0  0  0  0  3  0  0  0  0  0  0
   37.0120   25.8420   41.4300 C   0  0  0  0  0  0  0  0  0  0  0  0
   37.5260   24.6210   41.8560 C   0  0  0  0  0  0  0  0  0  0  0  0
   37.7760   24.3680   42.8700 H   0  0  0  0  0  0  0  0  0  0  0  0
   37.7670   23.5800   40.9630 C   0  0  0  0  0  0  0  0  0  0  0  0
   38.2450   22.3200   41.0750 N   0  0  0  0  0  0  0  0  0  0  0  0
   38.5510   21.8690   41.9790 H   0  0  0  0  0  0  0  0  0  0  0  0
   38.2740   21.7320   39.8810 N   0  0  0  0  0  0  0  0  0  0  0  0
   37.8070   22.6090   38.9510 C   0  0  0  0  0  0  0  0  0  0  0  0
   37.7230   22.3890   37.8950 H   0  0  0  0  0  0  0  0  0  0  0  0
   37.4910   23.7550   39.6080 C   0  0  0  0  0  0  0  0  0  0  0  0
   36.9780   24.9840   39.2050 C   0  0  0  0  0  3  0  0  0  0  0  0
  2  1  2  1  0  0  0
  2  3  1  0  0  0  0
  3  4  1  0  0  0  0
  5  2  1  0  0  0  0
  6  7  1  0  0  0  0
  7  5  1  0  0  0  0
  7  8  2  0  0  0  0
  8 12  1  0  0  0  0
  9  8  1  0  0  0  0
 10  9  2  0  0  0  0
 11  6  2  0  0  0  0
 11 10  1  0  0  0  0
 13 10  1  0  0  0  0
 14 15  1  0  0  0  0
 14  6  1  0  0  0  0
 14 17  1  0  0  0  0
 16 14  1  0  0  0  0
 17 19  1  0  0  0  0
 17 20  1  0  0  0  0
 18 17  1  0  0  0  0
 21  2  1  0  0  0  0
 22 23  1  0  0  0  0
 23 24  2  0  0  0  0
 23 21  1  0  0  0  0
 24 25  1  0  0  0  0
 26 27  1  0  0  0  0
 26 24  1  0  0  0  0
 27 28  1  0  0  0  0
 29 27  1  0  0  0  0
 30 32  1  0  0  0  0
 30 29  2  0  0  0  0
 31 30  1  0  0  0  0
 32 26  2  0  0  0  0
 33 32  1  0  0  0  0
 33 22  2  0  0  0  0
M  END
>  <minimizedAffinity>
-5.3191433

$$$$

 OpenBabel03252500553D

 33 35  0  0  0  0  0  0  0  0999 V2000
   37.2290   29.1040   39.7600 O   0  0  0  0  0  0  0  0  0  0  0  0
   36.7240   30.1920   40.7030 P   0  0  1  0  0  0  0  0  0  0  0  0
   35.0840   29.8680   41.0490 O   0  0  0  0  0  0  0  0  0  0  0  0
   34.5320   30.6600   40.9590 H   0  0  0  0  0  0  0  0  0  0  0  0
   37.5870   30.1300   42.1570 O   0  0  0  0  0  0  0  0  0  0  0  0
   39.6400   29.0770   42.6720 C   0  0  0  0  0  0  0  0  0  0  0  0
   38.2520   29.0290   42.6790 C   0  0  0  0  0  0  0  0  0  0  0  0
   37.6330   27.8820   43.2080 C   0  0  0  0  0  0  0  0  0  0  0  0
   38.4480   26.9030   43.6750 N   0  0  0  0  0  0  0  0  0  0  0  0
   39.7900   26.9790   43.6550 C   0  0  0  0  0  0  0  0  0  0  0  0
   40.3660   28.0600   43.1570 N   0  0  0  0  0  0  0  0  0  0  0  0
   36.5730   27.8710   43.2010 H   0  0  0  0  0  0  0  0  0  0  0  0
   40.4210   26.1860   44.0330 H   0  0  0  0  0  0  0  0  0  0  0  0
   40.3460   30.2410   42.1360 C   0  0  0  0  0  0  0  0  0  0  0  0
   41.2840   30.4140   42.7420 H   0  0  0  0  0  0  0  0  0  0  0  0
   39.7470   31.1560   42.1660 H   0  0  0  0  0  0  0  0  0  0  0  0
   40.8170   29.9400   40.7280 C   0  0  0  0  0  0  0  0  0  0  0  0
   41.2010   30.9150   40.3100 H   0  0  0  0  0  0  0  0  0  0  0  0
   39.8940   29.7300   40.1480 H   0  0  0  0  0  0  0  0  0  0  0  0
   41.5630   29.1450   40.7120 H   0  0  0  0  0  0  0  0  0  0  0  0
   36.7850   31.7090   39.9510 O   0  0  0  0  0  0  0  0  0  0  0  0
   38.7090   33.1130   40.5570 C   0  0  0  0  0  3  0  0  0  0  0  0
   38.0380   32.2850   39.6790 C   0  0  0  0  0  0  0  0  0  0  0  0
   38.6230   31.9940   38.4510 C   0  0  0  0  0  0  0  0  0  0  0  0
   38.1970   31.3650   37.6900 H   0  0  0  0  0  0  0  0  0  0  0  0
   39.8620   32.5170   38.0900 C   0  0  0  0  0  0  0  0  0  0  0  0
   40.6580   32.4170   37.0020 N   0  0  0  0  0  0  0  0  0  0  0  0
   40.4330   31.8510   36.1390 H   0  0  0  0  0  0  0  0  0  0  0  0
   41.7650   33.1350   37.1760 N   0  0  0  0  0  0  0  0  0  0  0  0
   41.7140   33.7280   38.4000 C   0  0  0  0  0  0  0  0  0  0  0  0
   42.4870   34.3710   38.7980 H   0  0  0  0  0  0  0  0  0  0  0  0
   40.5420   33.3530   38.9740 C   0  0  0  0  0  0  0  0  0  0  0  0
   39.9380   33.6300   40.1970 C   0  0  0  0  0  3  0  0  0  0  0  0
  2  1  2  6  0  0  0
  2  3  1  0  0  0  0
  2  5  1  0  0  0  0
  4  3  1  0  0  0  0
  5  7  1  0  0  0  0
  6  7  2  0  0  0  0
  6 11  1  0  0  0  0
  7  8  1  0  0  0  0
  8  9  2  0  0  0  0
 10  9  1  0  0  0  0
 10 13  1  0  0  0  0
 11 10  2  0  0  0  0
 12  8  1  0  0  0  0
 14 16  1  0  0  0  0
 14  6  1  0  0  0  0
 14 15  1  0  0  0  0
 17 14  1  0  0  0  0
 18 17  1  0  0  0  0
 19 17  1  0  0  0  0
 20 17  1  0  0  0  0
 21  2  1  0  0  0  0
 23 21  1  0  0  0  0
 23 22  2  0  0  0  0
 24 23  1  0  0  0  0
 25 24  1  0  0  0  0
 26 24  2  0  0  0  0
 26 32  1  0  0  0  0
 27 29  1  0  0  0  0
 27 26  1  0  0  0  0
 28 27  1  0  0  0  0
 29 30  2  0  0  0  0
 30 31  1  0  0  0  0
 30 32  1  0  0  0  0
 32 33  2  0  0  0  0
 33 22  1  0  0  0  0
M  END
>  <minimizedAffinity>
-5.25608587

$$$$

 OpenBabel03252500553D

 33 35  0  0  0  0  0  0  0  0999 V2000
   38.1310   26.4850   38.9250 O   0  0  0  0  0  0  0  0  0  0  0  0
   36.7190   26.4040   39.4980 P   0  0  1  0  0  0  0  0  0  0  0  0
   36.0640   24.8870   39.0680 O   0  0  0  0  0  0  0  0  0  0  0  0
   35.1660   24.9690   38.7100 H   0  0  0  0  0  0  0  0  0  0  0  0
   36.7850   26.4850   41.1870 O   0  0  0  0  0  0  0  0  0  0  0  0
   38.3240   27.1250   42.8640 C   0  0  0  0  0  0  0  0  0  0  0  0
   37.8660   26.1470   41.9910 C   0  0  0  0  0  0  0  0  0  0  0  0
   38.5240   24.9040   41.9870 C   0  0  0  0  0  0  0  0  0  0  0  0
   39.5640   24.7560   42.8450 N   0  0  0  0  0  0  0  0  0  0  0  0
   39.9840   25.7220   43.6790 C   0  0  0  0  0  0  0  0  0  0  0  0
   39.3610   26.8890   43.6780 N   0  0  0  0  0  0  0  0  0  0  0  0
   38.1550   24.1760   41.3110 H   0  0  0  0  0  0  0  0  0  0  0  0
   40.8170   25.5830   44.3560 H   0  0  0  0  0  0  0  0  0  0  0  0
   37.6830   28.4400   42.9170 C   0  0  0  0  0  0  0  0  0  0  0  0
   37.1260   28.5390   43.8960 H   0  0  0  0  0  0  0  0  0  0  0  0
   36.9730   28.6030   42.1010 H   0  0  0  0  0  0  0  0  0  0  0  0
   38.7480   29.5180   42.9410 C   0  0  0  0  0  0  0  0  0  0  0  0
   38.2050   30.4990   42.8140 H   0  0  0  0  0  0  0  0  0  0  0  0
   39.3180   29.3880   41.9970 H   0  0  0  0  0  0  0  0  0  0  0  0
   39.3470   29.4750   43.8510 H   0  0  0  0  0  0  0  0  0  0  0  0
   35.7260   27.5900   38.8080 O   0  0  0  0  0  0  0  0  0  0  0  0
   36.7400   29.4050   37.4970 C   0  0  0  0  0  3  0  0  0  0  0  0
   36.2210   28.8990   38.6720 C   0  0  0  0  0  0  0  0  0  0  0  0
   36.1790   29.7190   39.7950 C   0  0  0  0  0  0  0  0  0  0  0  0
   35.7990   29.4360   40.7600 H   0  0  0  0  0  0  0  0  0  0  0  0
   36.6450   31.0300   39.7600 C   0  0  0  0  0  0  0  0  0  0  0  0
   36.7330   32.0360   40.6600 N   0  0  0  0  0  0  0  0  0  0  0  0
   36.4180   31.9740   41.6660 H   0  0  0  0  0  0  0  0  0  0  0  0
   37.2720   33.1120   40.0940 N   0  0  0  0  0  0  0  0  0  0  0  0
   37.5530   32.8280   38.7920 C   0  0  0  0  0  0  0  0  0  0  0  0
   37.9990   33.5290   38.0990 H   0  0  0  0  0  0  0  0  0  0  0  0
   37.1700   31.5440   38.5750 C   0  0  0  0  0  0  0  0  0  0  0  0
   37.2020   30.7060   37.4640 C   0  0  0  0  0  3  0  0  0  0  0  0
  2  1  2  6  0  0  0
  2  5  1  0  0  0  0
  3  2  1  0  0  0  0
  4  3  1  0  0  0  0
  5  7  1  0  0  0  0
  6 14  1  0  0  0  0
  6 11  1  0  0  0  0
  7  6  2  0  0  0  0
  8  7  1  0  0  0  0
  8  9  2  0  0  0  0
  9 10  1  0  0  0  0
 10 13  1  0  0  0  0
 11 10  2  0  0  0  0
 12  8  1  0  0  0  0
 14 17  1  0  0  0  0
 14 15  1  0  0  0  0
 16 14  1  0  0  0  0
 17 20  1  0  0  0  0
 18 17  1  0  0  0  0
 19 17  1  0  0  0  0
 21  2  1  0  0  0  0
 22 23  1  0  0  0  0
 23 21  1  0  0  0  0
 23 24  2  0  0  0  0
 24 25  1  0  0  0  0
 26 24  1  0  0  0  0
 26 27  1  0  0  0  0
 27 28  1  0  0  0  0
 29 27  1  0  0  0  0
 30 29  2  0  0  0  0
 31 30  1  0  0  0  0
 32 30  1  0  0  0  0
 32 26  2  0  0  0  0
 33 22  2  0  0  0  0
 33 32  1  0  0  0  0
M  END
>  <minimizedAffinity>
-5.20212793

$$$$

 OpenBabel03252500553D

 33 35  0  0  0  0  0  0  0  0999 V2000
   36.5370   26.7930   37.4230 O   0  0  0  0  0  0  0  0  0  0  0  0
   36.6960   28.0210   38.3150 P   0  0  1  0  0  0  0  0  0  0  0  0
   35.1980   28.3140   39.0800 O   0  0  0  0  0  0  0  0  0  0  0  0
   34.9400   29.2460   39.0250 H   0  0  0  0  0  0  0  0  0  0  0  0
   37.8430   27.7050   39.5180 O   0  0  0  0  0  0  0  0  0  0  0  0
   37.6240   26.8470   41.7100 C   0  0  0  0  0  0  0  0  0  0  0  0
   37.7090   27.9550   40.8780 C   0  0  0  0  0  0  0  0  0  0  0  0
   37.6530   29.2310   41.4670 C   0  0  0  0  0  0  0  0  0  0  0  0
   37.5190   29.2800   42.8160 N   0  0  0  0  0  0  0  0  0  0  0  0
   37.4400   28.1880   43.5960 C   0  0  0  0  0  0  0  0  0  0  0  0
   37.4940   26.9910   43.0360 N   0  0  0  0  0  0  0  0  0  0  0  0
   37.7190   30.0590   40.8090 H   0  0  0  0  0  0  0  0  0  0  0  0
   37.3340   28.2490   44.6710 H   0  0  0  0  0  0  0  0  0  0  0  0
   37.6770   25.4910   41.1610 C   0  0  0  0  0  0  0  0  0  0  0  0
   38.7420   25.1160   41.2060 H   0  0  0  0  0  0  0  0  0  0  0  0
   37.3400   25.4380   40.1210 H   0  0  0  0  0  0  0  0  0  0  0  0
   36.8750   24.5580   42.0450 C   0  0  0  0  0  0  0  0  0  0  0  0
   36.8110   23.5770   41.4910 H   0  0  0  0  0  0  0  0  0  0  0  0
   35.8390   24.9570   42.0290 H   0  0  0  0  0  0  0  0  0  0  0  0
   37.3170   24.4620   43.0370 H   0  0  0  0  0  0  0  0  0  0  0  0
   37.0580   29.3910   37.3870 O   0  0  0  0  0  0  0  0  0  0  0  0
   39.1500   30.5510   37.9530 C   0  0  0  0  0  3  0  0  0  0  0  0
   37.7730   30.4460   37.9790 C   0  0  0  0  0  0  0  0  0  0  0  0
   37.0370   31.4350   38.6250 C   0  0  0  0  0  0  0  0  0  0  0  0
   35.9650   31.4600   38.7090 H   0  0  0  0  0  0  0  0  0  0  0  0
   37.6550   32.5200   39.2410 C   0  0  0  0  0  0  0  0  0  0  0  0
   37.2190   33.6030   39.9240 N   0  0  0  0  0  0  0  0  0  0  0  0
   36.2060   33.8230   40.1240 H   0  0  0  0  0  0  0  0  0  0  0  0
   38.2520   34.3480   40.3090 N   0  0  0  0  0  0  0  0  0  0  0  0
   39.4010   33.7590   39.8780 C   0  0  0  0  0  0  0  0  0  0  0  0
   40.3920   34.1560   40.0540 H   0  0  0  0  0  0  0  0  0  0  0  0
   39.0440   32.6280   39.2170 C   0  0  0  0  0  0  0  0  0  0  0  0
   39.7600   31.6280   38.5660 C   0  0  0  0  0  3  0  0  0  0  0  0
  2  1  2  6  0  0  0
  2  3  1  0  0  0  0
  2  5  1  0  0  0  0
  4  3  1  0  0  0  0
  5  7  1  0  0  0  0
  6 11  1  0  0  0  0
  7  8  1  0  0  0  0
  7  6  2  0  0  0  0
  8  9  2  0  0  0  0
  9 10  1  0  0  0  0
 10 13  1  0  0  0  0
 11 10  2  0  0  0  0
 12  8  1  0  0  0  0
 14 15  1  0  0  0  0
 14  6  1  0  0  0  0
 14 17  1  0  0  0  0
 16 14  1  0  0  0  0
 17 20  1  0  0  0  0
 18 17  1  0  0  0  0
 19 17  1  0  0  0  0
 21 23  1  0  0  0  0
 21  2  1  0  0  0  0
 22 23  2  0  0  0  0
 22 33  1  0  0  0  0
 23 24  1  0  0  0  0
 24 25  1  0  0  0  0
 24 26  2  0  0  0  0
 26 27  1  0  0  0  0
 27 28  1  0  0  0  0
 27 29  1  0  0  0  0
 30 31  1  0  0  0  0
 30 29  2  0  0  0  0
 32 26  1  0  0  0  0
 32 30  1  0  0  0  0
 33 32  2  0  0  0  0
M  END
>  <minimizedAffinity>
-5.1607213

$$$$

 OpenBabel03252500553D

 33 35  0  0  0  0  0  0  0  0999 V2000
   36.5910   31.7910   40.9180 O   0  0  0  0  0  0  0  0  0  0  0  0
   36.5830   30.2660   40.9660 P   0  0  1  0  0  0  0  0  0  0  0  0
   34.9790   29.7410   40.7150 O   0  0  0  0  0  0  0  0  0  0  0  0
   34.7120   29.0700   41.3620 H   0  0  0  0  0  0  0  0  0  0  0  0
   37.5360   29.6530   39.7090 O   0  0  0  0  0  0  0  0  0  0  0  0
   37.1790   30.2560   37.4510 C   0  0  0  0  0  0  0  0  0  0  0  0
   37.1010   29.2870   38.4420 C   0  0  0  0  0  0  0  0  0  0  0  0
   36.5930   28.0230   38.0920 C   0  0  0  0  0  0  0  0  0  0  0  0
   36.2150   27.8480   36.8010 N   0  0  0  0  0  0  0  0  0  0  0  0
   36.3040   28.8070   35.8620 C   0  0  0  0  0  0  0  0  0  0  0  0
   36.7830   29.9930   36.1980 N   0  0  0  0  0  0  0  0  0  0  0  0
   36.5430   27.3020   38.8670 H   0  0  0  0  0  0  0  0  0  0  0  0
   35.9970   28.6460   34.8380 H   0  0  0  0  0  0  0  0  0  0  0  0
   37.6990   31.5920   37.7490 C   0  0  0  0  0  0  0  0  0  0  0  0
   37.5430   31.8120   38.8460 H   0  0  0  0  0  0  0  0  0  0  0  0
   37.2090   32.3810   37.1690 H   0  0  0  0  0  0  0  0  0  0  0  0
   39.1990   31.6080   37.5350 C   0  0  0  0  0  0  0  0  0  0  0  0
   39.5160   32.6870   37.6150 H   0  0  0  0  0  0  0  0  0  0  0  0
   39.3460   31.3500   36.4650 H   0  0  0  0  0  0  0  0  0  0  0  0
   39.7140   30.9570   38.2420 H   0  0  0  0  0  0  0  0  0  0  0  0
   37.0560   29.7140   42.4960 O   0  0  0  0  0  0  0  0  0  0  0  0
   38.9730   28.2930   43.0860 C   0  0  0  0  0  3  0  0  0  0  0  0
   37.6910   28.4640   42.6030 C   0  0  0  0  0  0  0  0  0  0  0  0
   36.9730   27.3440   42.1940 C   0  0  0  0  0  0  0  0  0  0  0  0
   35.9720   27.3540   41.8020 H   0  0  0  0  0  0  0  0  0  0  0  0
   37.5170   26.0640   42.2620 C   0  0  0  0  0  0  0  0  0  0  0  0
   37.0770   24.8240   41.9480 N   0  0  0  0  0  0  0  0  0  0  0  0
   36.1250   24.6050   41.5490 H   0  0  0  0  0  0  0  0  0  0  0  0
   38.0190   23.9230   42.2150 N   0  0  0  0  0  0  0  0  0  0  0  0
   39.1100   24.5650   42.7160 C   0  0  0  0  0  0  0  0  0  0  0  0
   40.0220   24.0690   43.0180 H   0  0  0  0  0  0  0  0  0  0  0  0
   38.8110   25.8890   42.7490 C   0  0  0  0  0  0  0  0  0  0  0  0
   39.5100   27.0220   43.1530 C   0  0  0  0  0  3  0  0  0  0  0  0
  2  1  2  6  0  0  0
  2 21  1  0  0  0  0
  3  2  1  0  0  0  0
  3  4  1  0  0  0  0
  5  2  1  0  0  0  0
  6 14  1  0  0  0  0
  6  7  1  0  0  0  0
  7  5  1  0  0  0  0
  8  7  2  0  0  0  0
  8 12  1  0  0  0  0
  9  8  1  0  0  0  0
 10 11  1  0  0  0  0
 10  9  2  0  0  0  0
 11  6  2  0  0  0  0
 13 10  1  0  0  0  0
 14 15  1  0  0  0  0
 16 14  1  0  0  0  0
 17 18  1  0  0  0  0
 17 14  1  0  0  0  0
 17 20  1  0  0  0  0
 19 17  1  0  0  0  0
 21 23  1  0  0  0  0
 22 33  1  0  0  0  0
 23 22  2  0  0  0  0
 24 26  2  0  0  0  0
 24 23  1  0  0  0  0
 25 24  1  0  0  0  0
 26 32  1  0  0  0  0
 27 29  1  0  0  0  0
 27 26  1  0  0  0  0
 28 27  1  0  0  0  0
 29 30  2  0  0  0  0
 30 32  1  0  0  0  0
 30 31  1  0  0  0  0
 32 33  2  0  0  0  0
M  END
>  <minimizedAffinity>
-5.15812159

$$$$

 OpenBabel03252500553D

 33 35  0  0  0  0  0  0  0  0999 V2000
   40.3650   30.3240   40.5410 O   0  0  0  0  0  0  0  0  0  0  0  0
   39.2940   30.8130   41.5120 P   0  0  1  0  0  0  0  0  0  0  0  0
   39.7450   32.3670   42.0550 O   0  0  0  0  0  0  0  0  0  0  0  0
   39.6700   32.4490   43.0180 H   0  0  0  0  0  0  0  0  0  0  0  0
   37.8140   30.9520   40.7020 O   0  0  0  0  0  0  0  0  0  0  0  0
   36.8210   29.7930   38.8970 C   0  0  0  0  0  0  0  0  0  0  0  0
   37.6070   30.8520   39.3320 C   0  0  0  0  0  0  0  0  0  0  0  0
   38.1270   31.7310   38.3660 C   0  0  0  0  0  0  0  0  0  0  0  0
   37.8170   31.4740   37.0700 N   0  0  0  0  0  0  0  0  0  0  0  0
   37.0520   30.4400   36.6790 C   0  0  0  0  0  0  0  0  0  0  0  0
   36.5660   29.6180   37.5930 N   0  0  0  0  0  0  0  0  0  0  0  0
   38.7240   32.5300   38.7250 H   0  0  0  0  0  0  0  0  0  0  0  0
   36.8160   30.2540   35.6400 H   0  0  0  0  0  0  0  0  0  0  0  0
   36.2480   28.8420   39.8510 C   0  0  0  0  0  0  0  0  0  0  0  0
   35.1650   29.1080   40.0300 H   0  0  0  0  0  0  0  0  0  0  0  0
   36.7650   28.8420   40.8160 H   0  0  0  0  0  0  0  0  0  0  0  0
   36.2360   27.4580   39.2360 C   0  0  0  0  0  0  0  0  0  0  0  0
   35.9460   26.7490   40.0640 H   0  0  0  0  0  0  0  0  0  0  0  0
   37.3000   27.2210   39.0240 H   0  0  0  0  0  0  0  0  0  0  0  0
   35.5710   27.4040   38.3740 H   0  0  0  0  0  0  0  0  0  0  0  0
   39.2200   29.8100   42.8750 O   0  0  0  0  0  0  0  0  0  0  0  0
   37.2940   28.3680   43.3780 C   0  0  0  0  0  3  0  0  0  0  0  0
   38.5210   28.5930   42.7880 C   0  0  0  0  0  0  0  0  0  0  0  0
   39.1150   27.5650   42.0610 C   0  0  0  0  0  0  0  0  0  0  0  0
   40.0640   27.6220   41.5600 H   0  0  0  0  0  0  0  0  0  0  0  0
   38.5010   26.3230   41.9180 C   0  0  0  0  0  0  0  0  0  0  0  0
   38.8220   25.1680   41.2930 N   0  0  0  0  0  0  0  0  0  0  0  0
   39.7080   25.0060   40.7420 H   0  0  0  0  0  0  0  0  0  0  0  0
   37.8600   24.2660   41.4740 N   0  0  0  0  0  0  0  0  0  0  0  0
   36.8760   24.8230   42.2320 C   0  0  0  0  0  0  0  0  0  0  0  0
   35.9730   24.3080   42.5310 H   0  0  0  0  0  0  0  0  0  0  0  0
   37.2620   26.0940   42.5130 C   0  0  0  0  0  0  0  0  0  0  0  0
   36.6860   27.1360   43.2340 C   0  0  0  0  0  3  0  0  0  0  0  0
  2  1  2  6  0  0  0
  2  3  1  0  0  0  0
  2 21  1  0  0  0  0
  3  4  1  0  0  0  0
  5  2  1  0  0  0  0
  6  7  1  0  0  0  0
  6 14  1  0  0  0  0
  7  5  1  0  0  0  0
  8 12  1  0  0  0  0
  8  7  2  0  0  0  0
  9  8  1  0  0  0  0
 10  9  2  0  0  0  0
 10 11  1  0  0  0  0
 11  6  2  0  0  0  0
 13 10  1  0  0  0  0
 14 15  1  0  0  0  0
 14 16  1  0  0  0  0
 17 14  1  0  0  0  0
 17 18  1  0  0  0  0
 19 17  1  0  0  0  0
 20 17  1  0  0  0  0
 23 21  1  0  0  0  0
 23 22  2  0  0  0  0
 24 23  1  0  0  0  0
 25 24  1  0  0  0  0
 26 24  2  0  0  0  0
 26 32  1  0  0  0  0
 27 29  1  0  0  0  0
 27 26  1  0  0  0  0
 28 27  1  0  0  0  0
 29 30  2  0  0  0  0
 30 32  1  0  0  0  0
 30 31  1  0  0  0  0
 32 33  2  0  0  0  0
 33 22  1  0  0  0  0
M  END
>  <minimizedAffinity>
-5.05672169

$$$$
