REMARK  Name = 
REMARK  7 active torsions:
REMARK  status: ('A' for Active; 'I' for Inactive)
REMARK    1  A    between atoms: C_1  and  C_11
REMARK    2  A    between atoms: C_6  and  N_13
REMARK    3  A    between atoms: N_13  and  S_14
REMARK    4  A    between atoms: S_14  and  O_15
REMARK    5  A    between atoms: S_14  and  O_16
REMARK    6  A    between atoms: S_14  and  O_17
REMARK    7  A    between atoms: O_17  and  C_29
REMARK                            x       y       z     vdW  Elec       q    Type
REMARK                         _______ _______ _______ _____ _____    ______ ____
ROOT
ATOM      1  N   UNL     1      46.942  32.575  44.010  0.00  0.00    +0.000 N 
ATOM      2  H   UNL     1      46.670  31.706  44.556  0.00  0.00    +0.000 HD
ENDROOT
BRANCH   1   8
ATOM      3  C   UNL     1      45.601  33.905  45.609  0.00  0.00    +0.000 A 
ATOM      4  C   UNL     1      44.794  35.000  45.723  0.00  0.00    +0.000 A 
ATOM      5  C   UNL     1      44.454  35.842  44.680  0.00  0.00    +0.000 A 
ATOM      6  C   UNL     1      44.953  35.570  43.442  0.00  0.00    +0.000 A 
ATOM      7  C   UNL     1      45.768  34.483  43.275  0.00  0.00    +0.000 A 
ATOM      8  C   UNL     1      46.092  33.655  44.344  0.00  0.00    +0.000 A 
ATOM      9  H   UNL     1      44.363  35.270  46.688  0.00  0.00    +0.000 HD
ATOM     10  H   UNL     1      43.813  36.707  44.781  0.00  0.00    +0.000 HD
ATOM     11  H   UNL     1      44.708  36.209  42.599  0.00  0.00    +0.000 HD
ATOM     12  H   UNL     1      46.141  34.310  42.265  0.00  0.00    +0.000 HD
BRANCH   3  17
ATOM     13  C   UNL     1      47.566  31.845  47.902  0.00  0.00    +0.000 A 
ATOM     14  C   UNL     1      46.628  31.440  48.847  0.00  0.00    +0.000 A 
ATOM     15  C   UNL     1      45.302  31.875  48.702  0.00  0.00    +0.000 A 
ATOM     16  N   UNL     1      44.968  32.679  47.647  0.00  0.00    +0.000 NA
ATOM     17  C   UNL     1      45.925  33.057  46.734  0.00  0.00    +0.000 A 
ATOM     18  N   UNL     1      47.185  32.627  46.895  0.00  0.00    +0.000 NA
ATOM     19  H   UNL     1      48.572  31.477  48.067  0.00  0.00    +0.000 HD
ATOM     20  H   UNL     1      46.825  30.811  49.697  0.00  0.00    +0.000 HD
ATOM     21  H   UNL     1      44.522  31.598  49.401  0.00  0.00    +0.000 HD
ENDBRANCH   3  17
ENDBRANCH   1   8
BRANCH   1  22
ATOM     22  S   UNL     1      48.260  32.427  42.942  0.00  0.00    +0.000 S 
BRANCH  22  23
ATOM     23  O   UNL     1      47.699  32.192  41.534  0.00  0.00    +0.000 OA
ATOM     24  H   UNL     1      48.214  32.283  40.709  0.00  0.00    +0.000 HD
ENDBRANCH  22  23
BRANCH  22  25
ATOM     25  O   UNL     1      49.165  33.603  42.900  0.00  0.00    +0.000 OA
ATOM     26  H   UNL     1      49.017  34.362  42.292  0.00  0.00    +0.000 HD
ENDBRANCH  22  25
BRANCH  22  27
ATOM     27  O   UNL     1      49.042  30.990  43.331  0.00  0.00    +0.000 OA
BRANCH  27  29
ATOM     28  C   UNL     1      50.928  31.259  41.880  0.00  0.00    +0.000 A 
ATOM     29  C   UNL     1      50.339  30.720  43.009  0.00  0.00    +0.000 A 
ATOM     30  C   UNL     1      51.076  29.882  43.842  0.00  0.00    +0.000 A 
ATOM     31  H   UNL     1      50.599  29.463  44.730  0.00  0.00    +0.000 HD
ATOM     32  C   UNL     1      52.396  29.588  43.543  0.00  0.00    +0.000 A 
ATOM     33  N   UNL     1      53.338  28.833  44.139  0.00  0.00    +0.000 N 
ATOM     34  H   UNL     1      53.142  28.311  45.024  0.00  0.00    +0.000 HD
ATOM     35  N   UNL     1      54.467  28.872  43.452  0.00  0.00    +0.000 NA
ATOM     36  C   UNL     1      54.321  29.657  42.367  0.00  0.00    +0.000 A 
ATOM     37  H   UNL     1      55.061  29.893  41.603  0.00  0.00    +0.000 HD
ATOM     38  C   UNL     1      53.011  30.109  42.426  0.00  0.00    +0.000 A 
ATOM     39  C   UNL     1      52.253  30.939  41.616  0.00  0.00    +0.000 A 
ENDBRANCH  27  29
ENDBRANCH  22  27
ENDBRANCH   1  22
TORSDOF 7
