
 OpenBabel03242517563D

 46 49  0  0  0  0  0  0  0  0999 V2000
   45.4800   30.1730   47.3260 C   0  0  0  0  0  0  0  0  0  0  0  0
   46.1580   31.2170   46.7940 C   0  0  0  0  0  0  0  0  0  0  0  0
   46.3870   32.3210   47.5940 C   0  0  0  0  0  0  0  0  0  0  0  0
   45.9580   32.4000   48.8980 C   0  0  0  0  0  0  0  0  0  0  0  0
   45.2700   31.3290   49.4270 C   0  0  0  0  0  0  0  0  0  0  0  0
   45.0360   30.2180   48.6300 C   0  0  0  0  0  0  0  0  0  0  0  0
   46.9180   33.1970   47.2510 H   0  0  0  0  0  0  0  0  0  0  0  0
   46.1400   33.2680   49.5210 H   0  0  0  0  0  0  0  0  0  0  0  0
   44.8930   31.2890   50.4320 H   0  0  0  0  0  0  0  0  0  0  0  0
   44.5030   29.3110   48.9440 H   0  0  0  0  0  0  0  0  0  0  0  0
   45.1340   28.8550   46.2340 S   0  0  0  0  0  0  0  0  0  0  0  0
   44.4200   29.2500   45.0090 O   0  0  0  0  0  0  0  0  0  0  0  0
   44.1390   27.9490   46.9990 O   0  0  0  0  0  0  0  0  0  0  0  0
   47.3460   27.7650   44.9300 C   0  0  0  0  0  3  0  0  0  0  0  0
   46.4930   27.7740   46.0210 C   0  0  0  0  0  0  0  0  0  0  0  0
   46.8210   26.8170   46.9840 C   0  0  0  0  0  0  0  0  0  0  0  0
   46.1800   26.7840   47.8660 H   0  0  0  0  0  0  0  0  0  0  0  0
   47.8640   25.9270   46.9260 C   0  0  0  0  0  0  0  0  0  0  0  0
   48.2630   24.9750   47.7910 N   0  0  0  0  0  0  0  0  0  0  0  0
   47.8350   24.7260   48.7080 H   0  0  0  0  0  0  0  0  0  0  0  0
   49.3220   24.4020   47.2480 N   0  0  0  0  0  0  0  0  0  0  0  0
   49.6140   24.9710   46.0450 C   0  0  0  0  0  0  0  0  0  0  0  0
   50.4190   24.7270   45.3570 H   0  0  0  0  0  0  0  0  0  0  0  0
   48.6680   25.9700   45.8220 C   0  0  0  0  0  0  0  0  0  0  0  0
   48.4050   26.8880   44.8270 C   0  0  0  0  0  3  0  0  0  0  0  0
   46.6750   31.3310   45.5080 O   0  0  0  0  0  0  0  0  0  0  0  0
   45.3740   34.1830   43.8850 C   0  0  0  0  0  0  0  0  0  0  0  0
   46.4970   34.6810   43.1960 C   0  0  0  0  0  0  0  0  0  0  0  0
   47.6920   34.0230   43.3020 C   0  0  0  0  0  0  0  0  0  0  0  0
   47.7060   32.9220   44.0760 N   0  0  0  0  0  0  0  0  0  0  0  0
   46.6490   32.4590   44.7210 C   0  0  0  0  0  0  0  0  0  0  0  0
   45.4820   33.0870   44.6270 N   0  0  0  0  0  0  0  0  0  0  0  0
   44.4320   34.7060   43.7970 H   0  0  0  0  0  0  0  0  0  0  0  0
   46.3470   35.5550   42.6220 H   0  0  0  0  0  0  0  0  0  0  0  0
   48.9100   34.4570   42.6160 C   0  0  0  0  0  0  0  0  0  0  0  0
   49.6490   34.7240   43.3860 H   0  0  0  0  0  0  0  0  0  0  0  0
   49.3380   33.6300   42.0200 H   0  0  0  0  0  0  0  0  0  0  0  0
   48.7040   35.6260   41.7030 C   0  0  0  0  0  0  0  0  0  0  0  0
   49.6900   36.1890   41.7480 H   0  0  0  0  0  0  0  0  0  0  0  0
   47.9750   36.3660   41.9960 H   0  0  0  0  0  0  0  0  0  0  0  0
   48.5780   35.2630   40.2940 C   0  0  0  0  0  3  0  0  0  0  0  0
   48.0510   34.3430   39.4990 C   0  0  0  0  0  3  0  0  0  0  0  0
   48.2460   34.2280   37.9990 C   0  0  0  0  0  0  0  0  0  0  0  0
   48.9250   35.0300   37.6870 H   0  0  0  0  0  0  0  0  0  0  0  0
   47.2470   34.3400   37.5780 H   0  0  0  0  0  0  0  0  0  0  0  0
   48.6190   33.2090   37.7580 H   0  0  0  0  0  0  0  0  0  0  0  0
  1  6  1  0  0  0  0
  2  1  2  0  0  0  0
  2  3  1  0  0  0  0
  3  4  2  0  0  0  0
  4  5  1  0  0  0  0
  4  8  1  0  0  0  0
  5  9  1  0  0  0  0
  6 10  1  0  0  0  0
  6  5  2  0  0  0  0
  7  3  1  0  0  0  0
 11 13  2  0  0  0  0
 11  1  1  0  0  0  0
 12 11  2  0  0  0  0
 14 15  1  0  0  0  0
 15 11  1  0  0  0  0
 15 16  2  0  0  0  0
 16 17  1  0  0  0  0
 18 16  1  0  0  0  0
 18 19  1  0  0  0  0
 19 20  1  0  0  0  0
 21 19  1  0  0  0  0
 22 21  2  0  0  0  0
 23 22  1  0  0  0  0
 24 22  1  0  0  0  0
 24 18  2  0  0  0  0
 25 14  2  0  0  0  0
 25 24  1  0  0  0  0
 26  2  1  0  0  0  0
 27 32  1  0  0  0  0
 28 29  1  0  0  0  0
 28 27  2  0  0  0  0
 29 30  2  0  0  0  0
 30 31  1  0  0  0  0
 31 26  1  0  0  0  0
 32 31  2  0  0  0  0
 33 27  1  0  0  0  0
 34 28  1  0  0  0  0
 35 29  1  0  0  0  0
 35 36  1  0  0  0  0
 37 35  1  0  0  0  0
 38 39  1  0  0  0  0
 38 40  1  0  0  0  0
 38 35  1  0  0  0  0
 41 38  1  0  0  0  0
 42 41  2  0  0  0  0
 43 42  1  0  0  0  0
 44 43  1  0  0  0  0
 45 43  1  0  0  0  0
 46 43  1  0  0  0  0
M  END
>  <minimizedAffinity>
-5.6618619

>  <minimizedRMSD>
2.29956937

$$$$
