
 OpenBabel03242515103D

 39 42  0  0  0  0  0  0  0  0999 V2000
   47.2060   33.0410   43.8630 N   0  0  0  0  0  0  0  0  0  0  0  0
   47.0240   32.1120   44.3430 H   0  0  0  0  0  0  0  0  0  0  0  0
   45.6410   34.0420   45.4980 C   0  0  0  0  0  0  0  0  0  0  0  0
   44.7330   35.0450   45.6790 C   0  0  0  0  0  0  0  0  0  0  0  0
   44.3940   35.9850   44.7240 C   0  0  0  0  0  0  0  0  0  0  0  0
   45.0020   35.9160   43.5070 C   0  0  0  0  0  0  0  0  0  0  0  0
   45.9210   34.9280   43.2740 C   0  0  0  0  0  0  0  0  0  0  0  0
   46.2410   33.9980   44.2560 C   0  0  0  0  0  0  0  0  0  0  0  0
   44.2120   35.1520   46.6320 H   0  0  0  0  0  0  0  0  0  0  0  0
   43.6730   36.7760   44.8770 H   0  0  0  0  0  0  0  0  0  0  0  0
   44.7610   36.6370   42.7310 H   0  0  0  0  0  0  0  0  0  0  0  0
   46.3790   34.9180   42.2850 H   0  0  0  0  0  0  0  0  0  0  0  0
   47.4550   31.4670   47.3530 C   0  0  0  0  0  0  0  0  0  0  0  0
   46.6400   31.2390   48.4580 C   0  0  0  0  0  0  0  0  0  0  0  0
   45.4510   31.9750   48.5750 C   0  0  0  0  0  0  0  0  0  0  0  0
   45.1260   32.8890   47.6110 N   0  0  0  0  0  0  0  0  0  0  0  0
   45.9590   33.0840   46.5330 C   0  0  0  0  0  0  0  0  0  0  0  0
   47.0890   32.3670   46.4450 N   0  0  0  0  0  0  0  0  0  0  0  0
   48.3580   30.8690   47.3180 H   0  0  0  0  0  0  0  0  0  0  0  0
   46.8370   30.5380   49.2500 H   0  0  0  0  0  0  0  0  0  0  0  0
   44.7720   31.8490   49.4100 H   0  0  0  0  0  0  0  0  0  0  0  0
   48.5420   33.1110   42.8100 S   0  0  0  0  0  0  0  0  0  0  0  0
   48.0060   33.2450   41.3790 O   0  0  0  0  0  0  0  0  0  0  0  0
   48.5410   33.5160   40.6090 H   0  0  0  0  0  0  0  0  0  0  0  0
   49.4830   34.2300   43.0680 O   0  0  0  0  0  0  0  0  0  0  0  0
   49.3720   35.1180   42.6610 H   0  0  0  0  0  0  0  0  0  0  0  0
   49.2710   31.5960   42.8480 O   0  0  0  0  0  0  0  0  0  0  0  0
   50.7440   31.8970   40.9830 C   0  0  0  0  0  3  0  0  0  0  0  0
   50.4220   31.2910   42.1840 C   0  0  0  0  0  0  0  0  0  0  0  0
   51.2830   30.3460   42.7370 C   0  0  0  0  0  0  0  0  0  0  0  0
   51.0180   29.8760   43.6850 H   0  0  0  0  0  0  0  0  0  0  0  0
   52.4610   30.0130   42.0880 C   0  0  0  0  0  0  0  0  0  0  0  0
   53.4660   29.1620   42.3650 N   0  0  0  0  0  0  0  0  0  0  0  0
   53.4640   28.5750   43.2290 H   0  0  0  0  0  0  0  0  0  0  0  0
   54.3850   29.2050   41.4150 N   0  0  0  0  0  0  0  0  0  0  0  0
   54.0270   30.0880   40.4640 C   0  0  0  0  0  0  0  0  0  0  0  0
   54.5650   30.3530   39.5550 H   0  0  0  0  0  0  0  0  0  0  0  0
   52.8110   30.5990   40.8900 C   0  0  0  0  0  0  0  0  0  0  0  0
   51.9330   31.5340   40.3660 C   0  0  0  0  0  3  0  0  0  0  0  0
  1  8  1  0  0  0  0
  1  2  1  0  0  0  0
  3  4  1  0  0  0  0
  3 17  1  0  0  0  0
  4  9  1  0  0  0  0
  5 10  1  0  0  0  0
  5  4  2  0  0  0  0
  6  5  1  0  0  0  0
  7  6  2  0  0  0  0
  7  8  1  0  0  0  0
  8  3  2  0  0  0  0
 11  6  1  0  0  0  0
 12  7  1  0  0  0  0
 13 14  1  0  0  0  0
 14 15  2  0  0  0  0
 14 20  1  0  0  0  0
 15 21  1  0  0  0  0
 16 15  1  0  0  0  0
 17 16  2  0  0  0  0
 18 17  1  0  0  0  0
 18 13  2  0  0  0  0
 19 13  1  0  0  0  0
 22 27  1  0  0  0  0
 22 25  1  0  0  0  0
 22  1  1  0  0  0  0
 23 22  1  0  0  0  0
 24 23  1  0  0  0  0
 26 25  1  0  0  0  0
 28 29  1  0  0  0  0
 29 30  2  0  0  0  0
 29 27  1  0  0  0  0
 30 31  1  0  0  0  0
 32 33  1  0  0  0  0
 32 30  1  0  0  0  0
 33 34  1  0  0  0  0
 35 33  1  0  0  0  0
 36 38  1  0  0  0  0
 36 35  2  0  0  0  0
 37 36  1  0  0  0  0
 38 32  2  0  0  0  0
 39 38  1  0  0  0  0
 39 28  2  0  0  0  0
M  END
>  <minimizedAffinity>
-5.84354544

>  <minimizedRMSD>
0.991360962

$$$$
