
 OpenBabel03242514213D

 52 55  0  0  0  0  0  0  0  0999 V2000
   40.8570   30.0280   42.0460 O   0  0  0  0  0  0  0  0  0  0  0  0
   40.3580   27.9130   43.2230 C   0  0  0  0  0  0  0  0  0  0  0  0
   41.1350   28.9640   42.7990 C   0  0  0  0  0  0  0  0  0  0  0  0
   42.4450   28.9660   43.1980 C   0  0  0  0  0  0  0  0  0  0  0  0
   42.9150   27.9630   43.9710 N   0  0  0  0  0  0  0  0  0  0  0  0
   42.1630   26.9470   44.3800 C   0  0  0  0  0  0  0  0  0  0  0  0
   40.9000   26.9470   43.9960 N   0  0  0  0  0  0  0  0  0  0  0  0
   43.2090   29.6950   42.9740 H   0  0  0  0  0  0  0  0  0  0  0  0
   42.5590   26.1520   44.9990 H   0  0  0  0  0  0  0  0  0  0  0  0
   38.9710   27.8740   42.7390 C   0  0  0  0  0  0  0  0  0  0  0  0
   38.0830   28.7760   43.5440 C   0  0  0  0  0  0  0  0  0  0  0  0
   37.0500   28.0450   44.2740 C   0  0  0  0  0  0  0  0  0  0  0  0
   36.2200   27.1650   43.3660 C   0  0  0  0  0  0  0  0  0  0  0  0
   37.0140   26.4240   42.3620 C   0  0  0  0  0  0  0  0  0  0  0  0
   38.4920   26.4660   42.6870 C   0  0  0  0  0  0  0  0  0  0  0  0
   38.9410   28.3370   41.7350 H   0  0  0  0  0  0  0  0  0  0  0  0
   38.7200   29.3170   44.2740 H   0  0  0  0  0  0  0  0  0  0  0  0
   37.6080   29.5640   42.9340 H   0  0  0  0  0  0  0  0  0  0  0  0
   37.5240   27.4220   45.0700 H   0  0  0  0  0  0  0  0  0  0  0  0
   36.3260   28.7570   44.7510 H   0  0  0  0  0  0  0  0  0  0  0  0
   35.7400   26.4150   44.0620 H   0  0  0  0  0  0  0  0  0  0  0  0
   35.3440   27.7080   42.9230 H   0  0  0  0  0  0  0  0  0  0  0  0
   36.8460   26.7700   41.3020 H   0  0  0  0  0  0  0  0  0  0  0  0
   36.7360   25.3370   42.3440 H   0  0  0  0  0  0  0  0  0  0  0  0
   39.0580   25.8480   41.9670 H   0  0  0  0  0  0  0  0  0  0  0  0
   38.5660   26.0580   43.7300 H   0  0  0  0  0  0  0  0  0  0  0  0
   41.3710   30.5270   40.8780 C   0  0  0  0  0  0  0  0  0  0  0  0
   42.4650   30.6670   41.0270 H   0  0  0  0  0  0  0  0  0  0  0  0
   41.2660   29.9470   39.9620 H   0  0  0  0  0  0  0  0  0  0  0  0
   40.8580   31.9150   40.5380 C   0  0  0  0  0  0  0  0  0  0  0  0
   40.5860   31.9360   39.4600 H   0  0  0  0  0  0  0  0  0  0  0  0
   41.6790   32.6720   40.6410 H   0  0  0  0  0  0  0  0  0  0  0  0
   39.7660   32.3300   41.3930 N   0  0  0  0  0  0  0  0  0  0  0  0
   39.0630   31.5570   41.3790 H   0  0  0  0  0  0  0  0  0  0  0  0
   38.9110   33.5920   40.5450 S   0  0  0  0  0  0  0  0  0  0  0  0
   39.6840   34.0390   39.3400 O   0  0  0  0  0  0  0  0  0  0  0  0
   40.6690   34.0570   39.2450 H   0  0  0  0  0  0  0  0  0  0  0  0
   38.7520   34.7340   41.5070 O   0  0  0  0  0  0  0  0  0  0  0  0
   39.4100   35.4820   41.5820 H   0  0  0  0  0  0  0  0  0  0  0  0
   37.3820   33.1090   40.1090 O   0  0  0  0  0  0  0  0  0  0  0  0
   36.3730   31.0110   40.9850 C   0  0  0  0  0  3  0  0  0  0  0  0
   36.9270   31.8170   40.0120 C   0  0  0  0  0  0  0  0  0  0  0  0
   37.0670   31.2920   38.7230 C   0  0  0  0  0  0  0  0  0  0  0  0
   37.4770   31.7970   37.8740 H   0  0  0  0  0  0  0  0  0  0  0  0
   36.6430   29.9840   38.4790 C   0  0  0  0  0  0  0  0  0  0  0  0
   36.6460   29.2140   37.3680 N   0  0  0  0  0  0  0  0  0  0  0  0
   36.9960   29.4940   36.4290 H   0  0  0  0  0  0  0  0  0  0  0  0
   36.1370   28.0250   37.6240 N   0  0  0  0  0  0  0  0  0  0  0  0
   35.7700   27.9440   38.9150 C   0  0  0  0  0  0  0  0  0  0  0  0
   35.3160   27.1010   39.4560 H   0  0  0  0  0  0  0  0  0  0  0  0
   36.0830   29.1690   39.4640 C   0  0  0  0  0  0  0  0  0  0  0  0
   35.9640   29.7290   40.7200 C   0  0  0  0  0  3  0  0  0  0  0  0
  1  3  1  0  0  0  0
  2  7  1  0  0  0  0
  3  4  1  0  0  0  0
  3  2  2  0  0  0  0
  4  5  2  0  0  0  0
  5  6  1  0  0  0  0
  6  9  1  0  0  0  0
  7  6  2  0  0  0  0
  8  4  1  0  0  0  0
 10  2  1  0  0  0  0
 10 11  1  0  0  0  0
 11 17  1  0  0  0  0
 11 12  1  0  0  0  0
 12 20  1  0  0  0  0
 12 19  1  0  0  0  0
 13 21  1  0  0  0  0
 13 12  1  0  0  0  0
 14 15  1  0  0  0  0
 14 13  1  0  0  0  0
 15 10  1  0  0  0  0
 15 26  1  0  0  0  0
 16 10  1  0  0  0  0
 18 11  1  0  0  0  0
 22 13  1  0  0  0  0
 23 14  1  0  0  0  0
 24 14  1  0  0  0  0
 25 15  1  0  0  0  0
 27 28  1  0  0  0  0
 27  1  1  0  0  0  0
 29 27  1  0  0  0  0
 30 32  1  0  0  0  0
 30 27  1  0  0  0  0
 30 33  1  0  0  0  0
 31 30  1  0  0  0  0
 34 33  1  0  0  0  0
 35 33  1  0  0  0  0
 35 38  1  0  0  0  0
 36 35  1  0  0  0  0
 37 36  1  0  0  0  0
 38 39  1  0  0  0  0
 40 35  1  0  0  0  0
 42 40  1  0  0  0  0
 42 41  2  0  0  0  0
 43 42  1  0  0  0  0
 44 43  1  0  0  0  0
 45 43  2  0  0  0  0
 45 51  1  0  0  0  0
 46 48  1  0  0  0  0
 46 45  1  0  0  0  0
 47 46  1  0  0  0  0
 48 49  2  0  0  0  0
 49 50  1  0  0  0  0
 49 51  1  0  0  0  0
 51 52  2  0  0  0  0
 52 41  1  0  0  0  0
M  END
>  <minimizedAffinity>
-6.74692345

$$$$

 OpenBabel03242514213D

 52 55  0  0  0  0  0  0  0  0999 V2000
   38.3640   31.8270   39.1850 O   0  0  0  0  0  0  0  0  0  0  0  0
   40.4150   33.1700   39.4990 C   0  0  0  0  0  0  0  0  0  0  0  0
   39.0710   32.8930   39.5590 C   0  0  0  0  0  0  0  0  0  0  0  0
   38.2640   33.8610   40.0960 C   0  0  0  0  0  0  0  0  0  0  0  0
   38.8010   35.0190   40.5350 N   0  0  0  0  0  0  0  0  0  0  0  0
   40.1010   35.2860   40.4750 C   0  0  0  0  0  0  0  0  0  0  0  0
   40.8780   34.3520   39.9580 N   0  0  0  0  0  0  0  0  0  0  0  0
   37.1920   33.8360   40.2330 H   0  0  0  0  0  0  0  0  0  0  0  0
   40.5130   36.2210   40.8310 H   0  0  0  0  0  0  0  0  0  0  0  0
   41.2730   32.1620   38.8600 C   0  0  0  0  0  0  0  0  0  0  0  0
   42.6610   32.1820   39.4280 C   0  0  0  0  0  0  0  0  0  0  0  0
   43.6680   32.5650   38.4410 C   0  0  0  0  0  0  0  0  0  0  0  0
   43.6190   31.6960   37.2040 C   0  0  0  0  0  0  0  0  0  0  0  0
   42.2480   31.4170   36.7230 C   0  0  0  0  0  0  0  0  0  0  0  0
   41.2370   32.3300   37.3820 C   0  0  0  0  0  0  0  0  0  0  0  0
   40.9060   31.1590   39.1520 H   0  0  0  0  0  0  0  0  0  0  0  0
   42.6780   32.9180   40.2580 H   0  0  0  0  0  0  0  0  0  0  0  0
   42.9500   31.2210   39.8870 H   0  0  0  0  0  0  0  0  0  0  0  0
   43.5230   33.6350   38.1540 H   0  0  0  0  0  0  0  0  0  0  0  0
   44.7000   32.4380   38.8610 H   0  0  0  0  0  0  0  0  0  0  0  0
   44.1570   32.2990   36.4140 H   0  0  0  0  0  0  0  0  0  0  0  0
   44.2490   30.7730   37.3020 H   0  0  0  0  0  0  0  0  0  0  0  0
   41.9310   30.3420   36.8460 H   0  0  0  0  0  0  0  0  0  0  0  0
   42.1580   31.6050   35.6200 H   0  0  0  0  0  0  0  0  0  0  0  0
   40.2320   32.1540   36.9560 H   0  0  0  0  0  0  0  0  0  0  0  0
   41.6030   33.3670   37.1630 H   0  0  0  0  0  0  0  0  0  0  0  0
   37.5320   31.5600   38.1310 C   0  0  0  0  0  0  0  0  0  0  0  0
   36.8840   32.4530   37.9810 H   0  0  0  0  0  0  0  0  0  0  0  0
   37.9640   31.3390   37.1560 H   0  0  0  0  0  0  0  0  0  0  0  0
   36.5550   30.4300   38.4030 C   0  0  0  0  0  0  0  0  0  0  0  0
   36.4080   29.8560   37.4630 H   0  0  0  0  0  0  0  0  0  0  0  0
   35.5410   30.8400   38.6500 H   0  0  0  0  0  0  0  0  0  0  0  0
   36.9700   29.5900   39.5060 N   0  0  0  0  0  0  0  0  0  0  0  0
   36.9650   28.6060   39.1530 H   0  0  0  0  0  0  0  0  0  0  0  0
   35.6480   29.5570   40.6440 S   0  0  0  0  0  0  0  0  0  0  0  0
   34.3370   29.4210   39.9290 O   0  0  0  0  0  0  0  0  0  0  0  0
   34.1160   29.7770   39.0320 H   0  0  0  0  0  0  0  0  0  0  0  0
   35.6910   30.8530   41.4000 O   0  0  0  0  0  0  0  0  0  0  0  0
   35.1870   31.6690   41.1170 H   0  0  0  0  0  0  0  0  0  0  0  0
   35.8310   28.3380   41.7590 O   0  0  0  0  0  0  0  0  0  0  0  0
   38.0290   28.5450   42.9050 C   0  0  0  0  0  3  0  0  0  0  0  0
   37.0140   27.8610   42.2670 C   0  0  0  0  0  0  0  0  0  0  0  0
   37.1610   26.4830   42.0850 C   0  0  0  0  0  0  0  0  0  0  0  0
   36.4610   25.8270   41.6100 H   0  0  0  0  0  0  0  0  0  0  0  0
   38.3200   25.8620   42.5550 C   0  0  0  0  0  0  0  0  0  0  0  0
   38.7440   24.5780   42.5300 N   0  0  0  0  0  0  0  0  0  0  0  0
   38.2320   23.7710   42.1210 H   0  0  0  0  0  0  0  0  0  0  0  0
   39.9260   24.4670   43.1050 N   0  0  0  0  0  0  0  0  0  0  0  0
   40.3460   25.6680   43.5390 C   0  0  0  0  0  0  0  0  0  0  0  0
   41.2810   25.9290   44.0580 H   0  0  0  0  0  0  0  0  0  0  0  0
   39.3460   26.5530   43.2000 C   0  0  0  0  0  0  0  0  0  0  0  0
   39.1580   27.9120   43.3570 C   0  0  0  0  0  3  0  0  0  0  0  0
  1  3  1  0  0  0  0
  2  3  2  0  0  0  0
  2  7  1  0  0  0  0
  3  4  1  0  0  0  0
  4  8  1  0  0  0  0
  4  5  2  0  0  0  0
  6  5  1  0  0  0  0
  6  9  1  0  0  0  0
  7  6  2  0  0  0  0
 10 16  1  0  0  0  0
 10 11  1  0  0  0  0
 10  2  1  0  0  0  0
 11 18  1  0  0  0  0
 11 17  1  0  0  0  0
 12 20  1  0  0  0  0
 12 11  1  0  0  0  0
 13 22  1  0  0  0  0
 13 12  1  0  0  0  0
 14 23  1  0  0  0  0
 14 13  1  0  0  0  0
 14 15  1  0  0  0  0
 15 10  1  0  0  0  0
 19 12  1  0  0  0  0
 21 13  1  0  0  0  0
 24 14  1  0  0  0  0
 25 15  1  0  0  0  0
 26 15  1  0  0  0  0
 27 30  1  0  0  0  0
 27  1  1  0  0  0  0
 28 27  1  0  0  0  0
 29 27  1  0  0  0  0
 30 32  1  0  0  0  0
 30 33  1  0  0  0  0
 31 30  1  0  0  0  0
 33 35  1  0  0  0  0
 34 33  1  0  0  0  0
 35 38  1  0  0  0  0
 35 40  1  0  0  0  0
 36 35  1  0  0  0  0
 37 36  1  0  0  0  0
 39 38  1  0  0  0  0
 40 42  1  0  0  0  0
 41 52  1  0  0  0  0
 42 41  2  0  0  0  0
 43 42  1  0  0  0  0
 43 45  2  0  0  0  0
 44 43  1  0  0  0  0
 45 51  1  0  0  0  0
 46 45  1  0  0  0  0
 46 48  1  0  0  0  0
 47 46  1  0  0  0  0
 48 49  2  0  0  0  0
 49 50  1  0  0  0  0
 51 52  2  0  0  0  0
 51 49  1  0  0  0  0
M  END
>  <minimizedAffinity>
-6.63737583

$$$$

 OpenBabel03242514213D

 52 55  0  0  0  0  0  0  0  0999 V2000
   37.7880   27.4560   43.7480 O   0  0  0  0  0  0  0  0  0  0  0  0
   38.6230   25.6550   42.2750 C   0  0  0  0  0  0  0  0  0  0  0  0
   38.6840   26.5840   43.2860 C   0  0  0  0  0  0  0  0  0  0  0  0
   39.8620   26.6690   43.9780 C   0  0  0  0  0  0  0  0  0  0  0  0
   40.8940   25.8600   43.6530 N   0  0  0  0  0  0  0  0  0  0  0  0
   40.8340   24.9630   42.6750 C   0  0  0  0  0  0  0  0  0  0  0  0
   39.6970   24.8820   42.0090 N   0  0  0  0  0  0  0  0  0  0  0  0
   40.1080   27.3260   44.8000 H   0  0  0  0  0  0  0  0  0  0  0  0
   41.6730   24.3240   42.4300 H   0  0  0  0  0  0  0  0  0  0  0  0
   37.3840   25.6110   41.4870 C   0  0  0  0  0  0  0  0  0  0  0  0
   36.7270   24.2650   41.5690 C   0  0  0  0  0  0  0  0  0  0  0  0
   36.6780   23.5810   40.2790 C   0  0  0  0  0  0  0  0  0  0  0  0
   36.0190   24.4220   39.2090 C   0  0  0  0  0  0  0  0  0  0  0  0
   36.4310   25.8430   39.2260 C   0  0  0  0  0  0  0  0  0  0  0  0
   37.6550   26.0510   40.0920 C   0  0  0  0  0  0  0  0  0  0  0  0
   36.6400   26.2730   41.9710 H   0  0  0  0  0  0  0  0  0  0  0  0
   37.3130   23.6440   42.2790 H   0  0  0  0  0  0  0  0  0  0  0  0
   35.7090   24.3100   41.9950 H   0  0  0  0  0  0  0  0  0  0  0  0
   37.7140   23.3120   39.9590 H   0  0  0  0  0  0  0  0  0  0  0  0
   36.0640   22.6460   40.3520 H   0  0  0  0  0  0  0  0  0  0  0  0
   36.3640   23.9640   38.2360 H   0  0  0  0  0  0  0  0  0  0  0  0
   34.9060   24.2870   39.1800 H   0  0  0  0  0  0  0  0  0  0  0  0
   35.6140   26.5520   39.5420 H   0  0  0  0  0  0  0  0  0  0  0  0
   36.7190   26.1960   38.2000 H   0  0  0  0  0  0  0  0  0  0  0  0
   37.9880   27.1040   40.0330 H   0  0  0  0  0  0  0  0  0  0  0  0
   38.4230   25.3500   39.6720 H   0  0  0  0  0  0  0  0  0  0  0  0
   37.6190   28.8080   43.6100 C   0  0  0  0  0  0  0  0  0  0  0  0
   36.5940   29.0550   43.9660 H   0  0  0  0  0  0  0  0  0  0  0  0
   38.2890   29.4840   44.1400 H   0  0  0  0  0  0  0  0  0  0  0  0
   37.6360   29.2750   42.1650 C   0  0  0  0  0  0  0  0  0  0  0  0
   37.7410   28.3840   41.5090 H   0  0  0  0  0  0  0  0  0  0  0  0
   38.5520   29.8900   41.9630 H   0  0  0  0  0  0  0  0  0  0  0  0
   36.4810   30.0800   41.8270 N   0  0  0  0  0  0  0  0  0  0  0  0
   35.7470   29.4210   41.4810 H   0  0  0  0  0  0  0  0  0  0  0  0
   36.8810   30.9500   40.3680 S   0  0  0  0  0  0  0  0  0  0  0  0
   36.6320   32.4180   40.5420 O   0  0  0  0  0  0  0  0  0  0  0  0
   35.9330   32.8340   41.1060 H   0  0  0  0  0  0  0  0  0  0  0  0
   36.0030   30.4030   39.2800 O   0  0  0  0  0  0  0  0  0  0  0  0
   35.1110   30.7920   39.0500 H   0  0  0  0  0  0  0  0  0  0  0  0
   38.4530   30.6770   39.9050 O   0  0  0  0  0  0  0  0  0  0  0  0
   40.1230   32.2690   40.8350 C   0  0  0  0  0  3  0  0  0  0  0  0
   39.4580   31.6100   39.8220 C   0  0  0  0  0  0  0  0  0  0  0  0
   39.8190   31.8950   38.5020 C   0  0  0  0  0  0  0  0  0  0  0  0
   39.3930   31.4650   37.6200 H   0  0  0  0  0  0  0  0  0  0  0  0
   40.8310   32.8280   38.2680 C   0  0  0  0  0  0  0  0  0  0  0  0
   41.3920   33.3060   37.1340 N   0  0  0  0  0  0  0  0  0  0  0  0
   41.1370   33.0330   36.1630 H   0  0  0  0  0  0  0  0  0  0  0  0
   42.3290   34.1900   37.4130 N   0  0  0  0  0  0  0  0  0  0  0  0
   42.4400   34.3450   38.7440 C   0  0  0  0  0  0  0  0  0  0  0  0
   43.1180   34.9990   39.3120 H   0  0  0  0  0  0  0  0  0  0  0  0
   41.5050   33.4950   39.2930 C   0  0  0  0  0  0  0  0  0  0  0  0
   41.1140   33.1810   40.5800 C   0  0  0  0  0  3  0  0  0  0  0  0
  2  3  1  0  0  0  0
  3  1  1  0  0  0  0
  3  4  2  0  0  0  0
  4  8  1  0  0  0  0
  5  4  1  0  0  0  0
  6  5  2  0  0  0  0
  7  2  2  0  0  0  0
  7  6  1  0  0  0  0
  9  6  1  0  0  0  0
 10 11  1  0  0  0  0
 10 16  1  0  0  0  0
 10  2  1  0  0  0  0
 11 18  1  0  0  0  0
 11 17  1  0  0  0  0
 12 20  1  0  0  0  0
 12 11  1  0  0  0  0
 13 14  1  0  0  0  0
 13 12  1  0  0  0  0
 14 23  1  0  0  0  0
 14 15  1  0  0  0  0
 15 10  1  0  0  0  0
 19 12  1  0  0  0  0
 21 13  1  0  0  0  0
 22 13  1  0  0  0  0
 24 14  1  0  0  0  0
 25 15  1  0  0  0  0
 26 15  1  0  0  0  0
 27  1  1  0  0  0  0
 27 28  1  0  0  0  0
 27 29  1  0  0  0  0
 30 27  1  0  0  0  0
 31 30  1  0  0  0  0
 32 30  1  0  0  0  0
 33 30  1  0  0  0  0
 34 33  1  0  0  0  0
 35 36  1  0  0  0  0
 35 33  1  0  0  0  0
 36 37  1  0  0  0  0
 38 35  1  0  0  0  0
 39 38  1  0  0  0  0
 40 35  1  0  0  0  0
 42 40  1  0  0  0  0
 42 41  2  0  0  0  0
 43 42  1  0  0  0  0
 44 43  1  0  0  0  0
 45 43  2  0  0  0  0
 45 51  1  0  0  0  0
 46 48  1  0  0  0  0
 46 45  1  0  0  0  0
 47 46  1  0  0  0  0
 48 49  2  0  0  0  0
 49 51  1  0  0  0  0
 49 50  1  0  0  0  0
 51 52  2  0  0  0  0
 52 41  1  0  0  0  0
M  END
>  <minimizedAffinity>
-6.54947758

$$$$

 OpenBabel03242514213D

 52 55  0  0  0  0  0  0  0  0999 V2000
   36.3680   29.5520   41.0240 O   0  0  0  0  0  0  0  0  0  0  0  0
   37.4030   27.3150   41.2180 C   0  0  0  0  0  0  0  0  0  0  0  0
   37.1130   28.6050   41.5940 C   0  0  0  0  0  0  0  0  0  0  0  0
   37.6680   29.0470   42.7650 C   0  0  0  0  0  0  0  0  0  0  0  0
   38.4590   28.2250   43.4890 N   0  0  0  0  0  0  0  0  0  0  0  0
   38.7390   26.9790   43.1230 C   0  0  0  0  0  0  0  0  0  0  0  0
   38.2020   26.5530   41.9940 N   0  0  0  0  0  0  0  0  0  0  0  0
   37.5620   30.0170   43.2290 H   0  0  0  0  0  0  0  0  0  0  0  0
   39.3760   26.3360   43.7170 H   0  0  0  0  0  0  0  0  0  0  0  0
   36.8650   26.8630   39.9280 C   0  0  0  0  0  0  0  0  0  0  0  0
   36.6050   25.3850   39.9280 C   0  0  0  0  0  0  0  0  0  0  0  0
   37.4430   24.6650   38.9730 C   0  0  0  0  0  0  0  0  0  0  0  0
   37.3200   25.2190   37.5710 C   0  0  0  0  0  0  0  0  0  0  0  0
   37.3130   26.6970   37.5100 C   0  0  0  0  0  0  0  0  0  0  0  0
   37.7580   27.3050   38.8230 C   0  0  0  0  0  0  0  0  0  0  0  0
   35.8490   27.2870   39.8070 H   0  0  0  0  0  0  0  0  0  0  0  0
   36.8190   25.0030   40.9480 H   0  0  0  0  0  0  0  0  0  0  0  0
   35.5460   25.1360   39.7420 H   0  0  0  0  0  0  0  0  0  0  0  0
   38.5100   24.7100   39.3020 H   0  0  0  0  0  0  0  0  0  0  0  0
   37.1280   23.5910   38.9040 H   0  0  0  0  0  0  0  0  0  0  0  0
   38.2440   24.8460   37.0380 H   0  0  0  0  0  0  0  0  0  0  0  0
   36.4800   24.7490   36.9950 H   0  0  0  0  0  0  0  0  0  0  0  0
   36.3220   27.1360   37.2020 H   0  0  0  0  0  0  0  0  0  0  0  0
   38.0340   27.0760   36.7370 H   0  0  0  0  0  0  0  0  0  0  0  0
   37.8140   28.4050   38.7330 H   0  0  0  0  0  0  0  0  0  0  0  0
   38.7660   26.8540   39.0190 H   0  0  0  0  0  0  0  0  0  0  0  0
   36.2940   30.9120   41.1590 C   0  0  0  0  0  0  0  0  0  0  0  0
   35.2740   31.2250   40.8420 H   0  0  0  0  0  0  0  0  0  0  0  0
   36.4510   31.3580   42.1400 H   0  0  0  0  0  0  0  0  0  0  0  0
   37.2240   31.6630   40.2210 C   0  0  0  0  0  0  0  0  0  0  0  0
   37.2040   31.1620   39.2290 H   0  0  0  0  0  0  0  0  0  0  0  0
   38.2860   31.5720   40.5670 H   0  0  0  0  0  0  0  0  0  0  0  0
   36.9080   33.0730   40.1360 N   0  0  0  0  0  0  0  0  0  0  0  0
   36.5820   33.2500   39.1590 H   0  0  0  0  0  0  0  0  0  0  0  0
   38.4260   33.9340   40.1560 S   0  0  0  0  0  0  0  0  0  0  0  0
   38.8850   34.1660   41.5640 O   0  0  0  0  0  0  0  0  0  0  0  0
   38.3080   34.3050   42.3560 H   0  0  0  0  0  0  0  0  0  0  0  0
   38.1910   35.2470   39.4670 O   0  0  0  0  0  0  0  0  0  0  0  0
   37.9220   36.0790   39.9520 H   0  0  0  0  0  0  0  0  0  0  0  0
   39.5940   33.1330   39.2870 O   0  0  0  0  0  0  0  0  0  0  0  0
   41.6230   32.4030   40.5270 C   0  0  0  0  0  3  0  0  0  0  0  0
   40.9410   33.1040   39.5550 C   0  0  0  0  0  0  0  0  0  0  0  0
   41.6780   33.9190   38.6900 C   0  0  0  0  0  0  0  0  0  0  0  0
   41.2870   34.5180   37.8940 H   0  0  0  0  0  0  0  0  0  0  0  0
   43.0640   33.9860   38.8470 C   0  0  0  0  0  0  0  0  0  0  0  0
   44.0280   34.6660   38.1860 N   0  0  0  0  0  0  0  0  0  0  0  0
   43.8820   35.3080   37.3810 H   0  0  0  0  0  0  0  0  0  0  0  0
   45.2140   34.4110   38.7010 N   0  0  0  0  0  0  0  0  0  0  0  0
   45.1000   33.5520   39.7280 C   0  0  0  0  0  0  0  0  0  0  0  0
   45.8880   33.1340   40.3740 H   0  0  0  0  0  0  0  0  0  0  0  0
   43.7540   33.2760   39.8310 C   0  0  0  0  0  0  0  0  0  0  0  0
   42.9850   32.4850   40.6610 C   0  0  0  0  0  3  0  0  0  0  0  0
  1 27  1  0  0  0  0
  1  3  1  0  0  0  0
  2  3  2  0  0  0  0
  2  7  1  0  0  0  0
  3  4  1  0  0  0  0
  4  8  1  0  0  0  0
  4  5  2  0  0  0  0
  6  5  1  0  0  0  0
  6  9  1  0  0  0  0
  7  6  2  0  0  0  0
 10  2  1  0  0  0  0
 11 10  1  0  0  0  0
 11 17  1  0  0  0  0
 12 19  1  0  0  0  0
 12 11  1  0  0  0  0
 13 12  1  0  0  0  0
 14 13  1  0  0  0  0
 14 15  1  0  0  0  0
 15 26  1  0  0  0  0
 15 10  1  0  0  0  0
 16 10  1  0  0  0  0
 18 11  1  0  0  0  0
 20 12  1  0  0  0  0
 21 13  1  0  0  0  0
 22 13  1  0  0  0  0
 23 14  1  0  0  0  0
 24 14  1  0  0  0  0
 25 15  1  0  0  0  0
 27 29  1  0  0  0  0
 28 27  1  0  0  0  0
 30 32  1  0  0  0  0
 30 27  1  0  0  0  0
 31 30  1  0  0  0  0
 33 35  1  0  0  0  0
 33 30  1  0  0  0  0
 34 33  1  0  0  0  0
 35 36  1  0  0  0  0
 36 37  1  0  0  0  0
 38 39  1  0  0  0  0
 38 35  1  0  0  0  0
 40 42  1  0  0  0  0
 40 35  1  0  0  0  0
 41 52  1  0  0  0  0
 42 41  2  0  0  0  0
 43 45  2  0  0  0  0
 43 42  1  0  0  0  0
 44 43  1  0  0  0  0
 45 51  1  0  0  0  0
 46 48  1  0  0  0  0
 46 45  1  0  0  0  0
 47 46  1  0  0  0  0
 48 49  2  0  0  0  0
 49 51  1  0  0  0  0
 49 50  1  0  0  0  0
 51 52  2  0  0  0  0
M  END
>  <minimizedAffinity>
-6.2828002

$$$$

 OpenBabel03242514213D

 52 55  0  0  0  0  0  0  0  0999 V2000
   38.1370   28.8910   38.0290 O   0  0  0  0  0  0  0  0  0  0  0  0
   37.1730   27.1450   39.4910 C   0  0  0  0  0  0  0  0  0  0  0  0
   37.4170   27.8040   38.3100 C   0  0  0  0  0  0  0  0  0  0  0  0
   36.8360   27.2890   37.1820 C   0  0  0  0  0  0  0  0  0  0  0  0
   36.0650   26.1830   37.2670 N   0  0  0  0  0  0  0  0  0  0  0  0
   35.8290   25.5470   38.4090 C   0  0  0  0  0  0  0  0  0  0  0  0
   36.3910   26.0450   39.4960 N   0  0  0  0  0  0  0  0  0  0  0  0
   36.9060   27.6560   36.1680 H   0  0  0  0  0  0  0  0  0  0  0  0
   35.2080   24.6630   38.4570 H   0  0  0  0  0  0  0  0  0  0  0  0
   37.7390   27.7370   40.7110 C   0  0  0  0  0  0  0  0  0  0  0  0
   38.0110   26.6920   41.7530 C   0  0  0  0  0  0  0  0  0  0  0  0
   37.1970   26.8680   42.9530 C   0  0  0  0  0  0  0  0  0  0  0  0
   37.3410   28.2520   43.5470 C   0  0  0  0  0  0  0  0  0  0  0  0
   37.3370   29.3370   42.5410 C   0  0  0  0  0  0  0  0  0  0  0  0
   36.8630   28.8380   41.1930 C   0  0  0  0  0  0  0  0  0  0  0  0
   38.7530   28.1140   40.4760 H   0  0  0  0  0  0  0  0  0  0  0  0
   37.7820   25.7020   41.3090 H   0  0  0  0  0  0  0  0  0  0  0  0
   39.0760   26.6420   42.0410 H   0  0  0  0  0  0  0  0  0  0  0  0
   36.1240   26.6740   42.7090 H   0  0  0  0  0  0  0  0  0  0  0  0
   37.5220   26.1570   43.7570 H   0  0  0  0  0  0  0  0  0  0  0  0
   36.4300   28.3730   44.2040 H   0  0  0  0  0  0  0  0  0  0  0  0
   38.1960   28.3230   44.2700 H   0  0  0  0  0  0  0  0  0  0  0  0
   38.3300   29.8580   42.4280 H   0  0  0  0  0  0  0  0  0  0  0  0
   36.6270   30.1570   42.8310 H   0  0  0  0  0  0  0  0  0  0  0  0
   36.7990   29.6780   40.4780 H   0  0  0  0  0  0  0  0  0  0  0  0
   35.8550   28.3890   41.3950 H   0  0  0  0  0  0  0  0  0  0  0  0
   37.8720   30.0630   37.3740 C   0  0  0  0  0  0  0  0  0  0  0  0
   38.8440   30.4790   37.0250 H   0  0  0  0  0  0  0  0  0  0  0  0
   37.2230   30.0480   36.5000 H   0  0  0  0  0  0  0  0  0  0  0  0
   37.3050   31.1450   38.2770 C   0  0  0  0  0  0  0  0  0  0  0  0
   37.2370   30.7410   39.3110 H   0  0  0  0  0  0  0  0  0  0  0  0
   36.2470   31.3800   37.9910 H   0  0  0  0  0  0  0  0  0  0  0  0
   38.0630   32.3770   38.2130 N   0  0  0  0  0  0  0  0  0  0  0  0
   39.0540   32.1320   38.4380 H   0  0  0  0  0  0  0  0  0  0  0  0
   37.6140   33.3210   39.6100 S   0  0  0  0  0  0  0  0  0  0  0  0
   36.8440   32.4850   40.5880 O   0  0  0  0  0  0  0  0  0  0  0  0
   36.2380   31.7340   40.3720 H   0  0  0  0  0  0  0  0  0  0  0  0
   36.7610   34.4530   39.1150 O   0  0  0  0  0  0  0  0  0  0  0  0
   35.7640   34.4010   39.0560 H   0  0  0  0  0  0  0  0  0  0  0  0
   38.9420   33.9990   40.3420 O   0  0  0  0  0  0  0  0  0  0  0  0
   40.9490   32.5850   40.7380 C   0  0  0  0  0  3  0  0  0  0  0  0
   40.2540   33.6310   40.1680 C   0  0  0  0  0  0  0  0  0  0  0  0
   40.9330   34.4670   39.2780 C   0  0  0  0  0  0  0  0  0  0  0  0
   40.5260   35.3120   38.7630 H   0  0  0  0  0  0  0  0  0  0  0  0
   42.2780   34.2080   39.0050 C   0  0  0  0  0  0  0  0  0  0  0  0
   43.1850   34.8200   38.2100 N   0  0  0  0  0  0  0  0  0  0  0  0
   43.0150   35.6580   37.6180 H   0  0  0  0  0  0  0  0  0  0  0  0
   44.3510   34.2080   38.2760 N   0  0  0  0  0  0  0  0  0  0  0  0
   44.2790   33.1610   39.1170 C   0  0  0  0  0  0  0  0  0  0  0  0
   45.0640   32.4430   39.4000 H   0  0  0  0  0  0  0  0  0  0  0  0
   42.9820   33.1500   39.5810 C   0  0  0  0  0  0  0  0  0  0  0  0
   42.2700   32.3510   40.4540 C   0  0  0  0  0  3  0  0  0  0  0  0
  1  3  1  0  0  0  0
  2  7  1  0  0  0  0
  2 10  1  0  0  0  0
  3  2  2  0  0  0  0
  4  5  2  0  0  0  0
  4  3  1  0  0  0  0
  5  6  1  0  0  0  0
  6  9  1  0  0  0  0
  6  7  2  0  0  0  0
  8  4  1  0  0  0  0
 10 15  1  0  0  0  0
 10 11  1  0  0  0  0
 11 18  1  0  0  0  0
 11 12  1  0  0  0  0
 12 13  1  0  0  0  0
 12 20  1  0  0  0  0
 13 21  1  0  0  0  0
 13 22  1  0  0  0  0
 14 24  1  0  0  0  0
 14 13  1  0  0  0  0
 15 26  1  0  0  0  0
 15 14  1  0  0  0  0
 16 10  1  0  0  0  0
 17 11  1  0  0  0  0
 19 12  1  0  0  0  0
 23 14  1  0  0  0  0
 25 15  1  0  0  0  0
 27  1  1  0  0  0  0
 27 30  1  0  0  0  0
 28 27  1  0  0  0  0
 29 27  1  0  0  0  0
 30 31  1  0  0  0  0
 32 30  1  0  0  0  0
 33 30  1  0  0  0  0
 33 34  1  0  0  0  0
 33 35  1  0  0  0  0
 35 40  1  0  0  0  0
 35 36  1  0  0  0  0
 37 36  1  0  0  0  0
 38 35  1  0  0  0  0
 39 38  1  0  0  0  0
 42 40  1  0  0  0  0
 42 41  2  0  0  0  0
 43 42  1  0  0  0  0
 44 43  1  0  0  0  0
 45 43  2  0  0  0  0
 45 51  1  0  0  0  0
 46 48  1  0  0  0  0
 46 45  1  0  0  0  0
 47 46  1  0  0  0  0
 48 49  2  0  0  0  0
 49 50  1  0  0  0  0
 49 51  1  0  0  0  0
 51 52  2  0  0  0  0
 52 41  1  0  0  0  0
M  END
>  <minimizedAffinity>
-6.14545298

$$$$

 OpenBabel03242514213D

 52 55  0  0  0  0  0  0  0  0999 V2000
   39.9420   29.9140   39.6350 O   0  0  0  0  0  0  0  0  0  0  0  0
   39.0040   27.6860   40.1560 C   0  0  0  0  0  0  0  0  0  0  0  0
   39.6820   28.6250   39.4150 C   0  0  0  0  0  0  0  0  0  0  0  0
   40.2080   28.2090   38.2210 C   0  0  0  0  0  0  0  0  0  0  0  0
   40.0470   26.9280   37.8240 N   0  0  0  0  0  0  0  0  0  0  0  0
   39.3900   26.0220   38.5410 C   0  0  0  0  0  0  0  0  0  0  0  0
   38.8850   26.4240   39.6920 N   0  0  0  0  0  0  0  0  0  0  0  0
   40.7690   28.7870   37.5020 H   0  0  0  0  0  0  0  0  0  0  0  0
   39.2710   25.0000   38.2050 H   0  0  0  0  0  0  0  0  0  0  0  0
   38.3810   28.1490   41.4030 C   0  0  0  0  0  0  0  0  0  0  0  0
   39.3630   28.1590   42.5380 C   0  0  0  0  0  0  0  0  0  0  0  0
   39.0100   27.2180   43.5980 C   0  0  0  0  0  0  0  0  0  0  0  0
   37.6070   27.4390   44.1160 C   0  0  0  0  0  0  0  0  0  0  0  0
   36.6090   27.6930   43.0540 C   0  0  0  0  0  0  0  0  0  0  0  0
   37.1600   27.3480   41.6870 C   0  0  0  0  0  0  0  0  0  0  0  0
   38.1310   29.2210   41.2900 H   0  0  0  0  0  0  0  0  0  0  0  0
   40.3560   27.8800   42.1290 H   0  0  0  0  0  0  0  0  0  0  0  0
   39.5020   29.1640   42.9750 H   0  0  0  0  0  0  0  0  0  0  0  0
   39.1090   26.1720   43.2180 H   0  0  0  0  0  0  0  0  0  0  0  0
   39.6850   27.3510   44.4830 H   0  0  0  0  0  0  0  0  0  0  0  0
   37.3390   26.4690   44.6300 H   0  0  0  0  0  0  0  0  0  0  0  0
   37.5680   28.1930   44.9460 H   0  0  0  0  0  0  0  0  0  0  0  0
   36.2040   28.7450   43.0490 H   0  0  0  0  0  0  0  0  0  0  0  0
   35.6990   27.0490   43.1880 H   0  0  0  0  0  0  0  0  0  0  0  0
   36.3760   27.4750   40.9180 H   0  0  0  0  0  0  0  0  0  0  0  0
   37.4850   26.2780   41.7720 H   0  0  0  0  0  0  0  0  0  0  0  0
   40.9730   30.5870   40.2340 C   0  0  0  0  0  0  0  0  0  0  0  0
   40.9650   30.3180   41.3140 H   0  0  0  0  0  0  0  0  0  0  0  0
   41.9920   30.4120   39.8920 H   0  0  0  0  0  0  0  0  0  0  0  0
   40.7970   32.0950   40.2220 C   0  0  0  0  0  0  0  0  0  0  0  0
   40.5190   32.4090   39.1920 H   0  0  0  0  0  0  0  0  0  0  0  0
   41.7750   32.6050   40.4220 H   0  0  0  0  0  0  0  0  0  0  0  0
   39.8500   32.5530   41.2160 N   0  0  0  0  0  0  0  0  0  0  0  0
   39.0850   31.8420   41.2520 H   0  0  0  0  0  0  0  0  0  0  0  0
   39.0170   33.9230   40.5280 S   0  0  0  0  0  0  0  0  0  0  0  0
   39.8500   34.5690   39.4610 O   0  0  0  0  0  0  0  0  0  0  0  0
   40.8380   34.6150   39.4340 H   0  0  0  0  0  0  0  0  0  0  0  0
   38.7730   34.8920   41.6480 O   0  0  0  0  0  0  0  0  0  0  0  0
   39.4070   35.6280   41.8840 H   0  0  0  0  0  0  0  0  0  0  0  0
   37.5290   33.4940   39.9250 O   0  0  0  0  0  0  0  0  0  0  0  0
   36.4500   31.2620   40.1180 C   0  0  0  0  0  3  0  0  0  0  0  0
   37.1550   32.2540   39.4690 C   0  0  0  0  0  0  0  0  0  0  0  0
   37.5730   32.0160   38.1560 C   0  0  0  0  0  0  0  0  0  0  0  0
   38.1250   32.6880   37.5330 H   0  0  0  0  0  0  0  0  0  0  0  0
   37.2600   30.7910   37.5630 C   0  0  0  0  0  0  0  0  0  0  0  0
   37.5170   30.2750   36.3390 N   0  0  0  0  0  0  0  0  0  0  0  0
   38.0370   30.7470   35.5720 H   0  0  0  0  0  0  0  0  0  0  0  0
   37.0150   29.0610   36.2320 N   0  0  0  0  0  0  0  0  0  0  0  0
   36.4000   28.7080   37.3740 C   0  0  0  0  0  0  0  0  0  0  0  0
   35.8800   27.7700   37.6210 H   0  0  0  0  0  0  0  0  0  0  0  0
   36.5460   29.7870   38.2190 C   0  0  0  0  0  0  0  0  0  0  0  0
   36.1540   30.0670   39.5130 C   0  0  0  0  0  3  0  0  0  0  0  0
  1 27  1  0  0  0  0
  2 10  1  0  0  0  0
  3  1  1  0  0  0  0
  3  2  2  0  0  0  0
  4  3  1  0  0  0  0
  5  4  2  0  0  0  0
  5  6  1  0  0  0  0
  6  7  2  0  0  0  0
  7  2  1  0  0  0  0
  8  4  1  0  0  0  0
  9  6  1  0  0  0  0
 10 15  1  0  0  0  0
 10 11  1  0  0  0  0
 11 18  1  0  0  0  0
 11 12  1  0  0  0  0
 12 13  1  0  0  0  0
 12 20  1  0  0  0  0
 13 21  1  0  0  0  0
 13 22  1  0  0  0  0
 14 24  1  0  0  0  0
 14 13  1  0  0  0  0
 15 26  1  0  0  0  0
 15 14  1  0  0  0  0
 16 10  1  0  0  0  0
 17 11  1  0  0  0  0
 19 12  1  0  0  0  0
 23 14  1  0  0  0  0
 25 15  1  0  0  0  0
 27 28  1  0  0  0  0
 29 27  1  0  0  0  0
 30 27  1  0  0  0  0
 30 32  1  0  0  0  0
 30 33  1  0  0  0  0
 31 30  1  0  0  0  0
 33 34  1  0  0  0  0
 35 33  1  0  0  0  0
 35 38  1  0  0  0  0
 36 35  1  0  0  0  0
 37 36  1  0  0  0  0
 38 39  1  0  0  0  0
 40 35  1  0  0  0  0
 42 40  1  0  0  0  0
 42 41  2  0  0  0  0
 43 42  1  0  0  0  0
 44 43  1  0  0  0  0
 45 43  2  0  0  0  0
 45 51  1  0  0  0  0
 46 45  1  0  0  0  0
 47 46  1  0  0  0  0
 48 46  1  0  0  0  0
 48 49  2  0  0  0  0
 49 50  1  0  0  0  0
 49 51  1  0  0  0  0
 51 52  2  0  0  0  0
 52 41  1  0  0  0  0
M  END
>  <minimizedAffinity>
-6.12520742

$$$$

 OpenBabel03242514213D

 52 55  0  0  0  0  0  0  0  0999 V2000
   36.1370   28.4920   40.6460 O   0  0  0  0  0  0  0  0  0  0  0  0
   37.4720   26.7420   41.7720 C   0  0  0  0  0  0  0  0  0  0  0  0
   36.9150   27.9870   41.6040 C   0  0  0  0  0  0  0  0  0  0  0  0
   37.1760   28.9170   42.5740 C   0  0  0  0  0  0  0  0  0  0  0  0
   37.9500   28.5890   43.6310 N   0  0  0  0  0  0  0  0  0  0  0  0
   38.4890   27.3850   43.7920 C   0  0  0  0  0  0  0  0  0  0  0  0
   38.2350   26.4890   42.8560 N   0  0  0  0  0  0  0  0  0  0  0  0
   36.8340   29.9400   42.6260 H   0  0  0  0  0  0  0  0  0  0  0  0
   39.1070   27.1420   44.6460 H   0  0  0  0  0  0  0  0  0  0  0  0
   37.2500   25.7640   40.6970 C   0  0  0  0  0  0  0  0  0  0  0  0
   36.7890   24.4440   41.2420 C   0  0  0  0  0  0  0  0  0  0  0  0
   37.7440   23.3670   40.9920 C   0  0  0  0  0  0  0  0  0  0  0  0
   38.0930   23.2380   39.5270 C   0  0  0  0  0  0  0  0  0  0  0  0
   38.3160   24.5340   38.8480 C   0  0  0  0  0  0  0  0  0  0  0  0
   38.4660   25.6600   39.8470 C   0  0  0  0  0  0  0  0  0  0  0  0
   36.3790   26.0970   40.1000 H   0  0  0  0  0  0  0  0  0  0  0  0
   36.6560   24.5570   42.3380 H   0  0  0  0  0  0  0  0  0  0  0  0
   35.7970   24.1450   40.8590 H   0  0  0  0  0  0  0  0  0  0  0  0
   38.6740   23.5480   41.5850 H   0  0  0  0  0  0  0  0  0  0  0  0
   37.3090   22.3780   41.2900 H   0  0  0  0  0  0  0  0  0  0  0  0
   39.0640   22.6610   39.5170 H   0  0  0  0  0  0  0  0  0  0  0  0
   37.3850   22.5660   38.9730 H   0  0  0  0  0  0  0  0  0  0  0  0
   37.5220   24.7960   38.0920 H   0  0  0  0  0  0  0  0  0  0  0  0
   39.2680   24.5230   38.2530 H   0  0  0  0  0  0  0  0  0  0  0  0
   38.7030   26.6040   39.3230 H   0  0  0  0  0  0  0  0  0  0  0  0
   39.3050   25.3370   40.5170 H   0  0  0  0  0  0  0  0  0  0  0  0
   35.4730   29.6790   40.4890 C   0  0  0  0  0  0  0  0  0  0  0  0
   34.6350   29.5020   39.7790 H   0  0  0  0  0  0  0  0  0  0  0  0
   35.0290   30.1590   41.3600 H   0  0  0  0  0  0  0  0  0  0  0  0
   36.3100   30.7550   39.8190 C   0  0  0  0  0  0  0  0  0  0  0  0
   35.8170   31.0420   38.8650 H   0  0  0  0  0  0  0  0  0  0  0  0
   37.3070   30.3430   39.5150 H   0  0  0  0  0  0  0  0  0  0  0  0
   36.5480   31.8920   40.6830 N   0  0  0  0  0  0  0  0  0  0  0  0
   35.6960   32.4960   40.6270 H   0  0  0  0  0  0  0  0  0  0  0  0
   37.7350   32.8930   39.8870 S   0  0  0  0  0  0  0  0  0  0  0  0
   38.0800   34.0810   40.7340 O   0  0  0  0  0  0  0  0  0  0  0  0
   37.4760   34.5550   41.3580 H   0  0  0  0  0  0  0  0  0  0  0  0
   37.1260   33.3440   38.5900 O   0  0  0  0  0  0  0  0  0  0  0  0
   36.6110   34.1950   38.4950 H   0  0  0  0  0  0  0  0  0  0  0  0
   39.1040   32.0320   39.5060 O   0  0  0  0  0  0  0  0  0  0  0  0
   39.9320   29.8920   40.4660 C   0  0  0  0  0  3  0  0  0  0  0  0
   39.8560   31.2660   40.3610 C   0  0  0  0  0  0  0  0  0  0  0  0
   40.6370   32.0370   41.2270 C   0  0  0  0  0  0  0  0  0  0  0  0
   40.6810   33.1060   41.2620 H   0  0  0  0  0  0  0  0  0  0  0  0
   41.4550   31.3880   42.1540 C   0  0  0  0  0  0  0  0  0  0  0  0
   42.3050   31.8440   43.1020 N   0  0  0  0  0  0  0  0  0  0  0  0
   42.5070   32.8410   43.3160 H   0  0  0  0  0  0  0  0  0  0  0  0
   42.8660   30.8390   43.7460 N   0  0  0  0  0  0  0  0  0  0  0  0
   42.4200   29.6680   43.2610 C   0  0  0  0  0  0  0  0  0  0  0  0
   42.6810   28.6440   43.5700 H   0  0  0  0  0  0  0  0  0  0  0  0
   41.5320   29.9980   42.2600 C   0  0  0  0  0  0  0  0  0  0  0  0
   40.7440   29.2780   41.3850 C   0  0  0  0  0  3  0  0  0  0  0  0
  1  3  1  0  0  0  0
  2  7  1  0  0  0  0
  3  2  2  0  0  0  0
  3  4  1  0  0  0  0
  4  8  1  0  0  0  0
  4  5  2  0  0  0  0
  5  6  1  0  0  0  0
  6  9  1  0  0  0  0
  7  6  2  0  0  0  0
 10 11  1  0  0  0  0
 10  2  1  0  0  0  0
 11 17  1  0  0  0  0
 12 11  1  0  0  0  0
 12 20  1  0  0  0  0
 12 19  1  0  0  0  0
 13 12  1  0  0  0  0
 14 13  1  0  0  0  0
 14 15  1  0  0  0  0
 15 26  1  0  0  0  0
 15 10  1  0  0  0  0
 16 10  1  0  0  0  0
 18 11  1  0  0  0  0
 21 13  1  0  0  0  0
 22 13  1  0  0  0  0
 23 14  1  0  0  0  0
 24 14  1  0  0  0  0
 25 15  1  0  0  0  0
 27  1  1  0  0  0  0
 27 29  1  0  0  0  0
 28 27  1  0  0  0  0
 30 27  1  0  0  0  0
 30 33  1  0  0  0  0
 31 30  1  0  0  0  0
 32 30  1  0  0  0  0
 34 33  1  0  0  0  0
 35 33  1  0  0  0  0
 35 36  1  0  0  0  0
 36 37  1  0  0  0  0
 38 35  1  0  0  0  0
 39 38  1  0  0  0  0
 40 35  1  0  0  0  0
 40 42  1  0  0  0  0
 41 52  1  0  0  0  0
 42 41  2  0  0  0  0
 42 43  1  0  0  0  0
 43 44  1  0  0  0  0
 43 45  2  0  0  0  0
 45 51  1  0  0  0  0
 45 46  1  0  0  0  0
 46 47  1  0  0  0  0
 46 48  1  0  0  0  0
 49 50  1  0  0  0  0
 49 48  2  0  0  0  0
 51 49  1  0  0  0  0
 52 51  2  0  0  0  0
M  END
>  <minimizedAffinity>
-6.06893206

$$$$

 OpenBabel03242514213D

 52 55  0  0  0  0  0  0  0  0999 V2000
   39.6700   29.5760   40.7850 O   0  0  0  0  0  0  0  0  0  0  0  0
   38.3330   27.6020   41.4390 C   0  0  0  0  0  0  0  0  0  0  0  0
   38.8590   28.8650   41.5690 C   0  0  0  0  0  0  0  0  0  0  0  0
   38.5160   29.5660   42.6940 C   0  0  0  0  0  0  0  0  0  0  0  0
   37.6980   29.0070   43.6120 N   0  0  0  0  0  0  0  0  0  0  0  0
   37.1910   27.7860   43.4860 C   0  0  0  0  0  0  0  0  0  0  0  0
   37.5220   27.1120   42.4000 N   0  0  0  0  0  0  0  0  0  0  0  0
   38.8200   30.5630   42.9770 H   0  0  0  0  0  0  0  0  0  0  0  0
   36.5370   27.3550   44.2330 H   0  0  0  0  0  0  0  0  0  0  0  0
   38.7560   26.8230   40.2670 C   0  0  0  0  0  0  0  0  0  0  0  0
   37.6450   25.9530   39.7560 C   0  0  0  0  0  0  0  0  0  0  0  0
   37.9490   24.5280   39.8670 C   0  0  0  0  0  0  0  0  0  0  0  0
   39.2530   24.1660   39.1920 C   0  0  0  0  0  0  0  0  0  0  0  0
   40.3460   25.1300   39.4460 C   0  0  0  0  0  0  0  0  0  0  0  0
   40.0000   26.0700   40.5800 C   0  0  0  0  0  0  0  0  0  0  0  0
   38.9200   27.5240   39.4260 H   0  0  0  0  0  0  0  0  0  0  0  0
   36.7380   26.1720   40.3570 H   0  0  0  0  0  0  0  0  0  0  0  0
   37.3640   26.1840   38.7140 H   0  0  0  0  0  0  0  0  0  0  0  0
   37.9910   24.2370   40.9450 H   0  0  0  0  0  0  0  0  0  0  0  0
   37.1610   23.9170   39.3540 H   0  0  0  0  0  0  0  0  0  0  0  0
   39.5410   23.1740   39.6490 H   0  0  0  0  0  0  0  0  0  0  0  0
   39.1220   23.9240   38.1040 H   0  0  0  0  0  0  0  0  0  0  0  0
   40.6520   25.7230   38.5370 H   0  0  0  0  0  0  0  0  0  0  0  0
   41.2870   24.6040   39.7600 H   0  0  0  0  0  0  0  0  0  0  0  0
   40.8570   26.7330   40.8000 H   0  0  0  0  0  0  0  0  0  0  0  0
   39.7640   25.3970   41.4460 H   0  0  0  0  0  0  0  0  0  0  0  0
   40.8210   30.2850   41.0020 C   0  0  0  0  0  0  0  0  0  0  0  0
   40.8850   30.4940   42.0930 H   0  0  0  0  0  0  0  0  0  0  0  0
   41.7770   29.8420   40.7260 H   0  0  0  0  0  0  0  0  0  0  0  0
   40.8140   31.6600   40.3570 C   0  0  0  0  0  0  0  0  0  0  0  0
   40.2500   31.5970   39.4010 H   0  0  0  0  0  0  0  0  0  0  0  0
   41.8520   31.9580   40.0580 H   0  0  0  0  0  0  0  0  0  0  0  0
   40.2970   32.6850   41.2390 N   0  0  0  0  0  0  0  0  0  0  0  0
   39.4000   32.3200   41.6320 H   0  0  0  0  0  0  0  0  0  0  0  0
   39.7260   33.9850   40.2240 S   0  0  0  0  0  0  0  0  0  0  0  0
   40.6170   34.1560   39.0300 O   0  0  0  0  0  0  0  0  0  0  0  0
   41.5910   33.9860   38.9940 H   0  0  0  0  0  0  0  0  0  0  0  0
   39.7420   35.2310   41.0620 O   0  0  0  0  0  0  0  0  0  0  0  0
   40.5240   35.8520   41.1040 H   0  0  0  0  0  0  0  0  0  0  0  0
   38.1530   33.7420   39.7470 O   0  0  0  0  0  0  0  0  0  0  0  0
   37.6030   31.8440   38.2360 C   0  0  0  0  0  3  0  0  0  0  0  0
   37.5690   32.5410   39.4260 C   0  0  0  0  0  0  0  0  0  0  0  0
   36.8510   31.9910   40.4920 C   0  0  0  0  0  0  0  0  0  0  0  0
   36.7370   32.4160   41.4670 H   0  0  0  0  0  0  0  0  0  0  0  0
   36.2030   30.7680   40.3070 C   0  0  0  0  0  0  0  0  0  0  0  0
   35.4490   29.9990   41.1250 N   0  0  0  0  0  0  0  0  0  0  0  0
   35.2050   30.2110   42.1130 H   0  0  0  0  0  0  0  0  0  0  0  0
   35.0450   28.9110   40.4990 N   0  0  0  0  0  0  0  0  0  0  0  0
   35.5080   28.9010   39.2370 C   0  0  0  0  0  0  0  0  0  0  0  0
   35.3580   28.1470   38.4490 H   0  0  0  0  0  0  0  0  0  0  0  0
   36.2380   30.0620   39.1030 C   0  0  0  0  0  0  0  0  0  0  0  0
   36.9590   30.6440   38.0800 C   0  0  0  0  0  3  0  0  0  0  0  0
  1 27  1  0  0  0  0
  1  3  1  0  0  0  0
  2  3  2  0  0  0  0
  2  7  1  0  0  0  0
  3  4  1  0  0  0  0
  4  8  1  0  0  0  0
  4  5  2  0  0  0  0
  6  5  1  0  0  0  0
  6  9  1  0  0  0  0
  7  6  2  0  0  0  0
 10 15  1  0  0  0  0
 10  2  1  0  0  0  0
 11 12  1  0  0  0  0
 11 10  1  0  0  0  0
 11 17  1  0  0  0  0
 12 19  1  0  0  0  0
 13 14  1  0  0  0  0
 13 21  1  0  0  0  0
 13 12  1  0  0  0  0
 14 24  1  0  0  0  0
 14 15  1  0  0  0  0
 15 25  1  0  0  0  0
 15 26  1  0  0  0  0
 16 10  1  0  0  0  0
 18 11  1  0  0  0  0
 20 12  1  0  0  0  0
 22 13  1  0  0  0  0
 23 14  1  0  0  0  0
 27 28  1  0  0  0  0
 29 27  1  0  0  0  0
 30 27  1  0  0  0  0
 30 33  1  0  0  0  0
 31 30  1  0  0  0  0
 32 30  1  0  0  0  0
 33 34  1  0  0  0  0
 35 38  1  0  0  0  0
 35 33  1  0  0  0  0
 36 35  1  0  0  0  0
 37 36  1  0  0  0  0
 38 39  1  0  0  0  0
 40 35  1  0  0  0  0
 41 42  1  0  0  0  0
 42 40  1  0  0  0  0
 42 43  2  0  0  0  0
 43 44  1  0  0  0  0
 45 43  1  0  0  0  0
 45 46  1  0  0  0  0
 46 47  1  0  0  0  0
 48 46  1  0  0  0  0
 49 48  2  0  0  0  0
 50 49  1  0  0  0  0
 51 49  1  0  0  0  0
 51 45  2  0  0  0  0
 52 41  2  0  0  0  0
 52 51  1  0  0  0  0
M  END
>  <minimizedAffinity>
-6.0666523

$$$$

 OpenBabel03242514213D

 52 55  0  0  0  0  0  0  0  0999 V2000
   39.1450   31.6470   39.8610 O   0  0  0  0  0  0  0  0  0  0  0  0
   41.2720   32.2300   40.9780 C   0  0  0  0  0  0  0  0  0  0  0  0
   40.1940   32.4180   40.1460 C   0  0  0  0  0  0  0  0  0  0  0  0
   40.1410   33.6030   39.4620 C   0  0  0  0  0  0  0  0  0  0  0  0
   41.1210   34.5180   39.6220 N   0  0  0  0  0  0  0  0  0  0  0  0
   42.1630   34.3340   40.4250 C   0  0  0  0  0  0  0  0  0  0  0  0
   42.2120   33.1920   41.0860 N   0  0  0  0  0  0  0  0  0  0  0  0
   39.3840   33.9390   38.7680 H   0  0  0  0  0  0  0  0  0  0  0  0
   42.9380   35.0800   40.5400 H   0  0  0  0  0  0  0  0  0  0  0  0
   41.3670   30.9310   41.6590 C   0  0  0  0  0  0  0  0  0  0  0  0
   41.6380   31.0980   43.1250 C   0  0  0  0  0  0  0  0  0  0  0  0
   42.9310   30.5490   43.5250 C   0  0  0  0  0  0  0  0  0  0  0  0
   43.0870   29.0990   43.1250 C   0  0  0  0  0  0  0  0  0  0  0  0
   42.5990   28.7990   41.7610 C   0  0  0  0  0  0  0  0  0  0  0  0
   42.3620   30.0680   40.9690 C   0  0  0  0  0  0  0  0  0  0  0  0
   40.3640   30.4610   41.6510 H   0  0  0  0  0  0  0  0  0  0  0  0
   41.6270   32.1850   43.3510 H   0  0  0  0  0  0  0  0  0  0  0  0
   40.8460   30.6630   43.7600 H   0  0  0  0  0  0  0  0  0  0  0  0
   43.7520   31.1550   43.0700 H   0  0  0  0  0  0  0  0  0  0  0  0
   43.0390   30.5690   44.6410 H   0  0  0  0  0  0  0  0  0  0  0  0
   44.2020   28.9170   43.1500 H   0  0  0  0  0  0  0  0  0  0  0  0
   42.6900   28.3930   43.9000 H   0  0  0  0  0  0  0  0  0  0  0  0
   41.6730   28.1560   41.7380 H   0  0  0  0  0  0  0  0  0  0  0  0
   43.3560   28.2110   41.1770 H   0  0  0  0  0  0  0  0  0  0  0  0
   42.0680   29.8200   39.9330 H   0  0  0  0  0  0  0  0  0  0  0  0
   43.3430   30.6110   41.0020 H   0  0  0  0  0  0  0  0  0  0  0  0
   38.4110   31.4230   38.7270 C   0  0  0  0  0  0  0  0  0  0  0  0
   38.3380   32.3880   38.1790 H   0  0  0  0  0  0  0  0  0  0  0  0
   38.7650   30.6930   38.0000 H   0  0  0  0  0  0  0  0  0  0  0  0
   36.9680   31.0420   39.0080 C   0  0  0  0  0  0  0  0  0  0  0  0
   36.3520   31.3150   38.1240 H   0  0  0  0  0  0  0  0  0  0  0  0
   36.5550   31.6610   39.8470 H   0  0  0  0  0  0  0  0  0  0  0  0
   36.8220   29.6490   39.3760 N   0  0  0  0  0  0  0  0  0  0  0  0
   36.3530   29.1730   38.5720 H   0  0  0  0  0  0  0  0  0  0  0  0
   35.5760   29.5760   40.5960 S   0  0  0  0  0  0  0  0  0  0  0  0
   34.2260   29.4070   39.9650 O   0  0  0  0  0  0  0  0  0  0  0  0
   33.9390   29.7590   39.0860 H   0  0  0  0  0  0  0  0  0  0  0  0
   35.6320   30.8710   41.3540 O   0  0  0  0  0  0  0  0  0  0  0  0
   35.0890   31.6730   41.1080 H   0  0  0  0  0  0  0  0  0  0  0  0
   35.8630   28.3600   41.6910 O   0  0  0  0  0  0  0  0  0  0  0  0
   38.0870   28.7620   42.7300 C   0  0  0  0  0  3  0  0  0  0  0  0
   37.0830   27.9810   42.1950 C   0  0  0  0  0  0  0  0  0  0  0  0
   37.2840   26.5990   42.1340 C   0  0  0  0  0  0  0  0  0  0  0  0
   36.5990   25.8740   41.7480 H   0  0  0  0  0  0  0  0  0  0  0  0
   38.4850   26.0720   42.6150 C   0  0  0  0  0  0  0  0  0  0  0  0
   38.9650   24.8100   42.6920 N   0  0  0  0  0  0  0  0  0  0  0  0
   38.4750   23.9480   42.3770 H   0  0  0  0  0  0  0  0  0  0  0  0
   40.1680   24.8010   43.2290 N   0  0  0  0  0  0  0  0  0  0  0  0
   40.5500   26.0530   43.5370 C   0  0  0  0  0  0  0  0  0  0  0  0
   41.4890   26.4000   43.9940 H   0  0  0  0  0  0  0  0  0  0  0  0
   39.5010   26.8610   43.1560 C   0  0  0  0  0  0  0  0  0  0  0  0
   39.2580   28.2200   43.1950 C   0  0  0  0  0  3  0  0  0  0  0  0
  1  3  1  0  0  0  0
  2  7  1  0  0  0  0
  2 10  1  0  0  0  0
  3  2  2  0  0  0  0
  4  5  2  0  0  0  0
  4  3  1  0  0  0  0
  5  6  1  0  0  0  0
  6  9  1  0  0  0  0
  6  7  2  0  0  0  0
  8  4  1  0  0  0  0
 10 11  1  0  0  0  0
 11 17  1  0  0  0  0
 11 12  1  0  0  0  0
 11 18  1  0  0  0  0
 12 20  1  0  0  0  0
 13 21  1  0  0  0  0
 13 12  1  0  0  0  0
 13 22  1  0  0  0  0
 14 13  1  0  0  0  0
 15 26  1  0  0  0  0
 15 10  1  0  0  0  0
 15 14  1  0  0  0  0
 16 10  1  0  0  0  0
 19 12  1  0  0  0  0
 23 14  1  0  0  0  0
 24 14  1  0  0  0  0
 25 15  1  0  0  0  0
 27 30  1  0  0  0  0
 27  1  1  0  0  0  0
 28 27  1  0  0  0  0
 29 27  1  0  0  0  0
 30 33  1  0  0  0  0
 30 32  1  0  0  0  0
 31 30  1  0  0  0  0
 33 35  1  0  0  0  0
 34 33  1  0  0  0  0
 35 38  1  0  0  0  0
 35 40  1  0  0  0  0
 36 35  1  0  0  0  0
 37 36  1  0  0  0  0
 39 38  1  0  0  0  0
 40 42  1  0  0  0  0
 41 52  1  0  0  0  0
 42 41  2  0  0  0  0
 43 42  1  0  0  0  0
 43 45  2  0  0  0  0
 44 43  1  0  0  0  0
 45 46  1  0  0  0  0
 45 51  1  0  0  0  0
 46 48  1  0  0  0  0
 47 46  1  0  0  0  0
 48 49  2  0  0  0  0
 49 50  1  0  0  0  0
 51 52  2  0  0  0  0
 51 49  1  0  0  0  0
M  END
>  <minimizedAffinity>
-6.03207159

$$$$
