
 OpenBabel03242517563D

 46 49  0  0  0  0  0  0  0  0999 V2000
   45.4690   30.1760   47.3290 C   0  0  0  0  0  0  0  0  0  0  0  0
   46.0460   31.2410   46.7240 C   0  0  0  0  0  0  0  0  0  0  0  0
   46.2380   32.3880   47.4710 C   0  0  0  0  0  0  0  0  0  0  0  0
   45.8700   32.4900   48.7930 C   0  0  0  0  0  0  0  0  0  0  0  0
   45.2850   31.3980   49.3960 C   0  0  0  0  0  0  0  0  0  0  0  0
   45.0880   30.2430   48.6530 C   0  0  0  0  0  0  0  0  0  0  0  0
   46.6910   33.2830   47.0690 H   0  0  0  0  0  0  0  0  0  0  0  0
   46.0240   33.3920   49.3730 H   0  0  0  0  0  0  0  0  0  0  0  0
   44.9620   31.3730   50.4190 H   0  0  0  0  0  0  0  0  0  0  0  0
   44.6340   29.3160   49.0270 H   0  0  0  0  0  0  0  0  0  0  0  0
   45.1590   28.7960   46.3050 S   0  0  0  0  0  0  0  0  0  0  0  0
   44.2680   29.0690   45.1660 O   0  0  0  0  0  0  0  0  0  0  0  0
   44.3720   27.8020   47.1950 O   0  0  0  0  0  0  0  0  0  0  0  0
   46.8140   27.1210   44.8080 C   0  0  0  0  0  3  0  0  0  0  0  0
   46.6030   27.8740   45.9520 C   0  0  0  0  0  0  0  0  0  0  0  0
   47.6840   27.8450   46.8360 C   0  0  0  0  0  0  0  0  0  0  0  0
   47.5680   28.4230   47.7540 H   0  0  0  0  0  0  0  0  0  0  0  0
   48.8640   27.1670   46.6610 C   0  0  0  0  0  0  0  0  0  0  0  0
   49.9560   27.0740   47.4420 N   0  0  0  0  0  0  0  0  0  0  0  0
   50.1170   27.5220   48.3710 H   0  0  0  0  0  0  0  0  0  0  0  0
   50.8050   26.2920   46.8020 N   0  0  0  0  0  0  0  0  0  0  0  0
   50.2770   25.8790   45.6150 C   0  0  0  0  0  0  0  0  0  0  0  0
   50.7250   25.2330   44.8640 H   0  0  0  0  0  0  0  0  0  0  0  0
   49.0080   26.4430   45.5100 C   0  0  0  0  0  0  0  0  0  0  0  0
   47.9830   26.4230   44.5880 C   0  0  0  0  0  3  0  0  0  0  0  0
   46.4900   31.3380   45.4110 O   0  0  0  0  0  0  0  0  0  0  0  0
   45.3110   34.2490   43.8000 C   0  0  0  0  0  0  0  0  0  0  0  0
   46.4700   34.7370   43.1640 C   0  0  0  0  0  0  0  0  0  0  0  0
   47.6460   34.0500   43.3010 C   0  0  0  0  0  0  0  0  0  0  0  0
   47.6070   32.9350   44.0520 N   0  0  0  0  0  0  0  0  0  0  0  0
   46.5170   32.4810   44.6460 C   0  0  0  0  0  0  0  0  0  0  0  0
   45.3680   33.1370   44.5220 N   0  0  0  0  0  0  0  0  0  0  0  0
   44.3840   34.7950   43.6880 H   0  0  0  0  0  0  0  0  0  0  0  0
   46.3600   35.6250   42.6030 H   0  0  0  0  0  0  0  0  0  0  0  0
   48.8980   34.4720   42.6700 C   0  0  0  0  0  0  0  0  0  0  0  0
   49.6000   34.7410   43.4730 H   0  0  0  0  0  0  0  0  0  0  0  0
   49.3490   33.6370   42.1030 H   0  0  0  0  0  0  0  0  0  0  0  0
   48.7420   35.6340   41.7390 C   0  0  0  0  0  0  0  0  0  0  0  0
   49.7520   36.1550   41.7760 H   0  0  0  0  0  0  0  0  0  0  0  0
   48.0460   36.4090   42.0180 H   0  0  0  0  0  0  0  0  0  0  0  0
   48.6020   35.2530   40.3350 C   0  0  0  0  0  3  0  0  0  0  0  0
   48.0380   34.3430   39.5540 C   0  0  0  0  0  3  0  0  0  0  0  0
   48.2300   34.1960   38.0560 C   0  0  0  0  0  0  0  0  0  0  0  0
   48.9400   34.9650   37.7320 H   0  0  0  0  0  0  0  0  0  0  0  0
   47.2360   34.3420   37.6330 H   0  0  0  0  0  0  0  0  0  0  0  0
   48.5600   33.1590   37.8320 H   0  0  0  0  0  0  0  0  0  0  0  0
  1  6  1  0  0  0  0
  2  1  2  0  0  0  0
  2  3  1  0  0  0  0
  3  4  2  0  0  0  0
  4  8  1  0  0  0  0
  4  5  1  0  0  0  0
  5  9  1  0  0  0  0
  6 10  1  0  0  0  0
  6  5  2  0  0  0  0
  7  3  1  0  0  0  0
 11 13  2  0  0  0  0
 11  1  1  0  0  0  0
 12 11  2  0  0  0  0
 14 15  1  0  0  0  0
 15 11  1  0  0  0  0
 15 16  2  0  0  0  0
 16 17  1  0  0  0  0
 18 16  1  0  0  0  0
 18 19  1  0  0  0  0
 19 20  1  0  0  0  0
 21 19  1  0  0  0  0
 22 21  2  0  0  0  0
 23 22  1  0  0  0  0
 24 22  1  0  0  0  0
 24 18  2  0  0  0  0
 25 14  2  0  0  0  0
 25 24  1  0  0  0  0
 26  2  1  0  0  0  0
 27 32  1  0  0  0  0
 28 29  1  0  0  0  0
 28 27  2  0  0  0  0
 29 30  2  0  0  0  0
 30 31  1  0  0  0  0
 31 26  1  0  0  0  0
 32 31  2  0  0  0  0
 33 27  1  0  0  0  0
 34 28  1  0  0  0  0
 35 29  1  0  0  0  0
 35 36  1  0  0  0  0
 37 35  1  0  0  0  0
 38 39  1  0  0  0  0
 38 40  1  0  0  0  0
 38 35  1  0  0  0  0
 41 38  1  0  0  0  0
 42 41  2  0  0  0  0
 43 42  1  0  0  0  0
 44 43  1  0  0  0  0
 45 43  1  0  0  0  0
 46 43  1  0  0  0  0
M  END
>  <minimizedAffinity>
-5.64762449

>  <minimizedRMSD>
2.0168004

$$$$
