
 OpenBabel03252508033D

 45 49  0  0  1  0  0  0  0  0999 V2000
   42.0910   33.2730   41.1000 C   0  0  0  0  0  0  0  0  0  0  0  0
   42.8140   34.4040   41.3400 C   0  0  0  0  0  0  0  0  0  0  0  0
   42.1270   35.6330   41.3570 C   0  0  0  0  0  0  0  0  0  0  0  0
   40.7750   35.7460   41.1470 C   0  0  0  0  0  0  0  0  0  0  0  0
   40.0570   34.6070   40.9060 C   0  0  0  0  0  0  0  0  0  0  0  0
   40.7120   33.4100   40.8870 C   0  0  0  0  0  0  0  0  0  0  0  0
   42.6190   36.5830   41.5320 H   0  0  0  0  0  0  0  0  0  0  0  0
   40.2650   36.6880   41.1620 H   0  0  0  0  0  0  0  0  0  0  0  0
   39.0050   34.5980   40.7320 H   0  0  0  0  0  0  0  0  0  0  0  0
   40.1380   32.4900   40.6940 H   0  0  0  0  0  0  0  0  0  0  0  0
   42.7930   31.7400   41.0920 S   0  0  0  0  0  0  0  0  0  0  0  0
   41.6710   30.8860   40.4670 O   0  0  0  0  0  0  0  0  0  0  0  0
   43.0090   31.2370   42.5090 O   0  0  0  0  0  0  0  0  0  0  0  0
   44.4430   29.7560   40.5040 C   0  0  0  0  0  3  0  0  0  0  0  0
   43.9070   31.0080   40.1070 C   0  0  0  0  0  0  0  0  0  0  0  0
   44.4240   31.4020   38.8470 C   0  0  0  0  0  0  0  0  0  0  0  0
   43.9920   32.3740   38.5370 H   0  0  0  0  0  0  0  0  0  0  0  0
   45.3160   30.7960   37.9930 C   0  0  0  0  0  0  0  0  0  0  0  0
   45.8820   31.0230   36.8290 N   0  0  0  0  0  0  0  0  0  0  0  0
   45.6830   31.8850   36.2760 H   0  0  0  0  0  0  0  0  0  0  0  0
   46.6600   29.9840   36.6050 N   0  0  0  0  0  0  0  0  0  0  0  0
   46.6100   29.0870   37.6040 C   0  0  0  0  0  0  0  0  0  0  0  0
   47.1530   28.1520   37.6620 H   0  0  0  0  0  0  0  0  0  0  0  0
   45.7190   29.6110   38.5380 C   0  0  0  0  0  0  0  0  0  0  0  0
   45.3370   29.0660   39.7280 C   0  0  0  0  0  3  0  0  0  0  0  0
   44.2510   34.3900   41.5690 C   0  0  0  0  0  0  0  0  0  0  0  0
   45.1290   34.3150   40.6460 O   0  0  0  0  0  0  0  0  0  0  0  0
   44.5980   34.4720   42.9580 C   0  0  0  0  0  0  0  0  0  0  0  0
   44.3130   35.7220   43.6010 C   0  0  0  0  0  0  0  0  0  0  0  0
   44.6320   35.8130   44.9480 C   0  0  0  0  0  0  0  0  0  0  0  0
   45.1850   34.7340   45.5620 N   0  0  0  0  0  0  0  0  0  0  0  0
   45.4380   33.5590   44.9010 C   0  0  0  0  0  0  0  0  0  0  0  0
   45.1400   33.4790   43.6530 N   0  0  0  0  0  0  0  0  0  0  0  0
   43.8870   36.6080   43.1960 H   0  0  0  0  0  0  0  0  0  0  0  0
   44.4730   36.6840   45.5480 H   0  0  0  0  0  0  0  0  0  0  0  0
   46.0330   32.4420   45.6530 C   0  0  1  0  0  0  0  0  0  0  0  0
   46.9710   32.7490   46.8050 C   0  0  0  0  0  0  0  0  0  0  0  0
   45.5580   32.3070   47.0570 C   0  0  1  0  0  0  0  0  0  0  0  0
   46.2720   31.5230   45.1270 H   0  0  0  0  0  0  0  0  0  0  0  0
   47.2730   33.8040   46.8850 H   0  0  0  0  0  0  0  0  0  0  0  0
   47.7790   32.0440   47.0490 H   0  0  0  0  0  0  0  0  0  0  0  0
   45.4450   31.3270   47.5470 H   0  0  0  0  0  0  0  0  0  0  0  0
   44.7710   33.3740   47.6580 N   0  0  0  0  0  0  0  0  0  0  0  0
   44.8470   33.3730   48.6990 H   0  0  0  0  0  0  0  0  0  0  0  0
   43.7600   33.1090   47.4750 H   0  0  0  0  0  0  0  0  0  0  0  0
  1  2  1  0  0  0  0
  2  3  2  0  0  0  0
  2 26  1  0  0  0  0
  3  7  1  0  0  0  0
  4  8  1  0  0  0  0
  4  3  1  0  0  0  0
  5  4  2  0  0  0  0
  6  5  1  0  0  0  0
  6  1  2  0  0  0  0
  9  5  1  0  0  0  0
 10  6  1  0  0  0  0
 11  1  1  0  0  0  0
 11 13  2  0  0  0  0
 12 11  2  0  0  0  0
 15 14  1  0  0  0  0
 15 11  1  0  0  0  0
 16 15  2  0  0  0  0
 17 16  1  0  0  0  0
 18 24  2  0  0  0  0
 18 16  1  0  0  0  0
 19 18  1  0  0  0  0
 20 19  1  0  0  0  0
 21 19  1  0  0  0  0
 21 22  2  0  0  0  0
 22 23  1  0  0  0  0
 22 24  1  0  0  0  0
 24 25  1  0  0  0  0
 25 14  2  0  0  0  0
 26 28  1  0  0  0  0
 27 26  2  0  0  0  0
 28 29  2  0  0  0  0
 28 33  1  0  0  0  0
 29 30  1  0  0  0  0
 30 35  1  0  0  0  0
 30 31  2  0  0  0  0
 32 31  1  0  0  0  0
 32 36  1  0  0  0  0
 33 32  2  0  0  0  0
 34 29  1  0  0  0  0
 36 39  1  6  0  0  0
 36 37  1  0  0  0  0
 36 38  1  0  0  0  0
 37 40  1  0  0  0  0
 37 41  1  0  0  0  0
 37 38  1  0  0  0  0
 38 42  1  1  0  0  0
 38 43  1  0  0  0  0
 43 44  1  0  0  0  0
 45 43  1  0  0  0  0
M  END
>  <minimizedAffinity>
-5.89119148

>  <minimizedRMSD>
2.18755937

$$$$
