
 OpenBabel03252500543D

 33 35  0  0  0  0  0  0  0  0999 V2000
   40.4990   36.5720   40.6570 O   0  0  0  0  0  0  0  0  0  0  0  0
   41.3460   35.3450   40.9800 P   0  0  1  0  0  0  0  0  0  0  0  0
   40.6950   34.6090   42.3760 O   0  0  0  0  0  0  0  0  0  0  0  0
   41.3810   34.3940   43.0250 H   0  0  0  0  0  0  0  0  0  0  0  0
   41.2440   34.2330   39.7080 O   0  0  0  0  0  0  0  0  0  0  0  0
   39.4610   32.8220   39.0630 C   0  0  0  0  0  0  0  0  0  0  0  0
   40.6570   32.9750   39.7510 C   0  0  0  0  0  0  0  0  0  0  0  0
   41.1770   31.8600   40.4320 C   0  0  0  0  0  0  0  0  0  0  0  0
   40.4620   30.7090   40.3620 N   0  0  0  0  0  0  0  0  0  0  0  0
   39.3060   30.5910   39.6860 C   0  0  0  0  0  0  0  0  0  0  0  0
   38.8230   31.6430   39.0490 N   0  0  0  0  0  0  0  0  0  0  0  0
   42.0900   32.0050   40.9490 H   0  0  0  0  0  0  0  0  0  0  0  0
   38.7520   29.6630   39.6430 H   0  0  0  0  0  0  0  0  0  0  0  0
   38.8660   33.9430   38.3340 C   0  0  0  0  0  0  0  0  0  0  0  0
   39.6800   34.4890   37.7710 H   0  0  0  0  0  0  0  0  0  0  0  0
   38.3630   34.6610   38.9900 H   0  0  0  0  0  0  0  0  0  0  0  0
   37.9210   33.4110   37.2760 C   0  0  0  0  0  0  0  0  0  0  0  0
   37.3730   34.3070   36.8650 H   0  0  0  0  0  0  0  0  0  0  0  0
   37.1480   32.8410   37.8330 H   0  0  0  0  0  0  0  0  0  0  0  0
   38.4500   32.8450   36.5090 H   0  0  0  0  0  0  0  0  0  0  0  0
   42.9360   35.7970   41.3500 O   0  0  0  0  0  0  0  0  0  0  0  0
   44.1370   33.6960   41.7790 C   0  0  0  0  0  3  0  0  0  0  0  0
   43.7130   34.9520   42.1620 C   0  0  0  0  0  0  0  0  0  0  0  0
   44.0680   35.4260   43.4210 C   0  0  0  0  0  0  0  0  0  0  0  0
   43.7980   36.3840   43.8270 H   0  0  0  0  0  0  0  0  0  0  0  0
   44.8360   34.6640   44.2980 C   0  0  0  0  0  0  0  0  0  0  0  0
   45.3240   34.8480   45.5460 N   0  0  0  0  0  0  0  0  0  0  0  0
   45.1770   35.7170   46.1280 H   0  0  0  0  0  0  0  0  0  0  0  0
   46.0130   33.7780   45.9320 N   0  0  0  0  0  0  0  0  0  0  0  0
   45.9900   32.8570   44.9290 C   0  0  0  0  0  0  0  0  0  0  0  0
   46.4740   31.8910   44.9780 H   0  0  0  0  0  0  0  0  0  0  0  0
   45.2650   33.3940   43.9140 C   0  0  0  0  0  0  0  0  0  0  0  0
   44.8990   32.9410   42.6500 C   0  0  0  0  0  3  0  0  0  0  0  0
  2  1  2  6  0  0  0
  2 21  1  0  0  0  0
  2  3  1  0  0  0  0
  3  4  1  0  0  0  0
  5  7  1  0  0  0  0
  5  2  1  0  0  0  0
  6  7  1  0  0  0  0
  7  8  2  0  0  0  0
  8 12  1  0  0  0  0
  9  8  1  0  0  0  0
 10  9  2  0  0  0  0
 11  6  2  0  0  0  0
 11 10  1  0  0  0  0
 13 10  1  0  0  0  0
 14 16  1  0  0  0  0
 14  6  1  0  0  0  0
 15 14  1  0  0  0  0
 17 19  1  0  0  0  0
 17 14  1  0  0  0  0
 18 17  1  0  0  0  0
 20 17  1  0  0  0  0
 21 23  1  0  0  0  0
 22 23  2  0  0  0  0
 22 33  1  0  0  0  0
 23 24  1  0  0  0  0
 24 25  1  0  0  0  0
 24 26  2  0  0  0  0
 26 27  1  0  0  0  0
 27 29  1  0  0  0  0
 27 28  1  0  0  0  0
 30 31  1  0  0  0  0
 30 29  2  0  0  0  0
 32 26  1  0  0  0  0
 32 30  1  0  0  0  0
 33 32  2  0  0  0  0
M  END
>  <minimizedAffinity>
-5.20712519

>  <minimizedRMSD>
7.4201889

$$$$
