
 OpenBabel03252508043D

 45 49  0  0  1  0  0  0  0  0999 V2000
   42.2290   33.2620   41.1780 C   0  0  0  0  0  0  0  0  0  0  0  0
   42.8660   34.4480   41.3960 C   0  0  0  0  0  0  0  0  0  0  0  0
   42.0940   35.6260   41.3620 C   0  0  0  0  0  0  0  0  0  0  0  0
   40.7430   35.6370   41.1230 C   0  0  0  0  0  0  0  0  0  0  0  0
   40.1110   34.4430   40.9050 C   0  0  0  0  0  0  0  0  0  0  0  0
   40.8490   33.2960   40.9350 C   0  0  0  0  0  0  0  0  0  0  0  0
   42.5150   36.6130   41.5160 H   0  0  0  0  0  0  0  0  0  0  0  0
   40.1670   36.5410   41.0990 H   0  0  0  0  0  0  0  0  0  0  0  0
   39.0670   34.3550   40.7110 H   0  0  0  0  0  0  0  0  0  0  0  0
   40.3440   32.3320   40.7600 H   0  0  0  0  0  0  0  0  0  0  0  0
   43.0370   31.7830   41.2300 S   0  0  0  0  0  0  0  0  0  0  0  0
   42.2360   30.9530   40.2070 O   0  0  0  0  0  0  0  0  0  0  0  0
   42.8620   31.1200   42.5870 O   0  0  0  0  0  0  0  0  0  0  0  0
   44.4840   30.9390   39.1820 C   0  0  0  0  0  3  0  0  0  0  0  0
   44.4560   31.2420   40.5690 C   0  0  0  0  0  0  0  0  0  0  0  0
   45.7340   31.0550   41.1530 C   0  0  0  0  0  0  0  0  0  0  0  0
   45.7080   31.3060   42.2310 H   0  0  0  0  0  0  0  0  0  0  0  0
   46.9340   30.6480   40.6180 C   0  0  0  0  0  0  0  0  0  0  0  0
   48.1690   30.4300   41.0130 N   0  0  0  0  0  0  0  0  0  0  0  0
   48.4680   30.5680   42.0020 H   0  0  0  0  0  0  0  0  0  0  0  0
   48.8200   30.0400   39.9350 N   0  0  0  0  0  0  0  0  0  0  0  0
   48.0300   30.0020   38.8490 C   0  0  0  0  0  0  0  0  0  0  0  0
   48.3210   29.7170   37.8460 H   0  0  0  0  0  0  0  0  0  0  0  0
   46.7700   30.4050   39.2860 C   0  0  0  0  0  0  0  0  0  0  0  0
   45.6270   30.5260   38.5490 C   0  0  0  0  0  3  0  0  0  0  0  0
   44.2960   34.5420   41.6520 C   0  0  0  0  0  0  0  0  0  0  0  0
   45.1900   34.5990   40.7430 O   0  0  0  0  0  0  0  0  0  0  0  0
   44.6140   34.5680   43.0490 C   0  0  0  0  0  0  0  0  0  0  0  0
   44.2960   35.7840   43.7410 C   0  0  0  0  0  0  0  0  0  0  0  0
   44.5870   35.8200   45.0970 C   0  0  0  0  0  0  0  0  0  0  0  0
   45.1450   34.7250   45.6740 N   0  0  0  0  0  0  0  0  0  0  0  0
   45.4300   33.5840   44.9670 C   0  0  0  0  0  0  0  0  0  0  0  0
   45.1580   33.5540   43.7120 N   0  0  0  0  0  0  0  0  0  0  0  0
   43.8630   36.6800   43.3670 H   0  0  0  0  0  0  0  0  0  0  0  0
   44.4020   36.6620   45.7310 H   0  0  0  0  0  0  0  0  0  0  0  0
   46.0290   32.4440   45.6820 C   0  0  1  0  0  0  0  0  0  0  0  0
   46.9800   32.7150   46.8310 C   0  0  0  0  0  0  0  0  0  0  0  0
   45.5680   32.2720   47.0860 C   0  0  1  0  0  0  0  0  0  0  0  0
   46.2590   31.5390   45.1280 H   0  0  0  0  0  0  0  0  0  0  0  0
   47.2880   33.7660   46.9380 H   0  0  0  0  0  0  0  0  0  0  0  0
   47.7880   32.0000   47.0470 H   0  0  0  0  0  0  0  0  0  0  0  0
   45.4560   31.2780   47.5510 H   0  0  0  0  0  0  0  0  0  0  0  0
   44.7910   33.3240   47.7250 N   0  0  0  0  0  0  0  0  0  0  0  0
   44.8790   33.2940   48.7650 H   0  0  0  0  0  0  0  0  0  0  0  0
   43.7780   33.0680   47.5450 H   0  0  0  0  0  0  0  0  0  0  0  0
  1 11  1  0  0  0  0
  1  2  1  0  0  0  0
  2 26  1  0  0  0  0
  3  2  2  0  0  0  0
  3  7  1  0  0  0  0
  4  3  1  0  0  0  0
  5  6  1  0  0  0  0
  5  4  2  0  0  0  0
  6  1  2  0  0  0  0
  8  4  1  0  0  0  0
  9  5  1  0  0  0  0
 10  6  1  0  0  0  0
 11 13  2  0  0  0  0
 12 11  2  0  0  0  0
 14 15  1  0  0  0  0
 15 16  2  0  0  0  0
 15 11  1  0  0  0  0
 16 17  1  0  0  0  0
 18 19  1  0  0  0  0
 18 16  1  0  0  0  0
 19 20  1  0  0  0  0
 21 19  1  0  0  0  0
 22 24  1  0  0  0  0
 22 21  2  0  0  0  0
 23 22  1  0  0  0  0
 24 18  2  0  0  0  0
 25 14  2  0  0  0  0
 25 24  1  0  0  0  0
 26 28  1  0  0  0  0
 27 26  2  0  0  0  0
 28 33  2  0  0  0  0
 28 29  1  0  0  0  0
 29 30  2  0  0  0  0
 30 31  1  0  0  0  0
 30 35  1  0  0  0  0
 32 31  2  0  0  0  0
 32 36  1  0  0  0  0
 33 32  1  0  0  0  0
 34 29  1  0  0  0  0
 36 39  1  6  0  0  0
 36 37  1  0  0  0  0
 36 38  1  0  0  0  0
 37 40  1  0  0  0  0
 37 41  1  0  0  0  0
 37 38  1  0  0  0  0
 38 42  1  1  0  0  0
 38 43  1  0  0  0  0
 43 44  1  0  0  0  0
 45 43  1  0  0  0  0
M  END
>  <minimizedAffinity>
-5.82761765

>  <minimizedRMSD>
1.37246335

$$$$
