
 OpenBabel03252500543D

 33 35  0  0  0  0  0  0  0  0999 V2000
   43.0780   33.8590   38.8310 O   0  0  0  0  0  0  0  0  0  0  0  0
   42.9870   33.5600   40.3240 P   0  0  1  0  0  0  0  0  0  0  0  0
   42.9630   31.8650   40.5210 O   0  0  0  0  0  0  0  0  0  0  0  0
   42.2620   31.5810   41.1280 H   0  0  0  0  0  0  0  0  0  0  0  0
   44.3640   34.1570   41.1080 O   0  0  0  0  0  0  0  0  0  0  0  0
   46.4130   33.1060   41.6410 C   0  0  0  0  0  0  0  0  0  0  0  0
   45.1400   33.4860   42.0440 C   0  0  0  0  0  0  0  0  0  0  0  0
   44.7380   33.1680   43.3540 C   0  0  0  0  0  0  0  0  0  0  0  0
   45.6350   32.5070   44.1280 N   0  0  0  0  0  0  0  0  0  0  0  0
   46.8620   32.1530   43.7100 C   0  0  0  0  0  0  0  0  0  0  0  0
   47.2340   32.4550   42.4770 N   0  0  0  0  0  0  0  0  0  0  0  0
   43.7620   33.4690   43.6350 H   0  0  0  0  0  0  0  0  0  0  0  0
   47.5620   31.6260   44.3450 H   0  0  0  0  0  0  0  0  0  0  0  0
   46.8930   33.4070   40.2910 C   0  0  0  0  0  0  0  0  0  0  0  0
   46.1400   34.0710   39.7720 H   0  0  0  0  0  0  0  0  0  0  0  0
   47.0390   32.5120   39.6790 H   0  0  0  0  0  0  0  0  0  0  0  0
   48.1670   34.2230   40.3810 C   0  0  0  0  0  0  0  0  0  0  0  0
   48.5770   34.2810   39.3310 H   0  0  0  0  0  0  0  0  0  0  0  0
   48.8890   33.5810   40.9280 H   0  0  0  0  0  0  0  0  0  0  0  0
   47.9900   35.2020   40.8260 H   0  0  0  0  0  0  0  0  0  0  0  0
   41.5380   34.1580   40.9660 O   0  0  0  0  0  0  0  0  0  0  0  0
   40.8680   36.2890   41.9920 C   0  0  0  0  0  3  0  0  0  0  0  0
   41.2880   35.5410   40.9110 C   0  0  0  0  0  0  0  0  0  0  0  0
   41.4790   36.1770   39.6880 C   0  0  0  0  0  0  0  0  0  0  0  0
   41.8040   35.7000   38.7810 H   0  0  0  0  0  0  0  0  0  0  0  0
   41.2580   37.5430   39.5330 C   0  0  0  0  0  0  0  0  0  0  0  0
   41.3550   38.4140   38.5040 N   0  0  0  0  0  0  0  0  0  0  0  0
   41.6560   38.1570   37.5240 H   0  0  0  0  0  0  0  0  0  0  0  0
   41.0190   39.6370   38.9040 N   0  0  0  0  0  0  0  0  0  0  0  0
   40.6890   39.5910   40.2240 C   0  0  0  0  0  0  0  0  0  0  0  0
   40.3770   40.4470   40.8050 H   0  0  0  0  0  0  0  0  0  0  0  0
   40.8340   38.3000   40.6230 C   0  0  0  0  0  0  0  0  0  0  0  0
   40.6480   37.6440   41.8370 C   0  0  0  0  0  3  0  0  0  0  0  0
  2  1  2  6  0  0  0
  2  3  1  0  0  0  0
  2 21  1  0  0  0  0
  2  5  1  0  0  0  0
  3  4  1  0  0  0  0
  5  7  1  0  0  0  0
  6  7  2  0  0  0  0
  6 11  1  0  0  0  0
  7  8  1  0  0  0  0
  8 12  1  0  0  0  0
  8  9  2  0  0  0  0
 10  9  1  0  0  0  0
 10 13  1  0  0  0  0
 11 10  2  0  0  0  0
 14 17  1  0  0  0  0
 14  6  1  0  0  0  0
 15 14  1  0  0  0  0
 16 14  1  0  0  0  0
 17 20  1  0  0  0  0
 17 19  1  0  0  0  0
 18 17  1  0  0  0  0
 23 21  1  0  0  0  0
 23 22  2  0  0  0  0
 24 23  1  0  0  0  0
 25 24  1  0  0  0  0
 26 24  2  0  0  0  0
 26 32  1  0  0  0  0
 27 29  1  0  0  0  0
 27 26  1  0  0  0  0
 28 27  1  0  0  0  0
 29 30  2  0  0  0  0
 30 32  1  0  0  0  0
 30 31  1  0  0  0  0
 32 33  2  0  0  0  0
 33 22  1  0  0  0  0
M  END
>  <minimizedAffinity>
15.2863874

>  <minimizedRMSD>
1.72420824

$$$$
