
 OpenBabel03242517563D

 46 49  0  0  0  0  0  0  0  0999 V2000
   45.4790   30.1640   47.3180 C   0  0  0  0  0  0  0  0  0  0  0  0
   46.1640   31.2080   46.7930 C   0  0  0  0  0  0  0  0  0  0  0  0
   46.3970   32.3050   47.6000 C   0  0  0  0  0  0  0  0  0  0  0  0
   45.9650   32.3800   48.9040 C   0  0  0  0  0  0  0  0  0  0  0  0
   45.2700   31.3110   49.4260 C   0  0  0  0  0  0  0  0  0  0  0  0
   45.0320   30.2050   48.6220 C   0  0  0  0  0  0  0  0  0  0  0  0
   46.9340   33.1810   47.2630 H   0  0  0  0  0  0  0  0  0  0  0  0
   46.1510   33.2440   49.5310 H   0  0  0  0  0  0  0  0  0  0  0  0
   44.8900   31.2670   50.4290 H   0  0  0  0  0  0  0  0  0  0  0  0
   44.4930   29.3000   48.9300 H   0  0  0  0  0  0  0  0  0  0  0  0
   45.1280   28.8540   46.2190 S   0  0  0  0  0  0  0  0  0  0  0  0
   44.4210   29.2600   44.9930 O   0  0  0  0  0  0  0  0  0  0  0  0
   44.1240   27.9510   46.9750 O   0  0  0  0  0  0  0  0  0  0  0  0
   47.4410   27.8640   45.0120 C   0  0  0  0  0  3  0  0  0  0  0  0
   46.4800   27.7650   46.0060 C   0  0  0  0  0  0  0  0  0  0  0  0
   46.6910   26.6850   46.8660 C   0  0  0  0  0  0  0  0  0  0  0  0
   45.9610   26.5620   47.6690 H   0  0  0  0  0  0  0  0  0  0  0  0
   47.7150   25.7750   46.7990 C   0  0  0  0  0  0  0  0  0  0  0  0
   48.0060   24.7110   47.5700 N   0  0  0  0  0  0  0  0  0  0  0  0
   47.4800   24.3630   48.4010 H   0  0  0  0  0  0  0  0  0  0  0  0
   49.1030   24.1760   47.0670 N   0  0  0  0  0  0  0  0  0  0  0  0
   49.5270   24.8820   45.9800 C   0  0  0  0  0  0  0  0  0  0  0  0
   50.3940   24.6980   45.3500 H   0  0  0  0  0  0  0  0  0  0  0  0
   48.6290   25.9300   45.7940 C   0  0  0  0  0  0  0  0  0  0  0  0
   48.4880   26.9740   44.9040 C   0  0  0  0  0  3  0  0  0  0  0  0
   46.6850   31.3250   45.5100 O   0  0  0  0  0  0  0  0  0  0  0  0
   45.3760   34.1760   43.8920 C   0  0  0  0  0  0  0  0  0  0  0  0
   46.4960   34.6760   43.2000 C   0  0  0  0  0  0  0  0  0  0  0  0
   47.6920   34.0190   43.3030 C   0  0  0  0  0  0  0  0  0  0  0  0
   47.7100   32.9190   44.0760 N   0  0  0  0  0  0  0  0  0  0  0  0
   46.6550   32.4530   44.7230 C   0  0  0  0  0  0  0  0  0  0  0  0
   45.4870   33.0800   44.6330 N   0  0  0  0  0  0  0  0  0  0  0  0
   44.4330   34.6980   43.8070 H   0  0  0  0  0  0  0  0  0  0  0  0
   46.3430   35.5500   42.6270 H   0  0  0  0  0  0  0  0  0  0  0  0
   48.9080   34.4560   42.6130 C   0  0  0  0  0  0  0  0  0  0  0  0
   49.6490   34.7210   43.3810 H   0  0  0  0  0  0  0  0  0  0  0  0
   49.3350   33.6290   42.0150 H   0  0  0  0  0  0  0  0  0  0  0  0
   48.6970   35.6250   41.7020 C   0  0  0  0  0  0  0  0  0  0  0  0
   49.6820   36.1910   41.7470 H   0  0  0  0  0  0  0  0  0  0  0  0
   47.9680   36.3630   41.9970 H   0  0  0  0  0  0  0  0  0  0  0  0
   48.5710   35.2640   40.2920 C   0  0  0  0  0  3  0  0  0  0  0  0
   48.0560   34.3380   39.4970 C   0  0  0  0  0  3  0  0  0  0  0  0
   48.2460   34.2310   37.9960 C   0  0  0  0  0  0  0  0  0  0  0  0
   48.9090   35.0450   37.6830 H   0  0  0  0  0  0  0  0  0  0  0  0
   47.2430   34.3260   37.5800 H   0  0  0  0  0  0  0  0  0  0  0  0
   48.6350   33.2190   37.7500 H   0  0  0  0  0  0  0  0  0  0  0  0
  1  6  1  0  0  0  0
  2  1  2  0  0  0  0
  2  3  1  0  0  0  0
  3  4  2  0  0  0  0
  4  5  1  0  0  0  0
  4  8  1  0  0  0  0
  5  9  1  0  0  0  0
  6 10  1  0  0  0  0
  6  5  2  0  0  0  0
  7  3  1  0  0  0  0
 11 13  2  0  0  0  0
 11  1  1  0  0  0  0
 12 11  2  0  0  0  0
 14 15  1  0  0  0  0
 15 11  1  0  0  0  0
 15 16  2  0  0  0  0
 16 17  1  0  0  0  0
 18 16  1  0  0  0  0
 18 19  1  0  0  0  0
 19 20  1  0  0  0  0
 21 19  1  0  0  0  0
 22 21  2  0  0  0  0
 23 22  1  0  0  0  0
 24 22  1  0  0  0  0
 24 18  2  0  0  0  0
 25 14  2  0  0  0  0
 25 24  1  0  0  0  0
 26  2  1  0  0  0  0
 27 32  1  0  0  0  0
 28 29  1  0  0  0  0
 28 27  2  0  0  0  0
 29 30  2  0  0  0  0
 30 31  1  0  0  0  0
 31 26  1  0  0  0  0
 32 31  2  0  0  0  0
 33 27  1  0  0  0  0
 34 28  1  0  0  0  0
 35 29  1  0  0  0  0
 35 36  1  0  0  0  0
 37 35  1  0  0  0  0
 38 39  1  0  0  0  0
 38 40  1  0  0  0  0
 38 35  1  0  0  0  0
 41 38  1  0  0  0  0
 42 41  2  0  0  0  0
 43 42  1  0  0  0  0
 44 43  1  0  0  0  0
 45 43  1  0  0  0  0
 46 43  1  0  0  0  0
M  END
>  <minimizedAffinity>
-5.65302467

>  <minimizedRMSD>
2.21635485

$$$$
