
 OpenBabel03242515103D

 39 42  0  0  0  0  0  0  0  0999 V2000
   47.1760   32.7240   44.1040 N   0  0  0  0  0  0  0  0  0  0  0  0
   47.1010   31.9220   44.7960 H   0  0  0  0  0  0  0  0  0  0  0  0
   45.6550   33.9030   45.6600 C   0  0  0  0  0  0  0  0  0  0  0  0
   44.7840   34.9480   45.7650 C   0  0  0  0  0  0  0  0  0  0  0  0
   44.4730   35.8230   44.7400 C   0  0  0  0  0  0  0  0  0  0  0  0
   45.0720   35.6390   43.5310 C   0  0  0  0  0  0  0  0  0  0  0  0
   45.9550   34.6040   43.3740 C   0  0  0  0  0  0  0  0  0  0  0  0
   46.2470   33.7410   44.4240 C   0  0  0  0  0  0  0  0  0  0  0  0
   44.2720   35.1470   46.7080 H   0  0  0  0  0  0  0  0  0  0  0  0
   43.7810   36.6480   44.8340 H   0  0  0  0  0  0  0  0  0  0  0  0
   44.8530   36.3060   42.7030 H   0  0  0  0  0  0  0  0  0  0  0  0
   46.4070   34.5010   42.3870 H   0  0  0  0  0  0  0  0  0  0  0  0
   47.5610   31.8250   47.9870 C   0  0  0  0  0  0  0  0  0  0  0  0
   46.5840   31.3340   48.8470 C   0  0  0  0  0  0  0  0  0  0  0  0
   45.2510   31.7150   48.6320 C   0  0  0  0  0  0  0  0  0  0  0  0
   44.9490   32.5530   47.5940 N   0  0  0  0  0  0  0  0  0  0  0  0
   45.9450   33.0170   46.7660 C   0  0  0  0  0  0  0  0  0  0  0  0
   47.2110   32.6370   46.9920 N   0  0  0  0  0  0  0  0  0  0  0  0
   48.5710   31.4950   48.2030 H   0  0  0  0  0  0  0  0  0  0  0  0
   46.7540   30.6740   49.6790 H   0  0  0  0  0  0  0  0  0  0  0  0
   44.4410   31.3710   49.2630 H   0  0  0  0  0  0  0  0  0  0  0  0
   48.3350   32.5630   42.8670 S   0  0  0  0  0  0  0  0  0  0  0  0
   47.5900   32.5150   41.5280 O   0  0  0  0  0  0  0  0  0  0  0  0
   48.0090   32.6390   40.6540 H   0  0  0  0  0  0  0  0  0  0  0  0
   49.3410   33.6530   42.8090 O   0  0  0  0  0  0  0  0  0  0  0  0
   49.1980   34.4770   42.2910 H   0  0  0  0  0  0  0  0  0  0  0  0
   49.0110   31.0320   43.0310 O   0  0  0  0  0  0  0  0  0  0  0  0
   50.5440   30.8420   41.2010 C   0  0  0  0  0  3  0  0  0  0  0  0
   50.2350   30.6860   42.5390 C   0  0  0  0  0  0  0  0  0  0  0  0
   51.1850   30.1640   43.4140 C   0  0  0  0  0  0  0  0  0  0  0  0
   50.9290   30.0460   44.4680 H   0  0  0  0  0  0  0  0  0  0  0  0
   52.4380   29.8030   42.9460 C   0  0  0  0  0  0  0  0  0  0  0  0
   53.5350   29.2860   43.5310 N   0  0  0  0  0  0  0  0  0  0  0  0
   53.5600   29.0710   44.5540 H   0  0  0  0  0  0  0  0  0  0  0  0
   54.4970   29.1140   42.6420 N   0  0  0  0  0  0  0  0  0  0  0  0
   54.0790   29.5110   41.4250 C   0  0  0  0  0  0  0  0  0  0  0  0
   54.6320   29.4990   40.4860 H   0  0  0  0  0  0  0  0  0  0  0  0
   52.7770   29.9460   41.6180 C   0  0  0  0  0  0  0  0  0  0  0  0
   51.8110   30.4680   40.7730 C   0  0  0  0  0  3  0  0  0  0  0  0
  1  8  1  0  0  0  0
  1  2  1  0  0  0  0
  3  4  1  0  0  0  0
  3 17  1  0  0  0  0
  4  9  1  0  0  0  0
  5 10  1  0  0  0  0
  5  4  2  0  0  0  0
  6  5  1  0  0  0  0
  7  6  2  0  0  0  0
  7  8  1  0  0  0  0
  8  3  2  0  0  0  0
 11  6  1  0  0  0  0
 12  7  1  0  0  0  0
 13 19  1  0  0  0  0
 13 14  1  0  0  0  0
 14 20  1  0  0  0  0
 15 14  2  0  0  0  0
 15 21  1  0  0  0  0
 16 15  1  0  0  0  0
 17 18  1  0  0  0  0
 17 16  2  0  0  0  0
 18 13  2  0  0  0  0
 22 27  1  0  0  0  0
 22  1  1  0  0  0  0
 23 22  1  0  0  0  0
 24 23  1  0  0  0  0
 25 22  1  0  0  0  0
 26 25  1  0  0  0  0
 28 29  1  0  0  0  0
 29 27  1  0  0  0  0
 29 30  2  0  0  0  0
 30 31  1  0  0  0  0
 32 30  1  0  0  0  0
 32 33  1  0  0  0  0
 33 34  1  0  0  0  0
 35 33  1  0  0  0  0
 36 38  1  0  0  0  0
 36 35  2  0  0  0  0
 37 36  1  0  0  0  0
 38 32  2  0  0  0  0
 39 28  2  0  0  0  0
 39 38  1  0  0  0  0
M  END
>  <minimizedAffinity>
-5.23159218

>  <minimizedRMSD>
0.549047589

$$$$
