
     RDKit          3D

 47 51  0  0  0  0  0  0  0  0999 V2000
   44.5913   34.4256   42.9360 C   0  0  0  0  0  0  0  0  0  0  0  0
   44.3049   35.6902   43.5506 C   0  0  0  0  0  0  0  0  0  0  0  0
   44.6262   35.8130   44.8953 C   0  0  0  0  0  0  0  0  0  0  0  0
   45.1805   34.7501   45.5333 N   0  0  0  0  0  0  0  0  0  0  0  0
   45.4350   33.5603   44.8987 C   0  0  0  0  0  0  0  0  0  0  0  0
   45.1365   33.4508   43.6536 N   0  0  0  0  0  0  0  0  0  0  0  0
   46.0326   32.4624   45.6763 C   0  0  1  0  0  0  0  0  0  0  0  0
   46.9608   32.7974   46.8279 C   0  0  0  0  0  0  0  0  0  0  0  0
   45.5494   32.3496   47.0793 C   0  0  1  0  0  0  0  0  0  0  0  0
   44.7504   33.4221   47.6535 N   0  0  0  0  0  0  0  0  0  0  0  0
   44.2426   34.3114   41.5502 C   0  0  0  0  0  0  0  0  0  0  0  0
   45.1159   34.1483   40.6340 O   0  0  0  0  0  0  0  0  0  0  0  0
   41.9866   33.3150   41.3190 C   0  0  0  0  0  0  0  0  0  0  0  0
   42.8100   34.4027   41.3151 C   0  0  0  0  0  0  0  0  0  0  0  0
   42.2328   35.6630   41.0633 C   0  0  0  0  0  0  0  0  0  0  0  0
   40.8940   35.8471   40.8247 C   0  0  0  0  0  0  0  0  0  0  0  0
   40.0752   34.7508   40.8311 C   0  0  0  0  0  0  0  0  0  0  0  0
   40.6230   33.5254   41.0732 C   0  0  0  0  0  0  0  0  0  0  0  0
   42.5519   31.7596   41.6446 S   0  0  0  0  0  0  0  0  0  0  0  0
   42.3898   31.0747   40.2735 O   0  0  0  0  0  0  0  0  0  0  0  0
   41.6316   31.0435   42.6198 O   0  0  0  0  0  0  0  0  0  0  0  0
   43.8774   36.5656   43.1256 H   0  0  0  0  0  0  0  0  0  0  0  0
   44.4662   36.6977   45.4738 H   0  0  0  0  0  0  0  0  0  0  0  0
   46.2827   31.5346   45.1692 H   0  0  0  0  0  0  0  0  0  0  0  0
   47.2554   33.8561   46.8907 H   0  0  0  0  0  0  0  0  0  0  0  0
   47.7719   32.1030   47.0906 H   0  0  0  0  0  0  0  0  0  0  0  0
   45.4398   31.3785   47.5866 H   0  0  0  0  0  0  0  0  0  0  0  0
   44.8188   33.4410   48.6961 H   0  0  0  0  0  0  0  0  0  0  0  0
   43.7433   33.1464   47.4692 H   0  0  0  0  0  0  0  0  0  0  0  0
   42.8093   36.5807   41.0318 H   0  0  0  0  0  0  0  0  0  0  0  0
   40.4677   36.8121   40.6343 H   0  0  0  0  0  0  0  0  0  0  0  0
   39.0246   34.7980   40.6562 H   0  0  0  0  0  0  0  0  0  0  0  0
   39.9678   32.6388   41.0792 H   0  0  0  0  0  0  0  0  0  0  0  0
   44.7822   31.3346   43.0040 C   0  0  0  0  0  0  0  0  0  0  0  0
   44.0704   31.1141   41.7958 C   0  0  0  0  0  0  0  0  0  0  0  0
   44.8192   30.2991   40.9097 C   0  0  0  0  0  0  0  0  0  0  0  0
   44.2526   30.1204   39.9753 H   0  0  0  0  0  0  0  0  0  0  0  0
   46.0608   29.7185   41.0282 C   0  0  0  0  0  0  0  0  0  0  0  0
   46.8701   28.9614   40.3211 N   0  0  0  0  0  0  0  0  0  0  0  0
   46.6208   28.6269   39.3654 H   0  0  0  0  0  0  0  0  0  0  0  0
   47.9347   28.7808   41.0762 N   0  0  0  0  0  0  0  0  0  0  0  0
   47.8297   29.4072   42.2600 C   0  0  0  0  0  0  0  0  0  0  0  0
   48.5649   29.4154   43.0553 H   0  0  0  0  0  0  0  0  0  0  0  0
   46.5877   30.0371   42.2456 C   0  0  0  0  0  0  0  0  0  0  0  0
   46.0252   30.8014   43.2258 C   0  0  0  0  0  0  0  0  0  0  0  0
   44.3648   31.9364   43.7989 H   0  0  0  0  0  0  0  0  0  0  0  0
   46.5403   30.9955   44.1756 H   0  0  0  0  0  0  0  0  0  0  0  0
  1  2  2  0
  1  6  1  0
  2  3  1  0
  3  4  2  0
  5  4  1  0
  5  7  1  0
  6  5  2  0
  7  8  1  0
  7  9  1  0
  8  9  1  0
  9 10  1  0
 11  1  1  0
 12 11  2  0
 13 19  1  0
 14 13  1  0
 14 11  1  0
 15 14  2  0
 16 17  2  0
 16 15  1  0
 17 18  1  0
 18 13  2  0
 19 21  2  0
 20 19  2  0
  2 22  1  0
  3 23  1  0
  7 24  1  6
  8 25  1  0
  8 26  1  0
  9 27  1  1
 10 28  1  0
 10 29  1  0
 15 30  1  0
 16 31  1  0
 17 32  1  0
 18 33  1  0
 34 35  2  0
 35 36  1  0
 36 37  1  0
 36 38  2  0
 38 39  1  0
 39 40  1  0
 39 41  1  0
 41 42  2  0
 42 43  1  0
 42 44  1  0
 44 45  2  0
 45 34  1  0
 44 38  1  0
 34 46  1  0
 45 47  1  0
 19 35  1  0
M  ISO  8  22  14  23  14  24  13  25  13  26  13  27  13  28   5  29   5
M  ISO  7  30  14  31  14  32  14  33  14  37  16  40   5  43  15
M  END
>  <DihAtoms>  (1) 
12,18,34,33

>  <DihDeg>  (1) 
122.66752395812966

$$$$
