REMARK  Name = 
REMARK  7 active torsions:
REMARK  status: ('A' for Active; 'I' for Inactive)
REMARK    1  A    between atoms: C_1  and  C_7
REMARK    2  A    between atoms: C_2  and  O_9
REMARK    3  A    between atoms: C_7  and  C_8
REMARK    4  A    between atoms: O_9  and  P_11
REMARK    5  A    between atoms: P_11  and  O_12
REMARK    6  A    between atoms: P_11  and  O_13
REMARK    7  A    between atoms: O_13  and  C_23
REMARK                            x       y       z     vdW  Elec       q    Type
REMARK                         _______ _______ _______ _____ _____    ______ ____
ROOT
ATOM      1  O   UNL     1      43.241  35.457  40.326  0.00  0.00    +0.000 OA
ATOM      2  P   UNL     1      43.201  35.099  41.809  0.00  0.00    +0.000 P 
ENDROOT
BRANCH   2   3
ATOM      3  O   UNL     1      43.045  33.404  41.937  0.00  0.00    +0.000 OA
ATOM      4  H   UNL     1      42.355  33.151  42.569  0.00  0.00    +0.000 HD
ENDBRANCH   2   3
BRANCH   2   5
ATOM      5  O   UNL     1      44.660  35.546  42.541  0.00  0.00    +0.000 OA
BRANCH   5   7
ATOM      6  C   UNL     1      46.642  34.313  42.915  0.00  0.00    +0.000 A 
ATOM      7  C   UNL     1      45.426  34.772  43.403  0.00  0.00    +0.000 A 
ATOM      8  C   UNL     1      45.066  34.423  44.717  0.00  0.00    +0.000 A 
ATOM      9  N   UNL     1      45.944  33.657  45.412  0.00  0.00    +0.000 NA
ATOM     10  C   UNL     1      47.116  33.228  44.912  0.00  0.00    +0.000 A 
ATOM     11  N   UNL     1      47.448  33.560  43.676  0.00  0.00    +0.000 NA
ATOM     12  H   UNL     1      44.133  34.786  45.064  0.00  0.00    +0.000 HD
ATOM     13  H   UNL     1      47.802  32.618  45.484  0.00  0.00    +0.000 HD
BRANCH   6  14
ATOM     14  C   UNL     1      47.076  34.641  41.556  0.00  0.00    +0.000 C 
ATOM     15  H   UNL     1      46.356  35.389  41.110  0.00  0.00    +0.000 HD
ATOM     16  H   UNL     1      47.114  33.768  40.897  0.00  0.00    +0.000 HD
BRANCH  14  17
ATOM     17  C   UNL     1      48.417  35.344  41.612  0.00  0.00    +0.000 C 
ATOM     18  H   UNL     1      48.776  35.421  40.545  0.00  0.00    +0.000 HD
ATOM     19  H   UNL     1      49.109  34.619  42.089  0.00  0.00    +0.000 HD
ATOM     20  H   UNL     1      48.346  36.311  42.110  0.00  0.00    +0.000 HD
ENDBRANCH  14  17
ENDBRANCH   6  14
ENDBRANCH   5   7
ENDBRANCH   2   5
BRANCH   2  21
ATOM     21  O   UNL     1      41.841  35.783  42.552  0.00  0.00    +0.000 OA
BRANCH  21  23
ATOM     22  C   UNL     1      41.466  37.408  40.747  0.00  0.00    +0.000 A 
ATOM     23  C   UNL     1      41.018  36.645  41.806  0.00  0.00    +0.000 A 
ATOM     24  C   UNL     1      39.677  36.722  42.169  0.00  0.00    +0.000 A 
ATOM     25  H   UNL     1      39.216  36.178  42.974  0.00  0.00    +0.000 HD
ATOM     26  C   UNL     1      38.783  37.548  41.492  0.00  0.00    +0.000 A 
ATOM     27  N   UNL     1      37.465  37.825  41.609  0.00  0.00    +0.000 N 
ATOM     28  H   UNL     1      36.822  37.401  42.331  0.00  0.00    +0.000 HD
ATOM     29  N   UNL     1      37.098  38.708  40.684  0.00  0.00    +0.000 NA
ATOM     30  C   UNL     1      38.185  39.031  39.931  0.00  0.00    +0.000 A 
ATOM     31  H   UNL     1      38.170  39.730  39.106  0.00  0.00    +0.000 HD
ATOM     32  C   UNL     1      39.233  38.319  40.422  0.00  0.00    +0.000 A 
ATOM     33  C   UNL     1      40.578  38.226  40.075  0.00  0.00    +0.000 A 
ENDBRANCH  21  23
ENDBRANCH   2  21
TORSDOF 7
