
 OpenBabel03252508033D

 45 49  0  0  1  0  0  0  0  0999 V2000
   42.2270   33.2760   41.1800 C   0  0  0  0  0  0  0  0  0  0  0  0
   42.8830   34.4550   41.3830 C   0  0  0  0  0  0  0  0  0  0  0  0
   42.1300   35.6440   41.3240 C   0  0  0  0  0  0  0  0  0  0  0  0
   40.7810   35.6730   41.0760 C   0  0  0  0  0  0  0  0  0  0  0  0
   40.1300   34.4860   40.8740 C   0  0  0  0  0  0  0  0  0  0  0  0
   40.8490   33.3280   40.9280 C   0  0  0  0  0  0  0  0  0  0  0  0
   42.5670   36.6270   41.4630 H   0  0  0  0  0  0  0  0  0  0  0  0
   40.2200   36.5860   41.0330 H   0  0  0  0  0  0  0  0  0  0  0  0
   39.0860   34.4120   40.6750 H   0  0  0  0  0  0  0  0  0  0  0  0
   40.3300   32.3690   40.7670 H   0  0  0  0  0  0  0  0  0  0  0  0
   43.0100   31.7850   41.2630 S   0  0  0  0  0  0  0  0  0  0  0  0
   42.2680   30.9810   40.1760 O   0  0  0  0  0  0  0  0  0  0  0  0
   42.7370   31.1040   42.5940 O   0  0  0  0  0  0  0  0  0  0  0  0
   44.5920   30.9910   39.2950 C   0  0  0  0  0  3  0  0  0  0  0  0
   44.4630   31.2340   40.6880 C   0  0  0  0  0  0  0  0  0  0  0  0
   45.6860   30.9850   41.3590 C   0  0  0  0  0  0  0  0  0  0  0  0
   45.5830   31.1880   42.4420 H   0  0  0  0  0  0  0  0  0  0  0  0
   46.9150   30.5680   40.8990 C   0  0  0  0  0  0  0  0  0  0  0  0
   48.1100   30.2980   41.3770 N   0  0  0  0  0  0  0  0  0  0  0  0
   48.3320   30.3830   42.3920 H   0  0  0  0  0  0  0  0  0  0  0  0
   48.8330   29.9380   40.3350 N   0  0  0  0  0  0  0  0  0  0  0  0
   48.1280   29.9710   39.1920 C   0  0  0  0  0  0  0  0  0  0  0  0
   48.4890   29.7230   38.2020 H   0  0  0  0  0  0  0  0  0  0  0  0
   46.8480   30.3890   39.5490 C   0  0  0  0  0  0  0  0  0  0  0  0
   45.7700   30.5760   38.7330 C   0  0  0  0  0  3  0  0  0  0  0  0
   44.3120   34.5300   41.6460 C   0  0  0  0  0  0  0  0  0  0  0  0
   45.2120   34.5670   40.7420 O   0  0  0  0  0  0  0  0  0  0  0  0
   44.6220   34.5610   43.0450 C   0  0  0  0  0  0  0  0  0  0  0  0
   44.2980   35.7790   43.7310 C   0  0  0  0  0  0  0  0  0  0  0  0
   44.5820   35.8210   45.0880 C   0  0  0  0  0  0  0  0  0  0  0  0
   45.1400   34.7290   45.6720 N   0  0  0  0  0  0  0  0  0  0  0  0
   45.4310   33.5860   44.9710 C   0  0  0  0  0  0  0  0  0  0  0  0
   45.1660   33.5520   43.7140 N   0  0  0  0  0  0  0  0  0  0  0  0
   43.8660   36.6730   43.3510 H   0  0  0  0  0  0  0  0  0  0  0  0
   44.3920   36.6650   45.7170 H   0  0  0  0  0  0  0  0  0  0  0  0
   46.0280   32.4500   45.6920 C   0  0  1  0  0  0  0  0  0  0  0  0
   46.9750   32.7270   46.8440 C   0  0  0  0  0  0  0  0  0  0  0  0
   45.5620   32.2840   47.0960 C   0  0  1  0  0  0  0  0  0  0  0  0
   46.2620   31.5430   45.1430 H   0  0  0  0  0  0  0  0  0  0  0  0
   47.2810   33.7800   46.9480 H   0  0  0  0  0  0  0  0  0  0  0  0
   47.7830   32.0150   47.0670 H   0  0  0  0  0  0  0  0  0  0  0  0
   45.4500   31.2920   47.5640 H   0  0  0  0  0  0  0  0  0  0  0  0
   44.7820   33.3380   47.7270 N   0  0  0  0  0  0  0  0  0  0  0  0
   44.8650   33.3120   48.7680 H   0  0  0  0  0  0  0  0  0  0  0  0
   43.7700   33.0790   47.5440 H   0  0  0  0  0  0  0  0  0  0  0  0
  1 11  1  0  0  0  0
  1  2  1  0  0  0  0
  2 26  1  0  0  0  0
  3  2  2  0  0  0  0
  3  7  1  0  0  0  0
  4  3  1  0  0  0  0
  5  6  1  0  0  0  0
  5  4  2  0  0  0  0
  6  1  2  0  0  0  0
  8  4  1  0  0  0  0
  9  5  1  0  0  0  0
 10  6  1  0  0  0  0
 11 13  2  0  0  0  0
 12 11  2  0  0  0  0
 14 15  1  0  0  0  0
 15 11  1  0  0  0  0
 15 16  2  0  0  0  0
 16 17  1  0  0  0  0
 18 16  1  0  0  0  0
 18 19  1  0  0  0  0
 19 20  1  0  0  0  0
 21 19  1  0  0  0  0
 22 24  1  0  0  0  0
 22 21  2  0  0  0  0
 23 22  1  0  0  0  0
 24 18  2  0  0  0  0
 25 14  2  0  0  0  0
 25 24  1  0  0  0  0
 26 28  1  0  0  0  0
 27 26  2  0  0  0  0
 28 33  2  0  0  0  0
 28 29  1  0  0  0  0
 29 30  2  0  0  0  0
 30 31  1  0  0  0  0
 30 35  1  0  0  0  0
 32 31  2  0  0  0  0
 32 36  1  0  0  0  0
 33 32  1  0  0  0  0
 34 29  1  0  0  0  0
 36 39  1  6  0  0  0
 36 37  1  0  0  0  0
 36 38  1  0  0  0  0
 37 40  1  0  0  0  0
 37 41  1  0  0  0  0
 37 38  1  0  0  0  0
 38 42  1  1  0  0  0
 38 43  1  0  0  0  0
 43 44  1  0  0  0  0
 45 43  1  0  0  0  0
M  END
>  <minimizedAffinity>
-5.85243893

>  <minimizedRMSD>
1.39833474

$$$$
