
 OpenBabel03242518003D

 40 43  0  0  0  0  0  0  0  0999 V2000
   46.0320   31.6640   45.3410 C   0  0  0  0  0  0  0  0  0  0  0  0
   45.0670   32.0530   45.6640 H   0  0  0  0  0  0  0  0  0  0  0  0
   45.8080   30.6210   44.9650 H   0  0  0  0  0  0  0  0  0  0  0  0
   47.1110   32.5320   47.4020 C   0  0  0  0  0  0  0  0  0  0  0  0
   46.9720   31.5180   46.4420 C   0  0  0  0  0  0  0  0  0  0  0  0
   47.7810   30.3810   46.6060 C   0  0  0  0  0  0  0  0  0  0  0  0
   48.6240   30.3330   47.6540 N   0  0  0  0  0  0  0  0  0  0  0  0
   48.7380   31.3170   48.5590 C   0  0  0  0  0  0  0  0  0  0  0  0
   47.9840   32.4030   48.4260 N   0  0  0  0  0  0  0  0  0  0  0  0
   46.5360   33.4480   47.3670 H   0  0  0  0  0  0  0  0  0  0  0  0
   47.7080   29.5740   45.8900 H   0  0  0  0  0  0  0  0  0  0  0  0
   50.5090   32.3170   49.9300 C   0  0  0  0  0  3  0  0  0  0  0  0
   49.6550   31.2570   49.6940 C   0  0  0  0  0  0  0  0  0  0  0  0
   49.7110   30.1780   50.5530 C   0  0  0  0  0  0  0  0  0  0  0  0
   49.0570   29.3290   50.3980 H   0  0  0  0  0  0  0  0  0  0  0  0
   50.5980   30.1680   51.6140 C   0  0  0  0  0  0  0  0  0  0  0  0
   50.8460   29.2600   52.5770 N   0  0  0  0  0  0  0  0  0  0  0  0
   50.3630   28.3240   52.6900 H   0  0  0  0  0  0  0  0  0  0  0  0
   51.7980   29.7020   53.3830 N   0  0  0  0  0  0  0  0  0  0  0  0
   52.1980   30.9170   52.9660 C   0  0  0  0  0  0  0  0  0  0  0  0
   52.9360   31.6420   53.3110 H   0  0  0  0  0  0  0  0  0  0  0  0
   51.4520   31.2540   51.8310 C   0  0  0  0  0  0  0  0  0  0  0  0
   51.4120   32.3580   50.9730 C   0  0  0  0  0  3  0  0  0  0  0  0
   46.7190   32.4700   44.2580 C   0  0  0  0  0  0  0  0  0  0  0  0
   46.7840   31.8310   43.3590 H   0  0  0  0  0  0  0  0  0  0  0  0
   47.7990   32.6770   44.5190 H   0  0  0  0  0  0  0  0  0  0  0  0
   46.4730   34.4800   42.8650 C   0  0  0  0  0  0  0  0  0  0  0  0
   46.1220   33.7860   44.0030 C   0  0  0  0  0  0  0  0  0  0  0  0
   45.2300   34.2640   44.9260 C   0  0  0  0  0  0  0  0  0  0  0  0
   44.6540   35.4970   44.7070 C   0  0  0  0  0  0  0  0  0  0  0  0
   44.9440   36.2540   43.6040 C   0  0  0  0  0  0  0  0  0  0  0  0
   45.8600   35.7060   42.7090 C   0  0  0  0  0  0  0  0  0  0  0  0
   44.9060   33.8020   45.8240 H   0  0  0  0  0  0  0  0  0  0  0  0
   43.9350   35.9540   45.3880 H   0  0  0  0  0  0  0  0  0  0  0  0
   44.5070   37.2130   43.4190 H   0  0  0  0  0  0  0  0  0  0  0  0
   46.1140   36.2850   41.8170 H   0  0  0  0  0  0  0  0  0  0  0  0
   47.6100   33.9080   41.6620 S   0  0  0  0  0  0  0  0  0  0  0  0
   48.9890   34.5030   41.8500 O   0  0  0  0  0  0  0  0  0  0  0  0
   47.1630   34.3990   40.3050 O   0  0  0  0  0  0  0  0  0  0  0  0
   47.6500   32.5500   41.5640 H   0  0  0  0  0  0  0  0  0  0  0  0
  1  2  1  0  0  0  0
  1  5  1  0  0  0  0
  3  1  1  0  0  0  0
  4  9  1  0  0  0  0
  5  6  1  0  0  0  0
  5  4  2  0  0  0  0
  6  7  2  0  0  0  0
  7  8  1  0  0  0  0
  8 13  1  0  0  0  0
  9  8  2  0  0  0  0
 10  4  1  0  0  0  0
 11  6  1  0  0  0  0
 12 23  1  0  0  0  0
 13 12  2  0  0  0  0
 13 14  1  0  0  0  0
 14 16  2  0  0  0  0
 15 14  1  0  0  0  0
 16 22  1  0  0  0  0
 16 17  1  0  0  0  0
 17 18  1  0  0  0  0
 17 19  1  0  0  0  0
 20 21  1  0  0  0  0
 20 19  2  0  0  0  0
 22 20  1  0  0  0  0
 23 22  2  0  0  0  0
 24 26  1  0  0  0  0
 24  1  1  0  0  0  0
 25 24  1  0  0  0  0
 27 28  1  0  0  0  0
 28 24  1  0  0  0  0
 28 29  2  0  0  0  0
 29 33  1  0  0  0  0
 30 29  1  0  0  0  0
 30 34  1  0  0  0  0
 31 30  2  0  0  0  0
 32 27  2  0  0  0  0
 32 31  1  0  0  0  0
 35 31  1  0  0  0  0
 36 32  1  0  0  0  0
 37 38  2  0  0  0  0
 37 27  1  0  0  0  0
 39 37  2  0  0  0  0
 40 37  1  0  0  0  0
M  END
>  <minimizedAffinity>
-6.45780039

>  <minimizedRMSD>
0.936788142

$$$$
