
     RDKit          3D

 42 45  0  0  0  0  0  0  0  0999 V2000
   47.0751   32.6691   44.7959 C   0  0  0  0  0  0  0  0  0  0  0  0
   46.4836   34.5228   43.2945 C   0  0  0  0  0  0  0  0  0  0  0  0
   46.2792   33.8621   44.4875 C   0  0  0  0  0  0  0  0  0  0  0  0
   45.3566   34.2642   45.4160 C   0  0  0  0  0  0  0  0  0  0  0  0
   44.5962   35.3809   45.1469 C   0  0  0  0  0  0  0  0  0  0  0  0
   44.7323   36.0969   43.9888 C   0  0  0  0  0  0  0  0  0  0  0  0
   45.6889   35.6319   43.0897 C   0  0  0  0  0  0  0  0  0  0  0  0
   47.6530   34.0457   42.0810 S   0  0  0  0  0  0  0  0  0  0  0  0
   48.9969   34.7099   42.2900 O   0  0  0  0  0  0  0  0  0  0  0  0
   47.1828   34.5484   40.7361 O   0  0  0  0  0  0  0  0  0  0  0  0
   46.3377   31.6044   45.5808 C   0  0  0  0  0  0  0  0  0  0  0  0
   47.3722   32.1369   47.7752 C   0  0  0  0  0  0  0  0  0  0  0  0
   47.1731   31.2383   46.7145 C   0  0  0  0  0  0  0  0  0  0  0  0
   47.8176   29.9941   46.8148 C   0  0  0  0  0  0  0  0  0  0  0  0
   48.5731   29.7427   47.9011 N   0  0  0  0  0  0  0  0  0  0  0  0
   48.7469   30.6196   48.9011 C   0  0  0  0  0  0  0  0  0  0  0  0
   48.1476   31.8043   48.8303 N   0  0  0  0  0  0  0  0  0  0  0  0
   47.5097   32.1829   43.9039 H   0  0  0  0  0  0  0  0  0  0  0  0
   47.9768   33.0494   45.3607 H   0  0  0  0  0  0  0  0  0  0  0  0
   45.1360   33.8210   46.3537 H   0  0  0  0  0  0  0  0  0  0  0  0
   43.8390   35.7715   45.8291 H   0  0  0  0  0  0  0  0  0  0  0  0
   44.1497   36.9667   43.7638 H   0  0  0  0  0  0  0  0  0  0  0  0
   45.8234   36.1810   42.1541 H   0  0  0  0  0  0  0  0  0  0  0  0
   47.7673   32.6950   41.9466 H   0  0  0  0  0  0  0  0  0  0  0  0
   45.3234   31.8677   45.8760 H   0  0  0  0  0  0  0  0  0  0  0  0
   46.2175   30.6718   44.9524 H   0  0  0  0  0  0  0  0  0  0  0  0
   46.9213   33.1198   47.7955 H   0  0  0  0  0  0  0  0  0  0  0  0
   47.6934   29.2700   46.0219 H   0  0  0  0  0  0  0  0  0  0  0  0
   49.9461   29.0375   50.3410 C   0  0  0  0  0  0  0  0  0  0  0  0
   49.5682   30.3390   50.0761 C   0  0  0  0  0  0  0  0  0  0  0  0
   49.9900   31.3249   50.9452 C   0  0  0  0  0  0  0  0  0  0  0  0
   49.7125   32.3566   50.7685 H   0  0  0  0  0  0  0  0  0  0  0  0
   50.7668   31.0093   52.0446 C   0  0  0  0  0  0  0  0  0  0  0  0
   51.2979   31.7645   53.0246 N   0  0  0  0  0  0  0  0  0  0  0  0
   51.1997   32.8161   53.1236 H   0  0  0  0  0  0  0  0  0  0  0  0
   51.9752   31.0037   53.8691 N   0  0  0  0  0  0  0  0  0  0  0  0
   51.9040   29.7236   53.4605 C   0  0  0  0  0  0  0  0  0  0  0  0
   52.2974   28.7765   53.8321 H   0  0  0  0  0  0  0  0  0  0  0  0
   51.1364   29.6826   52.2910 C   0  0  0  0  0  0  0  0  0  0  0  0
   50.7197   28.6677   51.4229 C   0  0  0  0  0  0  0  0  0  0  0  0
   49.6609   28.1845   49.7094 H   0  0  0  0  0  0  0  0  0  0  0  0
   51.0169   27.6503   51.6325 H   0  0  0  0  0  0  0  0  0  0  0  0
  1 11  1  0
  2  3  2  0
  3  1  1  0
  3  4  1  0
  5  4  2  0
  6  5  1  0
  7  2  1  0
  7  6  2  0
  8  9  2  0
  8  2  1  0
 10  8  2  0
 11 13  1  0
 12 17  2  0
 13 14  2  0
 13 12  1  0
 14 15  1  0
 15 16  2  0
 17 16  1  0
  1 18  1  0
  1 19  1  0
  4 20  1  0
  5 21  1  0
  6 22  1  0
  7 23  1  0
  8 24  1  0
 11 25  1  0
 11 26  1  0
 12 27  1  0
 14 28  1  0
 29 30  2  0
 30 31  1  0
 31 32  1  0
 31 33  2  0
 33 34  1  0
 34 35  1  0
 34 36  1  0
 36 37  2  0
 37 38  1  0
 37 39  1  0
 39 40  2  0
 40 29  1  0
 39 33  1  0
 29 41  1  0
 40 42  1  0
 16 30  1  0
M  ISO  8  18   8  19   8  20  14  21  14  22  14  23  14  24  11  25   8
M  ISO  6  26   8  27  14  28  14  32  16  35   5  38  15
M  END
>  <DihAtoms>  (1) 
14,15,29,28

>  <DihDeg>  (1) 
-0.0010492741524322459

$$$$
