
 OpenBabel03242518003D

 40 43  0  0  0  0  0  0  0  0999 V2000
   46.0700   31.8400   45.2720 C   0  0  0  0  0  0  0  0  0  0  0  0
   45.1090   32.1840   45.6530 H   0  0  0  0  0  0  0  0  0  0  0  0
   45.8250   30.9020   44.6900 H   0  0  0  0  0  0  0  0  0  0  0  0
   47.1720   32.2710   47.4550 C   0  0  0  0  0  0  0  0  0  0  0  0
   46.9850   31.4480   46.3330 C   0  0  0  0  0  0  0  0  0  0  0  0
   47.7210   30.2520   46.2990 C   0  0  0  0  0  0  0  0  0  0  0  0
   48.5460   29.9720   47.3260 N   0  0  0  0  0  0  0  0  0  0  0  0
   48.7070   30.7760   48.3870 C   0  0  0  0  0  0  0  0  0  0  0  0
   48.0220   31.9140   48.4430 N   0  0  0  0  0  0  0  0  0  0  0  0
   46.6530   33.2130   47.5770 H   0  0  0  0  0  0  0  0  0  0  0  0
   47.6090   29.5870   45.4550 H   0  0  0  0  0  0  0  0  0  0  0  0
   50.0930   31.4920   50.2790 C   0  0  0  0  0  3  0  0  0  0  0  0
   49.6040   30.4640   49.4970 C   0  0  0  0  0  0  0  0  0  0  0  0
   49.9910   29.1750   49.8050 C   0  0  0  0  0  0  0  0  0  0  0  0
   49.6260   28.3450   49.2140 H   0  0  0  0  0  0  0  0  0  0  0  0
   50.8430   28.9310   50.8660 C   0  0  0  0  0  0  0  0  0  0  0  0
   51.3610   27.7940   51.3670 N   0  0  0  0  0  0  0  0  0  0  0  0
   51.1880   26.8150   50.9980 H   0  0  0  0  0  0  0  0  0  0  0  0
   52.1360   28.0660   52.4050 N   0  0  0  0  0  0  0  0  0  0  0  0
   52.1440   29.3950   52.6110 C   0  0  0  0  0  0  0  0  0  0  0  0
   52.6270   30.0570   53.3300 H   0  0  0  0  0  0  0  0  0  0  0  0
   51.3250   29.9900   51.6440 C   0  0  0  0  0  0  0  0  0  0  0  0
   50.9460   31.3040   51.3490 C   0  0  0  0  0  3  0  0  0  0  0  0
   46.7970   32.8270   44.3830 C   0  0  0  0  0  0  0  0  0  0  0  0
   47.0600   32.3010   43.4470 H   0  0  0  0  0  0  0  0  0  0  0  0
   47.7990   33.1160   44.8190 H   0  0  0  0  0  0  0  0  0  0  0  0
   46.3370   34.8220   43.0220 C   0  0  0  0  0  0  0  0  0  0  0  0
   46.0890   34.0940   44.1660 C   0  0  0  0  0  0  0  0  0  0  0  0
   45.2020   34.4930   45.1300 C   0  0  0  0  0  0  0  0  0  0  0  0
   44.5230   35.6790   44.9470 C   0  0  0  0  0  0  0  0  0  0  0  0
   44.7060   36.4640   43.8420 C   0  0  0  0  0  0  0  0  0  0  0  0
   45.6240   35.9970   42.9040 C   0  0  0  0  0  0  0  0  0  0  0  0
   44.9520   34.0010   46.0350 H   0  0  0  0  0  0  0  0  0  0  0  0
   43.7980   36.0730   45.6620 H   0  0  0  0  0  0  0  0  0  0  0  0
   44.1880   37.3880   43.6850 H   0  0  0  0  0  0  0  0  0  0  0  0
   45.7940   36.6010   42.0090 H   0  0  0  0  0  0  0  0  0  0  0  0
   47.4650   34.3500   41.7680 S   0  0  0  0  0  0  0  0  0  0  0  0
   48.5400   35.3920   41.5450 O   0  0  0  0  0  0  0  0  0  0  0  0
   46.7220   34.2790   40.4550 O   0  0  0  0  0  0  0  0  0  0  0  0
   47.9900   33.1080   41.9580 H   0  0  0  0  0  0  0  0  0  0  0  0
  1  2  1  0  0  0  0
  1  5  1  0  0  0  0
  3  1  1  0  0  0  0
  4 10  1  0  0  0  0
  4  9  1  0  0  0  0
  5  4  2  0  0  0  0
  6  5  1  0  0  0  0
  6  7  2  0  0  0  0
  7  8  1  0  0  0  0
  8  9  2  0  0  0  0
  8 13  1  0  0  0  0
 11  6  1  0  0  0  0
 12 23  1  0  0  0  0
 13 14  1  0  0  0  0
 13 12  2  0  0  0  0
 14 16  2  0  0  0  0
 15 14  1  0  0  0  0
 16 17  1  0  0  0  0
 16 22  1  0  0  0  0
 17 19  1  0  0  0  0
 18 17  1  0  0  0  0
 19 20  2  0  0  0  0
 20 21  1  0  0  0  0
 22 20  1  0  0  0  0
 23 22  2  0  0  0  0
 24 26  1  0  0  0  0
 24  1  1  0  0  0  0
 25 24  1  0  0  0  0
 27 28  1  0  0  0  0
 28 24  1  0  0  0  0
 28 29  2  0  0  0  0
 29 33  1  0  0  0  0
 30 29  1  0  0  0  0
 30 34  1  0  0  0  0
 31 30  2  0  0  0  0
 32 27  2  0  0  0  0
 32 31  1  0  0  0  0
 35 31  1  0  0  0  0
 36 32  1  0  0  0  0
 37 40  1  0  0  0  0
 37 27  1  0  0  0  0
 38 37  2  0  0  0  0
 39 37  2  0  0  0  0
M  END
>  <minimizedAffinity>
-6.301651

>  <minimizedRMSD>
0.602457225

$$$$
