
     RDKit          3D

 43 46  0  0  0  0  0  0  0  0999 V2000
   44.7663   36.6203   43.8317 C   0  0  0  0  0  0  0  0  0  0  0  0
   45.6722   36.3246   42.7951 C   0  0  0  0  0  0  0  0  0  0  0  0
   46.3335   35.0882   42.8269 C   0  0  0  0  0  0  0  0  0  0  0  0
   46.0709   34.2286   43.8577 N   0  0  0  0  0  0  0  0  0  0  0  0
   45.1907   34.5560   44.8339 C   0  0  0  0  0  0  0  0  0  0  0  0
   44.5314   35.7563   44.8273 N   0  0  0  0  0  0  0  0  0  0  0  0
   45.8888   32.5797   46.0368 C   0  0  0  0  0  0  0  0  0  0  0  0
   46.9055   32.4141   45.2999 O   0  0  0  0  0  0  0  0  0  0  0  0
   44.9374   33.6424   45.8935 N   0  0  0  0  0  0  0  0  0  0  0  0
   45.6592   31.6311   47.1078 C   0  0  0  0  0  0  0  0  0  0  0  0
   45.5178   32.0970   48.4321 C   0  0  0  0  0  0  0  0  0  0  0  0
   45.2978   31.2681   49.5097 C   0  0  0  0  0  0  0  0  0  0  0  0
   45.2143   29.9187   49.2634 C   0  0  0  0  0  0  0  0  0  0  0  0
   45.3522   29.4533   47.9646 C   0  0  0  0  0  0  0  0  0  0  0  0
   45.5651   30.3103   46.9565 N   0  0  0  0  0  0  0  0  0  0  0  0
   45.2615   28.0294   47.7238 C   0  0  0  0  0  0  0  0  0  0  0  0
   44.5212   27.2641   48.5231 C   0  0  0  0  0  0  0  0  0  0  0  0
   44.3323   25.7870   48.4005 C   0  0  0  0  0  0  0  0  0  0  0  0
   44.2819   37.5851   43.7627 H   0  0  0  0  0  0  0  0  0  0  0  0
   45.8902   36.9880   41.9780 H   0  0  0  0  0  0  0  0  0  0  0  0
   47.0308   34.8295   42.0529 H   0  0  0  0  0  0  0  0  0  0  0  0
   44.1222   33.7546   46.5033 H   0  0  0  0  0  0  0  0  0  0  0  0
   45.5878   33.1686   48.6010 H   0  0  0  0  0  0  0  0  0  0  0  0
   45.1997   31.6998   50.4970 H   0  0  0  0  0  0  0  0  0  0  0  0
   45.0420   29.2343   50.0845 H   0  0  0  0  0  0  0  0  0  0  0  0
   45.7424   27.4613   46.9332 H   0  0  0  0  0  0  0  0  0  0  0  0
   43.9647   27.6510   49.3689 H   0  0  0  0  0  0  0  0  0  0  0  0
   43.2907   25.4909   48.2733 H   0  0  0  0  0  0  0  0  0  0  0  0
   44.7109   25.2735   49.3137 H   0  0  0  0  0  0  0  0  0  0  0  0
   45.9095   24.1340   47.1991 C   0  0  0  0  0  0  0  0  0  0  0  0
   45.1118   25.2679   47.2215 C   0  0  0  0  0  0  0  0  0  0  0  0
   45.0068   26.0171   46.0456 C   0  0  0  0  0  0  0  0  0  0  0  0
   44.3942   26.9129   46.0134 H   0  0  0  0  0  0  0  0  0  0  0  0
   45.6615   25.6715   44.8773 C   0  0  0  0  0  0  0  0  0  0  0  0
   45.7047   26.2278   43.6621 N   0  0  0  0  0  0  0  0  0  0  0  0
   45.1937   27.1014   43.3870 H   0  0  0  0  0  0  0  0  0  0  0  0
   46.4914   25.4870   42.8984 N   0  0  0  0  0  0  0  0  0  0  0  0
   46.9688   24.4422   43.6046 C   0  0  0  0  0  0  0  0  0  0  0  0
   47.6318   23.6657   43.2602 H   0  0  0  0  0  0  0  0  0  0  0  0
   46.4503   24.5394   44.8765 C   0  0  0  0  0  0  0  0  0  0  0  0
   46.5546   23.7967   46.0420 C   0  0  0  0  0  0  0  0  0  0  0  0
   45.9526   23.5967   48.1335 H   0  0  0  0  0  0  0  0  0  0  0  0
   47.1806   22.8936   46.0506 H   0  0  0  0  0  0  0  0  0  0  0  0
  1  6  2  0
  2  3  2  0
  2  1  1  0
  3  4  1  0
  4  5  2  0
  5  9  1  0
  6  5  1  0
  7 10  1  0
  8  7  2  0
  9  7  1  0
 10 11  2  0
 11 12  1  0
 13 12  2  0
 14 13  1  0
 15 10  1  0
 15 14  2  0
 16 14  1  0
 16 17  2  0
 18 17  1  0
  1 19  1  0
  2 20  1  0
  3 21  1  0
  9 22  1  0
 11 23  1  0
 12 24  1  0
 13 25  1  0
 16 26  1  0
 17 27  1  0
 18 28  1  0
 18 29  1  0
 30 31  2  0
 31 32  1  0
 32 33  1  0
 32 34  2  0
 34 35  1  0
 35 36  1  0
 35 37  1  0
 37 38  2  0
 38 39  1  0
 38 40  1  0
 40 41  2  0
 41 30  1  0
 40 34  1  0
 30 42  1  0
 41 43  1  0
 18 31  1  0
M  ISO  8  19  14  20  14  21  14  23  14  24  14  25  14  28   8  29   8
M  ISO  3  33  16  36   5  39  15
M  END
>  <DihAtoms>  (1) 
16,17,30,29

>  <DihDeg>  (1) 
90.00046241240835

$$$$
