
 OpenBabel03242518003D

 40 43  0  0  0  0  0  0  0  0999 V2000
   46.3530   31.5940   45.7860 C   0  0  0  0  0  0  0  0  0  0  0  0
   45.3510   31.8640   46.1190 H   0  0  0  0  0  0  0  0  0  0  0  0
   46.2160   30.6130   45.2400 H   0  0  0  0  0  0  0  0  0  0  0  0
   47.4840   32.3080   47.8780 C   0  0  0  0  0  0  0  0  0  0  0  0
   47.2590   31.3330   46.8940 C   0  0  0  0  0  0  0  0  0  0  0  0
   47.9510   30.1190   47.0420 C   0  0  0  0  0  0  0  0  0  0  0  0
   48.7710   29.9660   48.0980 N   0  0  0  0  0  0  0  0  0  0  0  0
   48.9680   30.9150   49.0260 C   0  0  0  0  0  0  0  0  0  0  0  0
   48.3260   32.0730   48.9080 N   0  0  0  0  0  0  0  0  0  0  0  0
   47.0020   33.2760   47.8570 H   0  0  0  0  0  0  0  0  0  0  0  0
   47.8080   29.3380   46.3070 H   0  0  0  0  0  0  0  0  0  0  0  0
   50.0280   29.4810   50.7090 C   0  0  0  0  0  0  0  0  0  0  0  0
   49.8600   30.7410   50.1690 C   0  0  0  0  0  0  0  0  0  0  0  0
   50.5510   31.7890   50.7440 C   0  0  0  0  0  0  0  0  0  0  0  0
   50.4420   32.7910   50.3470 H   0  0  0  0  0  0  0  0  0  0  0  0
   51.3830   31.5750   51.8270 C   0  0  0  0  0  0  0  0  0  0  0  0
   52.1530   32.4040   52.5560 N   0  0  0  0  0  0  0  0  0  0  0  0
   52.2550   33.4500   52.4070 H   0  0  0  0  0  0  0  0  0  0  0  0
   52.7780   31.7280   53.5050 N   0  0  0  0  0  0  0  0  0  0  0  0
   52.4330   30.4300   53.4210 C   0  0  0  0  0  0  0  0  0  0  0  0
   52.6920   29.5290   53.9780 H   0  0  0  0  0  0  0  0  0  0  0  0
   51.5370   30.2870   52.3550 C   0  0  0  0  0  0  0  0  0  0  0  0
   50.8470   29.2120   51.7880 C   0  0  0  0  0  0  0  0  0  0  0  0
   47.0210   32.6050   44.8780 C   0  0  0  0  0  0  0  0  0  0  0  0
   47.3460   32.0700   43.9670 H   0  0  0  0  0  0  0  0  0  0  0  0
   47.9870   32.9860   45.3240 H   0  0  0  0  0  0  0  0  0  0  0  0
   46.3680   34.4540   43.3960 C   0  0  0  0  0  0  0  0  0  0  0  0
   46.2200   33.8030   44.6030 C   0  0  0  0  0  0  0  0  0  0  0  0
   45.3520   34.2200   45.5760 C   0  0  0  0  0  0  0  0  0  0  0  0
   44.5880   35.3420   45.3390 C   0  0  0  0  0  0  0  0  0  0  0  0
   44.6690   36.0490   44.1710 C   0  0  0  0  0  0  0  0  0  0  0  0
   45.5730   35.5690   43.2260 C   0  0  0  0  0  0  0  0  0  0  0  0
   45.1770   33.7850   46.5270 H   0  0  0  0  0  0  0  0  0  0  0  0
   43.8710   35.7440   46.0570 H   0  0  0  0  0  0  0  0  0  0  0  0
   44.0840   36.9230   43.9700 H   0  0  0  0  0  0  0  0  0  0  0  0
   45.6630   36.1110   42.2810 H   0  0  0  0  0  0  0  0  0  0  0  0
   47.4680   33.9590   42.1270 S   0  0  0  0  0  0  0  0  0  0  0  0
   48.8370   34.5860   42.2790 O   0  0  0  0  0  0  0  0  0  0  0  0
   46.9500   34.4860   40.8090 O   0  0  0  0  0  0  0  0  0  0  0  0
   47.5400   32.6070   41.9760 H   0  0  0  0  0  0  0  0  0  0  0  0
  1  2  1  0  0  0  0
  1  5  1  0  0  0  0
  3  1  1  0  0  0  0
  4  9  1  0  0  0  0
  5  6  1  0  0  0  0
  5  4  2  0  0  0  0
  6  7  2  0  0  0  0
  7  8  1  0  0  0  0
  8 13  1  0  0  0  0
  9  8  2  0  0  0  0
 10  4  1  0  0  0  0
 11  6  1  0  0  0  0
 12 23  1  0  0  0  0
 13 12  2  0  0  0  0
 13 14  1  0  0  0  0
 14 16  2  0  0  0  0
 15 14  1  0  0  0  0
 16 22  1  0  0  0  0
 16 17  1  0  0  0  0
 17 19  1  0  0  0  0
 18 17  1  0  0  0  0
 20 19  2  0  0  0  0
 20 21  1  0  0  0  0
 22 20  1  0  0  0  0
 23 22  2  0  0  0  0
 24 26  1  0  0  0  0
 24  1  1  0  0  0  0
 25 24  1  0  0  0  0
 27 28  1  0  0  0  0
 28 24  1  0  0  0  0
 28 29  2  0  0  0  0
 29 33  1  0  0  0  0
 30 29  1  0  0  0  0
 30 34  1  0  0  0  0
 31 30  2  0  0  0  0
 32 27  2  0  0  0  0
 32 31  1  0  0  0  0
 35 31  1  0  0  0  0
 36 32  1  0  0  0  0
 37 38  2  0  0  0  0
 37 27  1  0  0  0  0
 39 37  2  0  0  0  0
 40 37  1  0  0  0  0
M  END
>  <minimizedAffinity>
-6.5710144

>  <minimizedRMSD>
1.11813211

$$$$
