
 OpenBabel03252506043D

 46 51  0  0  0  0  0  0  0  0999 V2000
   44.8310   36.0010   43.3300 Cl  0  0  0  0  0  0  0  0  0  0  0  0
   45.5780   34.7460   44.2720 C   0  0  0  0  0  0  0  0  0  0  0  0
   46.7080   34.0980   43.8000 C   0  0  0  0  0  0  0  0  0  0  0  0
   47.2170   33.1240   44.6210 C   0  0  0  0  0  0  0  0  0  0  0  0
   46.6910   32.7610   45.8460 C   0  0  0  0  0  0  0  0  0  0  0  0
   45.5700   33.4250   46.2810 C   0  0  0  0  0  0  0  0  0  0  0  0
   44.9310   32.9370   47.8400 Cl  0  0  0  0  0  0  0  0  0  0  0  0
   45.0210   34.4060   45.5000 C   0  0  0  0  0  0  0  0  0  0  0  0
   48.1110   32.6160   44.2420 H   0  0  0  0  0  0  0  0  0  0  0  0
   44.1460   34.8990   45.8780 H   0  0  0  0  0  0  0  0  0  0  0  0
   47.3820   31.6940   46.5710 C   0  0  0  0  0  0  0  0  0  0  0  0
   47.5030   30.4100   46.0820 C   0  0  0  0  0  0  0  0  0  0  0  0
   48.1530   29.3840   46.7520 C   0  0  0  0  0  0  0  0  0  0  0  0
   48.7160   29.6550   47.9860 C   0  0  0  0  0  0  0  0  0  0  0  0
   49.3380   28.6350   48.6060 N   0  0  0  0  0  0  0  0  0  0  0  0
   49.9220   28.8040   49.8220 C   0  0  0  0  0  0  0  0  0  0  0  0
   49.8400   30.0680   50.3760 C   0  0  0  0  0  0  0  0  0  0  0  0
   49.2040   31.0890   49.7290 C   0  0  0  0  0  0  0  0  0  0  0  0
   48.6180   30.9120   48.5040 C   0  0  0  0  0  0  0  0  0  0  0  0
   47.9650   31.9160   47.8150 C   0  0  0  0  0  0  0  0  0  0  0  0
   47.0460   30.2430   45.1100 H   0  0  0  0  0  0  0  0  0  0  0  0
   48.1880   28.4110   46.2740 H   0  0  0  0  0  0  0  0  0  0  0  0
   50.4120   27.9380   50.2740 H   0  0  0  0  0  0  0  0  0  0  0  0
   50.3080   30.1940   51.3430 H   0  0  0  0  0  0  0  0  0  0  0  0
   49.1680   32.0670   50.2070 H   0  0  0  0  0  0  0  0  0  0  0  0
   47.9200   32.8940   48.2780 H   0  0  0  0  0  0  0  0  0  0  0  0
   48.9250   35.5780   41.3250 C   0  0  0  0  0  0  0  0  0  0  0  0
   48.4580   35.0480   40.1150 C   0  0  0  0  0  0  0  0  0  0  0  0
   47.3590   34.1650   40.1520 C   0  0  0  0  0  0  0  0  0  0  0  0
   46.8400   33.8980   41.3640 N   0  0  0  0  0  0  0  0  0  0  0  0
   47.3140   34.4280   42.5230 C   0  0  0  0  0  0  0  0  0  0  0  0
   48.3560   35.2670   42.5090 N   0  0  0  0  0  0  0  0  0  0  0  0
   49.7640   36.2530   41.3110 H   0  0  0  0  0  0  0  0  0  0  0  0
   48.8830   35.2710   39.1650 H   0  0  0  0  0  0  0  0  0  0  0  0
   45.5400   32.9630   39.1430 C   0  0  0  0  0  3  0  0  0  0  0  0
   46.7700   33.5400   38.9760 C   0  0  0  0  0  0  0  0  0  0  0  0
   47.3960   33.5180   37.7490 C   0  0  0  0  0  0  0  0  0  0  0  0
   48.3530   33.9660   37.6090 H   0  0  0  0  0  0  0  0  0  0  0  0
   46.8120   32.9180   36.6520 C   0  0  0  0  0  0  0  0  0  0  0  0
   47.1870   32.7540   35.3710 N   0  0  0  0  0  0  0  0  0  0  0  0
   48.1110   33.1200   35.0010 H   0  0  0  0  0  0  0  0  0  0  0  0
   46.2340   32.0940   34.7350 N   0  0  0  0  0  0  0  0  0  0  0  0
   45.2220   31.8140   35.5750 C   0  0  0  0  0  0  0  0  0  0  0  0
   44.3200   31.2900   35.3370 H   0  0  0  0  0  0  0  0  0  0  0  0
   45.5590   32.3320   36.8280 C   0  0  0  0  0  0  0  0  0  0  0  0
   44.9060   32.3420   38.0620 C   0  0  0  0  0  3  0  0  0  0  0  0
  1  2  1  0  0  0  0
  2  8  1  0  0  0  0
  3  2  2  0  0  0  0
  3  4  1  0  0  0  0
  4  5  2  0  0  0  0
  5  6  1  0  0  0  0
  5 11  1  0  0  0  0
  6  7  1  0  0  0  0
  8 10  1  0  0  0  0
  8  6  2  0  0  0  0
  9  4  1  0  0  0  0
 11 20  1  0  0  0  0
 12 11  2  0  0  0  0
 12 13  1  0  0  0  0
 13 14  2  0  0  0  0
 14 19  1  0  0  0  0
 14 15  1  0  0  0  0
 15 16  2  0  0  0  0
 16 23  1  0  0  0  0
 16 17  1  0  0  0  0
 17 24  1  0  0  0  0
 18 25  1  0  0  0  0
 18 17  2  0  0  0  0
 19 18  1  0  0  0  0
 20 26  1  0  0  0  0
 20 19  2  0  0  0  0
 21 12  1  0  0  0  0
 22 13  1  0  0  0  0
 27 32  1  0  0  0  0
 28 29  1  0  0  0  0
 28 27  2  0  0  0  0
 29 30  2  0  0  0  0
 30 31  1  0  0  0  0
 31  3  1  0  0  0  0
 32 31  2  0  0  0  0
 33 27  1  0  0  0  0
 34 28  1  0  0  0  0
 36 35  1  0  0  0  0
 36 29  1  0  0  0  0
 37 36  2  0  0  0  0
 38 37  1  0  0  0  0
 39 45  2  0  0  0  0
 39 37  1  0  0  0  0
 40 39  1  0  0  0  0
 41 40  1  0  0  0  0
 42 40  1  0  0  0  0
 42 43  2  0  0  0  0
 43 45  1  0  0  0  0
 44 43  1  0  0  0  0
 45 46  1  0  0  0  0
 46 35  2  0  0  0  0
M  END
>  <minimizedAffinity>
-7.9047184

>  <minimizedRMSD>
0.317806363

$$$$
