
 OpenBabel03252506043D

 46 51  0  0  0  0  0  0  0  0999 V2000
   44.8780   35.9810   43.1730 Cl  0  0  0  0  0  0  0  0  0  0  0  0
   45.6120   34.7380   44.1420 C   0  0  0  0  0  0  0  0  0  0  0  0
   46.7350   34.0690   43.6840 C   0  0  0  0  0  0  0  0  0  0  0  0
   47.2340   33.1070   44.5250 C   0  0  0  0  0  0  0  0  0  0  0  0
   46.7040   32.7750   45.7570 C   0  0  0  0  0  0  0  0  0  0  0  0
   45.5900   33.4600   46.1780 C   0  0  0  0  0  0  0  0  0  0  0  0
   44.9460   33.0120   47.7470 Cl  0  0  0  0  0  0  0  0  0  0  0  0
   45.0510   34.4310   45.3770 C   0  0  0  0  0  0  0  0  0  0  0  0
   48.1220   32.5820   44.1580 H   0  0  0  0  0  0  0  0  0  0  0  0
   44.1820   34.9400   45.7440 H   0  0  0  0  0  0  0  0  0  0  0  0
   47.3840   31.7170   46.5060 C   0  0  0  0  0  0  0  0  0  0  0  0
   47.5080   30.4260   46.0360 C   0  0  0  0  0  0  0  0  0  0  0  0
   48.1470   29.4080   46.7270 C   0  0  0  0  0  0  0  0  0  0  0  0
   48.6970   29.6950   47.9640 C   0  0  0  0  0  0  0  0  0  0  0  0
   49.3080   28.6820   48.6040 N   0  0  0  0  0  0  0  0  0  0  0  0
   49.8790   28.8660   49.8260 C   0  0  0  0  0  0  0  0  0  0  0  0
   49.7930   30.1380   50.3610 C   0  0  0  0  0  0  0  0  0  0  0  0
   49.1670   31.1510   49.6930 C   0  0  0  0  0  0  0  0  0  0  0  0
   48.5950   30.9580   48.4630 C   0  0  0  0  0  0  0  0  0  0  0  0
   47.9530   31.9540   47.7530 C   0  0  0  0  0  0  0  0  0  0  0  0
   47.0610   30.2470   45.0600 H   0  0  0  0  0  0  0  0  0  0  0  0
   48.1860   28.4280   46.2620 H   0  0  0  0  0  0  0  0  0  0  0  0
   50.3610   28.0050   50.2950 H   0  0  0  0  0  0  0  0  0  0  0  0
   50.2500   30.2760   51.3310 H   0  0  0  0  0  0  0  0  0  0  0  0
   49.1280   32.1360   50.1570 H   0  0  0  0  0  0  0  0  0  0  0  0
   47.9050   32.9390   48.2020 H   0  0  0  0  0  0  0  0  0  0  0  0
   48.8070   35.6430   41.1420 C   0  0  0  0  0  0  0  0  0  0  0  0
   48.4950   34.9230   39.9810 C   0  0  0  0  0  0  0  0  0  0  0  0
   47.5560   33.8760   40.0750 C   0  0  0  0  0  0  0  0  0  0  0  0
   47.0250   33.6490   41.2900 N   0  0  0  0  0  0  0  0  0  0  0  0
   47.3450   34.3650   42.4010 C   0  0  0  0  0  0  0  0  0  0  0  0
   48.2350   35.3620   42.3320 N   0  0  0  0  0  0  0  0  0  0  0  0
   49.5230   36.4450   41.0830 H   0  0  0  0  0  0  0  0  0  0  0  0
   48.9280   35.1170   39.0270 H   0  0  0  0  0  0  0  0  0  0  0  0
   47.9410   31.9790   38.6510 C   0  0  0  0  0  3  0  0  0  0  0  0
   47.1390   33.0450   38.9540 C   0  0  0  0  0  0  0  0  0  0  0  0
   46.0000   33.2980   38.2210 C   0  0  0  0  0  0  0  0  0  0  0  0
   45.3660   34.1260   38.4490 H   0  0  0  0  0  0  0  0  0  0  0  0
   45.6280   32.4940   37.1640 C   0  0  0  0  0  0  0  0  0  0  0  0
   44.5970   32.5060   36.3000 N   0  0  0  0  0  0  0  0  0  0  0  0
   43.8370   33.2450   36.3380 H   0  0  0  0  0  0  0  0  0  0  0  0
   44.7300   31.4850   35.4710 N   0  0  0  0  0  0  0  0  0  0  0  0
   45.8390   30.7870   35.7670 C   0  0  0  0  0  0  0  0  0  0  0  0
   46.1990   29.9130   35.2650 H   0  0  0  0  0  0  0  0  0  0  0  0
   46.4510   31.4080   36.8580 C   0  0  0  0  0  0  0  0  0  0  0  0
   47.6090   31.1330   37.5870 C   0  0  0  0  0  3  0  0  0  0  0  0
  1  2  1  0  0  0  0
  2  8  1  0  0  0  0
  3  2  2  0  0  0  0
  3  4  1  0  0  0  0
  4  5  2  0  0  0  0
  5  6  1  0  0  0  0
  5 11  1  0  0  0  0
  6  7  1  0  0  0  0
  8 10  1  0  0  0  0
  8  6  2  0  0  0  0
  9  4  1  0  0  0  0
 11 20  1  0  0  0  0
 12 11  2  0  0  0  0
 12 13  1  0  0  0  0
 13 14  2  0  0  0  0
 14 19  1  0  0  0  0
 14 15  1  0  0  0  0
 15 16  2  0  0  0  0
 16 23  1  0  0  0  0
 16 17  1  0  0  0  0
 17 24  1  0  0  0  0
 18 25  1  0  0  0  0
 18 17  2  0  0  0  0
 19 18  1  0  0  0  0
 20 26  1  0  0  0  0
 20 19  2  0  0  0  0
 21 12  1  0  0  0  0
 22 13  1  0  0  0  0
 27 32  1  0  0  0  0
 28 29  1  0  0  0  0
 28 27  2  0  0  0  0
 29 30  2  0  0  0  0
 30 31  1  0  0  0  0
 31  3  1  0  0  0  0
 32 31  2  0  0  0  0
 33 27  1  0  0  0  0
 34 28  1  0  0  0  0
 35 36  1  0  0  0  0
 36 29  1  0  0  0  0
 37 38  1  0  0  0  0
 37 36  2  0  0  0  0
 39 37  1  0  0  0  0
 40 41  1  0  0  0  0
 40 39  1  0  0  0  0
 42 43  2  0  0  0  0
 42 40  1  0  0  0  0
 43 45  1  0  0  0  0
 44 43  1  0  0  0  0
 45 39  2  0  0  0  0
 45 46  1  0  0  0  0
 46 35  2  0  0  0  0
M  END
>  <minimizedAffinity>
-7.37488079

>  <minimizedRMSD>
0.564385355

$$$$
