
 OpenBabel03242522053D

 47 51  0  0  1  0  0  0  0  0999 V2000
   44.7240   35.0500   45.2520 C   0  0  0  0  0  0  0  0  0  0  0  0
   45.5170   34.9270   44.0990 C   0  0  0  0  0  0  0  0  0  0  0  0
   46.5180   33.9420   44.0650 C   0  0  0  0  0  0  0  0  0  0  0  0
   46.6160   33.1890   45.1870 N   0  0  0  0  0  0  0  0  0  0  0  0
   45.8510   33.3180   46.2820 C   0  0  0  0  0  0  0  0  0  0  0  0
   44.9000   34.2660   46.2940 N   0  0  0  0  0  0  0  0  0  0  0  0
   43.9600   35.8130   45.2590 H   0  0  0  0  0  0  0  0  0  0  0  0
   45.4050   35.5490   43.2260 H   0  0  0  0  0  0  0  0  0  0  0  0
   47.3810   33.7150   42.9690 N   0  0  0  0  0  0  0  0  0  0  0  0
   46.9590   32.8720   41.8740 C   0  0  0  0  0  0  0  0  0  0  0  0
   48.1440   32.3390   41.1030 C   0  0  0  0  0  0  0  0  0  0  0  0
   49.0790   33.3210   40.7040 N   0  0  0  0  0  0  0  0  0  0  0  0
   49.2990   34.3920   41.5970 C   0  0  2  0  0  0  0  0  0  0  0  0
   48.6790   34.3200   42.9360 C   0  0  0  0  0  0  0  0  0  0  0  0
   46.3020   32.0480   42.1480 H   0  0  0  0  0  0  0  0  0  0  0  0
   46.3890   33.5290   41.1640 H   0  0  0  0  0  0  0  0  0  0  0  0
   48.6460   31.6000   41.7620 H   0  0  0  0  0  0  0  0  0  0  0  0
   47.7600   31.8020   40.2110 H   0  0  0  0  0  0  0  0  0  0  0  0
   48.9250   33.5980   39.7080 H   0  0  0  0  0  0  0  0  0  0  0  0
   50.4100   34.5100   41.7480 H   0  0  0  0  0  0  0  0  0  0  0  0
   49.3810   33.7680   43.6120 H   0  0  0  0  0  0  0  0  0  0  0  0
   48.5950   35.3400   43.3610 H   0  0  0  0  0  0  0  0  0  0  0  0
   48.8520   35.6800   40.9490 C   0  0  0  0  0  0  0  0  0  0  0  0
   49.6530   36.7360   41.3570 F   0  0  0  0  0  0  0  0  0  0  0  0
   47.5780   35.9380   41.4450 F   0  0  0  0  0  0  0  0  0  0  0  0
   48.8720   35.6360   39.5850 F   0  0  0  0  0  0  0  0  0  0  0  0
   46.0500   32.4480   47.4320 C   0  0  0  0  0  0  0  0  0  0  0  0
   44.9680   32.0390   48.1700 C   0  0  0  0  0  0  0  0  0  0  0  0
   45.2020   31.2080   49.2610 C   0  0  0  0  0  0  0  0  0  0  0  0
   46.5040   30.8630   49.5120 C   0  0  0  0  0  0  0  0  0  0  0  0
   47.5890   31.2670   48.7820 C   0  0  0  0  0  0  0  0  0  0  0  0
   47.3310   32.0730   47.7290 N   0  0  0  0  0  0  0  0  0  0  0  0
   43.9750   32.3380   47.9290 H   0  0  0  0  0  0  0  0  0  0  0  0
   44.3880   30.8480   49.8870 H   0  0  0  0  0  0  0  0  0  0  0  0
   46.6810   30.2180   50.3610 H   0  0  0  0  0  0  0  0  0  0  0  0
   49.4070   29.6860   48.5630 C   0  0  0  0  0  0  0  0  0  0  0  0
   48.9720   30.9050   49.0420 C   0  0  0  0  0  0  0  0  0  0  0  0
   49.8350   31.7280   49.7340 C   0  0  0  0  0  0  0  0  0  0  0  0
   49.5090   32.6820   50.1120 H   0  0  0  0  0  0  0  0  0  0  0  0
   51.1370   31.3320   49.9490 C   0  0  0  0  0  0  0  0  0  0  0  0
   52.2110   31.8910   50.5750 N   0  0  0  0  0  0  0  0  0  0  0  0
   52.1570   32.8400   51.0380 H   0  0  0  0  0  0  0  0  0  0  0  0
   53.2700   31.1000   50.5130 N   0  0  0  0  0  0  0  0  0  0  0  0
   52.9610   29.9620   49.8380 C   0  0  0  0  0  0  0  0  0  0  0  0
   53.5630   29.0940   49.5900 H   0  0  0  0  0  0  0  0  0  0  0  0
   51.6350   30.1070   49.4870 C   0  0  0  0  0  0  0  0  0  0  0  0
   50.7370   29.3160   48.8000 C   0  0  0  0  0  0  0  0  0  0  0  0
  1  7  1  0  0  0  0
  1  6  1  0  0  0  0
  2  1  2  0  0  0  0
  3  2  1  0  0  0  0
  3  4  2  0  0  0  0
  4  5  1  0  0  0  0
  5  6  2  0  0  0  0
  5 27  1  0  0  0  0
  8  2  1  0  0  0  0
  9  3  1  0  0  0  0
 10 15  1  0  0  0  0
 10  9  1  0  0  0  0
 11 17  1  0  0  0  0
 11 10  1  0  0  0  0
 12 11  1  0  0  0  0
 12 13  1  0  0  0  0
 13 20  1  1  0  0  0
 13 14  1  0  0  0  0
 14  9  1  0  0  0  0
 14 22  1  0  0  0  0
 14 21  1  0  0  0  0
 16 10  1  0  0  0  0
 18 11  1  0  0  0  0
 19 12  1  0  0  0  0
 23 24  1  0  0  0  0
 23 25  1  0  0  0  0
 23 13  1  0  0  0  0
 26 23  1  0  0  0  0
 27 32  2  0  0  0  0
 27 28  1  0  0  0  0
 28 29  2  0  0  0  0
 29 30  1  0  0  0  0
 29 34  1  0  0  0  0
 30 35  1  0  0  0  0
 31 37  1  0  0  0  0
 31 30  2  0  0  0  0
 32 31  1  0  0  0  0
 33 28  1  0  0  0  0
 36 47  2  0  0  0  0
 36 37  1  0  0  0  0
 37 38  2  0  0  0  0
 38 40  1  0  0  0  0
 38 39  1  0  0  0  0
 40 41  1  0  0  0  0
 41 42  1  0  0  0  0
 43 41  1  0  0  0  0
 44 43  2  0  0  0  0
 45 44  1  0  0  0  0
 46 44  1  0  0  0  0
 46 40  2  0  0  0  0
 47 46  1  0  0  0  0
M  END
>  <minimizedAffinity>
-7.78851509

>  <minimizedRMSD>
0.204552472

$$$$
