
 OpenBabel03252506033D

 46 51  0  0  0  0  0  0  0  0999 V2000
   44.8310   36.0020   43.3300 Cl  0  0  0  0  0  0  0  0  0  0  0  0
   45.5770   34.7470   44.2730 C   0  0  0  0  0  0  0  0  0  0  0  0
   46.7070   34.0990   43.8010 C   0  0  0  0  0  0  0  0  0  0  0  0
   47.2160   33.1250   44.6220 C   0  0  0  0  0  0  0  0  0  0  0  0
   46.6900   32.7620   45.8470 C   0  0  0  0  0  0  0  0  0  0  0  0
   45.5690   33.4270   46.2820 C   0  0  0  0  0  0  0  0  0  0  0  0
   44.9290   32.9400   47.8410 Cl  0  0  0  0  0  0  0  0  0  0  0  0
   45.0190   34.4080   45.5010 C   0  0  0  0  0  0  0  0  0  0  0  0
   48.1090   32.6160   44.2430 H   0  0  0  0  0  0  0  0  0  0  0  0
   44.1450   34.9020   45.8790 H   0  0  0  0  0  0  0  0  0  0  0  0
   47.3790   31.6960   46.5730 C   0  0  0  0  0  0  0  0  0  0  0  0
   47.4970   30.4100   46.0850 C   0  0  0  0  0  0  0  0  0  0  0  0
   48.1470   29.3840   46.7560 C   0  0  0  0  0  0  0  0  0  0  0  0
   48.7130   29.6560   47.9880 C   0  0  0  0  0  0  0  0  0  0  0  0
   49.3340   28.6360   48.6080 N   0  0  0  0  0  0  0  0  0  0  0  0
   49.9210   28.8060   49.8230 C   0  0  0  0  0  0  0  0  0  0  0  0
   49.8430   30.0710   50.3750 C   0  0  0  0  0  0  0  0  0  0  0  0
   49.2070   31.0920   49.7280 C   0  0  0  0  0  0  0  0  0  0  0  0
   48.6180   30.9140   48.5040 C   0  0  0  0  0  0  0  0  0  0  0  0
   47.9660   31.9180   47.8150 C   0  0  0  0  0  0  0  0  0  0  0  0
   47.0380   30.2430   45.1140 H   0  0  0  0  0  0  0  0  0  0  0  0
   48.1800   28.4100   46.2790 H   0  0  0  0  0  0  0  0  0  0  0  0
   50.4100   27.9390   50.2760 H   0  0  0  0  0  0  0  0  0  0  0  0
   50.3120   30.1980   51.3410 H   0  0  0  0  0  0  0  0  0  0  0  0
   49.1730   32.0710   50.2050 H   0  0  0  0  0  0  0  0  0  0  0  0
   47.9230   32.8970   48.2770 H   0  0  0  0  0  0  0  0  0  0  0  0
   48.9250   35.5770   41.3260 C   0  0  0  0  0  0  0  0  0  0  0  0
   48.4570   35.0480   40.1160 C   0  0  0  0  0  0  0  0  0  0  0  0
   47.3590   34.1650   40.1530 C   0  0  0  0  0  0  0  0  0  0  0  0
   46.8390   33.8990   41.3650 N   0  0  0  0  0  0  0  0  0  0  0  0
   47.3140   34.4280   42.5240 C   0  0  0  0  0  0  0  0  0  0  0  0
   48.3550   35.2670   42.5100 N   0  0  0  0  0  0  0  0  0  0  0  0
   49.7640   36.2530   41.3120 H   0  0  0  0  0  0  0  0  0  0  0  0
   48.8830   35.2700   39.1660 H   0  0  0  0  0  0  0  0  0  0  0  0
   45.5400   32.9620   39.1450 C   0  0  0  0  0  3  0  0  0  0  0  0
   46.7690   33.5400   38.9770 C   0  0  0  0  0  0  0  0  0  0  0  0
   47.3940   33.5180   37.7500 C   0  0  0  0  0  0  0  0  0  0  0  0
   48.3520   33.9650   37.6090 H   0  0  0  0  0  0  0  0  0  0  0  0
   46.8100   32.9180   36.6540 C   0  0  0  0  0  0  0  0  0  0  0  0
   47.1850   32.7540   35.3720 N   0  0  0  0  0  0  0  0  0  0  0  0
   48.1080   33.1200   35.0010 H   0  0  0  0  0  0  0  0  0  0  0  0
   46.2310   32.0940   34.7370 N   0  0  0  0  0  0  0  0  0  0  0  0
   45.2210   31.8130   35.5770 C   0  0  0  0  0  0  0  0  0  0  0  0
   44.3180   31.2880   35.3400 H   0  0  0  0  0  0  0  0  0  0  0  0
   45.5570   32.3300   36.8300 C   0  0  0  0  0  0  0  0  0  0  0  0
   44.9050   32.3410   38.0640 C   0  0  0  0  0  3  0  0  0  0  0  0
  1  2  1  0  0  0  0
  2  8  1  0  0  0  0
  3  2  2  0  0  0  0
  3  4  1  0  0  0  0
  4  5  2  0  0  0  0
  5  6  1  0  0  0  0
  5 11  1  0  0  0  0
  6  7  1  0  0  0  0
  8 10  1  0  0  0  0
  8  6  2  0  0  0  0
  9  4  1  0  0  0  0
 11 20  1  0  0  0  0
 12 11  2  0  0  0  0
 12 13  1  0  0  0  0
 13 14  2  0  0  0  0
 14 19  1  0  0  0  0
 14 15  1  0  0  0  0
 15 16  2  0  0  0  0
 16 23  1  0  0  0  0
 16 17  1  0  0  0  0
 17 24  1  0  0  0  0
 18 25  1  0  0  0  0
 18 17  2  0  0  0  0
 19 18  1  0  0  0  0
 20 26  1  0  0  0  0
 20 19  2  0  0  0  0
 21 12  1  0  0  0  0
 22 13  1  0  0  0  0
 27 32  1  0  0  0  0
 28 29  1  0  0  0  0
 28 27  2  0  0  0  0
 29 30  2  0  0  0  0
 30 31  1  0  0  0  0
 31  3  1  0  0  0  0
 32 31  2  0  0  0  0
 33 27  1  0  0  0  0
 34 28  1  0  0  0  0
 36 35  1  0  0  0  0
 36 29  1  0  0  0  0
 37 36  2  0  0  0  0
 38 37  1  0  0  0  0
 39 45  2  0  0  0  0
 39 37  1  0  0  0  0
 40 39  1  0  0  0  0
 41 40  1  0  0  0  0
 42 40  1  0  0  0  0
 42 43  2  0  0  0  0
 43 45  1  0  0  0  0
 44 43  1  0  0  0  0
 45 46  1  0  0  0  0
 46 35  2  0  0  0  0
M  END
>  <minimizedAffinity>
-7.90474939

>  <minimizedRMSD>
0.579740584

$$$$
