REMARK  Name = 
REMARK  3 active torsions:
REMARK  status: ('A' for Active; 'I' for Inactive)
REMARK    1  A    between atoms: C_3  and  C_23
REMARK    2  A    between atoms: C_5  and  C_9
REMARK    3  A    between atoms: C_21  and  C_36
REMARK                            x       y       z     vdW  Elec       q    Type
REMARK                         _______ _______ _______ _____ _____    ______ ____
ROOT
ATOM      1 CL   UNL     1      44.784  35.980  43.298  0.00  0.00    +0.000 Cl
ATOM      2  C   UNL     1      45.537  34.735  44.248  0.00  0.00    +0.000 A 
ATOM      3  C   UNL     1      46.636  34.050  43.756  0.00  0.00    +0.000 A 
ATOM      4  C   UNL     1      47.153  33.088  44.585  0.00  0.00    +0.000 A 
ATOM      5  C   UNL     1      46.663  32.769  45.837  0.00  0.00    +0.000 A 
ATOM      6  C   UNL     1      45.572  33.469  46.292  0.00  0.00    +0.000 A 
ATOM      7 CL   UNL     1      44.978  33.038  47.885  0.00  0.00    +0.000 Cl
ATOM      8  C   UNL     1      45.016  34.441  45.504  0.00  0.00    +0.000 A 
ATOM      9  H   UNL     1      48.022  32.550  44.190  0.00  0.00    +0.000 HD
ATOM     10  H   UNL     1      44.166  34.963  45.898  0.00  0.00    +0.000 HD
ENDROOT
BRANCH   5  11
ATOM     11  C   UNL     1      47.356  31.708  46.568  0.00  0.00    +0.000 A 
ATOM     12  C   UNL     1      47.465  30.417  46.093  0.00  0.00    +0.000 A 
ATOM     13  C   UNL     1      48.117  29.396  46.768  0.00  0.00    +0.000 A 
ATOM     14  C   UNL     1      48.696  29.679  47.992  0.00  0.00    +0.000 A 
ATOM     15  N   UNL     1      49.319  28.663  48.617  0.00  0.00    +0.000 NA
ATOM     16  C   UNL     1      49.918  28.844  49.825  0.00  0.00    +0.000 A 
ATOM     17  C   UNL     1      49.849  30.115  50.364  0.00  0.00    +0.000 A 
ATOM     18  C   UNL     1      49.211  31.131  49.712  0.00  0.00    +0.000 A 
ATOM     19  C   UNL     1      48.610  30.942  48.496  0.00  0.00    +0.000 A 
ATOM     20  C   UNL     1      47.955  31.941  47.802  0.00  0.00    +0.000 A 
ATOM     21  H   UNL     1      46.996  30.241  45.128  0.00  0.00    +0.000 HD
ATOM     22  H   UNL     1      48.142  28.417  46.301  0.00  0.00    +0.000 HD
ATOM     23  H   UNL     1      50.408  27.980  50.282  0.00  0.00    +0.000 HD
ATOM     24  H   UNL     1      50.328  30.250  51.324  0.00  0.00    +0.000 HD
ATOM     25  H   UNL     1      49.185  32.115  50.179  0.00  0.00    +0.000 HD
ATOM     26  H   UNL     1      47.920  32.925  48.254  0.00  0.00    +0.000 HD
ENDBRANCH   5  11
BRANCH   3  31
ATOM     27  C   UNL     1      48.773  35.442  41.162  0.00  0.00    +0.000 A 
ATOM     28  C   UNL     1      48.275  34.862  39.988  0.00  0.00    +0.000 A 
ATOM     29  C   UNL     1      47.184  33.975  40.091  0.00  0.00    +0.000 A 
ATOM     30  N   UNL     1      46.701  33.754  41.327  0.00  0.00    +0.000 NA
ATOM     31  C   UNL     1      47.204  34.332  42.450  0.00  0.00    +0.000 A 
ATOM     32  N   UNL     1      48.239  35.176  42.373  0.00  0.00    +0.000 NA
ATOM     33  H   UNL     1      49.606  36.121  41.097  0.00  0.00    +0.000 HD
ATOM     34  H   UNL     1      48.672  35.049  39.018  0.00  0.00    +0.000 HD
BRANCH  29  36
ATOM     35  C   UNL     1      45.340  32.733  39.179  0.00  0.00    +0.000 A 
ATOM     36  C   UNL     1      46.566  33.300  38.958  0.00  0.00    +0.000 A 
ATOM     37  C   UNL     1      47.162  33.223  37.718  0.00  0.00    +0.000 A 
ATOM     38  H   UNL     1      48.117  33.662  37.535  0.00  0.00    +0.000 HD
ATOM     39  C   UNL     1      46.552  32.578  36.663  0.00  0.00    +0.000 A 
ATOM     40  N   UNL     1      46.896  32.356  35.382  0.00  0.00    +0.000 N 
ATOM     41  H   UNL     1      47.811  32.704  34.974  0.00  0.00    +0.000 HD
ATOM     42  N   UNL     1      45.928  31.672  34.799  0.00  0.00    +0.000 NA
ATOM     43  C   UNL     1      44.936  31.430  35.673  0.00  0.00    +0.000 A 
ATOM     44  H   UNL     1      44.027  30.899  35.481  0.00  0.00    +0.000 HD
ATOM     45  C   UNL     1      45.303  32.001  36.894  0.00  0.00    +0.000 A 
ATOM     46  C   UNL     1      44.679  32.067  38.142  0.00  0.00    +0.000 A 
ENDBRANCH  29  36
ENDBRANCH   3  31
TORSDOF 3
