
 OpenBabel03252506043D

 46 51  0  0  0  0  0  0  0  0999 V2000
   44.8170   36.0060   43.3430 Cl  0  0  0  0  0  0  0  0  0  0  0  0
   45.5650   34.7520   44.2850 C   0  0  0  0  0  0  0  0  0  0  0  0
   46.6870   34.0950   43.8070 C   0  0  0  0  0  0  0  0  0  0  0  0
   47.1980   33.1230   44.6290 C   0  0  0  0  0  0  0  0  0  0  0  0
   46.6810   32.7690   45.8600 C   0  0  0  0  0  0  0  0  0  0  0  0
   45.5670   33.4420   46.3010 C   0  0  0  0  0  0  0  0  0  0  0  0
   44.9390   32.9660   47.8680 Cl  0  0  0  0  0  0  0  0  0  0  0  0
   45.0160   34.4220   45.5200 C   0  0  0  0  0  0  0  0  0  0  0  0
   48.0860   32.6080   44.2450 H   0  0  0  0  0  0  0  0  0  0  0  0
   44.1480   34.9220   45.9030 H   0  0  0  0  0  0  0  0  0  0  0  0
   47.3720   31.7030   46.5860 C   0  0  0  0  0  0  0  0  0  0  0  0
   47.4830   30.4160   46.1020 C   0  0  0  0  0  0  0  0  0  0  0  0
   48.1330   29.3900   46.7720 C   0  0  0  0  0  0  0  0  0  0  0  0
   48.7080   29.6650   48.0000 C   0  0  0  0  0  0  0  0  0  0  0  0
   49.3290   28.6450   48.6200 N   0  0  0  0  0  0  0  0  0  0  0  0
   49.9240   28.8170   49.8310 C   0  0  0  0  0  0  0  0  0  0  0  0
   49.8530   30.0850   50.3790 C   0  0  0  0  0  0  0  0  0  0  0  0
   49.2170   31.1050   49.7320 C   0  0  0  0  0  0  0  0  0  0  0  0
   48.6200   30.9240   48.5130 C   0  0  0  0  0  0  0  0  0  0  0  0
   47.9670   31.9280   47.8230 C   0  0  0  0  0  0  0  0  0  0  0  0
   47.0170   30.2460   45.1340 H   0  0  0  0  0  0  0  0  0  0  0  0
   48.1600   28.4140   46.2980 H   0  0  0  0  0  0  0  0  0  0  0  0
   50.4130   27.9500   50.2840 H   0  0  0  0  0  0  0  0  0  0  0  0
   50.3290   30.2130   51.3410 H   0  0  0  0  0  0  0  0  0  0  0  0
   49.1890   32.0860   50.2060 H   0  0  0  0  0  0  0  0  0  0  0  0
   47.9300   32.9090   48.2820 H   0  0  0  0  0  0  0  0  0  0  0  0
   48.8800   35.5640   41.3030 C   0  0  0  0  0  0  0  0  0  0  0  0
   48.4100   35.0160   40.1020 C   0  0  0  0  0  0  0  0  0  0  0  0
   47.3200   34.1240   40.1550 C   0  0  0  0  0  0  0  0  0  0  0  0
   46.8090   33.8680   41.3730 N   0  0  0  0  0  0  0  0  0  0  0  0
   47.2840   34.4150   42.5230 C   0  0  0  0  0  0  0  0  0  0  0  0
   48.3190   35.2630   42.4940 N   0  0  0  0  0  0  0  0  0  0  0  0
   49.7120   36.2460   41.2770 H   0  0  0  0  0  0  0  0  0  0  0  0
   48.8290   35.2310   39.1470 H   0  0  0  0  0  0  0  0  0  0  0  0
   47.4670   33.5090   37.8370 C   0  0  0  0  0  3  0  0  0  0  0  0
   46.7300   33.4800   38.9900 C   0  0  0  0  0  0  0  0  0  0  0  0
   45.4950   32.8690   39.0190 C   0  0  0  0  0  0  0  0  0  0  0  0
   44.9130   32.8420   39.9130 H   0  0  0  0  0  0  0  0  0  0  0  0
   44.9620   32.2680   37.8990 C   0  0  0  0  0  0  0  0  0  0  0  0
   43.8120   31.6160   37.6500 N   0  0  0  0  0  0  0  0  0  0  0  0
   43.0730   31.4660   38.3960 H   0  0  0  0  0  0  0  0  0  0  0  0
   43.8080   31.2370   36.3840 N   0  0  0  0  0  0  0  0  0  0  0  0
   44.9430   31.6270   35.7780 C   0  0  0  0  0  0  0  0  0  0  0  0
   45.2150   31.4600   34.7560 H   0  0  0  0  0  0  0  0  0  0  0  0
   45.7170   32.2990   36.7260 C   0  0  0  0  0  0  0  0  0  0  0  0
   46.9700   32.9130   36.6730 C   0  0  0  0  0  3  0  0  0  0  0  0
  1  2  1  0  0  0  0
  2  8  1  0  0  0  0
  3  2  2  0  0  0  0
  3  4  1  0  0  0  0
  4  5  2  0  0  0  0
  5  6  1  0  0  0  0
  5 11  1  0  0  0  0
  6  7  1  0  0  0  0
  8 10  1  0  0  0  0
  8  6  2  0  0  0  0
  9  4  1  0  0  0  0
 11 20  1  0  0  0  0
 12 11  2  0  0  0  0
 12 13  1  0  0  0  0
 13 14  2  0  0  0  0
 14 19  1  0  0  0  0
 14 15  1  0  0  0  0
 15 16  2  0  0  0  0
 16 23  1  0  0  0  0
 16 17  1  0  0  0  0
 17 24  1  0  0  0  0
 18 25  1  0  0  0  0
 18 17  2  0  0  0  0
 19 18  1  0  0  0  0
 20 26  1  0  0  0  0
 20 19  2  0  0  0  0
 21 12  1  0  0  0  0
 22 13  1  0  0  0  0
 27 32  1  0  0  0  0
 28 29  1  0  0  0  0
 28 27  2  0  0  0  0
 29 30  2  0  0  0  0
 30 31  1  0  0  0  0
 31  3  1  0  0  0  0
 32 31  2  0  0  0  0
 33 27  1  0  0  0  0
 34 28  1  0  0  0  0
 35 36  1  0  0  0  0
 36 37  2  0  0  0  0
 36 29  1  0  0  0  0
 37 38  1  0  0  0  0
 39 37  1  0  0  0  0
 40 39  1  0  0  0  0
 40 41  1  0  0  0  0
 42 40  1  0  0  0  0
 43 42  2  0  0  0  0
 43 45  1  0  0  0  0
 44 43  1  0  0  0  0
 45 39  2  0  0  0  0
 46 45  1  0  0  0  0
 46 35  2  0  0  0  0
M  END
>  <minimizedAffinity>
-7.58625221

>  <minimizedRMSD>
0.376239687

$$$$
