
 OpenBabel03242520083D

 52 57  0  0  1  0  0  0  0  0999 V2000
   38.8860   26.0130   41.1000 N   0  0  0  0  0  0  0  0  0  0  0  0
   38.9660   25.0740   40.0520 C   0  0  1  0  0  0  0  0  0  0  0  0
   38.8580   23.6930   40.6330 C   0  0  0  0  0  0  0  0  0  0  0  0
   37.5190   23.6210   41.1470 N   0  0  0  0  0  0  0  0  0  0  0  0
   37.3330   24.4910   42.2870 C   0  0  0  0  0  0  0  0  0  0  0  0
   37.9680   25.8360   42.1580 C   0  0  2  0  0  0  0  0  0  0  0  0
   39.8620   26.2980   41.3800 H   0  0  0  0  0  0  0  0  0  0  0  0
   39.9250   25.1420   39.5440 H   0  0  0  0  0  0  0  0  0  0  0  0
   38.9500   22.9610   39.8100 H   0  0  0  0  0  0  0  0  0  0  0  0
   39.6280   23.4940   41.4180 H   0  0  0  0  0  0  0  0  0  0  0  0
   37.2180   22.6790   41.4190 H   0  0  0  0  0  0  0  0  0  0  0  0
   36.2120   24.5360   42.4160 H   0  0  0  0  0  0  0  0  0  0  0  0
   37.6660   23.8930   43.1640 H   0  0  0  0  0  0  0  0  0  0  0  0
   38.5830   25.9520   43.0980 H   0  0  0  0  0  0  0  0  0  0  0  0
   36.2430   26.1220   38.0710 C   0  0  0  0  0  0  0  0  0  0  0  0
   36.6080   24.9850   37.3720 C   0  0  0  0  0  0  0  0  0  0  0  0
   37.6720   24.4370   38.0110 C   0  0  0  0  0  0  0  0  0  0  0  0
   37.9380   25.2310   39.0710 N   0  0  0  0  0  0  0  0  0  0  0  0
   37.0730   26.2310   39.0880 N   0  0  0  0  0  0  0  0  0  0  0  0
   36.1230   24.6050   36.4720 H   0  0  0  0  0  0  0  0  0  0  0  0
   38.2460   23.5440   37.7790 H   0  0  0  0  0  0  0  0  0  0  0  0
   33.9000   28.9560   38.0950 C   0  0  0  0  0  0  0  0  0  0  0  0
   33.0450   28.6690   37.0280 C   0  0  0  0  0  0  0  0  0  0  0  0
   33.2860   27.5060   36.3160 C   0  0  0  0  0  0  0  0  0  0  0  0
   34.3280   26.7250   36.6950 N   0  0  0  0  0  0  0  0  0  0  0  0
   35.1310   27.0370   37.7320 C   0  0  0  0  0  0  0  0  0  0  0  0
   34.9280   28.1580   38.4470 N   0  0  0  0  0  0  0  0  0  0  0  0
   33.6690   29.8830   38.6250 H   0  0  0  0  0  0  0  0  0  0  0  0
   32.2220   29.3310   36.7660 H   0  0  0  0  0  0  0  0  0  0  0  0
   32.6590   27.2210   35.4730 H   0  0  0  0  0  0  0  0  0  0  0  0
   36.8540   26.8560   42.1640 C   0  0  1  0  0  0  0  0  0  0  0  0
   36.4480   27.3750   43.5440 C   0  0  0  0  0  0  0  0  0  0  0  0
   37.0750   28.2610   42.5410 C   0  0  1  0  0  0  0  0  0  0  0  0
   35.9380   26.6640   41.5300 H   0  0  0  0  0  0  0  0  0  0  0  0
   37.1080   27.0720   44.4100 H   0  0  0  0  0  0  0  0  0  0  0  0
   35.4010   27.4510   43.8270 H   0  0  0  0  0  0  0  0  0  0  0  0
   36.4010   29.0300   42.1350 H   0  0  0  0  0  0  0  0  0  0  0  0
   38.5050   28.7810   42.7430 C   0  0  0  0  0  0  0  0  0  0  0  0
   39.2290   28.1090   42.2660 H   0  0  0  0  0  0  0  0  0  0  0  0
   38.6830   28.9700   43.8210 H   0  0  0  0  0  0  0  0  0  0  0  0
   39.8560   30.7840   42.0340 C   0  0  0  0  0  3  0  0  0  0  0  0
   38.6710   30.1020   42.0650 C   0  0  0  0  0  0  0  0  0  0  0  0
   37.5740   30.6880   41.4220 C   0  0  0  0  0  0  0  0  0  0  0  0
   36.6150   30.1610   41.4330 H   0  0  0  0  0  0  0  0  0  0  0  0
   37.7010   31.9060   40.7890 C   0  0  0  0  0  0  0  0  0  0  0  0
   36.8010   32.6550   40.1140 N   0  0  0  0  0  0  0  0  0  0  0  0
   35.8030   32.3710   39.9810 H   0  0  0  0  0  0  0  0  0  0  0  0
   37.4230   33.7450   39.6960 N   0  0  0  0  0  0  0  0  0  0  0  0
   38.7180   33.7290   40.0810 C   0  0  0  0  0  0  0  0  0  0  0  0
   39.4370   34.4930   39.8700 H   0  0  0  0  0  0  0  0  0  0  0  0
   38.9150   32.5620   40.7820 C   0  0  0  0  0  0  0  0  0  0  0  0
   40.0340   32.0070   41.4120 C   0  0  0  0  0  3  0  0  0  0  0  0
  1  7  1  0  0  0  0
  1  6  1  0  0  0  0
  2  8  1  6  0  0  0
  2  3  1  0  0  0  0
  2  1  1  0  0  0  0
  3  4  1  0  0  0  0
  3 10  1  0  0  0  0
  4 11  1  0  0  0  0
  4  5  1  0  0  0  0
  5 12  1  0  0  0  0
  5 13  1  0  0  0  0
  6 31  1  0  0  0  0
  6  5  1  0  0  0  0
  6 14  1  1  0  0  0
  9  3  1  0  0  0  0
 15 19  2  0  0  0  0
 16 17  2  0  0  0  0
 16 15  1  0  0  0  0
 17 18  1  0  0  0  0
 18 19  1  0  0  0  0
 18  2  1  0  0  0  0
 20 16  1  0  0  0  0
 21 17  1  0  0  0  0
 22 27  1  0  0  0  0
 22 28  1  0  0  0  0
 23 22  2  0  0  0  0
 24 25  2  0  0  0  0
 24 23  1  0  0  0  0
 25 26  1  0  0  0  0
 26 15  1  0  0  0  0
 26 27  2  0  0  0  0
 29 23  1  0  0  0  0
 30 24  1  0  0  0  0
 31 34  1  6  0  0  0
 31 33  1  0  0  0  0
 31 32  1  0  0  0  0
 32 36  1  0  0  0  0
 32 35  1  0  0  0  0
 33 37  1  6  0  0  0
 33 38  1  0  0  0  0
 33 32  1  0  0  0  0
 38 40  1  0  0  0  0
 39 38  1  0  0  0  0
 41 42  1  0  0  0  0
 42 38  1  0  0  0  0
 43 44  1  0  0  0  0
 43 42  2  0  0  0  0
 45 43  1  0  0  0  0
 46 45  1  0  0  0  0
 47 46  1  0  0  0  0
 48 49  2  0  0  0  0
 48 46  1  0  0  0  0
 49 51  1  0  0  0  0
 50 49  1  0  0  0  0
 51 45  2  0  0  0  0
 51 52  1  0  0  0  0
 52 41  2  0  0  0  0
M  END
>  <minimizedAffinity>
-6.48287868

$$$$

 OpenBabel03242520083D

 52 57  0  0  1  0  0  0  0  0999 V2000
   35.2350   29.9680   40.2960 N   0  0  0  0  0  0  0  0  0  0  0  0
   36.2080   30.4760   41.1810 C   0  0  1  0  0  0  0  0  0  0  0  0
   36.9450   29.3230   41.8010 C   0  0  0  0  0  0  0  0  0  0  0  0
   37.6570   28.7210   40.7100 N   0  0  0  0  0  0  0  0  0  0  0  0
   36.7620   28.0900   39.7660 C   0  0  0  0  0  0  0  0  0  0  0  0
   35.5270   28.8710   39.4570 C   0  0  2  0  0  0  0  0  0  0  0  0
   34.3060   29.9330   40.7940 H   0  0  0  0  0  0  0  0  0  0  0  0
   35.7430   31.0400   41.9860 H   0  0  0  0  0  0  0  0  0  0  0  0
   37.6860   29.7280   42.5140 H   0  0  0  0  0  0  0  0  0  0  0  0
   36.2630   28.6030   42.3160 H   0  0  0  0  0  0  0  0  0  0  0  0
   38.3570   28.0250   40.9910 H   0  0  0  0  0  0  0  0  0  0  0  0
   37.4090   27.9000   38.8590 H   0  0  0  0  0  0  0  0  0  0  0  0
   36.5870   27.0690   40.1710 H   0  0  0  0  0  0  0  0  0  0  0  0
   34.6810   28.1430   39.6260 H   0  0  0  0  0  0  0  0  0  0  0  0
   39.0490   32.3280   40.2120 C   0  0  0  0  0  0  0  0  0  0  0  0
   38.1730   32.7160   39.2140 C   0  0  0  0  0  0  0  0  0  0  0  0
   36.9950   32.0820   39.4340 C   0  0  0  0  0  0  0  0  0  0  0  0
   37.1620   31.3290   40.5430 N   0  0  0  0  0  0  0  0  0  0  0  0
   38.3960   31.4900   40.9910 N   0  0  0  0  0  0  0  0  0  0  0  0
   38.3980   33.4080   38.4000 H   0  0  0  0  0  0  0  0  0  0  0  0
   36.0620   32.1210   38.8780 H   0  0  0  0  0  0  0  0  0  0  0  0
   42.4950   32.7050   41.4380 C   0  0  0  0  0  0  0  0  0  0  0  0
   43.0360   33.6600   40.5730 C   0  0  0  0  0  0  0  0  0  0  0  0
   42.2090   34.1610   39.5810 C   0  0  0  0  0  0  0  0  0  0  0  0
   40.9360   33.6960   39.5110 N   0  0  0  0  0  0  0  0  0  0  0  0
   40.4510   32.7740   40.3660 C   0  0  0  0  0  0  0  0  0  0  0  0
   41.2250   32.2650   41.3420 N   0  0  0  0  0  0  0  0  0  0  0  0
   43.1860   32.3420   42.2020 H   0  0  0  0  0  0  0  0  0  0  0  0
   44.0650   33.9990   40.6730 H   0  0  0  0  0  0  0  0  0  0  0  0
   42.5650   34.9070   38.8730 H   0  0  0  0  0  0  0  0  0  0  0  0
   35.5860   29.2340   37.9920 C   0  0  1  0  0  0  0  0  0  0  0  0
   35.5510   28.0520   37.0220 C   0  0  0  0  0  0  0  0  0  0  0  0
   34.4460   29.0320   37.0850 C   0  0  1  0  0  0  0  0  0  0  0  0
   36.3440   30.0010   37.6520 H   0  0  0  0  0  0  0  0  0  0  0  0
   35.3330   27.0380   37.4700 H   0  0  0  0  0  0  0  0  0  0  0  0
   36.2430   27.9950   36.1850 H   0  0  0  0  0  0  0  0  0  0  0  0
   34.3580   29.6700   36.1930 H   0  0  0  0  0  0  0  0  0  0  0  0
   33.0780   28.6300   37.6550 C   0  0  0  0  0  0  0  0  0  0  0  0
   33.0950   28.6640   38.7510 H   0  0  0  0  0  0  0  0  0  0  0  0
   32.7650   27.6580   37.2220 H   0  0  0  0  0  0  0  0  0  0  0  0
   31.0760   30.0970   38.0810 C   0  0  0  0  0  3  0  0  0  0  0  0
   32.0370   29.6170   37.2350 C   0  0  0  0  0  0  0  0  0  0  0  0
   32.0280   30.0870   35.9160 C   0  0  0  0  0  0  0  0  0  0  0  0
   32.7880   29.7180   35.2200 H   0  0  0  0  0  0  0  0  0  0  0  0
   31.0780   30.9980   35.5030 C   0  0  0  0  0  0  0  0  0  0  0  0
   30.8720   31.5850   34.3040 N   0  0  0  0  0  0  0  0  0  0  0  0
   31.4680   31.3990   33.4640 H   0  0  0  0  0  0  0  0  0  0  0  0
   29.8260   32.3860   34.4260 N   0  0  0  0  0  0  0  0  0  0  0  0
   29.3390   32.3380   35.6850 C   0  0  0  0  0  0  0  0  0  0  0  0
   28.4960   32.8920   36.0450 H   0  0  0  0  0  0  0  0  0  0  0  0
   30.1250   31.4560   36.3900 C   0  0  0  0  0  0  0  0  0  0  0  0
   30.1030   31.0100   37.7150 C   0  0  0  0  0  3  0  0  0  0  0  0
  1  7  1  0  0  0  0
  1  2  1  0  0  0  0
  2  3  1  0  0  0  0
  2  8  1  1  0  0  0
  3 10  1  0  0  0  0
  3  9  1  0  0  0  0
  4 11  1  0  0  0  0
  4  3  1  0  0  0  0
  5 13  1  0  0  0  0
  5  4  1  0  0  0  0
  6 14  1  1  0  0  0
  6  5  1  0  0  0  0
  6  1  1  0  0  0  0
 12  5  1  0  0  0  0
 15 26  1  0  0  0  0
 15 19  2  0  0  0  0
 16 17  2  0  0  0  0
 16 15  1  0  0  0  0
 17 18  1  0  0  0  0
 18 19  1  0  0  0  0
 18  2  1  0  0  0  0
 20 16  1  0  0  0  0
 21 17  1  0  0  0  0
 22 28  1  0  0  0  0
 23 29  1  0  0  0  0
 23 22  2  0  0  0  0
 24 23  1  0  0  0  0
 25 24  2  0  0  0  0
 25 26  1  0  0  0  0
 26 27  2  0  0  0  0
 27 22  1  0  0  0  0
 30 24  1  0  0  0  0
 31 34  1  6  0  0  0
 31  6  1  0  0  0  0
 32 33  1  0  0  0  0
 32 35  1  0  0  0  0
 32 31  1  0  0  0  0
 33 37  1  6  0  0  0
 33 38  1  0  0  0  0
 33 31  1  0  0  0  0
 36 32  1  0  0  0  0
 38 39  1  0  0  0  0
 40 38  1  0  0  0  0
 42 38  1  0  0  0  0
 42 41  2  0  0  0  0
 43 42  1  0  0  0  0
 44 43  1  0  0  0  0
 45 43  2  0  0  0  0
 45 51  1  0  0  0  0
 46 48  1  0  0  0  0
 46 45  1  0  0  0  0
 47 46  1  0  0  0  0
 48 49  2  0  0  0  0
 49 50  1  0  0  0  0
 49 51  1  0  0  0  0
 51 52  2  0  0  0  0
 52 41  1  0  0  0  0
M  END
>  <minimizedAffinity>
-6.45825338

$$$$

 OpenBabel03242520083D

 52 57  0  0  1  0  0  0  0  0999 V2000
   38.1800   31.8360   41.2640 N   0  0  0  0  0  0  0  0  0  0  0  0
   37.1680   31.8390   40.2820 C   0  0  1  0  0  0  0  0  0  0  0  0
   37.3070   33.0830   39.4520 C   0  0  0  0  0  0  0  0  0  0  0  0
   38.5520   32.9180   38.7580 N   0  0  0  0  0  0  0  0  0  0  0  0
   39.6820   32.9760   39.6570 C   0  0  0  0  0  0  0  0  0  0  0  0
   39.4920   32.2500   40.9480 C   0  0  2  0  0  0  0  0  0  0  0  0
   37.7820   32.2110   42.1650 H   0  0  0  0  0  0  0  0  0  0  0  0
   36.1830   31.8580   40.7410 H   0  0  0  0  0  0  0  0  0  0  0  0
   36.4940   33.0930   38.7030 H   0  0  0  0  0  0  0  0  0  0  0  0
   37.2800   34.0160   40.0660 H   0  0  0  0  0  0  0  0  0  0  0  0
   38.7140   33.5980   38.0070 H   0  0  0  0  0  0  0  0  0  0  0  0
   40.5420   32.5780   39.0430 H   0  0  0  0  0  0  0  0  0  0  0  0
   39.9190   34.0590   39.7550 H   0  0  0  0  0  0  0  0  0  0  0  0
   39.7560   33.0080   41.7430 H   0  0  0  0  0  0  0  0  0  0  0  0
   36.9280   29.5510   37.6080 C   0  0  0  0  0  0  0  0  0  0  0  0
   37.5650   28.7490   38.5370 C   0  0  0  0  0  0  0  0  0  0  0  0
   37.7440   29.4870   39.6610 C   0  0  0  0  0  0  0  0  0  0  0  0
   37.2230   30.7080   39.4090 N   0  0  0  0  0  0  0  0  0  0  0  0
   36.7410   30.7240   38.1780 N   0  0  0  0  0  0  0  0  0  0  0  0
   37.8670   27.7110   38.3850 H   0  0  0  0  0  0  0  0  0  0  0  0
   38.2030   29.2220   40.6100 H   0  0  0  0  0  0  0  0  0  0  0  0
   36.1660   29.6530   34.0120 C   0  0  0  0  0  0  0  0  0  0  0  0
   35.7900   28.3360   33.7310 C   0  0  0  0  0  0  0  0  0  0  0  0
   35.8030   27.4330   34.7820 C   0  0  0  0  0  0  0  0  0  0  0  0
   36.1780   27.8790   36.0070 N   0  0  0  0  0  0  0  0  0  0  0  0
   36.5340   29.1580   36.2370 C   0  0  0  0  0  0  0  0  0  0  0  0
   36.5330   30.0640   35.2420 N   0  0  0  0  0  0  0  0  0  0  0  0
   36.1390   30.3250   33.1520 H   0  0  0  0  0  0  0  0  0  0  0  0
   35.4970   28.0310   32.7290 H   0  0  0  0  0  0  0  0  0  0  0  0
   35.5220   26.3920   34.6340 H   0  0  0  0  0  0  0  0  0  0  0  0
   40.5010   31.1260   40.9790 C   0  0  1  0  0  0  0  0  0  0  0  0
   41.5090   31.1820   42.1280 C   0  0  0  0  0  0  0  0  0  0  0  0
   40.5050   30.1010   42.0340 C   0  0  1  0  0  0  0  0  0  0  0  0
   41.0150   30.8310   40.0160 H   0  0  0  0  0  0  0  0  0  0  0  0
   41.3200   31.9570   42.9270 H   0  0  0  0  0  0  0  0  0  0  0  0
   42.5690   31.0200   41.9490 H   0  0  0  0  0  0  0  0  0  0  0  0
   40.9280   29.1110   41.8090 H   0  0  0  0  0  0  0  0  0  0  0  0
   39.3410   30.0280   43.0320 C   0  0  0  0  0  0  0  0  0  0  0  0
   38.5970   30.8030   42.8120 H   0  0  0  0  0  0  0  0  0  0  0  0
   39.7380   30.0420   44.0680 H   0  0  0  0  0  0  0  0  0  0  0  0
   37.3260   28.5380   43.2820 C   0  0  0  0  0  3  0  0  0  0  0  0
   38.6230   28.7250   42.8890 C   0  0  0  0  0  0  0  0  0  0  0  0
   39.2910   27.6300   42.3270 C   0  0  0  0  0  0  0  0  0  0  0  0
   40.3290   27.7560   42.0050 H   0  0  0  0  0  0  0  0  0  0  0  0
   38.6500   26.4170   42.1830 C   0  0  0  0  0  0  0  0  0  0  0  0
   39.0800   25.2400   41.6790 N   0  0  0  0  0  0  0  0  0  0  0  0
   40.0450   25.0950   41.3010 H   0  0  0  0  0  0  0  0  0  0  0  0
   38.0800   24.3790   41.7670 N   0  0  0  0  0  0  0  0  0  0  0  0
   36.9960   24.9670   42.3200 C   0  0  0  0  0  0  0  0  0  0  0  0
   36.0560   24.4890   42.5020 H   0  0  0  0  0  0  0  0  0  0  0  0
   37.3410   26.2700   42.5930 C   0  0  0  0  0  0  0  0  0  0  0  0
   36.6410   27.3420   43.1590 C   0  0  0  0  0  3  0  0  0  0  0  0
  1  7  1  0  0  0  0
  2  8  1  1  0  0  0
  2  1  1  0  0  0  0
  3 10  1  0  0  0  0
  3  2  1  0  0  0  0
  4  3  1  0  0  0  0
  4  5  1  0  0  0  0
  5 13  1  0  0  0  0
  5  6  1  0  0  0  0
  6 31  1  0  0  0  0
  6  1  1  0  0  0  0
  6 14  1  1  0  0  0
  9  3  1  0  0  0  0
 11  4  1  0  0  0  0
 12  5  1  0  0  0  0
 15 19  2  0  0  0  0
 15 16  1  0  0  0  0
 16 17  2  0  0  0  0
 17 21  1  0  0  0  0
 18 17  1  0  0  0  0
 18  2  1  0  0  0  0
 19 18  1  0  0  0  0
 20 16  1  0  0  0  0
 22 27  1  0  0  0  0
 23 22  2  0  0  0  0
 23 24  1  0  0  0  0
 24 25  2  0  0  0  0
 25 26  1  0  0  0  0
 26 15  1  0  0  0  0
 27 26  2  0  0  0  0
 28 22  1  0  0  0  0
 29 23  1  0  0  0  0
 30 24  1  0  0  0  0
 31 34  1  6  0  0  0
 31 33  1  0  0  0  0
 31 32  1  0  0  0  0
 32 35  1  0  0  0  0
 33 37  1  6  0  0  0
 33 32  1  0  0  0  0
 33 38  1  0  0  0  0
 36 32  1  0  0  0  0
 38 40  1  0  0  0  0
 39 38  1  0  0  0  0
 42 38  1  0  0  0  0
 42 41  2  0  0  0  0
 43 42  1  0  0  0  0
 44 43  1  0  0  0  0
 45 43  2  0  0  0  0
 45 51  1  0  0  0  0
 46 48  1  0  0  0  0
 46 45  1  0  0  0  0
 47 46  1  0  0  0  0
 48 49  2  0  0  0  0
 49 50  1  0  0  0  0
 49 51  1  0  0  0  0
 51 52  2  0  0  0  0
 52 41  1  0  0  0  0
M  END
>  <minimizedAffinity>
-6.3023901

$$$$

 OpenBabel03242520083D

 52 57  0  0  1  0  0  0  0  0999 V2000
   38.2200   29.9520   39.6440 N   0  0  0  0  0  0  0  0  0  0  0  0
   38.5240   31.1450   38.9570 C   0  0  1  0  0  0  0  0  0  0  0  0
   37.2510   31.9150   38.7440 C   0  0  0  0  0  0  0  0  0  0  0  0
   36.8340   32.2960   40.0640 N   0  0  0  0  0  0  0  0  0  0  0  0
   36.4190   31.1540   40.8480 C   0  0  0  0  0  0  0  0  0  0  0  0
   37.2860   29.9470   40.7020 C   0  0  2  0  0  0  0  0  0  0  0  0
   38.1280   29.1690   38.9440 H   0  0  0  0  0  0  0  0  0  0  0  0
   38.9460   30.9320   37.9780 H   0  0  0  0  0  0  0  0  0  0  0  0
   37.4920   32.8350   38.1810 H   0  0  0  0  0  0  0  0  0  0  0  0
   36.4730   31.3220   38.2050 H   0  0  0  0  0  0  0  0  0  0  0  0
   36.0740   32.9850   40.0880 H   0  0  0  0  0  0  0  0  0  0  0  0
   36.3760   31.5480   41.9050 H   0  0  0  0  0  0  0  0  0  0  0  0
   35.3480   31.0000   40.5900 H   0  0  0  0  0  0  0  0  0  0  0  0
   36.5700   29.1100   40.4530 H   0  0  0  0  0  0  0  0  0  0  0  0
   41.0820   32.5050   40.9680 C   0  0  0  0  0  0  0  0  0  0  0  0
   40.5460   33.6750   40.4590 C   0  0  0  0  0  0  0  0  0  0  0  0
   39.5210   33.3320   39.6410 C   0  0  0  0  0  0  0  0  0  0  0  0
   39.4440   31.9840   39.6590 N   0  0  0  0  0  0  0  0  0  0  0  0
   40.3860   31.5100   40.4570 N   0  0  0  0  0  0  0  0  0  0  0  0
   40.8930   34.6860   40.6820 H   0  0  0  0  0  0  0  0  0  0  0  0
   38.8510   33.9580   39.0560 H   0  0  0  0  0  0  0  0  0  0  0  0
   44.2160   33.1810   42.7690 C   0  0  0  0  0  0  0  0  0  0  0  0
   44.2920   32.1230   43.6800 C   0  0  0  0  0  0  0  0  0  0  0  0
   43.2660   31.1930   43.6610 C   0  0  0  0  0  0  0  0  0  0  0  0
   42.2590   31.3660   42.7680 N   0  0  0  0  0  0  0  0  0  0  0  0
   42.2220   32.4010   41.9050 C   0  0  0  0  0  0  0  0  0  0  0  0
   43.2010   33.3230   41.8940 N   0  0  0  0  0  0  0  0  0  0  0  0
   45.0480   33.8860   42.8230 H   0  0  0  0  0  0  0  0  0  0  0  0
   45.1230   32.0310   44.3760 H   0  0  0  0  0  0  0  0  0  0  0  0
   43.2610   30.3440   44.3420 H   0  0  0  0  0  0  0  0  0  0  0  0
   37.9100   29.6830   42.0520 C   0  0  1  0  0  0  0  0  0  0  0  0
   37.3650   28.4630   42.7980 C   0  0  0  0  0  0  0  0  0  0  0  0
   38.7600   28.5100   42.3100 C   0  0  1  0  0  0  0  0  0  0  0  0
   38.0520   30.5490   42.7640 H   0  0  0  0  0  0  0  0  0  0  0  0
   36.6670   27.7890   42.2190 H   0  0  0  0  0  0  0  0  0  0  0  0
   37.1060   28.5220   43.8520 H   0  0  0  0  0  0  0  0  0  0  0  0
   39.5150   28.5680   43.1080 H   0  0  0  0  0  0  0  0  0  0  0  0
   39.2090   27.6200   41.1430 C   0  0  0  0  0  0  0  0  0  0  0  0
   40.1940   27.1840   41.3500 H   0  0  0  0  0  0  0  0  0  0  0  0
   39.1410   28.1900   40.1930 H   0  0  0  0  0  0  0  0  0  0  0  0
   38.1060   25.5070   41.9550 C   0  0  0  0  0  3  0  0  0  0  0  0
   38.2770   26.4630   40.9910 C   0  0  0  0  0  0  0  0  0  0  0  0
   37.5290   26.3310   39.8140 C   0  0  0  0  0  0  0  0  0  0  0  0
   37.6470   27.0850   39.0290 H   0  0  0  0  0  0  0  0  0  0  0  0
   36.6610   25.2730   39.6500 C   0  0  0  0  0  0  0  0  0  0  0  0
   35.8500   24.9400   38.6220 N   0  0  0  0  0  0  0  0  0  0  0  0
   35.7770   25.5030   37.7430 H   0  0  0  0  0  0  0  0  0  0  0  0
   35.2180   23.8270   38.9560 N   0  0  0  0  0  0  0  0  0  0  0  0
   35.5970   23.4190   40.1860 C   0  0  0  0  0  0  0  0  0  0  0  0
   35.2350   22.5460   40.6890 H   0  0  0  0  0  0  0  0  0  0  0  0
   36.5200   24.3290   40.6470 C   0  0  0  0  0  0  0  0  0  0  0  0
   37.2490   24.4270   41.8370 C   0  0  0  0  0  3  0  0  0  0  0  0
  1  6  1  0  0  0  0
  2  8  1  6  0  0  0
  2  1  1  0  0  0  0
  2 18  1  0  0  0  0
  3  2  1  0  0  0  0
  3  4  1  0  0  0  0
  4 11  1  0  0  0  0
  4  5  1  0  0  0  0
  5 12  1  0  0  0  0
  6 14  1  6  0  0  0
  6  5  1  0  0  0  0
  6 31  1  0  0  0  0
  7  1  1  0  0  0  0
  9  3  1  0  0  0  0
 10  3  1  0  0  0  0
 13  5  1  0  0  0  0
 15 26  1  0  0  0  0
 16 20  1  0  0  0  0
 16 15  1  0  0  0  0
 17 18  1  0  0  0  0
 17 16  2  0  0  0  0
 18 19  1  0  0  0  0
 19 15  2  0  0  0  0
 21 17  1  0  0  0  0
 22 28  1  0  0  0  0
 22 23  1  0  0  0  0
 23 29  1  0  0  0  0
 24 23  2  0  0  0  0
 24 30  1  0  0  0  0
 25 24  1  0  0  0  0
 26 25  2  0  0  0  0
 27 26  1  0  0  0  0
 27 22  2  0  0  0  0
 31 33  1  0  0  0  0
 31 34  1  1  0  0  0
 31 32  1  0  0  0  0
 32 36  1  0  0  0  0
 33 32  1  0  0  0  0
 33 37  1  1  0  0  0
 35 32  1  0  0  0  0
 38 39  1  0  0  0  0
 38 33  1  0  0  0  0
 40 38  1  0  0  0  0
 42 38  1  0  0  0  0
 42 41  2  0  0  0  0
 43 42  1  0  0  0  0
 44 43  1  0  0  0  0
 45 43  2  0  0  0  0
 45 51  1  0  0  0  0
 46 48  1  0  0  0  0
 46 45  1  0  0  0  0
 47 46  1  0  0  0  0
 48 49  2  0  0  0  0
 49 51  1  0  0  0  0
 49 50  1  0  0  0  0
 51 52  2  0  0  0  0
 52 41  1  0  0  0  0
M  END
>  <minimizedAffinity>
-6.19939613

$$$$

 OpenBabel03242520083D

 52 57  0  0  1  0  0  0  0  0999 V2000
   36.8770   29.5500   42.1550 N   0  0  0  0  0  0  0  0  0  0  0  0
   38.0640   29.4030   42.9010 C   0  0  1  0  0  0  0  0  0  0  0  0
   37.9880   28.1210   43.6790 C   0  0  0  0  0  0  0  0  0  0  0  0
   38.0000   27.0900   42.6810 N   0  0  0  0  0  0  0  0  0  0  0  0
   36.7880   27.0880   41.8940 C   0  0  0  0  0  0  0  0  0  0  0  0
   36.2920   28.4420   41.5050 C   0  0  2  0  0  0  0  0  0  0  0  0
   36.2150   30.1750   42.6870 H   0  0  0  0  0  0  0  0  0  0  0  0
   38.1770   30.2150   43.6150 H   0  0  0  0  0  0  0  0  0  0  0  0
   38.9090   28.0250   44.2830 H   0  0  0  0  0  0  0  0  0  0  0  0
   37.0860   28.0680   44.3360 H   0  0  0  0  0  0  0  0  0  0  0  0
   38.1360   26.1420   43.0490 H   0  0  0  0  0  0  0  0  0  0  0  0
   37.0360   26.4320   41.0090 H   0  0  0  0  0  0  0  0  0  0  0  0
   36.0670   26.4700   42.4740 H   0  0  0  0  0  0  0  0  0  0  0  0
   35.2110   28.4530   41.8290 H   0  0  0  0  0  0  0  0  0  0  0  0
   40.4580   29.0120   40.3400 C   0  0  0  0  0  0  0  0  0  0  0  0
   41.2710   29.5260   41.3350 C   0  0  0  0  0  0  0  0  0  0  0  0
   40.4940   29.7440   42.4260 C   0  0  0  0  0  0  0  0  0  0  0  0
   39.2410   29.3670   42.0900 N   0  0  0  0  0  0  0  0  0  0  0  0
   39.2420   28.9340   40.8400 N   0  0  0  0  0  0  0  0  0  0  0  0
   42.3420   29.7190   41.2490 H   0  0  0  0  0  0  0  0  0  0  0  0
   40.7540   30.1370   43.4050 H   0  0  0  0  0  0  0  0  0  0  0  0
   41.9480   29.0840   36.9790 C   0  0  0  0  0  0  0  0  0  0  0  0
   41.6250   27.8260   36.4630 C   0  0  0  0  0  0  0  0  0  0  0  0
   40.9010   26.9710   37.2780 C   0  0  0  0  0  0  0  0  0  0  0  0
   40.5530   27.4050   38.5150 N   0  0  0  0  0  0  0  0  0  0  0  0
   40.8830   28.6280   38.9760 C   0  0  0  0  0  0  0  0  0  0  0  0
   41.5860   29.4850   38.2140 N   0  0  0  0  0  0  0  0  0  0  0  0
   42.5190   29.7200   36.2990 H   0  0  0  0  0  0  0  0  0  0  0  0
   41.9290   27.5270   35.4620 H   0  0  0  0  0  0  0  0  0  0  0  0
   40.6150   25.9760   36.9400 H   0  0  0  0  0  0  0  0  0  0  0  0
   36.3620   28.5250   39.9980 C   0  0  1  0  0  0  0  0  0  0  0  0
   35.0840   29.0070   39.3090 C   0  0  0  0  0  0  0  0  0  0  0  0
   36.3270   29.8070   39.2780 C   0  0  1  0  0  0  0  0  0  0  0  0
   36.8160   27.6620   39.4270 H   0  0  0  0  0  0  0  0  0  0  0  0
   34.2660   29.4000   39.9820 H   0  0  0  0  0  0  0  0  0  0  0  0
   34.6910   28.4920   38.4360 H   0  0  0  0  0  0  0  0  0  0  0  0
   36.7970   29.8710   38.2860 H   0  0  0  0  0  0  0  0  0  0  0  0
   36.4270   31.1250   40.0590 C   0  0  0  0  0  0  0  0  0  0  0  0
   36.4230   30.9320   41.1390 H   0  0  0  0  0  0  0  0  0  0  0  0
   35.6430   31.8260   39.7080 H   0  0  0  0  0  0  0  0  0  0  0  0
   38.4030   32.5520   40.6910 C   0  0  0  0  0  3  0  0  0  0  0  0
   37.7310   31.7940   39.7710 C   0  0  0  0  0  0  0  0  0  0  0  0
   38.3130   31.6520   38.5050 C   0  0  0  0  0  0  0  0  0  0  0  0
   37.7940   31.0500   37.7530 H   0  0  0  0  0  0  0  0  0  0  0  0
   39.5160   32.2590   38.2150 C   0  0  0  0  0  0  0  0  0  0  0  0
   40.2580   32.2660   37.0860 N   0  0  0  0  0  0  0  0  0  0  0  0
   39.9790   31.7620   36.2120 H   0  0  0  0  0  0  0  0  0  0  0  0
   41.3330   33.0000   37.3190 N   0  0  0  0  0  0  0  0  0  0  0  0
   41.3150   33.4780   38.5830 C   0  0  0  0  0  0  0  0  0  0  0  0
   42.0680   34.0980   39.0220 H   0  0  0  0  0  0  0  0  0  0  0  0
   40.1610   33.0160   39.1720 C   0  0  0  0  0  0  0  0  0  0  0  0
   39.6110   33.1800   40.4480 C   0  0  0  0  0  3  0  0  0  0  0  0
  1  7  1  0  0  0  0
  1  2  1  0  0  0  0
  2  8  1  1  0  0  0
  2  3  1  0  0  0  0
  3  9  1  0  0  0  0
  3 10  1  0  0  0  0
  4 11  1  0  0  0  0
  4  3  1  0  0  0  0
  5 13  1  0  0  0  0
  5  4  1  0  0  0  0
  6 14  1  1  0  0  0
  6  5  1  0  0  0  0
  6  1  1  0  0  0  0
 12  5  1  0  0  0  0
 15 19  2  0  0  0  0
 15 16  1  0  0  0  0
 16 17  2  0  0  0  0
 17 21  1  0  0  0  0
 18 17  1  0  0  0  0
 18  2  1  0  0  0  0
 19 18  1  0  0  0  0
 20 16  1  0  0  0  0
 22 27  1  0  0  0  0
 23 22  2  0  0  0  0
 23 24  1  0  0  0  0
 24 25  2  0  0  0  0
 25 26  1  0  0  0  0
 26 15  1  0  0  0  0
 27 26  2  0  0  0  0
 28 22  1  0  0  0  0
 29 23  1  0  0  0  0
 30 24  1  0  0  0  0
 31 34  1  6  0  0  0
 31  6  1  0  0  0  0
 32 35  1  0  0  0  0
 32 31  1  0  0  0  0
 33 37  1  6  0  0  0
 33 32  1  0  0  0  0
 33 31  1  0  0  0  0
 33 38  1  0  0  0  0
 36 32  1  0  0  0  0
 38 39  1  0  0  0  0
 40 38  1  0  0  0  0
 42 38  1  0  0  0  0
 42 41  2  0  0  0  0
 43 42  1  0  0  0  0
 44 43  1  0  0  0  0
 45 43  2  0  0  0  0
 45 51  1  0  0  0  0
 46 48  1  0  0  0  0
 46 45  1  0  0  0  0
 47 46  1  0  0  0  0
 48 49  2  0  0  0  0
 49 50  1  0  0  0  0
 49 51  1  0  0  0  0
 51 52  2  0  0  0  0
 52 41  1  0  0  0  0
M  END
>  <minimizedAffinity>
-6.15995407

$$$$

 OpenBabel03242520083D

 52 57  0  0  1  0  0  0  0  0999 V2000
   37.8630   31.5330   40.9790 N   0  0  0  0  0  0  0  0  0  0  0  0
   37.0850   31.6190   39.8070 C   0  0  1  0  0  0  0  0  0  0  0  0
   37.2400   32.9960   39.2260 C   0  0  0  0  0  0  0  0  0  0  0  0
   38.6130   33.0620   38.8130 N   0  0  0  0  0  0  0  0  0  0  0  0
   39.5160   33.0600   39.9420 C   0  0  0  0  0  0  0  0  0  0  0  0
   39.1520   32.1070   41.0330 C   0  0  2  0  0  0  0  0  0  0  0  0
   37.2440   31.7100   41.8140 H   0  0  0  0  0  0  0  0  0  0  0  0
   36.0310   31.4740   40.0300 H   0  0  0  0  0  0  0  0  0  0  0  0
   36.6060   33.0660   38.3240 H   0  0  0  0  0  0  0  0  0  0  0  0
   36.9730   33.8020   39.9520 H   0  0  0  0  0  0  0  0  0  0  0  0
   38.8440   33.8730   38.2290 H   0  0  0  0  0  0  0  0  0  0  0  0
   40.5270   32.8500   39.4850 H   0  0  0  0  0  0  0  0  0  0  0  0
   39.5930   34.1260   40.2520 H   0  0  0  0  0  0  0  0  0  0  0  0
   39.1500   32.7360   41.9710 H   0  0  0  0  0  0  0  0  0  0  0  0
   38.5160   29.0040   37.9210 C   0  0  0  0  0  0  0  0  0  0  0  0
   37.6280   29.5010   36.9840 C   0  0  0  0  0  0  0  0  0  0  0  0
   36.9720   30.5420   37.5550 C   0  0  0  0  0  0  0  0  0  0  0  0
   37.4580   30.6660   38.8090 N   0  0  0  0  0  0  0  0  0  0  0  0
   38.3790   29.7380   39.0070 N   0  0  0  0  0  0  0  0  0  0  0  0
   37.4870   29.1180   35.9720 H   0  0  0  0  0  0  0  0  0  0  0  0
   36.2000   31.1920   37.1500 H   0  0  0  0  0  0  0  0  0  0  0  0
   40.1310   25.7130   38.2050 C   0  0  0  0  0  0  0  0  0  0  0  0
   41.2030   25.8080   37.3140 C   0  0  0  0  0  0  0  0  0  0  0  0
   41.3560   27.0030   36.6290 C   0  0  0  0  0  0  0  0  0  0  0  0
   40.4620   27.9960   36.8630 N   0  0  0  0  0  0  0  0  0  0  0  0
   39.4400   27.8640   37.7320 C   0  0  0  0  0  0  0  0  0  0  0  0
   39.2600   26.7200   38.4160 N   0  0  0  0  0  0  0  0  0  0  0  0
   40.0530   24.7530   38.7200 H   0  0  0  0  0  0  0  0  0  0  0  0
   41.8920   24.9800   37.1640 H   0  0  0  0  0  0  0  0  0  0  0  0
   42.1690   27.1460   35.9200 H   0  0  0  0  0  0  0  0  0  0  0  0
   40.2620   31.0860   41.1200 C   0  0  1  0  0  0  0  0  0  0  0  0
   41.2230   31.2620   42.2960 C   0  0  0  0  0  0  0  0  0  0  0  0
   40.3300   30.0880   42.1990 C   0  0  1  0  0  0  0  0  0  0  0  0
   40.8320   30.8220   40.1810 H   0  0  0  0  0  0  0  0  0  0  0  0
   40.9360   32.0330   43.0710 H   0  0  0  0  0  0  0  0  0  0  0  0
   42.2990   31.2000   42.1530 H   0  0  0  0  0  0  0  0  0  0  0  0
   40.8520   29.1390   42.0100 H   0  0  0  0  0  0  0  0  0  0  0  0
   39.1480   29.9240   43.1640 C   0  0  0  0  0  0  0  0  0  0  0  0
   38.3820   30.6840   42.9640 H   0  0  0  0  0  0  0  0  0  0  0  0
   39.5200   29.9000   44.2080 H   0  0  0  0  0  0  0  0  0  0  0  0
   37.2140   28.3250   43.3730 C   0  0  0  0  0  3  0  0  0  0  0  0
   38.4800   28.6070   42.9380 C   0  0  0  0  0  0  0  0  0  0  0  0
   39.1640   27.5980   42.2490 C   0  0  0  0  0  0  0  0  0  0  0  0
   40.1780   27.8000   41.8910 H   0  0  0  0  0  0  0  0  0  0  0  0
   38.5700   26.3730   42.0280 C   0  0  0  0  0  0  0  0  0  0  0  0
   39.0240   25.2660   41.4010 N   0  0  0  0  0  0  0  0  0  0  0  0
   39.9740   25.2010   40.9660 H   0  0  0  0  0  0  0  0  0  0  0  0
   38.0670   24.3550   41.4580 N   0  0  0  0  0  0  0  0  0  0  0  0
   36.9890   24.8400   42.1110 C   0  0  0  0  0  0  0  0  0  0  0  0
   36.0810   24.3050   42.2930 H   0  0  0  0  0  0  0  0  0  0  0  0
   37.2910   26.1300   42.4840 C   0  0  0  0  0  0  0  0  0  0  0  0
   36.5750   27.1130   43.1750 C   0  0  0  0  0  3  0  0  0  0  0  0
  1  6  1  0  0  0  0
  1  7  1  0  0  0  0
  2  8  1  1  0  0  0
  2  1  1  0  0  0  0
  3  2  1  0  0  0  0
  3 10  1  0  0  0  0
  4  3  1  0  0  0  0
  4  5  1  0  0  0  0
  5 13  1  0  0  0  0
  5  6  1  0  0  0  0
  6 31  1  0  0  0  0
  6 14  1  1  0  0  0
  9  3  1  0  0  0  0
 11  4  1  0  0  0  0
 12  5  1  0  0  0  0
 15 19  2  0  0  0  0
 16 17  2  0  0  0  0
 16 15  1  0  0  0  0
 17 18  1  0  0  0  0
 18 19  1  0  0  0  0
 18  2  1  0  0  0  0
 20 16  1  0  0  0  0
 21 17  1  0  0  0  0
 22 27  1  0  0  0  0
 22 28  1  0  0  0  0
 23 22  2  0  0  0  0
 24 25  2  0  0  0  0
 24 23  1  0  0  0  0
 25 26  1  0  0  0  0
 26 15  1  0  0  0  0
 26 27  2  0  0  0  0
 29 23  1  0  0  0  0
 30 24  1  0  0  0  0
 31 34  1  6  0  0  0
 31 33  1  0  0  0  0
 31 32  1  0  0  0  0
 32 35  1  0  0  0  0
 33 37  1  6  0  0  0
 33 32  1  0  0  0  0
 33 38  1  0  0  0  0
 36 32  1  0  0  0  0
 38 40  1  0  0  0  0
 39 38  1  0  0  0  0
 42 38  1  0  0  0  0
 42 41  2  0  0  0  0
 43 42  1  0  0  0  0
 44 43  1  0  0  0  0
 45 43  2  0  0  0  0
 45 51  1  0  0  0  0
 46 48  1  0  0  0  0
 46 45  1  0  0  0  0
 47 46  1  0  0  0  0
 48 49  2  0  0  0  0
 49 50  1  0  0  0  0
 49 51  1  0  0  0  0
 51 52  2  0  0  0  0
 52 41  1  0  0  0  0
M  END
>  <minimizedAffinity>
-6.08490372

$$$$

 OpenBabel03242520083D

 52 57  0  0  1  0  0  0  0  0999 V2000
   38.0800   31.9190   39.9880 N   0  0  0  0  0  0  0  0  0  0  0  0
   39.0460   32.7940   39.4510 C   0  0  1  0  0  0  0  0  0  0  0  0
   39.7370   33.5010   40.5820 C   0  0  0  0  0  0  0  0  0  0  0  0
   40.4580   32.4660   41.2680 N   0  0  0  0  0  0  0  0  0  0  0  0
   39.5690   31.5390   41.9320 C   0  0  0  0  0  0  0  0  0  0  0  0
   38.3630   31.1540   41.1410 C   0  0  2  0  0  0  0  0  0  0  0  0
   37.1400   32.3940   39.9690 H   0  0  0  0  0  0  0  0  0  0  0  0
   38.5770   33.5530   38.8280 H   0  0  0  0  0  0  0  0  0  0  0  0
   40.4720   34.2060   40.1540 H   0  0  0  0  0  0  0  0  0  0  0  0
   39.0250   34.0410   41.2530 H   0  0  0  0  0  0  0  0  0  0  0  0
   41.1330   32.8050   41.9630 H   0  0  0  0  0  0  0  0  0  0  0  0
   40.2310   30.6620   42.1930 H   0  0  0  0  0  0  0  0  0  0  0  0
   39.3570   32.0010   42.9220 H   0  0  0  0  0  0  0  0  0  0  0  0
   37.4940   31.3450   41.8360 H   0  0  0  0  0  0  0  0  0  0  0  0
   41.9500   31.7970   37.7160 C   0  0  0  0  0  0  0  0  0  0  0  0
   41.1190   30.7380   37.3970 C   0  0  0  0  0  0  0  0  0  0  0  0
   39.9240   30.9600   37.9980 C   0  0  0  0  0  0  0  0  0  0  0  0
   40.0370   32.1300   38.6630 N   0  0  0  0  0  0  0  0  0  0  0  0
   41.2550   32.6130   38.4820 N   0  0  0  0  0  0  0  0  0  0  0  0
   41.3860   29.8820   36.7750 H   0  0  0  0  0  0  0  0  0  0  0  0
   39.0140   30.3660   37.9920 H   0  0  0  0  0  0  0  0  0  0  0  0
   45.3380   33.1490   37.2510 C   0  0  0  0  0  0  0  0  0  0  0  0
   45.9410   32.2090   36.4100 C   0  0  0  0  0  0  0  0  0  0  0  0
   45.1740   31.1250   36.0150 C   0  0  0  0  0  0  0  0  0  0  0  0
   43.8970   31.0430   36.4660 N   0  0  0  0  0  0  0  0  0  0  0  0
   43.3520   31.9720   37.2760 C   0  0  0  0  0  0  0  0  0  0  0  0
   44.0650   33.0380   37.6810 N   0  0  0  0  0  0  0  0  0  0  0  0
   45.9820   33.9840   37.5340 H   0  0  0  0  0  0  0  0  0  0  0  0
   46.9700   32.3230   36.0770 H   0  0  0  0  0  0  0  0  0  0  0  0
   45.5800   30.3560   35.3610 H   0  0  0  0  0  0  0  0  0  0  0  0
   38.4650   29.6720   40.8680 C   0  0  1  0  0  0  0  0  0  0  0  0
   37.8190   28.7670   41.9190 C   0  0  0  0  0  0  0  0  0  0  0  0
   37.2900   28.8490   40.5410 C   0  0  1  0  0  0  0  0  0  0  0  0
   39.4590   29.2470   40.5390 H   0  0  0  0  0  0  0  0  0  0  0  0
   37.1990   29.2790   42.7130 H   0  0  0  0  0  0  0  0  0  0  0  0
   38.3410   27.8920   42.3000 H   0  0  0  0  0  0  0  0  0  0  0  0
   37.4330   27.9340   39.9480 H   0  0  0  0  0  0  0  0  0  0  0  0
   35.9390   29.5230   40.2630 C   0  0  0  0  0  0  0  0  0  0  0  0
   36.0140   30.6070   40.4100 H   0  0  0  0  0  0  0  0  0  0  0  0
   35.1450   29.0250   40.8560 H   0  0  0  0  0  0  0  0  0  0  0  0
   34.3300   28.8730   38.4380 C   0  0  0  0  0  3  0  0  0  0  0  0
   35.5560   29.3340   38.8310 C   0  0  0  0  0  0  0  0  0  0  0  0
   36.4820   29.6390   37.8260 C   0  0  0  0  0  0  0  0  0  0  0  0
   37.4700   30.0100   38.1150 H   0  0  0  0  0  0  0  0  0  0  0  0
   36.1540   29.4740   36.4970 C   0  0  0  0  0  0  0  0  0  0  0  0
   36.8670   29.6960   35.3710 N   0  0  0  0  0  0  0  0  0  0  0  0
   37.8500   30.0550   35.3760 H   0  0  0  0  0  0  0  0  0  0  0  0
   36.0980   29.3790   34.3420 N   0  0  0  0  0  0  0  0  0  0  0  0
   34.8890   28.9520   34.7690 C   0  0  0  0  0  0  0  0  0  0  0  0
   34.0850   28.6370   34.1370 H   0  0  0  0  0  0  0  0  0  0  0  0
   34.9050   29.0050   36.1430 C   0  0  0  0  0  0  0  0  0  0  0  0
   33.9540   28.6900   37.1190 C   0  0  0  0  0  3  0  0  0  0  0  0
  1  6  1  0  0  0  0
  2  8  1  6  0  0  0
  2  1  1  0  0  0  0
  2  3  1  0  0  0  0
  3 10  1  0  0  0  0
  3  4  1  0  0  0  0
  4  5  1  0  0  0  0
  4 11  1  0  0  0  0
  5 12  1  0  0  0  0
  5 13  1  0  0  0  0
  6 14  1  1  0  0  0
  6  5  1  0  0  0  0
  7  1  1  0  0  0  0
  9  3  1  0  0  0  0
 15 19  2  0  0  0  0
 16 15  1  0  0  0  0
 16 17  2  0  0  0  0
 17 18  1  0  0  0  0
 18  2  1  0  0  0  0
 19 18  1  0  0  0  0
 20 16  1  0  0  0  0
 21 17  1  0  0  0  0
 22 28  1  0  0  0  0
 22 27  1  0  0  0  0
 23 22  2  0  0  0  0
 24 23  1  0  0  0  0
 24 25  2  0  0  0  0
 25 26  1  0  0  0  0
 26 27  2  0  0  0  0
 26 15  1  0  0  0  0
 29 23  1  0  0  0  0
 30 24  1  0  0  0  0
 31 34  1  6  0  0  0
 31  6  1  0  0  0  0
 31 32  1  0  0  0  0
 32 36  1  0  0  0  0
 32 35  1  0  0  0  0
 33 37  1  6  0  0  0
 33 31  1  0  0  0  0
 33 32  1  0  0  0  0
 38 39  1  0  0  0  0
 38 33  1  0  0  0  0
 38 40  1  0  0  0  0
 41 42  1  0  0  0  0
 42 38  1  0  0  0  0
 43 44  1  0  0  0  0
 43 42  2  0  0  0  0
 45 43  1  0  0  0  0
 46 47  1  0  0  0  0
 46 45  1  0  0  0  0
 48 49  2  0  0  0  0
 48 46  1  0  0  0  0
 49 51  1  0  0  0  0
 50 49  1  0  0  0  0
 51 45  2  0  0  0  0
 51 52  1  0  0  0  0
 52 41  2  0  0  0  0
M  END
>  <minimizedAffinity>
-6.04143476

$$$$

 OpenBabel03242520083D

 52 57  0  0  1  0  0  0  0  0999 V2000
   38.9500   30.6080   41.7830 N   0  0  0  0  0  0  0  0  0  0  0  0
   38.7910   29.3260   42.3490 C   0  0  1  0  0  0  0  0  0  0  0  0
   37.4270   29.2420   42.9740 C   0  0  0  0  0  0  0  0  0  0  0  0
   36.5160   29.3180   41.8670 N   0  0  0  0  0  0  0  0  0  0  0  0
   36.5310   30.6230   41.2460 C   0  0  0  0  0  0  0  0  0  0  0  0
   37.8880   31.2240   41.0860 C   0  0  2  0  0  0  0  0  0  0  0  0
   39.4710   31.2200   42.4640 H   0  0  0  0  0  0  0  0  0  0  0  0
   39.5230   29.1560   43.1340 H   0  0  0  0  0  0  0  0  0  0  0  0
   37.3200   28.2460   43.4410 H   0  0  0  0  0  0  0  0  0  0  0  0
   37.2490   30.0460   43.7290 H   0  0  0  0  0  0  0  0  0  0  0  0
   35.5430   29.0920   42.1010 H   0  0  0  0  0  0  0  0  0  0  0  0
   35.9930   30.4660   40.2650 H   0  0  0  0  0  0  0  0  0  0  0  0
   35.8110   31.2320   41.8360 H   0  0  0  0  0  0  0  0  0  0  0  0
   37.8000   32.2530   41.5430 H   0  0  0  0  0  0  0  0  0  0  0  0
   38.5980   26.3220   40.5120 C   0  0  0  0  0  0  0  0  0  0  0  0
   39.4420   27.0400   39.6850 C   0  0  0  0  0  0  0  0  0  0  0  0
   39.6310   28.2580   40.2520 C   0  0  0  0  0  0  0  0  0  0  0  0
   38.9140   28.2670   41.3960 N   0  0  0  0  0  0  0  0  0  0  0  0
   38.3050   27.1010   41.5320 N   0  0  0  0  0  0  0  0  0  0  0  0
   39.8730   26.6840   38.7470 H   0  0  0  0  0  0  0  0  0  0  0  0
   40.2240   29.1040   39.9150 H   0  0  0  0  0  0  0  0  0  0  0  0
   38.4660   22.6580   40.2230 C   0  0  0  0  0  0  0  0  0  0  0  0
   37.1430   22.4180   39.8440 C   0  0  0  0  0  0  0  0  0  0  0  0
   36.3150   23.5180   39.6940 C   0  0  0  0  0  0  0  0  0  0  0  0
   36.8360   24.7500   39.9220 N   0  0  0  0  0  0  0  0  0  0  0  0
   38.1200   24.9400   40.2860 C   0  0  0  0  0  0  0  0  0  0  0  0
   38.9530   23.8950   40.4410 N   0  0  0  0  0  0  0  0  0  0  0  0
   39.0780   21.7590   40.3280 H   0  0  0  0  0  0  0  0  0  0  0  0
   36.7750   21.4080   39.6730 H   0  0  0  0  0  0  0  0  0  0  0  0
   35.2720   23.4040   39.4010 H   0  0  0  0  0  0  0  0  0  0  0  0
   38.1420   31.3600   39.6030 C   0  0  1  0  0  0  0  0  0  0  0  0
   37.3130   32.4310   38.8920 C   0  0  0  0  0  0  0  0  0  0  0  0
   38.7810   32.5490   39.0190 C   0  0  1  0  0  0  0  0  0  0  0  0
   38.1980   30.4230   38.9730 H   0  0  0  0  0  0  0  0  0  0  0  0
   36.7080   33.1200   39.5520 H   0  0  0  0  0  0  0  0  0  0  0  0
   36.8180   32.2200   37.9480 H   0  0  0  0  0  0  0  0  0  0  0  0
   39.3260   32.4460   38.0700 H   0  0  0  0  0  0  0  0  0  0  0  0
   39.4020   33.6110   39.9380 C   0  0  0  0  0  0  0  0  0  0  0  0
   39.2930   33.3190   40.9900 H   0  0  0  0  0  0  0  0  0  0  0  0
   38.9910   34.6090   39.6850 H   0  0  0  0  0  0  0  0  0  0  0  0
   41.7710   34.0690   40.6600 C   0  0  0  0  0  3  0  0  0  0  0  0
   40.8740   33.7030   39.6950 C   0  0  0  0  0  0  0  0  0  0  0  0
   41.3810   33.4020   38.4250 C   0  0  0  0  0  0  0  0  0  0  0  0
   40.6820   33.1060   37.6360 H   0  0  0  0  0  0  0  0  0  0  0  0
   42.7350   33.4790   38.1740 C   0  0  0  0  0  0  0  0  0  0  0  0
   43.4450   33.2420   37.0500 N   0  0  0  0  0  0  0  0  0  0  0  0
   43.0080   32.9430   36.1470 H   0  0  0  0  0  0  0  0  0  0  0  0
   44.7200   33.4590   37.3300 N   0  0  0  0  0  0  0  0  0  0  0  0
   44.8640   33.8350   38.6190 C   0  0  0  0  0  0  0  0  0  0  0  0
   45.7920   34.0690   39.0970 H   0  0  0  0  0  0  0  0  0  0  0  0
   43.6060   33.8540   39.1760 C   0  0  0  0  0  0  0  0  0  0  0  0
   43.1370   34.1610   40.4580 C   0  0  0  0  0  3  0  0  0  0  0  0
  1  2  1  0  0  0  0
  1  7  1  0  0  0  0
  2  3  1  0  0  0  0
  2  8  1  1  0  0  0
  3  9  1  0  0  0  0
  3 10  1  0  0  0  0
  4 11  1  0  0  0  0
  4  3  1  0  0  0  0
  5 13  1  0  0  0  0
  5  4  1  0  0  0  0
  6  5  1  0  0  0  0
  6 14  1  1  0  0  0
  6  1  1  0  0  0  0
 12  5  1  0  0  0  0
 15 19  2  0  0  0  0
 16 17  2  0  0  0  0
 16 15  1  0  0  0  0
 17 18  1  0  0  0  0
 18 19  1  0  0  0  0
 18  2  1  0  0  0  0
 20 16  1  0  0  0  0
 21 17  1  0  0  0  0
 22 28  1  0  0  0  0
 22 27  1  0  0  0  0
 23 22  2  0  0  0  0
 24 23  1  0  0  0  0
 24 25  2  0  0  0  0
 25 26  1  0  0  0  0
 26 27  2  0  0  0  0
 26 15  1  0  0  0  0
 29 23  1  0  0  0  0
 30 24  1  0  0  0  0
 31 34  1  6  0  0  0
 31  6  1  0  0  0  0
 32 33  1  0  0  0  0
 32 35  1  0  0  0  0
 32 31  1  0  0  0  0
 33 37  1  6  0  0  0
 33 31  1  0  0  0  0
 33 38  1  0  0  0  0
 36 32  1  0  0  0  0
 38 39  1  0  0  0  0
 40 38  1  0  0  0  0
 42 38  1  0  0  0  0
 42 41  2  0  0  0  0
 43 42  1  0  0  0  0
 44 43  1  0  0  0  0
 45 43  2  0  0  0  0
 45 51  1  0  0  0  0
 46 48  1  0  0  0  0
 46 45  1  0  0  0  0
 47 46  1  0  0  0  0
 48 49  2  0  0  0  0
 49 50  1  0  0  0  0
 49 51  1  0  0  0  0
 51 52  2  0  0  0  0
 52 41  1  0  0  0  0
M  END
>  <minimizedAffinity>
-5.99208879

$$$$

 OpenBabel03242520083D

 52 57  0  0  1  0  0  0  0  0999 V2000
   41.5770   31.4220   39.4440 N   0  0  0  0  0  0  0  0  0  0  0  0
   40.8640   32.6210   39.6460 C   0  0  1  0  0  0  0  0  0  0  0  0
   41.3410   33.6380   38.6480 C   0  0  0  0  0  0  0  0  0  0  0  0
   40.9230   33.1210   37.3760 N   0  0  0  0  0  0  0  0  0  0  0  0
   41.6450   31.9220   37.0180 C   0  0  0  0  0  0  0  0  0  0  0  0
   41.8510   30.9570   38.1400 C   0  0  2  0  0  0  0  0  0  0  0  0
   42.3800   31.3830   40.1250 H   0  0  0  0  0  0  0  0  0  0  0  0
   41.0530   33.0220   40.6390 H   0  0  0  0  0  0  0  0  0  0  0  0
   40.8000   34.5840   38.8300 H   0  0  0  0  0  0  0  0  0  0  0  0
   42.4450   33.8070   38.6980 H   0  0  0  0  0  0  0  0  0  0  0  0
   41.0100   33.7840   36.5980 H   0  0  0  0  0  0  0  0  0  0  0  0
   41.0520   31.4890   36.1600 H   0  0  0  0  0  0  0  0  0  0  0  0
   42.5770   32.2810   36.5280 H   0  0  0  0  0  0  0  0  0  0  0  0
   42.9600   30.7460   38.1340 H   0  0  0  0  0  0  0  0  0  0  0  0
   37.5770   31.5030   39.0270 C   0  0  0  0  0  0  0  0  0  0  0  0
   37.3030   32.7920   39.4500 C   0  0  0  0  0  0  0  0  0  0  0  0
   38.4870   33.3870   39.7400 C   0  0  0  0  0  0  0  0  0  0  0  0
   39.4500   32.4730   39.4940 N   0  0  0  0  0  0  0  0  0  0  0  0
   38.8850   31.3550   39.0700 N   0  0  0  0  0  0  0  0  0  0  0  0
   36.3110   33.2400   39.5330 H   0  0  0  0  0  0  0  0  0  0  0  0
   38.6980   34.3910   40.0990 H   0  0  0  0  0  0  0  0  0  0  0  0
   35.5720   29.1860   36.9940 C   0  0  0  0  0  0  0  0  0  0  0  0
   34.7090   28.6090   37.9300 C   0  0  0  0  0  0  0  0  0  0  0  0
   34.8290   29.0240   39.2460 C   0  0  0  0  0  0  0  0  0  0  0  0
   35.7690   29.9570   39.5420 N   0  0  0  0  0  0  0  0  0  0  0  0
   36.5820   30.4910   38.6090 C   0  0  0  0  0  0  0  0  0  0  0  0
   36.4950   30.1120   37.3210 N   0  0  0  0  0  0  0  0  0  0  0  0
   35.4390   28.8260   35.9720 H   0  0  0  0  0  0  0  0  0  0  0  0
   33.9720   27.8630   37.6390 H   0  0  0  0  0  0  0  0  0  0  0  0
   34.1900   28.6160   40.0270 H   0  0  0  0  0  0  0  0  0  0  0  0
   41.1020   29.6940   37.7820 C   0  0  1  0  0  0  0  0  0  0  0  0
   41.9780   28.4930   37.4220 C   0  0  0  0  0  0  0  0  0  0  0  0
   41.1310   28.4950   38.6330 C   0  0  1  0  0  0  0  0  0  0  0  0
   40.2220   29.7660   37.0770 H   0  0  0  0  0  0  0  0  0  0  0  0
   43.0880   28.6070   37.6010 H   0  0  0  0  0  0  0  0  0  0  0  0
   41.7600   27.8840   36.5490 H   0  0  0  0  0  0  0  0  0  0  0  0
   40.2830   27.7950   38.5920 H   0  0  0  0  0  0  0  0  0  0  0  0
   41.7650   28.5640   40.0300 C   0  0  0  0  0  0  0  0  0  0  0  0
   42.0980   29.5860   40.2490 H   0  0  0  0  0  0  0  0  0  0  0  0
   42.5510   27.7870   40.1210 H   0  0  0  0  0  0  0  0  0  0  0  0
   41.0700   27.7410   42.3060 C   0  0  0  0  0  3  0  0  0  0  0  0
   40.7460   28.2370   41.0730 C   0  0  0  0  0  0  0  0  0  0  0  0
   39.3890   28.4420   40.7970 C   0  0  0  0  0  0  0  0  0  0  0  0
   39.1060   28.8390   39.8170 H   0  0  0  0  0  0  0  0  0  0  0  0
   38.4290   28.1490   41.7420 C   0  0  0  0  0  0  0  0  0  0  0  0
   37.0830   28.2600   41.7060 N   0  0  0  0  0  0  0  0  0  0  0  0
   36.5590   28.6170   40.8740 H   0  0  0  0  0  0  0  0  0  0  0  0
   36.6170   27.8460   42.8730 N   0  0  0  0  0  0  0  0  0  0  0  0
   37.6320   27.4630   43.6790 C   0  0  0  0  0  0  0  0  0  0  0  0
   37.5240   27.0890   44.6760 H   0  0  0  0  0  0  0  0  0  0  0  0
   38.7980   27.6490   42.9740 C   0  0  0  0  0  0  0  0  0  0  0  0
   40.1450   27.4320   43.2870 C   0  0  0  0  0  3  0  0  0  0  0  0
  1  2  1  0  0  0  0
  1  7  1  0  0  0  0
  2  8  1  1  0  0  0
  3 10  1  0  0  0  0
  3  9  1  0  0  0  0
  3  2  1  0  0  0  0
  4  3  1  0  0  0  0
  5  4  1  0  0  0  0
  5  6  1  0  0  0  0
  6 14  1  6  0  0  0
  6  1  1  0  0  0  0
 11  4  1  0  0  0  0
 12  5  1  0  0  0  0
 13  5  1  0  0  0  0
 15 19  2  0  0  0  0
 15 16  1  0  0  0  0
 16 20  1  0  0  0  0
 16 17  2  0  0  0  0
 17 21  1  0  0  0  0
 18  2  1  0  0  0  0
 18 17  1  0  0  0  0
 19 18  1  0  0  0  0
 22 27  2  0  0  0  0
 22 23  1  0  0  0  0
 23 24  2  0  0  0  0
 24 25  1  0  0  0  0
 24 30  1  0  0  0  0
 26 15  1  0  0  0  0
 26 25  2  0  0  0  0
 27 26  1  0  0  0  0
 28 22  1  0  0  0  0
 29 23  1  0  0  0  0
 31 34  1  6  0  0  0
 31  6  1  0  0  0  0
 31 33  1  0  0  0  0
 32 35  1  0  0  0  0
 32 31  1  0  0  0  0
 32 33  1  0  0  0  0
 33 37  1  6  0  0  0
 33 38  1  0  0  0  0
 36 32  1  0  0  0  0
 38 40  1  0  0  0  0
 38 39  1  0  0  0  0
 38 42  1  0  0  0  0
 41 52  1  0  0  0  0
 42 41  2  0  0  0  0
 43 42  1  0  0  0  0
 43 45  2  0  0  0  0
 44 43  1  0  0  0  0
 45 51  1  0  0  0  0
 46 45  1  0  0  0  0
 46 48  1  0  0  0  0
 47 46  1  0  0  0  0
 48 49  2  0  0  0  0
 49 50  1  0  0  0  0
 51 52  2  0  0  0  0
 51 49  1  0  0  0  0
M  END
>  <minimizedAffinity>
-5.98264647

$$$$
