
 OpenBabel03252502033D

 37 41  0  0  0  0  0  0  0  0999 V2000
   36.5430   30.4470   41.3350 C   0  0  0  0  0  0  0  0  0  0  0  0
   37.3150   31.4360   40.7620 C   0  0  0  0  0  0  0  0  0  0  0  0
   38.6570   31.1850   40.7020 C   0  0  0  0  0  0  0  0  0  0  0  0
   39.1580   30.0330   41.1810 N   0  0  0  0  0  0  0  0  0  0  0  0
   38.4120   29.0890   41.7290 C   0  0  0  0  0  0  0  0  0  0  0  0
   37.1050   29.3400   41.7840 N   0  0  0  0  0  0  0  0  0  0  0  0
   35.4630   30.6510   41.3820 H   0  0  0  0  0  0  0  0  0  0  0  0
   38.7370   27.7780   42.3070 C   0  0  0  0  0  0  0  0  0  0  0  0
   39.5820   27.6080   43.3510 N   0  0  0  0  0  0  0  0  0  0  0  0
   39.9050   26.4510   43.9060 C   0  0  0  0  0  0  0  0  0  0  0  0
   39.3670   25.3000   43.4190 N   0  0  0  0  0  0  0  0  0  0  0  0
   38.5130   25.3450   42.3820 C   0  0  0  0  0  0  0  0  0  0  0  0
   37.9650   24.1710   41.8860 C   0  0  0  0  0  0  0  0  0  0  0  0
   37.0940   24.1930   40.8310 C   0  0  0  0  0  0  0  0  0  0  0  0
   36.7840   25.4280   40.2830 C   0  0  0  0  0  0  0  0  0  0  0  0
   37.3500   26.5670   40.8050 C   0  0  0  0  0  0  0  0  0  0  0  0
   38.2230   26.5900   41.8550 C   0  0  0  0  0  0  0  0  0  0  0  0
   40.5870   26.4100   44.7350 H   0  0  0  0  0  0  0  0  0  0  0  0
   38.2440   23.2340   42.3560 H   0  0  0  0  0  0  0  0  0  0  0  0
   36.7080   23.2370   40.5010 H   0  0  0  0  0  0  0  0  0  0  0  0
   36.0990   25.4410   39.4540 H   0  0  0  0  0  0  0  0  0  0  0  0
   37.0710   27.5080   40.3340 H   0  0  0  0  0  0  0  0  0  0  0  0
   39.9790   33.2250   40.8660 C   0  0  0  0  0  3  0  0  0  0  0  0
   39.5720   32.1290   40.1320 C   0  0  0  0  0  0  0  0  0  0  0  0
   40.0440   31.9330   38.8440 C   0  0  0  0  0  0  0  0  0  0  0  0
   39.7400   31.0950   38.2680 H   0  0  0  0  0  0  0  0  0  0  0  0
   40.9330   32.8910   38.3510 C   0  0  0  0  0  0  0  0  0  0  0  0
   41.5280   32.9170   37.1220 N   0  0  0  0  0  0  0  0  0  0  0  0
   41.4100   32.2120   36.3450 H   0  0  0  0  0  0  0  0  0  0  0  0
   42.2910   33.9980   37.0750 N   0  0  0  0  0  0  0  0  0  0  0  0
   42.1990   34.6570   38.2360 C   0  0  0  0  0  0  0  0  0  0  0  0
   42.7010   35.5850   38.5220 H   0  0  0  0  0  0  0  0  0  0  0  0
   41.3430   33.9820   39.0690 C   0  0  0  0  0  0  0  0  0  0  0  0
   40.8630   34.1630   40.3560 C   0  0  0  0  0  3  0  0  0  0  0  0
   36.7380   32.6220   40.2760 N   0  0  0  0  0  0  0  0  0  0  0  0
   37.1770   32.9760   39.4080 H   0  0  0  0  0  0  0  0  0  0  0  0
   35.9610   33.1810   40.6470 H   0  0  0  0  0  0  0  0  0  0  0  0
  1  7  1  0  0  0  0
  1  6  1  0  0  0  0
  2  1  2  0  0  0  0
  3  2  1  0  0  0  0
  3  4  2  0  0  0  0
  4  5  1  0  0  0  0
  5  6  2  0  0  0  0
  5  8  1  0  0  0  0
  8  9  1  0  0  0  0
  9 10  2  0  0  0  0
 10 18  1  0  0  0  0
 11 10  1  0  0  0  0
 12 11  2  0  0  0  0
 13 19  1  0  0  0  0
 13 12  1  0  0  0  0
 14 13  2  0  0  0  0
 15 16  2  0  0  0  0
 15 14  1  0  0  0  0
 16 17  1  0  0  0  0
 17  8  2  0  0  0  0
 17 12  1  0  0  0  0
 20 14  1  0  0  0  0
 21 15  1  0  0  0  0
 22 16  1  0  0  0  0
 24  3  1  0  0  0  0
 24 23  2  0  0  0  0
 25 24  1  0  0  0  0
 26 25  1  0  0  0  0
 27 25  2  0  0  0  0
 27 33  1  0  0  0  0
 28 27  1  0  0  0  0
 29 28  1  0  0  0  0
 30 28  1  0  0  0  0
 30 31  2  0  0  0  0
 31 32  1  0  0  0  0
 31 33  1  0  0  0  0
 33 34  2  0  0  0  0
 34 23  1  0  0  0  0
 35 37  1  0  0  0  0
 35  2  1  0  0  0  0
 36 35  1  0  0  0  0
M  END
>  <minimizedAffinity>
-7.39500523

$$$$

 OpenBabel03252502033D

 37 41  0  0  0  0  0  0  0  0999 V2000
   36.2440   30.7830   40.8940 C   0  0  0  0  0  0  0  0  0  0  0  0
   37.2150   31.6850   40.5130 C   0  0  0  0  0  0  0  0  0  0  0  0
   38.4740   31.1760   40.3560 C   0  0  0  0  0  0  0  0  0  0  0  0
   38.7140   29.8710   40.5690 N   0  0  0  0  0  0  0  0  0  0  0  0
   37.7770   29.0110   40.9330 C   0  0  0  0  0  0  0  0  0  0  0  0
   36.5530   29.5130   41.0840 N   0  0  0  0  0  0  0  0  0  0  0  0
   35.2310   31.1940   41.0190 H   0  0  0  0  0  0  0  0  0  0  0  0
   37.8100   27.5690   41.2150 C   0  0  0  0  0  0  0  0  0  0  0  0
   36.9750   26.6730   40.6390 N   0  0  0  0  0  0  0  0  0  0  0  0
   36.9660   25.3690   40.8600 C   0  0  0  0  0  0  0  0  0  0  0  0
   37.8560   24.8300   41.7370 N   0  0  0  0  0  0  0  0  0  0  0  0
   38.7360   25.6240   42.3710 C   0  0  0  0  0  0  0  0  0  0  0  0
   39.6430   25.0750   43.2650 C   0  0  0  0  0  0  0  0  0  0  0  0
   40.5480   25.8640   43.9220 C   0  0  0  0  0  0  0  0  0  0  0  0
   40.5200   27.2250   43.6580 C   0  0  0  0  0  0  0  0  0  0  0  0
   39.6050   27.7270   42.7650 C   0  0  0  0  0  0  0  0  0  0  0  0
   38.6860   26.9770   42.0890 C   0  0  0  0  0  0  0  0  0  0  0  0
   36.2640   24.7310   40.3560 H   0  0  0  0  0  0  0  0  0  0  0  0
   39.6180   24.0030   43.4310 H   0  0  0  0  0  0  0  0  0  0  0  0
   41.2230   25.3630   44.6030 H   0  0  0  0  0  0  0  0  0  0  0  0
   41.2340   27.8410   44.1770 H   0  0  0  0  0  0  0  0  0  0  0  0
   39.6290   28.8030   42.5980 H   0  0  0  0  0  0  0  0  0  0  0  0
   40.3430   32.6320   40.9260 C   0  0  0  0  0  3  0  0  0  0  0  0
   39.5740   32.0060   39.9640 C   0  0  0  0  0  0  0  0  0  0  0  0
   39.8610   32.1720   38.6190 C   0  0  0  0  0  0  0  0  0  0  0  0
   39.2780   31.6970   37.8690 H   0  0  0  0  0  0  0  0  0  0  0  0
   40.9470   32.9930   38.3080 C   0  0  0  0  0  0  0  0  0  0  0  0
   41.4200   33.3090   37.0660 N   0  0  0  0  0  0  0  0  0  0  0  0
   41.0380   32.9800   36.1390 H   0  0  0  0  0  0  0  0  0  0  0  0
   42.4590   34.1130   37.2320 N   0  0  0  0  0  0  0  0  0  0  0  0
   42.6600   34.3160   38.5390 C   0  0  0  0  0  0  0  0  0  0  0  0
   43.4330   34.9270   39.0130 H   0  0  0  0  0  0  0  0  0  0  0  0
   41.7160   33.6200   39.2520 C   0  0  0  0  0  0  0  0  0  0  0  0
   41.4170   33.4430   40.5930 C   0  0  0  0  0  3  0  0  0  0  0  0
   36.9080   33.0400   40.3040 N   0  0  0  0  0  0  0  0  0  0  0  0
   37.4210   33.4690   39.5140 H   0  0  0  0  0  0  0  0  0  0  0  0
   36.2630   33.6590   40.8090 H   0  0  0  0  0  0  0  0  0  0  0  0
  1  7  1  0  0  0  0
  1  6  1  0  0  0  0
  2  1  2  0  0  0  0
  3  2  1  0  0  0  0
  3  4  2  0  0  0  0
  4  5  1  0  0  0  0
  5  6  2  0  0  0  0
  5  8  1  0  0  0  0
  8 17  1  0  0  0  0
  9 10  1  0  0  0  0
  9  8  2  0  0  0  0
 10 11  2  0  0  0  0
 11 12  1  0  0  0  0
 12 13  1  0  0  0  0
 13 19  1  0  0  0  0
 13 14  2  0  0  0  0
 14 20  1  0  0  0  0
 15 14  1  0  0  0  0
 15 21  1  0  0  0  0
 16 15  2  0  0  0  0
 17 12  2  0  0  0  0
 17 16  1  0  0  0  0
 18 10  1  0  0  0  0
 22 16  1  0  0  0  0
 24  3  1  0  0  0  0
 24 23  2  0  0  0  0
 25 24  1  0  0  0  0
 26 25  1  0  0  0  0
 27 25  2  0  0  0  0
 27 33  1  0  0  0  0
 28 30  1  0  0  0  0
 28 27  1  0  0  0  0
 29 28  1  0  0  0  0
 30 31  2  0  0  0  0
 31 32  1  0  0  0  0
 31 33  1  0  0  0  0
 33 34  2  0  0  0  0
 34 23  1  0  0  0  0
 35  2  1  0  0  0  0
 35 37  1  0  0  0  0
 36 35  1  0  0  0  0
M  END
>  <minimizedAffinity>
-7.36544371

$$$$

 OpenBabel03252502033D

 37 41  0  0  0  0  0  0  0  0999 V2000
   37.1850   32.2500   40.0800 C   0  0  0  0  0  0  0  0  0  0  0  0
   36.8650   31.0330   40.6450 C   0  0  0  0  0  0  0  0  0  0  0  0
   37.7920   30.0410   40.4890 C   0  0  0  0  0  0  0  0  0  0  0  0
   38.9340   30.2720   39.8200 N   0  0  0  0  0  0  0  0  0  0  0  0
   39.2350   31.4420   39.2800 C   0  0  0  0  0  0  0  0  0  0  0  0
   38.3280   32.4040   39.4360 N   0  0  0  0  0  0  0  0  0  0  0  0
   36.4380   33.0470   40.2070 H   0  0  0  0  0  0  0  0  0  0  0  0
   40.4000   31.9130   38.5200 C   0  0  0  0  0  0  0  0  0  0  0  0
   40.8410   33.1930   38.5400 N   0  0  0  0  0  0  0  0  0  0  0  0
   41.8820   33.6650   37.8750 C   0  0  0  0  0  0  0  0  0  0  0  0
   42.6090   32.8280   37.0850 N   0  0  0  0  0  0  0  0  0  0  0  0
   42.2660   31.5320   36.9860 C   0  0  0  0  0  0  0  0  0  0  0  0
   43.0070   30.6800   36.1820 C   0  0  0  0  0  0  0  0  0  0  0  0
   42.6750   29.3580   36.0660 C   0  0  0  0  0  0  0  0  0  0  0  0
   41.5760   28.9080   36.7820 C   0  0  0  0  0  0  0  0  0  0  0  0
   40.8700   29.7870   37.5680 C   0  0  0  0  0  0  0  0  0  0  0  0
   41.1650   31.1130   37.7120 C   0  0  0  0  0  0  0  0  0  0  0  0
   42.1600   34.7000   37.9500 H   0  0  0  0  0  0  0  0  0  0  0  0
   43.8570   31.0880   35.6450 H   0  0  0  0  0  0  0  0  0  0  0  0
   43.3010   28.7560   35.4200 H   0  0  0  0  0  0  0  0  0  0  0  0
   41.3190   27.8680   36.6880 H   0  0  0  0  0  0  0  0  0  0  0  0
   40.0160   29.3790   38.1070 H   0  0  0  0  0  0  0  0  0  0  0  0
   37.7590   28.5010   42.3780 C   0  0  0  0  0  3  0  0  0  0  0  0
   37.5840   28.7290   41.0270 C   0  0  0  0  0  0  0  0  0  0  0  0
   37.2060   27.6960   40.1850 C   0  0  0  0  0  0  0  0  0  0  0  0
   37.0680   27.8560   39.1450 H   0  0  0  0  0  0  0  0  0  0  0  0
   37.0200   26.4430   40.7750 C   0  0  0  0  0  0  0  0  0  0  0  0
   36.6520   25.2810   40.1590 N   0  0  0  0  0  0  0  0  0  0  0  0
   36.4480   25.1450   39.1330 H   0  0  0  0  0  0  0  0  0  0  0  0
   36.5950   24.3420   41.0900 N   0  0  0  0  0  0  0  0  0  0  0  0
   36.9140   24.8710   42.2760 C   0  0  0  0  0  0  0  0  0  0  0  0
   36.9620   24.3670   43.2460 H   0  0  0  0  0  0  0  0  0  0  0  0
   37.1910   26.2060   42.1130 C   0  0  0  0  0  0  0  0  0  0  0  0
   37.5690   27.2490   42.9420 C   0  0  0  0  0  3  0  0  0  0  0  0
   35.6560   30.8460   41.3360 N   0  0  0  0  0  0  0  0  0  0  0  0
   35.7390   30.2360   42.1690 H   0  0  0  0  0  0  0  0  0  0  0  0
   34.7180   31.2150   41.1420 H   0  0  0  0  0  0  0  0  0  0  0  0
  1  7  1  0  0  0  0
  1  2  1  0  0  0  0
  2 35  1  0  0  0  0
  3  2  2  0  0  0  0
  3 24  1  0  0  0  0
  4  3  1  0  0  0  0
  5  6  1  0  0  0  0
  5  4  2  0  0  0  0
  6  1  2  0  0  0  0
  8  9  1  0  0  0  0
  8  5  1  0  0  0  0
 10 18  1  0  0  0  0
 10  9  2  0  0  0  0
 11 10  1  0  0  0  0
 12 11  2  0  0  0  0
 12 17  1  0  0  0  0
 13 12  1  0  0  0  0
 14 13  2  0  0  0  0
 14 15  1  0  0  0  0
 15 16  2  0  0  0  0
 16 17  1  0  0  0  0
 16 22  1  0  0  0  0
 17  8  2  0  0  0  0
 19 13  1  0  0  0  0
 20 14  1  0  0  0  0
 21 15  1  0  0  0  0
 23 34  1  0  0  0  0
 24 23  2  0  0  0  0
 25 27  2  0  0  0  0
 25 24  1  0  0  0  0
 26 25  1  0  0  0  0
 27 33  1  0  0  0  0
 28 27  1  0  0  0  0
 28 30  1  0  0  0  0
 29 28  1  0  0  0  0
 30 31  2  0  0  0  0
 31 32  1  0  0  0  0
 33 31  1  0  0  0  0
 33 34  2  0  0  0  0
 35 36  1  0  0  0  0
 37 35  1  0  0  0  0
M  END
>  <minimizedAffinity>
-7.19299698

$$$$

 OpenBabel03252502033D

 37 41  0  0  0  0  0  0  0  0999 V2000
   37.2740   32.3570   40.2630 C   0  0  0  0  0  0  0  0  0  0  0  0
   36.9320   31.1170   40.7590 C   0  0  0  0  0  0  0  0  0  0  0  0
   37.9110   30.1640   40.7100 C   0  0  0  0  0  0  0  0  0  0  0  0
   39.1210   30.4540   40.2020 N   0  0  0  0  0  0  0  0  0  0  0  0
   39.4430   31.6470   39.7270 C   0  0  0  0  0  0  0  0  0  0  0  0
   38.4840   32.5700   39.7790 N   0  0  0  0  0  0  0  0  0  0  0  0
   36.4850   33.1230   40.3040 H   0  0  0  0  0  0  0  0  0  0  0  0
   40.6780   32.1790   39.1370 C   0  0  0  0  0  0  0  0  0  0  0  0
   40.8460   32.3850   37.8090 N   0  0  0  0  0  0  0  0  0  0  0  0
   41.9370   32.8610   37.2310 C   0  0  0  0  0  0  0  0  0  0  0  0
   43.0140   33.1880   37.9960 N   0  0  0  0  0  0  0  0  0  0  0  0
   42.9630   33.0260   39.3300 C   0  0  0  0  0  0  0  0  0  0  0  0
   44.0610   33.3600   40.1080 C   0  0  0  0  0  0  0  0  0  0  0  0
   44.0310   33.2030   41.4670 C   0  0  0  0  0  0  0  0  0  0  0  0
   42.8680   32.7010   42.0290 C   0  0  0  0  0  0  0  0  0  0  0  0
   41.8030   32.3830   41.2200 C   0  0  0  0  0  0  0  0  0  0  0  0
   41.7890   32.5240   39.8610 C   0  0  0  0  0  0  0  0  0  0  0  0
   41.9820   32.9920   36.1660 H   0  0  0  0  0  0  0  0  0  0  0  0
   44.9440   33.7490   39.6130 H   0  0  0  0  0  0  0  0  0  0  0  0
   44.9260   33.4860   42.0070 H   0  0  0  0  0  0  0  0  0  0  0  0
   42.8490   32.5800   43.0980 H   0  0  0  0  0  0  0  0  0  0  0  0
   40.9150   31.9930   41.7150 H   0  0  0  0  0  0  0  0  0  0  0  0
   37.8510   28.5490   42.5340 C   0  0  0  0  0  3  0  0  0  0  0  0
   37.6880   28.8330   41.1920 C   0  0  0  0  0  0  0  0  0  0  0  0
   37.3070   27.8390   40.3060 C   0  0  0  0  0  0  0  0  0  0  0  0
   37.1780   28.0430   39.2720 H   0  0  0  0  0  0  0  0  0  0  0  0
   37.1060   26.5660   40.8430 C   0  0  0  0  0  0  0  0  0  0  0  0
   36.7320   25.4330   40.1780 N   0  0  0  0  0  0  0  0  0  0  0  0
   36.5350   25.3400   39.1450 H   0  0  0  0  0  0  0  0  0  0  0  0
   36.6600   24.4570   41.0690 N   0  0  0  0  0  0  0  0  0  0  0  0
   36.9750   24.9350   42.2780 C   0  0  0  0  0  0  0  0  0  0  0  0
   37.0120   24.3910   43.2260 H   0  0  0  0  0  0  0  0  0  0  0  0
   37.2650   26.2720   42.1710 C   0  0  0  0  0  0  0  0  0  0  0  0
   37.6460   27.2770   43.0450 C   0  0  0  0  0  3  0  0  0  0  0  0
   35.6510   30.8680   41.2800 N   0  0  0  0  0  0  0  0  0  0  0  0
   35.6490   30.2430   42.1050 H   0  0  0  0  0  0  0  0  0  0  0  0
   34.7330   31.2060   40.9700 H   0  0  0  0  0  0  0  0  0  0  0  0
  1  7  1  0  0  0  0
  1  2  1  0  0  0  0
  2 35  1  0  0  0  0
  3  2  2  0  0  0  0
  3 24  1  0  0  0  0
  4  3  1  0  0  0  0
  5  6  1  0  0  0  0
  5  4  2  0  0  0  0
  6  1  2  0  0  0  0
  8  5  1  0  0  0  0
  8 17  1  0  0  0  0
  9  8  2  0  0  0  0
 10  9  1  0  0  0  0
 10 11  2  0  0  0  0
 11 12  1  0  0  0  0
 12 17  2  0  0  0  0
 12 13  1  0  0  0  0
 13 14  2  0  0  0  0
 14 20  1  0  0  0  0
 14 15  1  0  0  0  0
 15 21  1  0  0  0  0
 16 22  1  0  0  0  0
 16 15  2  0  0  0  0
 17 16  1  0  0  0  0
 18 10  1  0  0  0  0
 19 13  1  0  0  0  0
 23 34  1  0  0  0  0
 24 23  2  0  0  0  0
 25 27  2  0  0  0  0
 25 24  1  0  0  0  0
 26 25  1  0  0  0  0
 27 33  1  0  0  0  0
 28 27  1  0  0  0  0
 28 30  1  0  0  0  0
 29 28  1  0  0  0  0
 30 31  2  0  0  0  0
 31 32  1  0  0  0  0
 33 31  1  0  0  0  0
 33 34  2  0  0  0  0
 35 36  1  0  0  0  0
 37 35  1  0  0  0  0
M  END
>  <minimizedAffinity>
-6.79264402

$$$$

 OpenBabel03252502033D

 37 41  0  0  0  0  0  0  0  0999 V2000
   39.2490   34.4770   40.2050 C   0  0  0  0  0  0  0  0  0  0  0  0
   38.5660   33.2990   40.4240 C   0  0  0  0  0  0  0  0  0  0  0  0
   39.3290   32.2240   40.7860 C   0  0  0  0  0  0  0  0  0  0  0  0
   40.6620   32.3450   40.9110 N   0  0  0  0  0  0  0  0  0  0  0  0
   41.3110   33.4780   40.6990 C   0  0  0  0  0  0  0  0  0  0  0  0
   40.5610   34.5200   40.3470 N   0  0  0  0  0  0  0  0  0  0  0  0
   38.6330   35.3400   39.9150 H   0  0  0  0  0  0  0  0  0  0  0  0
   42.7340   33.8340   40.7750 C   0  0  0  0  0  0  0  0  0  0  0  0
   43.3120   34.3860   41.8680 N   0  0  0  0  0  0  0  0  0  0  0  0
   44.5860   34.7240   41.9840 C   0  0  0  0  0  0  0  0  0  0  0  0
   45.4320   34.5190   40.9380 N   0  0  0  0  0  0  0  0  0  0  0  0
   44.9710   33.9770   39.7970 C   0  0  0  0  0  0  0  0  0  0  0  0
   45.8340   33.7700   38.7320 C   0  0  0  0  0  0  0  0  0  0  0  0
   45.3860   33.2190   37.5620 C   0  0  0  0  0  0  0  0  0  0  0  0
   44.0440   32.8810   37.4870 C   0  0  0  0  0  0  0  0  0  0  0  0
   43.2230   33.1040   38.5670 C   0  0  0  0  0  0  0  0  0  0  0  0
   43.6280   33.6500   39.7510 C   0  0  0  0  0  0  0  0  0  0  0  0
   44.9590   35.1570   42.8930 H   0  0  0  0  0  0  0  0  0  0  0  0
   46.8740   34.0540   38.8490 H   0  0  0  0  0  0  0  0  0  0  0  0
   46.1190   33.0880   36.7770 H   0  0  0  0  0  0  0  0  0  0  0  0
   43.6960   32.4490   36.5650 H   0  0  0  0  0  0  0  0  0  0  0  0
   42.1790   32.8190   38.4510 H   0  0  0  0  0  0  0  0  0  0  0  0
   38.6080   30.0270   40.0160 C   0  0  0  0  0  3  0  0  0  0  0  0
   38.7450   30.9410   41.0430 C   0  0  0  0  0  0  0  0  0  0  0  0
   38.3210   30.6270   42.3240 C   0  0  0  0  0  0  0  0  0  0  0  0
   38.4190   31.3190   43.1220 H   0  0  0  0  0  0  0  0  0  0  0  0
   37.7610   29.3600   42.5040 C   0  0  0  0  0  0  0  0  0  0  0  0
   37.2740   28.8240   43.6610 N   0  0  0  0  0  0  0  0  0  0  0  0
   37.2430   29.2850   44.6100 H   0  0  0  0  0  0  0  0  0  0  0  0
   36.8400   27.6050   43.3810 N   0  0  0  0  0  0  0  0  0  0  0  0
   37.0370   27.3510   42.0820 C   0  0  0  0  0  0  0  0  0  0  0  0
   36.7920   26.4380   41.5320 H   0  0  0  0  0  0  0  0  0  0  0  0
   37.6210   28.4450   41.4940 C   0  0  0  0  0  0  0  0  0  0  0  0
   38.0500   28.7750   40.2190 C   0  0  0  0  0  3  0  0  0  0  0  0
   37.1700   33.2280   40.2800 N   0  0  0  0  0  0  0  0  0  0  0  0
   36.7060   32.6210   40.9780 H   0  0  0  0  0  0  0  0  0  0  0  0
   36.5510   33.6810   39.5970 H   0  0  0  0  0  0  0  0  0  0  0  0
  1  6  2  0  0  0  0
  1  2  1  0  0  0  0
  2  3  2  0  0  0  0
  3  4  1  0  0  0  0
  3 24  1  0  0  0  0
  5  8  1  0  0  0  0
  5  4  2  0  0  0  0
  6  5  1  0  0  0  0
  7  1  1  0  0  0  0
  8  9  1  0  0  0  0
  9 10  2  0  0  0  0
 10 18  1  0  0  0  0
 11 10  1  0  0  0  0
 12 11  2  0  0  0  0
 13 19  1  0  0  0  0
 13 12  1  0  0  0  0
 14 13  2  0  0  0  0
 15 14  1  0  0  0  0
 15 16  2  0  0  0  0
 16 17  1  0  0  0  0
 17 12  1  0  0  0  0
 17  8  2  0  0  0  0
 20 14  1  0  0  0  0
 21 15  1  0  0  0  0
 22 16  1  0  0  0  0
 23 34  2  0  0  0  0
 23 24  1  0  0  0  0
 24 25  2  0  0  0  0
 25 27  1  0  0  0  0
 25 26  1  0  0  0  0
 27 28  1  0  0  0  0
 28 29  1  0  0  0  0
 30 28  1  0  0  0  0
 31 30  2  0  0  0  0
 32 31  1  0  0  0  0
 33 31  1  0  0  0  0
 33 27  2  0  0  0  0
 34 33  1  0  0  0  0
 35  2  1  0  0  0  0
 35 36  1  0  0  0  0
 37 35  1  0  0  0  0
M  END
>  <minimizedAffinity>
-6.76515961

$$$$

 OpenBabel03252502033D

 37 41  0  0  0  0  0  0  0  0999 V2000
   37.8820   31.3680   38.5080 C   0  0  0  0  0  0  0  0  0  0  0  0
   39.0310   31.3550   37.7440 C   0  0  0  0  0  0  0  0  0  0  0  0
   40.0090   30.4910   38.1530 C   0  0  0  0  0  0  0  0  0  0  0  0
   39.8280   29.7180   39.2380 N   0  0  0  0  0  0  0  0  0  0  0  0
   38.7230   29.7360   39.9650 C   0  0  0  0  0  0  0  0  0  0  0  0
   37.7750   30.5790   39.5610 N   0  0  0  0  0  0  0  0  0  0  0  0
   37.0970   32.0630   38.1770 H   0  0  0  0  0  0  0  0  0  0  0  0
   38.3140   28.9940   41.1650 C   0  0  0  0  0  0  0  0  0  0  0  0
   38.3380   29.5160   42.4140 N   0  0  0  0  0  0  0  0  0  0  0  0
   37.9800   28.8900   43.5230 C   0  0  0  0  0  0  0  0  0  0  0  0
   37.5430   27.6030   43.4560 N   0  0  0  0  0  0  0  0  0  0  0  0
   37.4770   26.9780   42.2670 C   0  0  0  0  0  0  0  0  0  0  0  0
   37.0320   25.6670   42.1990 C   0  0  0  0  0  0  0  0  0  0  0  0
   36.9560   25.0120   41.0000 C   0  0  0  0  0  0  0  0  0  0  0  0
   37.3410   25.7090   39.8650 C   0  0  0  0  0  0  0  0  0  0  0  0
   37.7770   27.0080   39.9780 C   0  0  0  0  0  0  0  0  0  0  0  0
   37.8670   27.6980   41.1520 C   0  0  0  0  0  0  0  0  0  0  0  0
   38.0310   29.3840   44.4750 H   0  0  0  0  0  0  0  0  0  0  0  0
   36.7440   25.1720   43.1200 H   0  0  0  0  0  0  0  0  0  0  0  0
   36.5990   23.9910   41.0270 H   0  0  0  0  0  0  0  0  0  0  0  0
   37.2800   25.1900   38.9240 H   0  0  0  0  0  0  0  0  0  0  0  0
   38.0660   27.5050   39.0530 H   0  0  0  0  0  0  0  0  0  0  0  0
   41.5320   29.2400   36.7190 C   0  0  0  0  0  3  0  0  0  0  0  0
   41.2520   30.3790   37.4490 C   0  0  0  0  0  0  0  0  0  0  0  0
   42.1670   31.4180   37.5060 C   0  0  0  0  0  0  0  0  0  0  0  0
   41.9660   32.2990   38.0630 H   0  0  0  0  0  0  0  0  0  0  0  0
   43.3570   31.2430   36.7970 C   0  0  0  0  0  0  0  0  0  0  0  0
   44.4030   32.1150   36.7000 N   0  0  0  0  0  0  0  0  0  0  0  0
   44.4780   33.0670   37.1500 H   0  0  0  0  0  0  0  0  0  0  0  0
   45.3220   31.5490   35.9330 N   0  0  0  0  0  0  0  0  0  0  0  0
   44.8900   30.3460   35.5380 C   0  0  0  0  0  0  0  0  0  0  0  0
   45.4060   29.6240   34.9000 H   0  0  0  0  0  0  0  0  0  0  0  0
   43.6450   30.1180   36.0700 C   0  0  0  0  0  0  0  0  0  0  0  0
   42.7200   29.0880   36.0230 C   0  0  0  0  0  3  0  0  0  0  0  0
   39.1680   32.1840   36.6190 N   0  0  0  0  0  0  0  0  0  0  0  0
   39.6700   31.7410   35.8300 H   0  0  0  0  0  0  0  0  0  0  0  0
   38.8500   33.1480   36.4640 H   0  0  0  0  0  0  0  0  0  0  0  0
  1  6  1  0  0  0  0
  2  3  1  0  0  0  0
  2  1  2  0  0  0  0
  3  4  2  0  0  0  0
  4  5  1  0  0  0  0
  5  8  1  0  0  0  0
  6  5  2  0  0  0  0
  7  1  1  0  0  0  0
  8  9  1  0  0  0  0
  9 10  2  0  0  0  0
 10 18  1  0  0  0  0
 11 10  1  0  0  0  0
 12 11  2  0  0  0  0
 13 12  1  0  0  0  0
 13 19  1  0  0  0  0
 14 20  1  0  0  0  0
 14 13  2  0  0  0  0
 15 16  2  0  0  0  0
 15 14  1  0  0  0  0
 16 17  1  0  0  0  0
 17  8  2  0  0  0  0
 17 12  1  0  0  0  0
 21 15  1  0  0  0  0
 22 16  1  0  0  0  0
 23 24  1  0  0  0  0
 24 25  2  0  0  0  0
 24  3  1  0  0  0  0
 25 26  1  0  0  0  0
 27 25  1  0  0  0  0
 28 27  1  0  0  0  0
 28 29  1  0  0  0  0
 30 28  1  0  0  0  0
 31 30  2  0  0  0  0
 31 33  1  0  0  0  0
 32 31  1  0  0  0  0
 33 27  2  0  0  0  0
 34 33  1  0  0  0  0
 34 23  2  0  0  0  0
 35  2  1  0  0  0  0
 36 35  1  0  0  0  0
 37 35  1  0  0  0  0
M  END
>  <minimizedAffinity>
-6.70220804

$$$$

 OpenBabel03252502033D

 37 41  0  0  0  0  0  0  0  0999 V2000
   37.0100   30.3950   37.0510 C   0  0  0  0  0  0  0  0  0  0  0  0
   38.0780   31.2670   37.0500 C   0  0  0  0  0  0  0  0  0  0  0  0
   39.0650   31.0020   37.9570 C   0  0  0  0  0  0  0  0  0  0  0  0
   38.9670   29.9470   38.7840 N   0  0  0  0  0  0  0  0  0  0  0  0
   37.9390   29.1150   38.7800 C   0  0  0  0  0  0  0  0  0  0  0  0
   36.9810   29.3790   37.8930 N   0  0  0  0  0  0  0  0  0  0  0  0
   36.2170   30.6100   36.3200 H   0  0  0  0  0  0  0  0  0  0  0  0
   37.6260   27.9210   39.5770 C   0  0  0  0  0  0  0  0  0  0  0  0
   37.4350   26.6920   39.0430 N   0  0  0  0  0  0  0  0  0  0  0  0
   37.1520   25.5890   39.7170 C   0  0  0  0  0  0  0  0  0  0  0  0
   37.0310   25.6430   41.0710 N   0  0  0  0  0  0  0  0  0  0  0  0
   37.1990   26.8120   41.7140 C   0  0  0  0  0  0  0  0  0  0  0  0
   37.0760   26.8660   43.0930 C   0  0  0  0  0  0  0  0  0  0  0  0
   37.2430   28.0450   43.7680 C   0  0  0  0  0  0  0  0  0  0  0  0
   37.5380   29.1740   43.0200 C   0  0  0  0  0  0  0  0  0  0  0  0
   37.6520   29.0750   41.6540 C   0  0  0  0  0  0  0  0  0  0  0  0
   37.4940   27.9210   40.9420 C   0  0  0  0  0  0  0  0  0  0  0  0
   37.0170   24.6530   39.2080 H   0  0  0  0  0  0  0  0  0  0  0  0
   36.8430   25.9500   43.6260 H   0  0  0  0  0  0  0  0  0  0  0  0
   37.1310   28.0080   44.8440 H   0  0  0  0  0  0  0  0  0  0  0  0
   37.6690   30.0990   43.5540 H   0  0  0  0  0  0  0  0  0  0  0  0
   37.8850   29.9940   41.1180 H   0  0  0  0  0  0  0  0  0  0  0  0
   40.2260   32.9250   38.9020 C   0  0  0  0  0  3  0  0  0  0  0  0
   40.2310   31.8290   38.0610 C   0  0  0  0  0  0  0  0  0  0  0  0
   41.3570   31.5220   37.3150 C   0  0  0  0  0  0  0  0  0  0  0  0
   41.3750   30.6830   36.6650 H   0  0  0  0  0  0  0  0  0  0  0  0
   42.4570   32.3700   37.4650 C   0  0  0  0  0  0  0  0  0  0  0  0
   43.6690   32.2750   36.8430 N   0  0  0  0  0  0  0  0  0  0  0  0
   43.9680   31.5420   36.1460 H   0  0  0  0  0  0  0  0  0  0  0  0
   44.4140   33.2820   37.2740 N   0  0  0  0  0  0  0  0  0  0  0  0
   43.7130   34.0100   38.1500 C   0  0  0  0  0  0  0  0  0  0  0  0
   44.0350   34.9050   38.6890 H   0  0  0  0  0  0  0  0  0  0  0  0
   42.4650   33.4590   38.2950 C   0  0  0  0  0  0  0  0  0  0  0  0
   41.3300   33.7530   39.0340 C   0  0  0  0  0  3  0  0  0  0  0  0
   38.1310   32.3550   36.1620 N   0  0  0  0  0  0  0  0  0  0  0  0
   39.0790   32.5520   35.7960 H   0  0  0  0  0  0  0  0  0  0  0  0
   37.3830   32.9730   35.8270 H   0  0  0  0  0  0  0  0  0  0  0  0
  1  6  1  0  0  0  0
  2  1  2  0  0  0  0
  2  3  1  0  0  0  0
  3 24  1  0  0  0  0
  3  4  2  0  0  0  0
  5  4  1  0  0  0  0
  5  8  1  0  0  0  0
  6  5  2  0  0  0  0
  7  1  1  0  0  0  0
  8 17  1  0  0  0  0
  9  8  2  0  0  0  0
  9 10  1  0  0  0  0
 10 11  2  0  0  0  0
 11 12  1  0  0  0  0
 12 13  1  0  0  0  0
 13 19  1  0  0  0  0
 13 14  2  0  0  0  0
 14 20  1  0  0  0  0
 15 21  1  0  0  0  0
 15 14  1  0  0  0  0
 16 15  2  0  0  0  0
 17 16  1  0  0  0  0
 17 12  2  0  0  0  0
 18 10  1  0  0  0  0
 22 16  1  0  0  0  0
 23 34  1  0  0  0  0
 24 23  2  0  0  0  0
 25 27  2  0  0  0  0
 25 24  1  0  0  0  0
 26 25  1  0  0  0  0
 27 33  1  0  0  0  0
 28 30  1  0  0  0  0
 28 27  1  0  0  0  0
 29 28  1  0  0  0  0
 30 31  2  0  0  0  0
 31 33  1  0  0  0  0
 31 32  1  0  0  0  0
 33 34  2  0  0  0  0
 35  2  1  0  0  0  0
 36 35  1  0  0  0  0
 37 35  1  0  0  0  0
M  END
>  <minimizedAffinity>
-6.67924643

$$$$

 OpenBabel03252502033D

 37 41  0  0  0  0  0  0  0  0999 V2000
   38.2610   31.4990   38.5270 C   0  0  0  0  0  0  0  0  0  0  0  0
   39.4040   31.4820   37.7550 C   0  0  0  0  0  0  0  0  0  0  0  0
   40.3170   30.5130   38.0640 C   0  0  0  0  0  0  0  0  0  0  0  0
   40.0830   29.6470   39.0650 N   0  0  0  0  0  0  0  0  0  0  0  0
   38.9840   29.6690   39.8010 C   0  0  0  0  0  0  0  0  0  0  0  0
   38.0980   30.6150   39.4940 N   0  0  0  0  0  0  0  0  0  0  0  0
   37.5260   32.2790   38.2770 H   0  0  0  0  0  0  0  0  0  0  0  0
   38.5240   28.8390   40.9220 C   0  0  0  0  0  0  0  0  0  0  0  0
   37.2250   28.5240   41.1390 N   0  0  0  0  0  0  0  0  0  0  0  0
   36.7630   27.7820   42.1320 C   0  0  0  0  0  0  0  0  0  0  0  0
   37.6310   27.2650   43.0430 N   0  0  0  0  0  0  0  0  0  0  0  0
   38.9480   27.5100   42.9300 C   0  0  0  0  0  0  0  0  0  0  0  0
   39.8320   26.9830   43.8590 C   0  0  0  0  0  0  0  0  0  0  0  0
   41.1760   27.2200   43.7640 C   0  0  0  0  0  0  0  0  0  0  0  0
   41.6140   28.0030   42.7070 C   0  0  0  0  0  0  0  0  0  0  0  0
   40.7030   28.5060   41.8080 C   0  0  0  0  0  0  0  0  0  0  0  0
   39.3560   28.2940   41.8660 C   0  0  0  0  0  0  0  0  0  0  0  0
   35.7120   27.5830   42.2270 H   0  0  0  0  0  0  0  0  0  0  0  0
   39.4310   26.3770   44.6650 H   0  0  0  0  0  0  0  0  0  0  0  0
   41.8020   26.7740   44.5260 H   0  0  0  0  0  0  0  0  0  0  0  0
   42.6720   28.1870   42.6360 H   0  0  0  0  0  0  0  0  0  0  0  0
   41.1040   29.1140   40.9990 H   0  0  0  0  0  0  0  0  0  0  0  0
   41.8060   29.2390   36.6150 C   0  0  0  0  0  3  0  0  0  0  0  0
   41.5480   30.3850   37.3410 C   0  0  0  0  0  0  0  0  0  0  0  0
   42.4730   31.4170   37.3750 C   0  0  0  0  0  0  0  0  0  0  0  0
   42.2880   32.3030   37.9290 H   0  0  0  0  0  0  0  0  0  0  0  0
   43.6500   31.2260   36.6480 C   0  0  0  0  0  0  0  0  0  0  0  0
   44.7010   32.0890   36.5290 N   0  0  0  0  0  0  0  0  0  0  0  0
   44.7910   33.0430   36.9700 H   0  0  0  0  0  0  0  0  0  0  0  0
   45.6020   31.5090   35.7510 N   0  0  0  0  0  0  0  0  0  0  0  0
   45.1540   30.3070   35.3720 C   0  0  0  0  0  0  0  0  0  0  0  0
   45.6540   29.5760   34.7300 H   0  0  0  0  0  0  0  0  0  0  0  0
   43.9160   30.0940   35.9250 C   0  0  0  0  0  0  0  0  0  0  0  0
   42.9810   29.0720   35.9010 C   0  0  0  0  0  3  0  0  0  0  0  0
   39.5980   32.4120   36.7200 N   0  0  0  0  0  0  0  0  0  0  0  0
   40.0660   32.0180   35.8850 H   0  0  0  0  0  0  0  0  0  0  0  0
   39.3510   33.4070   36.6680 H   0  0  0  0  0  0  0  0  0  0  0  0
  1  6  1  0  0  0  0
  2  3  1  0  0  0  0
  2  1  2  0  0  0  0
  3  4  2  0  0  0  0
  4  5  1  0  0  0  0
  5  8  1  0  0  0  0
  6  5  2  0  0  0  0
  7  1  1  0  0  0  0
  8  9  2  0  0  0  0
  8 17  1  0  0  0  0
  9 10  1  0  0  0  0
 10 18  1  0  0  0  0
 10 11  2  0  0  0  0
 12 11  1  0  0  0  0
 12 13  1  0  0  0  0
 13 19  1  0  0  0  0
 14 13  2  0  0  0  0
 14 20  1  0  0  0  0
 15 14  1  0  0  0  0
 16 17  1  0  0  0  0
 16 15  2  0  0  0  0
 17 12  2  0  0  0  0
 21 15  1  0  0  0  0
 22 16  1  0  0  0  0
 23 24  1  0  0  0  0
 24 25  2  0  0  0  0
 24  3  1  0  0  0  0
 25 26  1  0  0  0  0
 27 25  1  0  0  0  0
 28 27  1  0  0  0  0
 28 29  1  0  0  0  0
 30 28  1  0  0  0  0
 31 30  2  0  0  0  0
 31 33  1  0  0  0  0
 32 31  1  0  0  0  0
 33 27  2  0  0  0  0
 34 33  1  0  0  0  0
 34 23  2  0  0  0  0
 35  2  1  0  0  0  0
 36 35  1  0  0  0  0
 37 35  1  0  0  0  0
M  END
>  <minimizedAffinity>
-6.63546085

$$$$

 OpenBabel03252502033D

 37 41  0  0  0  0  0  0  0  0999 V2000
   35.7930   30.2330   40.9240 C   0  0  0  0  0  0  0  0  0  0  0  0
   36.8390   31.0460   40.5390 C   0  0  0  0  0  0  0  0  0  0  0  0
   38.0090   30.4090   40.2330 C   0  0  0  0  0  0  0  0  0  0  0  0
   38.0980   29.0700   40.3130 N   0  0  0  0  0  0  0  0  0  0  0  0
   37.0910   28.2960   40.6830 C   0  0  0  0  0  0  0  0  0  0  0  0
   35.9540   28.9240   40.9790 N   0  0  0  0  0  0  0  0  0  0  0  0
   34.8530   30.7480   41.1690 H   0  0  0  0  0  0  0  0  0  0  0  0
   36.9640   26.8410   40.8390 C   0  0  0  0  0  0  0  0  0  0  0  0
   37.2540   26.1810   41.9840 N   0  0  0  0  0  0  0  0  0  0  0  0
   37.1550   24.8750   42.1730 C   0  0  0  0  0  0  0  0  0  0  0  0
   36.7290   24.0800   41.1540 N   0  0  0  0  0  0  0  0  0  0  0  0
   36.4120   24.6250   39.9670 C   0  0  0  0  0  0  0  0  0  0  0  0
   35.9780   23.8140   38.9290 C   0  0  0  0  0  0  0  0  0  0  0  0
   35.6490   24.3460   37.7120 C   0  0  0  0  0  0  0  0  0  0  0  0
   35.7680   25.7190   37.5610 C   0  0  0  0  0  0  0  0  0  0  0  0
   36.2020   26.4860   38.6160 C   0  0  0  0  0  0  0  0  0  0  0  0
   36.5390   25.9960   39.8450 C   0  0  0  0  0  0  0  0  0  0  0  0
   37.4080   24.4360   43.1200 H   0  0  0  0  0  0  0  0  0  0  0  0
   35.9050   22.7460   39.1050 H   0  0  0  0  0  0  0  0  0  0  0  0
   35.3190   23.6500   36.9520 H   0  0  0  0  0  0  0  0  0  0  0  0
   35.5090   26.1330   36.6020 H   0  0  0  0  0  0  0  0  0  0  0  0
   36.2770   27.5580   38.4400 H   0  0  0  0  0  0  0  0  0  0  0  0
   40.1410   31.4720   40.7460 C   0  0  0  0  0  3  0  0  0  0  0  0
   39.1730   31.1350   39.8200 C   0  0  0  0  0  0  0  0  0  0  0  0
   39.3190   31.4940   38.4900 C   0  0  0  0  0  0  0  0  0  0  0  0
   38.5830   31.2430   37.7680 H   0  0  0  0  0  0  0  0  0  0  0  0
   40.4770   32.2010   38.1560 C   0  0  0  0  0  0  0  0  0  0  0  0
   40.8430   32.6610   36.9230 N   0  0  0  0  0  0  0  0  0  0  0  0
   40.3050   32.5550   36.0220 H   0  0  0  0  0  0  0  0  0  0  0  0
   42.0090   33.2730   37.0600 N   0  0  0  0  0  0  0  0  0  0  0  0
   42.3940   33.2140   38.3400 C   0  0  0  0  0  0  0  0  0  0  0  0
   43.3060   33.6210   38.7860 H   0  0  0  0  0  0  0  0  0  0  0  0
   41.4430   32.5400   39.0650 C   0  0  0  0  0  0  0  0  0  0  0  0
   41.2820   32.1730   40.3910 C   0  0  0  0  0  3  0  0  0  0  0  0
   36.6900   32.4420   40.4720 N   0  0  0  0  0  0  0  0  0  0  0  0
   37.1930   32.8790   39.6790 H   0  0  0  0  0  0  0  0  0  0  0  0
   36.1680   33.0830   41.0800 H   0  0  0  0  0  0  0  0  0  0  0  0
  1  6  1  0  0  0  0
  1  7  1  0  0  0  0
  2  1  2  0  0  0  0
  3  4  2  0  0  0  0
  3  2  1  0  0  0  0
  4  5  1  0  0  0  0
  5  8  1  0  0  0  0
  5  6  2  0  0  0  0
  8  9  1  0  0  0  0
  9 10  2  0  0  0  0
 10 18  1  0  0  0  0
 11 10  1  0  0  0  0
 12 11  2  0  0  0  0
 13 19  1  0  0  0  0
 13 12  1  0  0  0  0
 14 13  2  0  0  0  0
 15 14  1  0  0  0  0
 15 16  2  0  0  0  0
 16 17  1  0  0  0  0
 17 12  1  0  0  0  0
 17  8  2  0  0  0  0
 20 14  1  0  0  0  0
 21 15  1  0  0  0  0
 22 16  1  0  0  0  0
 24  3  1  0  0  0  0
 24 23  2  0  0  0  0
 25 24  1  0  0  0  0
 26 25  1  0  0  0  0
 27 25  2  0  0  0  0
 27 33  1  0  0  0  0
 28 30  1  0  0  0  0
 28 27  1  0  0  0  0
 29 28  1  0  0  0  0
 30 31  2  0  0  0  0
 31 32  1  0  0  0  0
 31 33  1  0  0  0  0
 33 34  2  0  0  0  0
 34 23  1  0  0  0  0
 35  2  1  0  0  0  0
 35 37  1  0  0  0  0
 36 35  1  0  0  0  0
M  END
>  <minimizedAffinity>
-6.5882206

$$$$
