
 OpenBabel03252506543D

 41 46  0  0  0  0  0  0  0  0999 V2000
   47.2590   31.3940   45.1610 C   0  0  0  0  0  0  0  0  0  0  0  0
   46.8660   32.7220   45.1390 C   0  0  0  0  0  0  0  0  0  0  0  0
   46.2330   33.3280   46.1960 C   0  0  0  0  0  0  0  0  0  0  0  0
   45.9600   32.6000   47.3550 C   0  0  0  0  0  0  0  0  0  0  0  0
   45.3700   32.8580   48.5540 N   0  0  0  0  0  0  0  0  0  0  0  0
   45.3980   31.7230   49.2960 C   0  0  0  0  0  0  0  0  0  0  0  0
   46.0060   30.7740   48.5420 N   0  0  0  0  0  0  0  0  0  0  0  0
   46.3590   31.2930   47.3460 C   0  0  0  0  0  0  0  0  0  0  0  0
   46.9960   30.6530   46.3080 C   0  0  0  0  0  0  0  0  0  0  0  0
   47.7580   30.9280   44.3200 H   0  0  0  0  0  0  0  0  0  0  0  0
   45.9160   34.3720   46.1950 H   0  0  0  0  0  0  0  0  0  0  0  0
   44.9880   33.7950   48.7840 H   0  0  0  0  0  0  0  0  0  0  0  0
   44.9980   31.6520   50.2850 H   0  0  0  0  0  0  0  0  0  0  0  0
   46.4890   35.1900   42.4300 C   0  0  0  0  0  0  0  0  0  0  0  0
   47.6610   35.0160   41.7050 C   0  0  0  0  0  0  0  0  0  0  0  0
   48.5780   34.0620   42.1350 C   0  0  0  0  0  0  0  0  0  0  0  0
   48.2850   33.3330   43.2590 N   0  0  0  0  0  0  0  0  0  0  0  0
   47.1310   33.5240   43.9480 C   0  0  0  0  0  0  0  0  0  0  0  0
   46.2490   34.4410   43.5360 N   0  0  0  0  0  0  0  0  0  0  0  0
   45.7890   35.9420   42.0720 H   0  0  0  0  0  0  0  0  0  0  0  0
   47.9030   35.5870   40.8140 H   0  0  0  0  0  0  0  0  0  0  0  0
   49.5200   33.8610   41.6260 H   0  0  0  0  0  0  0  0  0  0  0  0
   47.3780   29.2470   46.4090 C   0  0  0  0  0  0  0  0  0  0  0  0
   48.6750   28.8050   46.5910 C   0  0  0  0  0  0  0  0  0  0  0  0
   48.5520   27.4130   46.6280 C   0  0  0  0  0  0  0  0  0  0  0  0
   47.2210   27.0990   46.4690 C   0  0  0  0  0  0  0  0  0  0  0  0
   46.5600   28.2280   46.3410 O   0  0  0  0  0  0  0  0  0  0  0  0
   49.5900   29.3720   46.6880 H   0  0  0  0  0  0  0  0  0  0  0  0
   49.3430   26.6840   46.7550 H   0  0  0  0  0  0  0  0  0  0  0  0
   47.3490   24.7030   46.9200 C   0  0  0  0  0  3  0  0  0  0  0  0
   46.6090   25.7750   46.4390 C   0  0  0  0  0  0  0  0  0  0  0  0
   45.3330   25.5990   45.9460 C   0  0  0  0  0  0  0  0  0  0  0  0
   44.7400   26.4170   45.5670 H   0  0  0  0  0  0  0  0  0  0  0  0
   44.7990   24.3170   45.9420 C   0  0  0  0  0  0  0  0  0  0  0  0
   43.5750   23.8930   45.5120 N   0  0  0  0  0  0  0  0  0  0  0  0
   42.8040   24.4630   45.1000 H   0  0  0  0  0  0  0  0  0  0  0  0
   43.5040   22.5770   45.7020 N   0  0  0  0  0  0  0  0  0  0  0  0
   44.6520   22.1350   46.2460 C   0  0  0  0  0  0  0  0  0  0  0  0
   44.9540   21.1240   46.5390 H   0  0  0  0  0  0  0  0  0  0  0  0
   45.5020   23.2080   46.4140 C   0  0  0  0  0  0  0  0  0  0  0  0
   46.7710   23.4510   46.8930 C   0  0  0  0  0  3  0  0  0  0  0  0
  1  9  1  0  0  0  0
  2  1  2  0  0  0  0
  2  3  1  0  0  0  0
  3  4  2  0  0  0  0
  4  5  1  0  0  0  0
  5 12  1  0  0  0  0
  5  6  1  0  0  0  0
  6 13  1  0  0  0  0
  7  6  2  0  0  0  0
  8  4  1  0  0  0  0
  8  7  1  0  0  0  0
  9 23  1  0  0  0  0
  9  8  2  0  0  0  0
 10  1  1  0  0  0  0
 11  3  1  0  0  0  0
 14 19  1  0  0  0  0
 15 16  1  0  0  0  0
 15 14  2  0  0  0  0
 16 17  2  0  0  0  0
 17 18  1  0  0  0  0
 18  2  1  0  0  0  0
 19 18  2  0  0  0  0
 20 14  1  0  0  0  0
 21 15  1  0  0  0  0
 22 16  1  0  0  0  0
 23 24  2  0  0  0  0
 24 25  1  0  0  0  0
 24 28  1  0  0  0  0
 25 29  1  0  0  0  0
 26 25  2  0  0  0  0
 27 23  1  0  0  0  0
 27 26  1  0  0  0  0
 31 26  1  0  0  0  0
 31 30  2  0  0  0  0
 32 31  1  0  0  0  0
 33 32  1  0  0  0  0
 34 32  2  0  0  0  0
 34 40  1  0  0  0  0
 35 37  1  0  0  0  0
 35 34  1  0  0  0  0
 36 35  1  0  0  0  0
 37 38  2  0  0  0  0
 38 40  1  0  0  0  0
 38 39  1  0  0  0  0
 40 41  2  0  0  0  0
 41 30  1  0  0  0  0
M  END
>  <minimizedAffinity>
-5.68497086

>  <minimizedRMSD>
0.164164528

$$$$
