
 OpenBabel03252506543D

 41 46  0  0  0  0  0  0  0  0999 V2000
   47.2580   31.4640   45.3620 C   0  0  0  0  0  0  0  0  0  0  0  0
   46.6620   32.7130   45.3410 C   0  0  0  0  0  0  0  0  0  0  0  0
   45.8940   33.1880   46.3760 C   0  0  0  0  0  0  0  0  0  0  0  0
   45.6880   32.4020   47.5090 C   0  0  0  0  0  0  0  0  0  0  0  0
   45.0130   32.5380   48.6830 N   0  0  0  0  0  0  0  0  0  0  0  0
   45.1870   31.4050   49.4090 C   0  0  0  0  0  0  0  0  0  0  0  0
   45.9710   30.5800   48.6710 N   0  0  0  0  0  0  0  0  0  0  0  0
   46.2900   31.1750   47.5000 C   0  0  0  0  0  0  0  0  0  0  0  0
   47.0640   30.6660   46.4840 C   0  0  0  0  0  0  0  0  0  0  0  0
   47.8610   31.1000   44.5390 H   0  0  0  0  0  0  0  0  0  0  0  0
   45.4170   34.1700   46.3750 H   0  0  0  0  0  0  0  0  0  0  0  0
   44.4780   33.3970   48.9090 H   0  0  0  0  0  0  0  0  0  0  0  0
   44.7600   31.2510   50.3770 H   0  0  0  0  0  0  0  0  0  0  0  0
   46.0820   35.2690   42.7520 C   0  0  0  0  0  0  0  0  0  0  0  0
   47.2320   35.1740   41.9790 C   0  0  0  0  0  0  0  0  0  0  0  0
   48.2030   34.2430   42.3360 C   0  0  0  0  0  0  0  0  0  0  0  0
   47.9830   33.4580   43.4390 N   0  0  0  0  0  0  0  0  0  0  0  0
   46.8480   33.5730   44.1750 C   0  0  0  0  0  0  0  0  0  0  0  0
   45.9140   34.4670   43.8330 N   0  0  0  0  0  0  0  0  0  0  0  0
   45.3390   36.0040   42.4500 H   0  0  0  0  0  0  0  0  0  0  0  0
   47.4170   35.7900   41.1040 H   0  0  0  0  0  0  0  0  0  0  0  0
   49.1330   34.1040   41.7860 H   0  0  0  0  0  0  0  0  0  0  0  0
   47.6590   29.3350   46.5830 C   0  0  0  0  0  0  0  0  0  0  0  0
   49.0100   29.0990   46.7610 C   0  0  0  0  0  0  0  0  0  0  0  0
   49.1030   27.7030   46.7960 C   0  0  0  0  0  0  0  0  0  0  0  0
   47.8360   27.1880   46.6400 C   0  0  0  0  0  0  0  0  0  0  0  0
   47.0080   28.2020   46.5160 O   0  0  0  0  0  0  0  0  0  0  0  0
   49.8270   29.8000   46.8550 H   0  0  0  0  0  0  0  0  0  0  0  0
   49.9970   27.1050   46.9210 H   0  0  0  0  0  0  0  0  0  0  0  0
   48.4300   24.8210   46.6940 C   0  0  0  0  0  3  0  0  0  0  0  0
   47.4360   25.7860   46.6110 C   0  0  0  0  0  0  0  0  0  0  0  0
   46.1060   25.4350   46.5030 C   0  0  0  0  0  0  0  0  0  0  0  0
   45.3170   26.1680   46.4360 H   0  0  0  0  0  0  0  0  0  0  0  0
   45.7810   24.0850   46.4790 C   0  0  0  0  0  0  0  0  0  0  0  0
   44.5550   23.4940   46.3800 N   0  0  0  0  0  0  0  0  0  0  0  0
   43.6220   23.9540   46.3020 H   0  0  0  0  0  0  0  0  0  0  0  0
   44.7300   22.1740   46.3980 N   0  0  0  0  0  0  0  0  0  0  0  0
   46.0410   21.8920   46.5060 C   0  0  0  0  0  0  0  0  0  0  0  0
   46.5570   20.9270   46.5500 H   0  0  0  0  0  0  0  0  0  0  0  0
   46.7440   23.0780   46.5610 C   0  0  0  0  0  0  0  0  0  0  0  0
   48.0530   23.4940   46.6670 C   0  0  0  0  0  3  0  0  0  0  0  0
  1  9  1  0  0  0  0
  2  1  2  0  0  0  0
  2  3  1  0  0  0  0
  3  4  2  0  0  0  0
  4  5  1  0  0  0  0
  5 12  1  0  0  0  0
  5  6  1  0  0  0  0
  6 13  1  0  0  0  0
  7  6  2  0  0  0  0
  8  4  1  0  0  0  0
  8  7  1  0  0  0  0
  9 23  1  0  0  0  0
  9  8  2  0  0  0  0
 10  1  1  0  0  0  0
 11  3  1  0  0  0  0
 14 19  1  0  0  0  0
 15 16  1  0  0  0  0
 15 14  2  0  0  0  0
 16 17  2  0  0  0  0
 17 18  1  0  0  0  0
 18  2  1  0  0  0  0
 19 18  2  0  0  0  0
 20 14  1  0  0  0  0
 21 15  1  0  0  0  0
 22 16  1  0  0  0  0
 23 24  2  0  0  0  0
 24 25  1  0  0  0  0
 24 28  1  0  0  0  0
 25 29  1  0  0  0  0
 26 25  2  0  0  0  0
 27 23  1  0  0  0  0
 27 26  1  0  0  0  0
 31 26  1  0  0  0  0
 31 30  2  0  0  0  0
 32 31  1  0  0  0  0
 33 32  1  0  0  0  0
 34 32  2  0  0  0  0
 34 40  1  0  0  0  0
 35 37  1  0  0  0  0
 35 34  1  0  0  0  0
 36 35  1  0  0  0  0
 37 38  2  0  0  0  0
 38 39  1  0  0  0  0
 38 40  1  0  0  0  0
 40 41  2  0  0  0  0
 41 30  1  0  0  0  0
M  END
>  <minimizedAffinity>
-5.57453442

>  <minimizedRMSD>
0.874361515

$$$$
