
 OpenBabel03252505593D

 39 42  0  0  0  0  0  0  0  0999 V2000
   39.1540   31.9490   41.3930 C   0  0  0  0  0  0  0  0  0  0  0  0
   38.5660   31.6400   40.1660 C   0  0  0  0  0  0  0  0  0  0  0  0
   38.1390   30.3240   39.9870 C   0  0  0  0  0  0  0  0  0  0  0  0
   38.2990   29.4220   40.9600 N   0  0  0  0  0  0  0  0  0  0  0  0
   38.8780   29.7730   42.1370 C   0  0  0  0  0  0  0  0  0  0  0  0
   39.2950   31.0190   42.3410 N   0  0  0  0  0  0  0  0  0  0  0  0
   39.4960   32.9710   41.5570 H   0  0  0  0  0  0  0  0  0  0  0  0
   36.1070   29.7930   38.8750 C   0  0  0  0  0  3  0  0  0  0  0  0
   37.5020   29.8420   38.7710 C   0  0  0  0  0  0  0  0  0  0  0  0
   38.0340   29.4540   37.5570 C   0  0  0  0  0  0  0  0  0  0  0  0
   39.1110   29.5220   37.5270 H   0  0  0  0  0  0  0  0  0  0  0  0
   37.2130   29.0480   36.5310 C   0  0  0  0  0  0  0  0  0  0  0  0
   37.5960   28.6470   35.3040 N   0  0  0  0  0  0  0  0  0  0  0  0
   38.5660   28.5740   34.9200 H   0  0  0  0  0  0  0  0  0  0  0  0
   36.5010   28.3450   34.6240 N   0  0  0  0  0  0  0  0  0  0  0  0
   35.3980   28.5440   35.3960 C   0  0  0  0  0  0  0  0  0  0  0  0
   34.3490   28.3990   35.1610 H   0  0  0  0  0  0  0  0  0  0  0  0
   35.8390   28.9960   36.6230 C   0  0  0  0  0  0  0  0  0  0  0  0
   35.2910   29.3810   37.8290 C   0  0  0  0  0  3  0  0  0  0  0  0
   38.4300   32.6940   39.1150 C   0  0  0  0  0  0  0  0  0  0  0  0
   38.9550   33.8330   39.7220 F   0  0  0  0  0  0  0  0  0  0  0  0
   37.0740   32.8810   38.9290 F   0  0  0  0  0  0  0  0  0  0  0  0
   39.1160   32.3490   38.0090 F   0  0  0  0  0  0  0  0  0  0  0  0
   39.0630   28.8780   43.1750 O   0  0  0  0  0  0  0  0  0  0  0  0
   38.0800   27.9130   43.4790 C   0  0  0  0  0  0  0  0  0  0  0  0
   37.7970   27.9650   44.5620 H   0  0  0  0  0  0  0  0  0  0  0  0
   37.1550   28.0950   42.8910 H   0  0  0  0  0  0  0  0  0  0  0  0
   38.6310   26.5860   43.1510 C   0  0  0  0  0  0  0  0  0  0  0  0
   39.8010   25.9790   43.5760 C   0  0  0  0  0  0  0  0  0  0  0  0
   40.0630   24.7180   43.1100 C   0  0  0  0  0  0  0  0  0  0  0  0
   39.2510   24.0760   42.2840 N   0  0  0  0  0  0  0  0  0  0  0  0
   38.1220   24.6840   41.8850 C   0  0  0  0  0  0  0  0  0  0  0  0
   37.7920   25.9430   42.3080 N   0  0  0  0  0  0  0  0  0  0  0  0
   40.3700   26.6120   44.2470 H   0  0  0  0  0  0  0  0  0  0  0  0
   40.9960   24.2950   43.4800 H   0  0  0  0  0  0  0  0  0  0  0  0
   37.2640   23.8900   40.9570 C   0  0  0  0  0  0  0  0  0  0  0  0
   35.9500   23.9320   41.3300 F   0  0  0  0  0  0  0  0  0  0  0  0
   37.6890   22.5510   40.9480 F   0  0  0  0  0  0  0  0  0  0  0  0
   37.3460   24.3470   39.6590 F   0  0  0  0  0  0  0  0  0  0  0  0
  1  7  1  0  0  0  0
  1  6  1  0  0  0  0
  2  1  2  0  0  0  0
  3  2  1  0  0  0  0
  3  4  2  0  0  0  0
  4  5  1  0  0  0  0
  5  6  2  0  0  0  0
  5 24  1  0  0  0  0
  9  8  1  0  0  0  0
  9  3  1  0  0  0  0
 10  9  2  0  0  0  0
 11 10  1  0  0  0  0
 12 18  2  0  0  0  0
 12 10  1  0  0  0  0
 13 12  1  0  0  0  0
 14 13  1  0  0  0  0
 15 13  1  0  0  0  0
 15 16  2  0  0  0  0
 16 18  1  0  0  0  0
 17 16  1  0  0  0  0
 18 19  1  0  0  0  0
 19  8  2  0  0  0  0
 20 21  1  0  0  0  0
 20  2  1  0  0  0  0
 22 20  1  0  0  0  0
 23 20  1  0  0  0  0
 24 25  1  0  0  0  0
 25 26  1  0  0  0  0
 27 25  1  0  0  0  0
 28 25  1  0  0  0  0
 28 29  1  0  0  0  0
 29 34  1  0  0  0  0
 30 35  1  0  0  0  0
 30 29  2  0  0  0  0
 31 30  1  0  0  0  0
 32 31  2  0  0  0  0
 32 33  1  0  0  0  0
 33 28  2  0  0  0  0
 36 37  1  0  0  0  0
 36 32  1  0  0  0  0
 38 36  1  0  0  0  0
 39 36  1  0  0  0  0
M  END
>  <minimizedAffinity>
-6.51723337

$$$$

 OpenBabel03252505593D

 39 42  0  0  0  0  0  0  0  0999 V2000
   33.9190   26.3570   36.8950 C   0  0  0  0  0  0  0  0  0  0  0  0
   34.3400   27.6600   37.1690 C   0  0  0  0  0  0  0  0  0  0  0  0
   35.5050   27.7970   37.9230 C   0  0  0  0  0  0  0  0  0  0  0  0
   36.1670   26.7180   38.3520 N   0  0  0  0  0  0  0  0  0  0  0  0
   35.7150   25.4710   38.0580 C   0  0  0  0  0  0  0  0  0  0  0  0
   34.6080   25.3040   37.3410 N   0  0  0  0  0  0  0  0  0  0  0  0
   33.0100   26.2230   36.3070 H   0  0  0  0  0  0  0  0  0  0  0  0
   36.8910   29.6190   37.2810 C   0  0  0  0  0  3  0  0  0  0  0  0
   36.0810   29.0820   38.2890 C   0  0  0  0  0  0  0  0  0  0  0  0
   35.9450   29.8480   39.4300 C   0  0  0  0  0  0  0  0  0  0  0  0
   35.3030   29.3950   40.1690 H   0  0  0  0  0  0  0  0  0  0  0  0
   36.5830   31.0620   39.5380 C   0  0  0  0  0  0  0  0  0  0  0  0
   36.5380   31.9050   40.5870 N   0  0  0  0  0  0  0  0  0  0  0  0
   36.0210   31.7900   41.4880 H   0  0  0  0  0  0  0  0  0  0  0  0
   37.2870   32.9550   40.2870 N   0  0  0  0  0  0  0  0  0  0  0  0
   37.8250   32.8080   39.0450 C   0  0  0  0  0  0  0  0  0  0  0  0
   38.4810   33.4710   38.4890 H   0  0  0  0  0  0  0  0  0  0  0  0
   37.3830   31.5990   38.5520 C   0  0  0  0  0  0  0  0  0  0  0  0
   37.5280   30.8470   37.4050 C   0  0  0  0  0  3  0  0  0  0  0  0
   33.5450   28.8230   36.6710 C   0  0  0  0  0  0  0  0  0  0  0  0
   32.4480   28.2300   36.0480 F   0  0  0  0  0  0  0  0  0  0  0  0
   34.3200   29.4350   35.7040 F   0  0  0  0  0  0  0  0  0  0  0  0
   33.1770   29.6160   37.6940 F   0  0  0  0  0  0  0  0  0  0  0  0
   36.3640   24.3230   38.4760 O   0  0  0  0  0  0  0  0  0  0  0  0
   36.0530   23.7300   39.7170 C   0  0  0  0  0  0  0  0  0  0  0  0
   35.0370   24.0520   40.0640 H   0  0  0  0  0  0  0  0  0  0  0  0
   36.0320   22.6220   39.6300 H   0  0  0  0  0  0  0  0  0  0  0  0
   37.0850   24.1400   40.6860 C   0  0  0  0  0  0  0  0  0  0  0  0
   38.2670   23.5150   41.0450 C   0  0  0  0  0  0  0  0  0  0  0  0
   39.0490   24.1350   41.9820 C   0  0  0  0  0  0  0  0  0  0  0  0
   38.7180   25.2870   42.5450 N   0  0  0  0  0  0  0  0  0  0  0  0
   37.5660   25.8760   42.1830 C   0  0  0  0  0  0  0  0  0  0  0  0
   36.7320   25.3170   41.2520 N   0  0  0  0  0  0  0  0  0  0  0  0
   38.4160   22.5850   40.5100 H   0  0  0  0  0  0  0  0  0  0  0  0
   39.9650   23.5950   42.2210 H   0  0  0  0  0  0  0  0  0  0  0  0
   37.2700   27.1700   42.8630 C   0  0  0  0  0  0  0  0  0  0  0  0
   37.0430   28.1710   41.9590 F   0  0  0  0  0  0  0  0  0  0  0  0
   38.3540   27.5350   43.6790 F   0  0  0  0  0  0  0  0  0  0  0  0
   36.1620   27.0830   43.6800 F   0  0  0  0  0  0  0  0  0  0  0  0
  1  2  2  0  0  0  0
  1  6  1  0  0  0  0
  2  3  1  0  0  0  0
  3  9  1  0  0  0  0
  3  4  2  0  0  0  0
  5  4  1  0  0  0  0
  5 24  1  0  0  0  0
  6  5  2  0  0  0  0
  7  1  1  0  0  0  0
  8 19  2  0  0  0  0
  8  9  1  0  0  0  0
  9 10  2  0  0  0  0
 10 12  1  0  0  0  0
 10 11  1  0  0  0  0
 12 13  1  0  0  0  0
 13 14  1  0  0  0  0
 15 13  1  0  0  0  0
 16 15  2  0  0  0  0
 17 16  1  0  0  0  0
 18 16  1  0  0  0  0
 18 12  2  0  0  0  0
 19 18  1  0  0  0  0
 20  2  1  0  0  0  0
 20 23  1  0  0  0  0
 21 20  1  0  0  0  0
 22 20  1  0  0  0  0
 24 25  1  0  0  0  0
 25 26  1  0  0  0  0
 25 28  1  0  0  0  0
 27 25  1  0  0  0  0
 28 29  2  0  0  0  0
 28 33  1  0  0  0  0
 29 30  1  0  0  0  0
 30 35  1  0  0  0  0
 30 31  2  0  0  0  0
 32 31  1  0  0  0  0
 32 36  1  0  0  0  0
 33 32  2  0  0  0  0
 34 29  1  0  0  0  0
 36 38  1  0  0  0  0
 36 39  1  0  0  0  0
 37 36  1  0  0  0  0
M  END
>  <minimizedAffinity>
-6.35414839

$$$$

 OpenBabel03252505593D

 39 42  0  0  0  0  0  0  0  0999 V2000
   39.4540   26.5250   42.9900 C   0  0  0  0  0  0  0  0  0  0  0  0
   38.3320   26.5800   42.1620 C   0  0  0  0  0  0  0  0  0  0  0  0
   38.1940   27.7180   41.3670 C   0  0  0  0  0  0  0  0  0  0  0  0
   39.1050   28.6940   41.4150 N   0  0  0  0  0  0  0  0  0  0  0  0
   40.1810   28.5920   42.2390 C   0  0  0  0  0  0  0  0  0  0  0  0
   40.3440   27.5210   43.0090 N   0  0  0  0  0  0  0  0  0  0  0  0
   39.5850   25.6460   43.6210 H   0  0  0  0  0  0  0  0  0  0  0  0
   36.1100   28.7890   40.9610 C   0  0  0  0  0  3  0  0  0  0  0  0
   37.0870   27.9280   40.4460 C   0  0  0  0  0  0  0  0  0  0  0  0
   36.8580   27.4440   39.1730 C   0  0  0  0  0  0  0  0  0  0  0  0
   37.6440   26.7950   38.8190 H   0  0  0  0  0  0  0  0  0  0  0  0
   35.7260   27.8070   38.4790 C   0  0  0  0  0  0  0  0  0  0  0  0
   35.3800   27.4120   37.2390 N   0  0  0  0  0  0  0  0  0  0  0  0
   35.9000   26.7730   36.5950 H   0  0  0  0  0  0  0  0  0  0  0  0
   34.2240   27.9870   36.9460 N   0  0  0  0  0  0  0  0  0  0  0  0
   33.8060   28.7590   37.9860 C   0  0  0  0  0  0  0  0  0  0  0  0
   32.9120   29.3650   38.0870 H   0  0  0  0  0  0  0  0  0  0  0  0
   34.7600   28.6530   38.9780 C   0  0  0  0  0  0  0  0  0  0  0  0
   34.9730   29.1460   40.2490 C   0  0  0  0  0  3  0  0  0  0  0  0
   37.3430   25.4600   42.1660 C   0  0  0  0  0  0  0  0  0  0  0  0
   38.0050   24.4400   42.8470 F   0  0  0  0  0  0  0  0  0  0  0  0
   37.1870   25.0780   40.8480 F   0  0  0  0  0  0  0  0  0  0  0  0
   36.2100   25.8320   42.7910 F   0  0  0  0  0  0  0  0  0  0  0  0
   41.1530   29.5730   42.3230 O   0  0  0  0  0  0  0  0  0  0  0  0
   40.8170   30.8890   42.7040 C   0  0  0  0  0  0  0  0  0  0  0  0
   39.8910   30.8930   43.3360 H   0  0  0  0  0  0  0  0  0  0  0  0
   41.6280   31.3430   43.3110 H   0  0  0  0  0  0  0  0  0  0  0  0
   40.6080   31.6760   41.4750 C   0  0  0  0  0  0  0  0  0  0  0  0
   41.5320   32.2330   40.6070 C   0  0  0  0  0  0  0  0  0  0  0  0
   41.0480   32.9170   39.5240 C   0  0  0  0  0  0  0  0  0  0  0  0
   39.7530   33.0610   39.2870 N   0  0  0  0  0  0  0  0  0  0  0  0
   38.8740   32.5140   40.1420 C   0  0  0  0  0  0  0  0  0  0  0  0
   39.2820   31.8150   41.2460 N   0  0  0  0  0  0  0  0  0  0  0  0
   42.5520   32.0400   40.9170 H   0  0  0  0  0  0  0  0  0  0  0  0
   41.8230   33.3310   38.8800 H   0  0  0  0  0  0  0  0  0  0  0  0
   37.4370   32.7220   39.8000 C   0  0  0  0  0  0  0  0  0  0  0  0
   37.1280   34.0520   39.7230 F   0  0  0  0  0  0  0  0  0  0  0  0
   36.6260   32.1260   40.7800 F   0  0  0  0  0  0  0  0  0  0  0  0
   37.1030   32.1430   38.5940 F   0  0  0  0  0  0  0  0  0  0  0  0
  1  6  1  0  0  0  0
  1  7  1  0  0  0  0
  2 20  1  0  0  0  0
  2  1  2  0  0  0  0
  3  4  2  0  0  0  0
  3  2  1  0  0  0  0
  4  5  1  0  0  0  0
  5 24  1  0  0  0  0
  5  6  2  0  0  0  0
  9  8  1  0  0  0  0
  9  3  1  0  0  0  0
 10  9  2  0  0  0  0
 11 10  1  0  0  0  0
 12 18  2  0  0  0  0
 12 10  1  0  0  0  0
 13 12  1  0  0  0  0
 14 13  1  0  0  0  0
 15 13  1  0  0  0  0
 15 16  2  0  0  0  0
 16 17  1  0  0  0  0
 16 18  1  0  0  0  0
 18 19  1  0  0  0  0
 19  8  2  0  0  0  0
 20 23  1  0  0  0  0
 20 21  1  0  0  0  0
 22 20  1  0  0  0  0
 24 25  1  0  0  0  0
 25 27  1  0  0  0  0
 25 26  1  0  0  0  0
 28 25  1  0  0  0  0
 29 34  1  0  0  0  0
 29 28  2  0  0  0  0
 30 29  1  0  0  0  0
 31 30  2  0  0  0  0
 31 32  1  0  0  0  0
 32 33  2  0  0  0  0
 33 28  1  0  0  0  0
 35 30  1  0  0  0  0
 36 32  1  0  0  0  0
 36 38  1  0  0  0  0
 37 36  1  0  0  0  0
 39 36  1  0  0  0  0
M  END
>  <minimizedAffinity>
-6.307055

$$$$

 OpenBabel03252505593D

 39 42  0  0  0  0  0  0  0  0999 V2000
   35.0500   26.9280   37.8310 C   0  0  0  0  0  0  0  0  0  0  0  0
   35.8840   27.8740   38.4280 C   0  0  0  0  0  0  0  0  0  0  0  0
   35.9300   29.1350   37.8330 C   0  0  0  0  0  0  0  0  0  0  0  0
   35.2020   29.3980   36.7440 N   0  0  0  0  0  0  0  0  0  0  0  0
   34.4050   28.4410   36.2010 C   0  0  0  0  0  0  0  0  0  0  0  0
   34.3370   27.2300   36.7430 N   0  0  0  0  0  0  0  0  0  0  0  0
   34.9960   25.9350   38.2780 H   0  0  0  0  0  0  0  0  0  0  0  0
   37.9960   30.3060   37.7110 C   0  0  0  0  0  3  0  0  0  0  0  0
   36.7430   30.2330   38.3340 C   0  0  0  0  0  0  0  0  0  0  0  0
   36.4810   31.2000   39.2830 C   0  0  0  0  0  0  0  0  0  0  0  0
   35.5000   31.1050   39.7240 H   0  0  0  0  0  0  0  0  0  0  0  0
   37.4170   32.1650   39.5770 C   0  0  0  0  0  0  0  0  0  0  0  0
   37.2920   33.1600   40.4760 N   0  0  0  0  0  0  0  0  0  0  0  0
   36.4790   33.3740   41.0960 H   0  0  0  0  0  0  0  0  0  0  0  0
   38.4140   33.8630   40.4490 N   0  0  0  0  0  0  0  0  0  0  0  0
   39.2770   33.3360   39.5380 C   0  0  0  0  0  0  0  0  0  0  0  0
   40.2760   33.6570   39.2600 H   0  0  0  0  0  0  0  0  0  0  0  0
   38.6510   32.2460   38.9710 C   0  0  0  0  0  0  0  0  0  0  0  0
   38.9300   31.2870   38.0180 C   0  0  0  0  0  3  0  0  0  0  0  0
   36.6830   27.5110   39.6370 C   0  0  0  0  0  0  0  0  0  0  0  0
   38.0030   27.6060   39.2010 F   0  0  0  0  0  0  0  0  0  0  0  0
   36.4030   26.1830   39.9010 F   0  0  0  0  0  0  0  0  0  0  0  0
   36.4230   28.3600   40.6490 F   0  0  0  0  0  0  0  0  0  0  0  0
   33.6300   28.6640   35.0770 O   0  0  0  0  0  0  0  0  0  0  0  0
   32.2450   28.3990   35.0920 C   0  0  0  0  0  0  0  0  0  0  0  0
   31.8770   28.1630   34.0600 H   0  0  0  0  0  0  0  0  0  0  0  0
   32.0190   27.5170   35.7290 H   0  0  0  0  0  0  0  0  0  0  0  0
   31.5620   29.5920   35.6240 C   0  0  0  0  0  0  0  0  0  0  0  0
   31.4490   30.8650   35.0910 C   0  0  0  0  0  0  0  0  0  0  0  0
   30.7400   31.7890   35.8100 C   0  0  0  0  0  0  0  0  0  0  0  0
   30.1720   31.5110   36.9730 N   0  0  0  0  0  0  0  0  0  0  0  0
   30.2940   30.2710   37.4720 C   0  0  0  0  0  0  0  0  0  0  0  0
   30.9880   29.2930   36.8110 N   0  0  0  0  0  0  0  0  0  0  0  0
   31.9580   30.9550   34.1390 H   0  0  0  0  0  0  0  0  0  0  0  0
   30.6870   32.7710   35.3380 H   0  0  0  0  0  0  0  0  0  0  0  0
   29.6230   30.0420   38.7850 C   0  0  0  0  0  0  0  0  0  0  0  0
   30.5270   29.7290   39.7620 F   0  0  0  0  0  0  0  0  0  0  0  0
   28.7010   28.9890   38.6690 F   0  0  0  0  0  0  0  0  0  0  0  0
   28.9180   31.1500   39.2060 F   0  0  0  0  0  0  0  0  0  0  0  0
  1  7  1  0  0  0  0
  1  2  1  0  0  0  0
  2 20  1  0  0  0  0
  3  9  1  0  0  0  0
  3  2  2  0  0  0  0
  4  3  1  0  0  0  0
  5  6  1  0  0  0  0
  5  4  2  0  0  0  0
  6  1  2  0  0  0  0
  8 19  2  0  0  0  0
  8  9  1  0  0  0  0
  9 10  2  0  0  0  0
 10 12  1  0  0  0  0
 10 11  1  0  0  0  0
 12 13  1  0  0  0  0
 13 14  1  0  0  0  0
 15 13  1  0  0  0  0
 16 15  2  0  0  0  0
 17 16  1  0  0  0  0
 18 16  1  0  0  0  0
 18 12  2  0  0  0  0
 19 18  1  0  0  0  0
 20 22  1  0  0  0  0
 20 23  1  0  0  0  0
 21 20  1  0  0  0  0
 24 25  1  0  0  0  0
 24  5  1  0  0  0  0
 25 28  1  0  0  0  0
 25 27  1  0  0  0  0
 26 25  1  0  0  0  0
 28 33  1  0  0  0  0
 29 28  2  0  0  0  0
 29 30  1  0  0  0  0
 30 31  2  0  0  0  0
 31 32  1  0  0  0  0
 32 36  1  0  0  0  0
 33 32  2  0  0  0  0
 34 29  1  0  0  0  0
 35 30  1  0  0  0  0
 36 39  1  0  0  0  0
 36 37  1  0  0  0  0
 38 36  1  0  0  0  0
M  END
>  <minimizedAffinity>
-6.30492163

$$$$

 OpenBabel03252505593D

 39 42  0  0  0  0  0  0  0  0999 V2000
   36.3110   29.6580   39.9710 C   0  0  0  0  0  0  0  0  0  0  0  0
   37.3320   30.2360   39.2130 C   0  0  0  0  0  0  0  0  0  0  0  0
   38.5350   30.4900   39.8720 C   0  0  0  0  0  0  0  0  0  0  0  0
   38.6780   30.1880   41.1660 N   0  0  0  0  0  0  0  0  0  0  0  0
   37.6520   29.6260   41.8580 C   0  0  0  0  0  0  0  0  0  0  0  0
   36.4930   29.3690   41.2620 N   0  0  0  0  0  0  0  0  0  0  0  0
   35.3610   29.4490   39.4790 H   0  0  0  0  0  0  0  0  0  0  0  0
   40.7400   30.1650   39.0440 C   0  0  0  0  0  3  0  0  0  0  0  0
   39.6970   31.0820   39.2260 C   0  0  0  0  0  0  0  0  0  0  0  0
   39.9250   32.3600   38.7570 C   0  0  0  0  0  0  0  0  0  0  0  0
   39.0870   33.0230   38.9120 H   0  0  0  0  0  0  0  0  0  0  0  0
   41.1190   32.6820   38.1530 C   0  0  0  0  0  0  0  0  0  0  0  0
   41.4710   33.8820   37.6550 N   0  0  0  0  0  0  0  0  0  0  0  0
   40.9120   34.7650   37.6370 H   0  0  0  0  0  0  0  0  0  0  0  0
   42.6950   33.7650   37.1630 N   0  0  0  0  0  0  0  0  0  0  0  0
   43.1510   32.4950   37.3360 C   0  0  0  0  0  0  0  0  0  0  0  0
   44.1030   32.0530   37.0560 H   0  0  0  0  0  0  0  0  0  0  0  0
   42.1510   31.7880   37.9700 C   0  0  0  0  0  0  0  0  0  0  0  0
   41.9390   30.5050   38.4320 C   0  0  0  0  0  3  0  0  0  0  0  0
   37.1020   30.5630   37.7740 C   0  0  0  0  0  0  0  0  0  0  0  0
   35.8710   29.9710   37.4940 F   0  0  0  0  0  0  0  0  0  0  0  0
   38.0810   29.8930   37.0650 F   0  0  0  0  0  0  0  0  0  0  0  0
   37.0750   31.8960   37.5900 F   0  0  0  0  0  0  0  0  0  0  0  0
   37.7500   29.2920   43.1970 O   0  0  0  0  0  0  0  0  0  0  0  0
   37.2180   28.0770   43.6780 C   0  0  0  0  0  0  0  0  0  0  0  0
   37.1220   28.1020   44.7940 H   0  0  0  0  0  0  0  0  0  0  0  0
   36.2000   27.9030   43.2660 H   0  0  0  0  0  0  0  0  0  0  0  0
   38.1220   26.9900   43.2600 C   0  0  0  0  0  0  0  0  0  0  0  0
   39.4390   26.7430   43.6120 C   0  0  0  0  0  0  0  0  0  0  0  0
   40.0400   25.6390   43.0700 C   0  0  0  0  0  0  0  0  0  0  0  0
   39.4170   24.8190   42.2390 N   0  0  0  0  0  0  0  0  0  0  0  0
   38.1410   25.0770   41.9100 C   0  0  0  0  0  0  0  0  0  0  0  0
   37.4730   26.1620   42.4120 N   0  0  0  0  0  0  0  0  0  0  0  0
   39.8250   27.4890   44.2970 H   0  0  0  0  0  0  0  0  0  0  0  0
   41.0740   25.4990   43.3860 H   0  0  0  0  0  0  0  0  0  0  0  0
   37.5140   24.1030   40.9690 C   0  0  0  0  0  0  0  0  0  0  0  0
   37.8030   22.8130   41.3180 F   0  0  0  0  0  0  0  0  0  0  0  0
   37.9840   24.3350   39.6660 F   0  0  0  0  0  0  0  0  0  0  0  0
   36.1420   24.2300   40.9320 F   0  0  0  0  0  0  0  0  0  0  0  0
  1  6  1  0  0  0  0
  2  3  1  0  0  0  0
  2  1  2  0  0  0  0
  3  4  2  0  0  0  0
  4  5  1  0  0  0  0
  5 24  1  0  0  0  0
  6  5  2  0  0  0  0
  7  1  1  0  0  0  0
  8  9  1  0  0  0  0
  9  3  1  0  0  0  0
 10 11  1  0  0  0  0
 10  9  2  0  0  0  0
 12 10  1  0  0  0  0
 13 12  1  0  0  0  0
 14 13  1  0  0  0  0
 15 16  2  0  0  0  0
 15 13  1  0  0  0  0
 16 18  1  0  0  0  0
 17 16  1  0  0  0  0
 18 12  2  0  0  0  0
 18 19  1  0  0  0  0
 19  8  2  0  0  0  0
 20  2  1  0  0  0  0
 21 20  1  0  0  0  0
 22 20  1  0  0  0  0
 23 20  1  0  0  0  0
 24 25  1  0  0  0  0
 25 26  1  0  0  0  0
 27 25  1  0  0  0  0
 28 29  1  0  0  0  0
 28 25  1  0  0  0  0
 29 34  1  0  0  0  0
 30 35  1  0  0  0  0
 30 29  2  0  0  0  0
 31 30  1  0  0  0  0
 32 31  2  0  0  0  0
 32 33  1  0  0  0  0
 33 28  2  0  0  0  0
 36 37  1  0  0  0  0
 36 32  1  0  0  0  0
 38 36  1  0  0  0  0
 39 36  1  0  0  0  0
M  END
>  <minimizedAffinity>
-6.30066824

$$$$

 OpenBabel03252505593D

 39 42  0  0  0  0  0  0  0  0999 V2000
   36.3820   31.3720   40.5220 C   0  0  0  0  0  0  0  0  0  0  0  0
   37.7270   31.7290   40.6290 C   0  0  0  0  0  0  0  0  0  0  0  0
   38.5850   30.7830   41.1920 C   0  0  0  0  0  0  0  0  0  0  0  0
   38.1150   29.6010   41.6020 N   0  0  0  0  0  0  0  0  0  0  0  0
   36.7960   29.3030   41.4750 C   0  0  0  0  0  0  0  0  0  0  0  0
   35.9520   30.1800   40.9430 N   0  0  0  0  0  0  0  0  0  0  0  0
   35.6920   32.0940   40.0850 H   0  0  0  0  0  0  0  0  0  0  0  0
   40.7620   30.5940   40.2560 C   0  0  0  0  0  3  0  0  0  0  0  0
   40.0130   30.9960   41.3690 C   0  0  0  0  0  0  0  0  0  0  0  0
   40.7300   31.5340   42.4200 C   0  0  0  0  0  0  0  0  0  0  0  0
   40.1050   31.8370   43.2460 H   0  0  0  0  0  0  0  0  0  0  0  0
   42.0980   31.6530   42.3460 C   0  0  0  0  0  0  0  0  0  0  0  0
   42.9150   32.1550   43.2910 N   0  0  0  0  0  0  0  0  0  0  0  0
   42.6610   32.5380   44.2300 H   0  0  0  0  0  0  0  0  0  0  0  0
   44.1520   32.0890   42.8240 N   0  0  0  0  0  0  0  0  0  0  0  0
   44.1550   31.5450   41.5760 C   0  0  0  0  0  0  0  0  0  0  0  0
   44.9860   31.3450   40.9070 H   0  0  0  0  0  0  0  0  0  0  0  0
   42.8440   31.2600   41.2560 C   0  0  0  0  0  0  0  0  0  0  0  0
   42.1440   30.7210   40.1960 C   0  0  0  0  0  3  0  0  0  0  0  0
   38.1840   33.0730   40.1640 C   0  0  0  0  0  0  0  0  0  0  0  0
   39.0760   32.7790   39.1340 F   0  0  0  0  0  0  0  0  0  0  0  0
   38.8930   33.6250   41.2130 F   0  0  0  0  0  0  0  0  0  0  0  0
   37.1390   33.8050   39.7340 F   0  0  0  0  0  0  0  0  0  0  0  0
   36.2620   28.0930   41.8820 O   0  0  0  0  0  0  0  0  0  0  0  0
   36.7070   27.4700   43.0670 C   0  0  0  0  0  0  0  0  0  0  0  0
   37.1920   28.2180   43.7470 H   0  0  0  0  0  0  0  0  0  0  0  0
   35.8540   27.0270   43.6240 H   0  0  0  0  0  0  0  0  0  0  0  0
   37.6650   26.4150   42.6910 C   0  0  0  0  0  0  0  0  0  0  0  0
   38.9790   26.2260   43.0820 C   0  0  0  0  0  0  0  0  0  0  0  0
   39.6390   25.1390   42.5740 C   0  0  0  0  0  0  0  0  0  0  0  0
   39.0730   24.2830   41.7380 N   0  0  0  0  0  0  0  0  0  0  0  0
   37.7970   24.4850   41.3710 C   0  0  0  0  0  0  0  0  0  0  0  0
   37.0730   25.5490   41.8370 N   0  0  0  0  0  0  0  0  0  0  0  0
   39.3170   26.9960   43.7660 H   0  0  0  0  0  0  0  0  0  0  0  0
   40.6680   25.0450   42.9190 H   0  0  0  0  0  0  0  0  0  0  0  0
   37.2360   23.4740   40.4280 C   0  0  0  0  0  0  0  0  0  0  0  0
   35.8690   23.4520   40.4720 F   0  0  0  0  0  0  0  0  0  0  0  0
   37.7190   22.1970   40.7610 F   0  0  0  0  0  0  0  0  0  0  0  0
   37.6100   23.7190   39.1240 F   0  0  0  0  0  0  0  0  0  0  0  0
  1  2  2  0  0  0  0
  1  6  1  0  0  0  0
  2  3  1  0  0  0  0
  3  9  1  0  0  0  0
  3  4  2  0  0  0  0
  5  4  1  0  0  0  0
  5 24  1  0  0  0  0
  6  5  2  0  0  0  0
  7  1  1  0  0  0  0
  8  9  1  0  0  0  0
  9 10  2  0  0  0  0
 10 11  1  0  0  0  0
 12 10  1  0  0  0  0
 12 13  1  0  0  0  0
 13 14  1  0  0  0  0
 15 13  1  0  0  0  0
 16 15  2  0  0  0  0
 17 16  1  0  0  0  0
 18 16  1  0  0  0  0
 18 12  2  0  0  0  0
 19  8  2  0  0  0  0
 19 18  1  0  0  0  0
 20  2  1  0  0  0  0
 20 22  1  0  0  0  0
 21 20  1  0  0  0  0
 23 20  1  0  0  0  0
 24 25  1  0  0  0  0
 25 27  1  0  0  0  0
 25 26  1  0  0  0  0
 28 25  1  0  0  0  0
 28 29  1  0  0  0  0
 29 34  1  0  0  0  0
 30 35  1  0  0  0  0
 30 29  2  0  0  0  0
 31 30  1  0  0  0  0
 32 31  2  0  0  0  0
 32 33  1  0  0  0  0
 33 28  2  0  0  0  0
 36 37  1  0  0  0  0
 36 38  1  0  0  0  0
 36 32  1  0  0  0  0
 39 36  1  0  0  0  0
M  END
>  <minimizedAffinity>
-6.19141388

$$$$

 OpenBabel03252505593D

 39 42  0  0  0  0  0  0  0  0999 V2000
   38.6300   31.4040   41.0700 C   0  0  0  0  0  0  0  0  0  0  0  0
   38.1500   31.1960   39.7760 C   0  0  0  0  0  0  0  0  0  0  0  0
   37.4610   30.0050   39.5460 C   0  0  0  0  0  0  0  0  0  0  0  0
   37.2840   29.1220   40.5330 N   0  0  0  0  0  0  0  0  0  0  0  0
   37.7720   29.3720   41.7760 C   0  0  0  0  0  0  0  0  0  0  0  0
   38.4330   30.4970   42.0300 N   0  0  0  0  0  0  0  0  0  0  0  0
   39.1720   32.3270   41.2750 H   0  0  0  0  0  0  0  0  0  0  0  0
   35.4970   29.5290   38.2940 C   0  0  0  0  0  3  0  0  0  0  0  0
   36.8920   29.6400   38.2580 C   0  0  0  0  0  0  0  0  0  0  0  0
   37.4870   29.4100   37.0320 C   0  0  0  0  0  0  0  0  0  0  0  0
   38.5600   29.5200   37.0560 H   0  0  0  0  0  0  0  0  0  0  0  0
   36.7240   29.0930   35.9320 C   0  0  0  0  0  0  0  0  0  0  0  0
   37.1710   28.8460   34.6870 N   0  0  0  0  0  0  0  0  0  0  0  0
   38.1570   28.8520   34.3390 H   0  0  0  0  0  0  0  0  0  0  0  0
   36.1160   28.5820   33.9300 N   0  0  0  0  0  0  0  0  0  0  0  0
   34.9770   28.6540   34.6710 C   0  0  0  0  0  0  0  0  0  0  0  0
   33.9440   28.4970   34.3760 H   0  0  0  0  0  0  0  0  0  0  0  0
   35.3510   28.9810   35.9580 C   0  0  0  0  0  0  0  0  0  0  0  0
   34.7400   29.2070   37.1750 C   0  0  0  0  0  3  0  0  0  0  0  0
   38.3940   32.2180   38.7140 C   0  0  0  0  0  0  0  0  0  0  0  0
   38.8670   33.3220   39.4220 F   0  0  0  0  0  0  0  0  0  0  0  0
   37.1550   32.5330   38.1880 F   0  0  0  0  0  0  0  0  0  0  0  0
   39.2950   31.7670   37.8220 F   0  0  0  0  0  0  0  0  0  0  0  0
   37.6140   28.4920   42.8320 O   0  0  0  0  0  0  0  0  0  0  0  0
   36.7120   27.4120   42.7400 C   0  0  0  0  0  0  0  0  0  0  0  0
   36.1370   27.2950   43.6950 H   0  0  0  0  0  0  0  0  0  0  0  0
   35.9700   27.5850   41.9310 H   0  0  0  0  0  0  0  0  0  0  0  0
   37.4930   26.1940   42.4540 C   0  0  0  0  0  0  0  0  0  0  0  0
   37.0650   24.9300   42.0840 C   0  0  0  0  0  0  0  0  0  0  0  0
   38.0250   23.9760   41.8730 C   0  0  0  0  0  0  0  0  0  0  0  0
   39.3190   24.2190   42.0090 N   0  0  0  0  0  0  0  0  0  0  0  0
   39.7120   25.4520   42.3690 C   0  0  0  0  0  0  0  0  0  0  0  0
   38.8110   26.4570   42.5970 N   0  0  0  0  0  0  0  0  0  0  0  0
   35.9860   24.8690   42.0090 H   0  0  0  0  0  0  0  0  0  0  0  0
   37.6260   23.0040   41.5840 H   0  0  0  0  0  0  0  0  0  0  0  0
   41.1860   25.6400   42.4980 C   0  0  0  0  0  0  0  0  0  0  0  0
   41.7740   25.8470   41.2800 F   0  0  0  0  0  0  0  0  0  0  0  0
   41.7590   24.5010   43.0880 F   0  0  0  0  0  0  0  0  0  0  0  0
   41.5020   26.7130   43.3040 F   0  0  0  0  0  0  0  0  0  0  0  0
  1  7  1  0  0  0  0
  1  6  1  0  0  0  0
  2  1  2  0  0  0  0
  3  2  1  0  0  0  0
  3  4  2  0  0  0  0
  4  5  1  0  0  0  0
  5  6  2  0  0  0  0
  5 24  1  0  0  0  0
  9  8  1  0  0  0  0
  9  3  1  0  0  0  0
 10 11  1  0  0  0  0
 10  9  2  0  0  0  0
 12 18  2  0  0  0  0
 12 10  1  0  0  0  0
 13 12  1  0  0  0  0
 14 13  1  0  0  0  0
 15 16  2  0  0  0  0
 15 13  1  0  0  0  0
 16 18  1  0  0  0  0
 17 16  1  0  0  0  0
 18 19  1  0  0  0  0
 19  8  2  0  0  0  0
 20 21  1  0  0  0  0
 20  2  1  0  0  0  0
 22 20  1  0  0  0  0
 23 20  1  0  0  0  0
 25 24  1  0  0  0  0
 25 26  1  0  0  0  0
 27 25  1  0  0  0  0
 28 33  1  0  0  0  0
 28 25  1  0  0  0  0
 29 28  2  0  0  0  0
 30 31  2  0  0  0  0
 30 29  1  0  0  0  0
 31 32  1  0  0  0  0
 32 36  1  0  0  0  0
 32 33  2  0  0  0  0
 34 29  1  0  0  0  0
 35 30  1  0  0  0  0
 36 38  1  0  0  0  0
 36 39  1  0  0  0  0
 37 36  1  0  0  0  0
M  END
>  <minimizedAffinity>
-6.19022799

$$$$

 OpenBabel03252505593D

 39 42  0  0  0  0  0  0  0  0999 V2000
   35.1220   27.0100   37.8170 C   0  0  0  0  0  0  0  0  0  0  0  0
   35.9330   27.9600   38.4400 C   0  0  0  0  0  0  0  0  0  0  0  0
   36.0520   29.1970   37.8050 C   0  0  0  0  0  0  0  0  0  0  0  0
   35.4110   29.4350   36.6570 N   0  0  0  0  0  0  0  0  0  0  0  0
   34.6320   28.4760   36.0920 C   0  0  0  0  0  0  0  0  0  0  0  0
   34.4970   27.2870   36.6700 N   0  0  0  0  0  0  0  0  0  0  0  0
   35.0130   26.0360   38.2930 H   0  0  0  0  0  0  0  0  0  0  0  0
   38.1080   30.3870   37.7130 C   0  0  0  0  0  3  0  0  0  0  0  0
   36.8520   30.2950   38.3250 C   0  0  0  0  0  0  0  0  0  0  0  0
   36.5740   31.2490   39.2850 C   0  0  0  0  0  0  0  0  0  0  0  0
   35.5910   31.1400   39.7160 H   0  0  0  0  0  0  0  0  0  0  0  0
   37.5000   32.2180   39.5970 C   0  0  0  0  0  0  0  0  0  0  0  0
   37.3600   33.2010   40.5070 N   0  0  0  0  0  0  0  0  0  0  0  0
   36.5410   33.4010   41.1240 H   0  0  0  0  0  0  0  0  0  0  0  0
   38.4770   33.9140   40.4960 N   0  0  0  0  0  0  0  0  0  0  0  0
   39.3510   33.4050   39.5860 C   0  0  0  0  0  0  0  0  0  0  0  0
   40.3490   33.7370   39.3190 H   0  0  0  0  0  0  0  0  0  0  0  0
   38.7380   32.3160   39.0010 C   0  0  0  0  0  0  0  0  0  0  0  0
   39.0320   31.3710   38.0390 C   0  0  0  0  0  3  0  0  0  0  0  0
   36.6340   27.6250   39.7160 C   0  0  0  0  0  0  0  0  0  0  0  0
   36.2670   26.3020   39.9550 F   0  0  0  0  0  0  0  0  0  0  0  0
   36.0630   28.4210   40.6900 F   0  0  0  0  0  0  0  0  0  0  0  0
   37.9650   27.7620   39.5740 F   0  0  0  0  0  0  0  0  0  0  0  0
   33.9460   28.6730   34.9070 O   0  0  0  0  0  0  0  0  0  0  0  0
   32.5770   28.3520   34.8050 C   0  0  0  0  0  0  0  0  0  0  0  0
   32.3030   28.1200   33.7430 H   0  0  0  0  0  0  0  0  0  0  0  0
   32.3370   27.4500   35.4080 H   0  0  0  0  0  0  0  0  0  0  0  0
   31.8030   29.5060   35.2980 C   0  0  0  0  0  0  0  0  0  0  0  0
   31.4490   29.8530   36.5910 C   0  0  0  0  0  0  0  0  0  0  0  0
   30.7220   31.0010   36.7590 C   0  0  0  0  0  0  0  0  0  0  0  0
   30.3550   31.7730   35.7480 N   0  0  0  0  0  0  0  0  0  0  0  0
   30.7090   31.4170   34.5020 C   0  0  0  0  0  0  0  0  0  0  0  0
   31.4360   30.2840   34.2540 N   0  0  0  0  0  0  0  0  0  0  0  0
   31.8120   29.1380   37.3190 H   0  0  0  0  0  0  0  0  0  0  0  0
   30.4750   31.2200   37.7980 H   0  0  0  0  0  0  0  0  0  0  0  0
   30.2570   32.3420   33.4220 C   0  0  0  0  0  0  0  0  0  0  0  0
   29.9620   31.6630   32.2720 F   0  0  0  0  0  0  0  0  0  0  0  0
   31.2670   33.2790   33.1460 F   0  0  0  0  0  0  0  0  0  0  0  0
   29.1350   33.0550   33.7870 F   0  0  0  0  0  0  0  0  0  0  0  0
  1  7  1  0  0  0  0
  1  2  1  0  0  0  0
  2 20  1  0  0  0  0
  3  9  1  0  0  0  0
  3  2  2  0  0  0  0
  4  3  1  0  0  0  0
  5  4  2  0  0  0  0
  5  6  1  0  0  0  0
  6  1  2  0  0  0  0
  8 19  2  0  0  0  0
  8  9  1  0  0  0  0
  9 10  2  0  0  0  0
 10 12  1  0  0  0  0
 10 11  1  0  0  0  0
 12 13  1  0  0  0  0
 13 14  1  0  0  0  0
 15 13  1  0  0  0  0
 16 15  2  0  0  0  0
 17 16  1  0  0  0  0
 18 16  1  0  0  0  0
 18 12  2  0  0  0  0
 19 18  1  0  0  0  0
 20 21  1  0  0  0  0
 20 22  1  0  0  0  0
 23 20  1  0  0  0  0
 24  5  1  0  0  0  0
 25 24  1  0  0  0  0
 25 28  1  0  0  0  0
 25 27  1  0  0  0  0
 26 25  1  0  0  0  0
 28 29  1  0  0  0  0
 29 30  2  0  0  0  0
 29 34  1  0  0  0  0
 30 35  1  0  0  0  0
 31 30  1  0  0  0  0
 32 31  2  0  0  0  0
 33 32  1  0  0  0  0
 33 28  2  0  0  0  0
 36 39  1  0  0  0  0
 36 32  1  0  0  0  0
 37 36  1  0  0  0  0
 38 36  1  0  0  0  0
M  END
>  <minimizedAffinity>
-6.13906336

$$$$

 OpenBabel03252505593D

 39 42  0  0  0  0  0  0  0  0999 V2000
   36.8520   24.8800   40.8490 C   0  0  0  0  0  0  0  0  0  0  0  0
   36.5260   25.4070   39.5990 C   0  0  0  0  0  0  0  0  0  0  0  0
   36.7490   26.7720   39.4150 C   0  0  0  0  0  0  0  0  0  0  0  0
   37.2510   27.5170   40.4040 N   0  0  0  0  0  0  0  0  0  0  0  0
   37.5520   26.9540   41.6040 C   0  0  0  0  0  0  0  0  0  0  0  0
   37.3530   25.6570   41.8130 N   0  0  0  0  0  0  0  0  0  0  0  0
   36.6860   23.8160   41.0180 H   0  0  0  0  0  0  0  0  0  0  0  0
   35.2360   28.1370   38.1910 C   0  0  0  0  0  3  0  0  0  0  0  0
   36.4690   27.4740   38.1720 C   0  0  0  0  0  0  0  0  0  0  0  0
   37.2100   27.6050   37.0140 C   0  0  0  0  0  0  0  0  0  0  0  0
   38.1550   27.0860   37.0550 H   0  0  0  0  0  0  0  0  0  0  0  0
   36.7350   28.3510   35.9600 C   0  0  0  0  0  0  0  0  0  0  0  0
   37.3500   28.5610   34.7800 N   0  0  0  0  0  0  0  0  0  0  0  0
   38.2790   28.2030   34.4620 H   0  0  0  0  0  0  0  0  0  0  0  0
   36.5580   29.3300   34.0500 N   0  0  0  0  0  0  0  0  0  0  0  0
   35.4240   29.6280   34.7410 C   0  0  0  0  0  0  0  0  0  0  0  0
   34.5690   30.2290   34.4490 H   0  0  0  0  0  0  0  0  0  0  0  0
   35.5230   29.0070   35.9690 C   0  0  0  0  0  0  0  0  0  0  0  0
   34.7700   28.8860   37.1180 C   0  0  0  0  0  3  0  0  0  0  0  0
   35.9540   24.5220   38.5400 C   0  0  0  0  0  0  0  0  0  0  0  0
   35.7920   23.2980   39.1860 F   0  0  0  0  0  0  0  0  0  0  0  0
   36.9380   24.3840   37.5790 F   0  0  0  0  0  0  0  0  0  0  0  0
   34.7850   25.0150   38.0920 F   0  0  0  0  0  0  0  0  0  0  0  0
   38.0760   27.6810   42.6590 O   0  0  0  0  0  0  0  0  0  0  0  0
   37.5360   28.9360   43.0080 C   0  0  0  0  0  0  0  0  0  0  0  0
   36.4670   29.0100   42.6800 H   0  0  0  0  0  0  0  0  0  0  0  0
   37.5500   29.0790   44.1100 H   0  0  0  0  0  0  0  0  0  0  0  0
   38.3500   29.9770   42.3550 C   0  0  0  0  0  0  0  0  0  0  0  0
   39.6350   30.4100   42.6390 C   0  0  0  0  0  0  0  0  0  0  0  0
   40.1530   31.4040   41.8520 C   0  0  0  0  0  0  0  0  0  0  0  0
   39.4810   31.9510   40.8520 N   0  0  0  0  0  0  0  0  0  0  0  0
   38.2370   31.5160   40.5940 C   0  0  0  0  0  0  0  0  0  0  0  0
   37.6510   30.5260   41.3360 N   0  0  0  0  0  0  0  0  0  0  0  0
   40.0680   29.8800   43.4780 H   0  0  0  0  0  0  0  0  0  0  0  0
   41.1660   31.7000   42.1260 H   0  0  0  0  0  0  0  0  0  0  0  0
   37.5520   32.1850   39.4500 C   0  0  0  0  0  0  0  0  0  0  0  0
   37.0320   33.3960   39.8160 F   0  0  0  0  0  0  0  0  0  0  0  0
   36.5090   31.3690   38.9800 F   0  0  0  0  0  0  0  0  0  0  0  0
   38.4060   32.3980   38.3890 F   0  0  0  0  0  0  0  0  0  0  0  0
  1  7  1  0  0  0  0
  1  6  1  0  0  0  0
  2  1  2  0  0  0  0
  3  2  1  0  0  0  0
  3  4  2  0  0  0  0
  4  5  1  0  0  0  0
  5  6  2  0  0  0  0
  5 24  1  0  0  0  0
  9  8  1  0  0  0  0
  9  3  1  0  0  0  0
 10 11  1  0  0  0  0
 10  9  2  0  0  0  0
 12 18  2  0  0  0  0
 12 10  1  0  0  0  0
 13 12  1  0  0  0  0
 14 13  1  0  0  0  0
 15 16  2  0  0  0  0
 15 13  1  0  0  0  0
 16 18  1  0  0  0  0
 17 16  1  0  0  0  0
 18 19  1  0  0  0  0
 19  8  2  0  0  0  0
 20 21  1  0  0  0  0
 20  2  1  0  0  0  0
 22 20  1  0  0  0  0
 23 20  1  0  0  0  0
 24 25  1  0  0  0  0
 25 27  1  0  0  0  0
 26 25  1  0  0  0  0
 28 29  1  0  0  0  0
 28 25  1  0  0  0  0
 29 34  1  0  0  0  0
 30 35  1  0  0  0  0
 30 29  2  0  0  0  0
 31 30  1  0  0  0  0
 32 31  2  0  0  0  0
 32 33  1  0  0  0  0
 33 28  2  0  0  0  0
 36 37  1  0  0  0  0
 36 32  1  0  0  0  0
 38 36  1  0  0  0  0
 39 36  1  0  0  0  0
M  END
>  <minimizedAffinity>
-6.11274147

$$$$
