
 OpenBabel03252506543D

 41 46  0  0  0  0  0  0  0  0999 V2000
   47.1510   31.3480   45.2570 C   0  0  0  0  0  0  0  0  0  0  0  0
   46.6790   32.6490   45.2710 C   0  0  0  0  0  0  0  0  0  0  0  0
   45.9730   33.1740   46.3260 C   0  0  0  0  0  0  0  0  0  0  0  0
   45.7050   32.3860   47.4440 C   0  0  0  0  0  0  0  0  0  0  0  0
   45.0590   32.5590   48.6300 N   0  0  0  0  0  0  0  0  0  0  0  0
   45.1300   31.3990   49.3280 C   0  0  0  0  0  0  0  0  0  0  0  0
   45.8210   30.5190   48.5630 N   0  0  0  0  0  0  0  0  0  0  0  0
   46.1830   31.1060   47.4010 C   0  0  0  0  0  0  0  0  0  0  0  0
   46.8940   30.5470   46.3640 C   0  0  0  0  0  0  0  0  0  0  0  0
   47.7070   30.9460   44.4180 H   0  0  0  0  0  0  0  0  0  0  0  0
   45.5940   34.1960   46.3520 H   0  0  0  0  0  0  0  0  0  0  0  0
   44.6130   33.4620   48.8810 H   0  0  0  0  0  0  0  0  0  0  0  0
   44.7010   31.2650   50.2980 H   0  0  0  0  0  0  0  0  0  0  0  0
   46.2720   35.2390   42.6820 C   0  0  0  0  0  0  0  0  0  0  0  0
   47.4510   35.1210   41.9560 C   0  0  0  0  0  0  0  0  0  0  0  0
   48.3830   34.1640   42.3450 C   0  0  0  0  0  0  0  0  0  0  0  0
   48.0970   33.3760   43.4310 N   0  0  0  0  0  0  0  0  0  0  0  0
   46.9360   33.5140   44.1210 C   0  0  0  0  0  0  0  0  0  0  0  0
   46.0400   34.4330   43.7480 N   0  0  0  0  0  0  0  0  0  0  0  0
   45.5610   35.9950   42.3560 H   0  0  0  0  0  0  0  0  0  0  0  0
   47.6870   35.7400   41.0960 H   0  0  0  0  0  0  0  0  0  0  0  0
   49.3310   34.0050   41.8330 H   0  0  0  0  0  0  0  0  0  0  0  0
   47.3570   29.1630   46.4260 C   0  0  0  0  0  0  0  0  0  0  0  0
   48.5840   28.7770   46.9320 C   0  0  0  0  0  0  0  0  0  0  0  0
   48.5820   27.3850   46.7860 C   0  0  0  0  0  0  0  0  0  0  0  0
   47.3850   27.0190   46.2140 C   0  0  0  0  0  0  0  0  0  0  0  0
   46.6880   28.1160   46.0170 O   0  0  0  0  0  0  0  0  0  0  0  0
   49.3800   29.3780   47.3490 H   0  0  0  0  0  0  0  0  0  0  0  0
   49.3670   26.6930   47.0630 H   0  0  0  0  0  0  0  0  0  0  0  0
   47.0690   25.2570   44.5550 C   0  0  0  0  0  3  0  0  0  0  0  0
   46.9290   25.6770   45.8700 C   0  0  0  0  0  0  0  0  0  0  0  0
   46.3760   24.8530   46.8280 C   0  0  0  0  0  0  0  0  0  0  0  0
   46.2570   25.1580   47.8570 H   0  0  0  0  0  0  0  0  0  0  0  0
   45.9590   23.5850   46.4460 C   0  0  0  0  0  0  0  0  0  0  0  0
   45.3890   22.6000   47.1990 N   0  0  0  0  0  0  0  0  0  0  0  0
   45.1580   22.6180   48.2180 H   0  0  0  0  0  0  0  0  0  0  0  0
   45.1570   21.5550   46.4080 N   0  0  0  0  0  0  0  0  0  0  0  0
   45.5620   21.8380   45.1560 C   0  0  0  0  0  0  0  0  0  0  0  0
   45.5310   21.2280   44.2460 H   0  0  0  0  0  0  0  0  0  0  0  0
   46.0780   23.1170   45.1370 C   0  0  0  0  0  0  0  0  0  0  0  0
   46.6380   23.9870   44.2280 C   0  0  0  0  0  3  0  0  0  0  0  0
  1  2  2  0  0  0  0
  1  9  1  0  0  0  0
  2  3  1  0  0  0  0
  3 11  1  0  0  0  0
  3  4  2  0  0  0  0
  4  5  1  0  0  0  0
  5 12  1  0  0  0  0
  5  6  1  0  0  0  0
  6 13  1  0  0  0  0
  7  6  2  0  0  0  0
  8  4  1  0  0  0  0
  8  7  1  0  0  0  0
  9 23  1  0  0  0  0
  9  8  2  0  0  0  0
 10  1  1  0  0  0  0
 14 19  1  0  0  0  0
 15 16  1  0  0  0  0
 15 14  2  0  0  0  0
 16 17  2  0  0  0  0
 17 18  1  0  0  0  0
 18  2  1  0  0  0  0
 19 18  2  0  0  0  0
 20 14  1  0  0  0  0
 21 15  1  0  0  0  0
 22 16  1  0  0  0  0
 23 24  2  0  0  0  0
 24 28  1  0  0  0  0
 25 24  1  0  0  0  0
 25 29  1  0  0  0  0
 26 25  2  0  0  0  0
 27 26  1  0  0  0  0
 27 23  1  0  0  0  0
 30 31  1  0  0  0  0
 31 26  1  0  0  0  0
 31 32  2  0  0  0  0
 32 33  1  0  0  0  0
 34 32  1  0  0  0  0
 34 35  1  0  0  0  0
 35 36  1  0  0  0  0
 37 35  1  0  0  0  0
 38 37  2  0  0  0  0
 39 38  1  0  0  0  0
 40 38  1  0  0  0  0
 40 34  2  0  0  0  0
 41 30  2  0  0  0  0
 41 40  1  0  0  0  0
M  END
>  <minimizedAffinity>
-5.49883842

>  <minimizedRMSD>
0.691465795

$$$$
