
 OpenBabel03242523393D

 22 24  0  0  0  0  0  0  0  0999 V2000
   39.4390   30.4560   41.8930 C   0  0  0  0  0  3  0  0  0  0  0  0
   38.1700   30.0140   41.5710 C   0  0  0  0  0  0  0  0  0  0  0  0
   37.2680   30.8480   40.9310 C   0  0  0  0  0  0  0  0  0  0  0  0
   36.2860   30.4630   40.6970 H   0  0  0  0  0  0  0  0  0  0  0  0
   37.6530   32.1390   40.6120 C   0  0  0  0  0  0  0  0  0  0  0  0
   36.9570   33.1050   40.0010 N   0  0  0  0  0  0  0  0  0  0  0  0
   35.9770   33.0190   39.6600 H   0  0  0  0  0  0  0  0  0  0  0  0
   37.7560   34.1610   39.9250 N   0  0  0  0  0  0  0  0  0  0  0  0
   38.9550   33.8580   40.4870 C   0  0  0  0  0  0  0  0  0  0  0  0
   39.7780   34.5580   40.5480 H   0  0  0  0  0  0  0  0  0  0  0  0
   38.9280   32.5530   40.9460 C   0  0  0  0  0  0  0  0  0  0  0  0
   39.8470   31.7440   41.5850 C   0  0  0  0  0  3  0  0  0  0  0  0
   36.5890   27.1830   43.2910 C   0  0  0  0  0  0  0  0  0  0  0  0
   37.0350   26.0680   42.5520 C   0  0  0  0  0  0  0  0  0  0  0  0
   37.8860   26.3230   41.4580 C   0  0  0  0  0  0  0  0  0  0  0  0
   38.2250   27.6020   41.1800 N   0  0  0  0  0  0  0  0  0  0  0  0
   37.7760   28.6490   41.9130 C   0  0  0  0  0  0  0  0  0  0  0  0
   36.9620   28.4260   42.9610 N   0  0  0  0  0  0  0  0  0  0  0  0
   35.9410   26.9080   44.1130 H   0  0  0  0  0  0  0  0  0  0  0  0
   36.7630   25.0500   42.7780 H   0  0  0  0  0  0  0  0  0  0  0  0
   38.4990   24.9660   40.4670 S   0  0  0  0  0  0  0  0  0  0  0  0
   37.4210   24.2330   39.9520 H   0  0  0  0  0  0  0  0  0  0  0  0
  2  1  2  0  0  0  0
  2 17  1  0  0  0  0
  3  2  1  0  0  0  0
  4  3  1  0  0  0  0
  5  3  2  0  0  0  0
  5 11  1  0  0  0  0
  6  5  1  0  0  0  0
  7  6  1  0  0  0  0
  8  6  1  0  0  0  0
  8  9  2  0  0  0  0
  9 10  1  0  0  0  0
  9 11  1  0  0  0  0
 11 12  2  0  0  0  0
 12  1  1  0  0  0  0
 13 19  1  0  0  0  0
 14 20  1  0  0  0  0
 14 13  2  0  0  0  0
 15 14  1  0  0  0  0
 16 15  2  0  0  0  0
 16 17  1  0  0  0  0
 17 18  2  0  0  0  0
 18 13  1  0  0  0  0
 21 15  1  0  0  0  0
 22 21  1  0  0  0  0
M  END
>  <minimizedAffinity>
-5.09040785

$$$$

 OpenBabel03242523393D

 22 24  0  0  0  0  0  0  0  0999 V2000
   39.9760   29.7260   42.3100 C   0  0  0  0  0  3  0  0  0  0  0  0
   38.9360   30.4650   41.7810 C   0  0  0  0  0  0  0  0  0  0  0  0
   37.6300   30.0090   41.8530 C   0  0  0  0  0  0  0  0  0  0  0  0
   36.8460   30.6180   41.4270 H   0  0  0  0  0  0  0  0  0  0  0  0
   37.3740   28.7950   42.4680 C   0  0  0  0  0  0  0  0  0  0  0  0
   36.2060   28.1670   42.6510 N   0  0  0  0  0  0  0  0  0  0  0  0
   35.2770   28.5210   42.3430 H   0  0  0  0  0  0  0  0  0  0  0  0
   36.4780   27.0360   43.2900 N   0  0  0  0  0  0  0  0  0  0  0  0
   37.8160   26.9540   43.5080 C   0  0  0  0  0  0  0  0  0  0  0  0
   38.2870   26.1200   44.0130 H   0  0  0  0  0  0  0  0  0  0  0  0
   38.4340   28.0780   42.9880 C   0  0  0  0  0  0  0  0  0  0  0  0
   39.7450   28.5080   42.9290 C   0  0  0  0  0  3  0  0  0  0  0  0
   38.4490   33.6810   40.0800 C   0  0  0  0  0  0  0  0  0  0  0  0
   39.7650   34.1610   39.9160 C   0  0  0  0  0  0  0  0  0  0  0  0
   40.8080   33.3500   40.4050 C   0  0  0  0  0  0  0  0  0  0  0  0
   40.4970   32.1730   40.9950 N   0  0  0  0  0  0  0  0  0  0  0  0
   39.2200   31.7440   41.1350 C   0  0  0  0  0  0  0  0  0  0  0  0
   38.2100   32.5050   40.6740 N   0  0  0  0  0  0  0  0  0  0  0  0
   37.7050   34.3580   39.6800 H   0  0  0  0  0  0  0  0  0  0  0  0
   40.0070   35.0990   39.4450 H   0  0  0  0  0  0  0  0  0  0  0  0
   42.5080   33.8820   40.2390 S   0  0  0  0  0  0  0  0  0  0  0  0
   42.6740   35.1310   40.8520 H   0  0  0  0  0  0  0  0  0  0  0  0
  1 12  1  0  0  0  0
  2  3  1  0  0  0  0
  2  1  2  0  0  0  0
  3  5  2  0  0  0  0
  4  3  1  0  0  0  0
  5  6  1  0  0  0  0
  5 11  1  0  0  0  0
  6  8  1  0  0  0  0
  7  6  1  0  0  0  0
  8  9  2  0  0  0  0
  9 10  1  0  0  0  0
 11  9  1  0  0  0  0
 12 11  2  0  0  0  0
 13 18  1  0  0  0  0
 14 13  2  0  0  0  0
 14 15  1  0  0  0  0
 15 16  2  0  0  0  0
 16 17  1  0  0  0  0
 17  2  1  0  0  0  0
 18 17  2  0  0  0  0
 19 13  1  0  0  0  0
 20 14  1  0  0  0  0
 21 15  1  0  0  0  0
 21 22  1  0  0  0  0
M  END
>  <minimizedAffinity>
-4.8637886

$$$$

 OpenBabel03242523393D

 22 24  0  0  0  0  0  0  0  0999 V2000
   36.7920   30.7340   40.0620 C   0  0  0  0  0  3  0  0  0  0  0  0
   37.6600   30.1710   40.9770 C   0  0  0  0  0  0  0  0  0  0  0  0
   38.7480   30.8820   41.4570 C   0  0  0  0  0  0  0  0  0  0  0  0
   39.4020   30.4050   42.1720 H   0  0  0  0  0  0  0  0  0  0  0  0
   38.9580   32.1750   41.0090 C   0  0  0  0  0  0  0  0  0  0  0  0
   39.9290   33.0370   41.3320 N   0  0  0  0  0  0  0  0  0  0  0  0
   40.7040   32.8490   42.0020 H   0  0  0  0  0  0  0  0  0  0  0  0
   39.7000   34.1460   40.6400 N   0  0  0  0  0  0  0  0  0  0  0  0
   38.5850   33.9800   39.8830 C   0  0  0  0  0  0  0  0  0  0  0  0
   38.1920   34.7470   39.2270 H   0  0  0  0  0  0  0  0  0  0  0  0
   38.0730   32.7120   40.0940 C   0  0  0  0  0  0  0  0  0  0  0  0
   36.9820   32.0260   39.5980 C   0  0  0  0  0  3  0  0  0  0  0  0
   37.1970   27.2920   43.2080 C   0  0  0  0  0  0  0  0  0  0  0  0
   36.9840   26.2230   42.3130 C   0  0  0  0  0  0  0  0  0  0  0  0
   37.0060   26.5250   40.9360 C   0  0  0  0  0  0  0  0  0  0  0  0
   37.2270   27.8030   40.5530 N   0  0  0  0  0  0  0  0  0  0  0  0
   37.4270   28.8050   41.4420 C   0  0  0  0  0  0  0  0  0  0  0  0
   37.4100   28.5370   42.7600 N   0  0  0  0  0  0  0  0  0  0  0  0
   37.1660   26.9820   44.2440 H   0  0  0  0  0  0  0  0  0  0  0  0
   36.8100   25.2060   42.6230 H   0  0  0  0  0  0  0  0  0  0  0  0
   36.7460   25.2290   39.7320 S   0  0  0  0  0  0  0  0  0  0  0  0
   35.5130   24.6050   39.9680 H   0  0  0  0  0  0  0  0  0  0  0  0
  1  2  1  0  0  0  0
  2 17  1  0  0  0  0
  2  3  2  0  0  0  0
  3  4  1  0  0  0  0
  5  6  1  0  0  0  0
  5  3  1  0  0  0  0
  6  7  1  0  0  0  0
  8  6  1  0  0  0  0
  9 11  1  0  0  0  0
  9  8  2  0  0  0  0
 10  9  1  0  0  0  0
 11  5  2  0  0  0  0
 12  1  2  0  0  0  0
 12 11  1  0  0  0  0
 13 19  1  0  0  0  0
 14 20  1  0  0  0  0
 14 13  2  0  0  0  0
 15 14  1  0  0  0  0
 16 15  2  0  0  0  0
 16 17  1  0  0  0  0
 17 18  2  0  0  0  0
 18 13  1  0  0  0  0
 21 22  1  0  0  0  0
 21 15  1  0  0  0  0
M  END
>  <minimizedAffinity>
-4.78605461

$$$$

 OpenBabel03242523393D

 22 24  0  0  0  0  0  0  0  0999 V2000
   36.4760   26.8770   39.6410 C   0  0  0  0  0  3  0  0  0  0  0  0
   35.8860   28.1210   39.5220 C   0  0  0  0  0  0  0  0  0  0  0  0
   35.9420   29.0370   40.5600 C   0  0  0  0  0  0  0  0  0  0  0  0
   35.4680   29.9980   40.4260 H   0  0  0  0  0  0  0  0  0  0  0  0
   36.6020   28.6920   41.7280 C   0  0  0  0  0  0  0  0  0  0  0  0
   36.7790   29.4080   42.8440 N   0  0  0  0  0  0  0  0  0  0  0  0
   36.4300   30.3760   43.0010 H   0  0  0  0  0  0  0  0  0  0  0  0
   37.4740   28.6460   43.6790 N   0  0  0  0  0  0  0  0  0  0  0  0
   37.7320   27.4520   43.0870 C   0  0  0  0  0  0  0  0  0  0  0  0
   38.2860   26.6560   43.5690 H   0  0  0  0  0  0  0  0  0  0  0  0
   37.1820   27.4420   41.8170 C   0  0  0  0  0  0  0  0  0  0  0  0
   37.1410   26.5090   40.7990 C   0  0  0  0  0  3  0  0  0  0  0  0
   33.2100   29.0090   37.1720 C   0  0  0  0  0  0  0  0  0  0  0  0
   33.8900   29.1370   35.9430 C   0  0  0  0  0  0  0  0  0  0  0  0
   35.2810   28.9090   35.9540 C   0  0  0  0  0  0  0  0  0  0  0  0
   35.8790   28.5850   37.1230 N   0  0  0  0  0  0  0  0  0  0  0  0
   35.1930   28.4720   38.2850 C   0  0  0  0  0  0  0  0  0  0  0  0
   33.8650   28.6860   38.2950 N   0  0  0  0  0  0  0  0  0  0  0  0
   32.1480   29.1990   37.0830 H   0  0  0  0  0  0  0  0  0  0  0  0
   33.4090   29.3940   35.0140 H   0  0  0  0  0  0  0  0  0  0  0  0
   36.2220   29.0490   34.4390 S   0  0  0  0  0  0  0  0  0  0  0  0
   36.0470   30.3270   33.8910 H   0  0  0  0  0  0  0  0  0  0  0  0
  1 12  1  0  0  0  0
  2  1  2  0  0  0  0
  2  3  1  0  0  0  0
  3  5  2  0  0  0  0
  4  3  1  0  0  0  0
  5 11  1  0  0  0  0
  5  6  1  0  0  0  0
  6  7  1  0  0  0  0
  6  8  1  0  0  0  0
  9 10  1  0  0  0  0
  9  8  2  0  0  0  0
 11  9  1  0  0  0  0
 12 11  2  0  0  0  0
 13 18  1  0  0  0  0
 14 15  1  0  0  0  0
 14 13  2  0  0  0  0
 15 16  2  0  0  0  0
 16 17  1  0  0  0  0
 17 18  2  0  0  0  0
 17  2  1  0  0  0  0
 19 13  1  0  0  0  0
 20 14  1  0  0  0  0
 21 15  1  0  0  0  0
 22 21  1  0  0  0  0
M  END
>  <minimizedAffinity>
-4.71482086

$$$$

 OpenBabel03242523393D

 22 24  0  0  0  0  0  0  0  0999 V2000
   37.1830   29.0390   38.7460 C   0  0  0  0  0  3  0  0  0  0  0  0
   37.0980   29.0500   40.1250 C   0  0  0  0  0  0  0  0  0  0  0  0
   37.0700   30.2450   40.8250 C   0  0  0  0  0  0  0  0  0  0  0  0
   37.0020   30.2100   41.9030 H   0  0  0  0  0  0  0  0  0  0  0  0
   37.1270   31.4390   40.1250 C   0  0  0  0  0  0  0  0  0  0  0  0
   37.1130   32.6940   40.5870 N   0  0  0  0  0  0  0  0  0  0  0  0
   37.0540   32.9670   41.5900 H   0  0  0  0  0  0  0  0  0  0  0  0
   37.1890   33.4910   39.5290 N   0  0  0  0  0  0  0  0  0  0  0  0
   37.2490   32.7350   38.4020 C   0  0  0  0  0  0  0  0  0  0  0  0
   37.3160   33.1550   37.4060 H   0  0  0  0  0  0  0  0  0  0  0  0
   37.2120   31.3950   38.7470 C   0  0  0  0  0  0  0  0  0  0  0  0
   37.2430   30.2200   38.0230 C   0  0  0  0  0  3  0  0  0  0  0  0
   36.9300   26.6330   42.8810 C   0  0  0  0  0  0  0  0  0  0  0  0
   36.9250   25.3880   42.2180 C   0  0  0  0  0  0  0  0  0  0  0  0
   36.9800   25.4120   40.8090 C   0  0  0  0  0  0  0  0  0  0  0  0
   37.0350   26.6080   40.1800 N   0  0  0  0  0  0  0  0  0  0  0  0
   37.0380   27.7840   40.8510 C   0  0  0  0  0  0  0  0  0  0  0  0
   36.9850   27.7820   42.1960 N   0  0  0  0  0  0  0  0  0  0  0  0
   36.8850   26.5320   43.9580 H   0  0  0  0  0  0  0  0  0  0  0  0
   36.8810   24.4380   42.7240 H   0  0  0  0  0  0  0  0  0  0  0  0
   36.9780   23.8800   39.8880 S   0  0  0  0  0  0  0  0  0  0  0  0
   35.8370   23.1340   40.2140 H   0  0  0  0  0  0  0  0  0  0  0  0
  1  2  1  0  0  0  0
  2  3  2  0  0  0  0
  2 17  1  0  0  0  0
  3  4  1  0  0  0  0
  5  6  1  0  0  0  0
  5  3  1  0  0  0  0
  6  7  1  0  0  0  0
  8  6  1  0  0  0  0
  9 11  1  0  0  0  0
  9  8  2  0  0  0  0
 10  9  1  0  0  0  0
 11  5  2  0  0  0  0
 12  1  2  0  0  0  0
 12 11  1  0  0  0  0
 13 19  1  0  0  0  0
 14 20  1  0  0  0  0
 14 13  1  0  0  0  0
 15 14  2  0  0  0  0
 16 15  1  0  0  0  0
 16 17  2  0  0  0  0
 17 18  1  0  0  0  0
 18 13  2  0  0  0  0
 21 22  1  0  0  0  0
 21 15  1  0  0  0  0
M  END
>  <minimizedAffinity>
-4.61012173

$$$$

 OpenBabel03242523393D

 22 24  0  0  0  0  0  0  0  0999 V2000
   40.3630   28.5610   41.6500 C   0  0  0  0  0  3  0  0  0  0  0  0
   40.0200   29.8060   42.1430 C   0  0  0  0  0  0  0  0  0  0  0  0
   38.8380   29.9940   42.8400 C   0  0  0  0  0  0  0  0  0  0  0  0
   38.6080   30.9830   43.2080 H   0  0  0  0  0  0  0  0  0  0  0  0
   37.9960   28.9140   43.0430 C   0  0  0  0  0  0  0  0  0  0  0  0
   36.8210   28.8630   43.6800 N   0  0  0  0  0  0  0  0  0  0  0  0
   36.3480   29.6700   44.1380 H   0  0  0  0  0  0  0  0  0  0  0  0
   36.4010   27.6060   43.6060 N   0  0  0  0  0  0  0  0  0  0  0  0
   37.3140   26.8680   42.9230 C   0  0  0  0  0  0  0  0  0  0  0  0
   37.1970   25.8090   42.7280 H   0  0  0  0  0  0  0  0  0  0  0  0
   38.3650   27.6820   42.5390 C   0  0  0  0  0  0  0  0  0  0  0  0
   39.5360   27.4650   41.8400 C   0  0  0  0  0  3  0  0  0  0  0  0
   42.8840   32.0800   42.4550 C   0  0  0  0  0  0  0  0  0  0  0  0
   42.6080   33.0780   41.4970 C   0  0  0  0  0  0  0  0  0  0  0  0
   41.4200   32.9400   40.7520 C   0  0  0  0  0  0  0  0  0  0  0  0
   40.6200   31.8770   40.9920 N   0  0  0  0  0  0  0  0  0  0  0  0
   40.9180   30.9370   41.9210 C   0  0  0  0  0  0  0  0  0  0  0  0
   42.0480   31.0510   42.6420 N   0  0  0  0  0  0  0  0  0  0  0  0
   43.8120   32.2550   42.9840 H   0  0  0  0  0  0  0  0  0  0  0  0
   43.2490   33.9240   41.3090 H   0  0  0  0  0  0  0  0  0  0  0  0
   40.9920   34.1610   39.5170 S   0  0  0  0  0  0  0  0  0  0  0  0
   42.0250   34.2610   38.5740 H   0  0  0  0  0  0  0  0  0  0  0  0
  1 12  2  0  0  0  0
  1  2  1  0  0  0  0
  2  3  2  0  0  0  0
  3  5  1  0  0  0  0
  3  4  1  0  0  0  0
  5  6  1  0  0  0  0
  6  7  1  0  0  0  0
  8  6  1  0  0  0  0
  9  8  2  0  0  0  0
 10  9  1  0  0  0  0
 11  9  1  0  0  0  0
 11  5  2  0  0  0  0
 12 11  1  0  0  0  0
 13 18  1  0  0  0  0
 13 19  1  0  0  0  0
 14 13  2  0  0  0  0
 15 16  2  0  0  0  0
 15 14  1  0  0  0  0
 16 17  1  0  0  0  0
 17  2  1  0  0  0  0
 17 18  2  0  0  0  0
 20 14  1  0  0  0  0
 21 15  1  0  0  0  0
 22 21  1  0  0  0  0
M  END
>  <minimizedAffinity>
-4.58638191

$$$$

 OpenBabel03242523393D

 22 24  0  0  0  0  0  0  0  0999 V2000
   38.0790   30.9460   37.8300 C   0  0  0  0  0  3  0  0  0  0  0  0
   38.2180   31.5450   39.0670 C   0  0  0  0  0  0  0  0  0  0  0  0
   37.3080   31.3000   40.0830 C   0  0  0  0  0  0  0  0  0  0  0  0
   37.4540   31.7890   41.0350 H   0  0  0  0  0  0  0  0  0  0  0  0
   36.2490   30.4400   39.8460 C   0  0  0  0  0  0  0  0  0  0  0  0
   35.2650   30.0620   40.6680 N   0  0  0  0  0  0  0  0  0  0  0  0
   35.1490   30.3750   41.6540 H   0  0  0  0  0  0  0  0  0  0  0  0
   34.4930   29.2280   39.9810 N   0  0  0  0  0  0  0  0  0  0  0  0
   34.9950   29.0840   38.7280 C   0  0  0  0  0  0  0  0  0  0  0  0
   34.5410   28.4530   37.9740 H   0  0  0  0  0  0  0  0  0  0  0  0
   36.1360   29.8560   38.5990 C   0  0  0  0  0  0  0  0  0  0  0  0
   37.0270   30.0820   37.5690 C   0  0  0  0  0  3  0  0  0  0  0  0
   40.4410   33.9700   40.6970 C   0  0  0  0  0  0  0  0  0  0  0  0
   41.4630   34.1600   39.7450 C   0  0  0  0  0  0  0  0  0  0  0  0
   41.3610   33.4340   38.5410 C   0  0  0  0  0  0  0  0  0  0  0  0
   40.3040   32.6080   38.3660 N   0  0  0  0  0  0  0  0  0  0  0  0
   39.3400   32.4510   39.3040 C   0  0  0  0  0  0  0  0  0  0  0  0
   39.4210   33.1350   40.4600 N   0  0  0  0  0  0  0  0  0  0  0  0
   40.5890   34.5590   41.5920 H   0  0  0  0  0  0  0  0  0  0  0  0
   42.3030   34.8190   39.8890 H   0  0  0  0  0  0  0  0  0  0  0  0
   42.6140   33.6150   37.2780 S   0  0  0  0  0  0  0  0  0  0  0  0
   43.8710   33.2980   37.8110 H   0  0  0  0  0  0  0  0  0  0  0  0
  1  2  1  0  0  0  0
  2 17  1  0  0  0  0
  2  3  2  0  0  0  0
  3  4  1  0  0  0  0
  5  3  1  0  0  0  0
  5  6  1  0  0  0  0
  6  7  1  0  0  0  0
  8  6  1  0  0  0  0
  9  8  2  0  0  0  0
 10  9  1  0  0  0  0
 11  9  1  0  0  0  0
 11  5  2  0  0  0  0
 12  1  2  0  0  0  0
 12 11  1  0  0  0  0
 13 19  1  0  0  0  0
 14 20  1  0  0  0  0
 14 13  2  0  0  0  0
 15 14  1  0  0  0  0
 16 15  2  0  0  0  0
 16 17  1  0  0  0  0
 17 18  2  0  0  0  0
 18 13  1  0  0  0  0
 21 22  1  0  0  0  0
 21 15  1  0  0  0  0
M  END
>  <minimizedAffinity>
-4.56110525

$$$$

 OpenBabel03242523393D

 22 24  0  0  0  0  0  0  0  0999 V2000
   40.0640   30.9130   40.7400 C   0  0  0  0  0  3  0  0  0  0  0  0
   40.3230   30.4910   42.0300 C   0  0  0  0  0  0  0  0  0  0  0  0
   41.3190   31.0860   42.7860 C   0  0  0  0  0  0  0  0  0  0  0  0
   41.4890   30.7260   43.7900 H   0  0  0  0  0  0  0  0  0  0  0  0
   42.0600   32.1180   42.2340 C   0  0  0  0  0  0  0  0  0  0  0  0
   43.0560   32.8290   42.7730 N   0  0  0  0  0  0  0  0  0  0  0  0
   43.4360   32.7020   43.7340 H   0  0  0  0  0  0  0  0  0  0  0  0
   43.4430   33.7020   41.8520 N   0  0  0  0  0  0  0  0  0  0  0  0
   42.6890   33.5380   40.7340 C   0  0  0  0  0  0  0  0  0  0  0  0
   42.8150   34.1350   39.8390 H   0  0  0  0  0  0  0  0  0  0  0  0
   41.7780   32.5180   40.9420 C   0  0  0  0  0  0  0  0  0  0  0  0
   40.7920   31.9430   40.1650 C   0  0  0  0  0  3  0  0  0  0  0  0
   37.5060   28.6180   43.4560 C   0  0  0  0  0  0  0  0  0  0  0  0
   38.0520   27.3360   43.6770 C   0  0  0  0  0  0  0  0  0  0  0  0
   39.4020   27.1450   43.3230 C   0  0  0  0  0  0  0  0  0  0  0  0
   40.0920   28.1830   42.8000 N   0  0  0  0  0  0  0  0  0  0  0  0
   39.5350   29.4010   42.6010 C   0  0  0  0  0  0  0  0  0  0  0  0
   38.2460   29.6030   42.9320 N   0  0  0  0  0  0  0  0  0  0  0  0
   36.4680   28.6870   43.7510 H   0  0  0  0  0  0  0  0  0  0  0  0
   37.4980   26.5130   44.0950 H   0  0  0  0  0  0  0  0  0  0  0  0
   40.1740   25.5500   43.5710 S   0  0  0  0  0  0  0  0  0  0  0  0
   39.4540   24.5650   42.8820 H   0  0  0  0  0  0  0  0  0  0  0  0
  1  2  1  0  0  0  0
  2 17  1  0  0  0  0
  2  3  2  0  0  0  0
  3  4  1  0  0  0  0
  5  6  1  0  0  0  0
  5  3  1  0  0  0  0
  6  7  1  0  0  0  0
  8  6  1  0  0  0  0
  9 11  1  0  0  0  0
  9  8  2  0  0  0  0
 10  9  1  0  0  0  0
 11  5  2  0  0  0  0
 12  1  2  0  0  0  0
 12 11  1  0  0  0  0
 13 14  1  0  0  0  0
 13 19  1  0  0  0  0
 14 20  1  0  0  0  0
 15 21  1  0  0  0  0
 15 14  2  0  0  0  0
 16 15  1  0  0  0  0
 17 16  2  0  0  0  0
 17 18  1  0  0  0  0
 18 13  2  0  0  0  0
 22 21  1  0  0  0  0
M  END
>  <minimizedAffinity>
-4.46288204

$$$$

 OpenBabel03242523393D

 22 24  0  0  0  0  0  0  0  0999 V2000
   37.0240   27.0400   40.8620 C   0  0  0  0  0  3  0  0  0  0  0  0
   37.8860   27.9640   41.4190 C   0  0  0  0  0  0  0  0  0  0  0  0
   38.9110   27.5640   42.2610 C   0  0  0  0  0  0  0  0  0  0  0  0
   39.5620   28.3190   42.6760 H   0  0  0  0  0  0  0  0  0  0  0  0
   39.0660   26.2170   42.5400 C   0  0  0  0  0  0  0  0  0  0  0  0
   39.9730   25.6110   43.3150 N   0  0  0  0  0  0  0  0  0  0  0  0
   40.7310   26.0900   43.8430 H   0  0  0  0  0  0  0  0  0  0  0  0
   39.7100   24.3110   43.2650 N   0  0  0  0  0  0  0  0  0  0  0  0
   38.6370   24.1020   42.4590 C   0  0  0  0  0  0  0  0  0  0  0  0
   38.2260   23.1200   42.2580 H   0  0  0  0  0  0  0  0  0  0  0  0
   38.1890   25.3160   41.9680 C   0  0  0  0  0  0  0  0  0  0  0  0
   37.1590   25.6860   41.1270 C   0  0  0  0  0  3  0  0  0  0  0  0
   36.2910   31.1960   40.7210 C   0  0  0  0  0  0  0  0  0  0  0  0
   37.3880   32.0650   40.5460 C   0  0  0  0  0  0  0  0  0  0  0  0
   38.6760   31.5060   40.6760 C   0  0  0  0  0  0  0  0  0  0  0  0
   38.7880   30.1870   40.9550 N   0  0  0  0  0  0  0  0  0  0  0  0
   37.7110   29.3830   41.1170 C   0  0  0  0  0  0  0  0  0  0  0  0
   36.4740   29.8980   40.9970 N   0  0  0  0  0  0  0  0  0  0  0  0
   35.3390   31.6970   40.6070 H   0  0  0  0  0  0  0  0  0  0  0  0
   37.2930   33.1140   40.3240 H   0  0  0  0  0  0  0  0  0  0  0  0
   40.1230   32.5360   40.4700 S   0  0  0  0  0  0  0  0  0  0  0  0
   40.0750   33.6040   41.3770 H   0  0  0  0  0  0  0  0  0  0  0  0
  1 12  2  0  0  0  0
  1  2  1  0  0  0  0
  2  3  2  0  0  0  0
  3  5  1  0  0  0  0
  3  4  1  0  0  0  0
  5  6  1  0  0  0  0
  6  7  1  0  0  0  0
  8  6  1  0  0  0  0
  9  8  2  0  0  0  0
 10  9  1  0  0  0  0
 11  9  1  0  0  0  0
 11  5  2  0  0  0  0
 12 11  1  0  0  0  0
 13 18  1  0  0  0  0
 14 15  1  0  0  0  0
 14 13  2  0  0  0  0
 15 16  2  0  0  0  0
 16 17  1  0  0  0  0
 17  2  1  0  0  0  0
 18 17  2  0  0  0  0
 19 13  1  0  0  0  0
 20 14  1  0  0  0  0
 21 15  1  0  0  0  0
 21 22  1  0  0  0  0
M  END
>  <minimizedAffinity>
-4.45037127

$$$$
