
 OpenBabel03252509033D

 51 54  0  0  1  0  0  0  0  0999 V2000
   46.4440   34.4730   43.7180 N   0  0  0  0  0  0  0  0  0  0  0  0
   45.8860   35.3920   42.8010 C   0  0  0  0  0  0  0  0  0  0  0  0
   44.3700   35.5060   42.8570 C   0  0  0  0  0  0  0  0  0  0  0  0
   43.8080   35.3550   44.2470 C   0  0  0  0  0  0  0  0  0  0  0  0
   44.9060   35.1980   45.2870 C   0  0  0  0  0  0  0  0  0  0  0  0
   45.7130   33.9450   44.7540 C   0  0  2  0  0  0  0  0  0  0  0  0
   46.1370   35.2470   41.7460 H   0  0  0  0  0  0  0  0  0  0  0  0
   46.2620   36.4180   43.0490 H   0  0  0  0  0  0  0  0  0  0  0  0
   43.9580   34.7240   42.1670 H   0  0  0  0  0  0  0  0  0  0  0  0
   44.0810   36.4840   42.4170 H   0  0  0  0  0  0  0  0  0  0  0  0
   43.1300   36.1830   44.5370 H   0  0  0  0  0  0  0  0  0  0  0  0
   43.2100   34.4180   44.3050 H   0  0  0  0  0  0  0  0  0  0  0  0
   44.4550   34.9420   46.2460 H   0  0  0  0  0  0  0  0  0  0  0  0
   45.5890   36.0560   45.3010 H   0  0  0  0  0  0  0  0  0  0  0  0
   44.9710   33.1570   44.5430 H   0  0  0  0  0  0  0  0  0  0  0  0
   47.5480   33.7060   43.1920 C   0  0  0  0  0  0  0  0  0  0  0  0
   48.3040   34.3740   42.7570 H   0  0  0  0  0  0  0  0  0  0  0  0
   48.0400   33.1800   44.0560 H   0  0  0  0  0  0  0  0  0  0  0  0
   47.0030   32.6770   42.2730 C   0  0  0  0  0  0  0  0  0  0  0  0
   45.9130   32.8270   42.0780 H   0  0  0  0  0  0  0  0  0  0  0  0
   47.1070   31.6320   42.6330 H   0  0  0  0  0  0  0  0  0  0  0  0
   49.1320   31.9480   39.2570 C   0  0  0  0  0  0  0  0  0  0  0  0
   48.5110   31.8420   40.5140 C   0  0  0  0  0  0  0  0  0  0  0  0
   47.6490   32.8090   40.9380 C   0  0  0  0  0  0  0  0  0  0  0  0
   47.4250   33.8470   40.1170 N   0  0  0  0  0  0  0  0  0  0  0  0
   48.0120   33.9570   38.9170 C   0  0  0  0  0  0  0  0  0  0  0  0
   48.8670   33.0190   38.4730 N   0  0  0  0  0  0  0  0  0  0  0  0
   49.8150   31.1690   38.9370 H   0  0  0  0  0  0  0  0  0  0  0  0
   48.7580   30.9630   41.1060 H   0  0  0  0  0  0  0  0  0  0  0  0
   47.7220   34.8520   38.3850 H   0  0  0  0  0  0  0  0  0  0  0  0
   46.4810   33.6420   45.8620 O   0  0  0  0  0  0  0  0  0  0  0  0
   45.9170   31.1110   45.2650 O   0  0  0  0  0  0  0  0  0  0  0  0
   46.2510   32.0800   46.4110 P   0  0  2  0  0  0  0  0  0  0  0  0
   44.8120   32.1250   47.3510 O   0  0  0  0  0  0  0  0  0  0  0  0
   44.0150   32.0090   46.8030 H   0  0  0  0  0  0  0  0  0  0  0  0
   47.4730   31.5140   47.3920 O   0  0  0  0  0  0  0  0  0  0  0  0
   47.9490   30.3230   46.8750 C   0  0  0  0  0  0  0  0  0  0  0  0
   47.0610   29.7260   46.5930 H   0  0  0  0  0  0  0  0  0  0  0  0
   48.5760   30.4740   45.9660 H   0  0  0  0  0  0  0  0  0  0  0  0
   49.0600   28.2540   47.8020 C   0  0  0  0  0  3  0  0  0  0  0  0
   48.7380   29.6040   47.9100 C   0  0  0  0  0  0  0  0  0  0  0  0
   49.1470   30.3580   49.0160 C   0  0  0  0  0  0  0  0  0  0  0  0
   48.9100   31.4030   49.1230 H   0  0  0  0  0  0  0  0  0  0  0  0
   49.8830   29.7290   50.0020 C   0  0  0  0  0  0  0  0  0  0  0  0
   50.4110   30.1860   51.1690 N   0  0  0  0  0  0  0  0  0  0  0  0
   50.3040   31.1840   51.4810 H   0  0  0  0  0  0  0  0  0  0  0  0
   51.0370   29.1870   51.7720 N   0  0  0  0  0  0  0  0  0  0  0  0
   50.9380   28.0610   51.0310 C   0  0  0  0  0  0  0  0  0  0  0  0
   51.3640   27.0980   51.3000 H   0  0  0  0  0  0  0  0  0  0  0  0
   50.2050   28.3800   49.8920 C   0  0  0  0  0  0  0  0  0  0  0  0
   49.8050   27.6330   48.8070 C   0  0  0  0  0  3  0  0  0  0  0  0
  1  6  1  0  0  0  0
  2  3  1  0  0  0  0
  2  8  1  0  0  0  0
  2  1  1  0  0  0  0
  3  4  1  0  0  0  0
  4 12  1  0  0  0  0
  4 11  1  0  0  0  0
  4  5  1  0  0  0  0
  5 14  1  0  0  0  0
  5 13  1  0  0  0  0
  6 15  1  6  0  0  0
  6  5  1  0  0  0  0
  6 31  1  0  0  0  0
  7  2  1  0  0  0  0
  9  3  1  0  0  0  0
 10  3  1  0  0  0  0
 16  1  1  0  0  0  0
 16 18  1  0  0  0  0
 17 16  1  0  0  0  0
 19 21  1  0  0  0  0
 19 16  1  0  0  0  0
 20 19  1  0  0  0  0
 22 23  1  0  0  0  0
 23 24  2  0  0  0  0
 23 29  1  0  0  0  0
 24 19  1  0  0  0  0
 25 24  1  0  0  0  0
 26 25  2  0  0  0  0
 27 26  1  0  0  0  0
 27 22  2  0  0  0  0
 28 22  1  0  0  0  0
 30 26  1  0  0  0  0
 31 33  1  0  0  0  0
 33 32  2  6  0  0  0
 33 34  1  0  0  0  0
 33 36  1  0  0  0  0
 35 34  1  0  0  0  0
 37 36  1  0  0  0  0
 37 41  1  0  0  0  0
 38 37  1  0  0  0  0
 39 37  1  0  0  0  0
 40 41  2  0  0  0  0
 40 51  1  0  0  0  0
 41 42  1  0  0  0  0
 42 43  1  0  0  0  0
 42 44  2  0  0  0  0
 44 45  1  0  0  0  0
 45 46  1  0  0  0  0
 45 47  1  0  0  0  0
 48 49  1  0  0  0  0
 48 47  2  0  0  0  0
 50 44  1  0  0  0  0
 50 48  1  0  0  0  0
 51 50  2  0  0  0  0
M  END
>  <minimizedAffinity>
-5.07714367

>  <minimizedRMSD>
2.71312666

$$$$
