
 OpenBabel03252509033D

 51 54  0  0  1  0  0  0  0  0999 V2000
   47.1530   34.1750   43.0770 N   0  0  0  0  0  0  0  0  0  0  0  0
   46.6950   35.2820   42.3280 C   0  0  0  0  0  0  0  0  0  0  0  0
   45.2000   35.5460   42.4320 C   0  0  0  0  0  0  0  0  0  0  0  0
   44.6290   35.2360   43.7920 C   0  0  0  0  0  0  0  0  0  0  0  0
   45.7070   34.7990   44.7710 C   0  0  0  0  0  0  0  0  0  0  0  0
   46.3720   33.5690   44.0310 C   0  0  2  0  0  0  0  0  0  0  0  0
   46.9260   35.2810   41.2590 H   0  0  0  0  0  0  0  0  0  0  0  0
   47.1790   36.2100   42.7280 H   0  0  0  0  0  0  0  0  0  0  0  0
   44.7040   34.9320   41.6350 H   0  0  0  0  0  0  0  0  0  0  0  0
   45.0170   36.6060   42.1580 H   0  0  0  0  0  0  0  0  0  0  0  0
   44.0450   36.0740   44.2220 H   0  0  0  0  0  0  0  0  0  0  0  0
   43.9330   34.3700   43.7130 H   0  0  0  0  0  0  0  0  0  0  0  0
   45.2330   34.4430   45.6880 H   0  0  0  0  0  0  0  0  0  0  0  0
   46.4780   35.5670   44.9080 H   0  0  0  0  0  0  0  0  0  0  0  0
   45.5490   32.9070   43.7130 H   0  0  0  0  0  0  0  0  0  0  0  0
   48.1660   33.3890   42.4160 C   0  0  0  0  0  0  0  0  0  0  0  0
   48.8970   34.0440   41.9230 H   0  0  0  0  0  0  0  0  0  0  0  0
   48.7260   32.8170   43.2060 H   0  0  0  0  0  0  0  0  0  0  0  0
   47.4900   32.4100   41.5290 C   0  0  0  0  0  0  0  0  0  0  0  0
   46.4120   32.6610   41.3770 H   0  0  0  0  0  0  0  0  0  0  0  0
   47.5100   31.3610   41.8960 H   0  0  0  0  0  0  0  0  0  0  0  0
   49.4900   31.5060   38.4730 C   0  0  0  0  0  0  0  0  0  0  0  0
   48.9120   31.4660   39.7540 C   0  0  0  0  0  0  0  0  0  0  0  0
   48.0910   32.4710   40.1690 C   0  0  0  0  0  0  0  0  0  0  0  0
   47.8630   33.4820   39.3150 N   0  0  0  0  0  0  0  0  0  0  0  0
   48.4090   33.5290   38.0910 C   0  0  0  0  0  0  0  0  0  0  0  0
   49.2230   32.5510   37.6550 N   0  0  0  0  0  0  0  0  0  0  0  0
   50.1400   30.6960   38.1610 H   0  0  0  0  0  0  0  0  0  0  0  0
   49.1570   30.6050   40.3720 H   0  0  0  0  0  0  0  0  0  0  0  0
   48.1230   34.4100   37.5340 H   0  0  0  0  0  0  0  0  0  0  0  0
   47.1060   33.0140   45.0620 O   0  0  0  0  0  0  0  0  0  0  0  0
   45.9070   30.7290   44.4090 O   0  0  0  0  0  0  0  0  0  0  0  0
   46.5070   31.5380   45.5710 P   0  0  2  0  0  0  0  0  0  0  0  0
   45.1540   31.9030   46.5670 O   0  0  0  0  0  0  0  0  0  0  0  0
   44.3380   32.0120   46.0460 H   0  0  0  0  0  0  0  0  0  0  0  0
   47.5780   30.6460   46.4860 O   0  0  0  0  0  0  0  0  0  0  0  0
   47.4410   29.3090   46.1610 C   0  0  0  0  0  0  0  0  0  0  0  0
   46.3930   29.0370   46.3870 H   0  0  0  0  0  0  0  0  0  0  0  0
   47.6320   29.1120   45.0810 H   0  0  0  0  0  0  0  0  0  0  0  0
   49.5970   28.9750   47.4300 C   0  0  0  0  0  3  0  0  0  0  0  0
   48.3680   28.4920   46.9870 C   0  0  0  0  0  0  0  0  0  0  0  0
   47.9450   27.1970   47.3030 C   0  0  0  0  0  0  0  0  0  0  0  0
   47.0000   26.8000   46.9720 H   0  0  0  0  0  0  0  0  0  0  0  0
   48.7780   26.4040   48.0690 C   0  0  0  0  0  0  0  0  0  0  0  0
   48.6450   25.1290   48.5290 N   0  0  0  0  0  0  0  0  0  0  0  0
   47.7950   24.5450   48.3270 H   0  0  0  0  0  0  0  0  0  0  0  0
   49.7260   24.8150   49.2260 N   0  0  0  0  0  0  0  0  0  0  0  0
   50.5870   25.8560   49.2440 C   0  0  0  0  0  0  0  0  0  0  0  0
   51.5500   25.8610   49.7480 H   0  0  0  0  0  0  0  0  0  0  0  0
   50.0050   26.8860   48.5120 C   0  0  0  0  0  0  0  0  0  0  0  0
   50.4280   28.1600   48.2040 C   0  0  0  0  0  3  0  0  0  0  0  0
  1  6  1  0  0  0  0
  2  3  1  0  0  0  0
  2  8  1  0  0  0  0
  2  1  1  0  0  0  0
  3  4  1  0  0  0  0
  4 11  1  0  0  0  0
  4  5  1  0  0  0  0
  5 14  1  0  0  0  0
  5 13  1  0  0  0  0
  6 15  1  6  0  0  0
  6  5  1  0  0  0  0
  6 31  1  0  0  0  0
  7  2  1  0  0  0  0
  9  3  1  0  0  0  0
 10  3  1  0  0  0  0
 12  4  1  0  0  0  0
 16  1  1  0  0  0  0
 16 18  1  0  0  0  0
 17 16  1  0  0  0  0
 19 21  1  0  0  0  0
 19 16  1  0  0  0  0
 20 19  1  0  0  0  0
 22 23  1  0  0  0  0
 23 24  2  0  0  0  0
 23 29  1  0  0  0  0
 24 19  1  0  0  0  0
 25 24  1  0  0  0  0
 26 25  2  0  0  0  0
 27 26  1  0  0  0  0
 27 22  2  0  0  0  0
 28 22  1  0  0  0  0
 30 26  1  0  0  0  0
 31 33  1  0  0  0  0
 33 32  2  6  0  0  0
 33 36  1  0  0  0  0
 33 34  1  0  0  0  0
 35 34  1  0  0  0  0
 37 38  1  0  0  0  0
 37 36  1  0  0  0  0
 37 41  1  0  0  0  0
 39 37  1  0  0  0  0
 40 51  1  0  0  0  0
 41 42  1  0  0  0  0
 41 40  2  0  0  0  0
 42 44  2  0  0  0  0
 43 42  1  0  0  0  0
 44 50  1  0  0  0  0
 44 45  1  0  0  0  0
 45 47  1  0  0  0  0
 46 45  1  0  0  0  0
 47 48  2  0  0  0  0
 48 49  1  0  0  0  0
 50 48  1  0  0  0  0
 51 50  2  0  0  0  0
M  END
>  <minimizedAffinity>
-3.9963553

>  <minimizedRMSD>
1.16735518

$$$$
