
 OpenBabel03242523373D

 22 24  0  0  0  0  0  0  0  0999 V2000
   47.0570   32.0280   45.6620 C   0  0  0  0  0  0  0  0  0  0  0  0
   46.1180   33.0300   45.8160 C   0  0  0  0  0  0  0  0  0  0  0  0
   45.3410   33.1060   46.9600 C   0  0  0  0  0  0  0  0  0  0  0  0
   44.6180   33.9050   47.0400 H   0  0  0  0  0  0  0  0  0  0  0  0
   45.5150   32.1610   47.9570 C   0  0  0  0  0  0  0  0  0  0  0  0
   44.8850   32.0420   49.1310 N   0  0  0  0  0  0  0  0  0  0  0  0
   44.1360   32.6750   49.4800 H   0  0  0  0  0  0  0  0  0  0  0  0
   45.4020   30.9800   49.7350 N   0  0  0  0  0  0  0  0  0  0  0  0
   46.3580   30.4330   48.9400 C   0  0  0  0  0  0  0  0  0  0  0  0
   46.9280   29.5530   49.2130 H   0  0  0  0  0  0  0  0  0  0  0  0
   46.4620   31.1720   47.7750 C   0  0  0  0  0  0  0  0  0  0  0  0
   47.2500   31.0710   46.6450 C   0  0  0  0  0  0  0  0  0  0  0  0
   44.7930   35.8610   43.8910 C   0  0  0  0  0  0  0  0  0  0  0  0
   45.6210   35.8890   42.7490 C   0  0  0  0  0  0  0  0  0  0  0  0
   46.6350   34.9130   42.6690 C   0  0  0  0  0  0  0  0  0  0  0  0
   46.7580   34.0170   43.6730 N   0  0  0  0  0  0  0  0  0  0  0  0
   45.9440   34.0200   44.7560 C   0  0  0  0  0  0  0  0  0  0  0  0
   44.9700   34.9440   44.8510 N   0  0  0  0  0  0  0  0  0  0  0  0
   44.0420   36.6390   43.8810 H   0  0  0  0  0  0  0  0  0  0  0  0
   45.5190   36.6050   41.9510 H   0  0  0  0  0  0  0  0  0  0  0  0
   47.7290   34.8760   41.2550 S   0  0  0  0  0  0  0  0  0  0  0  0
   48.3760   36.1130   41.1250 H   0  0  0  0  0  0  0  0  0  0  0  0
  1  2  2  0  0  0  0
  1 12  1  0  0  0  0
  2  3  1  0  0  0  0
  3  4  1  0  0  0  0
  3  5  2  0  0  0  0
  5  6  1  0  0  0  0
  6  7  1  0  0  0  0
  6  8  1  0  0  0  0
  9 10  1  0  0  0  0
  9  8  2  0  0  0  0
 11  5  1  0  0  0  0
 11  9  1  0  0  0  0
 12 11  2  0  0  0  0
 13 18  1  0  0  0  0
 14 13  2  0  0  0  0
 15 14  1  0  0  0  0
 15 16  2  0  0  0  0
 16 17  1  0  0  0  0
 17 18  2  0  0  0  0
 17  2  1  0  0  0  0
 19 13  1  0  0  0  0
 20 14  1  0  0  0  0
 21 15  1  0  0  0  0
 22 21  1  0  0  0  0
M  END
>  <minimizedAffinity>
-5.07862377

>  <minimizedRMSD>
0.83647424

$$$$
