
 OpenBabel03252508403D

 44 48  0  0  0  0  0  0  0  0999 V2000
   38.4970   30.0970   37.6250 C   0  0  0  0  0  0  0  0  0  0  0  0
   39.8630   30.1060   37.6780 C   0  0  0  0  0  0  0  0  0  0  0  0
   40.5080   28.9540   37.2780 C   0  0  0  0  0  0  0  0  0  0  0  0
   39.8560   27.8260   36.8430 C   0  0  0  0  0  0  0  0  0  0  0  0
   38.4870   27.8670   36.8070 C   0  0  0  0  0  0  0  0  0  0  0  0
   37.7890   28.9790   37.1900 C   0  0  0  0  0  0  0  0  0  0  0  0
   41.5950   28.9570   37.3200 H   0  0  0  0  0  0  0  0  0  0  0  0
   40.4200   26.9390   36.5370 H   0  0  0  0  0  0  0  0  0  0  0  0
   37.9710   26.9730   36.4620 H   0  0  0  0  0  0  0  0  0  0  0  0
   41.8100   33.3360   37.7250 C   0  0  0  0  0  0  0  0  0  0  0  0
   41.1840   32.1690   37.2590 C   0  0  0  0  0  0  0  0  0  0  0  0
   40.5100   31.3080   38.1400 C   0  0  0  0  0  0  0  0  0  0  0  0
   40.5230   31.6970   39.4340 N   0  0  0  0  0  0  0  0  0  0  0  0
   41.1180   32.8050   39.8720 C   0  0  0  0  0  0  0  0  0  0  0  0
   41.7560   33.6180   39.0270 N   0  0  0  0  0  0  0  0  0  0  0  0
   42.4710   34.1590   36.7910 N   0  0  0  0  0  0  0  0  0  0  0  0
   41.2050   31.9030   36.2030 H   0  0  0  0  0  0  0  0  0  0  0  0
   41.0800   33.0500   40.9420 H   0  0  0  0  0  0  0  0  0  0  0  0
   41.9830   34.4550   35.9020 H   0  0  0  0  0  0  0  0  0  0  0  0
   43.4530   34.4420   37.0380 H   0  0  0  0  0  0  0  0  0  0  0  0
   36.3460   28.9210   37.1180 C   0  0  0  0  0  0  0  0  0  0  0  0
   35.7940   29.2490   35.9010 C   0  0  0  0  0  0  0  0  0  0  0  0
   34.4300   29.2500   35.6210 C   0  0  0  0  0  0  0  0  0  0  0  0
   33.5810   28.8940   36.6510 C   0  0  0  0  0  0  0  0  0  0  0  0
   34.0980   28.5580   37.8920 C   0  0  0  0  0  0  0  0  0  0  0  0
   35.4680   28.5730   38.1180 C   0  0  0  0  0  0  0  0  0  0  0  0
   36.4100   29.5410   35.0420 H   0  0  0  0  0  0  0  0  0  0  0  0
   34.0070   29.5060   34.6690 H   0  0  0  0  0  0  0  0  0  0  0  0
   32.5030   28.8550   36.5650 H   0  0  0  0  0  0  0  0  0  0  0  0
   33.4950   28.2720   38.7430 H   0  0  0  0  0  0  0  0  0  0  0  0
   36.4490   26.9400   39.6690 C   0  0  0  0  0  3  0  0  0  0  0  0
   36.0350   28.2310   39.4110 C   0  0  0  0  0  0  0  0  0  0  0  0
   36.1810   29.1650   40.4290 C   0  0  0  0  0  0  0  0  0  0  0  0
   35.8620   30.2050   40.2660 H   0  0  0  0  0  0  0  0  0  0  0  0
   36.7330   28.7690   41.6540 C   0  0  0  0  0  0  0  0  0  0  0  0
   36.9820   29.4650   42.7910 N   0  0  0  0  0  0  0  0  0  0  0  0
   36.7950   30.4850   42.9710 H   0  0  0  0  0  0  0  0  0  0  0  0
   37.5150   28.6420   43.6790 N   0  0  0  0  0  0  0  0  0  0  0  0
   37.6390   27.3940   43.1810 C   0  0  0  0  0  0  0  0  0  0  0  0
   38.0380   26.5130   43.6730 H   0  0  0  0  0  0  0  0  0  0  0  0
   37.1380   27.4710   41.8800 C   0  0  0  0  0  0  0  0  0  0  0  0
   37.0030   26.5210   40.8830 C   0  0  0  0  0  3  0  0  0  0  0  0
   37.1430   32.2040   38.3620 N   0  0  0  0  0  0  0  0  0  0  0  0
   37.7460   31.2620   38.0250 C   0  0  0  0  0  0  0  0  0  0  0  0
  1  2  1  0  0  0  0
  1 44  1  0  0  0  0
  2 12  1  0  0  0  0
  3  7  1  0  0  0  0
  3  2  2  0  0  0  0
  4  3  1  0  0  0  0
  5  4  2  0  0  0  0
  5  6  1  0  0  0  0
  6  1  2  0  0  0  0
  8  4  1  0  0  0  0
  9  5  1  0  0  0  0
 10 15  1  0  0  0  0
 11 10  2  0  0  0  0
 11 12  1  0  0  0  0
 12 13  2  0  0  0  0
 13 14  1  0  0  0  0
 14 18  1  0  0  0  0
 15 14  2  0  0  0  0
 16 20  1  0  0  0  0
 16 10  1  0  0  0  0
 17 11  1  0  0  0  0
 19 16  1  0  0  0  0
 21  6  1  0  0  0  0
 21 26  1  0  0  0  0
 22 21  2  0  0  0  0
 23 22  1  0  0  0  0
 23 24  2  0  0  0  0
 24 25  1  0  0  0  0
 25 26  2  0  0  0  0
 25 30  1  0  0  0  0
 26 32  1  0  0  0  0
 27 22  1  0  0  0  0
 28 23  1  0  0  0  0
 29 24  1  0  0  0  0
 31 42  1  0  0  0  0
 32 31  2  0  0  0  0
 32 33  1  0  0  0  0
 33 35  2  0  0  0  0
 34 33  1  0  0  0  0
 35 41  1  0  0  0  0
 35 36  1  0  0  0  0
 36 37  1  0  0  0  0
 36 38  1  0  0  0  0
 39 40  1  0  0  0  0
 39 38  2  0  0  0  0
 41 39  1  0  0  0  0
 42 41  2  0  0  0  0
 44 43  3  0  0  0  0
M  END
>  <minimizedAffinity>
-7.54580975

$$$$

 OpenBabel03252508403D

 44 48  0  0  0  0  0  0  0  0999 V2000
   39.2400   31.3330   40.3880 C   0  0  0  0  0  0  0  0  0  0  0  0
   39.4130   32.5920   39.8850 C   0  0  0  0  0  0  0  0  0  0  0  0
   38.2770   33.3560   39.7160 C   0  0  0  0  0  0  0  0  0  0  0  0
   37.0110   32.9170   40.0200 C   0  0  0  0  0  0  0  0  0  0  0  0
   36.8900   31.6480   40.5210 C   0  0  0  0  0  0  0  0  0  0  0  0
   37.9780   30.8420   40.7130 C   0  0  0  0  0  0  0  0  0  0  0  0
   38.4110   34.3580   39.3160 H   0  0  0  0  0  0  0  0  0  0  0  0
   36.1430   33.5670   39.8640 H   0  0  0  0  0  0  0  0  0  0  0  0
   35.8860   31.3010   40.7610 H   0  0  0  0  0  0  0  0  0  0  0  0
   42.4490   33.7990   37.9990 C   0  0  0  0  0  0  0  0  0  0  0  0
   41.1350   33.3900   38.2800 C   0  0  0  0  0  0  0  0  0  0  0  0
   40.7570   33.0160   39.5800 C   0  0  0  0  0  0  0  0  0  0  0  0
   41.7440   33.0850   40.5010 N   0  0  0  0  0  0  0  0  0  0  0  0
   42.9880   33.4730   40.2300 C   0  0  0  0  0  0  0  0  0  0  0  0
   43.3390   33.8270   38.9910 N   0  0  0  0  0  0  0  0  0  0  0  0
   42.7670   34.1610   36.6750 N   0  0  0  0  0  0  0  0  0  0  0  0
   40.3780   33.3530   37.4980 H   0  0  0  0  0  0  0  0  0  0  0  0
   43.7320   33.5020   41.0370 H   0  0  0  0  0  0  0  0  0  0  0  0
   42.1560   34.8430   36.1480 H   0  0  0  0  0  0  0  0  0  0  0  0
   43.6270   33.7130   36.2680 H   0  0  0  0  0  0  0  0  0  0  0  0
   37.7440   29.5180   41.2440 C   0  0  0  0  0  0  0  0  0  0  0  0
   38.1380   29.3180   42.5470 C   0  0  0  0  0  0  0  0  0  0  0  0
   37.9970   28.1210   43.2460 C   0  0  0  0  0  0  0  0  0  0  0  0
   37.4180   27.0680   42.5680 C   0  0  0  0  0  0  0  0  0  0  0  0
   37.0080   27.2280   41.2550 C   0  0  0  0  0  0  0  0  0  0  0  0
   37.1720   28.4440   40.6030 C   0  0  0  0  0  0  0  0  0  0  0  0
   38.6050   30.1110   43.1420 H   0  0  0  0  0  0  0  0  0  0  0  0
   38.3060   27.9740   44.2630 H   0  0  0  0  0  0  0  0  0  0  0  0
   37.2500   26.0870   42.9950 H   0  0  0  0  0  0  0  0  0  0  0  0
   36.5490   26.4480   40.6610 H   0  0  0  0  0  0  0  0  0  0  0  0
   35.4390   28.9260   38.9290 C   0  0  0  0  0  3  0  0  0  0  0  0
   36.7560   28.6360   39.2240 C   0  0  0  0  0  0  0  0  0  0  0  0
   37.6430   28.5380   38.1600 C   0  0  0  0  0  0  0  0  0  0  0  0
   38.7010   28.3060   38.3510 H   0  0  0  0  0  0  0  0  0  0  0  0
   37.1770   28.7320   36.8530 C   0  0  0  0  0  0  0  0  0  0  0  0
   37.8180   28.6930   35.6590 N   0  0  0  0  0  0  0  0  0  0  0  0
   38.8370   28.4980   35.4860 H   0  0  0  0  0  0  0  0  0  0  0  0
   36.9380   28.9460   34.7020 N   0  0  0  0  0  0  0  0  0  0  0  0
   35.7060   29.1570   35.2110 C   0  0  0  0  0  0  0  0  0  0  0  0
   34.7910   29.3830   34.6740 H   0  0  0  0  0  0  0  0  0  0  0  0
   35.8550   29.0210   36.5910 C   0  0  0  0  0  0  0  0  0  0  0  0
   34.9500   29.1250   37.6340 C   0  0  0  0  0  3  0  0  0  0  0  0
   41.2950   29.7650   40.7520 N   0  0  0  0  0  0  0  0  0  0  0  0
   40.3770   30.4710   40.5960 C   0  0  0  0  0  0  0  0  0  0  0  0
  1 44  1  0  0  0  0
  1  6  1  0  0  0  0
  2  1  2  0  0  0  0
  3  2  1  0  0  0  0
  3  4  2  0  0  0  0
  4  5  1  0  0  0  0
  5  6  2  0  0  0  0
  5  9  1  0  0  0  0
  6 21  1  0  0  0  0
  7  3  1  0  0  0  0
  8  4  1  0  0  0  0
 10 11  2  0  0  0  0
 10 15  1  0  0  0  0
 11 12  1  0  0  0  0
 12  2  1  0  0  0  0
 12 13  2  0  0  0  0
 14 13  1  0  0  0  0
 14 18  1  0  0  0  0
 15 14  2  0  0  0  0
 16 10  1  0  0  0  0
 17 11  1  0  0  0  0
 19 16  1  0  0  0  0
 20 16  1  0  0  0  0
 21 22  1  0  0  0  0
 22 27  1  0  0  0  0
 22 23  2  0  0  0  0
 23 28  1  0  0  0  0
 24 29  1  0  0  0  0
 24 23  1  0  0  0  0
 25 24  2  0  0  0  0
 26 21  2  0  0  0  0
 26 25  1  0  0  0  0
 30 25  1  0  0  0  0
 31 32  1  0  0  0  0
 32 26  1  0  0  0  0
 33 34  1  0  0  0  0
 33 32  2  0  0  0  0
 35 33  1  0  0  0  0
 36 35  1  0  0  0  0
 37 36  1  0  0  0  0
 38 39  2  0  0  0  0
 38 36  1  0  0  0  0
 39 41  1  0  0  0  0
 40 39  1  0  0  0  0
 41 35  2  0  0  0  0
 41 42  1  0  0  0  0
 42 31  2  0  0  0  0
 44 43  3  0  0  0  0
M  END
>  <minimizedAffinity>
-7.36958456

$$$$

 OpenBabel03252508403D

 44 48  0  0  0  0  0  0  0  0999 V2000
   38.7620   27.4270   41.4000 C   0  0  0  0  0  0  0  0  0  0  0  0
   39.2530   27.5220   42.6720 C   0  0  0  0  0  0  0  0  0  0  0  0
   38.3330   27.7310   43.6790 C   0  0  0  0  0  0  0  0  0  0  0  0
   36.9810   27.8470   43.4650 C   0  0  0  0  0  0  0  0  0  0  0  0
   36.5390   27.7450   42.1720 C   0  0  0  0  0  0  0  0  0  0  0  0
   37.4000   27.5370   41.1310 C   0  0  0  0  0  0  0  0  0  0  0  0
   38.7200   27.8070   44.6920 H   0  0  0  0  0  0  0  0  0  0  0  0
   36.2960   28.0120   44.3030 H   0  0  0  0  0  0  0  0  0  0  0  0
   35.4670   27.8370   42.0030 H   0  0  0  0  0  0  0  0  0  0  0  0
   42.6690   26.0420   43.2810 C   0  0  0  0  0  0  0  0  0  0  0  0
   41.2800   26.1500   43.1040 C   0  0  0  0  0  0  0  0  0  0  0  0
   40.6770   27.3940   42.8550 C   0  0  0  0  0  0  0  0  0  0  0  0
   41.5310   28.4390   42.8040 N   0  0  0  0  0  0  0  0  0  0  0  0
   42.8480   28.3330   42.9730 C   0  0  0  0  0  0  0  0  0  0  0  0
   43.4130   27.1460   43.2090 N   0  0  0  0  0  0  0  0  0  0  0  0
   43.2140   24.7670   43.5290 N   0  0  0  0  0  0  0  0  0  0  0  0
   40.6370   25.2730   43.1550 H   0  0  0  0  0  0  0  0  0  0  0  0
   43.4730   29.2340   42.9150 H   0  0  0  0  0  0  0  0  0  0  0  0
   42.9600   23.9490   42.9110 H   0  0  0  0  0  0  0  0  0  0  0  0
   43.8680   24.6960   44.3500 H   0  0  0  0  0  0  0  0  0  0  0  0
   36.8350   27.4460   39.8030 C   0  0  0  0  0  0  0  0  0  0  0  0
   36.4120   26.1950   39.4170 C   0  0  0  0  0  0  0  0  0  0  0  0
   35.8350   25.8950   38.1850 C   0  0  0  0  0  0  0  0  0  0  0  0
   35.6830   26.9400   37.2960 C   0  0  0  0  0  0  0  0  0  0  0  0
   36.0970   28.2150   37.6460 C   0  0  0  0  0  0  0  0  0  0  0  0
   36.6670   28.4600   38.8890 C   0  0  0  0  0  0  0  0  0  0  0  0
   36.5040   25.3220   40.0730 H   0  0  0  0  0  0  0  0  0  0  0  0
   35.5060   24.9160   37.8920 H   0  0  0  0  0  0  0  0  0  0  0  0
   35.2500   26.8420   36.3090 H   0  0  0  0  0  0  0  0  0  0  0  0
   36.0120   29.0800   37.0020 H   0  0  0  0  0  0  0  0  0  0  0  0
   36.3230   30.5790   40.0840 C   0  0  0  0  0  3  0  0  0  0  0  0
   37.1150   29.7870   39.2790 C   0  0  0  0  0  0  0  0  0  0  0  0
   38.3330   30.3110   38.8650 C   0  0  0  0  0  0  0  0  0  0  0  0
   38.9940   29.7140   38.2200 H   0  0  0  0  0  0  0  0  0  0  0  0
   38.7040   31.5980   39.2730 C   0  0  0  0  0  0  0  0  0  0  0  0
   39.8140   32.3330   39.0180 N   0  0  0  0  0  0  0  0  0  0  0  0
   40.6440   32.0570   38.4340 H   0  0  0  0  0  0  0  0  0  0  0  0
   39.6980   33.4990   39.6360 N   0  0  0  0  0  0  0  0  0  0  0  0
   38.5320   33.5830   40.3100 C   0  0  0  0  0  0  0  0  0  0  0  0
   38.1610   34.4110   40.9040 H   0  0  0  0  0  0  0  0  0  0  0  0
   37.8910   32.3650   40.0800 C   0  0  0  0  0  0  0  0  0  0  0  0
   36.6720   31.8660   40.5060 C   0  0  0  0  0  3  0  0  0  0  0  0
   40.3710   27.0280   39.3820 N   0  0  0  0  0  0  0  0  0  0  0  0
   39.6580   27.2080   40.2900 C   0  0  0  0  0  0  0  0  0  0  0  0
  1  2  1  0  0  0  0
  2 12  1  0  0  0  0
  2  3  2  0  0  0  0
  3  7  1  0  0  0  0
  4  3  1  0  0  0  0
  4  8  1  0  0  0  0
  5  4  2  0  0  0  0
  6  1  2  0  0  0  0
  6  5  1  0  0  0  0
  9  5  1  0  0  0  0
 10 16  1  0  0  0  0
 11 17  1  0  0  0  0
 11 10  2  0  0  0  0
 12 11  1  0  0  0  0
 13 12  2  0  0  0  0
 13 14  1  0  0  0  0
 14 15  2  0  0  0  0
 15 10  1  0  0  0  0
 16 20  1  0  0  0  0
 18 14  1  0  0  0  0
 19 16  1  0  0  0  0
 21  6  1  0  0  0  0
 22 21  1  0  0  0  0
 22 27  1  0  0  0  0
 23 22  2  0  0  0  0
 24 25  2  0  0  0  0
 24 23  1  0  0  0  0
 25 26  1  0  0  0  0
 26 32  1  0  0  0  0
 26 21  2  0  0  0  0
 28 23  1  0  0  0  0
 29 24  1  0  0  0  0
 30 25  1  0  0  0  0
 31 42  1  0  0  0  0
 32 31  2  0  0  0  0
 33 35  2  0  0  0  0
 33 32  1  0  0  0  0
 34 33  1  0  0  0  0
 35 41  1  0  0  0  0
 36 35  1  0  0  0  0
 36 38  1  0  0  0  0
 37 36  1  0  0  0  0
 38 39  2  0  0  0  0
 39 40  1  0  0  0  0
 41 39  1  0  0  0  0
 41 42  2  0  0  0  0
 43 44  3  0  0  0  0
 44  1  1  0  0  0  0
M  END
>  <minimizedAffinity>
-6.93512869

$$$$

 OpenBabel03252508403D

 44 48  0  0  0  0  0  0  0  0999 V2000
   38.7840   26.4250   41.6050 C   0  0  0  0  0  0  0  0  0  0  0  0
   39.3870   27.0130   42.6820 C   0  0  0  0  0  0  0  0  0  0  0  0
   38.5560   27.5700   43.6310 C   0  0  0  0  0  0  0  0  0  0  0  0
   37.1850   27.5620   43.5450 C   0  0  0  0  0  0  0  0  0  0  0  0
   36.6290   26.9600   42.4470 C   0  0  0  0  0  0  0  0  0  0  0  0
   37.3990   26.3890   41.4710 C   0  0  0  0  0  0  0  0  0  0  0  0
   39.0320   28.0400   44.4890 H   0  0  0  0  0  0  0  0  0  0  0  0
   36.5740   28.0200   44.3300 H   0  0  0  0  0  0  0  0  0  0  0  0
   35.5420   26.9540   42.3790 H   0  0  0  0  0  0  0  0  0  0  0  0
   42.9420   25.8760   43.2250 C   0  0  0  0  0  0  0  0  0  0  0  0
   41.5390   25.8720   43.1770 C   0  0  0  0  0  0  0  0  0  0  0  0
   40.8280   27.0000   42.7360 C   0  0  0  0  0  0  0  0  0  0  0  0
   41.5960   28.0510   42.3760 N   0  0  0  0  0  0  0  0  0  0  0  0
   42.9270   28.0510   42.4230 C   0  0  0  0  0  0  0  0  0  0  0  0
   43.5950   26.9740   42.8440 N   0  0  0  0  0  0  0  0  0  0  0  0
   43.5980   24.7140   43.6780 N   0  0  0  0  0  0  0  0  0  0  0  0
   40.9680   24.9960   43.4800 H   0  0  0  0  0  0  0  0  0  0  0  0
   43.4780   28.9480   42.1110 H   0  0  0  0  0  0  0  0  0  0  0  0
   43.3480   23.7700   43.2770 H   0  0  0  0  0  0  0  0  0  0  0  0
   44.3290   24.8560   44.4220 H   0  0  0  0  0  0  0  0  0  0  0  0
   36.7160   25.7810   40.3510 C   0  0  0  0  0  0  0  0  0  0  0  0
   36.4080   24.4470   40.4900 C   0  0  0  0  0  0  0  0  0  0  0  0
   35.7490   23.6790   39.5330 C   0  0  0  0  0  0  0  0  0  0  0  0
   35.3840   24.3170   38.3650 C   0  0  0  0  0  0  0  0  0  0  0  0
   35.6760   25.6590   38.1850 C   0  0  0  0  0  0  0  0  0  0  0  0
   36.3360   26.3800   39.1720 C   0  0  0  0  0  0  0  0  0  0  0  0
   36.6700   23.8810   41.3910 H   0  0  0  0  0  0  0  0  0  0  0  0
   35.5110   22.6390   39.6500 H   0  0  0  0  0  0  0  0  0  0  0  0
   34.8670   23.8350   37.5440 H   0  0  0  0  0  0  0  0  0  0  0  0
   35.4230   26.2230   37.2970 H   0  0  0  0  0  0  0  0  0  0  0  0
   35.8870   28.7540   39.6170 C   0  0  0  0  0  3  0  0  0  0  0  0
   36.6590   27.7870   39.0070 C   0  0  0  0  0  0  0  0  0  0  0  0
   37.7350   28.2170   38.2400 C   0  0  0  0  0  0  0  0  0  0  0  0
   38.3750   27.4780   37.7340 H   0  0  0  0  0  0  0  0  0  0  0  0
   37.9910   29.5880   38.1180 C   0  0  0  0  0  0  0  0  0  0  0  0
   38.9550   30.2630   37.4460 N   0  0  0  0  0  0  0  0  0  0  0  0
   39.7290   29.8580   36.8590 H   0  0  0  0  0  0  0  0  0  0  0  0
   38.7750   31.5600   37.6410 N   0  0  0  0  0  0  0  0  0  0  0  0
   37.7070   31.7930   38.4330 C   0  0  0  0  0  0  0  0  0  0  0  0
   37.3160   32.7500   38.7640 H   0  0  0  0  0  0  0  0  0  0  0  0
   37.2010   30.5300   38.7420 C   0  0  0  0  0  0  0  0  0  0  0  0
   36.1230   30.1290   39.5120 C   0  0  0  0  0  3  0  0  0  0  0  0
   40.2280   25.3390   39.7190 N   0  0  0  0  0  0  0  0  0  0  0  0
   39.5820   25.8180   40.5670 C   0  0  0  0  0  0  0  0  0  0  0  0
  1  2  1  0  0  0  0
  2 12  1  0  0  0  0
  2  3  2  0  0  0  0
  3  7  1  0  0  0  0
  4  3  1  0  0  0  0
  4  8  1  0  0  0  0
  5  4  2  0  0  0  0
  6  1  2  0  0  0  0
  6  5  1  0  0  0  0
  9  5  1  0  0  0  0
 10 16  1  0  0  0  0
 11 10  1  0  0  0  0
 11 17  1  0  0  0  0
 12 11  2  0  0  0  0
 13 14  2  0  0  0  0
 13 12  1  0  0  0  0
 14 15  1  0  0  0  0
 15 10  2  0  0  0  0
 16 20  1  0  0  0  0
 18 14  1  0  0  0  0
 19 16  1  0  0  0  0
 21 22  1  0  0  0  0
 21  6  1  0  0  0  0
 22 27  1  0  0  0  0
 23 28  1  0  0  0  0
 23 22  2  0  0  0  0
 24 23  1  0  0  0  0
 25 24  2  0  0  0  0
 25 26  1  0  0  0  0
 26 21  2  0  0  0  0
 29 24  1  0  0  0  0
 30 25  1  0  0  0  0
 32 26  1  0  0  0  0
 32 31  2  0  0  0  0
 33 32  1  0  0  0  0
 34 33  1  0  0  0  0
 35 33  2  0  0  0  0
 35 41  1  0  0  0  0
 36 38  1  0  0  0  0
 36 35  1  0  0  0  0
 37 36  1  0  0  0  0
 38 39  2  0  0  0  0
 39 41  1  0  0  0  0
 39 40  1  0  0  0  0
 41 42  2  0  0  0  0
 42 31  1  0  0  0  0
 43 44  3  0  0  0  0
 44  1  1  0  0  0  0
M  END
>  <minimizedAffinity>
-6.9039216

$$$$

 OpenBabel03252508403D

 44 48  0  0  0  0  0  0  0  0999 V2000
   38.1810   29.4570   40.1920 C   0  0  0  0  0  0  0  0  0  0  0  0
   38.2740   30.8160   40.3050 C   0  0  0  0  0  0  0  0  0  0  0  0
   37.1420   31.4840   40.7250 C   0  0  0  0  0  0  0  0  0  0  0  0
   35.9560   30.8600   41.0260 C   0  0  0  0  0  0  0  0  0  0  0  0
   35.9130   29.4970   40.8980 C   0  0  0  0  0  0  0  0  0  0  0  0
   37.0010   28.7770   40.4870 C   0  0  0  0  0  0  0  0  0  0  0  0
   37.2120   32.5650   40.8150 H   0  0  0  0  0  0  0  0  0  0  0  0
   35.0880   31.4410   41.3550 H   0  0  0  0  0  0  0  0  0  0  0  0
   34.9730   29.0030   41.1370 H   0  0  0  0  0  0  0  0  0  0  0  0
   41.0090   32.6050   38.4210 C   0  0  0  0  0  0  0  0  0  0  0  0
   39.7740   32.0090   38.7220 C   0  0  0  0  0  0  0  0  0  0  0  0
   39.5360   31.4330   39.9800 C   0  0  0  0  0  0  0  0  0  0  0  0
   40.5730   31.5060   40.8440 N   0  0  0  0  0  0  0  0  0  0  0  0
   41.7420   32.0730   40.5550 C   0  0  0  0  0  0  0  0  0  0  0  0
   41.9600   32.6170   39.3550 N   0  0  0  0  0  0  0  0  0  0  0  0
   41.1870   33.1640   37.1400 N   0  0  0  0  0  0  0  0  0  0  0  0
   38.9710   31.9780   37.9870 H   0  0  0  0  0  0  0  0  0  0  0  0
   42.5350   32.0910   41.3150 H   0  0  0  0  0  0  0  0  0  0  0  0
   40.4670   33.8270   36.7430 H   0  0  0  0  0  0  0  0  0  0  0  0
   42.0600   32.8770   36.6280 H   0  0  0  0  0  0  0  0  0  0  0  0
   36.8530   27.3430   40.3810 C   0  0  0  0  0  0  0  0  0  0  0  0
   37.1550   26.6250   41.5160 C   0  0  0  0  0  0  0  0  0  0  0  0
   37.0730   25.2390   41.6250 C   0  0  0  0  0  0  0  0  0  0  0  0
   36.6580   24.5480   40.5040 C   0  0  0  0  0  0  0  0  0  0  0  0
   36.3460   25.2340   39.3420 C   0  0  0  0  0  0  0  0  0  0  0  0
   36.4450   26.6180   39.2860 C   0  0  0  0  0  0  0  0  0  0  0  0
   37.4910   27.1110   42.4390 H   0  0  0  0  0  0  0  0  0  0  0  0
   37.3080   24.6870   42.5140 H   0  0  0  0  0  0  0  0  0  0  0  0
   36.5510   23.4720   40.4570 H   0  0  0  0  0  0  0  0  0  0  0  0
   36.0160   24.7600   38.4270 H   0  0  0  0  0  0  0  0  0  0  0  0
   34.8610   27.8710   37.8860 C   0  0  0  0  0  3  0  0  0  0  0  0
   36.1290   27.3610   38.0770 C   0  0  0  0  0  0  0  0  0  0  0  0
   37.0670   27.5850   37.0770 C   0  0  0  0  0  0  0  0  0  0  0  0
   38.0880   27.1930   37.1880 H   0  0  0  0  0  0  0  0  0  0  0  0
   36.6970   28.3060   35.9340 C   0  0  0  0  0  0  0  0  0  0  0  0
   37.4020   28.6590   34.8320 N   0  0  0  0  0  0  0  0  0  0  0  0
   38.4090   28.4430   34.6200 H   0  0  0  0  0  0  0  0  0  0  0  0
   36.6050   29.3430   34.0250 N   0  0  0  0  0  0  0  0  0  0  0  0
   35.3670   29.4680   34.5470 C   0  0  0  0  0  0  0  0  0  0  0  0
   34.5080   29.9720   34.1180 H   0  0  0  0  0  0  0  0  0  0  0  0
   35.4210   28.8040   35.7730 C   0  0  0  0  0  0  0  0  0  0  0  0
   34.4680   28.5950   36.7550 C   0  0  0  0  0  3  0  0  0  0  0  0
   40.2430   28.0520   39.4230 N   0  0  0  0  0  0  0  0  0  0  0  0
   39.3190   28.6840   39.7600 C   0  0  0  0  0  0  0  0  0  0  0  0
  1  2  2  0  0  0  0
  1  6  1  0  0  0  0
  2  3  1  0  0  0  0
  3  7  1  0  0  0  0
  3  4  2  0  0  0  0
  4  8  1  0  0  0  0
  5  4  1  0  0  0  0
  5  9  1  0  0  0  0
  6  5  2  0  0  0  0
 10 11  2  0  0  0  0
 10 15  1  0  0  0  0
 11 12  1  0  0  0  0
 12  2  1  0  0  0  0
 12 13  2  0  0  0  0
 14 13  1  0  0  0  0
 14 18  1  0  0  0  0
 15 14  2  0  0  0  0
 16 10  1  0  0  0  0
 17 11  1  0  0  0  0
 19 16  1  0  0  0  0
 20 16  1  0  0  0  0
 21  6  1  0  0  0  0
 21 22  1  0  0  0  0
 22 23  2  0  0  0  0
 22 27  1  0  0  0  0
 23 28  1  0  0  0  0
 24 23  1  0  0  0  0
 25 24  2  0  0  0  0
 26 25  1  0  0  0  0
 26 21  2  0  0  0  0
 29 24  1  0  0  0  0
 30 25  1  0  0  0  0
 31 32  1  0  0  0  0
 32 26  1  0  0  0  0
 33 34  1  0  0  0  0
 33 32  2  0  0  0  0
 35 33  1  0  0  0  0
 36 35  1  0  0  0  0
 37 36  1  0  0  0  0
 38 39  2  0  0  0  0
 38 36  1  0  0  0  0
 39 41  1  0  0  0  0
 40 39  1  0  0  0  0
 41 35  2  0  0  0  0
 41 42  1  0  0  0  0
 42 31  2  0  0  0  0
 43 44  3  0  0  0  0
 44  1  1  0  0  0  0
M  END
>  <minimizedAffinity>
-6.81921673

$$$$

 OpenBabel03252508403D

 44 48  0  0  0  0  0  0  0  0999 V2000
   38.6290   30.7540   38.6050 C   0  0  0  0  0  0  0  0  0  0  0  0
   39.2660   31.8250   39.1650 C   0  0  0  0  0  0  0  0  0  0  0  0
   38.5170   32.6290   39.9990 C   0  0  0  0  0  0  0  0  0  0  0  0
   37.1920   32.4060   40.2830 C   0  0  0  0  0  0  0  0  0  0  0  0
   36.5980   31.3190   39.6980 C   0  0  0  0  0  0  0  0  0  0  0  0
   37.2870   30.4840   38.8630 C   0  0  0  0  0  0  0  0  0  0  0  0
   39.0210   33.4830   40.4450 H   0  0  0  0  0  0  0  0  0  0  0  0
   36.6450   33.0780   40.9530 H   0  0  0  0  0  0  0  0  0  0  0  0
   35.5470   31.1440   39.9240 H   0  0  0  0  0  0  0  0  0  0  0  0
   42.4270   33.1730   37.6080 C   0  0  0  0  0  0  0  0  0  0  0  0
   41.0680   32.9930   37.9120 C   0  0  0  0  0  0  0  0  0  0  0  0
   40.6580   32.0240   38.8420 C   0  0  0  0  0  0  0  0  0  0  0  0
   41.6600   31.3080   39.3970 N   0  0  0  0  0  0  0  0  0  0  0  0
   42.9480   31.4820   39.1060 C   0  0  0  0  0  0  0  0  0  0  0  0
   43.3290   32.4060   38.2200 N   0  0  0  0  0  0  0  0  0  0  0  0
   42.7760   34.1610   36.6650 N   0  0  0  0  0  0  0  0  0  0  0  0
   40.3000   33.5990   37.4340 H   0  0  0  0  0  0  0  0  0  0  0  0
   43.7020   30.8580   39.6030 H   0  0  0  0  0  0  0  0  0  0  0  0
   42.3900   35.1400   36.7510 H   0  0  0  0  0  0  0  0  0  0  0  0
   43.4250   33.8560   35.8960 H   0  0  0  0  0  0  0  0  0  0  0  0
   36.5690   29.3660   38.2930 C   0  0  0  0  0  0  0  0  0  0  0  0
   35.9480   29.6040   37.0880 C   0  0  0  0  0  0  0  0  0  0  0  0
   35.2130   28.6620   36.3730 C   0  0  0  0  0  0  0  0  0  0  0  0
   35.1080   27.4020   36.9260 C   0  0  0  0  0  0  0  0  0  0  0  0
   35.7170   27.1220   38.1380 C   0  0  0  0  0  0  0  0  0  0  0  0
   36.4390   28.0980   38.8120 C   0  0  0  0  0  0  0  0  0  0  0  0
   35.9920   30.5820   36.5950 H   0  0  0  0  0  0  0  0  0  0  0  0
   34.7340   28.8550   35.4320 H   0  0  0  0  0  0  0  0  0  0  0  0
   34.5660   26.5810   36.4720 H   0  0  0  0  0  0  0  0  0  0  0  0
   35.6750   26.1600   38.6320 H   0  0  0  0  0  0  0  0  0  0  0  0
   36.4070   28.0610   41.2680 C   0  0  0  0  0  3  0  0  0  0  0  0
   37.0830   27.8330   40.0870 C   0  0  0  0  0  0  0  0  0  0  0  0
   38.3820   27.3490   40.1770 C   0  0  0  0  0  0  0  0  0  0  0  0
   38.9570   27.1560   39.2600 H   0  0  0  0  0  0  0  0  0  0  0  0
   38.9460   27.1170   41.4380 C   0  0  0  0  0  0  0  0  0  0  0  0
   40.1680   26.6570   41.8010 N   0  0  0  0  0  0  0  0  0  0  0  0
   40.9600   26.3770   41.1690 H   0  0  0  0  0  0  0  0  0  0  0  0
   40.2230   26.6110   43.1230 N   0  0  0  0  0  0  0  0  0  0  0  0
   39.0670   27.0290   43.6780 C   0  0  0  0  0  0  0  0  0  0  0  0
   38.8180   27.1010   44.7320 H   0  0  0  0  0  0  0  0  0  0  0  0
   38.2430   27.3540   42.6000 C   0  0  0  0  0  0  0  0  0  0  0  0
   36.9470   27.8360   42.5380 C   0  0  0  0  0  3  0  0  0  0  0  0
   39.9160   29.1310   37.0150 N   0  0  0  0  0  0  0  0  0  0  0  0
   39.3420   29.8630   37.7220 C   0  0  0  0  0  0  0  0  0  0  0  0
  1  6  2  0  0  0  0
  1  2  1  0  0  0  0
  2  3  2  0  0  0  0
  3  4  1  0  0  0  0
  3  7  1  0  0  0  0
  4  8  1  0  0  0  0
  5  9  1  0  0  0  0
  5  4  2  0  0  0  0
  6  5  1  0  0  0  0
 10 11  2  0  0  0  0
 10 15  1  0  0  0  0
 11 12  1  0  0  0  0
 12  2  1  0  0  0  0
 12 13  2  0  0  0  0
 14 13  1  0  0  0  0
 14 18  1  0  0  0  0
 15 14  2  0  0  0  0
 16 19  1  0  0  0  0
 16 10  1  0  0  0  0
 17 11  1  0  0  0  0
 20 16  1  0  0  0  0
 21 26  1  0  0  0  0
 21  6  1  0  0  0  0
 22 21  2  0  0  0  0
 23 24  2  0  0  0  0
 23 22  1  0  0  0  0
 24 25  1  0  0  0  0
 25 30  1  0  0  0  0
 25 26  2  0  0  0  0
 26 32  1  0  0  0  0
 27 22  1  0  0  0  0
 28 23  1  0  0  0  0
 29 24  1  0  0  0  0
 31 42  1  0  0  0  0
 32 33  1  0  0  0  0
 32 31  2  0  0  0  0
 33 35  2  0  0  0  0
 34 33  1  0  0  0  0
 35 36  1  0  0  0  0
 35 41  1  0  0  0  0
 36 38  1  0  0  0  0
 37 36  1  0  0  0  0
 38 39  2  0  0  0  0
 39 40  1  0  0  0  0
 41 39  1  0  0  0  0
 42 41  2  0  0  0  0
 43 44  3  0  0  0  0
 44  1  1  0  0  0  0
M  END
>  <minimizedAffinity>
-6.79005718

$$$$

 OpenBabel03252508403D

 44 48  0  0  0  0  0  0  0  0999 V2000
   38.2510   28.0510   40.9460 C   0  0  0  0  0  0  0  0  0  0  0  0
   38.3380   29.2090   41.6680 C   0  0  0  0  0  0  0  0  0  0  0  0
   38.1560   29.1060   43.0320 C   0  0  0  0  0  0  0  0  0  0  0  0
   37.8950   27.9230   43.6790 C   0  0  0  0  0  0  0  0  0  0  0  0
   37.8180   26.7910   42.9120 C   0  0  0  0  0  0  0  0  0  0  0  0
   37.9900   26.8270   41.5560 C   0  0  0  0  0  0  0  0  0  0  0  0
   38.2230   30.0250   43.6090 H   0  0  0  0  0  0  0  0  0  0  0  0
   37.7590   27.9000   44.7660 H   0  0  0  0  0  0  0  0  0  0  0  0
   37.6110   25.8530   43.4260 H   0  0  0  0  0  0  0  0  0  0  0  0
   37.8980   32.5700   40.0140 C   0  0  0  0  0  0  0  0  0  0  0  0
   37.6140   31.3870   40.7140 C   0  0  0  0  0  0  0  0  0  0  0  0
   38.6130   30.4290   40.9520 C   0  0  0  0  0  0  0  0  0  0  0  0
   39.8310   30.7450   40.4600 N   0  0  0  0  0  0  0  0  0  0  0  0
   40.0970   31.8690   39.7970 C   0  0  0  0  0  0  0  0  0  0  0  0
   39.1410   32.7740   39.5750 N   0  0  0  0  0  0  0  0  0  0  0  0
   36.8530   33.4910   39.8060 N   0  0  0  0  0  0  0  0  0  0  0  0
   36.6120   31.1830   41.0890 H   0  0  0  0  0  0  0  0  0  0  0  0
   41.1160   32.0500   39.4300 H   0  0  0  0  0  0  0  0  0  0  0  0
   36.2450   33.7990   40.6130 H   0  0  0  0  0  0  0  0  0  0  0  0
   36.7290   33.8340   38.8190 H   0  0  0  0  0  0  0  0  0  0  0  0
   37.8860   25.5770   40.8350 C   0  0  0  0  0  0  0  0  0  0  0  0
   36.6160   25.2130   40.4490 C   0  0  0  0  0  0  0  0  0  0  0  0
   36.3020   24.0550   39.7430 C   0  0  0  0  0  0  0  0  0  0  0  0
   37.3510   23.2200   39.4140 C   0  0  0  0  0  0  0  0  0  0  0  0
   38.6440   23.5500   39.7860 C   0  0  0  0  0  0  0  0  0  0  0  0
   38.9040   24.7190   40.4900 C   0  0  0  0  0  0  0  0  0  0  0  0
   35.7390   25.8290   40.6780 H   0  0  0  0  0  0  0  0  0  0  0  0
   35.3090   23.7790   39.4440 H   0  0  0  0  0  0  0  0  0  0  0  0
   37.2430   22.2910   38.8680 H   0  0  0  0  0  0  0  0  0  0  0  0
   39.5130   22.9450   39.5650 H   0  0  0  0  0  0  0  0  0  0  0  0
   41.0780   25.7630   40.0260 C   0  0  0  0  0  3  0  0  0  0  0  0
   40.2490   25.0850   40.8960 C   0  0  0  0  0  0  0  0  0  0  0  0
   40.7570   24.7750   42.1520 C   0  0  0  0  0  0  0  0  0  0  0  0
   40.1300   24.2330   42.8760 H   0  0  0  0  0  0  0  0  0  0  0  0
   42.0640   25.1550   42.4810 C   0  0  0  0  0  0  0  0  0  0  0  0
   42.7890   24.9800   43.6130 N   0  0  0  0  0  0  0  0  0  0  0  0
   42.4870   24.5010   44.4990 H   0  0  0  0  0  0  0  0  0  0  0  0
   43.9840   25.5220   43.4340 N   0  0  0  0  0  0  0  0  0  0  0  0
   44.0980   26.0660   42.2050 C   0  0  0  0  0  0  0  0  0  0  0  0
   44.9540   26.5760   41.7750 H   0  0  0  0  0  0  0  0  0  0  0  0
   42.8680   25.8330   41.5890 C   0  0  0  0  0  0  0  0  0  0  0  0
   42.3870   26.1540   40.3310 C   0  0  0  0  0  3  0  0  0  0  0  0
   38.5840   28.0770   38.3570 N   0  0  0  0  0  0  0  0  0  0  0  0
   38.4300   28.0720   39.5150 C   0  0  0  0  0  0  0  0  0  0  0  0
  1  6  2  0  0  0  0
  1  2  1  0  0  0  0
  2  3  2  0  0  0  0
  3  7  1  0  0  0  0
  3  4  1  0  0  0  0
  4  8  1  0  0  0  0
  5  9  1  0  0  0  0
  5  4  2  0  0  0  0
  6  5  1  0  0  0  0
 10 11  1  0  0  0  0
 11 12  2  0  0  0  0
 11 17  1  0  0  0  0
 12  2  1  0  0  0  0
 13 12  1  0  0  0  0
 14 13  2  0  0  0  0
 15 14  1  0  0  0  0
 15 10  2  0  0  0  0
 16 10  1  0  0  0  0
 16 19  1  0  0  0  0
 18 14  1  0  0  0  0
 20 16  1  0  0  0  0
 21  6  1  0  0  0  0
 22 27  1  0  0  0  0
 22 21  2  0  0  0  0
 23 22  1  0  0  0  0
 24 23  2  0  0  0  0
 24 25  1  0  0  0  0
 25 26  2  0  0  0  0
 26 21  1  0  0  0  0
 26 32  1  0  0  0  0
 28 23  1  0  0  0  0
 29 24  1  0  0  0  0
 30 25  1  0  0  0  0
 31 42  2  0  0  0  0
 31 32  1  0  0  0  0
 32 33  2  0  0  0  0
 33 35  1  0  0  0  0
 33 34  1  0  0  0  0
 35 36  1  0  0  0  0
 36 37  1  0  0  0  0
 38 36  1  0  0  0  0
 39 38  2  0  0  0  0
 40 39  1  0  0  0  0
 41 39  1  0  0  0  0
 41 35  2  0  0  0  0
 42 41  1  0  0  0  0
 43 44  3  0  0  0  0
 44  1  1  0  0  0  0
M  END
>  <minimizedAffinity>
-6.77110958

$$$$

 OpenBabel03252508403D

 44 48  0  0  0  0  0  0  0  0999 V2000
   39.0980   30.6200   40.0200 C   0  0  0  0  0  0  0  0  0  0  0  0
   39.4540   31.6950   39.2530 C   0  0  0  0  0  0  0  0  0  0  0  0
   38.5270   32.7090   39.1360 C   0  0  0  0  0  0  0  0  0  0  0  0
   37.2920   32.6870   39.7380 C   0  0  0  0  0  0  0  0  0  0  0  0
   36.9830   31.5890   40.4960 C   0  0  0  0  0  0  0  0  0  0  0  0
   37.8590   30.5510   40.6520 C   0  0  0  0  0  0  0  0  0  0  0  0
   38.8060   33.5650   38.5260 H   0  0  0  0  0  0  0  0  0  0  0  0
   36.5950   33.5220   39.6100 H   0  0  0  0  0  0  0  0  0  0  0  0
   36.0040   31.5720   40.9730 H   0  0  0  0  0  0  0  0  0  0  0  0
   42.3100   30.8870   36.9240 C   0  0  0  0  0  0  0  0  0  0  0  0
   41.0340   30.8910   37.5100 C   0  0  0  0  0  0  0  0  0  0  0  0
   40.7580   31.6800   38.6390 C   0  0  0  0  0  0  0  0  0  0  0  0
   41.8020   32.4100   39.0890 N   0  0  0  0  0  0  0  0  0  0  0  0
   43.0110   32.4040   38.5310 C   0  0  0  0  0  0  0  0  0  0  0  0
   43.2640   31.6500   37.4580 N   0  0  0  0  0  0  0  0  0  0  0  0
   42.5240   30.0720   35.7950 N   0  0  0  0  0  0  0  0  0  0  0  0
   40.2270   30.2820   37.1050 H   0  0  0  0  0  0  0  0  0  0  0  0
   43.8060   33.0290   38.9590 H   0  0  0  0  0  0  0  0  0  0  0  0
   41.8560   30.1070   34.9780 H   0  0  0  0  0  0  0  0  0  0  0  0
   43.3700   29.4480   35.8300 H   0  0  0  0  0  0  0  0  0  0  0  0
   37.4370   29.4360   41.4700 C   0  0  0  0  0  0  0  0  0  0  0  0
   37.9770   29.3840   42.7350 C   0  0  0  0  0  0  0  0  0  0  0  0
   37.6960   28.3990   43.6790 C   0  0  0  0  0  0  0  0  0  0  0  0
   36.8110   27.4080   43.3040 C   0  0  0  0  0  0  0  0  0  0  0  0
   36.2470   27.4240   42.0380 C   0  0  0  0  0  0  0  0  0  0  0  0
   36.5610   28.4310   41.1340 C   0  0  0  0  0  0  0  0  0  0  0  0
   38.6860   30.1380   43.0970 H   0  0  0  0  0  0  0  0  0  0  0  0
   38.1200   28.3660   44.6640 H   0  0  0  0  0  0  0  0  0  0  0  0
   36.5090   26.5870   43.9410 H   0  0  0  0  0  0  0  0  0  0  0  0
   35.5490   26.6820   41.6750 H   0  0  0  0  0  0  0  0  0  0  0  0
   36.7610   28.1510   38.7010 C   0  0  0  0  0  3  0  0  0  0  0  0
   35.9870   28.4670   39.7990 C   0  0  0  0  0  0  0  0  0  0  0  0
   34.6630   28.8180   39.5690 C   0  0  0  0  0  0  0  0  0  0  0  0
   34.0120   29.0800   40.4160 H   0  0  0  0  0  0  0  0  0  0  0  0
   34.1720   28.8370   38.2570 C   0  0  0  0  0  0  0  0  0  0  0  0
   32.9460   29.1370   37.7640 N   0  0  0  0  0  0  0  0  0  0  0  0
   32.0920   29.4270   38.3050 H   0  0  0  0  0  0  0  0  0  0  0  0
   32.9800   29.0070   36.4470 N   0  0  0  0  0  0  0  0  0  0  0  0
   34.2020   28.6250   36.0220 C   0  0  0  0  0  0  0  0  0  0  0  0
   34.5290   28.4410   35.0040 H   0  0  0  0  0  0  0  0  0  0  0  0
   34.9720   28.5140   37.1810 C   0  0  0  0  0  0  0  0  0  0  0  0
   36.2950   28.1620   37.3830 C   0  0  0  0  0  3  0  0  0  0  0  0
   40.7550   28.6250   40.3210 N   0  0  0  0  0  0  0  0  0  0  0  0
   40.0120   29.5170   40.1940 C   0  0  0  0  0  0  0  0  0  0  0  0
  1 44  1  0  0  0  0
  1  6  1  0  0  0  0
  2  1  2  0  0  0  0
  3  2  1  0  0  0  0
  3  4  2  0  0  0  0
  4  5  1  0  0  0  0
  5  6  2  0  0  0  0
  5  9  1  0  0  0  0
  6 21  1  0  0  0  0
  7  3  1  0  0  0  0
  8  4  1  0  0  0  0
 10 15  2  0  0  0  0
 10 11  1  0  0  0  0
 11 12  2  0  0  0  0
 12 13  1  0  0  0  0
 12  2  1  0  0  0  0
 14 18  1  0  0  0  0
 14 13  2  0  0  0  0
 15 14  1  0  0  0  0
 16 20  1  0  0  0  0
 16 10  1  0  0  0  0
 17 11  1  0  0  0  0
 19 16  1  0  0  0  0
 21 22  1  0  0  0  0
 22 27  1  0  0  0  0
 22 23  2  0  0  0  0
 23 28  1  0  0  0  0
 24 23  1  0  0  0  0
 24 29  1  0  0  0  0
 25 24  2  0  0  0  0
 26 21  2  0  0  0  0
 26 25  1  0  0  0  0
 30 25  1  0  0  0  0
 31 32  1  0  0  0  0
 32 26  1  0  0  0  0
 33 32  2  0  0  0  0
 33 34  1  0  0  0  0
 35 33  1  0  0  0  0
 36 35  1  0  0  0  0
 36 37  1  0  0  0  0
 38 36  1  0  0  0  0
 39 38  2  0  0  0  0
 39 41  1  0  0  0  0
 40 39  1  0  0  0  0
 41 42  1  0  0  0  0
 41 35  2  0  0  0  0
 42 31  2  0  0  0  0
 44 43  3  0  0  0  0
M  END
>  <minimizedAffinity>
-6.63971233

$$$$

 OpenBabel03252508403D

 44 48  0  0  0  0  0  0  0  0999 V2000
   38.7340   28.4170   40.1020 C   0  0  0  0  0  0  0  0  0  0  0  0
   39.2800   27.1800   39.9000 C   0  0  0  0  0  0  0  0  0  0  0  0
   40.3160   27.0990   38.9940 C   0  0  0  0  0  0  0  0  0  0  0  0
   40.8100   28.1770   38.3010 C   0  0  0  0  0  0  0  0  0  0  0  0
   40.2290   29.3950   38.5380 C   0  0  0  0  0  0  0  0  0  0  0  0
   39.1990   29.5410   39.4250 C   0  0  0  0  0  0  0  0  0  0  0  0
   40.7530   26.1160   38.8300 H   0  0  0  0  0  0  0  0  0  0  0  0
   41.6360   28.0540   37.5920 H   0  0  0  0  0  0  0  0  0  0  0  0
   40.6210   30.2500   37.9890 H   0  0  0  0  0  0  0  0  0  0  0  0
   38.8900   24.4120   42.4330 C   0  0  0  0  0  0  0  0  0  0  0  0
   39.4340   25.4900   41.7160 C   0  0  0  0  0  0  0  0  0  0  0  0
   38.7350   26.0740   40.6470 C   0  0  0  0  0  0  0  0  0  0  0  0
   37.5310   25.5190   40.3850 N   0  0  0  0  0  0  0  0  0  0  0  0
   37.0180   24.4970   41.0670 C   0  0  0  0  0  0  0  0  0  0  0  0
   37.6900   23.9480   42.0820 N   0  0  0  0  0  0  0  0  0  0  0  0
   39.6400   23.8680   43.4940 N   0  0  0  0  0  0  0  0  0  0  0  0
   40.4100   25.8980   41.9710 H   0  0  0  0  0  0  0  0  0  0  0  0
   36.0310   24.1050   40.7900 H   0  0  0  0  0  0  0  0  0  0  0  0
   40.0530   24.4990   44.2340 H   0  0  0  0  0  0  0  0  0  0  0  0
   39.7550   22.8220   43.4900 H   0  0  0  0  0  0  0  0  0  0  0  0
   38.6530   30.8680   39.6030 C   0  0  0  0  0  0  0  0  0  0  0  0
   39.2820   31.6540   40.5420 C   0  0  0  0  0  0  0  0  0  0  0  0
   38.9170   32.9600   40.8590 C   0  0  0  0  0  0  0  0  0  0  0  0
   37.8430   33.4920   40.1740 C   0  0  0  0  0  0  0  0  0  0  0  0
   37.1810   32.7330   39.2230 C   0  0  0  0  0  0  0  0  0  0  0  0
   37.5860   31.4340   38.9440 C   0  0  0  0  0  0  0  0  0  0  0  0
   40.1400   31.2930   41.1210 H   0  0  0  0  0  0  0  0  0  0  0  0
   39.4140   33.5670   41.5910 H   0  0  0  0  0  0  0  0  0  0  0  0
   37.4590   34.4930   40.3260 H   0  0  0  0  0  0  0  0  0  0  0  0
   36.3320   33.0820   38.6500 H   0  0  0  0  0  0  0  0  0  0  0  0
   35.8190   29.8470   38.3170 C   0  0  0  0  0  3  0  0  0  0  0  0
   36.9060   30.6150   37.9550 C   0  0  0  0  0  0  0  0  0  0  0  0
   37.3110   30.5650   36.6260 C   0  0  0  0  0  0  0  0  0  0  0  0
   38.1750   31.1600   36.2960 H   0  0  0  0  0  0  0  0  0  0  0  0
   36.6140   29.7520   35.7230 C   0  0  0  0  0  0  0  0  0  0  0  0
   36.7960   29.5250   34.3990 N   0  0  0  0  0  0  0  0  0  0  0  0
   37.5350   29.9370   33.7740 H   0  0  0  0  0  0  0  0  0  0  0  0
   35.8720   28.6700   33.9890 N   0  0  0  0  0  0  0  0  0  0  0  0
   35.0570   28.3040   35.0010 C   0  0  0  0  0  0  0  0  0  0  0  0
   34.2150   27.6210   34.9680 H   0  0  0  0  0  0  0  0  0  0  0  0
   35.5300   28.9970   36.1160 C   0  0  0  0  0  0  0  0  0  0  0  0
   35.1060   29.0280   37.4340 C   0  0  0  0  0  3  0  0  0  0  0  0
   36.7660   28.7120   41.7940 N   0  0  0  0  0  0  0  0  0  0  0  0
   37.6460   28.5880   41.0350 C   0  0  0  0  0  0  0  0  0  0  0  0
  1 44  1  0  0  0  0
  2  1  1  0  0  0  0
  2 12  1  0  0  0  0
  3  2  2  0  0  0  0
  4  5  2  0  0  0  0
  4  3  1  0  0  0  0
  5  6  1  0  0  0  0
  6 21  1  0  0  0  0
  6  1  2  0  0  0  0
  7  3  1  0  0  0  0
  8  4  1  0  0  0  0
  9  5  1  0  0  0  0
 10 16  1  0  0  0  0
 11 17  1  0  0  0  0
 11 10  2  0  0  0  0
 12 11  1  0  0  0  0
 13 12  2  0  0  0  0
 13 14  1  0  0  0  0
 14 15  2  0  0  0  0
 15 10  1  0  0  0  0
 16 19  1  0  0  0  0
 18 14  1  0  0  0  0
 20 16  1  0  0  0  0
 21 22  1  0  0  0  0
 22 23  2  0  0  0  0
 22 27  1  0  0  0  0
 23 28  1  0  0  0  0
 24 29  1  0  0  0  0
 24 23  1  0  0  0  0
 25 24  2  0  0  0  0
 26 25  1  0  0  0  0
 26 21  2  0  0  0  0
 30 25  1  0  0  0  0
 32 31  1  0  0  0  0
 32 26  1  0  0  0  0
 33 32  2  0  0  0  0
 34 33  1  0  0  0  0
 35 41  2  0  0  0  0
 35 33  1  0  0  0  0
 36 35  1  0  0  0  0
 37 36  1  0  0  0  0
 38 36  1  0  0  0  0
 38 39  2  0  0  0  0
 39 41  1  0  0  0  0
 40 39  1  0  0  0  0
 41 42  1  0  0  0  0
 42 31  2  0  0  0  0
 44 43  3  0  0  0  0
M  END
>  <minimizedAffinity>
-6.5464983

$$$$
