
 OpenBabel03252509033D

 51 54  0  0  1  0  0  0  0  0999 V2000
   47.1560   34.1890   43.0820 N   0  0  0  0  0  0  0  0  0  0  0  0
   46.6320   35.1840   42.2270 C   0  0  0  0  0  0  0  0  0  0  0  0
   45.1180   35.3290   42.2710 C   0  0  0  0  0  0  0  0  0  0  0  0
   44.5320   35.0900   43.6390 C   0  0  0  0  0  0  0  0  0  0  0  0
   45.6110   34.8320   44.6790 C   0  0  0  0  0  0  0  0  0  0  0  0
   46.3980   33.6030   44.0670 C   0  0  2  0  0  0  0  0  0  0  0  0
   46.8950   35.1100   41.1670 H   0  0  0  0  0  0  0  0  0  0  0  0
   47.0260   36.1800   42.5540 H   0  0  0  0  0  0  0  0  0  0  0  0
   44.6990   34.6080   41.5200 H   0  0  0  0  0  0  0  0  0  0  0  0
   44.8560   36.3420   41.9000 H   0  0  0  0  0  0  0  0  0  0  0  0
   43.8680   35.9090   43.9790 H   0  0  0  0  0  0  0  0  0  0  0  0
   43.9120   34.1650   43.6210 H   0  0  0  0  0  0  0  0  0  0  0  0
   45.1390   34.5180   45.6110 H   0  0  0  0  0  0  0  0  0  0  0  0
   46.3120   35.6720   44.7650 H   0  0  0  0  0  0  0  0  0  0  0  0
   45.6420   32.8500   43.7890 H   0  0  0  0  0  0  0  0  0  0  0  0
   48.2500   33.4370   42.5170 C   0  0  0  0  0  0  0  0  0  0  0  0
   48.9410   34.1070   41.9880 H   0  0  0  0  0  0  0  0  0  0  0  0
   48.8280   32.9820   43.3680 H   0  0  0  0  0  0  0  0  0  0  0  0
   47.6840   32.3340   41.7010 C   0  0  0  0  0  0  0  0  0  0  0  0
   46.5940   32.4780   41.5040 H   0  0  0  0  0  0  0  0  0  0  0  0
   47.7810   31.3250   42.1540 H   0  0  0  0  0  0  0  0  0  0  0  0
   49.8410   31.3570   38.7760 C   0  0  0  0  0  0  0  0  0  0  0  0
   49.2310   31.3730   40.0420 C   0  0  0  0  0  0  0  0  0  0  0  0
   48.3170   32.3350   40.3530 C   0  0  0  0  0  0  0  0  0  0  0  0
   48.0320   33.2500   39.4130 N   0  0  0  0  0  0  0  0  0  0  0  0
   48.6070   33.2430   38.2030 C   0  0  0  0  0  0  0  0  0  0  0  0
   49.5120   32.3070   37.8680 N   0  0  0  0  0  0  0  0  0  0  0  0
   50.5650   30.5840   38.5470 H   0  0  0  0  0  0  0  0  0  0  0  0
   49.5290   30.5890   40.7360 H   0  0  0  0  0  0  0  0  0  0  0  0
   48.2650   34.0490   37.5670 H   0  0  0  0  0  0  0  0  0  0  0  0
   47.1420   33.2040   45.1600 O   0  0  0  0  0  0  0  0  0  0  0  0
   46.3360   30.7250   44.6220 O   0  0  0  0  0  0  0  0  0  0  0  0
   46.6850   31.7080   45.7510 P   0  0  2  0  0  0  0  0  0  0  0  0
   45.1890   31.9640   46.5580 O   0  0  0  0  0  0  0  0  0  0  0  0
   44.4330   31.9110   45.9470 H   0  0  0  0  0  0  0  0  0  0  0  0
   47.7480   31.0590   46.8590 O   0  0  0  0  0  0  0  0  0  0  0  0
   47.8520   29.6980   46.6370 C   0  0  0  0  0  0  0  0  0  0  0  0
   46.8320   29.2840   46.7380 H   0  0  0  0  0  0  0  0  0  0  0  0
   48.2300   29.4620   45.6150 H   0  0  0  0  0  0  0  0  0  0  0  0
   49.0500   27.7290   47.6690 C   0  0  0  0  0  3  0  0  0  0  0  0
   48.7510   29.0890   47.6520 C   0  0  0  0  0  0  0  0  0  0  0  0
   49.2930   29.9590   48.6050 C   0  0  0  0  0  0  0  0  0  0  0  0
   49.0770   31.0140   48.6140 H   0  0  0  0  0  0  0  0  0  0  0  0
   50.1350   29.4340   49.5690 C   0  0  0  0  0  0  0  0  0  0  0  0
   50.7990   30.0140   50.6040 N   0  0  0  0  0  0  0  0  0  0  0  0
   50.7360   31.0440   50.8060 H   0  0  0  0  0  0  0  0  0  0  0  0
   51.4840   29.0790   51.2460 N   0  0  0  0  0  0  0  0  0  0  0  0
   51.2910   27.8760   50.6600 C   0  0  0  0  0  0  0  0  0  0  0  0
   51.7390   26.9440   50.9910 H   0  0  0  0  0  0  0  0  0  0  0  0
   50.4320   28.0750   49.5840 C   0  0  0  0  0  0  0  0  0  0  0  0
   49.9020   27.2150   48.6480 C   0  0  0  0  0  3  0  0  0  0  0  0
  1  6  1  0  0  0  0
  2  3  1  0  0  0  0
  2  8  1  0  0  0  0
  2  1  1  0  0  0  0
  3  4  1  0  0  0  0
  4 11  1  0  0  0  0
  4  5  1  0  0  0  0
  5 14  1  0  0  0  0
  5 13  1  0  0  0  0
  6 15  1  6  0  0  0
  6  5  1  0  0  0  0
  6 31  1  0  0  0  0
  7  2  1  0  0  0  0
  9  3  1  0  0  0  0
 10  3  1  0  0  0  0
 12  4  1  0  0  0  0
 16  1  1  0  0  0  0
 16 18  1  0  0  0  0
 17 16  1  0  0  0  0
 19 21  1  0  0  0  0
 19 16  1  0  0  0  0
 20 19  1  0  0  0  0
 22 23  1  0  0  0  0
 23 24  2  0  0  0  0
 23 29  1  0  0  0  0
 24 19  1  0  0  0  0
 25 24  1  0  0  0  0
 26 25  2  0  0  0  0
 27 26  1  0  0  0  0
 27 22  2  0  0  0  0
 28 22  1  0  0  0  0
 30 26  1  0  0  0  0
 31 33  1  0  0  0  0
 33 32  2  6  0  0  0
 33 34  1  0  0  0  0
 33 36  1  0  0  0  0
 35 34  1  0  0  0  0
 37 38  1  0  0  0  0
 37 36  1  0  0  0  0
 37 41  1  0  0  0  0
 39 37  1  0  0  0  0
 40 51  1  0  0  0  0
 41 40  2  0  0  0  0
 41 42  1  0  0  0  0
 42 43  1  0  0  0  0
 42 44  2  0  0  0  0
 44 50  1  0  0  0  0
 44 45  1  0  0  0  0
 45 46  1  0  0  0  0
 45 47  1  0  0  0  0
 48 49  1  0  0  0  0
 48 47  2  0  0  0  0
 50 48  1  0  0  0  0
 51 50  2  0  0  0  0
M  END
>  <minimizedAffinity>
-4.32790804

>  <minimizedRMSD>
1.81950986

$$$$
