
 OpenBabel03252509033D

 51 54  0  0  1  0  0  0  0  0999 V2000
   47.1550   34.1600   43.0770 N   0  0  0  0  0  0  0  0  0  0  0  0
   46.6480   35.3410   42.4910 C   0  0  0  0  0  0  0  0  0  0  0  0
   45.1530   35.5540   42.6800 C   0  0  0  0  0  0  0  0  0  0  0  0
   44.6410   35.0620   44.0090 C   0  0  0  0  0  0  0  0  0  0  0  0
   45.7630   34.5310   44.8870 C   0  0  0  0  0  0  0  0  0  0  0  0
   46.4230   33.4200   43.9740 C   0  0  2  0  0  0  0  0  0  0  0  0
   46.8370   35.4800   41.4220 H   0  0  0  0  0  0  0  0  0  0  0  0
   47.1290   36.2230   42.9870 H   0  0  0  0  0  0  0  0  0  0  0  0
   44.6380   35.0340   41.8310 H   0  0  0  0  0  0  0  0  0  0  0  0
   44.9390   36.6360   42.5500 H   0  0  0  0  0  0  0  0  0  0  0  0
   44.0570   35.8250   44.5630 H   0  0  0  0  0  0  0  0  0  0  0  0
   43.9590   34.1970   43.8470 H   0  0  0  0  0  0  0  0  0  0  0  0
   45.3310   34.0520   45.7670 H   0  0  0  0  0  0  0  0  0  0  0  0
   46.5240   35.2940   45.0920 H   0  0  0  0  0  0  0  0  0  0  0  0
   45.6010   32.7850   43.6040 H   0  0  0  0  0  0  0  0  0  0  0  0
   48.1570   33.4880   42.2850 C   0  0  0  0  0  0  0  0  0  0  0  0
   48.8600   34.2170   41.8610 H   0  0  0  0  0  0  0  0  0  0  0  0
   48.7520   32.8280   42.9750 H   0  0  0  0  0  0  0  0  0  0  0  0
   47.4660   32.6210   41.2990 C   0  0  0  0  0  0  0  0  0  0  0  0
   46.3800   32.8680   41.2160 H   0  0  0  0  0  0  0  0  0  0  0  0
   47.5140   31.5340   41.5230 H   0  0  0  0  0  0  0  0  0  0  0  0
   49.3750   32.1670   38.0880 C   0  0  0  0  0  0  0  0  0  0  0  0
   48.8410   31.9470   39.3700 C   0  0  0  0  0  0  0  0  0  0  0  0
   48.0190   32.8730   39.9400 C   0  0  0  0  0  0  0  0  0  0  0  0
   47.7460   33.9820   39.2350 N   0  0  0  0  0  0  0  0  0  0  0  0
   48.2490   34.2000   38.0120 C   0  0  0  0  0  0  0  0  0  0  0  0
   49.0630   33.3050   37.4250 N   0  0  0  0  0  0  0  0  0  0  0  0
   50.0270   31.4190   37.6520 H   0  0  0  0  0  0  0  0  0  0  0  0
   49.1210   31.0180   39.8620 H   0  0  0  0  0  0  0  0  0  0  0  0
   47.9300   35.1410   37.5850 H   0  0  0  0  0  0  0  0  0  0  0  0
   47.2060   32.7580   44.8990 O   0  0  0  0  0  0  0  0  0  0  0  0
   46.0420   30.5570   43.9590 O   0  0  0  0  0  0  0  0  0  0  0  0
   46.6860   31.1970   45.1990 P   0  0  2  0  0  0  0  0  0  0  0  0
   45.3860   31.3460   46.3140 O   0  0  0  0  0  0  0  0  0  0  0  0
   44.5370   31.5020   45.8640 H   0  0  0  0  0  0  0  0  0  0  0  0
   47.8380   30.2170   45.8990 O   0  0  0  0  0  0  0  0  0  0  0  0
   47.7420   28.9500   45.3540 C   0  0  0  0  0  0  0  0  0  0  0  0
   46.7250   28.5840   45.5880 H   0  0  0  0  0  0  0  0  0  0  0  0
   47.8690   28.9530   44.2470 H   0  0  0  0  0  0  0  0  0  0  0  0
   50.1110   28.1290   45.6430 C   0  0  0  0  0  3  0  0  0  0  0  0
   48.7590   28.0570   45.9690 C   0  0  0  0  0  0  0  0  0  0  0  0
   48.2890   27.1290   46.9040 C   0  0  0  0  0  0  0  0  0  0  0  0
   47.2490   27.0550   47.1730 H   0  0  0  0  0  0  0  0  0  0  0  0
   49.2030   26.2800   47.5000 C   0  0  0  0  0  0  0  0  0  0  0  0
   49.0530   25.2930   48.4260 N   0  0  0  0  0  0  0  0  0  0  0  0
   48.1170   25.0440   48.8340 H   0  0  0  0  0  0  0  0  0  0  0  0
   50.2410   24.7640   48.6780 N   0  0  0  0  0  0  0  0  0  0  0  0
   51.1890   25.3780   47.9370 C   0  0  0  0  0  0  0  0  0  0  0  0
   52.2480   25.1330   47.9540 H   0  0  0  0  0  0  0  0  0  0  0  0
   50.5530   26.3510   47.1740 C   0  0  0  0  0  0  0  0  0  0  0  0
   51.0210   27.2630   46.2540 C   0  0  0  0  0  3  0  0  0  0  0  0
  1  6  1  0  0  0  0
  2  3  1  0  0  0  0
  2  8  1  0  0  0  0
  2  1  1  0  0  0  0
  3  4  1  0  0  0  0
  4 11  1  0  0  0  0
  4  5  1  0  0  0  0
  5 14  1  0  0  0  0
  5 13  1  0  0  0  0
  6 15  1  6  0  0  0
  6  5  1  0  0  0  0
  6 31  1  0  0  0  0
  7  2  1  0  0  0  0
  9  3  1  0  0  0  0
 10  3  1  0  0  0  0
 12  4  1  0  0  0  0
 16 18  1  0  0  0  0
 16  1  1  0  0  0  0
 17 16  1  0  0  0  0
 19 21  1  0  0  0  0
 19 16  1  0  0  0  0
 20 19  1  0  0  0  0
 22 23  1  0  0  0  0
 23 29  1  0  0  0  0
 23 24  2  0  0  0  0
 24 19  1  0  0  0  0
 25 24  1  0  0  0  0
 26 25  2  0  0  0  0
 27 26  1  0  0  0  0
 27 22  2  0  0  0  0
 28 22  1  0  0  0  0
 30 26  1  0  0  0  0
 31 33  1  0  0  0  0
 33 32  2  6  0  0  0
 33 36  1  0  0  0  0
 33 34  1  0  0  0  0
 35 34  1  0  0  0  0
 37 38  1  0  0  0  0
 37 36  1  0  0  0  0
 37 41  1  0  0  0  0
 39 37  1  0  0  0  0
 40 41  2  0  0  0  0
 40 51  1  0  0  0  0
 41 42  1  0  0  0  0
 42 43  1  0  0  0  0
 42 44  2  0  0  0  0
 44 45  1  0  0  0  0
 45 47  1  0  0  0  0
 45 46  1  0  0  0  0
 48 49  1  0  0  0  0
 48 47  2  0  0  0  0
 50 44  1  0  0  0  0
 50 48  1  0  0  0  0
 51 50  2  0  0  0  0
M  END
>  <minimizedAffinity>
-3.79352617

>  <minimizedRMSD>
0.168773472

$$$$
