
 OpenBabel03252509033D

 51 54  0  0  1  0  0  0  0  0999 V2000
   46.7800   34.3660   43.4850 N   0  0  0  0  0  0  0  0  0  0  0  0
   46.4900   34.9600   42.2360 C   0  0  0  0  0  0  0  0  0  0  0  0
   45.0160   34.9590   41.8580 C   0  0  0  0  0  0  0  0  0  0  0  0
   44.0940   35.1350   43.0370 C   0  0  0  0  0  0  0  0  0  0  0  0
   44.8640   35.3500   44.3300 C   0  0  0  0  0  0  0  0  0  0  0  0
   45.7950   34.0720   44.3960 C   0  0  2  0  0  0  0  0  0  0  0  0
   47.0220   34.5630   41.3670 H   0  0  0  0  0  0  0  0  0  0  0  0
   46.7740   36.0430   42.2800 H   0  0  0  0  0  0  0  0  0  0  0  0
   44.8150   33.9910   41.3280 H   0  0  0  0  0  0  0  0  0  0  0  0
   44.8510   35.7580   41.1050 H   0  0  0  0  0  0  0  0  0  0  0  0
   43.3560   35.9500   42.8970 H   0  0  0  0  0  0  0  0  0  0  0  0
   43.5090   34.2010   43.1930 H   0  0  0  0  0  0  0  0  0  0  0  0
   44.1670   35.3200   45.1690 H   0  0  0  0  0  0  0  0  0  0  0  0
   45.5100   36.2350   44.2850 H   0  0  0  0  0  0  0  0  0  0  0  0
   45.1450   33.1970   44.2250 H   0  0  0  0  0  0  0  0  0  0  0  0
   47.9910   33.5820   43.5020 C   0  0  0  0  0  0  0  0  0  0  0  0
   48.8420   34.1860   43.1600 H   0  0  0  0  0  0  0  0  0  0  0  0
   48.2010   33.3020   44.5700 H   0  0  0  0  0  0  0  0  0  0  0  0
   47.7480   32.3350   42.7360 C   0  0  0  0  0  0  0  0  0  0  0  0
   46.8500   32.4180   42.0780 H   0  0  0  0  0  0  0  0  0  0  0  0
   47.5840   31.4310   43.3610 H   0  0  0  0  0  0  0  0  0  0  0  0
   51.2430   32.1050   41.3600 C   0  0  0  0  0  0  0  0  0  0  0  0
   50.1570   32.3250   42.2260 C   0  0  0  0  0  0  0  0  0  0  0  0
   48.8830   32.0940   41.8030 C   0  0  0  0  0  0  0  0  0  0  0  0
   48.7140   31.6530   40.5460 N   0  0  0  0  0  0  0  0  0  0  0  0
   49.7420   31.4390   39.7130 C   0  0  0  0  0  0  0  0  0  0  0  0
   51.0100   31.6590   40.1030 N   0  0  0  0  0  0  0  0  0  0  0  0
   52.2490   32.2950   41.7150 H   0  0  0  0  0  0  0  0  0  0  0  0
   50.3960   32.6830   43.2250 H   0  0  0  0  0  0  0  0  0  0  0  0
   49.4310   31.0850   38.7400 H   0  0  0  0  0  0  0  0  0  0  0  0
   46.2300   34.1380   45.7060 O   0  0  0  0  0  0  0  0  0  0  0  0
   45.5910   31.5570   45.6000 O   0  0  0  0  0  0  0  0  0  0  0  0
   46.0620   32.6900   46.5250 P   0  0  2  0  0  0  0  0  0  0  0  0
   44.7460   32.9180   47.6080 O   0  0  0  0  0  0  0  0  0  0  0  0
   43.8900   32.7340   47.1830 H   0  0  0  0  0  0  0  0  0  0  0  0
   47.3920   32.2630   47.4350 O   0  0  0  0  0  0  0  0  0  0  0  0
   47.6570   30.9200   47.2400 C   0  0  0  0  0  0  0  0  0  0  0  0
   46.6890   30.3920   47.3340 H   0  0  0  0  0  0  0  0  0  0  0  0
   48.0750   30.7120   46.2280 H   0  0  0  0  0  0  0  0  0  0  0  0
   49.0830   29.1300   48.3040 C   0  0  0  0  0  3  0  0  0  0  0  0
   48.6040   30.4370   48.2790 C   0  0  0  0  0  0  0  0  0  0  0  0
   48.9990   31.3700   49.2430 C   0  0  0  0  0  0  0  0  0  0  0  0
   48.6420   32.3860   49.2460 H   0  0  0  0  0  0  0  0  0  0  0  0
   49.8790   30.9620   50.2280 C   0  0  0  0  0  0  0  0  0  0  0  0
   50.4340   31.6240   51.2790 N   0  0  0  0  0  0  0  0  0  0  0  0
   50.2270   32.6350   51.4790 H   0  0  0  0  0  0  0  0  0  0  0  0
   51.2220   30.7890   51.9400 N   0  0  0  0  0  0  0  0  0  0  0  0
   51.2080   29.5740   51.3510 C   0  0  0  0  0  0  0  0  0  0  0  0
   51.7700   28.7090   51.6930 H   0  0  0  0  0  0  0  0  0  0  0  0
   50.3580   29.6560   50.2530 C   0  0  0  0  0  0  0  0  0  0  0  0
   49.9730   28.7330   49.3060 C   0  0  0  0  0  3  0  0  0  0  0  0
  1 16  1  0  0  0  0
  1  6  1  0  0  0  0
  2  8  1  0  0  0  0
  2  1  1  0  0  0  0
  3  2  1  0  0  0  0
  3  4  1  0  0  0  0
  4 12  1  0  0  0  0
  4  5  1  0  0  0  0
  5  6  1  0  0  0  0
  5 13  1  0  0  0  0
  6 15  1  6  0  0  0
  6 31  1  0  0  0  0
  7  2  1  0  0  0  0
  9  3  1  0  0  0  0
 10  3  1  0  0  0  0
 11  4  1  0  0  0  0
 14  5  1  0  0  0  0
 16 18  1  0  0  0  0
 17 16  1  0  0  0  0
 19 21  1  0  0  0  0
 19 16  1  0  0  0  0
 20 19  1  0  0  0  0
 22 28  1  0  0  0  0
 22 23  1  0  0  0  0
 23 29  1  0  0  0  0
 24 23  2  0  0  0  0
 24 19  1  0  0  0  0
 25 24  1  0  0  0  0
 26 27  1  0  0  0  0
 26 25  2  0  0  0  0
 27 22  2  0  0  0  0
 30 26  1  0  0  0  0
 31 33  1  0  0  0  0
 33 32  2  6  0  0  0
 33 36  1  0  0  0  0
 33 34  1  0  0  0  0
 35 34  1  0  0  0  0
 37 38  1  0  0  0  0
 37 36  1  0  0  0  0
 37 41  1  0  0  0  0
 39 37  1  0  0  0  0
 40 51  1  0  0  0  0
 41 40  2  0  0  0  0
 41 42  1  0  0  0  0
 42 43  1  0  0  0  0
 42 44  2  0  0  0  0
 44 50  1  0  0  0  0
 44 45  1  0  0  0  0
 45 46  1  0  0  0  0
 45 47  1  0  0  0  0
 48 49  1  0  0  0  0
 48 47  2  0  0  0  0
 50 48  1  0  0  0  0
 51 50  2  0  0  0  0
M  END
>  <minimizedAffinity>
-5.75358582

>  <minimizedRMSD>
3.21254659

$$$$
