
 OpenBabel03252509043D

 51 54  0  0  1  0  0  0  0  0999 V2000
   47.1600   34.1860   43.0850 N   0  0  0  0  0  0  0  0  0  0  0  0
   46.6060   35.1720   42.2380 C   0  0  0  0  0  0  0  0  0  0  0  0
   45.0930   35.3080   42.3240 C   0  0  0  0  0  0  0  0  0  0  0  0
   44.5480   35.0750   43.7100 C   0  0  0  0  0  0  0  0  0  0  0  0
   45.6570   34.8310   44.7200 C   0  0  0  0  0  0  0  0  0  0  0  0
   46.4340   33.6030   44.0950 C   0  0  2  0  0  0  0  0  0  0  0  0
   46.8390   35.0930   41.1720 H   0  0  0  0  0  0  0  0  0  0  0  0
   47.0020   36.1730   42.5470 H   0  0  0  0  0  0  0  0  0  0  0  0
   44.6570   34.5800   41.5910 H   0  0  0  0  0  0  0  0  0  0  0  0
   44.8150   36.3170   41.9540 H   0  0  0  0  0  0  0  0  0  0  0  0
   43.8880   35.8930   44.0630 H   0  0  0  0  0  0  0  0  0  0  0  0
   43.9330   34.1470   43.7160 H   0  0  0  0  0  0  0  0  0  0  0  0
   45.2140   34.5210   45.6680 H   0  0  0  0  0  0  0  0  0  0  0  0
   46.3550   35.6760   44.7810 H   0  0  0  0  0  0  0  0  0  0  0  0
   45.6750   32.8430   43.8440 H   0  0  0  0  0  0  0  0  0  0  0  0
   48.2420   33.4370   42.4940 C   0  0  0  0  0  0  0  0  0  0  0  0
   48.9140   34.1070   41.9410 H   0  0  0  0  0  0  0  0  0  0  0  0
   48.8470   32.9920   43.3310 H   0  0  0  0  0  0  0  0  0  0  0  0
   47.6610   32.3250   41.7020 C   0  0  0  0  0  0  0  0  0  0  0  0
   46.5650   32.4610   41.5360 H   0  0  0  0  0  0  0  0  0  0  0  0
   47.7770   31.3190   42.1610 H   0  0  0  0  0  0  0  0  0  0  0  0
   49.7400   31.3390   38.7250 C   0  0  0  0  0  0  0  0  0  0  0  0
   49.1660   31.3600   40.0080 C   0  0  0  0  0  0  0  0  0  0  0  0
   48.2560   32.3200   40.3380 C   0  0  0  0  0  0  0  0  0  0  0  0
   47.9380   33.2260   39.3990 N   0  0  0  0  0  0  0  0  0  0  0  0
   48.4800   33.2130   38.1730 C   0  0  0  0  0  0  0  0  0  0  0  0
   49.3810   32.2790   37.8200 N   0  0  0  0  0  0  0  0  0  0  0  0
   50.4620   30.5680   38.4820 H   0  0  0  0  0  0  0  0  0  0  0  0
   49.4880   30.5840   40.6990 H   0  0  0  0  0  0  0  0  0  0  0  0
   48.1150   34.0110   37.5420 H   0  0  0  0  0  0  0  0  0  0  0  0
   47.2110   33.2160   45.1690 O   0  0  0  0  0  0  0  0  0  0  0  0
   46.3600   30.7400   44.6890 O   0  0  0  0  0  0  0  0  0  0  0  0
   46.7710   31.7280   45.7930 P   0  0  2  0  0  0  0  0  0  0  0  0
   45.3160   32.0030   46.6680 O   0  0  0  0  0  0  0  0  0  0  0  0
   44.5310   31.9530   46.0940 H   0  0  0  0  0  0  0  0  0  0  0  0
   47.8790   31.0780   46.8540 O   0  0  0  0  0  0  0  0  0  0  0  0
   47.9480   29.7120   46.6500 C   0  0  0  0  0  0  0  0  0  0  0  0
   46.9300   29.3160   46.8270 H   0  0  0  0  0  0  0  0  0  0  0  0
   48.2520   29.4520   45.6100 H   0  0  0  0  0  0  0  0  0  0  0  0
   49.6320   27.9560   47.3230 C   0  0  0  0  0  3  0  0  0  0  0  0
   48.9040   29.1060   47.6140 C   0  0  0  0  0  0  0  0  0  0  0  0
   49.0420   29.7550   48.8460 C   0  0  0  0  0  0  0  0  0  0  0  0
   48.4900   30.6460   49.0950 H   0  0  0  0  0  0  0  0  0  0  0  0
   49.9220   29.2260   49.7720 C   0  0  0  0  0  0  0  0  0  0  0  0
   50.2630   29.6230   51.0270 N   0  0  0  0  0  0  0  0  0  0  0  0
   49.8470   30.4740   51.4800 H   0  0  0  0  0  0  0  0  0  0  0  0
   51.1590   28.7750   51.5120 N   0  0  0  0  0  0  0  0  0  0  0  0
   51.4270   27.8120   50.6020 C   0  0  0  0  0  0  0  0  0  0  0  0
   52.1260   26.9940   50.7490 H   0  0  0  0  0  0  0  0  0  0  0  0
   50.6490   28.0760   49.4790 C   0  0  0  0  0  0  0  0  0  0  0  0
   50.5180   27.4330   48.2680 C   0  0  0  0  0  3  0  0  0  0  0  0
  1  6  1  0  0  0  0
  2  3  1  0  0  0  0
  2  8  1  0  0  0  0
  2  1  1  0  0  0  0
  3  4  1  0  0  0  0
  4 12  1  0  0  0  0
  4 11  1  0  0  0  0
  4  5  1  0  0  0  0
  5 14  1  0  0  0  0
  5 13  1  0  0  0  0
  6 15  1  6  0  0  0
  6  5  1  0  0  0  0
  6 31  1  0  0  0  0
  7  2  1  0  0  0  0
  9  3  1  0  0  0  0
 10  3  1  0  0  0  0
 16  1  1  0  0  0  0
 16 18  1  0  0  0  0
 17 16  1  0  0  0  0
 19 21  1  0  0  0  0
 19 16  1  0  0  0  0
 20 19  1  0  0  0  0
 22 23  1  0  0  0  0
 23 24  2  0  0  0  0
 23 29  1  0  0  0  0
 24 19  1  0  0  0  0
 25 24  1  0  0  0  0
 26 25  2  0  0  0  0
 27 26  1  0  0  0  0
 27 22  2  0  0  0  0
 28 22  1  0  0  0  0
 30 26  1  0  0  0  0
 31 33  1  0  0  0  0
 33 32  2  6  0  0  0
 33 34  1  0  0  0  0
 33 36  1  0  0  0  0
 35 34  1  0  0  0  0
 37 38  1  0  0  0  0
 37 36  1  0  0  0  0
 37 41  1  0  0  0  0
 39 37  1  0  0  0  0
 40 41  2  0  0  0  0
 40 51  1  0  0  0  0
 41 42  1  0  0  0  0
 42 43  1  0  0  0  0
 42 44  2  0  0  0  0
 44 45  1  0  0  0  0
 45 46  1  0  0  0  0
 45 47  1  0  0  0  0
 48 49  1  0  0  0  0
 48 47  2  0  0  0  0
 50 44  1  0  0  0  0
 50 48  1  0  0  0  0
 51 50  2  0  0  0  0
M  END
>  <minimizedAffinity>
-4.30762005

>  <minimizedRMSD>
1.77159464

$$$$
