
     RDKit          3D

 38 40  0  0  0  0  0  0  0  0999 V2000
   46.1293   35.2862   42.6913 C   0  0  0  0  0  0  0  0  0  0  0  0
   46.6892   34.1778   43.3497 C   0  0  0  0  0  0  0  0  0  0  0  0
   46.2045   33.8415   44.6094 C   0  0  0  0  0  0  0  0  0  0  0  0
   45.2144   34.5907   45.1546 N   0  0  0  0  0  0  0  0  0  0  0  0
   44.6967   35.6517   44.4948 C   0  0  0  0  0  0  0  0  0  0  0  0
   45.1565   35.9833   43.2823 N   0  0  0  0  0  0  0  0  0  0  0  0
   47.7065   33.4734   42.6971 O   0  0  0  0  0  0  0  0  0  0  0  0
   49.5491   35.3675   42.7824 O   0  0  0  0  0  0  0  0  0  0  0  0
   48.9719   34.2999   41.8988 P   0  0  1  0  0  0  0  0  0  0  0  0
   50.2263   33.2507   41.5126 O   0  0  0  0  0  0  0  0  0  0  0  0
   48.4084   35.0300   40.5073 O   0  0  0  0  0  0  0  0  0  0  0  0
   48.0692   34.3738   39.3678 C   0  0  0  0  0  0  0  0  0  0  0  0
   46.9449   33.7624   39.5020 O   0  0  0  0  0  0  0  0  0  0  0  0
   46.4383   35.6272   41.7096 H   0  0  0  0  0  0  0  0  0  0  0  0
   46.6769   32.9837   45.0556 H   0  0  0  0  0  0  0  0  0  0  0  0
   43.9163   36.1448   45.0621 H   0  0  0  0  0  0  0  0  0  0  0  0
   49.9006   32.4162   41.0848 H   0  0  0  0  0  0  0  0  0  0  0  0
   43.4332   30.8171   39.8536 C   0  0  0  0  0  0  0  0  0  0  0  0
   42.7553   31.3510   40.5802 H   0  0  0  0  0  0  0  0  0  0  0  0
   44.5080   31.7279   39.4814 C   0  0  0  0  0  0  0  0  0  0  0  0
   45.4267   31.2926   38.6366 C   0  0  0  0  0  0  0  0  0  0  0  0
   45.3447   29.9233   38.1036 C   0  0  0  0  0  0  0  0  0  0  0  0
   44.4506   29.0885   38.3807 O   0  0  0  0  0  0  0  0  0  0  0  0
   46.2017   29.3190   37.2316 O   0  0  0  0  0  0  0  0  0  0  0  0
   46.4926   32.1409   38.2294 N   0  0  0  0  0  0  0  0  0  0  0  0
   47.9274   32.2314   38.0577 C   0  0  0  0  0  0  0  0  0  0  0  0
   48.9000   31.4105   37.9316 O   0  0  0  0  0  0  0  0  0  0  0  0
   47.7627   33.6830   38.0933 C   0  0  1  0  0  0  0  0  0  0  0  0
   46.3110   33.4996   37.7549 C   0  0  2  0  0  0  0  0  0  0  0  0
   45.1362   34.3194   38.8252 S   0  0  0  0  0  0  0  0  0  0  0  0
   44.5708   33.1021   40.0432 C   0  0  2  0  0  0  0  0  0  0  0  0
   45.3437   33.1299   40.8642 H   0  0  0  0  0  0  0  0  0  0  0  0
   42.7452   30.5370   39.0198 H   0  0  0  0  0  0  0  0  0  0  0  0
   43.7694   29.9163   40.4461 H   0  0  0  0  0  0  0  0  0  0  0  0
   46.6371   28.4336   37.4550 H   0  0  0  0  0  0  0  0  0  0  0  0
   48.3002   34.1327   37.2161 H   0  0  0  0  0  0  0  0  0  0  0  0
   46.0476   33.5811   36.6839 H   0  0  0  0  0  0  0  0  0  0  0  0
   43.5927   33.4497   40.4089 H   0  0  0  0  0  0  0  0  0  0  0  0
  1  6  2  0
  1  2  1  0
  2  3  2  0
  3  4  1  0
  5  4  2  0
  6  5  1  0
  7  2  1  0
  9  7  1  1
  9  8  2  0
 10  9  1  0
 11  9  1  0
 12 13  2  0
 12 11  1  0
  1 14  1  0
  3 15  1  0
  5 16  1  0
 10 17  1  0
 18 19  1  0
 18 20  1  0
 20 21  2  0
 21 22  1  0
 22 23  2  0
 22 24  1  0
 21 25  1  0
 25 26  1  0
 26 27  2  0
 26 28  1  0
 28 29  1  0
 29 30  1  0
 30 31  1  0
 31 32  1  1
 31 20  1  0
 29 25  1  0
 18 33  1  0
 18 34  1  0
 24 35  1  0
 28 36  1  6
 29 37  1  6
 31 38  1  0
 12 28  1  0
M  ISO  6  14  14  15  14  16  14  17   3  19   8  32  15
M  END
>  <DihAtoms>  (1) 
12,11,27,25

>  <DihDeg>  (1) 
0.6178206600231226

$$$$
