
     RDKit          3D

 34 36  0  0  0  0  0  0  0  0999 V2000
   44.9152   35.1335   44.0487 C   0  0  0  0  0  0  0  0  0  0  0  0
   45.7361   35.3894   42.9283 C   0  0  0  0  0  0  0  0  0  0  0  0
   46.9483   34.6758   42.8160 C   0  0  0  0  0  0  0  0  0  0  0  0
   47.2458   33.7851   43.7994 N   0  0  0  0  0  0  0  0  0  0  0  0
   46.4294   33.5727   44.8540 C   0  0  0  0  0  0  0  0  0  0  0  0
   45.2849   34.2474   44.9589 N   0  0  0  0  0  0  0  0  0  0  0  0
   43.6969   35.8415   44.1746 N   0  0  0  0  0  0  0  0  0  0  0  0
   47.7426   34.9722   41.6629 C   0  0  0  0  0  0  0  0  0  0  0  0
   48.6678   35.8174   41.6482 O   0  0  0  0  0  0  0  0  0  0  0  0
   45.4150   36.1202   42.1927 H   0  0  0  0  0  0  0  0  0  0  0  0
   46.7182   32.8498   45.6085 H   0  0  0  0  0  0  0  0  0  0  0  0
   43.9360   36.8433   44.4333 H   0  0  0  0  0  0  0  0  0  0  0  0
   42.7113   35.4799   44.0444 H   0  0  0  0  0  0  0  0  0  0  0  0
   48.3388   30.0802   36.8624 C   0  0  0  0  0  0  0  0  0  0  0  0
   49.0125   29.3403   37.3387 H   0  0  0  0  0  0  0  0  0  0  0  0
   48.1797   31.2817   37.6778 C   0  0  0  0  0  0  0  0  0  0  0  0
   47.6698   31.1225   38.8871 C   0  0  0  0  0  0  0  0  0  0  0  0
   47.2732   29.8196   39.4102 C   0  0  0  0  0  0  0  0  0  0  0  0
   46.7863   29.5494   40.5209 O   0  0  0  0  0  0  0  0  0  0  0  0
   47.3483   28.5854   38.7881 O   0  0  0  0  0  0  0  0  0  0  0  0
   47.5075   32.2647   39.7181 N   0  0  0  0  0  0  0  0  0  0  0  0
   46.6287   33.0287   40.5833 C   0  0  0  0  0  0  0  0  0  0  0  0
   45.5666   32.7590   41.2438 O   0  0  0  0  0  0  0  0  0  0  0  0
   47.4887   34.2535   40.3733 C   0  0  2  0  0  0  0  0  0  0  0  0
   48.5597   33.2626   39.9684 C   0  0  2  0  0  0  0  0  0  0  0  0
   49.3694   33.5882   38.3899 S   0  0  0  0  0  0  0  0  0  0  0  0
   48.5790   32.5806   37.1130 C   0  0  1  0  0  0  0  0  0  0  0  0
   49.2354   32.4338   36.2325 H   0  0  0  0  0  0  0  0  0  0  0  0
   48.7447   30.3041   35.8490 H   0  0  0  0  0  0  0  0  0  0  0  0
   47.3680   29.5413   36.6608 H   0  0  0  0  0  0  0  0  0  0  0  0
   47.8649   27.7949   39.1418 H   0  0  0  0  0  0  0  0  0  0  0  0
   47.1862   34.8893   39.5402 H   0  0  0  0  0  0  0  0  0  0  0  0
   49.2373   32.9613   40.7810 H   0  0  0  0  0  0  0  0  0  0  0  0
   47.6915   33.1712   36.7545 H   0  0  0  0  0  0  0  0  0  0  0  0
  1  7  1  0
  1  6  2  0
  2  1  1  0
  3  2  2  0
  3  4  1  0
  4  5  2  0
  5  6  1  0
  8  3  1  0
  9  8  2  0
  2 10  1  0
  5 11  1  0
  7 12  1  0
  7 13  1  0
 14 15  1  0
 14 16  1  0
 16 17  2  0
 17 18  1  0
 18 19  2  0
 18 20  1  0
 17 21  1  0
 21 22  1  0
 22 23  2  0
 22 24  1  0
 24 25  1  0
 25 26  1  0
 26 27  1  0
 27 28  1  6
 27 16  1  0
 25 21  1  0
 14 29  1  0
 14 30  1  0
 20 31  1  0
 24 32  1  6
 25 33  1  1
 27 34  1  0
  8 24  1  0
M  ISO  4  10  14  11  14  15   8  28  15
M  END
>  <DihAtoms>  (1) 
2,7,23,21

>  <DihDeg>  (1) 
-179.99765998644892

$$$$
