
 OpenBabel03252505553D

 40 43  0  0  1  0  0  0  0  0999 V2000
   38.3970   33.2380   39.4400 C   0  0  0  0  0  0  0  0  0  0  0  0
   38.0650   34.4920   39.9320 C   0  0  0  0  0  0  0  0  0  0  0  0
   39.0530   35.3580   40.2630 C   0  0  0  0  0  0  0  0  0  0  0  0
   40.3320   35.0410   40.1300 N   0  0  0  0  0  0  0  0  0  0  0  0
   40.6660   33.8310   39.6550 C   0  0  0  0  0  0  0  0  0  0  0  0
   39.7160   32.9160   39.3040 N   0  0  0  0  0  0  0  0  0  0  0  0
   36.9920   34.6080   39.9850 H   0  0  0  0  0  0  0  0  0  0  0  0
   38.7120   36.3070   40.6360 H   0  0  0  0  0  0  0  0  0  0  0  0
   37.5530   32.1060   39.0040 C   0  0  0  0  0  0  0  0  0  0  0  0
   37.0560   32.3610   38.0630 H   0  0  0  0  0  0  0  0  0  0  0  0
   38.2290   31.2490   38.8500 H   0  0  0  0  0  0  0  0  0  0  0  0
   36.6280   31.8500   40.0310 O   0  0  0  0  0  0  0  0  0  0  0  0
   37.6950   29.3840   42.3630 C   0  0  0  0  0  0  0  0  0  0  0  0
   36.7760   28.3450   42.1860 C   0  0  0  0  0  0  0  0  0  0  0  0
   35.7700   28.5300   41.2270 C   0  0  0  0  0  0  0  0  0  0  0  0
   35.7370   29.6850   40.5300 N   0  0  0  0  0  0  0  0  0  0  0  0
   36.6460   30.6560   40.7370 C   0  0  0  0  0  0  0  0  0  0  0  0
   37.6190   30.5180   41.6420 N   0  0  0  0  0  0  0  0  0  0  0  0
   38.4730   29.2390   43.1070 H   0  0  0  0  0  0  0  0  0  0  0  0
   35.0640   27.7120   41.1030 H   0  0  0  0  0  0  0  0  0  0  0  0
   36.9250   27.1180   43.0240 C   0  0  0  0  0  0  0  0  0  0  0  0
   38.1770   27.2060   43.5780 F   0  0  0  0  0  0  0  0  0  0  0  0
   36.8780   26.0360   42.1340 F   0  0  0  0  0  0  0  0  0  0  0  0
   35.9200   27.0750   43.9380 F   0  0  0  0  0  0  0  0  0  0  0  0
   42.1360   33.5190   39.5230 C   0  0  0  0  0  2  0  0  0  0  0  0
   42.5420   32.6700   40.6560 C   0  0  0  0  0  0  0  0  0  0  0  0
   43.0450   33.2340   41.7420 C   0  0  0  0  0  0  0  0  0  0  0  0
   43.4240   32.4080   42.8350 N   0  0  0  0  0  0  0  0  0  0  0  0
   44.4380   32.0850   43.7900 C   0  0  0  0  0  0  0  0  0  0  0  0
   45.4320   32.6930   44.3160 O   0  0  0  0  0  0  0  0  0  0  0  0
   43.8380   30.7150   43.9170 C   0  0  0  0  0  3  0  0  0  0  0  0
   43.7200   30.4740   44.9950 H   0  0  0  0  0  0  0  0  0  0  0  0
   42.5640   31.3610   43.4120 C   0  0  2  0  0  3  0  0  0  0  0  0
   41.7400   30.5280   42.0450 S   0  0  0  0  0  0  0  0  0  0  0  0
   42.3680   31.2100   40.4930 C   0  0  0  0  0  3  0  0  0  0  0  0
   43.3630   30.7760   40.2240 H   0  0  0  0  0  0  0  0  0  0  0  0
   43.2120   34.6680   41.8520 C   0  0  0  0  0  0  0  0  0  0  0  0
   44.2840   35.2670   42.2110 O   0  0  0  0  0  0  0  0  0  0  0  0
   42.9850   36.0150   41.8370 O   0  0  0  0  0  0  0  0  0  0  0  0
   42.1190   36.3870   42.2600 H   0  0  0  0  0  0  0  0  0  0  0  0
  1  2  1  0  0  0  0
  2  7  1  0  0  0  0
  2  3  2  0  0  0  0
  3  8  1  0  0  0  0
  4  3  1  0  0  0  0
  5  4  2  0  0  0  0
  6  1  2  0  0  0  0
  6  5  1  0  0  0  0
  9  1  1  0  0  0  0
  9 12  1  0  0  0  0
 10  9  1  0  0  0  0
 11  9  1  0  0  0  0
 12 17  1  0  0  0  0
 13 19  1  0  0  0  0
 14 13  1  0  0  0  0
 14 21  1  0  0  0  0
 15 14  2  0  0  0  0
 16 17  2  0  0  0  0
 16 15  1  0  0  0  0
 17 18  1  0  0  0  0
 18 13  2  0  0  0  0
 20 15  1  0  0  0  0
 21 22  1  0  0  0  0
 21 24  1  0  0  0  0
 23 21  1  0  0  0  0
 25  5  1  0  0  0  0
 25 26  1  0  0  0  0
 26 27  2  0  0  0  0
 27 37  1  0  0  0  0
 27 28  1  0  0  0  0
 28 33  1  0  0  0  0
 28 29  1  0  0  0  0
 29 31  1  0  0  0  0
 29 30  2  0  0  0  0
 31 32  1  0  0  0  0
 33 34  1  6  0  0  0
 33 31  1  0  0  0  0
 35 26  1  0  0  0  0
 35 34  1  0  0  0  0
 36 35  1  0  0  0  0
 37 38  2  0  0  0  0
 39 37  1  0  0  0  0
 39 40  1  0  0  0  0
M  END
>  <minimizedAffinity>
-6.73224974

$$$$

 OpenBabel03252505553D

 40 43  0  0  1  0  0  0  0  0999 V2000
   38.5040   30.7500   37.9800 C   0  0  0  0  0  0  0  0  0  0  0  0
   39.1490   29.5380   37.7780 C   0  0  0  0  0  0  0  0  0  0  0  0
   40.4860   29.5260   37.5590 C   0  0  0  0  0  0  0  0  0  0  0  0
   41.1980   30.6420   37.5320 N   0  0  0  0  0  0  0  0  0  0  0  0
   40.5870   31.8200   37.7250 C   0  0  0  0  0  0  0  0  0  0  0  0
   39.2420   31.8980   37.9510 N   0  0  0  0  0  0  0  0  0  0  0  0
   38.4450   28.7200   37.8280 H   0  0  0  0  0  0  0  0  0  0  0  0
   40.9080   28.5480   37.4120 H   0  0  0  0  0  0  0  0  0  0  0  0
   37.0850   31.0700   38.2370 C   0  0  0  0  0  0  0  0  0  0  0  0
   36.7760   31.9030   37.5990 H   0  0  0  0  0  0  0  0  0  0  0  0
   36.5060   30.1670   37.9800 H   0  0  0  0  0  0  0  0  0  0  0  0
   36.9640   31.3850   39.6020 O   0  0  0  0  0  0  0  0  0  0  0  0
   36.1060   28.4650   41.4440 C   0  0  0  0  0  0  0  0  0  0  0  0
   37.0750   28.4150   42.4510 C   0  0  0  0  0  0  0  0  0  0  0  0
   38.0400   29.4330   42.4690 C   0  0  0  0  0  0  0  0  0  0  0  0
   37.9870   30.3980   41.5280 N   0  0  0  0  0  0  0  0  0  0  0  0
   37.0330   30.4020   40.5780 C   0  0  0  0  0  0  0  0  0  0  0  0
   36.0970   29.4490   40.5270 N   0  0  0  0  0  0  0  0  0  0  0  0
   35.3600   27.6750   41.4320 H   0  0  0  0  0  0  0  0  0  0  0  0
   38.7850   29.3790   43.2590 H   0  0  0  0  0  0  0  0  0  0  0  0
   37.0190   27.2910   43.4330 C   0  0  0  0  0  0  0  0  0  0  0  0
   36.8260   26.1610   42.6800 F   0  0  0  0  0  0  0  0  0  0  0  0
   35.8890   27.5290   44.2270 F   0  0  0  0  0  0  0  0  0  0  0  0
   38.1660   27.2770   44.1620 F   0  0  0  0  0  0  0  0  0  0  0  0
   41.4430   33.0620   37.6840 C   0  0  0  0  0  2  0  0  0  0  0  0
   42.2250   33.1370   38.9300 C   0  0  0  0  0  0  0  0  0  0  0  0
   41.8220   33.9370   39.9020 C   0  0  0  0  0  0  0  0  0  0  0  0
   42.5760   33.9950   41.1060 N   0  0  0  0  0  0  0  0  0  0  0  0
   43.2040   34.8320   42.0810 C   0  0  0  0  0  0  0  0  0  0  0  0
   43.0620   36.0360   42.4860 O   0  0  0  0  0  0  0  0  0  0  0  0
   44.1090   33.6880   42.4340 C   0  0  0  0  0  3  0  0  0  0  0  0
   44.1230   33.5710   43.5390 H   0  0  0  0  0  0  0  0  0  0  0  0
   43.0190   32.8090   41.8580 C   0  0  2  0  0  3  0  0  0  0  0  0
   43.5470   31.5760   40.6550 S   0  0  0  0  0  0  0  0  0  0  0  0
   43.4460   32.3040   39.0030 C   0  0  0  0  0  3  0  0  0  0  0  0
   44.3230   32.9630   38.7880 H   0  0  0  0  0  0  0  0  0  0  0  0
   40.6280   34.7480   39.7810 C   0  0  0  0  0  0  0  0  0  0  0  0
   40.6010   35.9960   39.5010 O   0  0  0  0  0  0  0  0  0  0  0  0
   39.3260   35.1610   39.7550 O   0  0  0  0  0  0  0  0  0  0  0  0
   38.6890   34.8750   40.5170 H   0  0  0  0  0  0  0  0  0  0  0  0
  1  9  1  0  0  0  0
  2  7  1  0  0  0  0
  2  1  2  0  0  0  0
  3  2  1  0  0  0  0
  4  3  2  0  0  0  0
  4  5  1  0  0  0  0
  5  6  2  0  0  0  0
  6  1  1  0  0  0  0
  8  3  1  0  0  0  0
  9 12  1  0  0  0  0
 10  9  1  0  0  0  0
 11  9  1  0  0  0  0
 12 17  1  0  0  0  0
 13 14  1  0  0  0  0
 14 15  2  0  0  0  0
 14 21  1  0  0  0  0
 15 20  1  0  0  0  0
 16 15  1  0  0  0  0
 17 16  2  0  0  0  0
 18 17  1  0  0  0  0
 18 13  2  0  0  0  0
 19 13  1  0  0  0  0
 21 24  1  0  0  0  0
 21 23  1  0  0  0  0
 22 21  1  0  0  0  0
 25  5  1  0  0  0  0
 25 26  1  0  0  0  0
 26 35  1  0  0  0  0
 26 27  2  0  0  0  0
 27 28  1  0  0  0  0
 28 33  1  0  0  0  0
 28 29  1  0  0  0  0
 29 31  1  0  0  0  0
 29 30  2  0  0  0  0
 31 32  1  0  0  0  0
 33 34  1  6  0  0  0
 33 31  1  0  0  0  0
 35 34  1  0  0  0  0
 36 35  1  0  0  0  0
 37 27  1  0  0  0  0
 38 37  2  0  0  0  0
 39 37  1  0  0  0  0
 39 40  1  0  0  0  0
M  END
>  <minimizedAffinity>
-6.65741444

$$$$

 OpenBabel03252505553D

 40 43  0  0  1  0  0  0  0  0999 V2000
   39.0000   34.0020   40.2900 C   0  0  0  0  0  0  0  0  0  0  0  0
   39.0090   35.3560   39.9860 C   0  0  0  0  0  0  0  0  0  0  0  0
   40.1830   36.0340   40.0080 C   0  0  0  0  0  0  0  0  0  0  0  0
   41.3260   35.4380   40.3110 N   0  0  0  0  0  0  0  0  0  0  0  0
   41.3310   34.1300   40.6060 C   0  0  0  0  0  0  0  0  0  0  0  0
   40.1810   33.3930   40.6010 N   0  0  0  0  0  0  0  0  0  0  0  0
   38.0110   35.7030   39.7610 H   0  0  0  0  0  0  0  0  0  0  0  0
   40.1030   37.0770   39.7620 H   0  0  0  0  0  0  0  0  0  0  0  0
   37.8960   33.0220   40.3470 C   0  0  0  0  0  0  0  0  0  0  0  0
   37.3360   33.1560   41.2770 H   0  0  0  0  0  0  0  0  0  0  0  0
   37.2440   33.2300   39.4830 H   0  0  0  0  0  0  0  0  0  0  0  0
   38.4660   31.7400   40.2610 O   0  0  0  0  0  0  0  0  0  0  0  0
   36.7680   29.1480   42.0100 C   0  0  0  0  0  0  0  0  0  0  0  0
   37.6290   28.8490   43.0700 C   0  0  0  0  0  0  0  0  0  0  0  0
   38.8230   29.5790   43.1580 C   0  0  0  0  0  0  0  0  0  0  0  0
   39.0800   30.5220   42.2290 N   0  0  0  0  0  0  0  0  0  0  0  0
   38.2180   30.7750   41.2260 C   0  0  0  0  0  0  0  0  0  0  0  0
   37.0710   30.1000   41.1080 N   0  0  0  0  0  0  0  0  0  0  0  0
   35.8430   28.5810   41.9440 H   0  0  0  0  0  0  0  0  0  0  0  0
   39.4800   29.3330   43.9890 H   0  0  0  0  0  0  0  0  0  0  0  0
   37.2240   27.7800   44.0320 C   0  0  0  0  0  0  0  0  0  0  0  0
   36.2560   27.0560   43.3830 F   0  0  0  0  0  0  0  0  0  0  0  0
   36.6610   28.4430   45.1300 F   0  0  0  0  0  0  0  0  0  0  0  0
   38.3170   27.0510   44.3770 F   0  0  0  0  0  0  0  0  0  0  0  0
   42.6590   33.4990   40.9450 C   0  0  0  0  0  2  0  0  0  0  0  0
   42.7870   32.2370   40.1960 C   0  0  0  0  0  0  0  0  0  0  0  0
   43.3200   32.2510   38.9860 C   0  0  0  0  0  0  0  0  0  0  0  0
   43.4510   31.0270   38.2750 N   0  0  0  0  0  0  0  0  0  0  0  0
   43.2330   30.3340   37.0430 C   0  0  0  0  0  0  0  0  0  0  0  0
   43.0920   30.6640   35.8170 O   0  0  0  0  0  0  0  0  0  0  0  0
   43.2420   29.0410   37.8060 C   0  0  0  0  0  3  0  0  0  0  0  0
   43.9150   28.3240   37.2880 H   0  0  0  0  0  0  0  0  0  0  0  0
   44.0370   29.8030   38.8460 C   0  0  2  0  0  3  0  0  0  0  0  0
   43.4540   29.6690   40.5450 S   0  0  0  0  0  0  0  0  0  0  0  0
   42.2860   31.0130   40.8600 C   0  0  0  0  0  3  0  0  0  0  0  0
   41.2740   30.7870   40.4410 H   0  0  0  0  0  0  0  0  0  0  0  0
   43.7830   33.4760   38.3680 C   0  0  0  0  0  0  0  0  0  0  0  0
   44.9400   33.6590   37.8540 O   0  0  0  0  0  0  0  0  0  0  0  0
   43.8500   34.7530   37.8870 O   0  0  0  0  0  0  0  0  0  0  0  0
   43.5090   35.5330   38.4730 H   0  0  0  0  0  0  0  0  0  0  0  0
  1  9  1  0  0  0  0
  1  6  1  0  0  0  0
  2  3  1  0  0  0  0
  2  1  2  0  0  0  0
  3  4  2  0  0  0  0
  4  5  1  0  0  0  0
  5 25  1  0  0  0  0
  6  5  2  0  0  0  0
  7  2  1  0  0  0  0
  8  3  1  0  0  0  0
  9 10  1  0  0  0  0
 11  9  1  0  0  0  0
 12  9  1  0  0  0  0
 12 17  1  0  0  0  0
 13 14  1  0  0  0  0
 14 15  2  0  0  0  0
 14 21  1  0  0  0  0
 15 20  1  0  0  0  0
 16 15  1  0  0  0  0
 17 16  2  0  0  0  0
 18 17  1  0  0  0  0
 18 13  2  0  0  0  0
 19 13  1  0  0  0  0
 21 24  1  0  0  0  0
 21 23  1  0  0  0  0
 22 21  1  0  0  0  0
 26 35  1  0  0  0  0
 26 25  1  0  0  0  0
 27 26  2  0  0  0  0
 28 33  1  0  0  0  0
 28 27  1  0  0  0  0
 29 31  1  0  0  0  0
 29 28  1  0  0  0  0
 30 29  2  0  0  0  0
 32 31  1  0  0  0  0
 33 31  1  6  0  0  0
 33 34  1  0  0  0  0
 34 35  1  0  0  0  0
 36 35  1  0  0  0  0
 37 27  1  0  0  0  0
 38 37  2  0  0  0  0
 39 37  1  0  0  0  0
 39 40  1  0  0  0  0
M  END
>  <minimizedAffinity>
-6.55698156

$$$$

 OpenBabel03252505553D

 40 43  0  0  1  0  0  0  0  0999 V2000
   39.0310   32.7610   39.3830 C   0  0  0  0  0  0  0  0  0  0  0  0
   38.1970   33.6980   39.9760 C   0  0  0  0  0  0  0  0  0  0  0  0
   38.6720   34.9390   40.2380 C   0  0  0  0  0  0  0  0  0  0  0  0
   39.9170   35.2850   39.9440 N   0  0  0  0  0  0  0  0  0  0  0  0
   40.7340   34.3890   39.3710 C   0  0  0  0  0  0  0  0  0  0  0  0
   40.3120   33.1220   39.0820 N   0  0  0  0  0  0  0  0  0  0  0  0
   37.2190   33.2760   40.1560 H   0  0  0  0  0  0  0  0  0  0  0  0
   37.9630   35.6040   40.6970 H   0  0  0  0  0  0  0  0  0  0  0  0
   38.7970   31.3570   38.9870 C   0  0  0  0  0  0  0  0  0  0  0  0
   38.7840   31.2820   37.8950 H   0  0  0  0  0  0  0  0  0  0  0  0
   39.6370   30.7690   39.3930 H   0  0  0  0  0  0  0  0  0  0  0  0
   37.5720   30.9580   39.5520 O   0  0  0  0  0  0  0  0  0  0  0  0
   36.3970   28.5550   41.8970 C   0  0  0  0  0  0  0  0  0  0  0  0
   37.3380   28.6160   42.9300 C   0  0  0  0  0  0  0  0  0  0  0  0
   38.3980   29.5230   42.7840 C   0  0  0  0  0  0  0  0  0  0  0  0
   38.4580   30.2820   41.6710 N   0  0  0  0  0  0  0  0  0  0  0  0
   37.5270   30.1870   40.7030 C   0  0  0  0  0  0  0  0  0  0  0  0
   36.5020   29.3350   40.8060 N   0  0  0  0  0  0  0  0  0  0  0  0
   35.5770   27.8520   42.0120 H   0  0  0  0  0  0  0  0  0  0  0  0
   39.1210   29.5570   43.5960 H   0  0  0  0  0  0  0  0  0  0  0  0
   37.1540   27.7190   44.1100 C   0  0  0  0  0  0  0  0  0  0  0  0
   36.1600   26.8460   43.7500 F   0  0  0  0  0  0  0  0  0  0  0  0
   36.7060   28.5420   45.1520 F   0  0  0  0  0  0  0  0  0  0  0  0
   38.3370   27.1170   44.4020 F   0  0  0  0  0  0  0  0  0  0  0  0
   42.1400   34.8330   39.0560 C   0  0  0  0  0  2  0  0  0  0  0  0
   43.0720   34.1140   39.9430 C   0  0  0  0  0  0  0  0  0  0  0  0
   43.9070   33.2280   39.4260 C   0  0  0  0  0  0  0  0  0  0  0  0
   44.8110   32.5470   40.2860 N   0  0  0  0  0  0  0  0  0  0  0  0
   45.3570   31.2880   40.6870 C   0  0  0  0  0  0  0  0  0  0  0  0
   45.4960   30.1360   40.1520 O   0  0  0  0  0  0  0  0  0  0  0  0
   45.7030   31.8970   42.0150 C   0  0  0  0  0  3  0  0  0  0  0  0
   46.7580   31.6470   42.2590 H   0  0  0  0  0  0  0  0  0  0  0  0
   45.6650   33.2200   41.2790 C   0  0  2  0  0  3  0  0  0  0  0  0
   44.6820   34.5230   42.0410 S   0  0  0  0  0  0  0  0  0  0  0  0
   42.9990   34.4310   41.3860 C   0  0  0  0  0  3  0  0  0  0  0  0
   42.4070   33.6240   41.8830 H   0  0  0  0  0  0  0  0  0  0  0  0
   43.9330   32.9380   38.0070 C   0  0  0  0  0  0  0  0  0  0  0  0
   44.9100   33.1760   37.2170 O   0  0  0  0  0  0  0  0  0  0  0  0
   43.5870   32.5290   36.7500 O   0  0  0  0  0  0  0  0  0  0  0  0
   42.6570   32.7780   36.3750 H   0  0  0  0  0  0  0  0  0  0  0  0
  1  2  1  0  0  0  0
  2  7  1  0  0  0  0
  2  3  2  0  0  0  0
  3  8  1  0  0  0  0
  4  3  1  0  0  0  0
  5  4  2  0  0  0  0
  6  5  1  0  0  0  0
  6  1  2  0  0  0  0
  9  1  1  0  0  0  0
  9 11  1  0  0  0  0
  9 12  1  0  0  0  0
 10  9  1  0  0  0  0
 12 17  1  0  0  0  0
 13 19  1  0  0  0  0
 13 14  1  0  0  0  0
 14 21  1  0  0  0  0
 15 14  2  0  0  0  0
 15 20  1  0  0  0  0
 16 15  1  0  0  0  0
 17 18  1  0  0  0  0
 17 16  2  0  0  0  0
 18 13  2  0  0  0  0
 21 24  1  0  0  0  0
 21 23  1  0  0  0  0
 22 21  1  0  0  0  0
 25  5  1  0  0  0  0
 25 26  1  0  0  0  0
 26 35  1  0  0  0  0
 27 26  2  0  0  0  0
 27 28  1  0  0  0  0
 28 29  1  0  0  0  0
 28 33  1  0  0  0  0
 29 31  1  0  0  0  0
 30 29  2  0  0  0  0
 31 32  1  0  0  0  0
 33 31  1  1  0  0  0
 33 34  1  0  0  0  0
 35 36  1  0  0  0  0
 35 34  1  0  0  0  0
 37 27  1  0  0  0  0
 38 37  2  0  0  0  0
 39 37  1  0  0  0  0
 40 39  1  0  0  0  0
M  END
>  <minimizedAffinity>
-6.42147303

$$$$

 OpenBabel03252505553D

 40 43  0  0  1  0  0  0  0  0999 V2000
   40.9190   28.3930   42.9260 C   0  0  0  0  0  0  0  0  0  0  0  0
   41.4980   27.3430   43.6240 C   0  0  0  0  0  0  0  0  0  0  0  0
   40.7080   26.3640   44.1280 C   0  0  0  0  0  0  0  0  0  0  0  0
   39.3920   26.3820   43.9720 N   0  0  0  0  0  0  0  0  0  0  0  0
   38.8200   27.3920   43.3000 C   0  0  0  0  0  0  0  0  0  0  0  0
   39.5640   28.4060   42.7680 N   0  0  0  0  0  0  0  0  0  0  0  0
   42.5710   27.4620   43.6700 H   0  0  0  0  0  0  0  0  0  0  0  0
   41.2340   25.5890   44.6540 H   0  0  0  0  0  0  0  0  0  0  0  0
   41.5150   29.5790   42.2760 C   0  0  0  0  0  0  0  0  0  0  0  0
   41.6080   30.3890   43.0060 H   0  0  0  0  0  0  0  0  0  0  0  0
   42.5140   29.2770   41.9220 H   0  0  0  0  0  0  0  0  0  0  0  0
   40.6780   29.9370   41.2040 O   0  0  0  0  0  0  0  0  0  0  0  0
   41.0730   33.4240   40.6170 C   0  0  0  0  0  0  0  0  0  0  0  0
   39.7590   33.8890   40.5090 C   0  0  0  0  0  0  0  0  0  0  0  0
   38.7280   32.9490   40.6470 C   0  0  0  0  0  0  0  0  0  0  0  0
   39.0480   31.6590   40.8750 N   0  0  0  0  0  0  0  0  0  0  0  0
   40.3300   31.2590   40.9710 C   0  0  0  0  0  0  0  0  0  0  0  0
   41.3400   32.1250   40.8450 N   0  0  0  0  0  0  0  0  0  0  0  0
   41.8710   34.1540   40.5100 H   0  0  0  0  0  0  0  0  0  0  0  0
   37.7120   33.3290   40.5600 H   0  0  0  0  0  0  0  0  0  0  0  0
   39.5420   35.3450   40.2560 C   0  0  0  0  0  0  0  0  0  0  0  0
   38.2580   35.4450   39.7860 F   0  0  0  0  0  0  0  0  0  0  0  0
   40.4450   35.6980   39.2440 F   0  0  0  0  0  0  0  0  0  0  0  0
   39.7630   36.0360   41.4050 F   0  0  0  0  0  0  0  0  0  0  0  0
   37.3200   27.3650   43.1500 C   0  0  0  0  0  2  0  0  0  0  0  0
   36.9890   26.9960   41.7630 C   0  0  0  0  0  0  0  0  0  0  0  0
   36.5500   27.9250   40.9310 C   0  0  0  0  0  0  0  0  0  0  0  0
   36.2440   27.5630   39.5910 N   0  0  0  0  0  0  0  0  0  0  0  0
   35.2930   27.6270   38.5250 C   0  0  0  0  0  0  0  0  0  0  0  0
   34.3300   28.4020   38.2000 O   0  0  0  0  0  0  0  0  0  0  0  0
   35.9100   26.3890   37.9420 C   0  0  0  0  0  3  0  0  0  0  0  0
   36.0950   26.5570   36.8600 H   0  0  0  0  0  0  0  0  0  0  0  0
   37.1450   26.7860   38.7230 C   0  0  2  0  0  3  0  0  0  0  0  0
   37.8900   25.4970   39.7380 S   0  0  0  0  0  0  0  0  0  0  0  0
   37.1620   25.5740   41.3910 C   0  0  0  0  0  3  0  0  0  0  0  0
   36.1560   25.0880   41.4230 H   0  0  0  0  0  0  0  0  0  0  0  0
   36.3810   29.3030   41.3440 C   0  0  0  0  0  0  0  0  0  0  0  0
   35.7750   30.2100   40.6750 O   0  0  0  0  0  0  0  0  0  0  0  0
   36.4270   30.4700   42.0520 O   0  0  0  0  0  0  0  0  0  0  0  0
   37.3200   30.7690   42.4770 H   0  0  0  0  0  0  0  0  0  0  0  0
  1  2  1  0  0  0  0
  2  7  1  0  0  0  0
  2  3  2  0  0  0  0
  3  8  1  0  0  0  0
  4  3  1  0  0  0  0
  5  4  2  0  0  0  0
  6  1  2  0  0  0  0
  6  5  1  0  0  0  0
  9  1  1  0  0  0  0
  9 10  1  0  0  0  0
 11  9  1  0  0  0  0
 12  9  1  0  0  0  0
 13 18  1  0  0  0  0
 14 13  2  0  0  0  0
 14 15  1  0  0  0  0
 15 16  2  0  0  0  0
 16 17  1  0  0  0  0
 17 12  1  0  0  0  0
 18 17  2  0  0  0  0
 19 13  1  0  0  0  0
 20 15  1  0  0  0  0
 21 14  1  0  0  0  0
 21 24  1  0  0  0  0
 22 21  1  0  0  0  0
 23 21  1  0  0  0  0
 25  5  1  0  0  0  0
 26 25  1  0  0  0  0
 27 37  1  0  0  0  0
 27 26  2  0  0  0  0
 28 27  1  0  0  0  0
 29 28  1  0  0  0  0
 30 29  2  0  0  0  0
 31 29  1  0  0  0  0
 32 31  1  0  0  0  0
 33 31  1  6  0  0  0
 33 28  1  0  0  0  0
 33 34  1  0  0  0  0
 34 35  1  0  0  0  0
 35 36  1  0  0  0  0
 35 26  1  0  0  0  0
 37 39  1  0  0  0  0
 38 37  2  0  0  0  0
 39 40  1  0  0  0  0
M  END
>  <minimizedAffinity>
-6.37223387

$$$$

 OpenBabel03252505553D

 40 43  0  0  1  0  0  0  0  0999 V2000
   36.1460   28.6800   39.2800 C   0  0  0  0  0  0  0  0  0  0  0  0
   36.2570   27.8690   38.1600 C   0  0  0  0  0  0  0  0  0  0  0  0
   36.5820   26.5630   38.3160 C   0  0  0  0  0  0  0  0  0  0  0  0
   36.7980   26.0360   39.5120 N   0  0  0  0  0  0  0  0  0  0  0  0
   36.6930   26.8090   40.6020 C   0  0  0  0  0  0  0  0  0  0  0  0
   36.3680   28.1330   40.5100 N   0  0  0  0  0  0  0  0  0  0  0  0
   36.0540   28.4320   37.2600 H   0  0  0  0  0  0  0  0  0  0  0  0
   36.6480   26.0040   37.3990 H   0  0  0  0  0  0  0  0  0  0  0  0
   35.8120   30.1130   39.4180 C   0  0  0  0  0  0  0  0  0  0  0  0
   36.1210   30.6490   38.5160 H   0  0  0  0  0  0  0  0  0  0  0  0
   34.7170   30.1730   39.5340 H   0  0  0  0  0  0  0  0  0  0  0  0
   36.4750   30.5920   40.5630 O   0  0  0  0  0  0  0  0  0  0  0  0
   37.7330   33.8180   39.7450 C   0  0  0  0  0  0  0  0  0  0  0  0
   39.0200   33.8160   40.2910 C   0  0  0  0  0  0  0  0  0  0  0  0
   39.4380   32.6540   40.9540 C   0  0  0  0  0  0  0  0  0  0  0  0
   38.5910   31.6070   41.0330 N   0  0  0  0  0  0  0  0  0  0  0  0
   37.3600   31.6570   40.4910 C   0  0  0  0  0  0  0  0  0  0  0  0
   36.9250   32.7470   39.8510 N   0  0  0  0  0  0  0  0  0  0  0  0
   37.4100   34.7190   39.2310 H   0  0  0  0  0  0  0  0  0  0  0  0
   40.4420   32.6710   41.3720 H   0  0  0  0  0  0  0  0  0  0  0  0
   39.8570   35.0420   40.1320 C   0  0  0  0  0  0  0  0  0  0  0  0
   38.9830   36.0350   39.7710 F   0  0  0  0  0  0  0  0  0  0  0  0
   40.7330   34.7760   39.0710 F   0  0  0  0  0  0  0  0  0  0  0  0
   40.5180   35.2860   41.2950 F   0  0  0  0  0  0  0  0  0  0  0  0
   36.9480   26.1610   41.9400 C   0  0  0  0  0  2  0  0  0  0  0  0
   38.3810   26.2830   42.2590 C   0  0  0  0  0  0  0  0  0  0  0  0
   38.8180   27.3640   42.8850 C   0  0  0  0  0  0  0  0  0  0  0  0
   40.2000   27.4680   43.1990 N   0  0  0  0  0  0  0  0  0  0  0  0
   41.3750   28.2830   43.1550 C   0  0  0  0  0  0  0  0  0  0  0  0
   41.6220   29.5340   43.0810 O   0  0  0  0  0  0  0  0  0  0  0  0
   42.2050   27.0340   43.2350 C   0  0  0  0  0  3  0  0  0  0  0  0
   42.9810   27.1690   44.0180 H   0  0  0  0  0  0  0  0  0  0  0  0
   40.9760   26.4060   43.8600 C   0  0  2  0  0  3  0  0  0  0  0  0
   40.4450   24.8350   43.1570 S   0  0  0  0  0  0  0  0  0  0  0  0
   39.2570   25.1690   41.8340 C   0  0  0  0  0  3  0  0  0  0  0  0
   39.7680   25.4770   40.8890 H   0  0  0  0  0  0  0  0  0  0  0  0
   37.9260   28.4390   43.2680 C   0  0  0  0  0  0  0  0  0  0  0  0
   37.2600   28.5000   44.3580 O   0  0  0  0  0  0  0  0  0  0  0  0
   37.2000   29.5960   43.2710 O   0  0  0  0  0  0  0  0  0  0  0  0
   36.6710   29.8640   42.4250 H   0  0  0  0  0  0  0  0  0  0  0  0
  1  9  1  0  0  0  0
  1  6  1  0  0  0  0
  2  3  1  0  0  0  0
  2  1  2  0  0  0  0
  3  4  2  0  0  0  0
  4  5  1  0  0  0  0
  5 25  1  0  0  0  0
  6  5  2  0  0  0  0
  7  2  1  0  0  0  0
  8  3  1  0  0  0  0
  9 11  1  0  0  0  0
  9 12  1  0  0  0  0
 10  9  1  0  0  0  0
 13 18  2  0  0  0  0
 13 14  1  0  0  0  0
 14 15  2  0  0  0  0
 15 16  1  0  0  0  0
 15 20  1  0  0  0  0
 17 12  1  0  0  0  0
 17 16  2  0  0  0  0
 18 17  1  0  0  0  0
 19 13  1  0  0  0  0
 21 14  1  0  0  0  0
 21 24  1  0  0  0  0
 22 21  1  0  0  0  0
 23 21  1  0  0  0  0
 25 26  1  0  0  0  0
 26 27  2  0  0  0  0
 27 28  1  0  0  0  0
 27 37  1  0  0  0  0
 28 33  1  0  0  0  0
 29 28  1  0  0  0  0
 29 31  1  0  0  0  0
 30 29  2  0  0  0  0
 31 33  1  0  0  0  0
 31 32  1  0  0  0  0
 33 34  1  6  0  0  0
 35 26  1  0  0  0  0
 35 34  1  0  0  0  0
 36 35  1  0  0  0  0
 37 39  1  0  0  0  0
 37 38  2  0  0  0  0
 40 39  1  0  0  0  0
M  END
>  <minimizedAffinity>
-6.35449457

$$$$

 OpenBabel03252505553D

 40 43  0  0  1  0  0  0  0  0999 V2000
   36.9650   29.2770   41.8860 C   0  0  0  0  0  0  0  0  0  0  0  0
   36.0380   28.4700   41.2420 C   0  0  0  0  0  0  0  0  0  0  0  0
   35.4590   28.9070   40.0970 C   0  0  0  0  0  0  0  0  0  0  0  0
   35.7560   30.0870   39.5720 N   0  0  0  0  0  0  0  0  0  0  0  0
   36.6510   30.8750   40.1850 C   0  0  0  0  0  0  0  0  0  0  0  0
   37.2680   30.4910   41.3410 N   0  0  0  0  0  0  0  0  0  0  0  0
   35.8980   27.5450   41.7820 H   0  0  0  0  0  0  0  0  0  0  0  0
   34.7530   28.2240   39.6620 H   0  0  0  0  0  0  0  0  0  0  0  0
   37.7440   29.0710   43.1250 C   0  0  0  0  0  0  0  0  0  0  0  0
   38.6400   29.6990   43.1020 H   0  0  0  0  0  0  0  0  0  0  0  0
   37.0930   29.3760   43.9610 H   0  0  0  0  0  0  0  0  0  0  0  0
   38.0660   27.7040   43.1980 O   0  0  0  0  0  0  0  0  0  0  0  0
   41.2270   26.2370   43.9170 C   0  0  0  0  0  0  0  0  0  0  0  0
   41.9190   26.3400   42.7060 C   0  0  0  0  0  0  0  0  0  0  0  0
   41.2500   26.9380   41.6290 C   0  0  0  0  0  0  0  0  0  0  0  0
   39.9880   27.3790   41.8090 N   0  0  0  0  0  0  0  0  0  0  0  0
   39.3630   27.2570   42.9950 C   0  0  0  0  0  0  0  0  0  0  0  0
   39.9670   26.6930   44.0450 N   0  0  0  0  0  0  0  0  0  0  0  0
   41.7470   25.7730   44.7500 H   0  0  0  0  0  0  0  0  0  0  0  0
   41.8040   27.0100   40.6950 H   0  0  0  0  0  0  0  0  0  0  0  0
   43.3140   25.8110   42.6420 C   0  0  0  0  0  0  0  0  0  0  0  0
   43.3920   24.8690   43.6350 F   0  0  0  0  0  0  0  0  0  0  0  0
   44.1510   26.8920   42.9490 F   0  0  0  0  0  0  0  0  0  0  0  0
   43.5480   25.3180   41.3960 F   0  0  0  0  0  0  0  0  0  0  0  0
   36.9530   32.2090   39.5470 C   0  0  0  0  0  2  0  0  0  0  0  0
   38.2910   32.1460   38.9330 C   0  0  0  0  0  0  0  0  0  0  0  0
   39.2320   32.9800   39.3410 C   0  0  0  0  0  0  0  0  0  0  0  0
   40.5240   32.9050   38.7510 N   0  0  0  0  0  0  0  0  0  0  0  0
   41.6000   33.6230   38.1430 C   0  0  0  0  0  0  0  0  0  0  0  0
   42.0270   34.8280   38.1610 O   0  0  0  0  0  0  0  0  0  0  0  0
   42.0250   32.3510   37.4680 C   0  0  0  0  0  3  0  0  0  0  0  0
   43.1170   32.2140   37.6160 H   0  0  0  0  0  0  0  0  0  0  0  0
   41.2820   31.6540   38.5890 C   0  0  2  0  0  3  0  0  0  0  0  0
   40.1130   30.3770   38.0910 S   0  0  0  0  0  0  0  0  0  0  0  0
   38.4890   31.1390   37.8670 C   0  0  0  0  0  3  0  0  0  0  0  0
   38.4120   31.6650   36.8830 H   0  0  0  0  0  0  0  0  0  0  0  0
   38.9880   33.9610   40.3780 C   0  0  0  0  0  0  0  0  0  0  0  0
   38.9290   35.2270   40.2060 O   0  0  0  0  0  0  0  0  0  0  0  0
   38.7440   34.5540   41.5840 O   0  0  0  0  0  0  0  0  0  0  0  0
   39.2820   34.2550   42.4140 H   0  0  0  0  0  0  0  0  0  0  0  0
  1  9  1  0  0  0  0
  2  7  1  0  0  0  0
  2  1  2  0  0  0  0
  3  2  1  0  0  0  0
  4  3  2  0  0  0  0
  4  5  1  0  0  0  0
  5  6  2  0  0  0  0
  6  1  1  0  0  0  0
  8  3  1  0  0  0  0
  9 12  1  0  0  0  0
  9 11  1  0  0  0  0
 10  9  1  0  0  0  0
 13 18  1  0  0  0  0
 13 19  1  0  0  0  0
 14 13  2  0  0  0  0
 15 16  2  0  0  0  0
 15 14  1  0  0  0  0
 16 17  1  0  0  0  0
 17 12  1  0  0  0  0
 17 18  2  0  0  0  0
 20 15  1  0  0  0  0
 21 14  1  0  0  0  0
 21 23  1  0  0  0  0
 21 22  1  0  0  0  0
 24 21  1  0  0  0  0
 25  5  1  0  0  0  0
 26 27  2  0  0  0  0
 26 25  1  0  0  0  0
 27 37  1  0  0  0  0
 28 27  1  0  0  0  0
 29 30  2  0  0  0  0
 29 28  1  0  0  0  0
 31 32  1  0  0  0  0
 31 29  1  0  0  0  0
 33 31  1  6  0  0  0
 33 28  1  0  0  0  0
 34 33  1  0  0  0  0
 35 34  1  0  0  0  0
 35 26  1  0  0  0  0
 36 35  1  0  0  0  0
 37 39  1  0  0  0  0
 38 37  2  0  0  0  0
 39 40  1  0  0  0  0
M  END
>  <minimizedAffinity>
-6.32543516

$$$$

 OpenBabel03252505553D

 40 43  0  0  1  0  0  0  0  0999 V2000
   39.0010   33.9650   39.9860 C   0  0  0  0  0  0  0  0  0  0  0  0
   39.0310   35.2680   40.4620 C   0  0  0  0  0  0  0  0  0  0  0  0
   40.1260   36.0340   40.2330 C   0  0  0  0  0  0  0  0  0  0  0  0
   41.1730   35.5710   39.5650 N   0  0  0  0  0  0  0  0  0  0  0  0
   41.1560   34.3130   39.1000 C   0  0  0  0  0  0  0  0  0  0  0  0
   40.0820   33.4940   39.2980 N   0  0  0  0  0  0  0  0  0  0  0  0
   38.1150   35.5050   40.9830 H   0  0  0  0  0  0  0  0  0  0  0  0
   40.0700   37.0290   40.6340 H   0  0  0  0  0  0  0  0  0  0  0  0
   37.9660   32.9160   40.0800 C   0  0  0  0  0  0  0  0  0  0  0  0
   37.3390   33.0970   40.9590 H   0  0  0  0  0  0  0  0  0  0  0  0
   37.3570   32.9890   39.1640 H   0  0  0  0  0  0  0  0  0  0  0  0
   38.6260   31.6770   40.1570 O   0  0  0  0  0  0  0  0  0  0  0  0
   38.7400   29.5670   43.0190 C   0  0  0  0  0  0  0  0  0  0  0  0
   37.5630   28.8170   42.9210 C   0  0  0  0  0  0  0  0  0  0  0  0
   36.7270   29.0690   41.8240 C   0  0  0  0  0  0  0  0  0  0  0  0
   37.0920   30.0100   40.9290 N   0  0  0  0  0  0  0  0  0  0  0  0
   38.2350   30.7060   41.0670 C   0  0  0  0  0  0  0  0  0  0  0  0
   39.0580   30.4950   42.0990 N   0  0  0  0  0  0  0  0  0  0  0  0
   39.3860   29.3710   43.8700 H   0  0  0  0  0  0  0  0  0  0  0  0
   35.8170   28.4770   41.7640 H   0  0  0  0  0  0  0  0  0  0  0  0
   37.2780   27.8060   43.9820 C   0  0  0  0  0  0  0  0  0  0  0  0
   36.3170   26.9830   43.4510 F   0  0  0  0  0  0  0  0  0  0  0  0
   36.7440   28.5200   45.0630 F   0  0  0  0  0  0  0  0  0  0  0  0
   38.4310   27.1650   44.3100 F   0  0  0  0  0  0  0  0  0  0  0  0
   42.3720   33.8350   38.3470 C   0  0  0  0  0  2  0  0  0  0  0  0
   43.0480   32.8000   39.1480 C   0  0  0  0  0  0  0  0  0  0  0  0
   43.0390   31.5460   38.7290 C   0  0  0  0  0  0  0  0  0  0  0  0
   43.7030   30.5550   39.5020 N   0  0  0  0  0  0  0  0  0  0  0  0
   43.6210   29.2640   40.1120 C   0  0  0  0  0  0  0  0  0  0  0  0
   42.9320   28.2040   39.9270 O   0  0  0  0  0  0  0  0  0  0  0  0
   44.6980   29.6830   41.0700 C   0  0  0  0  0  3  0  0  0  0  0  0
   45.4720   28.8870   41.1100 H   0  0  0  0  0  0  0  0  0  0  0  0
   45.0800   30.6920   40.0070 C   0  0  2  0  0  3  0  0  0  0  0  0
   45.2820   32.3930   40.5640 S   0  0  0  0  0  0  0  0  0  0  0  0
   43.6940   33.2430   40.4030 C   0  0  0  0  0  3  0  0  0  0  0  0
   43.0050   32.9950   41.2480 H   0  0  0  0  0  0  0  0  0  0  0  0
   42.3800   31.1540   37.5000 C   0  0  0  0  0  0  0  0  0  0  0  0
   42.9620   30.9240   36.3850 O   0  0  0  0  0  0  0  0  0  0  0  0
   41.4320   30.8120   36.5770 O   0  0  0  0  0  0  0  0  0  0  0  0
   40.5690   31.3740   36.5060 H   0  0  0  0  0  0  0  0  0  0  0  0
  1  9  1  0  0  0  0
  1  2  1  0  0  0  0
  2  7  1  0  0  0  0
  3  2  2  0  0  0  0
  3  8  1  0  0  0  0
  4  3  1  0  0  0  0
  5  6  1  0  0  0  0
  5  4  2  0  0  0  0
  6  1  2  0  0  0  0
  9 12  1  0  0  0  0
  9 10  1  0  0  0  0
 11  9  1  0  0  0  0
 12 17  1  0  0  0  0
 13 19  1  0  0  0  0
 14 13  1  0  0  0  0
 14 21  1  0  0  0  0
 15 14  2  0  0  0  0
 16 17  2  0  0  0  0
 16 15  1  0  0  0  0
 17 18  1  0  0  0  0
 18 13  2  0  0  0  0
 20 15  1  0  0  0  0
 21 24  1  0  0  0  0
 21 23  1  0  0  0  0
 22 21  1  0  0  0  0
 25  5  1  0  0  0  0
 25 26  1  0  0  0  0
 26 35  1  0  0  0  0
 27 26  2  0  0  0  0
 27 28  1  0  0  0  0
 28 33  1  0  0  0  0
 28 29  1  0  0  0  0
 29 31  1  0  0  0  0
 30 29  2  0  0  0  0
 31 32  1  0  0  0  0
 33 34  1  1  0  0  0
 33 31  1  0  0  0  0
 35 34  1  0  0  0  0
 35 36  1  0  0  0  0
 37 27  1  0  0  0  0
 38 37  2  0  0  0  0
 39 37  1  0  0  0  0
 40 39  1  0  0  0  0
M  END
>  <minimizedAffinity>
-6.30819321

$$$$

 OpenBabel03252505553D

 40 43  0  0  1  0  0  0  0  0999 V2000
   36.1760   25.8370   38.7570 C   0  0  0  0  0  0  0  0  0  0  0  0
   36.1270   24.5830   38.1640 C   0  0  0  0  0  0  0  0  0  0  0  0
   36.4390   23.4880   38.9000 C   0  0  0  0  0  0  0  0  0  0  0  0
   36.7890   23.5810   40.1740 N   0  0  0  0  0  0  0  0  0  0  0  0
   36.8400   24.7870   40.7590 C   0  0  0  0  0  0  0  0  0  0  0  0
   36.5370   25.9270   40.0700 N   0  0  0  0  0  0  0  0  0  0  0  0
   35.8280   24.6620   37.1290 H   0  0  0  0  0  0  0  0  0  0  0  0
   36.3770   22.5570   38.3670 H   0  0  0  0  0  0  0  0  0  0  0  0
   35.8950   27.1830   38.2170 C   0  0  0  0  0  0  0  0  0  0  0  0
   36.7910   27.5740   37.7250 H   0  0  0  0  0  0  0  0  0  0  0  0
   35.0840   27.0650   37.4800 H   0  0  0  0  0  0  0  0  0  0  0  0
   35.4950   27.9940   39.2940 O   0  0  0  0  0  0  0  0  0  0  0  0
   37.1270   31.0670   38.5510 C   0  0  0  0  0  0  0  0  0  0  0  0
   37.1770   31.7200   39.7870 C   0  0  0  0  0  0  0  0  0  0  0  0
   36.6230   31.0550   40.8910 C   0  0  0  0  0  0  0  0  0  0  0  0
   36.0770   29.8350   40.7100 N   0  0  0  0  0  0  0  0  0  0  0  0
   36.0530   29.2470   39.4980 C   0  0  0  0  0  0  0  0  0  0  0  0
   36.5700   29.8490   38.4230 N   0  0  0  0  0  0  0  0  0  0  0  0
   37.5570   31.5840   37.6970 H   0  0  0  0  0  0  0  0  0  0  0  0
   36.6710   31.5770   41.8430 H   0  0  0  0  0  0  0  0  0  0  0  0
   37.8110   33.0700   39.8500 C   0  0  0  0  0  0  0  0  0  0  0  0
   38.8590   33.0210   38.9650 F   0  0  0  0  0  0  0  0  0  0  0  0
   38.3020   33.2050   41.1560 F   0  0  0  0  0  0  0  0  0  0  0  0
   36.8820   34.0150   39.5500 F   0  0  0  0  0  0  0  0  0  0  0  0
   37.2440   24.8390   42.2110 C   0  0  0  0  0  2  0  0  0  0  0  0
   38.5110   25.5830   42.3220 C   0  0  0  0  0  0  0  0  0  0  0  0
   38.5000   26.8140   42.8070 C   0  0  0  0  0  0  0  0  0  0  0  0
   39.7280   27.5210   42.9220 N   0  0  0  0  0  0  0  0  0  0  0  0
   40.4320   28.7380   42.6630 C   0  0  0  0  0  0  0  0  0  0  0  0
   40.1120   29.9600   42.4690 O   0  0  0  0  0  0  0  0  0  0  0  0
   41.7190   27.9680   42.7160 C   0  0  0  0  0  3  0  0  0  0  0  0
   42.4320   28.5070   43.3750 H   0  0  0  0  0  0  0  0  0  0  0  0
   40.9410   26.9650   43.5430 C   0  0  2  0  0  3  0  0  0  0  0  0
   41.0690   25.2440   43.0300 S   0  0  0  0  0  0  0  0  0  0  0  0
   39.7350   24.8920   41.8610 C   0  0  0  0  0  3  0  0  0  0  0  0
   39.9740   25.2680   40.8360 H   0  0  0  0  0  0  0  0  0  0  0  0
   37.2740   27.4580   43.2320 C   0  0  0  0  0  0  0  0  0  0  0  0
   37.1320   28.1580   44.2930 O   0  0  0  0  0  0  0  0  0  0  0  0
   35.9820   27.8970   43.2940 O   0  0  0  0  0  0  0  0  0  0  0  0
   35.2130   27.2340   43.1070 H   0  0  0  0  0  0  0  0  0  0  0  0
  1  6  1  0  0  0  0
  2  1  2  0  0  0  0
  2  3  1  0  0  0  0
  3  4  2  0  0  0  0
  4  5  1  0  0  0  0
  5 25  1  0  0  0  0
  6  5  2  0  0  0  0
  7  2  1  0  0  0  0
  8  3  1  0  0  0  0
  9  1  1  0  0  0  0
  9 12  1  0  0  0  0
 10  9  1  0  0  0  0
 11  9  1  0  0  0  0
 12 17  1  0  0  0  0
 13 14  1  0  0  0  0
 14 21  1  0  0  0  0
 14 15  2  0  0  0  0
 15 20  1  0  0  0  0
 16 15  1  0  0  0  0
 17 16  2  0  0  0  0
 18 13  2  0  0  0  0
 18 17  1  0  0  0  0
 19 13  1  0  0  0  0
 21 23  1  0  0  0  0
 22 21  1  0  0  0  0
 24 21  1  0  0  0  0
 25 26  1  0  0  0  0
 26 27  2  0  0  0  0
 27 28  1  0  0  0  0
 27 37  1  0  0  0  0
 28 33  1  0  0  0  0
 29 31  1  0  0  0  0
 29 28  1  0  0  0  0
 30 29  2  0  0  0  0
 31 32  1  0  0  0  0
 33 31  1  6  0  0  0
 34 33  1  0  0  0  0
 35 26  1  0  0  0  0
 35 34  1  0  0  0  0
 36 35  1  0  0  0  0
 37 39  1  0  0  0  0
 37 38  2  0  0  0  0
 40 39  1  0  0  0  0
M  END
>  <minimizedAffinity>
-6.30303192

$$$$
