
     RDKit          3D

 32 34  0  0  0  0  0  0  0  0999 V2000
   46.2202   34.8362   43.1906 C   0  0  0  0  0  0  0  0  0  0  0  0
   45.3267   35.9021   43.2813 C   0  0  0  0  0  0  0  0  0  0  0  0
   44.5561   36.0118   44.4525 C   0  0  0  0  0  0  0  0  0  0  0  0
   44.7414   35.0615   45.4184 N   0  0  0  0  0  0  0  0  0  0  0  0
   45.6133   34.0534   45.2866 C   0  0  0  0  0  0  0  0  0  0  0  0
   46.3542   33.9424   44.1677 N   0  0  0  0  0  0  0  0  0  0  0  0
   46.9562   34.8077   41.9687 C   0  0  0  0  0  0  0  0  0  0  0  0
   48.0589   35.3879   41.7282 O   0  0  0  0  0  0  0  0  0  0  0  0
   45.1859   36.6514   42.5107 H   0  0  0  0  0  0  0  0  0  0  0  0
   43.8459   36.8195   44.5780 H   0  0  0  0  0  0  0  0  0  0  0  0
   45.6609   33.3700   46.1278 H   0  0  0  0  0  0  0  0  0  0  0  0
   41.1038   35.0045   39.3472 C   0  0  0  0  0  0  0  0  0  0  0  0
   40.3196   35.1107   40.1230 H   0  0  0  0  0  0  0  0  0  0  0  0
   42.4195   34.8198   40.0123 C   0  0  0  0  0  0  0  0  0  0  0  0
   43.4295   34.6708   39.1968 C   0  0  0  0  0  0  0  0  0  0  0  0
   43.2683   34.6868   37.7357 C   0  0  0  0  0  0  0  0  0  0  0  0
   42.2132   34.8331   37.0710 O   0  0  0  0  0  0  0  0  0  0  0  0
   44.3156   34.5345   36.8461 O   0  0  0  0  0  0  0  0  0  0  0  0
   44.7409   34.4794   39.7149 N   0  0  0  0  0  0  0  0  0  0  0  0
   46.1447   34.7917   39.5910 C   0  0  0  0  0  0  0  0  0  0  0  0
   46.8926   35.4479   38.7878 O   0  0  0  0  0  0  0  0  0  0  0  0
   46.4187   34.0257   40.8116 C   0  0  2  0  0  0  0  0  0  0  0  0
   44.9904   33.6232   40.8880 C   0  0  1  0  0  0  0  0  0  0  0  0
   44.0123   34.3141   42.2122 S   0  0  0  0  0  0  0  0  0  0  0  0
   42.4511   34.8287   41.4904 C   0  0  2  0  0  0  0  0  0  0  0  0
   41.6853   34.0643   41.8146 H   0  0  0  0  0  0  0  0  0  0  0  0
   41.0504   35.9381   38.7466 H   0  0  0  0  0  0  0  0  0  0  0  0
   40.8201   34.0874   38.7692 H   0  0  0  0  0  0  0  0  0  0  0  0
   44.3983   35.0845   36.0048 H   0  0  0  0  0  0  0  0  0  0  0  0
   47.1278   33.1965   40.5522 H   0  0  0  0  0  0  0  0  0  0  0  0
   44.8747   32.5480   40.6749 H   0  0  0  0  0  0  0  0  0  0  0  0
   42.0693   35.7783   41.9188 H   0  0  0  0  0  0  0  0  0  0  0  0
  1  2  2  0
  1  6  1  0
  2  3  1  0
  3  4  2  0
  5  4  1  0
  6  5  2  0
  7  1  1  0
  8  7  2  0
  2  9  1  0
  3 10  1  0
  5 11  1  0
 12 13  1  0
 12 14  1  0
 14 15  2  0
 15 16  1  0
 16 17  2  0
 16 18  1  0
 15 19  1  0
 19 20  1  0
 20 21  2  0
 20 22  1  0
 22 23  1  0
 23 24  1  0
 24 25  1  0
 25 26  1  1
 25 14  1  0
 23 19  1  0
 12 27  1  0
 12 28  1  0
 18 29  1  0
 22 30  1  6
 23 31  1  6
 25 32  1  0
  7 22  1  0
M  ISO  5   9  14  10  14  11  14  13   8  26  15
M  END
>  <DihAtoms>  (1) 
0,6,21,19

>  <DihDeg>  (1) 
-59.99983712908399

$$$$
