
     RDKit          3D

 39 42  0  0  0  0  0  0  0  0999 V2000
   45.3708   36.0642   43.1917 C   0  0  0  0  0  0  0  0  0  0  0  0
   46.1171   34.8774   43.0623 C   0  0  0  0  0  0  0  0  0  0  0  0
   46.0835   34.0502   44.1889 C   0  0  0  0  0  0  0  0  0  0  0  0
   45.3934   34.3681   45.2969 N   0  0  0  0  0  0  0  0  0  0  0  0
   44.6885   35.5306   45.3646 C   0  0  0  0  0  0  0  0  0  0  0  0
   44.6818   36.3732   44.3095 N   0  0  0  0  0  0  0  0  0  0  0  0
   46.8021   32.8596   44.1530 C   0  0  0  0  0  0  0  0  0  0  0  0
   47.8103   32.3512   43.3678 C   0  0  0  0  0  0  0  0  0  0  0  0
   48.3518   31.1675   43.5114 C   0  0  0  0  0  0  0  0  0  0  0  0
   47.8459   30.4031   44.5419 C   0  0  0  0  0  0  0  0  0  0  0  0
   46.5455   31.5135   45.2751 S   0  0  0  0  0  0  0  0  0  0  0  0
   46.7987   34.5924   41.8592 C   0  0  0  0  0  0  0  0  0  0  0  0
   47.8395   35.3250   41.6679 O   0  0  0  0  0  0  0  0  0  0  0  0
   45.3716   36.7357   42.3374 H   0  0  0  0  0  0  0  0  0  0  0  0
   44.1522   35.7358   46.2783 H   0  0  0  0  0  0  0  0  0  0  0  0
   48.3275   32.8409   42.5578 H   0  0  0  0  0  0  0  0  0  0  0  0
   49.1028   30.5478   43.0754 H   0  0  0  0  0  0  0  0  0  0  0  0
   47.9294   29.4508   45.0429 H   0  0  0  0  0  0  0  0  0  0  0  0
   46.7742   29.5273   37.3563 C   0  0  0  0  0  0  0  0  0  0  0  0
   46.7958   29.8254   36.2681 H   0  0  0  0  0  0  0  0  0  0  0  0
   46.8515   30.7475   38.1741 C   0  0  0  0  0  0  0  0  0  0  0  0
   46.4346   30.5726   39.3956 C   0  0  0  0  0  0  0  0  0  0  0  0
   45.9638   29.2476   39.7828 C   0  0  0  0  0  0  0  0  0  0  0  0
   45.5296   28.9430   40.9461 O   0  0  0  0  0  0  0  0  0  0  0  0
   45.5759   27.9421   39.9138 O   0  0  0  0  0  0  0  0  0  0  0  0
   46.4096   31.5956   40.3832 N   0  0  0  0  0  0  0  0  0  0  0  0
   45.8660   32.2798   41.5091 C   0  0  0  0  0  0  0  0  0  0  0  0
   45.2726   31.8478   42.5279 O   0  0  0  0  0  0  0  0  0  0  0  0
   46.3196   33.5234   40.8935 C   0  0  2  0  0  0  0  0  0  0  0  0
   47.4382   32.6095   40.4297 C   0  0  2  0  0  0  0  0  0  0  0  0
   48.0576   33.1158   38.8441 S   0  0  0  0  0  0  0  0  0  0  0  0
   47.3509   32.0071   37.6325 C   0  0  1  0  0  0  0  0  0  0  0  0
   48.1554   31.7582   36.8929 H   0  0  0  0  0  0  0  0  0  0  0  0
   47.6652   28.8684   37.5289 H   0  0  0  0  0  0  0  0  0  0  0  0
   45.8110   28.9795   37.4649 H   0  0  0  0  0  0  0  0  0  0  0  0
   45.6723   27.2669   39.1415 H   0  0  0  0  0  0  0  0  0  0  0  0
   45.7599   33.8767   40.0394 H   0  0  0  0  0  0  0  0  0  0  0  0
   48.2136   32.3553   41.1434 H   0  0  0  0  0  0  0  0  0  0  0  0
   46.5742   32.5203   37.0123 H   0  0  0  0  0  0  0  0  0  0  0  0
  1  6  2  0
  2  1  1  0
  2  3  2  0
  3  4  1  0
  4  5  2  0
  6  5  1  0
  7  3  1  0
  7 11  1  0
  8  9  1  0
  8  7  2  0
  9 10  2  0
 10 11  1  0
 12  2  1  0
 13 12  2  0
  1 14  1  0
  5 15  1  0
  8 16  1  0
  9 17  1  0
 10 18  1  0
 19 20  1  0
 19 21  1  0
 21 22  2  0
 22 23  1  0
 23 24  2  0
 23 25  1  0
 22 26  1  0
 26 27  1  0
 27 28  2  0
 27 29  1  0
 29 30  1  0
 30 31  1  0
 31 32  1  0
 32 33  1  6
 32 21  1  0
 30 26  1  0
 19 34  1  0
 19 35  1  0
 25 36  1  0
 29 37  1  6
 30 38  1  1
 32 39  1  0
 12 29  1  0
M  ISO  7  14  14  15  14  16  14  17  14  18  14  20   8  33  15
M  END
>  <DihAtoms>  (1) 
1,11,28,26

>  <DihDeg>  (1) 
-177.27013985963197

$$$$
