
 OpenBabel03242519543D

 47 50  0  0  1  0  0  0  0  0999 V2000
   47.1830   34.0320   42.5100 C   0  0  2  0  0  0  0  0  0  0  0  0
   48.5780   34.5050   42.6560 C   0  0  0  0  0  0  0  0  0  0  0  0
   48.9300   35.5710   41.6740 C   0  0  0  0  0  0  0  0  0  0  0  0
   48.6680   35.1850   40.2430 C   0  0  0  0  0  0  0  0  0  0  0  0
   47.4480   34.3420   40.0460 C   0  0  2  0  0  0  0  0  0  0  0  0
   46.5170   34.4270   41.2380 C   0  0  0  0  0  0  0  0  0  0  0  0
   47.2480   32.8970   42.5320 H   0  0  0  0  0  0  0  0  0  0  0  0
   49.3460   33.7080   42.6070 H   0  0  0  0  0  0  0  0  0  0  0  0
   48.6770   34.9550   43.6710 H   0  0  0  0  0  0  0  0  0  0  0  0
   50.0410   35.7320   41.7670 H   0  0  0  0  0  0  0  0  0  0  0  0
   48.4750   36.5320   41.9650 H   0  0  0  0  0  0  0  0  0  0  0  0
   48.6160   36.1500   39.6610 H   0  0  0  0  0  0  0  0  0  0  0  0
   49.5770   34.6760   39.8300 H   0  0  0  0  0  0  0  0  0  0  0  0
   46.8950   34.7770   39.1820 H   0  0  0  0  0  0  0  0  0  0  0  0
   46.0210   35.3760   41.1670 H   0  0  0  0  0  0  0  0  0  0  0  0
   45.7070   33.6500   41.0710 H   0  0  0  0  0  0  0  0  0  0  0  0
   46.3170   34.3810   43.6470 C   0  0  0  0  0  0  0  0  0  0  0  0
   45.5190   35.5000   43.4220 C   0  0  0  0  0  0  0  0  0  0  0  0
   44.6320   35.9330   44.4130 C   0  0  0  0  0  0  0  0  0  0  0  0
   44.6160   35.1920   45.5810 N   0  0  0  0  0  0  0  0  0  0  0  0
   45.4070   34.1160   45.7580 C   0  0  0  0  0  0  0  0  0  0  0  0
   46.2430   33.7240   44.7940 N   0  0  0  0  0  0  0  0  0  0  0  0
   45.3720   36.2150   42.6270 H   0  0  0  0  0  0  0  0  0  0  0  0
   43.9430   36.7450   44.4520 H   0  0  0  0  0  0  0  0  0  0  0  0
   45.3570   33.5690   46.6930 H   0  0  0  0  0  0  0  0  0  0  0  0
   47.8410   32.9610   39.7060 C   0  0  0  0  0  0  0  0  0  0  0  0
   48.5470   32.5730   40.4680 H   0  0  0  0  0  0  0  0  0  0  0  0
   48.4500   33.0060   38.7640 H   0  0  0  0  0  0  0  0  0  0  0  0
   46.7670   31.9730   39.5280 C   0  0  0  0  0  0  0  0  0  0  0  0
   47.1890   30.9560   39.6560 H   0  0  0  0  0  0  0  0  0  0  0  0
   46.0040   32.0970   40.3230 H   0  0  0  0  0  0  0  0  0  0  0  0
   43.1060   29.0930   38.9700 C   0  0  0  0  0  0  0  0  0  0  0  0
   42.9730   30.3460   38.5870 C   0  0  0  0  0  0  0  0  0  0  0  0
   44.0760   31.1770   38.3880 N   0  0  0  0  0  0  0  0  0  0  0  0
   44.6490   32.4520   38.4700 C   0  0  0  0  0  0  0  0  0  0  0  0
   44.2340   33.6400   38.6740 O   0  0  0  0  0  0  0  0  0  0  0  0
   46.0430   31.9780   38.2210 C   0  0  2  0  0  3  0  0  0  0  0  0
   45.3250   30.7050   37.8520 C   0  0  1  0  0  3  0  0  0  0  0  0
   45.8480   29.2510   38.7650 S   0  0  0  0  0  0  0  0  0  0  0  0
   44.3670   28.3690   39.2500 C   0  0  0  0  0  3  0  0  0  0  0  0
   44.3350   27.4370   38.6120 H   0  0  0  0  0  0  0  0  0  0  0  0
   41.9170   28.2380   39.1710 C   0  0  0  0  0  2  0  0  0  0  0  0
   41.0160   28.5940   38.6260 H   0  0  0  0  0  0  0  0  0  0  0  0
   41.6350   30.8750   38.3660 C   0  0  0  0  0  0  0  0  0  0  0  0
   41.3780   31.7920   37.5460 O   0  0  0  0  0  0  0  0  0  0  0  0
   40.2970   31.1460   38.3900 O   0  0  0  0  0  0  0  0  0  0  0  0
   39.7740   31.0290   39.2480 H   0  0  0  0  0  0  0  0  0  0  0  0
  1  7  1  6  0  0  0
  1  2  1  0  0  0  0
  1 17  1  0  0  0  0
  2  9  1  0  0  0  0
  3 10  1  0  0  0  0
  3 11  1  0  0  0  0
  3  2  1  0  0  0  0
  4  3  1  0  0  0  0
  5 14  1  6  0  0  0
  5  4  1  0  0  0  0
  5  6  1  0  0  0  0
  6  1  1  0  0  0  0
  8  2  1  0  0  0  0
 12  4  1  0  0  0  0
 13  4  1  0  0  0  0
 15  6  1  0  0  0  0
 16  6  1  0  0  0  0
 17 22  1  0  0  0  0
 18 17  2  0  0  0  0
 18 19  1  0  0  0  0
 19 24  1  0  0  0  0
 19 20  2  0  0  0  0
 20 21  1  0  0  0  0
 21 25  1  0  0  0  0
 22 21  2  0  0  0  0
 23 18  1  0  0  0  0
 26  5  1  0  0  0  0
 26 27  1  0  0  0  0
 28 26  1  0  0  0  0
 29 30  1  0  0  0  0
 29 26  1  0  0  0  0
 29 31  1  0  0  0  0
 32 42  1  0  0  0  0
 32 40  1  0  0  0  0
 33 32  2  0  0  0  0
 34 35  1  0  0  0  0
 34 33  1  0  0  0  0
 35 36  2  0  0  0  0
 37 35  1  0  0  0  0
 37 29  1  1  0  0  0
 38 37  1  0  0  0  0
 38 34  1  0  0  0  0
 38 39  1  1  0  0  0
 39 40  1  0  0  0  0
 41 40  1  0  0  0  0
 43 42  1  0  0  0  0
 44 46  1  0  0  0  0
 44 33  1  0  0  0  0
 45 44  2  0  0  0  0
 46 47  1  0  0  0  0
M  END
>  <minimizedAffinity>
-5.20548868

>  <minimizedRMSD>
1.22422004

$$$$
