REMARK  Name = 
REMARK  9 active torsions:
REMARK  status: ('A' for Active; 'I' for Inactive)
REMARK    1  A    between atoms: C_2  and  O_7
REMARK    2  A    between atoms: O_7  and  P_9
REMARK    3  A    between atoms: P_9  and  O_10
REMARK    4  A    between atoms: P_9  and  O_11
REMARK    5  A    between atoms: O_11  and  C_12
REMARK    6  A    between atoms: C_12  and  C_28
REMARK    7  A    between atoms: C_18  and  C_20
REMARK    8  A    between atoms: C_21  and  C_22
REMARK    9  A    between atoms: C_22  and  O_24
REMARK                            x       y       z     vdW  Elec       q    Type
REMARK                         _______ _______ _______ _____ _____    ______ ____
ROOT
ATOM      1  C   UNL     1      48.069  34.374  39.368  0.00  0.00    +0.000 C 
ATOM      2  O   UNL     1      46.945  33.762  39.502  0.00  0.00    +0.000 OA
ENDROOT
BRANCH   1   8
ATOM      3  C   UNL     1      48.112  29.941  39.583  0.00  0.00    +0.000 C 
ATOM      4  C   UNL     1      48.478  30.387  38.394  0.00  0.00    +0.000 C 
ATOM      5  N   UNL     1      48.242  31.740  38.026  0.00  0.00    +0.000 N 
ATOM      6  C   UNL     1      48.842  32.929  37.459  0.00  0.00    +0.000 C 
ATOM      7  O   UNL     1      49.859  33.198  36.732  0.00  0.00    +0.000 OA
ATOM      8  C   UNL     1      47.763  33.683  38.093  0.00  0.00    +0.000 C 
ATOM      9  C   UNL     1      46.967  32.413  38.186  0.00  0.00    +0.000 C 
ATOM     10  S   UNL     1      46.310  32.003  39.798  0.00  0.00    +0.000 S 
ATOM     11  C   UNL     1      47.464  30.840  40.574  0.00  0.00    +0.000 C 
ATOM     12  H   UNL     1      48.252  31.487  41.055  0.00  0.00    +0.000 HD
BRANCH   3  13
ATOM     13  C   UNL     1      48.369  28.542  39.900  0.00  0.00    +0.000 C 
ATOM     14  H   UNL     1      48.002  28.345  40.948  0.00  0.00    +0.000 HD
ENDBRANCH   3  13
BRANCH   4  15
ATOM     15  C   UNL     1      49.126  29.477  37.436  0.00  0.00    +0.000 C 
ATOM     16  O   UNL     1      49.378  28.266  37.642  0.00  0.00    +0.000 OA
BRANCH  15  17
ATOM     17  O   UNL     1      49.565  29.770  36.178  0.00  0.00    +0.000 OA
ATOM     18  H   UNL     1      50.519  29.581  35.899  0.00  0.00    +0.000 HD
ENDBRANCH  15  17
ENDBRANCH   4  15
ENDBRANCH   1   8
BRANCH   1  19
ATOM     19  O   UNL     1      48.408  35.030  40.507  0.00  0.00    +0.000 OA
BRANCH  19  21
ATOM     20  O   UNL     1      49.549  35.367  42.782  0.00  0.00    +0.000 OA
ATOM     21  P   UNL     1      48.972  34.300  41.899  0.00  0.00    +0.000 P 
BRANCH  21  22
ATOM     22  O   UNL     1      50.226  33.251  41.513  0.00  0.00    +0.000 OA
ATOM     23  H   UNL     1      49.901  32.416  41.085  0.00  0.00    +0.000 HD
ENDBRANCH  21  22
BRANCH  21  24
ATOM     24  O   UNL     1      47.706  33.473  42.697  0.00  0.00    +0.000 OA
BRANCH  24  26
ATOM     25  C   UNL     1      46.129  35.286  42.691  0.00  0.00    +0.000 A 
ATOM     26  C   UNL     1      46.689  34.178  43.350  0.00  0.00    +0.000 A 
ATOM     27  C   UNL     1      46.205  33.842  44.609  0.00  0.00    +0.000 A 
ATOM     28  N   UNL     1      45.214  34.591  45.155  0.00  0.00    +0.000 NA
ATOM     29  C   UNL     1      44.697  35.652  44.495  0.00  0.00    +0.000 A 
ATOM     30  N   UNL     1      45.157  35.983  43.282  0.00  0.00    +0.000 NA
ATOM     31  H   UNL     1      46.438  35.627  41.710  0.00  0.00    +0.000 HD
ATOM     32  H   UNL     1      46.677  32.984  45.056  0.00  0.00    +0.000 HD
ATOM     33  H   UNL     1      43.916  36.145  45.062  0.00  0.00    +0.000 HD
ENDBRANCH  24  26
ENDBRANCH  21  24
ENDBRANCH  19  21
ENDBRANCH   1  19
TORSDOF 9
