REMARK  Name = 
REMARK  10 active torsions:
REMARK  status: ('A' for Active; 'I' for Inactive)
REMARK    1  A    between atoms: P_2  and  O_3
REMARK    2  A    between atoms: P_2  and  O_10
REMARK    3  A    between atoms: P_2  and  O_13
REMARK    4  A    between atoms: O_3  and  C_6
REMARK    5  A    between atoms: O_10  and  C_11
REMARK    6  A    between atoms: C_11  and  C_31
REMARK    7  A    between atoms: O_13  and  C_14
REMARK    8  A    between atoms: C_21  and  C_23
REMARK    9  A    between atoms: C_24  and  C_25
REMARK   10  A    between atoms: C_25  and  O_27
REMARK                            x       y       z     vdW  Elec       q    Type
REMARK                         _______ _______ _______ _____ _____    ______ ____
ROOT
ATOM      1  O   UNL     1      47.191  33.934  39.676  0.00  0.00    +0.000 OA
ENDROOT
BRANCH   1   3
ATOM      2  O   UNL     1      48.086  32.908  41.903  0.00  0.00    +0.000 OA
ATOM      3  P   UNL     1      47.202  34.022  41.333  0.00  0.00    +0.000 P 
BRANCH   3   4
ATOM      4  O   UNL     1      45.605  33.817  41.920  0.00  0.00    +0.000 OA
BRANCH   4   7
ATOM      5  C   UNL     1      44.353  35.920  44.623  0.00  0.00    +0.000 A 
ATOM      6  C   UNL     1      44.662  35.457  43.323  0.00  0.00    +0.000 A 
ATOM      7  C   UNL     1      45.321  34.231  43.204  0.00  0.00    +0.000 A 
ATOM      8  N   UNL     1      45.631  33.548  44.328  0.00  0.00    +0.000 NA
ATOM      9  C   UNL     1      45.326  34.010  45.561  0.00  0.00    +0.000 A 
ATOM     10  N   UNL     1      44.695  35.180  45.722  0.00  0.00    +0.000 NA
ATOM     11  H   UNL     1      43.846  36.860  44.754  0.00  0.00    +0.000 HD
ATOM     12  H   UNL     1      44.364  36.089  42.523  0.00  0.00    +0.000 HD
ATOM     13  H   UNL     1      45.630  33.366  46.375  0.00  0.00    +0.000 HD
ENDBRANCH   4   7
ENDBRANCH   3   4
BRANCH   3  14
ATOM     14  O   UNL     1      47.791  35.458  41.907  0.00  0.00    +0.000 OA
BRANCH  14  15
ATOM     15  C   UNL     1      49.045  35.770  41.405  0.00  0.00    +0.000 C 
ATOM     16  F   UNL     1      49.450  37.058  41.725  0.00  0.00    +0.000 F 
ATOM     17  F   UNL     1      49.951  34.830  41.780  0.00  0.00    +0.000 F 
ATOM     18  F   UNL     1      48.925  35.744  40.022  0.00  0.00    +0.000 F 
ENDBRANCH  14  15
ENDBRANCH   3  14
ENDBRANCH   1   3
BRANCH   1  19
ATOM     19  C   UNL     1      46.533  33.041  38.872  0.00  0.00    +0.000 C 
ATOM     20  O   UNL     1      45.900  33.493  37.802  0.00  0.00    +0.000 OA
BRANCH  19  26
ATOM     21  C   UNL     1      44.908  28.991  35.915  0.00  0.00    +0.000 C 
ATOM     22  C   UNL     1      45.928  28.892  36.727  0.00  0.00    +0.000 C 
ATOM     23  N   UNL     1      46.371  30.019  37.468  0.00  0.00    +0.000 N 
ATOM     24  C   UNL     1      46.877  30.591  38.662  0.00  0.00    +0.000 C 
ATOM     25  O   UNL     1      47.717  30.080  39.472  0.00  0.00    +0.000 OA
ATOM     26  C   UNL     1      46.003  31.780  38.343  0.00  0.00    +0.000 C 
ATOM     27  C   UNL     1      46.417  31.361  36.959  0.00  0.00    +0.000 C 
ATOM     28  S   UNL     1      45.241  31.693  35.654  0.00  0.00    +0.000 S 
ATOM     29  C   UNL     1      44.183  30.246  35.739  0.00  0.00    +0.000 C 
ATOM     30  H   UNL     1      43.531  30.392  36.650  0.00  0.00    +0.000 HD
BRANCH  21  31
ATOM     31  C   UNL     1      44.475  27.818  35.160  0.00  0.00    +0.000 C 
ATOM     32  H   UNL     1      43.569  27.998  34.540  0.00  0.00    +0.000 HD
ENDBRANCH  21  31
BRANCH  22  33
ATOM     33  C   UNL     1      46.644  27.634  36.900  0.00  0.00    +0.000 C 
ATOM     34  O   UNL     1      46.412  26.555  36.344  0.00  0.00    +0.000 OA
BRANCH  33  35
ATOM     35  O   UNL     1      47.730  27.426  37.732  0.00  0.00    +0.000 OA
ATOM     36  H   UNL     1      47.855  26.644  38.338  0.00  0.00    +0.000 HD
ENDBRANCH  33  35
ENDBRANCH  22  33
ENDBRANCH  19  26
ENDBRANCH   1  19
TORSDOF 10
