REMARK  Name = 
REMARK  5 active torsions:
REMARK  status: ('A' for Active; 'I' for Inactive)
REMARK    1  A    between atoms: C_3  and  N_9
REMARK    2  A    between atoms: C_7  and  C_24
REMARK    3  A    between atoms: C_14  and  C_16
REMARK    4  A    between atoms: C_17  and  C_18
REMARK    5  A    between atoms: C_18  and  O_20
REMARK                            x       y       z     vdW  Elec       q    Type
REMARK                         _______ _______ _______ _____ _____    ______ ____
ROOT
ATOM      1  C   UNL     1      49.410  30.586  39.501  0.00  0.00    +0.000 C 
ATOM      2  C   UNL     1      49.859  31.829  39.464  0.00  0.00    +0.000 C 
ATOM      3  N   UNL     1      48.967  32.926  39.586  0.00  0.00    +0.000 N 
ATOM      4  C   UNL     1      48.700  34.223  40.067  0.00  0.00    +0.000 C 
ATOM      5  O   UNL     1      49.359  35.140  40.659  0.00  0.00    +0.000 OA
ATOM      6  C   UNL     1      47.277  34.210  39.637  0.00  0.00    +0.000 C 
ATOM      7  C   UNL     1      47.632  32.910  39.011  0.00  0.00    +0.000 C 
ATOM      8  S   UNL     1      46.804  31.457  39.704  0.00  0.00    +0.000 S 
ATOM      9  C   UNL     1      48.010  30.132  39.672  0.00  0.00    +0.000 C 
ATOM     10  H   UNL     1      47.943  29.465  40.568  0.00  0.00    +0.000 HD
ENDROOT
BRANCH   6  11
ATOM     11  C   UNL     1      46.377  34.201  40.789  0.00  0.00    +0.000 C 
ATOM     12  O   UNL     1      45.227  33.716  40.934  0.00  0.00    +0.000 OA
ATOM     13  N   UNL     1      46.893  34.857  41.952  0.00  0.00    +0.000 N 
ATOM     14  H   UNL     1      47.837  35.308  42.021  0.00  0.00    +0.000 HD
BRANCH  13  17
ATOM     15  C   UNL     1      44.538  36.046  44.566  0.00  0.00    +0.000 A 
ATOM     16  C   UNL     1      45.256  36.007  43.361  0.00  0.00    +0.000 A 
ATOM     17  C   UNL     1      46.137  34.953  43.153  0.00  0.00    +0.000 A 
ATOM     18  N   UNL     1      46.276  34.010  44.101  0.00  0.00    +0.000 NA
ATOM     19  C   UNL     1      45.568  34.066  45.270  0.00  0.00    +0.000 A 
ATOM     20  N   UNL     1      44.712  35.084  45.480  0.00  0.00    +0.000 NA
ATOM     21  H   UNL     1      43.877  36.904  44.637  0.00  0.00    +0.000 HD
ATOM     22  H   UNL     1      45.177  36.742  42.569  0.00  0.00    +0.000 HD
ATOM     23  H   UNL     1      45.690  33.288  46.039  0.00  0.00    +0.000 HD
ENDBRANCH  13  17
ENDBRANCH   6  11
BRANCH   1  24
ATOM     24  C   UNL     1      50.450  29.537  39.358  0.00  0.00    +0.000 C 
ATOM     25  H   UNL     1      50.925  29.726  38.351  0.00  0.00    +0.000 HD
ENDBRANCH   1  24
BRANCH   2  26
ATOM     26  C   UNL     1      51.281  32.129  39.294  0.00  0.00    +0.000 C 
ATOM     27  O   UNL     1      51.739  33.298  39.256  0.00  0.00    +0.000 OA
BRANCH  26  28
ATOM     28  O   UNL     1      52.407  31.340  39.144  0.00  0.00    +0.000 OA
ATOM     29  H   UNL     1      53.095  31.350  39.880  0.00  0.00    +0.000 HD
ENDBRANCH  26  28
ENDBRANCH   2  26
TORSDOF 5
