
     RDKit          3D

 39 42  0  0  0  0  0  0  0  0999 V2000
   45.3708   36.0642   43.1917 C   0  0  0  0  0  0  0  0  0  0  0  0
   46.1171   34.8774   43.0623 C   0  0  0  0  0  0  0  0  0  0  0  0
   46.0835   34.0502   44.1889 C   0  0  0  0  0  0  0  0  0  0  0  0
   45.3934   34.3681   45.2969 N   0  0  0  0  0  0  0  0  0  0  0  0
   44.6885   35.5306   45.3646 C   0  0  0  0  0  0  0  0  0  0  0  0
   44.6818   36.3732   44.3095 N   0  0  0  0  0  0  0  0  0  0  0  0
   46.8021   32.8596   44.1530 C   0  0  0  0  0  0  0  0  0  0  0  0
   47.8103   32.3512   43.3678 C   0  0  0  0  0  0  0  0  0  0  0  0
   48.3518   31.1675   43.5114 C   0  0  0  0  0  0  0  0  0  0  0  0
   47.8459   30.4031   44.5419 C   0  0  0  0  0  0  0  0  0  0  0  0
   46.5455   31.5135   45.2751 S   0  0  0  0  0  0  0  0  0  0  0  0
   46.7987   34.5924   41.8592 C   0  0  0  0  0  0  0  0  0  0  0  0
   47.8395   35.3250   41.6679 O   0  0  0  0  0  0  0  0  0  0  0  0
   45.3716   36.7357   42.3374 H   0  0  0  0  0  0  0  0  0  0  0  0
   44.1522   35.7358   46.2783 H   0  0  0  0  0  0  0  0  0  0  0  0
   48.3275   32.8409   42.5578 H   0  0  0  0  0  0  0  0  0  0  0  0
   49.1028   30.5478   43.0754 H   0  0  0  0  0  0  0  0  0  0  0  0
   47.9294   29.4508   45.0429 H   0  0  0  0  0  0  0  0  0  0  0  0
   43.7188   29.1075   39.3368 C   0  0  0  0  0  0  0  0  0  0  0  0
   44.3107   28.1470   39.3589 H   0  0  0  0  0  0  0  0  0  0  0  0
   44.5182   30.1610   39.9810 C   0  0  0  0  0  0  0  0  0  0  0  0
   44.1326   31.3635   39.6621 C   0  0  0  0  0  0  0  0  0  0  0  0
   43.0067   31.5090   38.7466 C   0  0  0  0  0  0  0  0  0  0  0  0
   42.5305   32.6288   38.3540 O   0  0  0  0  0  0  0  0  0  0  0  0
   41.9479   31.3991   37.8870 O   0  0  0  0  0  0  0  0  0  0  0  0
   44.7410   32.5517   40.1526 N   0  0  0  0  0  0  0  0  0  0  0  0
   45.1890   33.9008   40.0506 C   0  0  0  0  0  0  0  0  0  0  0  0
   44.7006   34.8876   39.4467 O   0  0  0  0  0  0  0  0  0  0  0  0
   46.3196   33.5234   40.8935 C   0  0  2  0  0  0  0  0  0  0  0  0
   45.2625   32.6189   41.4986 C   0  0  2  0  0  0  0  0  0  0  0  0
   45.9825   31.1090   42.0950 S   0  0  0  0  0  0  0  0  0  0  0  0
   45.6239   29.8474   40.8800 C   0  0  1  0  0  0  0  0  0  0  0  0
   45.3501   28.9127   41.4345 H   0  0  0  0  0  0  0  0  0  0  0  0
   42.7705   28.9162   39.9043 H   0  0  0  0  0  0  0  0  0  0  0  0
   43.5387   29.2862   38.2527 H   0  0  0  0  0  0  0  0  0  0  0  0
   41.5555   30.4836   37.6231 H   0  0  0  0  0  0  0  0  0  0  0  0
   47.0918   32.9240   40.4331 H   0  0  0  0  0  0  0  0  0  0  0  0
   44.5456   33.0629   42.1800 H   0  0  0  0  0  0  0  0  0  0  0  0
   46.5415   29.5553   40.3107 H   0  0  0  0  0  0  0  0  0  0  0  0
  1  6  2  0
  2  1  1  0
  2  3  2  0
  3  4  1  0
  4  5  2  0
  6  5  1  0
  7  3  1  0
  7 11  1  0
  8  9  1  0
  8  7  2  0
  9 10  2  0
 10 11  1  0
 12  2  1  0
 13 12  2  0
  1 14  1  0
  5 15  1  0
  8 16  1  0
  9 17  1  0
 10 18  1  0
 19 20  1  0
 19 21  1  0
 21 22  2  0
 22 23  1  0
 23 24  2  0
 23 25  1  0
 22 26  1  0
 26 27  1  0
 27 28  2  0
 27 29  1  0
 29 30  1  0
 30 31  1  0
 31 32  1  0
 32 33  1  1
 32 21  1  0
 30 26  1  0
 19 34  1  0
 19 35  1  0
 25 36  1  0
 29 37  1  6
 30 38  1  1
 32 39  1  0
 12 29  1  0
M  ISO  7  14  14  15  14  16  14  17  14  18  14  20   8  33  15
M  END
>  <DihAtoms>  (1) 
1,11,28,26

>  <DihDeg>  (1) 
-177.27013985963197

$$$$
