
     RDKit          3D

 35 37  0  0  0  0  0  0  0  0999 V2000
   45.5311   34.0335   45.5854 C   0  0  0  0  0  0  0  0  0  0  0  0
   46.2376   33.8999   44.3812 C   0  0  0  0  0  0  0  0  0  0  0  0
   47.0849   32.7898   44.2331 C   0  0  0  0  0  0  0  0  0  0  0  0
   47.1620   31.9128   45.2788 N   0  0  0  0  0  0  0  0  0  0  0  0
   46.4701   32.0805   46.4077 C   0  0  0  0  0  0  0  0  0  0  0  0
   45.6694   33.1259   46.5524 N   0  0  0  0  0  0  0  0  0  0  0  0
   44.7245   35.1172   45.6895 O   0  0  0  0  0  0  0  0  0  0  0  0
   44.3892   35.9542   44.6312 C   0  0  0  0  0  0  0  0  0  0  0  0
   45.0208   37.0229   44.3092 O   0  0  0  0  0  0  0  0  0  0  0  0
   43.2876   35.7404   43.7484 N   0  0  0  0  0  0  0  0  0  0  0  0
   46.2082   34.5628   43.5341 H   0  0  0  0  0  0  0  0  0  0  0  0
   47.6706   32.5942   43.3505 H   0  0  0  0  0  0  0  0  0  0  0  0
   43.2630   35.5358   42.7111 H   0  0  0  0  0  0  0  0  0  0  0  0
   42.2421   35.6704   43.5876 H   0  0  0  0  0  0  0  0  0  0  0  0
   46.5984   31.0787   47.5229 C   0  0  0  0  0  0  0  0  0  0  0  0
   47.9159   30.4386   47.5622 C   0  0  0  0  0  0  0  0  0  0  0  0
   47.9225   29.1272   47.4145 C   0  0  0  0  0  0  0  0  0  0  0  0
   46.6984   28.3529   47.2233 C   0  0  0  0  0  0  0  0  0  0  0  0
   46.6684   27.0970   47.0838 O   0  0  0  0  0  0  0  0  0  0  0  0
   45.3662   28.0559   47.0746 O   0  0  0  0  0  0  0  0  0  0  0  0
   49.1346   28.4082   47.4335 N   0  0  0  0  0  0  0  0  0  0  0  0
   49.9042   27.2452   47.8072 C   0  0  0  0  0  0  0  0  0  0  0  0
   49.5713   26.0467   47.8842 O   0  0  0  0  0  0  0  0  0  0  0  0
   51.0481   28.2094   47.9853 C   0  0  1  0  0  0  0  0  0  0  0  0
   50.9440   28.7858   48.9291 H   0  0  0  0  0  0  0  0  0  0  0  0
   50.3577   28.9031   46.8308 C   0  0  2  0  0  0  0  0  0  0  0  0
   50.4605   30.6818   46.8009 S   0  0  0  0  0  0  0  0  0  0  0  0
   49.0873   31.3073   47.7655 C   0  0  1  0  0  0  0  0  0  0  0  0
   48.8517   32.3250   47.3579 H   0  0  0  0  0  0  0  0  0  0  0  0
   45.7368   30.4131   47.4688 H   0  0  0  0  0  0  0  0  0  0  0  0
   46.4911   31.6119   48.5155 H   0  0  0  0  0  0  0  0  0  0  0  0
   44.8466   28.5214   46.3306 H   0  0  0  0  0  0  0  0  0  0  0  0
   52.0378   27.7882   47.7939 H   0  0  0  0  0  0  0  0  0  0  0  0
   50.6301   28.4493   45.8717 H   0  0  0  0  0  0  0  0  0  0  0  0
   49.3960   31.3739   48.8288 H   0  0  0  0  0  0  0  0  0  0  0  0
  1  7  1  0
  1  6  2  0
  2  1  1  0
  3  2  2  0
  3  4  1  0
  4  5  2  0
  5  6  1  0
  8  7  1  0
  9  8  2  0
 10  8  1  0
  2 11  1  0
  3 12  1  0
 10 13  1  0
 10 14  1  0
 15 16  1  0
 16 17  2  0
 17 18  1  0
 18 19  2  0
 18 20  1  0
 17 21  1  0
 21 22  1  0
 22 23  2  0
 22 24  1  0
 24 25  1  1
 24 26  1  0
 26 27  1  0
 27 28  1  0
 28 29  1  6
 28 16  1  0
 26 21  1  0
 15 30  1  0
 15 31  1  0
 20 32  1  0
 24 33  1  0
 26 34  1  6
 28 35  1  0
  5 15  1  0
M  ISO  4  11  14  12  14  25  15  29  15
M  END
>  <DihAtoms>  (1) 
3,4,14,15

>  <DihDeg>  (1) 
90.02617900482592

$$$$
