
 OpenBabel03252503353D

 29 31  0  0  1  0  0  0  0  0999 V2000
   46.7870   31.1590   36.8810 C   0  0  0  0  0  0  0  0  0  0  0  0
   47.9790   31.3890   37.4060 C   0  0  0  0  0  0  0  0  0  0  0  0
   48.1430   32.3430   38.4430 N   0  0  0  0  0  0  0  0  0  0  0  0
   48.7800   32.7390   39.6370 C   0  0  0  0  0  0  0  0  0  0  0  0
   49.7300   32.2980   40.3640 O   0  0  0  0  0  0  0  0  0  0  0  0
   47.9290   33.9450   39.8210 C   0  0  1  0  0  3  0  0  0  0  0  0
   47.3840   33.5830   38.4870 C   0  0  2  0  0  3  0  0  0  0  0  0
   45.6390   33.1030   38.4610 S   0  0  0  0  0  0  0  0  0  0  0  0
   45.4990   31.7920   37.2470 C   0  0  0  0  0  3  0  0  0  0  0  0
   44.7680   30.9980   37.5500 H   0  0  0  0  0  0  0  0  0  0  0  0
   47.0590   33.8040   40.9870 C   0  0  0  0  0  0  0  0  0  0  0  0
   46.2930   32.8720   41.3370 O   0  0  0  0  0  0  0  0  0  0  0  0
   47.0830   34.9190   41.8850 N   0  0  0  0  0  0  0  0  0  0  0  0
   47.6700   35.7790   41.7620 H   0  0  0  0  0  0  0  0  0  0  0  0
   44.5050   35.8620   44.3860 C   0  0  0  0  0  0  0  0  0  0  0  0
   45.2620   35.8820   43.2050 C   0  0  0  0  0  0  0  0  0  0  0  0
   46.2810   34.9500   43.0590 C   0  0  0  0  0  0  0  0  0  0  0  0
   46.5120   34.0630   44.0430 N   0  0  0  0  0  0  0  0  0  0  0  0
   45.7650   34.0600   45.1880 C   0  0  0  0  0  0  0  0  0  0  0  0
   44.7750   34.9600   45.3380 N   0  0  0  0  0  0  0  0  0  0  0  0
   43.7340   36.6260   44.4080 H   0  0  0  0  0  0  0  0  0  0  0  0
   45.1130   36.5760   42.3860 H   0  0  0  0  0  0  0  0  0  0  0  0
   45.9630   33.3290   45.9870 H   0  0  0  0  0  0  0  0  0  0  0  0
   46.7600   30.1400   35.8030 C   0  0  0  0  0  2  0  0  0  0  0  0
   47.4450   30.5410   34.9980 H   0  0  0  0  0  0  0  0  0  0  0  0
   49.1730   30.6790   36.9450 C   0  0  0  0  0  0  0  0  0  0  0  0
   49.9840   31.1610   36.1150 O   0  0  0  0  0  0  0  0  0  0  0  0
   49.7100   29.4370   37.2320 O   0  0  0  0  0  0  0  0  0  0  0  0
   50.5930   29.4020   37.7150 H   0  0  0  0  0  0  0  0  0  0  0  0
  1  9  1  0  0  0  0
  1  2  2  0  0  0  0
  2  3  1  0  0  0  0
  3  7  1  0  0  0  0
  3  4  1  0  0  0  0
  4  6  1  0  0  0  0
  4  5  2  0  0  0  0
  6 11  1  1  0  0  0
  7  8  1  1  0  0  0
  7  6  1  0  0  0  0
  9 10  1  0  0  0  0
  9  8  1  0  0  0  0
 11 12  2  0  0  0  0
 11 13  1  0  0  0  0
 13 17  1  0  0  0  0
 14 13  1  0  0  0  0
 15 21  1  0  0  0  0
 15 20  1  0  0  0  0
 16 15  2  0  0  0  0
 17 16  1  0  0  0  0
 17 18  2  0  0  0  0
 18 19  1  0  0  0  0
 19 20  2  0  0  0  0
 19 23  1  0  0  0  0
 22 16  1  0  0  0  0
 24  1  1  0  0  0  0
 25 24  1  0  0  0  0
 26 28  1  0  0  0  0
 26  2  1  0  0  0  0
 27 26  2  0  0  0  0
 28 29  1  0  0  0  0
M  END
>  <minimizedAffinity>
-4.54279375

>  <minimizedRMSD>
1.55009985

$$$$
