
 OpenBabel03242520003D

 37 40  0  0  1  0  0  0  0  0999 V2000
   44.6850   33.0900   41.2020 Br  0  0  0  0  0  0  0  0  0  0  0  0
   46.3370   34.0160   41.0290 C   0  0  0  0  0  0  0  0  0  0  0  0
   46.8790   34.7570   42.0640 C   0  0  0  0  0  0  0  0  0  0  0  0
   48.0860   35.4060   41.8440 C   0  0  0  0  0  0  0  0  0  0  0  0
   48.7530   35.3320   40.6370 C   0  0  0  0  0  0  0  0  0  0  0  0
   48.2150   34.5910   39.6010 C   0  0  0  0  0  0  0  0  0  0  0  0
   47.0080   33.9500   39.8380 C   0  0  0  0  0  0  0  0  0  0  0  0
   48.4850   35.9710   42.6510 H   0  0  0  0  0  0  0  0  0  0  0  0
   49.6950   35.8810   40.5720 H   0  0  0  0  0  0  0  0  0  0  0  0
   48.7530   34.5440   38.6550 H   0  0  0  0  0  0  0  0  0  0  0  0
   44.5180   35.7540   44.8450 C   0  0  0  0  0  0  0  0  0  0  0  0
   45.2030   35.7530   43.6210 C   0  0  0  0  0  0  0  0  0  0  0  0
   46.1450   34.7980   43.3170 C   0  0  0  0  0  0  0  0  0  0  0  0
   46.3490   33.8620   44.3030 N   0  0  0  0  0  0  0  0  0  0  0  0
   45.6910   33.8710   45.4670 C   0  0  0  0  0  0  0  0  0  0  0  0
   44.7890   34.7990   45.7410 N   0  0  0  0  0  0  0  0  0  0  0  0
   43.7800   36.4990   45.0890 H   0  0  0  0  0  0  0  0  0  0  0  0
   44.9820   36.5170   42.9140 H   0  0  0  0  0  0  0  0  0  0  0  0
   46.0170   33.0410   46.0850 H   0  0  0  0  0  0  0  0  0  0  0  0
   46.4790   33.1610   38.7470 C   0  0  1  0  0  3  0  0  0  0  0  0
   45.2610   33.3330   38.3700 O   0  0  0  0  0  1  0  0  0  0  0  0
   46.8030   29.4830   34.8130 C   0  0  0  0  0  0  0  0  0  0  0  0
   47.1260   30.7420   34.7470 C   0  0  0  0  0  0  0  0  0  0  0  0
   47.1270   31.5780   35.8710 N   0  0  0  0  0  0  0  0  0  0  0  0
   47.7130   32.6310   36.6470 C   0  0  0  0  0  0  0  0  0  0  0  0
   48.4780   33.6050   36.3320 O   0  0  0  0  0  0  0  0  0  0  0  0
   47.0730   32.1050   37.8820 C   0  0  2  0  0  3  0  0  0  0  0  0
   46.0910   31.4870   36.8830 C   0  0  2  0  0  3  0  0  0  0  0  0
   45.7980   29.7550   37.3570 S   0  0  0  0  0  0  0  0  0  0  0  0
   46.4040   28.7380   36.0130 C   0  0  0  0  0  3  0  0  0  0  0  0
   45.5420   28.0770   35.7020 H   0  0  0  0  0  0  0  0  0  0  0  0
   46.8540   28.7440   33.5260 C   0  0  0  0  0  2  0  0  0  0  0  0
   46.4440   29.3720   32.6920 H   0  0  0  0  0  0  0  0  0  0  0  0
   47.4940   31.2690   33.4390 C   0  0  0  0  0  0  0  0  0  0  0  0
   47.7300   32.5020   33.2170 O   0  0  0  0  0  0  0  0  0  0  0  0
   47.8220   31.5490   32.1420 O   0  0  0  0  0  0  0  0  0  0  0  0
   47.9150   30.8370   31.4090 H   0  0  0  0  0  0  0  0  0  0  0  0
  2  1  1  0  0  0  0
  2  3  1  0  0  0  0
  3 13  1  0  0  0  0
  4  3  2  0  0  0  0
  4  8  1  0  0  0  0
  5  4  1  0  0  0  0
  6  7  1  0  0  0  0
  6  5  2  0  0  0  0
  7  2  2  0  0  0  0
  9  5  1  0  0  0  0
 10  6  1  0  0  0  0
 11 17  1  0  0  0  0
 11 16  1  0  0  0  0
 12 11  2  0  0  0  0
 13 12  1  0  0  0  0
 13 14  2  0  0  0  0
 14 15  1  0  0  0  0
 15 16  2  0  0  0  0
 15 19  1  0  0  0  0
 18 12  1  0  0  0  0
 20 21  1  6  0  0  0
 20  7  1  0  0  0  0
 22 30  1  0  0  0  0
 23 22  2  0  0  0  0
 23 24  1  0  0  0  0
 24 25  1  0  0  0  0
 24 28  1  0  0  0  0
 25 27  1  0  0  0  0
 26 25  2  0  0  0  0
 27 20  1  1  0  0  0
 28 29  1  1  0  0  0
 28 27  1  0  0  0  0
 30 29  1  0  0  0  0
 31 30  1  0  0  0  0
 32 22  1  0  0  0  0
 33 32  1  0  0  0  0
 34 23  1  0  0  0  0
 35 34  2  0  0  0  0
 36 34  1  0  0  0  0
 37 36  1  0  0  0  0
M  END
>  <minimizedAffinity>
-6.62080669

>  <minimizedRMSD>
2.91092157

$$$$
