
 OpenBabel03242514333D

 33 36  0  0  1  0  0  0  0  0999 V2000
   47.8520   33.6040   39.8510 C   0  0  2  0  0  3  0  0  0  0  0  0
   46.5930   33.8330   39.9840 O   0  0  0  0  0  0  0  0  0  0  0  0
   50.3790   31.2430   37.0690 C   0  0  0  0  0  0  0  0  0  0  0  0
   49.1680   31.4590   36.5850 C   0  0  0  0  0  0  0  0  0  0  0  0
   48.1230   31.9220   37.4300 N   0  0  0  0  0  0  0  0  0  0  0  0
   47.0660   32.9000   37.5680 C   0  0  0  0  0  0  0  0  0  0  0  0
   46.3920   33.6550   36.7850 O   0  0  0  0  0  0  0  0  0  0  0  0
   47.1140   32.6370   39.0050 C   0  0  1  0  0  0  0  0  0  0  0  0
   47.7990   31.3320   38.7150 C   0  0  2  0  0  3  0  0  0  0  0  0
   49.3240   31.0220   39.5950 S   0  0  0  0  0  0  0  0  0  0  0  0
   50.6880   31.4970   38.5000 C   0  0  0  0  0  3  0  0  0  0  0  0
   50.8180   32.6060   38.6590 H   0  0  0  0  0  0  0  0  0  0  0  0
   51.4070   30.7580   36.1570 C   0  0  0  0  0  2  0  0  0  0  0  0
   52.3660   30.6410   36.7380 H   0  0  0  0  0  0  0  0  0  0  0  0
   48.8930   31.2080   35.1600 C   0  0  0  0  0  0  0  0  0  0  0  0
   48.9470   32.0670   34.2480 O   0  0  0  0  0  0  0  0  0  0  0  0
   48.5360   30.0280   34.5790 O   0  0  0  0  0  0  0  0  0  0  0  0
   47.7030   29.9560   34.0100 H   0  0  0  0  0  0  0  0  0  0  0  0
   48.5880   34.4610   40.6050 O   0  0  0  0  0  0  0  0  0  0  0  0
   49.4850   35.3940   42.8230 O   0  0  0  0  0  0  0  0  0  0  0  0
   49.2380   34.1020   42.1010 P   0  0  2  0  0  0  0  0  0  0  0  0
   50.7320   33.3600   41.8990 O   0  0  0  0  0  0  0  0  0  0  0  0
   50.6470   32.4180   41.5960 H   0  0  0  0  0  0  0  0  0  0  0  0
   48.1740   33.1030   42.9920 O   0  0  0  0  0  0  0  0  0  0  0  0
   46.3920   34.7070   43.1500 C   0  0  0  0  0  0  0  0  0  0  0  0
   47.1220   33.6560   43.7310 C   0  0  0  0  0  0  0  0  0  0  0  0
   46.7620   33.2230   45.0010 C   0  0  0  0  0  0  0  0  0  0  0  0
   45.7240   33.8260   45.6330 N   0  0  0  0  0  0  0  0  0  0  0  0
   45.0420   34.8360   45.0470 C   0  0  0  0  0  0  0  0  0  0  0  0
   45.3820   35.2600   43.8230 N   0  0  0  0  0  0  0  0  0  0  0  0
   46.5960   35.1150   42.1670 H   0  0  0  0  0  0  0  0  0  0  0  0
   47.3610   32.4150   45.3860 H   0  0  0  0  0  0  0  0  0  0  0  0
   44.2440   35.2100   45.6770 H   0  0  0  0  0  0  0  0  0  0  0  0
  1  2  1  0  0  0  0
  1 19  1  1  0  0  0
  3 11  1  0  0  0  0
  4  3  2  0  0  0  0
  4  5  1  0  0  0  0
  5  6  1  0  0  0  0
  5  9  1  0  0  0  0
  7  6  2  0  0  0  0
  8  6  1  6  0  0  0
  8  1  1  0  0  0  0
  8  2  1  0  0  0  0
  9  8  1  0  0  0  0
  9 10  1  1  0  0  0
 11 12  1  0  0  0  0
 11 10  1  0  0  0  0
 13 14  1  0  0  0  0
 13  3  1  0  0  0  0
 15  4  1  0  0  0  0
 16 15  2  0  0  0  0
 17 15  1  0  0  0  0
 18 17  1  0  0  0  0
 19 21  1  0  0  0  0
 21 20  2  1  0  0  0
 21 24  1  0  0  0  0
 22 21  1  0  0  0  0
 23 22  1  0  0  0  0
 24 26  1  0  0  0  0
 25 26  2  0  0  0  0
 25 30  1  0  0  0  0
 26 27  1  0  0  0  0
 27 32  1  0  0  0  0
 27 28  2  0  0  0  0
 29 28  1  0  0  0  0
 29 33  1  0  0  0  0
 30 29  2  0  0  0  0
 31 25  1  0  0  0  0
M  END
>  <minimizedAffinity>
-4.62850046

>  <minimizedRMSD>
3.53423119

$$$$
