REMARK  Name = 
REMARK  5 active torsions:
REMARK  status: ('A' for Active; 'I' for Inactive)
REMARK    1  A    between atoms: C_1  and  C_7
REMARK    2  A    between atoms: C_7  and  C_22
REMARK    3  A    between atoms: C_12  and  C_14
REMARK    4  A    between atoms: C_15  and  C_16
REMARK    5  A    between atoms: C_16  and  O_18
REMARK                            x       y       z     vdW  Elec       q    Type
REMARK                         _______ _______ _______ _____ _____    ______ ____
ROOT
ATOM      1  C   UNL     1      45.716  30.032  41.717  0.00  0.00    +0.000 C 
ATOM      2  C   UNL     1      44.998  30.881  41.030  0.00  0.00    +0.000 C 
ATOM      3  N   UNL     1      45.412  32.237  40.919  0.00  0.00    +0.000 N 
ATOM      4  C   UNL     1      45.011  33.624  40.907  0.00  0.00    +0.000 C 
ATOM      5  O   UNL     1      43.918  34.285  40.956  0.00  0.00    +0.000 OA
ATOM      6  C   UNL     1      46.419  34.026  40.812  0.00  0.00    +0.000 C 
ATOM      7  C   UNL     1      46.827  32.600  40.727  0.00  0.00    +0.000 C 
ATOM      8  S   UNL     1      47.700  31.911  42.123  0.00  0.00    +0.000 S 
ATOM      9  C   UNL     1      46.971  30.303  42.449  0.00  0.00    +0.000 C 
ATOM     10  H   UNL     1      47.712  29.537  42.074  0.00  0.00    +0.000 HD
ENDROOT
BRANCH   6  11
ATOM     11  C   UNL     1      46.956  34.808  41.969  0.00  0.00    +0.000 C 
ATOM     12  O   UNL     1      48.059  35.388  41.728  0.00  0.00    +0.000 OA
BRANCH  11  13
ATOM     13  C   UNL     1      46.220  34.836  43.191  0.00  0.00    +0.000 A 
ATOM     14  C   UNL     1      45.327  35.902  43.281  0.00  0.00    +0.000 A 
ATOM     15  C   UNL     1      44.556  36.012  44.453  0.00  0.00    +0.000 A 
ATOM     16  N   UNL     1      44.741  35.062  45.418  0.00  0.00    +0.000 NA
ATOM     17  C   UNL     1      45.613  34.053  45.287  0.00  0.00    +0.000 A 
ATOM     18  N   UNL     1      46.354  33.942  44.168  0.00  0.00    +0.000 NA
ATOM     19  H   UNL     1      45.186  36.651  42.511  0.00  0.00    +0.000 HD
ATOM     20  H   UNL     1      43.846  36.819  44.578  0.00  0.00    +0.000 HD
ATOM     21  H   UNL     1      45.661  33.370  46.128  0.00  0.00    +0.000 HD
ENDBRANCH  11  13
ENDBRANCH   6  11
BRANCH   1  22
ATOM     22  C   UNL     1      45.180  28.647  41.751  0.00  0.00    +0.000 C 
ATOM     23  H   UNL     1      45.864  28.010  42.346  0.00  0.00    +0.000 HD
ENDBRANCH   1  22
BRANCH   2  24
ATOM     24  C   UNL     1      43.757  30.487  40.347  0.00  0.00    +0.000 C 
ATOM     25  O   UNL     1      43.216  29.355  40.308  0.00  0.00    +0.000 OA
BRANCH  24  26
ATOM     26  O   UNL     1      42.974  31.360  39.615  0.00  0.00    +0.000 OA
ATOM     27  H   UNL     1      41.966  31.352  39.657  0.00  0.00    +0.000 HD
ENDBRANCH  24  26
ENDBRANCH   2  24
TORSDOF 5
