
 OpenBabel03242518463D

 52 56  0  0  1  0  0  0  0  0999 V2000
   47.4570   31.2780   45.8290 O   0  0  0  0  0  0  0  0  0  0  0  0
   47.4590   33.0770   44.3320 C   0  0  2  0  0  0  0  0  0  0  0  0
   47.3630   33.4280   42.8900 C   0  0  1  0  0  0  0  0  0  0  0  0
   47.2840   32.1890   41.9980 C   0  0  0  0  0  0  0  0  0  0  0  0
   48.3980   31.4310   42.3550 O   0  0  0  0  0  0  0  0  0  0  0  0
   48.2430   30.8460   43.5940 C   0  0  0  0  0  0  0  0  0  0  0  0
   47.2810   31.5550   44.4920 C   0  0  1  0  0  0  0  0  0  0  0  0
   48.4780   33.2880   44.7030 H   0  0  0  0  0  0  0  0  0  0  0  0
   48.2770   33.9950   42.5680 H   0  0  0  0  0  0  0  0  0  0  0  0
   46.3290   31.6490   42.1350 H   0  0  0  0  0  0  0  0  0  0  0  0
   47.3710   32.4710   40.9350 H   0  0  0  0  0  0  0  0  0  0  0  0
   47.9120   29.7800   43.4610 H   0  0  0  0  0  0  0  0  0  0  0  0
   49.2380   30.7840   44.1050 H   0  0  0  0  0  0  0  0  0  0  0  0
   46.2430   31.2950   44.1910 H   0  0  0  0  0  0  0  0  0  0  0  0
   45.0330   36.2450   42.7160 C   0  0  0  0  0  0  0  0  0  0  0  0
   44.0170   35.8010   41.8330 C   0  0  0  0  0  0  0  0  0  0  0  0
   44.1830   34.4870   41.3080 C   0  0  0  0  0  0  0  0  0  0  0  0
   45.2670   33.7690   41.6760 N   0  0  0  0  0  0  0  0  0  0  0  0
   46.1990   34.2480   42.5190 C   0  0  0  0  0  0  0  0  0  0  0  0
   46.0780   35.4930   43.0410 N   0  0  0  0  0  0  0  0  0  0  0  0
   43.1960   36.4300   41.5940 H   0  0  0  0  0  0  0  0  0  0  0  0
   43.4150   34.1370   40.6340 H   0  0  0  0  0  0  0  0  0  0  0  0
   44.8760   37.4990   43.2180 O   0  0  0  0  0  0  0  0  0  0  0  0
   44.4290   37.6790   44.1130 H   0  0  0  0  0  0  0  0  0  0  0  0
   46.5120   33.7130   45.1330 O   0  0  0  0  0  0  0  0  0  0  0  0
   45.6770   33.1920   45.1440 H   0  0  0  0  0  0  0  0  0  0  0  0
   46.6410   28.7080   45.9830 F   0  0  0  0  0  0  0  0  0  0  0  0
   46.3100   29.6700   46.8630 C   0  0  0  0  0  0  0  0  0  0  0  0
   46.6770   30.9970   46.8600 C   0  0  0  0  0  0  0  0  0  0  0  0
   46.1720   31.7560   47.9090 C   0  0  0  0  0  0  0  0  0  0  0  0
   45.3600   31.3040   48.9160 C   0  0  0  0  0  0  0  0  0  0  0  0
   45.0330   29.9800   48.8620 C   0  0  0  0  0  0  0  0  0  0  0  0
   45.4900   29.1180   47.8450 C   0  0  0  0  0  0  0  0  0  0  0  0
   46.5040   32.8030   47.8430 H   0  0  0  0  0  0  0  0  0  0  0  0
   45.0530   32.0140   49.6500 H   0  0  0  0  0  0  0  0  0  0  0  0
   44.3800   29.7020   49.7020 H   0  0  0  0  0  0  0  0  0  0  0  0
   44.9860   27.7420   48.1030 C   0  0  0  0  0  2  0  0  0  0  0  0
   44.1430   27.1750   47.0380 C   0  0  0  0  0  0  0  0  0  0  0  0
   44.0210   25.8560   46.9550 C   0  0  0  0  0  0  0  0  0  0  0  0
   43.2350   25.2650   45.9230 N   0  0  0  0  0  0  0  0  0  0  0  0
   42.5450   24.1730   45.4310 C   0  0  0  0  0  0  0  0  0  0  0  0
   42.4030   22.9570   45.6390 O   0  0  0  0  0  0  0  0  0  0  0  0
   41.8770   24.9510   44.3840 C   0  0  0  0  0  3  0  0  0  0  0  0
   40.8560   25.3170   44.6260 H   0  0  0  0  0  0  0  0  0  0  0  0
   42.8830   25.9820   44.7350 C   0  0  1  0  0  3  0  0  0  0  0  0
   42.2110   27.5930   45.2010 S   0  0  0  0  0  0  0  0  0  0  0  0
   43.5550   28.2250   46.2210 C   0  0  0  0  0  3  0  0  0  0  0  0
   43.0420   29.0180   46.8630 H   0  0  0  0  0  0  0  0  0  0  0  0
   44.6730   24.8750   47.8630 C   0  0  0  0  0  0  0  0  0  0  0  0
   45.2290   24.8910   48.9890 O   0  0  0  0  0  0  0  0  0  0  0  0
   44.8050   23.5390   47.5700 O   0  0  0  0  0  0  0  0  0  0  0  0
   44.5460   22.8190   48.2200 H   0  0  0  0  0  0  0  0  0  0  0  0
  1 29  1  0  0  0  0
  2  7  1  0  0  0  0
  2  8  1  1  0  0  0
  2 25  1  0  0  0  0
  3  9  1  6  0  0  0
  3  2  1  0  0  0  0
  4 10  1  0  0  0  0
  4  5  1  0  0  0  0
  4  3  1  0  0  0  0
  5  6  1  0  0  0  0
  6 13  1  0  0  0  0
  6  7  1  0  0  0  0
  7 14  1  6  0  0  0
  7  1  1  0  0  0  0
 11  4  1  0  0  0  0
 12  6  1  0  0  0  0
 15 20  1  0  0  0  0
 15 23  1  0  0  0  0
 16 15  2  0  0  0  0
 17 18  2  0  0  0  0
 17 16  1  0  0  0  0
 18 19  1  0  0  0  0
 19  3  1  0  0  0  0
 19 20  2  0  0  0  0
 21 16  1  0  0  0  0
 22 17  1  0  0  0  0
 23 24  1  0  0  0  0
 25 26  1  0  0  0  0
 27 28  1  0  0  0  0
 28 33  1  0  0  0  0
 29 28  2  0  0  0  0
 29 30  1  0  0  0  0
 30 31  2  0  0  0  0
 31 35  1  0  0  0  0
 32 31  1  0  0  0  0
 32 36  1  0  0  0  0
 33 37  1  0  0  0  0
 33 32  2  0  0  0  0
 34 30  1  0  0  0  0
 38 37  1  0  0  0  0
 39 38  2  0  0  0  0
 39 49  1  0  0  0  0
 40 39  1  0  0  0  0
 41 42  2  0  0  0  0
 41 40  1  0  0  0  0
 43 44  1  0  0  0  0
 43 41  1  0  0  0  0
 45 43  1  1  0  0  0
 45 46  1  0  0  0  0
 45 40  1  0  0  0  0
 46 47  1  0  0  0  0
 47 48  1  0  0  0  0
 47 38  1  0  0  0  0
 49 50  2  0  0  0  0
 51 49  1  0  0  0  0
 51 52  1  0  0  0  0
M  END
>  <minimizedAffinity>
-5.94273472

>  <minimizedRMSD>
1.5297184

$$$$
