
     RDKit          3D

 38 40  0  0  0  0  0  0  0  0999 V2000
   46.1293   35.2862   42.6913 C   0  0  0  0  0  0  0  0  0  0  0  0
   46.6892   34.1778   43.3497 C   0  0  0  0  0  0  0  0  0  0  0  0
   46.2045   33.8415   44.6094 C   0  0  0  0  0  0  0  0  0  0  0  0
   45.2144   34.5907   45.1546 N   0  0  0  0  0  0  0  0  0  0  0  0
   44.6967   35.6517   44.4948 C   0  0  0  0  0  0  0  0  0  0  0  0
   45.1565   35.9833   43.2823 N   0  0  0  0  0  0  0  0  0  0  0  0
   47.7065   33.4734   42.6971 O   0  0  0  0  0  0  0  0  0  0  0  0
   49.5491   35.3675   42.7824 O   0  0  0  0  0  0  0  0  0  0  0  0
   48.9719   34.2999   41.8988 P   0  0  1  0  0  0  0  0  0  0  0  0
   50.2263   33.2507   41.5126 O   0  0  0  0  0  0  0  0  0  0  0  0
   48.4084   35.0300   40.5073 O   0  0  0  0  0  0  0  0  0  0  0  0
   48.0692   34.3738   39.3678 C   0  0  0  0  0  0  0  0  0  0  0  0
   46.9449   33.7624   39.5020 O   0  0  0  0  0  0  0  0  0  0  0  0
   46.4383   35.6272   41.7096 H   0  0  0  0  0  0  0  0  0  0  0  0
   46.6769   32.9837   45.0556 H   0  0  0  0  0  0  0  0  0  0  0  0
   43.9163   36.1448   45.0621 H   0  0  0  0  0  0  0  0  0  0  0  0
   49.9006   32.4162   41.0848 H   0  0  0  0  0  0  0  0  0  0  0  0
   52.5504   31.0737   37.5220 C   0  0  0  0  0  0  0  0  0  0  0  0
   53.0127   30.6847   38.4746 H   0  0  0  0  0  0  0  0  0  0  0  0
   51.2856   31.7141   37.8589 C   0  0  0  0  0  0  0  0  0  0  0  0
   50.5800   32.2503   36.8782 C   0  0  0  0  0  0  0  0  0  0  0  0
   51.0801   32.1904   35.4955 C   0  0  0  0  0  0  0  0  0  0  0  0
   52.1567   31.6573   35.1351 O   0  0  0  0  0  0  0  0  0  0  0  0
   50.4846   32.6896   34.3747 O   0  0  0  0  0  0  0  0  0  0  0  0
   49.3332   32.8789   37.1463 N   0  0  0  0  0  0  0  0  0  0  0  0
   48.5384   34.0669   36.9158 C   0  0  0  0  0  0  0  0  0  0  0  0
   48.5227   35.0217   36.0649 O   0  0  0  0  0  0  0  0  0  0  0  0
   47.7627   33.6830   38.0933 C   0  0  1  0  0  0  0  0  0  0  0  0
   48.2785   32.2806   37.9425 C   0  0  2  0  0  0  0  0  0  0  0  0
   49.0163   31.5449   39.3959 S   0  0  0  0  0  0  0  0  0  0  0  0
   50.8101   31.7682   39.2657 C   0  0  2  0  0  0  0  0  0  0  0  0
   51.0072   32.7977   39.6822 H   0  0  0  0  0  0  0  0  0  0  0  0
   52.4592   30.1582   36.8890 H   0  0  0  0  0  0  0  0  0  0  0  0
   53.3419   31.7798   37.1341 H   0  0  0  0  0  0  0  0  0  0  0  0
   50.9762   33.3253   33.7601 H   0  0  0  0  0  0  0  0  0  0  0  0
   46.6702   33.7124   37.8359 H   0  0  0  0  0  0  0  0  0  0  0  0
   47.6261   31.5797   37.3891 H   0  0  0  0  0  0  0  0  0  0  0  0
   51.2730   30.9921   39.8939 H   0  0  0  0  0  0  0  0  0  0  0  0
  1  6  2  0
  1  2  1  0
  2  3  2  0
  3  4  1  0
  5  4  2  0
  6  5  1  0
  7  2  1  0
  9  7  1  1
  9  8  2  0
 10  9  1  0
 11  9  1  0
 12 13  2  0
 12 11  1  0
  1 14  1  0
  3 15  1  0
  5 16  1  0
 10 17  1  0
 18 19  1  0
 18 20  1  0
 20 21  2  0
 21 22  1  0
 22 23  2  0
 22 24  1  0
 21 25  1  0
 25 26  1  0
 26 27  2  0
 26 28  1  0
 28 29  1  0
 29 30  1  0
 30 31  1  0
 31 32  1  1
 31 20  1  0
 29 25  1  0
 18 33  1  0
 18 34  1  0
 24 35  1  0
 28 36  1  6
 29 37  1  6
 31 38  1  0
 12 28  1  0
M  ISO  6  14  14  15  14  16  14  17   3  19   8  32  15
M  END
>  <DihAtoms>  (1) 
12,11,27,25

>  <DihDeg>  (1) 
0.6178206600231226

$$$$
