
 OpenBabel03242520003D

 37 40  0  0  1  0  0  0  0  0999 V2000
   44.6680   33.1140   41.2020 Br  0  0  0  0  0  0  0  0  0  0  0  0
   46.3270   34.0280   41.0320 C   0  0  0  0  0  0  0  0  0  0  0  0
   46.8690   34.7700   42.0660 C   0  0  0  0  0  0  0  0  0  0  0  0
   48.0810   35.4100   41.8470 C   0  0  0  0  0  0  0  0  0  0  0  0
   48.7530   35.3270   40.6430 C   0  0  0  0  0  0  0  0  0  0  0  0
   48.2140   34.5850   39.6080 C   0  0  0  0  0  0  0  0  0  0  0  0
   47.0020   33.9520   39.8440 C   0  0  0  0  0  0  0  0  0  0  0  0
   48.4810   35.9760   42.6530 H   0  0  0  0  0  0  0  0  0  0  0  0
   49.6990   35.8690   40.5800 H   0  0  0  0  0  0  0  0  0  0  0  0
   48.7560   34.5290   38.6650 H   0  0  0  0  0  0  0  0  0  0  0  0
   44.5090   35.8000   44.8360 C   0  0  0  0  0  0  0  0  0  0  0  0
   45.2000   35.7890   43.6140 C   0  0  0  0  0  0  0  0  0  0  0  0
   46.1310   34.8220   43.3160 C   0  0  0  0  0  0  0  0  0  0  0  0
   46.3190   33.8840   44.3030 N   0  0  0  0  0  0  0  0  0  0  0  0
   45.6560   33.9030   45.4650 C   0  0  0  0  0  0  0  0  0  0  0  0
   44.7640   34.8420   45.7330 N   0  0  0  0  0  0  0  0  0  0  0  0
   43.7800   36.5540   45.0750 H   0  0  0  0  0  0  0  0  0  0  0  0
   44.9910   36.5550   42.9050 H   0  0  0  0  0  0  0  0  0  0  0  0
   45.9680   33.0690   46.0840 H   0  0  0  0  0  0  0  0  0  0  0  0
   46.4720   33.1620   38.7540 C   0  0  1  0  0  0  0  0  0  0  0  0
   45.2530   33.3330   38.3790 O   0  0  0  0  0  0  0  0  0  0  0  0
   46.7970   29.4830   34.8200 C   0  0  0  0  0  0  0  0  0  0  0  0
   47.1200   30.7420   34.7540 C   0  0  0  0  0  0  0  0  0  0  0  0
   47.1200   31.5790   35.8780 N   0  0  0  0  0  0  0  0  0  0  0  0
   47.7070   32.6310   36.6540 C   0  0  0  0  0  0  0  0  0  0  0  0
   48.4710   33.6050   36.3380 O   0  0  0  0  0  0  0  0  0  0  0  0
   47.0670   32.1060   37.8890 C   0  0  2  0  0  0  0  0  0  0  0  0
   46.0840   31.4880   36.8900 C   0  0  2  0  0  0  0  0  0  0  0  0
   45.7900   29.7560   37.3650 S   0  0  0  0  0  0  0  0  0  0  0  0
   46.3970   28.7380   36.0210 C   0  0  0  0  0  0  0  0  0  0  0  0
   45.5350   28.0780   35.7100 H   0  0  0  0  0  0  0  0  0  0  0  0
   46.8470   28.7440   33.5350 C   0  0  0  0  0  0  0  0  0  0  0  0
   46.4370   29.3720   32.6990 H   0  0  0  0  0  0  0  0  0  0  0  0
   47.4880   31.2690   33.4470 C   0  0  0  0  0  0  0  0  0  0  0  0
   47.7080   32.5040   33.2210 O   0  0  0  0  0  0  0  0  0  0  0  0
   47.8200   31.5480   32.1500 O   0  0  0  0  0  0  0  0  0  0  0  0
   47.9260   30.8340   31.4210 H   0  0  0  0  0  0  0  0  0  0  0  0
  2  1  1  0  0  0  0
  2  3  1  0  0  0  0
  3 13  1  0  0  0  0
  4  3  2  0  0  0  0
  4  8  1  0  0  0  0
  5  4  1  0  0  0  0
  6  7  1  0  0  0  0
  6  5  2  0  0  0  0
  7  2  2  0  0  0  0
  9  5  1  0  0  0  0
 10  6  1  0  0  0  0
 11 17  1  0  0  0  0
 11 16  1  0  0  0  0
 12 11  2  0  0  0  0
 13 12  1  0  0  0  0
 13 14  2  0  0  0  0
 14 15  1  0  0  0  0
 15 16  2  0  0  0  0
 15 19  1  0  0  0  0
 18 12  1  0  0  0  0
 20 21  1  6  0  0  0
 20  7  1  0  0  0  0
 22 30  1  0  0  0  0
 23 22  2  0  0  0  0
 23 24  1  0  0  0  0
 24 25  1  0  0  0  0
 24 28  1  0  0  0  0
 25 27  1  0  0  0  0
 26 25  2  0  0  0  0
 27 20  1  1  0  0  0
 28 29  1  1  0  0  0
 28 27  1  0  0  0  0
 30 29  1  0  0  0  0
 31 30  1  0  0  0  0
 32 22  1  0  0  0  0
 33 32  1  0  0  0  0
 34 23  1  0  0  0  0
 35 34  2  0  0  0  0
 36 34  1  0  0  0  0
 37 36  1  0  0  0  0
M  END
>  <minimizedAffinity>
-6.63423395

>  <minimizedRMSD>
3.29799032

$$$$
