
 OpenBabel03242519553D

 47 50  0  0  1  0  0  0  0  0999 V2000
   37.8550   30.5350   40.4400 C   0  0  2  0  0  0  0  0  0  0  0  0
   37.8640   29.8150   39.1470 C   0  0  0  0  0  0  0  0  0  0  0  0
   36.4930   29.5030   38.6510 C   0  0  0  0  0  0  0  0  0  0  0  0
   35.6470   28.7540   39.6450 C   0  0  0  0  0  0  0  0  0  0  0  0
   35.8680   29.1570   41.0690 C   0  0  2  0  0  0  0  0  0  0  0  0
   36.5530   30.5060   41.1640 C   0  0  0  0  0  0  0  0  0  0  0  0
   38.6240   30.0010   41.0850 H   0  0  0  0  0  0  0  0  0  0  0  0
   38.4670   28.8860   39.1360 H   0  0  0  0  0  0  0  0  0  0  0  0
   38.3360   30.4860   38.3910 H   0  0  0  0  0  0  0  0  0  0  0  0
   36.6240   28.8230   37.7620 H   0  0  0  0  0  0  0  0  0  0  0  0
   36.0090   30.4090   38.2500 H   0  0  0  0  0  0  0  0  0  0  0  0
   34.5750   28.9040   39.3230 H   0  0  0  0  0  0  0  0  0  0  0  0
   35.8130   27.6540   39.5110 H   0  0  0  0  0  0  0  0  0  0  0  0
   34.8590   29.2830   41.5260 H   0  0  0  0  0  0  0  0  0  0  0  0
   35.8040   31.2410   40.9440 H   0  0  0  0  0  0  0  0  0  0  0  0
   36.8150   30.6580   42.2560 H   0  0  0  0  0  0  0  0  0  0  0  0
   38.3350   31.9210   40.3510 C   0  0  0  0  0  0  0  0  0  0  0  0
   37.3740   32.8220   39.9000 C   0  0  0  0  0  0  0  0  0  0  0  0
   37.6890   34.1790   39.7850 C   0  0  0  0  0  0  0  0  0  0  0  0
   38.9790   34.5360   40.1390 N   0  0  0  0  0  0  0  0  0  0  0  0
   39.8790   33.6310   40.5690 C   0  0  0  0  0  0  0  0  0  0  0  0
   39.5490   32.3420   40.6710 N   0  0  0  0  0  0  0  0  0  0  0  0
   36.3470   32.7770   39.5680 H   0  0  0  0  0  0  0  0  0  0  0  0
   37.1200   35.0230   39.4700 H   0  0  0  0  0  0  0  0  0  0  0  0
   40.8770   33.9620   40.8340 H   0  0  0  0  0  0  0  0  0  0  0  0
   36.5810   28.0850   41.7900 C   0  0  0  0  0  0  0  0  0  0  0  0
   35.9570   27.7190   42.6300 H   0  0  0  0  0  0  0  0  0  0  0  0
   37.4720   28.5520   42.2910 H   0  0  0  0  0  0  0  0  0  0  0  0
   37.0310   26.9240   41.0100 C   0  0  0  0  0  0  0  0  0  0  0  0
   36.2200   26.6220   40.3160 H   0  0  0  0  0  0  0  0  0  0  0  0
   37.8960   27.2050   40.3770 H   0  0  0  0  0  0  0  0  0  0  0  0
   41.2730   25.0680   40.2570 C   0  0  0  0  0  0  0  0  0  0  0  0
   40.8780   25.2240   41.5020 C   0  0  0  0  0  0  0  0  0  0  0  0
   39.5370   25.4320   41.8290 N   0  0  0  0  0  0  0  0  0  0  0  0
   38.5810   26.0530   42.6440 C   0  0  0  0  0  0  0  0  0  0  0  0
   38.5850   26.7040   43.7410 O   0  0  0  0  0  0  0  0  0  0  0  0
   37.4240   25.7000   41.7710 C   0  0  2  0  0  3  0  0  0  0  0  0
   38.4510   24.8100   41.1180 C   0  0  1  0  0  3  0  0  0  0  0  0
   38.6700   25.0760   39.3560 S   0  0  0  0  0  0  0  0  0  0  0  0
   40.4320   25.0880   39.0380 C   0  0  0  0  0  3  0  0  0  0  0  0
   40.6580   24.1250   38.4920 H   0  0  0  0  0  0  0  0  0  0  0  0
   42.7010   24.8470   39.9440 C   0  0  0  0  0  2  0  0  0  0  0  0
   43.2880   24.4530   40.8010 H   0  0  0  0  0  0  0  0  0  0  0  0
   41.8690   25.1730   42.5680 C   0  0  0  0  0  0  0  0  0  0  0  0
   42.0370   26.0970   43.4030 O   0  0  0  0  0  0  0  0  0  0  0  0
   42.8660   24.8290   43.4320 O   0  0  0  0  0  0  0  0  0  0  0  0
   43.6280   24.2430   43.1150 H   0  0  0  0  0  0  0  0  0  0  0  0
  1  7  1  1  0  0  0
  1  6  1  0  0  0  0
  2  1  1  0  0  0  0
  3  2  1  0  0  0  0
  3  4  1  0  0  0  0
  4  5  1  0  0  0  0
  5  6  1  0  0  0  0
  5 14  1  1  0  0  0
  5 26  1  0  0  0  0
  6 16  1  0  0  0  0
  8  2  1  0  0  0  0
  9  2  1  0  0  0  0
 10  3  1  0  0  0  0
 11  3  1  0  0  0  0
 12  4  1  0  0  0  0
 13  4  1  0  0  0  0
 15  6  1  0  0  0  0
 17  1  1  0  0  0  0
 17 22  1  0  0  0  0
 18 17  2  0  0  0  0
 19 18  1  0  0  0  0
 19 20  2  0  0  0  0
 20 21  1  0  0  0  0
 21 22  2  0  0  0  0
 21 25  1  0  0  0  0
 23 18  1  0  0  0  0
 24 19  1  0  0  0  0
 26 28  1  0  0  0  0
 26 27  1  0  0  0  0
 29 26  1  0  0  0  0
 30 29  1  0  0  0  0
 31 29  1  0  0  0  0
 32 33  2  0  0  0  0
 33 34  1  0  0  0  0
 33 44  1  0  0  0  0
 34 35  1  0  0  0  0
 35 36  2  0  0  0  0
 37 29  1  6  0  0  0
 37 35  1  0  0  0  0
 38 39  1  6  0  0  0
 38 37  1  0  0  0  0
 38 34  1  0  0  0  0
 40 39  1  0  0  0  0
 40 32  1  0  0  0  0
 41 40  1  0  0  0  0
 42 32  1  0  0  0  0
 42 43  1  0  0  0  0
 44 45  2  0  0  0  0
 44 46  1  0  0  0  0
 47 46  1  0  0  0  0
M  END
>  <minimizedAffinity>
-6.11817837

$$$$

 OpenBabel03242519553D

 47 50  0  0  1  0  0  0  0  0999 V2000
   37.3360   25.6570   40.5930 C   0  0  2  0  0  0  0  0  0  0  0  0
   38.7040   26.1720   40.3560 C   0  0  0  0  0  0  0  0  0  0  0  0
   39.4900   26.3160   41.6150 C   0  0  0  0  0  0  0  0  0  0  0  0
   38.8050   27.1520   42.6630 C   0  0  0  0  0  0  0  0  0  0  0  0
   37.3190   26.9840   42.7090 C   0  0  2  0  0  0  0  0  0  0  0  0
   36.8820   25.7120   42.0110 C   0  0  0  0  0  0  0  0  0  0  0  0
   36.6530   26.3310   39.9820 H   0  0  0  0  0  0  0  0  0  0  0  0
   38.7510   27.1260   39.7950 H   0  0  0  0  0  0  0  0  0  0  0  0
   39.2400   25.4260   39.7250 H   0  0  0  0  0  0  0  0  0  0  0  0
   40.4360   26.8610   41.3360 H   0  0  0  0  0  0  0  0  0  0  0  0
   39.8230   25.3310   41.9810 H   0  0  0  0  0  0  0  0  0  0  0  0
   39.2920   26.8870   43.6460 H   0  0  0  0  0  0  0  0  0  0  0  0
   39.0810   28.2270   42.5120 H   0  0  0  0  0  0  0  0  0  0  0  0
   37.0440   26.8650   43.7830 H   0  0  0  0  0  0  0  0  0  0  0  0
   37.1160   24.9050   42.6780 H   0  0  0  0  0  0  0  0  0  0  0  0
   35.7500   25.7440   41.9600 H   0  0  0  0  0  0  0  0  0  0  0  0
   37.1100   24.3070   40.0570 C   0  0  0  0  0  0  0  0  0  0  0  0
   37.9130   23.3290   40.6390 C   0  0  0  0  0  0  0  0  0  0  0  0
   37.7890   21.9960   40.2370 C   0  0  0  0  0  0  0  0  0  0  0  0
   36.8460   21.7400   39.2570 N   0  0  0  0  0  0  0  0  0  0  0  0
   36.0910   22.7170   38.7190 C   0  0  0  0  0  0  0  0  0  0  0  0
   36.2290   23.9820   39.1240 N   0  0  0  0  0  0  0  0  0  0  0  0
   38.6950   23.2930   41.3830 H   0  0  0  0  0  0  0  0  0  0  0  0
   38.2900   21.1060   40.5430 H   0  0  0  0  0  0  0  0  0  0  0  0
   35.3650   22.4650   37.9540 H   0  0  0  0  0  0  0  0  0  0  0  0
   36.6590   28.1960   42.1870 C   0  0  0  0  0  0  0  0  0  0  0  0
   35.9220   28.5700   42.9260 H   0  0  0  0  0  0  0  0  0  0  0  0
   36.0340   27.8860   41.3060 H   0  0  0  0  0  0  0  0  0  0  0  0
   37.5190   29.3190   41.7850 C   0  0  0  0  0  0  0  0  0  0  0  0
   38.1120   29.6480   42.6630 H   0  0  0  0  0  0  0  0  0  0  0  0
   38.2500   28.9820   41.0230 H   0  0  0  0  0  0  0  0  0  0  0  0
   39.8850   32.0540   38.7980 C   0  0  0  0  0  0  0  0  0  0  0  0
   38.6500   31.7250   38.4890 C   0  0  0  0  0  0  0  0  0  0  0  0
   37.7610   31.2230   39.4420 N   0  0  0  0  0  0  0  0  0  0  0  0
   36.7060   30.3590   39.7630 C   0  0  0  0  0  0  0  0  0  0  0  0
   35.8720   29.6400   39.1190 O   0  0  0  0  0  0  0  0  0  0  0  0
   36.8450   30.5340   41.2380 C   0  0  2  0  0  3  0  0  0  0  0  0
   37.7500   31.6630   40.8120 C   0  0  1  0  0  3  0  0  0  0  0  0
   39.4180   31.5840   41.4710 S   0  0  0  0  0  0  0  0  0  0  0  0
   40.5370   31.9570   40.1240 C   0  0  0  0  0  3  0  0  0  0  0  0
   40.9540   32.9850   40.3380 H   0  0  0  0  0  0  0  0  0  0  0  0
   40.8010   32.5850   37.7660 C   0  0  0  0  0  2  0  0  0  0  0  0
   40.2770   33.0240   36.8900 H   0  0  0  0  0  0  0  0  0  0  0  0
   38.1970   31.8950   37.1160 C   0  0  0  0  0  0  0  0  0  0  0  0
   37.4070   31.1030   36.5420 O   0  0  0  0  0  0  0  0  0  0  0  0
   37.9680   32.3240   35.8420 O   0  0  0  0  0  0  0  0  0  0  0  0
   38.6910   32.8210   35.3380 H   0  0  0  0  0  0  0  0  0  0  0  0
  1  7  1  6  0  0  0
  1  6  1  0  0  0  0
  2  1  1  0  0  0  0
  2  3  1  0  0  0  0
  3 11  1  0  0  0  0
  3  4  1  0  0  0  0
  4  5  1  0  0  0  0
  4 12  1  0  0  0  0
  5 14  1  1  0  0  0
  6 15  1  0  0  0  0
  6  5  1  0  0  0  0
  8  2  1  0  0  0  0
  9  2  1  0  0  0  0
 10  3  1  0  0  0  0
 13  4  1  0  0  0  0
 16  6  1  0  0  0  0
 17  1  1  0  0  0  0
 17 18  1  0  0  0  0
 18 23  1  0  0  0  0
 19 24  1  0  0  0  0
 19 18  2  0  0  0  0
 20 19  1  0  0  0  0
 21 22  1  0  0  0  0
 21 20  2  0  0  0  0
 22 17  2  0  0  0  0
 25 21  1  0  0  0  0
 26  5  1  0  0  0  0
 26 27  1  0  0  0  0
 28 26  1  0  0  0  0
 29 26  1  0  0  0  0
 29 30  1  0  0  0  0
 31 29  1  0  0  0  0
 32 40  1  0  0  0  0
 33 32  2  0  0  0  0
 33 34  1  0  0  0  0
 34 35  1  0  0  0  0
 34 38  1  0  0  0  0
 35 37  1  0  0  0  0
 36 35  2  0  0  0  0
 37 29  1  1  0  0  0
 38 37  1  0  0  0  0
 38 39  1  1  0  0  0
 40 41  1  0  0  0  0
 40 39  1  0  0  0  0
 42 32  1  0  0  0  0
 43 42  1  0  0  0  0
 44 33  1  0  0  0  0
 45 44  2  0  0  0  0
 46 44  1  0  0  0  0
 47 46  1  0  0  0  0
M  END
>  <minimizedAffinity>
-5.79305124

$$$$

 OpenBabel03242519553D

 47 50  0  0  1  0  0  0  0  0999 V2000
   36.9750   26.4160   39.8060 C   0  0  2  0  0  0  0  0  0  0  0  0
   37.2030   24.9530   39.7740 C   0  0  0  0  0  0  0  0  0  0  0  0
   36.7150   24.2680   41.0050 C   0  0  0  0  0  0  0  0  0  0  0  0
   37.2730   24.8440   42.2790 C   0  0  0  0  0  0  0  0  0  0  0  0
   37.4540   26.3290   42.2550 C   0  0  2  0  0  0  0  0  0  0  0  0
   36.6430   26.9690   41.1480 C   0  0  0  0  0  0  0  0  0  0  0  0
   37.9590   26.8780   39.4720 H   0  0  0  0  0  0  0  0  0  0  0  0
   38.2520   24.6500   39.5890 H   0  0  0  0  0  0  0  0  0  0  0  0
   36.6170   24.5390   38.9200 H   0  0  0  0  0  0  0  0  0  0  0  0
   37.0830   23.2050   40.9430 H   0  0  0  0  0  0  0  0  0  0  0  0
   35.6150   24.1910   40.9980 H   0  0  0  0  0  0  0  0  0  0  0  0
   36.5790   24.5140   43.1050 H   0  0  0  0  0  0  0  0  0  0  0  0
   38.2370   24.3280   42.5220 H   0  0  0  0  0  0  0  0  0  0  0  0
   37.0400   26.7170   43.2150 H   0  0  0  0  0  0  0  0  0  0  0  0
   35.6240   26.9770   41.4850 H   0  0  0  0  0  0  0  0  0  0  0  0
   36.9550   28.0580   41.1070 H   0  0  0  0  0  0  0  0  0  0  0  0
   35.9860   26.8830   38.8230 C   0  0  0  0  0  0  0  0  0  0  0  0
   35.6520   28.2280   38.9580 C   0  0  0  0  0  0  0  0  0  0  0  0
   34.7370   28.8110   38.0770 C   0  0  0  0  0  0  0  0  0  0  0  0
   34.2130   27.9770   37.1050 N   0  0  0  0  0  0  0  0  0  0  0  0
   34.5620   26.6800   37.0110 C   0  0  0  0  0  0  0  0  0  0  0  0
   35.4400   26.1510   37.8650 N   0  0  0  0  0  0  0  0  0  0  0  0
   35.9120   29.0410   39.6200 H   0  0  0  0  0  0  0  0  0  0  0  0
   34.3470   29.8000   37.9990 H   0  0  0  0  0  0  0  0  0  0  0  0
   34.1220   26.0680   36.2310 H   0  0  0  0  0  0  0  0  0  0  0  0
   38.8910   26.6590   42.1960 C   0  0  0  0  0  0  0  0  0  0  0  0
   39.4200   25.9200   41.5610 H   0  0  0  0  0  0  0  0  0  0  0  0
   39.3170   26.4960   43.2220 H   0  0  0  0  0  0  0  0  0  0  0  0
   39.2600   28.0070   41.7390 C   0  0  0  0  0  0  0  0  0  0  0  0
   40.3260   28.0030   41.4350 H   0  0  0  0  0  0  0  0  0  0  0  0
   38.6780   28.2730   40.8340 H   0  0  0  0  0  0  0  0  0  0  0  0
   40.9910   32.2250   40.6350 C   0  0  0  0  0  0  0  0  0  0  0  0
   39.7680   32.1650   41.1140 C   0  0  0  0  0  0  0  0  0  0  0  0
   39.2930   31.0360   41.7850 N   0  0  0  0  0  0  0  0  0  0  0  0
   38.2330   30.1680   42.0740 C   0  0  0  0  0  0  0  0  0  0  0  0
   36.9690   30.1640   41.9020 O   0  0  0  0  0  0  0  0  0  0  0  0
   39.0930   29.1280   42.7120 C   0  0  2  0  0  3  0  0  0  0  0  0
   40.1210   30.2300   42.6430 C   0  0  1  0  0  3  0  0  0  0  0  0
   41.6310   29.8000   41.7740 S   0  0  0  0  0  0  0  0  0  0  0  0
   42.0360   31.1770   40.7040 C   0  0  0  0  0  3  0  0  0  0  0  0
   42.9410   31.6740   41.1620 H   0  0  0  0  0  0  0  0  0  0  0  0
   41.4650   33.4360   39.9310 C   0  0  0  0  0  2  0  0  0  0  0  0
   40.8850   34.3500   40.1820 H   0  0  0  0  0  0  0  0  0  0  0  0
   38.8860   33.3100   40.9400 C   0  0  0  0  0  0  0  0  0  0  0  0
   37.8520   33.2880   40.2260 O   0  0  0  0  0  0  0  0  0  0  0  0
   38.2790   34.5300   40.9800 O   0  0  0  0  0  0  0  0  0  0  0  0
   38.8350   35.3680   41.0960 H   0  0  0  0  0  0  0  0  0  0  0  0
  1  7  1  6  0  0  0
  1  6  1  0  0  0  0
  2  1  1  0  0  0  0
  2  3  1  0  0  0  0
  3  4  1  0  0  0  0
  4 13  1  0  0  0  0
  4 12  1  0  0  0  0
  5  4  1  0  0  0  0
  5 14  1  1  0  0  0
  6 15  1  0  0  0  0
  6  5  1  0  0  0  0
  8  2  1  0  0  0  0
  9  2  1  0  0  0  0
 10  3  1  0  0  0  0
 11  3  1  0  0  0  0
 16  6  1  0  0  0  0
 17 18  1  0  0  0  0
 17  1  1  0  0  0  0
 18 23  1  0  0  0  0
 19 18  2  0  0  0  0
 20 19  1  0  0  0  0
 21 20  2  0  0  0  0
 21 22  1  0  0  0  0
 22 17  2  0  0  0  0
 24 19  1  0  0  0  0
 25 21  1  0  0  0  0
 26  5  1  0  0  0  0
 26 28  1  0  0  0  0
 27 26  1  0  0  0  0
 29 26  1  0  0  0  0
 30 29  1  0  0  0  0
 31 29  1  0  0  0  0
 32 40  1  0  0  0  0
 32 33  2  0  0  0  0
 33 34  1  0  0  0  0
 34 35  1  0  0  0  0
 34 38  1  0  0  0  0
 35 37  1  0  0  0  0
 36 35  2  0  0  0  0
 37 29  1  6  0  0  0
 38 39  1  6  0  0  0
 38 37  1  0  0  0  0
 40 41  1  0  0  0  0
 40 39  1  0  0  0  0
 42 43  1  0  0  0  0
 42 32  1  0  0  0  0
 44 46  1  0  0  0  0
 44 33  1  0  0  0  0
 45 44  2  0  0  0  0
 46 47  1  0  0  0  0
M  END
>  <minimizedAffinity>
-5.78889561

$$$$

 OpenBabel03242519553D

 47 50  0  0  1  0  0  0  0  0999 V2000
   40.0160   28.7070   42.4740 C   0  0  2  0  0  0  0  0  0  0  0  0
   38.7690   29.5020   42.5340 C   0  0  0  0  0  0  0  0  0  0  0  0
   37.8450   29.0440   43.6100 C   0  0  0  0  0  0  0  0  0  0  0  0
   37.5120   27.5780   43.5380 C   0  0  0  0  0  0  0  0  0  0  0  0
   38.6450   26.7110   43.0870 C   0  0  2  0  0  0  0  0  0  0  0  0
   39.9760   27.4220   43.2260 C   0  0  0  0  0  0  0  0  0  0  0  0
   40.1610   28.4620   41.3730 H   0  0  0  0  0  0  0  0  0  0  0  0
   38.2070   29.5580   41.5810 H   0  0  0  0  0  0  0  0  0  0  0  0
   39.0510   30.5540   42.7760 H   0  0  0  0  0  0  0  0  0  0  0  0
   36.8780   29.6030   43.4570 H   0  0  0  0  0  0  0  0  0  0  0  0
   38.2090   29.3670   44.6000 H   0  0  0  0  0  0  0  0  0  0  0  0
   37.1370   27.2880   44.5620 H   0  0  0  0  0  0  0  0  0  0  0  0
   36.6160   27.4390   42.8790 H   0  0  0  0  0  0  0  0  0  0  0  0
   38.6780   25.8410   43.7830 H   0  0  0  0  0  0  0  0  0  0  0  0
   40.2190   27.4060   44.2700 H   0  0  0  0  0  0  0  0  0  0  0  0
   40.7480   26.7590   42.7250 H   0  0  0  0  0  0  0  0  0  0  0  0
   41.2190   29.4610   42.8540 C   0  0  0  0  0  0  0  0  0  0  0  0
   42.2650   28.6600   43.3060 C   0  0  0  0  0  0  0  0  0  0  0  0
   43.4780   29.2440   43.6830 C   0  0  0  0  0  0  0  0  0  0  0  0
   43.5480   30.6220   43.5780 N   0  0  0  0  0  0  0  0  0  0  0  0
   42.5100   31.3600   43.1380 C   0  0  0  0  0  0  0  0  0  0  0  0
   41.3650   30.7750   42.7820 N   0  0  0  0  0  0  0  0  0  0  0  0
   42.4320   27.6070   43.4780 H   0  0  0  0  0  0  0  0  0  0  0  0
   44.3900   28.8310   44.0480 H   0  0  0  0  0  0  0  0  0  0  0  0
   42.6160   32.4380   43.0740 H   0  0  0  0  0  0  0  0  0  0  0  0
   38.3850   26.2130   41.7230 C   0  0  0  0  0  0  0  0  0  0  0  0
   38.5420   25.1150   41.6880 H   0  0  0  0  0  0  0  0  0  0  0  0
   39.1870   26.6270   41.0550 H   0  0  0  0  0  0  0  0  0  0  0  0
   37.0740   26.5090   41.1290 C   0  0  0  0  0  0  0  0  0  0  0  0
   36.3880   25.6630   41.3330 H   0  0  0  0  0  0  0  0  0  0  0  0
   36.6290   27.3980   41.6190 H   0  0  0  0  0  0  0  0  0  0  0  0
   37.0990   30.9360   39.5780 C   0  0  0  0  0  0  0  0  0  0  0  0
   37.9090   30.0750   39.0020 C   0  0  0  0  0  0  0  0  0  0  0  0
   37.7380   28.6960   39.1400 N   0  0  0  0  0  0  0  0  0  0  0  0
   38.3060   27.4210   39.2620 C   0  0  0  0  0  0  0  0  0  0  0  0
   39.4640   26.9080   39.1150 O   0  0  0  0  0  0  0  0  0  0  0  0
   37.0300   26.7530   39.6550 C   0  0  2  0  0  3  0  0  0  0  0  0
   36.4440   28.0710   39.2150 C   0  0  1  0  0  3  0  0  0  0  0  0
   35.4540   28.9090   40.4560 S   0  0  0  0  0  0  0  0  0  0  0  0
   35.9280   30.6350   40.4330 C   0  0  0  0  0  3  0  0  0  0  0  0
   35.0590   31.1930   39.9730 H   0  0  0  0  0  0  0  0  0  0  0  0
   37.3060   32.3910   39.4100 C   0  0  0  0  0  2  0  0  0  0  0  0
   37.9010   32.6530   38.5090 H   0  0  0  0  0  0  0  0  0  0  0  0
   39.0130   30.5760   38.1960 C   0  0  0  0  0  0  0  0  0  0  0  0
   40.2200   30.4720   38.5300 O   0  0  0  0  0  0  0  0  0  0  0  0
   39.8010   31.1390   37.2360 O   0  0  0  0  0  0  0  0  0  0  0  0
   39.4570   31.9240   36.6970 H   0  0  0  0  0  0  0  0  0  0  0  0
  1  7  1  6  0  0  0
  1  2  1  0  0  0  0
  1 17  1  0  0  0  0
  1  6  1  0  0  0  0
  2  9  1  0  0  0  0
  2  3  1  0  0  0  0
  3 11  1  0  0  0  0
  4  3  1  0  0  0  0
  4 12  1  0  0  0  0
  5  6  1  0  0  0  0
  5  4  1  0  0  0  0
  5 14  1  1  0  0  0
  6 15  1  0  0  0  0
  8  2  1  0  0  0  0
 10  3  1  0  0  0  0
 13  4  1  0  0  0  0
 16  6  1  0  0  0  0
 17 18  1  0  0  0  0
 18 23  1  0  0  0  0
 18 19  2  0  0  0  0
 19 24  1  0  0  0  0
 20 19  1  0  0  0  0
 21 20  2  0  0  0  0
 22 17  2  0  0  0  0
 22 21  1  0  0  0  0
 25 21  1  0  0  0  0
 26  5  1  0  0  0  0
 27 26  1  0  0  0  0
 28 26  1  0  0  0  0
 29 30  1  0  0  0  0
 29 31  1  0  0  0  0
 29 26  1  0  0  0  0
 32 40  1  0  0  0  0
 33 34  1  0  0  0  0
 33 32  2  0  0  0  0
 34 38  1  0  0  0  0
 34 35  1  0  0  0  0
 35 37  1  0  0  0  0
 36 35  2  0  0  0  0
 37 29  1  1  0  0  0
 38 37  1  0  0  0  0
 38 39  1  1  0  0  0
 40 39  1  0  0  0  0
 41 40  1  0  0  0  0
 42 32  1  0  0  0  0
 43 42  1  0  0  0  0
 44 45  2  0  0  0  0
 44 33  1  0  0  0  0
 46 44  1  0  0  0  0
 47 46  1  0  0  0  0
M  END
>  <minimizedAffinity>
-5.74671173

$$$$

 OpenBabel03242519553D

 47 50  0  0  1  0  0  0  0  0999 V2000
   39.7980   31.8670   39.3300 C   0  0  2  0  0  0  0  0  0  0  0  0
   39.3290   30.9590   38.2600 C   0  0  0  0  0  0  0  0  0  0  0  0
   37.9250   31.2380   37.8420 C   0  0  0  0  0  0  0  0  0  0  0  0
   36.9420   31.2340   38.9820 C   0  0  0  0  0  0  0  0  0  0  0  0
   37.4810   31.7930   40.2610 C   0  0  2  0  0  0  0  0  0  0  0  0
   38.7210   32.6310   40.0210 C   0  0  0  0  0  0  0  0  0  0  0  0
   40.2950   31.1930   40.0990 H   0  0  0  0  0  0  0  0  0  0  0  0
   39.4240   29.8790   38.4920 H   0  0  0  0  0  0  0  0  0  0  0  0
   39.9720   31.1300   37.3660 H   0  0  0  0  0  0  0  0  0  0  0  0
   37.6260   30.3960   37.1550 H   0  0  0  0  0  0  0  0  0  0  0  0
   37.8780   32.1470   37.2190 H   0  0  0  0  0  0  0  0  0  0  0  0
   36.0360   31.8010   38.6200 H   0  0  0  0  0  0  0  0  0  0  0  0
   36.5600   30.1920   39.1320 H   0  0  0  0  0  0  0  0  0  0  0  0
   36.7040   32.4870   40.6590 H   0  0  0  0  0  0  0  0  0  0  0  0
   38.3820   33.5630   39.6140 H   0  0  0  0  0  0  0  0  0  0  0  0
   39.1430   32.8820   41.0430 H   0  0  0  0  0  0  0  0  0  0  0  0
   40.8570   32.7930   38.9000 C   0  0  0  0  0  0  0  0  0  0  0  0
   41.4120   33.5340   39.9400 C   0  0  0  0  0  0  0  0  0  0  0  0
   42.4430   34.4400   39.6770 C   0  0  0  0  0  0  0  0  0  0  0  0
   42.8470   34.5360   38.3570 N   0  0  0  0  0  0  0  0  0  0  0  0
   42.2800   33.8010   37.3800 C   0  0  0  0  0  0  0  0  0  0  0  0
   41.2980   32.9420   37.6610 N   0  0  0  0  0  0  0  0  0  0  0  0
   41.2590   33.6340   41.0050 H   0  0  0  0  0  0  0  0  0  0  0  0
   43.0010   35.0940   40.3070 H   0  0  0  0  0  0  0  0  0  0  0  0
   42.6330   33.9130   36.3610 H   0  0  0  0  0  0  0  0  0  0  0  0
   37.6870   30.7070   41.2380 C   0  0  0  0  0  0  0  0  0  0  0  0
   37.0720   30.8950   42.1420 H   0  0  0  0  0  0  0  0  0  0  0  0
   38.7460   30.7800   41.6040 H   0  0  0  0  0  0  0  0  0  0  0  0
   37.4340   29.3310   40.7880 C   0  0  0  0  0  0  0  0  0  0  0  0
   36.7390   29.3570   39.9240 H   0  0  0  0  0  0  0  0  0  0  0  0
   38.3750   28.8750   40.4190 H   0  0  0  0  0  0  0  0  0  0  0  0
   38.2400   24.7390   40.2680 C   0  0  0  0  0  0  0  0  0  0  0  0
   38.3970   25.2630   41.4640 C   0  0  0  0  0  0  0  0  0  0  0  0
   37.8600   26.5070   41.8000 N   0  0  0  0  0  0  0  0  0  0  0  0
   37.9750   27.7150   42.5000 C   0  0  0  0  0  0  0  0  0  0  0  0
   38.7220   28.1810   43.4240 O   0  0  0  0  0  0  0  0  0  0  0  0
   36.8490   28.3830   41.7830 C   0  0  2  0  0  3  0  0  0  0  0  0
   36.5970   26.9780   41.2970 C   0  0  1  0  0  3  0  0  0  0  0  0
   36.5650   26.7910   39.5120 S   0  0  0  0  0  0  0  0  0  0  0  0
   37.5190   25.3280   39.1160 C   0  0  0  0  0  3  0  0  0  0  0  0
   36.7720   24.5460   38.7880 H   0  0  0  0  0  0  0  0  0  0  0  0
   38.8180   23.4170   39.9450 C   0  0  0  0  0  2  0  0  0  0  0  0
   39.0210   22.7900   40.8390 H   0  0  0  0  0  0  0  0  0  0  0  0
   39.1480   24.5200   42.4660 C   0  0  0  0  0  0  0  0  0  0  0  0
   40.2980   24.8450   42.8550 O   0  0  0  0  0  0  0  0  0  0  0  0
   39.5800   23.6300   43.4050 O   0  0  0  0  0  0  0  0  0  0  0  0
   39.2790   22.6640   43.3610 H   0  0  0  0  0  0  0  0  0  0  0  0
  1  6  1  0  0  0  0
  1  7  1  1  0  0  0
  2  8  1  0  0  0  0
  2  1  1  0  0  0  0
  3  2  1  0  0  0  0
  3  4  1  0  0  0  0
  4 13  1  0  0  0  0
  4  5  1  0  0  0  0
  5 14  1  1  0  0  0
  5 26  1  0  0  0  0
  6  5  1  0  0  0  0
  6 16  1  0  0  0  0
  9  2  1  0  0  0  0
 10  3  1  0  0  0  0
 11  3  1  0  0  0  0
 12  4  1  0  0  0  0
 15  6  1  0  0  0  0
 17  1  1  0  0  0  0
 17 18  1  0  0  0  0
 18 23  1  0  0  0  0
 19 18  2  0  0  0  0
 19 24  1  0  0  0  0
 20 19  1  0  0  0  0
 21 22  1  0  0  0  0
 21 20  2  0  0  0  0
 22 17  2  0  0  0  0
 25 21  1  0  0  0  0
 26 28  1  0  0  0  0
 26 27  1  0  0  0  0
 29 26  1  0  0  0  0
 30 29  1  0  0  0  0
 31 29  1  0  0  0  0
 32 33  2  0  0  0  0
 33 34  1  0  0  0  0
 33 44  1  0  0  0  0
 34 35  1  0  0  0  0
 35 36  2  0  0  0  0
 37 29  1  6  0  0  0
 37 35  1  0  0  0  0
 38 39  1  6  0  0  0
 38 37  1  0  0  0  0
 38 34  1  0  0  0  0
 40 39  1  0  0  0  0
 40 32  1  0  0  0  0
 41 40  1  0  0  0  0
 42 32  1  0  0  0  0
 42 43  1  0  0  0  0
 44 45  2  0  0  0  0
 44 46  1  0  0  0  0
 47 46  1  0  0  0  0
M  END
>  <minimizedAffinity>
-5.74529076

$$$$

 OpenBabel03242519553D

 47 50  0  0  1  0  0  0  0  0999 V2000
   37.1810   25.5730   39.9610 C   0  0  2  0  0  0  0  0  0  0  0  0
   38.3320   26.4010   39.5370 C   0  0  0  0  0  0  0  0  0  0  0  0
   39.5720   25.6000   39.3290 C   0  0  0  0  0  0  0  0  0  0  0  0
   39.9570   24.7630   40.5190 C   0  0  0  0  0  0  0  0  0  0  0  0
   38.7970   24.1890   41.2690 C   0  0  2  0  0  0  0  0  0  0  0  0
   37.5330   24.2050   40.4330 C   0  0  0  0  0  0  0  0  0  0  0  0
   36.7150   26.1340   40.8340 H   0  0  0  0  0  0  0  0  0  0  0  0
   38.5650   27.2520   40.2070 H   0  0  0  0  0  0  0  0  0  0  0  0
   38.0740   26.8580   38.5530 H   0  0  0  0  0  0  0  0  0  0  0  0
   40.4060   26.3420   39.1730 H   0  0  0  0  0  0  0  0  0  0  0  0
   39.5140   25.0310   38.3860 H   0  0  0  0  0  0  0  0  0  0  0  0
   40.6500   23.9610   40.1300 H   0  0  0  0  0  0  0  0  0  0  0  0
   40.6100   25.3700   41.1980 H   0  0  0  0  0  0  0  0  0  0  0  0
   39.0370   23.1160   41.4570 H   0  0  0  0  0  0  0  0  0  0  0  0
   37.6280   23.4040   39.7250 H   0  0  0  0  0  0  0  0  0  0  0  0
   36.6860   23.9000   41.1220 H   0  0  0  0  0  0  0  0  0  0  0  0
   36.1110   25.4850   38.9560 C   0  0  0  0  0  0  0  0  0  0  0  0
   35.8140   26.7000   38.3440 C   0  0  0  0  0  0  0  0  0  0  0  0
   34.8290   26.7590   37.3540 C   0  0  0  0  0  0  0  0  0  0  0  0
   34.2010   25.5640   37.0480 N   0  0  0  0  0  0  0  0  0  0  0  0
   34.5180   24.4100   37.6670 C   0  0  0  0  0  0  0  0  0  0  0  0
   35.4640   24.3840   38.6080 N   0  0  0  0  0  0  0  0  0  0  0  0
   36.1490   27.7240   38.4220 H   0  0  0  0  0  0  0  0  0  0  0  0
   34.4500   27.5640   36.7660 H   0  0  0  0  0  0  0  0  0  0  0  0
   33.9960   23.5010   37.3920 H   0  0  0  0  0  0  0  0  0  0  0  0
   38.6490   24.8720   42.5680 C   0  0  0  0  0  0  0  0  0  0  0  0
   38.6420   24.1240   43.3870 H   0  0  0  0  0  0  0  0  0  0  0  0
   37.6210   25.3230   42.5960 H   0  0  0  0  0  0  0  0  0  0  0  0
   39.6310   25.9130   42.9040 C   0  0  0  0  0  0  0  0  0  0  0  0
   40.4460   25.4590   43.5020 H   0  0  0  0  0  0  0  0  0  0  0  0
   40.1020   26.3020   41.9790 H   0  0  0  0  0  0  0  0  0  0  0  0
   38.9750   29.9660   40.6350 C   0  0  0  0  0  0  0  0  0  0  0  0
   38.0270   29.5520   41.4460 C   0  0  0  0  0  0  0  0  0  0  0  0
   38.2600   28.5700   42.4110 N   0  0  0  0  0  0  0  0  0  0  0  0
   37.7960   27.4660   43.1380 C   0  0  0  0  0  0  0  0  0  0  0  0
   36.6700   26.9000   43.3400 O   0  0  0  0  0  0  0  0  0  0  0  0
   39.1380   27.0950   43.6740 C   0  0  2  0  0  3  0  0  0  0  0  0
   39.5050   28.4500   43.1230 C   0  0  1  0  0  3  0  0  0  0  0  0
   40.8600   28.4450   41.9450 S   0  0  0  0  0  0  0  0  0  0  0  0
   40.3810   29.5010   40.5820 C   0  0  0  0  0  3  0  0  0  0  0  0
   41.0160   30.4310   40.6670 H   0  0  0  0  0  0  0  0  0  0  0  0
   38.6970   31.0100   39.6250 C   0  0  0  0  0  2  0  0  0  0  0  0
   37.8140   31.6390   39.8680 H   0  0  0  0  0  0  0  0  0  0  0  0
   36.6990   30.1380   41.3360 C   0  0  0  0  0  0  0  0  0  0  0  0
   35.6930   29.5060   40.9260 O   0  0  0  0  0  0  0  0  0  0  0  0
   35.6100   30.9580   41.3490 O   0  0  0  0  0  0  0  0  0  0  0  0
   35.7240   31.9510   41.1890 H   0  0  0  0  0  0  0  0  0  0  0  0
  1  6  1  0  0  0  0
  1  7  1  1  0  0  0
  2  1  1  0  0  0  0
  2  8  1  0  0  0  0
  3  2  1  0  0  0  0
  3  4  1  0  0  0  0
  4 13  1  0  0  0  0
  4  5  1  0  0  0  0
  5 14  1  1  0  0  0
  5 26  1  0  0  0  0
  6 16  1  0  0  0  0
  6  5  1  0  0  0  0
  9  2  1  0  0  0  0
 10  3  1  0  0  0  0
 11  3  1  0  0  0  0
 12  4  1  0  0  0  0
 15  6  1  0  0  0  0
 17  1  1  0  0  0  0
 18 23  1  0  0  0  0
 18 17  2  0  0  0  0
 19 18  1  0  0  0  0
 20 19  2  0  0  0  0
 20 21  1  0  0  0  0
 21 22  2  0  0  0  0
 22 17  1  0  0  0  0
 24 19  1  0  0  0  0
 25 21  1  0  0  0  0
 26 28  1  0  0  0  0
 26 29  1  0  0  0  0
 26 27  1  0  0  0  0
 29 30  1  0  0  0  0
 31 29  1  0  0  0  0
 32 33  2  0  0  0  0
 33 34  1  0  0  0  0
 34 38  1  0  0  0  0
 34 35  1  0  0  0  0
 35 36  2  0  0  0  0
 35 37  1  0  0  0  0
 37 29  1  6  0  0  0
 38 39  1  6  0  0  0
 38 37  1  0  0  0  0
 40 32  1  0  0  0  0
 40 41  1  0  0  0  0
 40 39  1  0  0  0  0
 42 43  1  0  0  0  0
 42 32  1  0  0  0  0
 44 46  1  0  0  0  0
 44 33  1  0  0  0  0
 45 44  2  0  0  0  0
 47 46  1  0  0  0  0
M  END
>  <minimizedAffinity>
-5.74437523

$$$$

 OpenBabel03242519553D

 47 50  0  0  1  0  0  0  0  0999 V2000
   39.0790   25.1150   40.1120 C   0  0  2  0  0  0  0  0  0  0  0  0
   38.8750   23.8370   40.8300 C   0  0  0  0  0  0  0  0  0  0  0  0
   37.4700   23.6560   41.2950 C   0  0  0  0  0  0  0  0  0  0  0  0
   36.9580   24.7980   42.1310 C   0  0  0  0  0  0  0  0  0  0  0  0
   37.4490   26.1440   41.7010 C   0  0  2  0  0  0  0  0  0  0  0  0
   37.9860   26.1120   40.2840 C   0  0  0  0  0  0  0  0  0  0  0  0
   40.0280   25.5580   40.5540 H   0  0  0  0  0  0  0  0  0  0  0  0
   39.5580   23.6710   41.6860 H   0  0  0  0  0  0  0  0  0  0  0  0
   39.0870   23.0090   40.1130 H   0  0  0  0  0  0  0  0  0  0  0  0
   37.4710   22.7450   41.9590 H   0  0  0  0  0  0  0  0  0  0  0  0
   36.8110   23.3940   40.4510 H   0  0  0  0  0  0  0  0  0  0  0  0
   35.8310   24.7290   42.1030 H   0  0  0  0  0  0  0  0  0  0  0  0
   37.2080   24.6060   43.2060 H   0  0  0  0  0  0  0  0  0  0  0  0
   36.5620   26.8190   41.6870 H   0  0  0  0  0  0  0  0  0  0  0  0
   37.1300   26.0830   39.6370 H   0  0  0  0  0  0  0  0  0  0  0  0
   38.4700   27.1200   40.1000 H   0  0  0  0  0  0  0  0  0  0  0  0
   39.3720   24.9500   38.6800 C   0  0  0  0  0  0  0  0  0  0  0  0
   39.7920   23.6670   38.3360 C   0  0  0  0  0  0  0  0  0  0  0  0
   40.0870   23.3650   37.0040 C   0  0  0  0  0  0  0  0  0  0  0  0
   39.9350   24.3990   36.0970 N   0  0  0  0  0  0  0  0  0  0  0  0
   39.5280   25.6270   36.4730 C   0  0  0  0  0  0  0  0  0  0  0  0
   39.2520   25.8870   37.7530 N   0  0  0  0  0  0  0  0  0  0  0  0
   39.9870   22.7390   38.8520 H   0  0  0  0  0  0  0  0  0  0  0  0
   40.4150   22.4690   36.5280 H   0  0  0  0  0  0  0  0  0  0  0  0
   39.4250   26.4030   35.7230 H   0  0  0  0  0  0  0  0  0  0  0  0
   38.4200   26.6620   42.6830 C   0  0  0  0  0  0  0  0  0  0  0  0
   39.1990   25.8980   42.8820 H   0  0  0  0  0  0  0  0  0  0  0  0
   37.8820   26.7690   43.6640 H   0  0  0  0  0  0  0  0  0  0  0  0
   39.0910   27.9330   42.3710 C   0  0  0  0  0  0  0  0  0  0  0  0
   40.1520   27.8640   42.6840 H   0  0  0  0  0  0  0  0  0  0  0  0
   39.0980   28.0970   41.2750 H   0  0  0  0  0  0  0  0  0  0  0  0
   40.0760   32.0810   40.4160 C   0  0  0  0  0  0  0  0  0  0  0  0
   38.8290   31.8380   40.7540 C   0  0  0  0  0  0  0  0  0  0  0  0
   38.4910   30.8100   41.6370 N   0  0  0  0  0  0  0  0  0  0  0  0
   37.5990   29.8000   42.0200 C   0  0  0  0  0  0  0  0  0  0  0  0
   36.4100   29.4530   41.7150 O   0  0  0  0  0  0  0  0  0  0  0  0
   38.5360   29.1710   42.9970 C   0  0  2  0  0  3  0  0  0  0  0  0
   39.3110   30.4420   42.7610 C   0  0  1  0  0  3  0  0  0  0  0  0
   41.0020   30.2040   42.2060 S   0  0  0  0  0  0  0  0  0  0  0  0
   41.2880   31.3590   40.8690 C   0  0  0  0  0  3  0  0  0  0  0  0
   41.9810   32.1500   41.2810 H   0  0  0  0  0  0  0  0  0  0  0  0
   40.4010   33.1790   39.4800 C   0  0  0  0  0  2  0  0  0  0  0  0
   39.6120   33.9590   39.4200 H   0  0  0  0  0  0  0  0  0  0  0  0
   37.7720   32.6670   40.1920 C   0  0  0  0  0  0  0  0  0  0  0  0
   36.9080   32.2390   39.3860 O   0  0  0  0  0  0  0  0  0  0  0  0
   36.9250   33.6810   39.8520 O   0  0  0  0  0  0  0  0  0  0  0  0
   37.2650   34.6330   39.8210 H   0  0  0  0  0  0  0  0  0  0  0  0
  1  6  1  0  0  0  0
  1  7  1  1  0  0  0
  1  2  1  0  0  0  0
  2  3  1  0  0  0  0
  2  8  1  0  0  0  0
  3 10  1  0  0  0  0
  3  4  1  0  0  0  0
  4 13  1  0  0  0  0
  5 14  1  1  0  0  0
  5  4  1  0  0  0  0
  5 26  1  0  0  0  0
  6  5  1  0  0  0  0
  9  2  1  0  0  0  0
 11  3  1  0  0  0  0
 12  4  1  0  0  0  0
 15  6  1  0  0  0  0
 16  6  1  0  0  0  0
 17  1  1  0  0  0  0
 18 17  1  0  0  0  0
 18 23  1  0  0  0  0
 19 18  2  0  0  0  0
 20 21  2  0  0  0  0
 20 19  1  0  0  0  0
 21 22  1  0  0  0  0
 22 17  2  0  0  0  0
 24 19  1  0  0  0  0
 25 21  1  0  0  0  0
 26 27  1  0  0  0  0
 26 28  1  0  0  0  0
 29 26  1  0  0  0  0
 29 30  1  0  0  0  0
 31 29  1  0  0  0  0
 32 33  2  0  0  0  0
 32 40  1  0  0  0  0
 33 34  1  0  0  0  0
 34 35  1  0  0  0  0
 34 38  1  0  0  0  0
 35 37  1  0  0  0  0
 36 35  2  0  0  0  0
 37 29  1  6  0  0  0
 38 39  1  6  0  0  0
 38 37  1  0  0  0  0
 40 41  1  0  0  0  0
 40 39  1  0  0  0  0
 42 32  1  0  0  0  0
 43 42  1  0  0  0  0
 44 33  1  0  0  0  0
 45 44  2  0  0  0  0
 46 44  1  0  0  0  0
 47 46  1  0  0  0  0
M  END
>  <minimizedAffinity>
-5.73998356

$$$$

 OpenBabel03242519553D

 47 50  0  0  1  0  0  0  0  0999 V2000
   36.5450   28.9950   39.4420 C   0  0  2  0  0  0  0  0  0  0  0  0
   37.7810   28.2020   39.2520 C   0  0  0  0  0  0  0  0  0  0  0  0
   37.8320   26.9970   40.1280 C   0  0  0  0  0  0  0  0  0  0  0  0
   37.6410   27.3030   41.5890 C   0  0  0  0  0  0  0  0  0  0  0  0
   36.6660   28.4030   41.8660 C   0  0  2  0  0  0  0  0  0  0  0  0
   35.7710   28.6640   40.6710 C   0  0  0  0  0  0  0  0  0  0  0  0
   36.8930   30.0740   39.5280 H   0  0  0  0  0  0  0  0  0  0  0  0
   38.7230   28.7730   39.3760 H   0  0  0  0  0  0  0  0  0  0  0  0
   37.7890   27.8370   38.1990 H   0  0  0  0  0  0  0  0  0  0  0  0
   38.8700   26.5700   40.0200 H   0  0  0  0  0  0  0  0  0  0  0  0
   37.1580   26.2110   39.7480 H   0  0  0  0  0  0  0  0  0  0  0  0
   37.3350   26.3320   42.0780 H   0  0  0  0  0  0  0  0  0  0  0  0
   38.6380   27.5280   42.0490 H   0  0  0  0  0  0  0  0  0  0  0  0
   36.0020   28.0430   42.6850 H   0  0  0  0  0  0  0  0  0  0  0  0
   35.0530   27.8680   40.6520 H   0  0  0  0  0  0  0  0  0  0  0  0
   35.1780   29.6010   40.9110 H   0  0  0  0  0  0  0  0  0  0  0  0
   35.6470   28.9800   38.2780 C   0  0  0  0  0  0  0  0  0  0  0  0
   34.2970   28.9060   38.6110 C   0  0  0  0  0  0  0  0  0  0  0  0
   33.3300   28.9030   37.6020 C   0  0  0  0  0  0  0  0  0  0  0  0
   33.8040   28.9760   36.3040 N   0  0  0  0  0  0  0  0  0  0  0  0
   35.1200   29.0440   36.0260 C   0  0  0  0  0  0  0  0  0  0  0  0
   36.0210   29.0470   37.0100 N   0  0  0  0  0  0  0  0  0  0  0  0
   33.7120   28.8320   39.5160 H   0  0  0  0  0  0  0  0  0  0  0  0
   32.2650   28.8550   37.6290 H   0  0  0  0  0  0  0  0  0  0  0  0
   35.4410   29.0990   34.9910 H   0  0  0  0  0  0  0  0  0  0  0  0
   37.3830   29.6040   42.3350 C   0  0  0  0  0  0  0  0  0  0  0  0
   36.9430   29.9550   43.2910 H   0  0  0  0  0  0  0  0  0  0  0  0
   37.1630   30.4330   41.6090 H   0  0  0  0  0  0  0  0  0  0  0  0
   38.8390   29.5020   42.5090 C   0  0  0  0  0  0  0  0  0  0  0  0
   39.0580   29.2510   43.5670 H   0  0  0  0  0  0  0  0  0  0  0  0
   39.2350   28.6660   41.9000 H   0  0  0  0  0  0  0  0  0  0  0  0
   41.1870   29.5870   38.4490 C   0  0  0  0  0  0  0  0  0  0  0  0
   40.4870   30.6500   38.7800 C   0  0  0  0  0  0  0  0  0  0  0  0
   40.0480   30.8650   40.0880 N   0  0  0  0  0  0  0  0  0  0  0  0
   39.0620   31.3430   40.9610 C   0  0  0  0  0  0  0  0  0  0  0  0
   38.0110   32.0590   40.8650 O   0  0  0  0  0  0  0  0  0  0  0  0
   39.6540   30.7100   42.1760 C   0  0  2  0  0  3  0  0  0  0  0  0
   40.8190   30.4920   41.2450 C   0  0  1  0  0  3  0  0  0  0  0  0
   41.3440   28.7830   41.0780 S   0  0  0  0  0  0  0  0  0  0  0  0
   41.6150   28.4800   39.3350 C   0  0  0  0  0  3  0  0  0  0  0  0
   42.7330   28.3950   39.2020 H   0  0  0  0  0  0  0  0  0  0  0  0
   41.6390   29.3900   37.0550 C   0  0  0  0  0  2  0  0  0  0  0  0
   41.6810   30.3300   36.4640 H   0  0  0  0  0  0  0  0  0  0  0  0
   40.1640   31.6300   37.7530 C   0  0  0  0  0  0  0  0  0  0  0  0
   40.7930   32.7070   37.5990 O   0  0  0  0  0  0  0  0  0  0  0  0
   39.6230   32.3280   36.7140 O   0  0  0  0  0  0  0  0  0  0  0  0
   38.6340   32.2490   36.5130 H   0  0  0  0  0  0  0  0  0  0  0  0
  1  7  1  1  0  0  0
  1  6  1  0  0  0  0
  2  8  1  0  0  0  0
  2  1  1  0  0  0  0
  2  3  1  0  0  0  0
  3  4  1  0  0  0  0
  4  5  1  0  0  0  0
  4 13  1  0  0  0  0
  4 12  1  0  0  0  0
  5 26  1  0  0  0  0
  5 14  1  1  0  0  0
  6 16  1  0  0  0  0
  6  5  1  0  0  0  0
  9  2  1  0  0  0  0
 10  3  1  0  0  0  0
 11  3  1  0  0  0  0
 15  6  1  0  0  0  0
 17 18  1  0  0  0  0
 17  1  1  0  0  0  0
 18 23  1  0  0  0  0
 19 24  1  0  0  0  0
 19 18  2  0  0  0  0
 20 19  1  0  0  0  0
 21 20  2  0  0  0  0
 21 22  1  0  0  0  0
 22 17  2  0  0  0  0
 25 21  1  0  0  0  0
 26 29  1  0  0  0  0
 26 27  1  0  0  0  0
 28 26  1  0  0  0  0
 29 30  1  0  0  0  0
 31 29  1  0  0  0  0
 32 33  2  0  0  0  0
 32 40  1  0  0  0  0
 33 34  1  0  0  0  0
 34 35  1  0  0  0  0
 34 38  1  0  0  0  0
 35 37  1  0  0  0  0
 36 35  2  0  0  0  0
 37 29  1  6  0  0  0
 38 39  1  6  0  0  0
 38 37  1  0  0  0  0
 40 39  1  0  0  0  0
 41 40  1  0  0  0  0
 42 32  1  0  0  0  0
 43 42  1  0  0  0  0
 44 33  1  0  0  0  0
 45 44  2  0  0  0  0
 46 44  1  0  0  0  0
 47 46  1  0  0  0  0
M  END
>  <minimizedAffinity>
-5.65657806

$$$$

 OpenBabel03242519553D

 47 50  0  0  1  0  0  0  0  0999 V2000
   32.6150   29.5430   36.7970 C   0  0  2  0  0  0  0  0  0  0  0  0
   32.9070   28.6340   35.6660 C   0  0  0  0  0  0  0  0  0  0  0  0
   33.1850   27.2370   36.1070 C   0  0  0  0  0  0  0  0  0  0  0  0
   34.2770   27.1350   37.1380 C   0  0  0  0  0  0  0  0  0  0  0  0
   34.3020   28.2630   38.1210 C   0  0  2  0  0  0  0  0  0  0  0  0
   32.9860   29.0130   38.1380 C   0  0  0  0  0  0  0  0  0  0  0  0
   33.2420   30.4720   36.6030 H   0  0  0  0  0  0  0  0  0  0  0  0
   33.7270   28.9680   35.0000 H   0  0  0  0  0  0  0  0  0  0  0  0
   31.9970   28.5940   35.0220 H   0  0  0  0  0  0  0  0  0  0  0  0
   33.5500   26.6840   35.1950 H   0  0  0  0  0  0  0  0  0  0  0  0
   32.2520   26.7280   36.3970 H   0  0  0  0  0  0  0  0  0  0  0  0
   34.1420   26.1350   37.6430 H   0  0  0  0  0  0  0  0  0  0  0  0
   35.2640   27.0370   36.6170 H   0  0  0  0  0  0  0  0  0  0  0  0
   34.4180   27.8050   39.1300 H   0  0  0  0  0  0  0  0  0  0  0  0
   32.2940   28.3970   38.6790 H   0  0  0  0  0  0  0  0  0  0  0  0
   33.1460   29.9290   38.7870 H   0  0  0  0  0  0  0  0  0  0  0  0
   31.2270   30.0260   36.8270 C   0  0  0  0  0  0  0  0  0  0  0  0
   30.7010   30.1460   38.1100 C   0  0  0  0  0  0  0  0  0  0  0  0
   29.3950   30.6130   38.2880 C   0  0  0  0  0  0  0  0  0  0  0  0
   28.7000   30.9300   37.1340 N   0  0  0  0  0  0  0  0  0  0  0  0
   29.2460   30.7960   35.9100 C   0  0  0  0  0  0  0  0  0  0  0  0
   30.4960   30.3490   35.7710 N   0  0  0  0  0  0  0  0  0  0  0  0
   31.0360   29.9570   39.1190 H   0  0  0  0  0  0  0  0  0  0  0  0
   28.8060   30.7810   39.1600 H   0  0  0  0  0  0  0  0  0  0  0  0
   28.6590   31.0570   35.0360 H   0  0  0  0  0  0  0  0  0  0  0  0
   35.4680   29.1300   37.8610 C   0  0  0  0  0  0  0  0  0  0  0  0
   35.1300   30.0930   37.4250 H   0  0  0  0  0  0  0  0  0  0  0  0
   36.0680   28.6510   37.0410 H   0  0  0  0  0  0  0  0  0  0  0  0
   36.3610   29.4240   38.9910 C   0  0  0  0  0  0  0  0  0  0  0  0
   36.2520   28.6260   39.7520 H   0  0  0  0  0  0  0  0  0  0  0  0
   37.4170   29.3950   38.6560 H   0  0  0  0  0  0  0  0  0  0  0  0
   39.6470   30.8720   42.0100 C   0  0  0  0  0  0  0  0  0  0  0  0
   39.1840   31.7390   41.1370 C   0  0  0  0  0  0  0  0  0  0  0  0
   37.9910   31.5240   40.4450 N   0  0  0  0  0  0  0  0  0  0  0  0
   37.2450   31.6550   39.2660 C   0  0  0  0  0  0  0  0  0  0  0  0
   37.3550   32.3000   38.1710 O   0  0  0  0  0  0  0  0  0  0  0  0
   36.1620   30.7250   39.6990 C   0  0  2  0  0  3  0  0  0  0  0  0
   36.8510   30.8700   41.0330 C   0  0  1  0  0  3  0  0  0  0  0  0
   37.3780   29.3270   41.7830 S   0  0  0  0  0  0  0  0  0  0  0  0
   39.0390   29.5790   42.4020 C   0  0  0  0  0  3  0  0  0  0  0  0
   38.9520   29.6070   43.5280 H   0  0  0  0  0  0  0  0  0  0  0  0
   40.9130   31.1300   42.7290 C   0  0  0  0  0  2  0  0  0  0  0  0
   41.1920   32.2050   42.7630 H   0  0  0  0  0  0  0  0  0  0  0  0
   39.9380   32.9600   40.8900 C   0  0  0  0  0  0  0  0  0  0  0  0
   40.4910   33.2240   39.7930 O   0  0  0  0  0  0  0  0  0  0  0  0
   40.5610   34.1700   40.9740 O   0  0  0  0  0  0  0  0  0  0  0  0
   40.9430   34.4810   41.8590 H   0  0  0  0  0  0  0  0  0  0  0  0
  1  7  1  6  0  0  0
  1 17  1  0  0  0  0
  1  6  1  0  0  0  0
  2  3  1  0  0  0  0
  2  1  1  0  0  0  0
  3 11  1  0  0  0  0
  3  4  1  0  0  0  0
  4 12  1  0  0  0  0
  4  5  1  0  0  0  0
  5  6  1  0  0  0  0
  5 14  1  1  0  0  0
  6 15  1  0  0  0  0
  6 16  1  0  0  0  0
  8  2  1  0  0  0  0
  9  2  1  0  0  0  0
 10  3  1  0  0  0  0
 13  4  1  0  0  0  0
 17 18  1  0  0  0  0
 18 19  2  0  0  0  0
 18 23  1  0  0  0  0
 19 24  1  0  0  0  0
 20 19  1  0  0  0  0
 21 20  2  0  0  0  0
 22 21  1  0  0  0  0
 22 17  2  0  0  0  0
 25 21  1  0  0  0  0
 26  5  1  0  0  0  0
 26 29  1  0  0  0  0
 27 26  1  0  0  0  0
 28 26  1  0  0  0  0
 29 30  1  0  0  0  0
 31 29  1  0  0  0  0
 32 40  1  0  0  0  0
 32 42  1  0  0  0  0
 33 32  2  0  0  0  0
 34 38  1  0  0  0  0
 34 33  1  0  0  0  0
 35 37  1  0  0  0  0
 35 34  1  0  0  0  0
 36 35  2  0  0  0  0
 37 29  1  6  0  0  0
 37 38  1  0  0  0  0
 38 39  1  6  0  0  0
 39 40  1  0  0  0  0
 40 41  1  0  0  0  0
 42 43  1  0  0  0  0
 44 46  1  0  0  0  0
 44 33  1  0  0  0  0
 45 44  2  0  0  0  0
 46 47  1  0  0  0  0
M  END
>  <minimizedAffinity>
-5.6456995

$$$$
