
     RDKit          3D

 51 55  0  0  0  0  0  0  0  0999 V2000
   44.5835   34.6667   43.5796 C   0  0  1  0  0  0  0  0  0  0  0  0
   45.1423   36.0571   43.4699 C   0  0  0  0  0  0  0  0  0  0  0  0
   45.2098   35.2560   42.3394 C   0  0  1  0  0  0  0  0  0  0  0  0
   46.5318   34.8267   41.8100 C   0  0  0  0  0  0  0  0  0  0  0  0
   47.7066   35.0047   42.5013 C   0  0  0  0  0  0  0  0  0  0  0  0
   48.9479   34.6672   42.0383 C   0  0  0  0  0  0  0  0  0  0  0  0
   49.0301   34.1053   40.7845 C   0  0  0  0  0  0  0  0  0  0  0  0
   47.8617   33.9080   40.0511 C   0  0  0  0  0  0  0  0  0  0  0  0
   46.6533   34.2712   40.5773 C   0  0  0  0  0  0  0  0  0  0  0  0
   45.2162   32.5888   39.6511 C   0  0  0  0  0  0  0  0  0  0  0  0
   45.8065   32.0488   40.5887 O   0  0  0  0  0  0  0  0  0  0  0  0
   45.6582   33.9571   39.5846 N   0  0  0  0  0  0  0  0  0  0  0  0
   45.2698   33.6823   44.4132 C   0  0  0  0  0  0  0  0  0  0  0  0
   45.4060   32.3915   43.8825 C   0  0  0  0  0  0  0  0  0  0  0  0
   46.0689   31.4481   44.6863 C   0  0  0  0  0  0  0  0  0  0  0  0
   46.5228   31.8570   45.9106 N   0  0  0  0  0  0  0  0  0  0  0  0
   46.3568   33.1365   46.3755 C   0  0  0  0  0  0  0  0  0  0  0  0
   45.7218   34.0700   45.6212 N   0  0  0  0  0  0  0  0  0  0  0  0
   43.4765   34.4825   43.5500 H   0  0  0  0  0  0  0  0  0  0  0  0
   44.3278   36.8419   43.5425 H   0  0  0  0  0  0  0  0  0  0  0  0
   45.9730   36.3503   44.1576 H   0  0  0  0  0  0  0  0  0  0  0  0
   44.4571   35.2494   41.5175 H   0  0  0  0  0  0  0  0  0  0  0  0
   47.6708   35.4463   43.4960 H   0  0  0  0  0  0  0  0  0  0  0  0
   49.8298   34.8405   42.6455 H   0  0  0  0  0  0  0  0  0  0  0  0
   50.0504   33.8496   40.4550 H   0  0  0  0  0  0  0  0  0  0  0  0
   48.1106   33.4599   39.0972 H   0  0  0  0  0  0  0  0  0  0  0  0
   44.4824   32.3058   38.8994 H   0  0  0  0  0  0  0  0  0  0  0  0
   45.3313   34.7083   38.9055 H   0  0  0  0  0  0  0  0  0  0  0  0
   45.0592   32.0032   42.9721 H   0  0  0  0  0  0  0  0  0  0  0  0
   46.2396   30.4212   44.3922 H   0  0  0  0  0  0  0  0  0  0  0  0
   46.8901   33.4960   47.7409 C   0  0  0  0  0  0  0  0  0  0  0  0
   47.5591   32.3522   48.3765 C   0  0  0  0  0  0  0  0  0  0  0  0
   48.8280   32.3599   48.7462 C   0  0  0  0  0  0  0  0  0  0  0  0
   49.7120   33.5038   48.5660 C   0  0  0  0  0  0  0  0  0  0  0  0
   49.6536   34.6645   48.1073 O   0  0  0  0  0  0  0  0  0  0  0  0
   51.0343   33.5063   48.9464 O   0  0  0  0  0  0  0  0  0  0  0  0
   49.3697   31.1982   49.3580 N   0  0  0  0  0  0  0  0  0  0  0  0
   50.4948   30.3599   49.5128 C   0  0  0  0  0  0  0  0  0  0  0  0
   51.7142   30.3173   49.1936 O   0  0  0  0  0  0  0  0  0  0  0  0
   49.7551   29.3426   50.2930 C   0  0  1  0  0  0  0  0  0  0  0  0
   49.5888   28.4015   49.7304 H   0  0  0  0  0  0  0  0  0  0  0  0
   48.6386   30.3276   50.2585 C   0  0  2  0  0  0  0  0  0  0  0  0
   47.1777   29.7823   49.3055 S   0  0  0  0  0  0  0  0  0  0  0  0
   46.5533   31.2714   48.4853 C   0  0  2  0  0  0  0  0  0  0  0  0
   46.2390   30.9681   47.4435 H   0  0  0  0  0  0  0  0  0  0  0  0
   46.0166   33.7738   48.4106 H   0  0  0  0  0  0  0  0  0  0  0  0
   47.4731   34.4305   47.6927 H   0  0  0  0  0  0  0  0  0  0  0  0
   51.8362   33.8014   48.4033 H   0  0  0  0  0  0  0  0  0  0  0  0
   50.0956   29.1724   51.3354 H   0  0  0  0  0  0  0  0  0  0  0  0
   48.3352   30.7647   51.2271 H   0  0  0  0  0  0  0  0  0  0  0  0
   45.6301   31.6495   48.9754 H   0  0  0  0  0  0  0  0  0  0  0  0
  1 13  1  0
  2  1  1  0
  3  2  1  0
  3  1  1  0
  4  3  1  0
  4  5  2  0
  6  5  1  0
  7  6  2  0
  8  9  2  0
  8  7  1  0
  9  4  1  0
 10 11  2  0
 12 10  1  0
 12  9  1  0
 13 18  1  0
 14 13  2  0
 14 15  1  0
 15 16  2  0
 16 17  1  0
 18 17  2  0
  1 19  1  6
  2 20  1  0
  2 21  1  0
  3 22  1  6
  5 23  1  0
  6 24  1  0
  7 25  1  0
  8 26  1  0
 10 27  1  0
 12 28  1  0
 14 29  1  0
 15 30  1  0
 31 32  1  0
 32 33  2  0
 33 34  1  0
 34 35  2  0
 34 36  1  0
 33 37  1  0
 37 38  1  0
 38 39  2  0
 38 40  1  0
 40 41  1  6
 40 42  1  0
 42 43  1  0
 43 44  1  0
 44 45  1  6
 44 32  1  0
 42 37  1  0
 31 46  1  0
 31 47  1  0
 36 48  1  0
 40 49  1  0
 42 50  1  1
 44 51  1  0
 17 31  1  0
M  ISO  8  19  13  20  13  21  13  22  13  23  14  24  14  25  14  26  14
M  ISO  5  27   6  29  14  30  14  41  15  45  15
M  END
>  <DihAtoms>  (1) 
15,16,30,31

>  <DihDeg>  (1) 
90.98412157463505

$$$$
