
 OpenBabel03242512343D

 27 29  0  0  1  0  0  0  0  0999 V2000
   43.3600   33.8360   40.3760 C   0  0  0  0  0  0  0  0  0  0  0  0
   43.3020   34.6880   41.3660 C   0  0  0  0  0  0  0  0  0  0  0  0
   44.4520   34.9250   42.1690 N   0  0  0  0  0  0  0  0  0  0  0  0
   44.9710   35.1440   43.4980 C   0  0  0  0  0  0  0  0  0  0  0  0
   44.4990   35.2820   44.6790 O   0  0  0  0  0  0  0  0  0  0  0  0
   46.3360   35.1520   42.9600 C   0  0  2  0  0  3  0  0  0  0  0  0
   45.7990   35.0220   41.5800 C   0  0  1  0  0  3  0  0  0  0  0  0
   46.0750   33.4750   40.7350 S   0  0  0  0  0  0  0  0  0  0  0  0
   44.5210   33.0250   39.9540 C   0  0  0  0  0  3  0  0  0  0  0  0
   44.6500   33.2310   38.8510 H   0  0  0  0  0  0  0  0  0  0  0  0
   47.2330   34.0530   43.4350 C   0  0  0  0  0  0  0  0  0  0  0  0
   48.4450   34.1930   43.0840 O   0  0  0  0  0  0  0  0  0  0  0  0
   46.6800   32.9870   44.2060 C   0  0  0  0  0  0  0  0  0  0  0  0
   46.8560   33.1420   45.5790 C   0  0  0  0  0  0  0  0  0  0  0  0
   46.3420   32.1380   46.4210 C   0  0  0  0  0  0  0  0  0  0  0  0
   45.7070   31.0840   45.8270 N   0  0  0  0  0  0  0  0  0  0  0  0
   45.5620   30.9780   44.4990 C   0  0  0  0  0  0  0  0  0  0  0  0
   46.0510   31.9350   43.6880 N   0  0  0  0  0  0  0  0  0  0  0  0
   47.3600   33.9810   46.0430 H   0  0  0  0  0  0  0  0  0  0  0  0
   46.4490   32.2050   47.4960 H   0  0  0  0  0  0  0  0  0  0  0  0
   45.0390   30.0900   44.1600 H   0  0  0  0  0  0  0  0  0  0  0  0
   42.0960   33.6850   39.6100 C   0  0  0  0  0  2  0  0  0  0  0  0
   42.2540   32.9530   38.7930 H   0  0  0  0  0  0  0  0  0  0  0  0
   42.0770   35.4330   41.6900 C   0  0  0  0  0  0  0  0  0  0  0  0
   41.2330   35.9230   40.9010 O   0  0  0  0  0  0  0  0  0  0  0  0
   41.6670   35.7110   42.9810 O   0  0  0  0  0  0  0  0  0  0  0  0
   40.7040   35.6460   43.2710 H   0  0  0  0  0  0  0  0  0  0  0  0
  1  2  2  0  0  0  0
  2 24  1  0  0  0  0
  2  3  1  0  0  0  0
  3  4  1  0  0  0  0
  4  5  2  0  0  0  0
  6 11  1  1  0  0  0
  6  4  1  0  0  0  0
  7  8  1  1  0  0  0
  7  3  1  0  0  0  0
  7  6  1  0  0  0  0
  9  1  1  0  0  0  0
  9  8  1  0  0  0  0
 10  9  1  0  0  0  0
 11 13  1  0  0  0  0
 12 11  2  0  0  0  0
 13 14  1  0  0  0  0
 14 19  1  0  0  0  0
 14 15  2  0  0  0  0
 15 20  1  0  0  0  0
 16 15  1  0  0  0  0
 17 16  2  0  0  0  0
 18 13  2  0  0  0  0
 18 17  1  0  0  0  0
 21 17  1  0  0  0  0
 22  1  1  0  0  0  0
 23 22  1  0  0  0  0
 24 26  1  0  0  0  0
 25 24  2  0  0  0  0
 26 27  1  0  0  0  0
M  END
>  <minimizedAffinity>
-5.02342701

>  <minimizedRMSD>
3.25338507

$$$$
