
 OpenBabel03242523373D

 26 28  0  0  1  0  0  0  0  0999 V2000
   46.4450   31.5660   45.4010 C   0  0  0  0  0  0  0  0  0  0  0  0
   47.2180   31.2040   46.3830 C   0  0  0  0  0  0  0  0  0  0  0  0
   47.9220   29.9800   46.3740 N   0  0  0  0  0  0  0  0  0  0  0  0
   48.4690   28.8640   47.0480 C   0  0  0  0  0  0  0  0  0  0  0  0
   48.6630   28.4920   48.2540 O   0  0  0  0  0  0  0  0  0  0  0  0
   48.8090   28.1340   45.8230 C   0  0  0  0  0  3  0  0  0  0  0  0
   48.1340   27.2660   45.6690 H   0  0  0  0  0  0  0  0  0  0  0  0
   48.4220   29.4010   45.1440 C   0  0  1  0  0  3  0  0  0  0  0  0
   46.9450   29.2010   44.0760 S   0  0  0  0  0  0  0  0  0  0  0  0
   46.1710   30.8100   44.1730 C   0  0  0  0  0  3  0  0  0  0  0  0
   46.5470   31.4240   43.3080 H   0  0  0  0  0  0  0  0  0  0  0  0
   47.4230   32.0290   47.5660 C   0  0  0  0  0  0  0  0  0  0  0  0
   47.2870   31.6730   48.7630 O   0  0  0  0  0  0  0  0  0  0  0  0
   47.7630   33.2580   48.0970 O   0  0  0  0  0  0  0  0  0  0  0  0
   47.1120   34.0550   48.0920 H   0  0  0  0  0  0  0  0  0  0  0  0
   45.7100   32.8400   45.4030 C   0  0  0  0  0  2  0  0  0  0  0  0
   45.5780   35.0790   42.3950 C   0  0  0  0  0  0  0  0  0  0  0  0
   46.9680   35.1600   42.0840 C   0  0  0  0  0  0  0  0  0  0  0  0
   47.8620   34.4560   42.9070 C   0  0  0  0  0  0  0  0  0  0  0  0
   47.3570   33.7460   43.9390 N   0  0  0  0  0  0  0  0  0  0  0  0
   46.0280   33.6910   44.2060 C   0  0  0  0  0  0  0  0  0  0  0  0
   45.1550   34.3530   43.4370 N   0  0  0  0  0  0  0  0  0  0  0  0
   44.8900   35.6100   41.7780 H   0  0  0  0  0  0  0  0  0  0  0  0
   47.2950   35.7450   41.2460 H   0  0  0  0  0  0  0  0  0  0  0  0
   49.6070   34.5220   42.5630 S   0  0  0  0  0  0  0  0  0  0  0  0
   50.2380   33.2850   42.7890 H   0  0  0  0  0  0  0  0  0  0  0  0
  1 16  1  0  0  0  0
  1  2  2  0  0  0  0
  2 12  1  0  0  0  0
  3  2  1  0  0  0  0
  3  4  1  0  0  0  0
  4  5  2  0  0  0  0
  6  4  1  0  0  0  0
  7  6  1  0  0  0  0
  8  9  1  6  0  0  0
  8  6  1  0  0  0  0
  8  3  1  0  0  0  0
  9 10  1  0  0  0  0
 10  1  1  0  0  0  0
 11 10  1  0  0  0  0
 12 14  1  0  0  0  0
 12 13  2  0  0  0  0
 15 14  1  0  0  0  0
 17 22  1  0  0  0  0
 18 17  2  0  0  0  0
 18 19  1  0  0  0  0
 19 20  2  0  0  0  0
 20 21  1  0  0  0  0
 21 16  1  0  0  0  0
 22 21  2  0  0  0  0
 23 17  1  0  0  0  0
 24 18  1  0  0  0  0
 25 26  1  0  0  0  0
 25 19  1  0  0  0  0
M  END
>  <minimizedAffinity>
-4.36462402

>  <minimizedRMSD>
1.6902684

$$$$
