
 OpenBabel03242520453D

 29 31  0  0  1  0  0  0  0  0999 V2000
   45.6200   31.2630   38.1620 C   0  0  0  0  0  0  0  0  0  0  0  0
   45.0640   31.7290   39.2670 C   0  0  0  0  0  0  0  0  0  0  0  0
   45.7800   31.6290   40.4900 N   0  0  0  0  0  0  0  0  0  0  0  0
   46.2520   32.3000   41.6870 C   0  0  0  0  0  0  0  0  0  0  0  0
   45.9020   33.3580   42.3160 O   0  0  0  0  0  0  0  0  0  0  0  0
   47.3100   31.2370   41.8670 C   0  0  2  0  0  3  0  0  0  0  0  0
   46.4180   30.3950   40.9780 C   0  0  2  0  0  3  0  0  0  0  0  0
   47.2290   29.6230   39.5640 S   0  0  0  0  0  0  0  0  0  0  0  0
   46.9590   30.6550   38.1040 C   0  0  0  0  0  3  0  0  0  0  0  0
   47.0850   30.0860   37.1620 H   0  0  0  0  0  0  0  0  0  0  0  0
   47.3960   30.7840   43.2920 C   0  0  0  0  0  0  0  0  0  0  0  0
   48.3690   31.2210   43.9490 O   0  0  0  0  0  0  0  0  0  0  0  0
   44.2470   29.7030   44.9140 C   0  0  0  0  0  0  0  0  0  0  0  0
   45.2600   30.5270   44.3750 C   0  0  0  0  0  0  0  0  0  0  0  0
   46.4000   29.9050   43.8250 C   0  0  0  0  0  0  0  0  0  0  0  0
   46.4480   28.5460   43.8500 N   0  0  0  0  0  0  0  0  0  0  0  0
   45.4540   27.7980   44.3780 C   0  0  0  0  0  0  0  0  0  0  0  0
   44.3780   28.3870   44.8970 N   0  0  0  0  0  0  0  0  0  0  0  0
   43.0980   30.3140   45.4700 N   0  0  0  0  0  0  0  0  0  0  0  0
   45.1340   31.6050   44.3990 H   0  0  0  0  0  0  0  0  0  0  0  0
   45.5460   26.7180   44.3710 H   0  0  0  0  0  0  0  0  0  0  0  0
   43.3870   30.7590   46.3890 H   0  0  0  0  0  0  0  0  0  0  0  0
   42.1170   30.3450   45.0760 H   0  0  0  0  0  0  0  0  0  0  0  0
   44.8440   31.3770   36.9300 C   0  0  0  0  0  2  0  0  0  0  0  0
   43.8820   30.8310   36.9920 H   0  0  0  0  0  0  0  0  0  0  0  0
   43.7380   32.3370   39.2850 C   0  0  0  0  0  0  0  0  0  0  0  0
   43.1020   32.7730   40.2590 O   0  0  0  0  0  0  0  0  0  0  0  0
   42.8830   32.5670   38.2200 O   0  0  0  0  0  0  0  0  0  0  0  0
   41.9490   32.1930   38.1430 H   0  0  0  0  0  0  0  0  0  0  0  0
  1  2  2  0  0  0  0
  2 26  1  0  0  0  0
  2  3  1  0  0  0  0
  3  7  1  0  0  0  0
  3  4  1  0  0  0  0
  4  6  1  0  0  0  0
  4  5  2  0  0  0  0
  6 11  1  1  0  0  0
  7  8  1  6  0  0  0
  7  6  1  0  0  0  0
  9  1  1  0  0  0  0
  9  8  1  0  0  0  0
 10  9  1  0  0  0  0
 11 15  1  0  0  0  0
 11 12  2  0  0  0  0
 13 19  1  0  0  0  0
 14 20  1  0  0  0  0
 14 13  2  0  0  0  0
 15 16  2  0  0  0  0
 15 14  1  0  0  0  0
 16 17  1  0  0  0  0
 17 18  2  0  0  0  0
 18 13  1  0  0  0  0
 19 22  1  0  0  0  0
 21 17  1  0  0  0  0
 23 19  1  0  0  0  0
 24 25  1  0  0  0  0
 24  1  1  0  0  0  0
 26 27  2  0  0  0  0
 28 26  1  0  0  0  0
 29 28  1  0  0  0  0
M  END
>  <minimizedAffinity>
0.207047865

>  <minimizedRMSD>
3.7865262

$$$$
