
     RDKit          3D

 42 45  0  0  0  0  0  0  0  0999 V2000
   46.2733   34.1734   40.9853 C   0  0  0  0  0  0  0  0  0  0  0  0
   46.8333   34.8312   42.0431 C   0  0  0  0  0  0  0  0  0  0  0  0
   48.0807   35.3753   41.8564 C   0  0  0  0  0  0  0  0  0  0  0  0
   48.7482   35.2644   40.6465 C   0  0  0  0  0  0  0  0  0  0  0  0
   48.1747   34.6086   39.6119 C   0  0  0  0  0  0  0  0  0  0  0  0
   46.9029   34.0346   39.7484 C   0  0  0  0  0  0  0  0  0  0  0  0
   44.5038   36.0152   44.7686 C   0  0  0  0  0  0  0  0  0  0  0  0
   45.2125   35.9684   43.5557 C   0  0  0  0  0  0  0  0  0  0  0  0
   46.0882   34.9145   43.2743 C   0  0  0  0  0  0  0  0  0  0  0  0
   46.1880   33.9797   44.2377 N   0  0  0  0  0  0  0  0  0  0  0  0
   45.5060   34.0295   45.3992 C   0  0  0  0  0  0  0  0  0  0  0  0
   44.6699   35.0333   45.6708 N   0  0  0  0  0  0  0  0  0  0  0  0
   45.0163   33.6058   41.1236 O   0  0  0  0  0  0  0  0  0  0  0  0
   46.2523   33.3521   38.7385 O   0  0  0  0  0  0  0  0  0  0  0  0
   48.5503   35.9025   42.6761 H   0  0  0  0  0  0  0  0  0  0  0  0
   49.7346   35.6896   40.4854 H   0  0  0  0  0  0  0  0  0  0  0  0
   48.6819   34.5142   38.6628 H   0  0  0  0  0  0  0  0  0  0  0  0
   43.8502   36.8676   44.8984 H   0  0  0  0  0  0  0  0  0  0  0  0
   45.1004   36.7436   42.8093 H   0  0  0  0  0  0  0  0  0  0  0  0
   45.6842   33.2071   46.0848 H   0  0  0  0  0  0  0  0  0  0  0  0
   45.0075   32.5914   41.1753 H   0  0  0  0  0  0  0  0  0  0  0  0
   46.9674   33.2527   37.4938 C   0  0  0  0  0  0  0  0  0  0  0  0
   48.2438   32.5566   37.6591 C   0  0  0  0  0  0  0  0  0  0  0  0
   49.4183   33.0522   37.4035 C   0  0  0  0  0  0  0  0  0  0  0  0
   49.6166   34.4073   36.9046 C   0  0  0  0  0  0  0  0  0  0  0  0
   48.9053   35.3925   36.5943 O   0  0  0  0  0  0  0  0  0  0  0  0
   50.8509   34.9537   36.6332 O   0  0  0  0  0  0  0  0  0  0  0  0
   50.5666   32.2463   37.6111 N   0  0  0  0  0  0  0  0  0  0  0  0
   51.9204   32.1973   38.0652 C   0  0  0  0  0  0  0  0  0  0  0  0
   52.8337   32.9933   38.4740 O   0  0  0  0  0  0  0  0  0  0  0  0
   51.9680   30.7274   37.8997 C   0  0  2  0  0  0  0  0  0  0  0  0
   52.0476   30.1519   38.8450 H   0  0  0  0  0  0  0  0  0  0  0  0
   50.6069   30.8087   37.2927 C   0  0  1  0  0  0  0  0  0  0  0  0
   49.2806   30.0862   38.3179 S   0  0  0  0  0  0  0  0  0  0  0  0
   47.8702   31.2168   38.1718 C   0  0  2  0  0  0  0  0  0  0  0  0
   47.1515   30.6888   37.4743 H   0  0  0  0  0  0  0  0  0  0  0  0
   47.0259   34.2506   37.0304 H   0  0  0  0  0  0  0  0  0  0  0  0
   46.2289   32.6991   36.8342 H   0  0  0  0  0  0  0  0  0  0  0  0
   51.2119   35.8475   36.9400 H   0  0  0  0  0  0  0  0  0  0  0  0
   52.7359   30.4634   37.1361 H   0  0  0  0  0  0  0  0  0  0  0  0
   50.5497   30.5737   36.2252 H   0  0  0  0  0  0  0  0  0  0  0  0
   47.3060   31.2772   39.1415 H   0  0  0  0  0  0  0  0  0  0  0  0
  1 13  1  0
  1  2  2  0
  2  9  1  0
  3  2  1  0
  4  3  2  0
  5  6  2  0
  5  4  1  0
  6  1  1  0
  7 12  2  0
  8  7  1  0
  9  8  2  0
  9 10  1  0
 10 11  2  0
 11 12  1  0
 14  6  1  0
  3 15  1  0
  4 16  1  0
  5 17  1  0
  7 18  1  0
  8 19  1  0
 11 20  1  0
 13 21  1  0
 22 23  1  0
 23 24  2  0
 24 25  1  0
 25 26  2  0
 25 27  1  0
 24 28  1  0
 28 29  1  0
 29 30  2  0
 29 31  1  0
 31 32  1  1
 31 33  1  0
 33 34  1  0
 34 35  1  0
 35 36  1  6
 35 23  1  0
 33 28  1  0
 22 37  1  0
 22 38  1  0
 27 39  1  0
 31 40  1  0
 33 41  1  6
 35 42  1  0
 14 22  1  0
M  ISO  8  15  14  16  14  17  14  18  14  19  14  20  14  21   3  32  15
M  ISO  1  36  15
M  END
>  <DihAtoms>  (1) 
5,13,21,22

>  <DihDeg>  (1) 
-179.891492650451

$$$$
