
     RDKit          3D

 46 49  0  0  0  0  0  0  0  0999 V2000
   44.5266   36.0090   44.6125 C   0  0  0  0  0  0  0  0  0  0  0  0
   45.2635   35.7837   43.4491 C   0  0  0  0  0  0  0  0  0  0  0  0
   46.1115   34.6603   43.4050 C   0  0  0  0  0  0  0  0  0  0  0  0
   46.1425   33.8776   44.5149 N   0  0  0  0  0  0  0  0  0  0  0  0
   45.4264   34.1171   45.6147 C   0  0  0  0  0  0  0  0  0  0  0  0
   44.6143   35.1753   45.6831 N   0  0  0  0  0  0  0  0  0  0  0  0
   46.9566   34.2934   42.2400 C   0  0  1  0  0  0  0  0  0  0  0  0
   46.1524   34.1870   40.9743 C   0  0  0  0  0  0  0  0  0  0  0  0
   47.1123   33.5920   39.9497 C   0  0  0  0  0  0  0  0  0  0  0  0
   48.1153   34.6831   39.6390 C   0  0  0  0  0  0  0  0  0  0  0  0
   48.8131   35.2188   40.8310 C   0  0  0  0  0  0  0  0  0  0  0  0
   48.0175   35.3637   42.0617 C   0  0  2  0  0  0  0  0  0  0  0  0
   43.8941   36.8830   44.5913 H   0  0  0  0  0  0  0  0  0  0  0  0
   45.2468   36.3886   42.5766 H   0  0  0  0  0  0  0  0  0  0  0  0
   45.5580   33.4057   46.4125 H   0  0  0  0  0  0  0  0  0  0  0  0
   47.4514   33.3421   42.4209 H   0  0  0  0  0  0  0  0  0  0  0  0
   45.8264   35.2141   40.6515 H   0  0  0  0  0  0  0  0  0  0  0  0
   45.3248   33.4718   41.0676 H   0  0  0  0  0  0  0  0  0  0  0  0
   46.6096   33.2885   39.0351 H   0  0  0  0  0  0  0  0  0  0  0  0
   47.6231   32.7464   40.4797 H   0  0  0  0  0  0  0  0  0  0  0  0
   47.4979   35.5257   39.2090 H   0  0  0  0  0  0  0  0  0  0  0  0
   48.8241   34.4126   38.8568 H   0  0  0  0  0  0  0  0  0  0  0  0
   49.6868   34.5519   41.0443 H   0  0  0  0  0  0  0  0  0  0  0  0
   49.2315   36.2047   40.5411 H   0  0  0  0  0  0  0  0  0  0  0  0
   47.4686   36.3267   42.0325 H   0  0  0  0  0  0  0  0  0  0  0  0
   48.8990   35.3173   43.3176 C   0  0  0  0  0  0  0  0  0  0  0  0
   49.2688   33.9450   43.7121 C   0  0  0  0  0  0  0  0  0  0  0  0
   48.9468   33.3790   44.8602 C   0  0  0  0  0  0  0  0  0  0  0  0
   48.1724   34.0589   45.8916 C   0  0  0  0  0  0  0  0  0  0  0  0
   47.6325   35.1767   46.0519 O   0  0  0  0  0  0  0  0  0  0  0  0
   47.8465   33.4646   47.0904 O   0  0  0  0  0  0  0  0  0  0  0  0
   49.3628   32.0474   45.1090 N   0  0  0  0  0  0  0  0  0  0  0  0
   49.7560   31.0453   46.0326 C   0  0  0  0  0  0  0  0  0  0  0  0
   49.7142   30.9346   47.2870 O   0  0  0  0  0  0  0  0  0  0  0  0
   50.2571   30.1204   45.0141 C   0  0  1  0  0  0  0  0  0  0  0  0
   51.3600   30.1511   45.0029 H   0  0  0  0  0  0  0  0  0  0  0  0
   49.5388   31.0641   44.0773 C   0  0  2  0  0  0  0  0  0  0  0  0
   50.7830   31.7663   42.9347 S   0  0  0  0  0  0  0  0  0  0  0  0
   50.0506   33.3628   42.5916 C   0  0  1  0  0  0  0  0  0  0  0  0
   49.4098   33.2080   41.6720 H   0  0  0  0  0  0  0  0  0  0  0  0
   48.4369   35.9346   44.1031 H   0  0  0  0  0  0  0  0  0  0  0  0
   49.8372   35.9108   43.0640 H   0  0  0  0  0  0  0  0  0  0  0  0
   47.9185   33.8665   48.0162 H   0  0  0  0  0  0  0  0  0  0  0  0
   49.8146   29.1015   45.0204 H   0  0  0  0  0  0  0  0  0  0  0  0
   48.6293   30.6823   43.5943 H   0  0  0  0  0  0  0  0  0  0  0  0
   50.8463   34.0544   42.2090 H   0  0  0  0  0  0  0  0  0  0  0  0
  1  6  2  0
  2  1  1  0
  3  2  2  0
  3  4  1  0
  4  5  2  0
  5  6  1  0
  7  3  1  0
  8  7  1  0
  9  8  1  0
 10  9  1  0
 10 11  1  0
 11 12  1  0
 12  7  1  0
  1 13  1  0
  2 14  1  0
  5 15  1  0
  7 16  1  1
  8 17  1  0
  8 18  1  0
  9 19  1  0
  9 20  1  0
 10 21  1  0
 10 22  1  0
 11 23  1  0
 11 24  1  0
 12 25  1  6
 26 27  1  0
 27 28  2  0
 28 29  1  0
 29 30  2  0
 29 31  1  0
 28 32  1  0
 32 33  1  0
 33 34  2  0
 33 35  1  0
 35 36  1  6
 35 37  1  0
 37 38  1  0
 38 39  1  0
 39 40  1  6
 39 27  1  0
 37 32  1  0
 26 41  1  0
 26 42  1  0
 31 43  1  0
 35 44  1  0
 37 45  1  6
 39 46  1  0
 12 26  1  0
M  ISO  8  13  14  14  14  15  14  16  13  17  13  18  13  19  13  20  13
M  ISO  7  21  13  22  13  23  13  24  13  25  13  36  15  40  15
M  END
>  <DihAtoms>  (1) 
10,11,25,26

>  <DihDeg>  (1) 
54.99107006944674

$$$$
