
     RDKit          3D

 35 37  0  0  0  0  0  0  0  0999 V2000
   45.5311   34.0335   45.5854 C   0  0  0  0  0  0  0  0  0  0  0  0
   46.2376   33.8999   44.3812 C   0  0  0  0  0  0  0  0  0  0  0  0
   47.0849   32.7898   44.2331 C   0  0  0  0  0  0  0  0  0  0  0  0
   47.1620   31.9128   45.2788 N   0  0  0  0  0  0  0  0  0  0  0  0
   46.4701   32.0805   46.4077 C   0  0  0  0  0  0  0  0  0  0  0  0
   45.6694   33.1259   46.5524 N   0  0  0  0  0  0  0  0  0  0  0  0
   44.7245   35.1172   45.6895 O   0  0  0  0  0  0  0  0  0  0  0  0
   44.3892   35.9542   44.6312 C   0  0  0  0  0  0  0  0  0  0  0  0
   45.0208   37.0229   44.3092 O   0  0  0  0  0  0  0  0  0  0  0  0
   43.2876   35.7404   43.7484 N   0  0  0  0  0  0  0  0  0  0  0  0
   46.2082   34.5628   43.5341 H   0  0  0  0  0  0  0  0  0  0  0  0
   47.6706   32.5942   43.3505 H   0  0  0  0  0  0  0  0  0  0  0  0
   43.2630   35.5358   42.7111 H   0  0  0  0  0  0  0  0  0  0  0  0
   42.2421   35.6704   43.5876 H   0  0  0  0  0  0  0  0  0  0  0  0
   46.5984   31.0787   47.5229 C   0  0  0  0  0  0  0  0  0  0  0  0
   47.2272   29.8273   47.0922 C   0  0  0  0  0  0  0  0  0  0  0  0
   46.4941   28.7385   47.2297 C   0  0  0  0  0  0  0  0  0  0  0  0
   45.1394   28.7685   47.7760 C   0  0  0  0  0  0  0  0  0  0  0  0
   44.4125   27.7454   47.9257 O   0  0  0  0  0  0  0  0  0  0  0  0
   43.9710   29.2528   48.3103 O   0  0  0  0  0  0  0  0  0  0  0  0
   46.9982   27.4797   46.8452 N   0  0  0  0  0  0  0  0  0  0  0  0
   47.1366   26.0587   47.0598 C   0  0  0  0  0  0  0  0  0  0  0  0
   46.3300   25.2291   47.5227 O   0  0  0  0  0  0  0  0  0  0  0  0
   48.5244   26.2321   46.4994 C   0  0  1  0  0  0  0  0  0  0  0  0
   49.2050   26.6913   47.2477 H   0  0  0  0  0  0  0  0  0  0  0  0
   47.8219   27.2833   45.6674 C   0  0  2  0  0  0  0  0  0  0  0  0
   48.7828   28.7189   45.2306 S   0  0  0  0  0  0  0  0  0  0  0  0
   48.5984   29.9037   46.5609 C   0  0  1  0  0  0  0  0  0  0  0  0
   48.7483   30.9173   46.1052 H   0  0  0  0  0  0  0  0  0  0  0  0
   45.6231   30.9921   48.0020 H   0  0  0  0  0  0  0  0  0  0  0  0
   47.2786   31.4993   48.3238 H   0  0  0  0  0  0  0  0  0  0  0  0
   43.4747   29.9861   47.8042 H   0  0  0  0  0  0  0  0  0  0  0  0
   48.9189   25.3605   45.9719 H   0  0  0  0  0  0  0  0  0  0  0  0
   47.3155   26.8370   44.8047 H   0  0  0  0  0  0  0  0  0  0  0  0
   49.3713   29.7030   47.3306 H   0  0  0  0  0  0  0  0  0  0  0  0
  1  7  1  0
  1  6  2  0
  2  1  1  0
  3  2  2  0
  3  4  1  0
  4  5  2  0
  5  6  1  0
  8  7  1  0
  9  8  2  0
 10  8  1  0
  2 11  1  0
  3 12  1  0
 10 13  1  0
 10 14  1  0
 15 16  1  0
 16 17  2  0
 17 18  1  0
 18 19  2  0
 18 20  1  0
 17 21  1  0
 21 22  1  0
 22 23  2  0
 22 24  1  0
 24 25  1  1
 24 26  1  0
 26 27  1  0
 27 28  1  0
 28 29  1  6
 28 16  1  0
 26 21  1  0
 15 30  1  0
 15 31  1  0
 20 32  1  0
 24 33  1  0
 26 34  1  6
 28 35  1  0
  5 15  1  0
M  ISO  4  11  14  12  14  25  15  29  15
M  END
>  <DihAtoms>  (1) 
3,4,14,15

>  <DihDeg>  (1) 
90.02617900482592

$$$$
