
 OpenBabel03242510083D

 35 38  0  0  1  0  0  0  0  0999 V2000
   43.4420   32.1550   42.0860 Br  0  0  0  0  0  0  0  0  0  0  0  0
   44.9490   32.9060   41.1870 C   0  0  0  0  0  0  0  0  0  0  0  0
   45.9120   33.6020   41.8970 C   0  0  0  0  0  0  0  0  0  0  0  0
   47.0140   34.1680   41.2640 C   0  0  0  0  0  0  0  0  0  0  0  0
   47.1100   34.0120   39.9080 C   0  0  0  0  0  0  0  0  0  0  0  0
   46.1330   33.3160   39.2340 C   0  0  0  0  0  0  0  0  0  0  0  0
   45.0550   32.7570   39.8310 C   0  0  0  0  0  0  0  0  0  0  0  0
   47.7600   34.7110   41.8430 H   0  0  0  0  0  0  0  0  0  0  0  0
   47.9730   34.4550   39.3950 H   0  0  0  0  0  0  0  0  0  0  0  0
   46.2970   33.2560   38.1720 H   0  0  0  0  0  0  0  0  0  0  0  0
   46.1160   32.8980   45.4770 C   0  0  0  0  0  0  0  0  0  0  0  0
   45.4300   33.9660   46.0810 C   0  0  0  0  0  0  0  0  0  0  0  0
   44.9000   34.9270   45.2240 C   0  0  0  0  0  0  0  0  0  0  0  0
   45.0740   34.7750   43.8890 N   0  0  0  0  0  0  0  0  0  0  0  0
   45.7450   33.7270   43.3470 C   0  0  0  0  0  0  0  0  0  0  0  0
   46.2660   32.7860   44.1570 N   0  0  0  0  0  0  0  0  0  0  0  0
   46.4970   32.1960   46.2130 H   0  0  0  0  0  0  0  0  0  0  0  0
   45.2670   34.1290   47.1180 H   0  0  0  0  0  0  0  0  0  0  0  0
   44.3380   35.8240   45.4980 H   0  0  0  0  0  0  0  0  0  0  0  0
   44.0040   32.0150   39.0810 C   0  0  0  0  0  2  0  0  0  0  0  0
   42.7880   32.7790   38.8060 C   0  0  0  0  0  0  0  0  0  0  0  0
   41.6410   32.1510   38.8130 C   0  0  0  0  0  0  0  0  0  0  0  0
   40.4510   32.8860   38.5570 N   0  0  0  0  0  0  0  0  0  0  0  0
   39.1890   32.9390   37.8570 C   0  0  0  0  0  0  0  0  0  0  0  0
   38.4150   32.1010   37.2780 O   0  0  0  0  0  0  0  0  0  0  0  0
   39.1180   34.4160   38.0730 C   0  0  0  0  0  3  0  0  0  0  0  0
   38.1080   34.6640   38.4910 H   0  0  0  0  0  0  0  0  0  0  0  0
   40.1500   34.1920   39.1550 C   0  0  2  0  0  3  0  0  0  0  0  0
   41.6240   35.1840   39.1040 S   0  0  0  0  0  0  0  0  0  0  0  0
   43.0160   34.2100   38.5150 C   0  0  0  0  0  3  0  0  0  0  0  0
   43.2110   34.3790   37.4200 H   0  0  0  0  0  0  0  0  0  0  0  0
   41.4590   30.7210   39.0730 C   0  0  0  0  0  0  0  0  0  0  0  0
   41.0240   30.1930   40.1230 O   0  0  0  0  0  0  0  0  0  0  0  0
   41.5750   29.4520   38.5840 O   0  0  0  0  0  0  0  0  0  0  0  0
   40.8600   29.0440   37.9660 H   0  0  0  0  0  0  0  0  0  0  0  0
  2  3  1  0  0  0  0
  2  1  1  0  0  0  0
  3 15  1  0  0  0  0
  4  8  1  0  0  0  0
  4  3  2  0  0  0  0
  5  4  1  0  0  0  0
  6  7  1  0  0  0  0
  6  5  2  0  0  0  0
  7  2  2  0  0  0  0
  9  5  1  0  0  0  0
 10  6  1  0  0  0  0
 11 12  1  0  0  0  0
 11 17  1  0  0  0  0
 12 18  1  0  0  0  0
 13 19  1  0  0  0  0
 13 12  2  0  0  0  0
 14 13  1  0  0  0  0
 15 14  2  0  0  0  0
 15 16  1  0  0  0  0
 16 11  2  0  0  0  0
 20  7  1  0  0  0  0
 21 22  2  0  0  0  0
 21 20  1  0  0  0  0
 22 32  1  0  0  0  0
 23 22  1  0  0  0  0
 23 28  1  0  0  0  0
 24 26  1  0  0  0  0
 24 23  1  0  0  0  0
 25 24  2  0  0  0  0
 26 27  1  0  0  0  0
 28 26  1  6  0  0  0
 29 28  1  0  0  0  0
 30 21  1  0  0  0  0
 30 29  1  0  0  0  0
 31 30  1  0  0  0  0
 32 33  2  0  0  0  0
 34 32  1  0  0  0  0
 35 34  1  0  0  0  0
M  END
>  <minimizedAffinity>
-4.99033022

>  <minimizedRMSD>
2.17154002

$$$$
