
 OpenBabel03252503093D

 34 38  0  0  1  0  0  0  0  0999 V2000
   46.2120   34.8790   42.2550 C   0  0  2  0  0  3  0  0  0  0  0  0
   47.3310   35.4970   42.1040 O   0  0  0  0  0  1  0  0  0  0  0  0
   43.1350   31.7900   39.1980 C   0  0  0  0  0  0  0  0  0  0  0  0
   42.7200   32.8850   39.7690 C   0  0  0  0  0  0  0  0  0  0  0  0
   43.5370   33.7190   40.5800 N   0  0  0  0  0  0  0  0  0  0  0  0
   43.9790   34.9720   41.0950 C   0  0  2  0  0  0  0  0  0  0  0  0
   43.3440   36.0210   41.3690 O   0  0  0  0  0  1  0  0  0  0  0  0
   45.3300   34.4180   41.1090 C   0  0  2  0  0  3  0  0  0  0  0  0
   44.5550   33.1570   41.4370 C   0  0  2  0  0  0  0  0  0  0  0  0
   45.3700   31.7210   40.7820 S   0  0  0  0  0  0  0  0  0  0  0  0
   44.4880   31.2550   39.2980 C   0  0  0  0  0  3  0  0  0  0  0  0
   44.4090   30.1370   39.2900 H   0  0  0  0  0  0  0  0  0  0  0  0
   42.0890   31.1130   38.4160 C   0  0  0  0  0  2  0  0  0  0  0  0
   42.5870   30.4140   37.6840 H   0  0  0  0  0  0  0  0  0  0  0  0
   41.3310   33.2850   39.5690 C   0  0  0  0  0  0  0  0  0  0  0  0
   40.5720   33.7530   40.4860 O   0  0  0  0  0  0  0  0  0  0  0  0
   40.0660   33.5920   39.1480 O   0  0  0  0  0  0  0  0  0  0  0  0
   39.7580   33.4150   38.1810 H   0  0  0  0  0  0  0  0  0  0  0  0
   44.9460   35.5330   44.2440 C   0  0  0  0  0  0  0  0  0  0  0  0
   45.8570   34.6700   43.6060 C   0  0  0  0  0  0  0  0  0  0  0  0
   46.3230   33.6270   44.4120 C   0  0  0  0  0  0  0  0  0  0  0  0
   45.9260   33.4680   45.6860 N   0  0  0  0  0  0  0  0  0  0  0  0
   45.0410   34.3350   46.2510 C   0  0  0  0  0  0  0  0  0  0  0  0
   44.5560   35.3640   45.5230 N   0  0  0  0  0  0  0  0  0  0  0  0
   44.5610   36.3590   43.6510 H   0  0  0  0  0  0  0  0  0  0  0  0
   44.7570   34.1600   47.2760 H   0  0  0  0  0  0  0  0  0  0  0  0
   47.2350   32.7300   43.8670 C   0  0  0  0  0  0  0  0  0  0  0  0
   48.3700   32.8390   43.0980 C   0  0  0  0  0  0  0  0  0  0  0  0
   49.0950   31.8330   42.6790 C   0  0  0  0  0  0  0  0  0  0  0  0
   48.6540   30.5820   43.0610 C   0  0  0  0  0  0  0  0  0  0  0  0
   47.1320   30.9730   44.0580 S   0  0  0  0  0  0  0  0  0  0  0  0
   48.8540   33.7410   42.7580 H   0  0  0  0  0  0  0  0  0  0  0  0
   49.9720   31.6320   42.1040 H   0  0  0  0  0  0  0  0  0  0  0  0
   48.8630   29.5260   42.9920 H   0  0  0  0  0  0  0  0  0  0  0  0
  1  2  1  1  0  0  0
  1 20  1  0  0  0  0
  3 11  1  0  0  0  0
  3  4  2  0  0  0  0
  4  5  1  0  0  0  0
  5  6  1  0  0  0  0
  5  9  1  0  0  0  0
  6  8  1  0  0  0  0
  6  7  1  1  0  0  0
  6  9  1  0  0  0  0
  8  9  1  0  0  0  0
  8  1  1  1  0  0  0
  9 10  1  1  0  0  0
 11 10  1  0  0  0  0
 12 11  1  0  0  0  0
 13  3  1  0  0  0  0
 14 13  1  0  0  0  0
 15  4  1  0  0  0  0
 15 16  2  0  0  0  0
 17 15  1  0  0  0  0
 18 17  1  0  0  0  0
 19 24  1  0  0  0  0
 20 19  2  0  0  0  0
 20 21  1  0  0  0  0
 21 22  2  0  0  0  0
 22 23  1  0  0  0  0
 23 26  1  0  0  0  0
 24 23  2  0  0  0  0
 25 19  1  0  0  0  0
 27 31  1  0  0  0  0
 27 21  1  0  0  0  0
 28 27  2  0  0  0  0
 29 30  2  0  0  0  0
 29 28  1  0  0  0  0
 30 31  1  0  0  0  0
 32 28  1  0  0  0  0
 33 29  1  0  0  0  0
 34 30  1  0  0  0  0
M  END
>  <minimizedAffinity>
-5.21096182

>  <minimizedRMSD>
2.26576734

$$$$
