
     RDKit          3D

 40 43  0  0  0  0  0  0  0  0999 V2000
   47.3017   34.7536   41.9878 C   0  0  0  0  0  0  0  0  0  0  0  0
   48.1817   35.5747   41.6406 O   0  0  0  0  0  0  0  0  0  0  0  0
   46.4399   34.8065   43.1202 C   0  0  0  0  0  0  0  0  0  0  0  0
   45.5568   35.8670   43.0804 C   0  0  0  0  0  0  0  0  0  0  0  0
   44.6623   36.0043   44.1574 C   0  0  0  0  0  0  0  0  0  0  0  0
   44.7129   35.1028   45.1624 N   0  0  0  0  0  0  0  0  0  0  0  0
   45.6059   34.0797   45.1440 C   0  0  0  0  0  0  0  0  0  0  0  0
   46.4728   33.9310   44.1188 N   0  0  0  0  0  0  0  0  0  0  0  0
   47.1472   33.6439   41.1559 O   0  0  0  0  0  0  0  0  0  0  0  0
   47.3021   33.7463   39.7679 C   0  0  0  0  0  0  0  0  0  0  0  0
   48.2978   34.3363   39.0106 C   0  0  0  0  0  0  0  0  0  0  0  0
   47.9733   34.1572   37.6727 C   0  0  0  0  0  0  0  0  0  0  0  0
   46.7753   33.4547   37.6896 C   0  0  0  0  0  0  0  0  0  0  0  0
   46.4182   33.2350   38.9298 O   0  0  0  0  0  0  0  0  0  0  0  0
   45.4765   36.6179   42.2961 H   0  0  0  0  0  0  0  0  0  0  0  0
   43.9414   36.8121   44.1940 H   0  0  0  0  0  0  0  0  0  0  0  0
   45.5977   33.3855   45.9833 H   0  0  0  0  0  0  0  0  0  0  0  0
   49.1491   34.8318   39.4481 H   0  0  0  0  0  0  0  0  0  0  0  0
   48.5712   34.5149   36.8255 H   0  0  0  0  0  0  0  0  0  0  0  0
   46.0389   33.0334   36.4455 C   0  0  0  0  0  0  0  0  0  0  0  0
   46.5600   31.7089   36.1103 C   0  0  0  0  0  0  0  0  0  0  0  0
   47.1476   31.5073   34.9529 C   0  0  0  0  0  0  0  0  0  0  0  0
   47.2827   32.6027   33.9987 C   0  0  0  0  0  0  0  0  0  0  0  0
   47.8282   32.5165   32.8675 O   0  0  0  0  0  0  0  0  0  0  0  0
   47.2453   33.8184   33.3460 O   0  0  0  0  0  0  0  0  0  0  0  0
   47.6623   30.2585   34.5805 N   0  0  0  0  0  0  0  0  0  0  0  0
   48.6717   29.4940   33.9348 C   0  0  0  0  0  0  0  0  0  0  0  0
   49.4512   29.6674   32.9847 O   0  0  0  0  0  0  0  0  0  0  0  0
   48.3933   28.3967   34.8865 C   0  0  1  0  0  0  0  0  0  0  0  0
   48.4628   27.3836   34.4917 H   0  0  0  0  0  0  0  0  0  0  0  0
   46.9951   29.0111   34.9201 C   0  0  1  0  0  0  0  0  0  0  0  0
   46.2326   29.0130   36.5382 S   0  0  0  0  0  0  0  0  0  0  0  0
   46.3573   30.7124   37.1584 C   0  0  1  0  0  0  0  0  0  0  0  0
   47.1914   30.7036   37.9166 H   0  0  0  0  0  0  0  0  0  0  0  0
   46.1828   33.7857   35.6746 H   0  0  0  0  0  0  0  0  0  0  0  0
   44.9708   33.0426   36.7317 H   0  0  0  0  0  0  0  0  0  0  0  0
   46.5205   34.5184   33.4234 H   0  0  0  0  0  0  0  0  0  0  0  0
   48.9482   28.6000   35.8298 H   0  0  0  0  0  0  0  0  0  0  0  0
   46.4144   28.5994   34.0819 H   0  0  0  0  0  0  0  0  0  0  0  0
   45.4458   30.8765   37.7692 H   0  0  0  0  0  0  0  0  0  0  0  0
  1  3  1  0
  2  1  2  0
  3  8  1  0
  4  3  2  0
  4  5  1  0
  5  6  2  0
  7  6  1  0
  8  7  2  0
  9  1  1  0
 10  9  1  0
 11 10  2  0
 12 13  2  0
 12 11  1  0
 13 14  1  0
 14 10  1  0
  4 15  1  0
  5 16  1  0
  7 17  1  0
 11 18  1  0
 12 19  1  0
 20 21  1  0
 21 22  2  0
 22 23  1  0
 23 24  2  0
 23 25  1  0
 22 26  1  0
 26 27  1  0
 27 28  2  0
 27 29  1  0
 29 30  1  6
 29 31  1  0
 31 32  1  0
 32 33  1  0
 33 34  1  1
 33 21  1  0
 31 26  1  0
 20 35  1  0
 20 36  1  0
 25 37  1  0
 29 38  1  0
 31 39  1  6
 33 40  1  0
 13 20  1  0
M  ISO  7  15  14  16  14  17  14  18  14  19  14  30  15  34  15
M  END
>  <DihAtoms>  (1) 
11,12,19,20

>  <DihDeg>  (1) 
89.95726316256577

$$$$
