
 OpenBabel03252503093D

 34 38  0  0  1  0  0  0  0  0999 V2000
   46.9070   34.5510   41.9250 C   0  0  2  0  0  0  0  0  0  0  0  0
   48.0120   35.2090   41.8740 O   0  0  0  0  0  0  0  0  0  0  0  0
   43.7850   32.0180   38.4330 C   0  0  0  0  0  0  0  0  0  0  0  0
   44.8430   32.6970   38.0960 C   0  0  0  0  0  0  0  0  0  0  0  0
   45.6860   33.3700   39.0230 N   0  0  0  0  0  0  0  0  0  0  0  0
   46.9400   33.8380   39.5110 C   0  0  2  0  0  0  0  0  0  0  0  0
   47.9530   34.2670   38.9030 O   0  0  0  0  0  0  0  0  0  0  0  0
   46.4440   33.5750   40.8580 C   0  0  2  0  0  0  0  0  0  0  0  0
   45.1410   33.9970   40.2050 C   0  0  2  0  0  0  0  0  0  0  0  0
   43.7610   33.1470   40.9300 S   0  0  0  0  0  0  0  0  0  0  0  0
   43.3030   31.8390   39.7990 C   0  0  0  0  0  0  0  0  0  0  0  0
   42.1840   31.8050   39.7590 H   0  0  0  0  0  0  0  0  0  0  0  0
   43.0880   31.4220   37.2820 C   0  0  0  0  0  0  0  0  0  0  0  0
   42.4330   30.5830   37.6560 H   0  0  0  0  0  0  0  0  0  0  0  0
   45.1910   32.7800   36.6820 C   0  0  0  0  0  0  0  0  0  0  0  0
   46.3380   32.4870   36.1980 O   0  0  0  0  0  0  0  0  0  0  0  0
   45.2850   32.9340   35.3250 O   0  0  0  0  0  0  0  0  0  0  0  0
   44.5000   33.2960   34.7650 H   0  0  0  0  0  0  0  0  0  0  0  0
   45.5170   36.0790   43.2350 C   0  0  0  0  0  0  0  0  0  0  0  0
   46.1360   34.8250   43.0760 C   0  0  0  0  0  0  0  0  0  0  0  0
   45.8920   33.9260   44.1190 C   0  0  0  0  0  0  0  0  0  0  0  0
   45.1260   34.2410   45.1780 N   0  0  0  0  0  0  0  0  0  0  0  0
   44.5510   35.4710   45.2770 C   0  0  0  0  0  0  0  0  0  0  0  0
   44.7510   36.3840   44.3020 N   0  0  0  0  0  0  0  0  0  0  0  0
   45.6840   36.8080   42.4450 H   0  0  0  0  0  0  0  0  0  0  0  0
   43.9470   35.6700   46.1480 H   0  0  0  0  0  0  0  0  0  0  0  0
   46.4730   32.6650   44.0510 C   0  0  0  0  0  0  0  0  0  0  0  0
   47.7540   32.1740   44.1410 C   0  0  0  0  0  0  0  0  0  0  0  0
   48.0860   30.9120   44.0390 C   0  0  0  0  0  0  0  0  0  0  0  0
   47.0410   30.0370   43.8250 C   0  0  0  0  0  0  0  0  0  0  0  0
   45.5630   31.1690   43.7850 S   0  0  0  0  0  0  0  0  0  0  0  0
   48.6600   32.7250   44.3430 H   0  0  0  0  0  0  0  0  0  0  0  0
   48.9470   30.2820   44.0660 H   0  0  0  0  0  0  0  0  0  0  0  0
   46.7890   28.9980   43.6820 H   0  0  0  0  0  0  0  0  0  0  0  0
  1  2  1  6  0  0  0
  1 20  1  0  0  0  0
  3 11  1  0  0  0  0
  4  3  2  0  0  0  0
  4  5  1  0  0  0  0
  5  6  1  0  0  0  0
  5  9  1  0  0  0  0
  6  7  1  6  0  0  0
  6  9  1  0  0  0  0
  6  8  1  0  0  0  0
  8  1  1  1  0  0  0
  9  8  1  0  0  0  0
  9 10  1  1  0  0  0
 11 10  1  0  0  0  0
 12 11  1  0  0  0  0
 13 14  1  0  0  0  0
 13  3  1  0  0  0  0
 15  4  1  0  0  0  0
 16 15  2  0  0  0  0
 17 15  1  0  0  0  0
 18 17  1  0  0  0  0
 19 24  1  0  0  0  0
 20 19  2  0  0  0  0
 20 21  1  0  0  0  0
 21 22  2  0  0  0  0
 22 23  1  0  0  0  0
 23 26  1  0  0  0  0
 24 23  2  0  0  0  0
 25 19  1  0  0  0  0
 27 21  1  0  0  0  0
 27 28  2  0  0  0  0
 28 32  1  0  0  0  0
 29 33  1  0  0  0  0
 29 28  1  0  0  0  0
 30 29  2  0  0  0  0
 31 30  1  0  0  0  0
 31 27  1  0  0  0  0
 34 30  1  0  0  0  0
M  END
>  <minimizedAffinity>
-5.31992674

>  <minimizedRMSD>
0.61644727

$$$$
