REMARK  Name = 
REMARK  7 active torsions:
REMARK  status: ('A' for Active; 'I' for Inactive)
REMARK    1  A    between atoms: C_1  and  C_2
REMARK    2  A    between atoms: C_1  and  C_14
REMARK    3  A    between atoms: C_13  and  C_15
REMARK    4  A    between atoms: C_19  and  C_39
REMARK    5  A    between atoms: C_39  and  C_40
REMARK    6  A    between atoms: C_41  and  C_42
REMARK    7  A    between atoms: C_42  and  O_44
REMARK                            x       y       z     vdW  Elec       q    Type
REMARK                         _______ _______ _______ _____ _____    ______ ____
ROOT
ATOM      1  C   UNL     1      45.671  32.945  46.743  0.00  0.00    +0.000 C 
ATOM      2  H   UNL     1      44.725  32.440  46.449  0.00  0.00    +0.000 HD
ATOM      3  H   UNL     1      45.416  33.946  47.147  0.00  0.00    +0.000 HD
ENDROOT
BRANCH   1   4
ATOM      4  C   UNL     1      46.399  32.161  47.785  0.00  0.00    +0.000 A 
ATOM      5  C   UNL     1      45.928  31.821  49.026  0.00  0.00    +0.000 A 
ATOM      6  N   UNL     1      46.899  31.127  49.620  0.00  0.00    +0.000 N 
ATOM      7  C   UNL     1      47.970  31.006  48.820  0.00  0.00    +0.000 A 
ATOM      8  N   UNL     1      47.646  31.659  47.669  0.00  0.00    +0.000 NA
ATOM      9  N   UNL     1      49.220  30.369  49.005  0.00  0.00    +0.000 N 
ATOM     10  C   UNL     1      50.300  31.167  49.625  0.00  0.00    +0.000 C 
ATOM     11  C   UNL     1      50.399  30.633  51.049  0.00  0.00    +0.000 C 
ATOM     12  C   UNL     1      50.434  29.126  51.050  0.00  0.00    +0.000 C 
ATOM     13  C   UNL     1      50.770  28.629  49.666  0.00  0.00    +0.000 C 
ATOM     14  C   UNL     1      49.681  29.047  48.702  0.00  0.00    +0.000 C 
ATOM     15  H   UNL     1      44.958  32.059  49.462  0.00  0.00    +0.000 HD
ATOM     16  H   UNL     1      46.881  30.709  50.584  0.00  0.00    +0.000 HD
ATOM     17  H   UNL     1      51.237  31.096  49.068  0.00  0.00    +0.000 HD
ATOM     18  H   UNL     1      50.004  32.239  49.714  0.00  0.00    +0.000 HD
ATOM     19  H   UNL     1      49.617  31.060  51.680  0.00  0.00    +0.000 HD
ATOM     20  H   UNL     1      51.385  30.997  51.448  0.00  0.00    +0.000 HD
ATOM     21  H   UNL     1      49.418  28.753  51.302  0.00  0.00    +0.000 HD
ATOM     22  H   UNL     1      51.111  28.709  51.809  0.00  0.00    +0.000 HD
ATOM     23  H   UNL     1      51.723  29.128  49.358  0.00  0.00    +0.000 HD
ATOM     24  H   UNL     1      50.947  27.543  49.653  0.00  0.00    +0.000 HD
ATOM     25  H   UNL     1      48.864  28.296  48.836  0.00  0.00    +0.000 HD
ATOM     26  H   UNL     1      50.005  29.035  47.646  0.00  0.00    +0.000 HD
ENDBRANCH   1   4
BRANCH   1  28
ATOM     27  C   UNL     1      46.146  33.884  44.516  0.00  0.00    +0.000 C 
ATOM     28  C   UNL     1      46.535  33.173  45.565  0.00  0.00    +0.000 C 
BRANCH  27  29
ATOM     29  C   UNL     1      47.101  34.031  43.417  0.00  0.00    +0.000 A 
ATOM     30  C   UNL     1      46.900  35.024  42.412  0.00  0.00    +0.000 A 
ATOM     31  C   UNL     1      47.870  35.078  41.410  0.00  0.00    +0.000 A 
ATOM     32  N   UNL     1      48.930  34.233  41.407  0.00  0.00    +0.000 NA
ATOM     33  C   UNL     1      49.085  33.298  42.388  0.00  0.00    +0.000 A 
ATOM     34  N   UNL     1      48.174  33.224  43.355  0.00  0.00    +0.000 NA
ATOM     35  H   UNL     1      46.037  35.634  42.508  0.00  0.00    +0.000 HD
ATOM     36  H   UNL     1      47.709  35.829  40.659  0.00  0.00    +0.000 HD
BRANCH  33  37
ATOM     37  C   UNL     1      50.227  32.404  42.457  0.00  0.00    +0.000 C 
BRANCH  37  38
ATOM     38  C   UNL     1      50.572  31.575  41.327  0.00  0.00    +0.000 C 
ATOM     39  C   UNL     1      50.084  31.402  40.115  0.00  0.00    +0.000 C 
ATOM     40  N   UNL     1      50.641  30.467  39.198  0.00  0.00    +0.000 N 
ATOM     41  C   UNL     1      51.135  30.191  37.894  0.00  0.00    +0.000 C 
ATOM     42  O   UNL     1      50.807  30.654  36.758  0.00  0.00    +0.000 OA
ATOM     43  C   UNL     1      52.073  29.229  38.538  0.00  0.00    +0.000 C 
ATOM     44  H   UNL     1      52.340  28.358  37.930  0.00  0.00    +0.000 HD
ATOM     45  C   UNL     1      50.946  29.051  39.503  0.00  0.00    +0.000 C 
ATOM     46  S   UNL     1      51.392  29.032  41.252  0.00  0.00    +0.000 S 
ATOM     47  C   UNL     1      51.782  30.780  41.660  0.00  0.00    +0.000 C 
ATOM     48  H   UNL     1      52.594  31.083  40.962  0.00  0.00    +0.000 HD
BRANCH  39  49
ATOM     49  C   UNL     1      48.926  32.200  39.751  0.00  0.00    +0.000 C 
ATOM     50  O   UNL     1      48.434  32.080  38.605  0.00  0.00    +0.000 OA
BRANCH  49  51
ATOM     51  O   UNL     1      47.835  32.986  39.480  0.00  0.00    +0.000 OA
ATOM     52  H   UNL     1      47.072  33.191  40.146  0.00  0.00    +0.000 HD
ENDBRANCH  49  51
ENDBRANCH  39  49
ENDBRANCH  37  38
ENDBRANCH  33  37
ENDBRANCH  27  29
ENDBRANCH   1  28
TORSDOF 7
