
 OpenBabel03242511193D

 46 50  0  0  1  0  0  0  0  0999 V2000
   44.5600   35.4700   44.6440 C   0  0  0  0  0  0  0  0  0  0  0  0
   45.2640   35.4470   43.4020 C   0  0  0  0  0  0  0  0  0  0  0  0
   46.3740   34.5850   43.3220 C   0  0  0  0  0  0  0  0  0  0  0  0
   46.6930   33.8450   44.4160 N   0  0  0  0  0  0  0  0  0  0  0  0
   46.0000   33.9010   45.5610 C   0  0  0  0  0  0  0  0  0  0  0  0
   44.9320   34.7140   45.6760 N   0  0  0  0  0  0  0  0  0  0  0  0
   43.7010   36.1130   44.7630 H   0  0  0  0  0  0  0  0  0  0  0  0
   44.9490   36.0650   42.5810 H   0  0  0  0  0  0  0  0  0  0  0  0
   47.3010   34.5060   41.8020 S   0  0  0  0  0  0  0  0  0  0  0  0
   48.0660   32.8290   41.7280 C   0  0  0  0  0  0  0  0  0  0  0  0
   47.2280   32.1400   42.0460 H   0  0  0  0  0  0  0  0  0  0  0  0
   48.8400   32.7070   42.4800 H   0  0  0  0  0  0  0  0  0  0  0  0
   48.3900   32.4790   40.3570 C   0  0  0  0  0  0  0  0  0  0  0  0
   49.6040   32.2210   40.0200 C   0  0  0  0  0  0  0  0  0  0  0  0
   49.9340   31.8770   38.6920 N   0  0  0  0  0  0  0  0  0  0  0  0
   50.6500   30.9810   37.8060 C   0  0  0  0  0  0  0  0  0  0  0  0
   51.6880   30.2730   37.8910 O   0  0  0  0  0  0  0  0  0  0  0  0
   49.5720   31.3210   36.8010 C   0  0  0  0  0  0  0  0  0  0  0  0
   49.4320   32.6360   37.5230 C   0  0  1  0  0  0  0  0  0  0  0  0
   47.7680   33.1980   37.8610 S   0  0  0  0  0  0  0  0  0  0  0  0
   47.2390   32.4470   39.4310 C   0  0  0  0  0  0  0  0  0  0  0  0
   50.0200   31.4130   35.8070 H   0  0  0  0  0  0  0  0  0  0  0  0
   48.6910   30.6460   36.9000 H   0  0  0  0  0  0  0  0  0  0  0  0
   50.1270   33.3900   37.1490 H   0  0  0  0  0  0  0  0  0  0  0  0
   46.3670   33.0080   39.7600 H   0  0  0  0  0  0  0  0  0  0  0  0
   46.9130   31.3920   39.3140 H   0  0  0  0  0  0  0  0  0  0  0  0
   50.6830   32.2830   41.0190 C   0  0  0  0  0  0  0  0  0  0  0  0
   51.8310   31.7560   40.8850 O   0  0  0  0  0  0  0  0  0  0  0  0
   51.4440   32.5210   42.1170 O   0  0  0  0  0  0  0  0  0  0  0  0
   51.1460   32.6400   43.0770 H   0  0  0  0  0  0  0  0  0  0  0  0
   46.5910   32.9700   46.5890 C   0  0  0  0  0  0  0  0  0  0  0  0
   46.2100   31.5790   46.3340 C   0  0  0  0  0  0  0  0  0  0  0  0
   46.1060   30.5730   47.1610 C   0  0  0  0  0  0  0  0  0  0  0  0
   45.7270   29.2320   46.7800 N   0  0  0  0  0  0  0  0  0  0  0  0
   44.9700   28.0460   46.9520 C   0  0  0  0  0  0  0  0  0  0  0  0
   44.5130   27.5010   48.0020 O   0  0  0  0  0  0  0  0  0  0  0  0
   45.0290   27.8730   45.4780 C   0  0  0  0  0  0  0  0  0  0  0  0
   45.0890   26.8250   45.1390 H   0  0  0  0  0  0  0  0  0  0  0  0
   46.3490   28.5950   45.6320 C   0  0  1  0  0  0  0  0  0  0  0  0
   46.5730   29.7750   44.2780 S   0  0  0  0  0  0  0  0  0  0  0  0
   45.8940   31.3220   44.9250 C   0  0  0  0  0  0  0  0  0  0  0  0
   44.7920   31.3710   44.8150 H   0  0  0  0  0  0  0  0  0  0  0  0
   46.3970   30.7870   48.5770 C   0  0  0  0  0  0  0  0  0  0  0  0
   45.7410   31.1140   49.5720 O   0  0  0  0  0  0  0  0  0  0  0  0
   47.3020   30.8030   49.6020 O   0  0  0  0  0  0  0  0  0  0  0  0
   47.8340   30.0500   49.9870 H   0  0  0  0  0  0  0  0  0  0  0  0
  1  7  1  0  0  0  0
  1  6  1  0  0  0  0
  2  1  2  0  0  0  0
  3  2  1  0  0  0  0
  3  4  2  0  0  0  0
  4  5  1  0  0  0  0
  5  6  2  0  0  0  0
  5 31  1  0  0  0  0
  8  2  1  0  0  0  0
  9  3  1  0  0  0  0
 10  9  1  0  0  0  0
 10 11  1  0  0  0  0
 10 12  1  0  0  0  0
 13 10  1  0  0  0  0
 14 13  2  0  0  0  0
 14 27  1  0  0  0  0
 15 14  1  0  0  0  0
 16 17  2  0  0  0  0
 16 15  1  0  0  0  0
 18 23  1  0  0  0  0
 18 19  1  0  0  0  0
 18 16  1  0  0  0  0
 19 24  1  6  0  0  0
 19 20  1  0  0  0  0
 19 15  1  0  0  0  0
 20 21  1  0  0  0  0
 21 25  1  0  0  0  0
 21 13  1  0  0  0  0
 22 18  1  0  0  0  0
 26 21  1  0  0  0  0
 27 29  1  0  0  0  0
 28 27  2  0  0  0  0
 29 30  1  0  0  0  0
 32 31  1  0  0  0  0
 32 33  2  0  0  0  0
 33 43  1  0  0  0  0
 34 35  1  0  0  0  0
 34 33  1  0  0  0  0
 35 36  2  0  0  0  0
 37 39  1  0  0  0  0
 37 35  1  0  0  0  0
 38 37  1  0  0  0  0
 39 40  1  6  0  0  0
 39 34  1  0  0  0  0
 40 41  1  0  0  0  0
 41 32  1  0  0  0  0
 42 41  1  0  0  0  0
 43 44  2  0  0  0  0
 43 45  1  0  0  0  0
 45 46  1  0  0  0  0
M  END
>  <minimizedAffinity>
-6.19403028

>  <minimizedRMSD>
1.90235615

$$$$
