
 OpenBabel03242510093D

 35 38  0  0  1  0  0  0  0  0999 V2000
   43.0950   32.7250   41.8410 Br  0  0  0  0  0  0  0  0  0  0  0  0
   44.7340   33.2260   41.0010 C   0  0  0  0  0  0  0  0  0  0  0  0
   45.6770   33.9670   41.6920 C   0  0  0  0  0  0  0  0  0  0  0  0
   46.8740   34.3530   41.0990 C   0  0  0  0  0  0  0  0  0  0  0  0
   47.0860   33.9730   39.8020 C   0  0  0  0  0  0  0  0  0  0  0  0
   46.1260   33.2370   39.1450 C   0  0  0  0  0  0  0  0  0  0  0  0
   44.9560   32.8510   39.7040 C   0  0  0  0  0  0  0  0  0  0  0  0
   47.6020   34.9360   41.6630 H   0  0  0  0  0  0  0  0  0  0  0  0
   48.0260   34.2710   39.3210 H   0  0  0  0  0  0  0  0  0  0  0  0
   46.3860   32.9960   38.1290 H   0  0  0  0  0  0  0  0  0  0  0  0
   45.4840   33.8450   45.3400 C   0  0  0  0  0  0  0  0  0  0  0  0
   44.8290   35.0370   45.6930 C   0  0  0  0  0  0  0  0  0  0  0  0
   44.4590   35.8770   44.6450 C   0  0  0  0  0  0  0  0  0  0  0  0
   44.7470   35.4990   43.3770 N   0  0  0  0  0  0  0  0  0  0  0  0
   45.3830   34.3360   43.0790 C   0  0  0  0  0  0  0  0  0  0  0  0
   45.7500   33.5100   44.0760 N   0  0  0  0  0  0  0  0  0  0  0  0
   45.7370   33.2500   46.2120 H   0  0  0  0  0  0  0  0  0  0  0  0
   44.5810   35.3770   46.6680 H   0  0  0  0  0  0  0  0  0  0  0  0
   43.9460   36.8390   44.7150 H   0  0  0  0  0  0  0  0  0  0  0  0
   43.9270   32.0630   38.9710 C   0  0  0  0  0  2  0  0  0  0  0  0
   42.7050   32.7990   38.6460 C   0  0  0  0  0  0  0  0  0  0  0  0
   41.5650   32.1580   38.6730 C   0  0  0  0  0  0  0  0  0  0  0  0
   40.3700   32.8650   38.3680 N   0  0  0  0  0  0  0  0  0  0  0  0
   39.1140   32.8670   37.6540 C   0  0  0  0  0  0  0  0  0  0  0  0
   38.3560   31.9940   37.1110 O   0  0  0  0  0  0  0  0  0  0  0  0
   39.0250   34.3530   37.7940 C   0  0  0  0  0  3  0  0  0  0  0  0
   38.0080   34.6090   38.1880 H   0  0  0  0  0  0  0  0  0  0  0  0
   40.0480   34.1950   38.8960 C   0  0  2  0  0  3  0  0  0  0  0  0
   41.5120   35.2000   38.8110 S   0  0  0  0  0  0  0  0  0  0  0  0
   42.9200   34.2160   38.2850 C   0  0  0  0  0  3  0  0  0  0  0  0
   43.1240   34.3310   37.1850 H   0  0  0  0  0  0  0  0  0  0  0  0
   41.3960   30.7400   39.0040 C   0  0  0  0  0  0  0  0  0  0  0  0
   40.9200   30.2630   40.0600 O   0  0  0  0  0  0  0  0  0  0  0  0
   41.5570   29.4500   38.5940 O   0  0  0  0  0  0  0  0  0  0  0  0
   40.8800   28.9930   37.9660 H   0  0  0  0  0  0  0  0  0  0  0  0
  2  3  1  0  0  0  0
  2  1  1  0  0  0  0
  3 15  1  0  0  0  0
  4  8  1  0  0  0  0
  4  3  2  0  0  0  0
  5  4  1  0  0  0  0
  6  7  1  0  0  0  0
  6  5  2  0  0  0  0
  7  2  2  0  0  0  0
  9  5  1  0  0  0  0
 10  6  1  0  0  0  0
 11 12  1  0  0  0  0
 11 17  1  0  0  0  0
 12 18  1  0  0  0  0
 13 19  1  0  0  0  0
 13 12  2  0  0  0  0
 14 13  1  0  0  0  0
 15 14  2  0  0  0  0
 15 16  1  0  0  0  0
 16 11  2  0  0  0  0
 20  7  1  0  0  0  0
 21 22  2  0  0  0  0
 21 20  1  0  0  0  0
 22 32  1  0  0  0  0
 23 22  1  0  0  0  0
 23 28  1  0  0  0  0
 24 26  1  0  0  0  0
 24 23  1  0  0  0  0
 25 24  2  0  0  0  0
 26 27  1  0  0  0  0
 28 26  1  6  0  0  0
 29 28  1  0  0  0  0
 30 21  1  0  0  0  0
 30 29  1  0  0  0  0
 31 30  1  0  0  0  0
 32 33  2  0  0  0  0
 34 32  1  0  0  0  0
 35 34  1  0  0  0  0
M  END
>  <minimizedAffinity>
-5.29638767

>  <minimizedRMSD>
2.17771173

$$$$
