
 OpenBabel03242518463D

 52 56  0  0  1  0  0  0  0  0999 V2000
   47.4750   31.3370   45.9000 O   0  0  0  0  0  0  0  0  0  0  0  0
   47.4610   33.1150   44.3770 C   0  0  2  0  0  0  0  0  0  0  0  0
   47.3480   33.4460   42.9320 C   0  0  1  0  0  0  0  0  0  0  0  0
   47.2550   32.1950   42.0580 C   0  0  0  0  0  0  0  0  0  0  0  0
   48.3730   31.4410   42.4130 O   0  0  0  0  0  0  0  0  0  0  0  0
   48.2320   30.8740   43.6610 C   0  0  0  0  0  0  0  0  0  0  0  0
   47.2820   31.5960   44.5610 C   0  0  1  0  0  0  0  0  0  0  0  0
   48.4850   33.3300   44.7320 H   0  0  0  0  0  0  0  0  0  0  0  0
   48.2570   34.0070   42.5910 H   0  0  0  0  0  0  0  0  0  0  0  0
   46.3020   31.6580   42.2140 H   0  0  0  0  0  0  0  0  0  0  0  0
   47.3300   32.4620   40.9900 H   0  0  0  0  0  0  0  0  0  0  0  0
   47.8980   29.8060   43.5470 H   0  0  0  0  0  0  0  0  0  0  0  0
   49.2330   30.8160   44.1610 H   0  0  0  0  0  0  0  0  0  0  0  0
   46.2400   31.3340   44.2760 H   0  0  0  0  0  0  0  0  0  0  0  0
   45.0250   36.2690   42.7370 C   0  0  0  0  0  0  0  0  0  0  0  0
   43.9920   35.8100   41.8830 C   0  0  0  0  0  0  0  0  0  0  0  0
   44.1420   34.4830   41.3850 C   0  0  0  0  0  0  0  0  0  0  0  0
   45.2300   33.7690   41.7490 N   0  0  0  0  0  0  0  0  0  0  0  0
   46.1800   34.2620   42.5640 C   0  0  0  0  0  0  0  0  0  0  0  0
   46.0730   35.5190   43.0600 N   0  0  0  0  0  0  0  0  0  0  0  0
   43.1690   36.4370   41.6450 H   0  0  0  0  0  0  0  0  0  0  0  0
   43.3610   34.1210   40.7330 H   0  0  0  0  0  0  0  0  0  0  0  0
   44.8820   37.5340   43.2130 O   0  0  0  0  0  0  0  0  0  0  0  0
   44.4520   37.7360   44.1120 H   0  0  0  0  0  0  0  0  0  0  0  0
   46.5240   33.7640   45.1810 O   0  0  0  0  0  0  0  0  0  0  0  0
   45.6880   33.2440   45.2100 H   0  0  0  0  0  0  0  0  0  0  0  0
   46.5160   28.8130   45.9530 F   0  0  0  0  0  0  0  0  0  0  0  0
   46.2660   29.7470   46.8890 C   0  0  0  0  0  0  0  0  0  0  0  0
   46.7090   31.0490   46.9390 C   0  0  0  0  0  0  0  0  0  0  0  0
   46.2780   31.7810   48.0390 C   0  0  0  0  0  0  0  0  0  0  0  0
   45.4700   31.3250   49.0480 C   0  0  0  0  0  0  0  0  0  0  0  0
   45.0660   30.0270   48.9390 C   0  0  0  0  0  0  0  0  0  0  0  0
   45.4430   29.1920   47.8670 C   0  0  0  0  0  0  0  0  0  0  0  0
   46.6680   32.8100   48.0140 H   0  0  0  0  0  0  0  0  0  0  0  0
   45.2260   32.0130   49.8240 H   0  0  0  0  0  0  0  0  0  0  0  0
   44.4210   29.7430   49.7840 H   0  0  0  0  0  0  0  0  0  0  0  0
   44.8670   27.8360   48.0730 C   0  0  0  0  0  2  0  0  0  0  0  0
   44.4500   27.1420   46.8450 C   0  0  0  0  0  0  0  0  0  0  0  0
   45.0630   26.0130   46.5100 C   0  0  0  0  0  0  0  0  0  0  0  0
   44.7070   25.3220   45.3160 N   0  0  0  0  0  0  0  0  0  0  0  0
   44.7140   24.1600   44.5650 C   0  0  0  0  0  0  0  0  0  0  0  0
   45.2600   23.0460   44.5320 O   0  0  0  0  0  0  0  0  0  0  0  0
   43.7120   24.6560   43.6190 C   0  0  0  0  0  3  0  0  0  0  0  0
   42.6620   24.3600   43.8230 H   0  0  0  0  0  0  0  0  0  0  0  0
   44.0010   25.9660   44.2500 C   0  0  1  0  0  3  0  0  0  0  0  0
   42.5690   26.8300   44.9350 S   0  0  0  0  0  0  0  0  0  0  0  0
   43.3710   27.8540   46.1800 C   0  0  0  0  0  3  0  0  0  0  0  0
   42.5200   28.0960   46.9040 H   0  0  0  0  0  0  0  0  0  0  0  0
   46.1610   25.3710   47.2820 C   0  0  0  0  0  0  0  0  0  0  0  0
   46.5070   25.2760   48.4850 O   0  0  0  0  0  0  0  0  0  0  0  0
   47.1690   24.6370   46.7030 O   0  0  0  0  0  0  0  0  0  0  0  0
   47.4280   23.7270   47.0370 H   0  0  0  0  0  0  0  0  0  0  0  0
  1 29  1  0  0  0  0
  2  7  1  0  0  0  0
  2  8  1  1  0  0  0
  2 25  1  0  0  0  0
  3  9  1  6  0  0  0
  3  2  1  0  0  0  0
  4 10  1  0  0  0  0
  4  5  1  0  0  0  0
  4  3  1  0  0  0  0
  5  6  1  0  0  0  0
  6 13  1  0  0  0  0
  6  7  1  0  0  0  0
  7 14  1  6  0  0  0
  7  1  1  0  0  0  0
 11  4  1  0  0  0  0
 12  6  1  0  0  0  0
 15 20  1  0  0  0  0
 15 23  1  0  0  0  0
 16 15  2  0  0  0  0
 17 18  2  0  0  0  0
 17 16  1  0  0  0  0
 18 19  1  0  0  0  0
 19  3  1  0  0  0  0
 19 20  2  0  0  0  0
 21 16  1  0  0  0  0
 22 17  1  0  0  0  0
 23 24  1  0  0  0  0
 25 26  1  0  0  0  0
 27 28  1  0  0  0  0
 28 29  2  0  0  0  0
 28 33  1  0  0  0  0
 29 30  1  0  0  0  0
 30 31  2  0  0  0  0
 31 35  1  0  0  0  0
 32 31  1  0  0  0  0
 32 36  1  0  0  0  0
 33 37  1  0  0  0  0
 33 32  2  0  0  0  0
 34 30  1  0  0  0  0
 38 37  1  0  0  0  0
 39 38  2  0  0  0  0
 39 49  1  0  0  0  0
 40 39  1  0  0  0  0
 41 40  1  0  0  0  0
 42 41  2  0  0  0  0
 43 44  1  0  0  0  0
 43 41  1  0  0  0  0
 45 43  1  6  0  0  0
 45 46  1  0  0  0  0
 45 40  1  0  0  0  0
 46 47  1  0  0  0  0
 47 38  1  0  0  0  0
 47 48  1  0  0  0  0
 49 50  2  0  0  0  0
 51 52  1  0  0  0  0
 51 49  1  0  0  0  0
M  END
>  <minimizedAffinity>
-5.49257421

>  <minimizedRMSD>
0.935426712

$$$$
