
     RDKit          3D

 42 45  0  0  0  0  0  0  0  0999 V2000
   46.2733   34.1734   40.9853 C   0  0  0  0  0  0  0  0  0  0  0  0
   46.8333   34.8312   42.0431 C   0  0  0  0  0  0  0  0  0  0  0  0
   48.0807   35.3753   41.8564 C   0  0  0  0  0  0  0  0  0  0  0  0
   48.7482   35.2644   40.6465 C   0  0  0  0  0  0  0  0  0  0  0  0
   48.1747   34.6086   39.6119 C   0  0  0  0  0  0  0  0  0  0  0  0
   46.9029   34.0346   39.7484 C   0  0  0  0  0  0  0  0  0  0  0  0
   44.5038   36.0152   44.7686 C   0  0  0  0  0  0  0  0  0  0  0  0
   45.2125   35.9684   43.5557 C   0  0  0  0  0  0  0  0  0  0  0  0
   46.0882   34.9145   43.2743 C   0  0  0  0  0  0  0  0  0  0  0  0
   46.1880   33.9797   44.2377 N   0  0  0  0  0  0  0  0  0  0  0  0
   45.5060   34.0295   45.3992 C   0  0  0  0  0  0  0  0  0  0  0  0
   44.6699   35.0333   45.6708 N   0  0  0  0  0  0  0  0  0  0  0  0
   45.0163   33.6058   41.1236 O   0  0  0  0  0  0  0  0  0  0  0  0
   46.2523   33.3521   38.7385 O   0  0  0  0  0  0  0  0  0  0  0  0
   48.5503   35.9025   42.6761 H   0  0  0  0  0  0  0  0  0  0  0  0
   49.7346   35.6896   40.4854 H   0  0  0  0  0  0  0  0  0  0  0  0
   48.6819   34.5142   38.6628 H   0  0  0  0  0  0  0  0  0  0  0  0
   43.8502   36.8676   44.8984 H   0  0  0  0  0  0  0  0  0  0  0  0
   45.1004   36.7436   42.8093 H   0  0  0  0  0  0  0  0  0  0  0  0
   45.6842   33.2071   46.0848 H   0  0  0  0  0  0  0  0  0  0  0  0
   45.0075   32.5914   41.1753 H   0  0  0  0  0  0  0  0  0  0  0  0
   46.9674   33.2527   37.4938 C   0  0  0  0  0  0  0  0  0  0  0  0
   46.2000   32.5176   36.4880 C   0  0  0  0  0  0  0  0  0  0  0  0
   46.5737   31.4201   35.8996 C   0  0  0  0  0  0  0  0  0  0  0  0
   47.8449   30.7634   36.1777 C   0  0  0  0  0  0  0  0  0  0  0  0
   48.8430   30.9531   36.9130 O   0  0  0  0  0  0  0  0  0  0  0  0
   48.2574   29.5984   35.5709 O   0  0  0  0  0  0  0  0  0  0  0  0
   45.7164   30.8271   34.9379 N   0  0  0  0  0  0  0  0  0  0  0  0
   45.1869   29.6127   34.4031 C   0  0  0  0  0  0  0  0  0  0  0  0
   45.3358   28.3498   34.5372 O   0  0  0  0  0  0  0  0  0  0  0  0
   44.2719   30.3554   33.5078 C   0  0  2  0  0  0  0  0  0  0  0  0
   43.1940   30.2532   33.7503 H   0  0  0  0  0  0  0  0  0  0  0  0
   44.9326   31.6119   33.9686 C   0  0  1  0  0  0  0  0  0  0  0  0
   43.8780   32.6805   35.0069 S   0  0  0  0  0  0  0  0  0  0  0  0
   44.9524   33.3022   36.3289 C   0  0  2  0  0  0  0  0  0  0  0  0
   45.1687   34.3755   36.0407 H   0  0  0  0  0  0  0  0  0  0  0  0
   47.9826   32.8720   37.6901 H   0  0  0  0  0  0  0  0  0  0  0  0
   47.1416   34.3415   37.2274 H   0  0  0  0  0  0  0  0  0  0  0  0
   48.6180   28.7644   36.0154 H   0  0  0  0  0  0  0  0  0  0  0  0
   44.5263   30.1309   32.4461 H   0  0  0  0  0  0  0  0  0  0  0  0
   45.5284   32.1373   33.2155 H   0  0  0  0  0  0  0  0  0  0  0  0
   44.3843   33.3938   37.2939 H   0  0  0  0  0  0  0  0  0  0  0  0
  1 13  1  0
  1  2  2  0
  2  9  1  0
  3  2  1  0
  4  3  2  0
  5  6  2  0
  5  4  1  0
  6  1  1  0
  7 12  2  0
  8  7  1  0
  9  8  2  0
  9 10  1  0
 10 11  2  0
 11 12  1  0
 14  6  1  0
  3 15  1  0
  4 16  1  0
  5 17  1  0
  7 18  1  0
  8 19  1  0
 11 20  1  0
 13 21  1  0
 22 23  1  0
 23 24  2  0
 24 25  1  0
 25 26  2  0
 25 27  1  0
 24 28  1  0
 28 29  1  0
 29 30  2  0
 29 31  1  0
 31 32  1  1
 31 33  1  0
 33 34  1  0
 34 35  1  0
 35 36  1  6
 35 23  1  0
 33 28  1  0
 22 37  1  0
 22 38  1  0
 27 39  1  0
 31 40  1  0
 33 41  1  6
 35 42  1  0
 14 22  1  0
M  ISO  8  15  14  16  14  17  14  18  14  19  14  20  14  21   3  32  15
M  ISO  1  36  15
M  END
>  <DihAtoms>  (1) 
5,13,21,22

>  <DihDeg>  (1) 
-179.891492650451

$$$$
