REMARK  Name = 
REMARK  7 active torsions:
REMARK  status: ('A' for Active; 'I' for Inactive)
REMARK    1  A    between atoms: S_1  and  C_2
REMARK    2  A    between atoms: S_1  and  C_12
REMARK    3  A    between atoms: C_12  and  C_17
REMARK    4  A    between atoms: C_15  and  C_29
REMARK    5  A    between atoms: C_29  and  C_30
REMARK    6  A    between atoms: C_31  and  C_32
REMARK    7  A    between atoms: C_32  and  O_34
REMARK                            x       y       z     vdW  Elec       q    Type
REMARK                         _______ _______ _______ _____ _____    ______ ____
ROOT
ATOM      1  C   UNL     1      44.589  35.997  44.495  0.00  0.00    +0.000 A 
ATOM      2  C   UNL     1      45.356  35.731  43.356  0.00  0.00    +0.000 A 
ATOM      3  C   UNL     1      46.194  34.613  43.305  0.00  0.00    +0.000 A 
ATOM      4  N   UNL     1      46.234  33.791  44.409  0.00  0.00    +0.000 NA
ATOM      5  C   UNL     1      45.483  34.065  45.506  0.00  0.00    +0.000 A 
ATOM      6  N   UNL     1      44.685  35.150  45.526  0.00  0.00    +0.000 NA
ATOM      7  H   UNL     1      43.948  36.868  44.512  0.00  0.00    +0.000 HD
ATOM      8  H   UNL     1      45.327  36.365  42.500  0.00  0.00    +0.000 HD
ENDROOT
BRANCH   5   9
ATOM      9  C   UNL     1      45.610  33.114  46.635  0.00  0.00    +0.000 C 
ATOM     10  H   UNL     1      46.047  33.684  47.451  0.00  0.00    +0.000 HD
ATOM     11  H   UNL     1      44.603  32.758  46.984  0.00  0.00    +0.000 HD
BRANCH   9  12
ATOM     12  S   UNL     1      46.547  31.697  46.060  0.00  0.00    +0.000 S 
BRANCH  12  13
ATOM     13  C   UNL     1      47.599  31.069  47.349  0.00  0.00    +0.000 A 
ATOM     14  C   UNL     1      47.942  31.922  48.376  0.00  0.00    +0.000 A 
ATOM     15  C   UNL     1      48.751  31.444  49.363  0.00  0.00    +0.000 A 
ATOM     16  C   UNL     1      49.235  30.125  49.360  0.00  0.00    +0.000 A 
ATOM     17  N   UNL     1      50.029  29.707  50.362  0.00  0.00    +0.000 NA
ATOM     18  C   UNL     1      50.510  28.446  50.388  0.00  0.00    +0.000 A 
ATOM     19  C   UNL     1      50.179  27.595  49.380  0.00  0.00    +0.000 A 
ATOM     20  C   UNL     1      49.365  28.036  48.362  0.00  0.00    +0.000 A 
ATOM     21  C   UNL     1      48.847  29.322  48.292  0.00  0.00    +0.000 A 
ATOM     22  C   UNL     1      48.037  29.768  47.282  0.00  0.00    +0.000 A 
ATOM     23  H   UNL     1      47.635  32.953  48.490  0.00  0.00    +0.000 HD
ATOM     24  H   UNL     1      49.061  32.070  50.209  0.00  0.00    +0.000 HD
ATOM     25  H   UNL     1      51.140  28.192  51.228  0.00  0.00    +0.000 HD
ATOM     26  H   UNL     1      50.554  26.578  49.382  0.00  0.00    +0.000 HD
ATOM     27  H   UNL     1      49.116  27.337  47.570  0.00  0.00    +0.000 HD
ATOM     28  H   UNL     1      47.779  29.102  46.496  0.00  0.00    +0.000 HD
ENDBRANCH  12  13
ENDBRANCH   9  12
ENDBRANCH   5   9
BRANCH   3  29
ATOM     29  C   UNL     1      47.069  34.275  42.200  0.00  0.00    +0.000 C 
BRANCH  29  30
ATOM     30  C   UNL     1      46.877  33.076  41.425  0.00  0.00    +0.000 C 
ATOM     31  C   UNL     1      45.997  32.086  41.479  0.00  0.00    +0.000 C 
ATOM     32  N   UNL     1      45.973  30.957  40.576  0.00  0.00    +0.000 N 
ATOM     33  C   UNL     1      45.844  29.562  40.338  0.00  0.00    +0.000 C 
ATOM     34  O   UNL     1      45.114  28.728  40.952  0.00  0.00    +0.000 OA
ATOM     35  C   UNL     1      46.848  29.774  39.231  0.00  0.00    +0.000 C 
ATOM     36  H   UNL     1      46.710  29.105  38.375  0.00  0.00    +0.000 HD
ATOM     37  C   UNL     1      46.157  31.114  39.140  0.00  0.00    +0.000 C 
ATOM     38  S   UNL     1      47.209  32.529  38.765  0.00  0.00    +0.000 S 
ATOM     39  C   UNL     1      47.920  32.972  40.373  0.00  0.00    +0.000 C 
ATOM     40  H   UNL     1      48.695  32.223  40.657  0.00  0.00    +0.000 HD
BRANCH  31  41
ATOM     41  C   UNL     1      44.989  32.180  42.528  0.00  0.00    +0.000 C 
ATOM     42  O   UNL     1      44.118  31.248  42.622  0.00  0.00    +0.000 OA
BRANCH  41  43
ATOM     43  O   UNL     1      44.020  32.238  43.510  0.00  0.00    +0.000 OA
ATOM     44  H   UNL     1      44.165  32.757  44.379  0.00  0.00    +0.000 HD
ENDBRANCH  41  43
ENDBRANCH  31  41
ENDBRANCH  29  30
ENDBRANCH   3  29
TORSDOF 7
