
 OpenBabel03242519543D

 47 50  0  0  1  0  0  0  0  0999 V2000
   47.4640   34.1360   42.5150 C   0  0  2  0  0  0  0  0  0  0  0  0
   48.7820   34.7830   42.7060 C   0  0  0  0  0  0  0  0  0  0  0  0
   49.0440   35.8620   41.7100 C   0  0  0  0  0  0  0  0  0  0  0  0
   48.8980   35.4140   40.2810 C   0  0  0  0  0  0  0  0  0  0  0  0
   47.8020   34.4200   40.0560 C   0  0  2  0  0  0  0  0  0  0  0  0
   46.8130   34.4160   41.2040 C   0  0  0  0  0  0  0  0  0  0  0  0
   47.6690   33.0190   42.5710 H   0  0  0  0  0  0  0  0  0  0  0  0
   49.6440   34.0880   42.7130 H   0  0  0  0  0  0  0  0  0  0  0  0
   48.7780   35.2650   43.7110 H   0  0  0  0  0  0  0  0  0  0  0  0
   50.1210   36.1630   41.8460 H   0  0  0  0  0  0  0  0  0  0  0  0
   48.4600   36.7650   41.9540 H   0  0  0  0  0  0  0  0  0  0  0  0
   48.7530   36.3510   39.6690 H   0  0  0  0  0  0  0  0  0  0  0  0
   49.8800   35.0120   39.9220 H   0  0  0  0  0  0  0  0  0  0  0  0
   47.2400   34.7630   39.1570 H   0  0  0  0  0  0  0  0  0  0  0  0
   46.2080   35.2930   41.0850 H   0  0  0  0  0  0  0  0  0  0  0  0
   46.1150   33.5400   41.0250 H   0  0  0  0  0  0  0  0  0  0  0  0
   46.5110   34.4000   43.6020 C   0  0  0  0  0  0  0  0  0  0  0  0
   45.6440   35.4600   43.3460 C   0  0  0  0  0  0  0  0  0  0  0  0
   44.6720   35.8090   44.2870 C   0  0  0  0  0  0  0  0  0  0  0  0
   44.6440   35.0490   45.4440 N   0  0  0  0  0  0  0  0  0  0  0  0
   45.5040   34.0330   45.6530 C   0  0  0  0  0  0  0  0  0  0  0  0
   46.4210   33.7210   44.7350 N   0  0  0  0  0  0  0  0  0  0  0  0
   45.4900   36.1760   42.5520 H   0  0  0  0  0  0  0  0  0  0  0  0
   43.9220   36.5660   44.2960 H   0  0  0  0  0  0  0  0  0  0  0  0
   45.4410   33.4690   46.5770 H   0  0  0  0  0  0  0  0  0  0  0  0
   48.3780   33.0920   39.7730 C   0  0  0  0  0  0  0  0  0  0  0  0
   47.8570   32.3200   40.3770 H   0  0  0  0  0  0  0  0  0  0  0  0
   49.4290   33.0890   40.1700 H   0  0  0  0  0  0  0  0  0  0  0  0
   48.3990   32.6440   38.3730 C   0  0  0  0  0  0  0  0  0  0  0  0
   49.4510   32.5940   38.0280 H   0  0  0  0  0  0  0  0  0  0  0  0
   47.9950   31.6150   38.2990 H   0  0  0  0  0  0  0  0  0  0  0  0
   47.0010   30.6520   34.3630 C   0  0  0  0  0  0  0  0  0  0  0  0
   46.1350   31.3920   35.0200 C   0  0  0  0  0  0  0  0  0  0  0  0
   46.5360   32.2910   36.0120 N   0  0  0  0  0  0  0  0  0  0  0  0
   46.2830   32.9160   37.2390 C   0  0  0  0  0  0  0  0  0  0  0  0
   45.2900   33.0280   38.0320 O   0  0  0  0  0  0  0  0  0  0  0  0
   47.6590   33.4780   37.3780 C   0  0  2  0  0  3  0  0  0  0  0  0
   47.7600   33.0430   35.9370 C   0  0  1  0  0  3  0  0  0  0  0  0
   49.1180   31.9250   35.5800 S   0  0  0  0  0  0  0  0  0  0  0  0
   48.4730   30.6240   34.5340 C   0  0  0  0  0  3  0  0  0  0  0  0
   48.9050   30.8030   33.5060 H   0  0  0  0  0  0  0  0  0  0  0  0
   46.5450   29.7110   33.3170 C   0  0  0  0  0  2  0  0  0  0  0  0
   45.5470   29.9640   32.8970 H   0  0  0  0  0  0  0  0  0  0  0  0
   44.7200   31.2700   34.7030 C   0  0  0  0  0  0  0  0  0  0  0  0
   43.8430   30.9480   35.5450 O   0  0  0  0  0  0  0  0  0  0  0  0
   43.4970   31.2420   34.0990 O   0  0  0  0  0  0  0  0  0  0  0  0
   43.4200   30.9900   33.1220 H   0  0  0  0  0  0  0  0  0  0  0  0
  1  7  1  1  0  0  0
  1  2  1  0  0  0  0
  1 17  1  0  0  0  0
  2  8  1  0  0  0  0
  2  9  1  0  0  0  0
  3 10  1  0  0  0  0
  3 11  1  0  0  0  0
  3  2  1  0  0  0  0
  4  3  1  0  0  0  0
  5 14  1  6  0  0  0
  5  4  1  0  0  0  0
  5  6  1  0  0  0  0
  6  1  1  0  0  0  0
 12  4  1  0  0  0  0
 13  4  1  0  0  0  0
 15  6  1  0  0  0  0
 16  6  1  0  0  0  0
 17 22  1  0  0  0  0
 18 17  2  0  0  0  0
 18 19  1  0  0  0  0
 19 24  1  0  0  0  0
 19 20  2  0  0  0  0
 20 21  1  0  0  0  0
 21 25  1  0  0  0  0
 22 21  2  0  0  0  0
 23 18  1  0  0  0  0
 26  5  1  0  0  0  0
 26 28  1  0  0  0  0
 26 27  1  0  0  0  0
 29 26  1  0  0  0  0
 30 29  1  0  0  0  0
 31 29  1  0  0  0  0
 32 40  1  0  0  0  0
 32 33  2  0  0  0  0
 33 34  1  0  0  0  0
 34 35  1  0  0  0  0
 35 37  1  0  0  0  0
 35 36  2  0  0  0  0
 37 29  1  1  0  0  0
 38 39  1  1  0  0  0
 38 34  1  0  0  0  0
 38 37  1  0  0  0  0
 40 39  1  0  0  0  0
 41 40  1  0  0  0  0
 42 32  1  0  0  0  0
 43 42  1  0  0  0  0
 44 33  1  0  0  0  0
 44 45  2  0  0  0  0
 46 44  1  0  0  0  0
 47 46  1  0  0  0  0
M  END
>  <minimizedAffinity>
-6.51272392

>  <minimizedRMSD>
2.33701921

$$$$
