
 OpenBabel03242518303D

 35 38  0  0  1  0  0  0  0  0999 V2000
   46.5310   33.2190   40.1530 C   0  0  0  0  0  0  0  0  0  0  0  0
   47.0700   33.3820   38.8890 C   0  0  0  0  0  0  0  0  0  0  0  0
   46.0640   33.1320   37.9660 C   0  0  0  0  0  0  0  0  0  0  0  0
   44.9480   32.8250   38.7320 C   0  0  0  0  0  0  0  0  0  0  0  0
   45.2620   32.8860   40.0020 O   0  0  0  0  0  0  0  0  0  0  0  0
   48.0980   33.6580   38.7230 H   0  0  0  0  0  0  0  0  0  0  0  0
   46.1810   33.1820   36.8760 H   0  0  0  0  0  0  0  0  0  0  0  0
   47.1130   33.3510   41.4200 O   0  0  0  0  0  0  0  0  0  0  0  0
   47.1770   34.5870   42.0640 C   0  0  0  0  0  0  0  0  0  0  0  0
   47.9690   35.4200   41.5670 O   0  0  0  0  0  0  0  0  0  0  0  0
   46.3330   34.7390   43.2010 C   0  0  0  0  0  0  0  0  0  0  0  0
   45.5090   35.8440   43.1210 C   0  0  0  0  0  0  0  0  0  0  0  0
   44.6360   36.0790   44.1990 C   0  0  0  0  0  0  0  0  0  0  0  0
   44.6500   35.2230   45.2440 N   0  0  0  0  0  0  0  0  0  0  0  0
   45.4860   34.1530   45.2650 C   0  0  0  0  0  0  0  0  0  0  0  0
   46.3310   33.9090   44.2390 N   0  0  0  0  0  0  0  0  0  0  0  0
   45.4600   36.5620   42.3040 H   0  0  0  0  0  0  0  0  0  0  0  0
   43.9610   36.9260   44.2060 H   0  0  0  0  0  0  0  0  0  0  0  0
   45.4500   33.4990   46.1350 H   0  0  0  0  0  0  0  0  0  0  0  0
   43.6040   32.4790   38.1470 C   0  0  0  0  0  2  0  0  0  0  0  0
   42.6740   33.4710   38.6820 C   0  0  0  0  0  0  0  0  0  0  0  0
   41.8180   33.1320   39.6200 C   0  0  0  0  0  0  0  0  0  0  0  0
   40.9050   34.0420   40.1660 N   0  0  0  0  0  0  0  0  0  0  0  0
   40.1980   34.5380   41.2960 C   0  0  0  0  0  0  0  0  0  0  0  0
   39.7730   34.0620   42.3610 O   0  0  0  0  0  0  0  0  0  0  0  0
   40.1860   35.8690   40.6550 C   0  0  0  0  0  3  0  0  0  0  0  0
   39.2910   36.4710   40.8030 H   0  0  0  0  0  0  0  0  0  0  0  0
   40.2440   35.0580   39.3620 C   0  0  1  0  0  3  0  0  0  0  0  0
   41.2850   35.7690   38.0940 S   0  0  0  0  0  0  0  0  0  0  0  0
   42.8150   34.7960   38.0840 C   0  0  0  0  0  3  0  0  0  0  0  0
   43.5870   35.4290   38.6070 H   0  0  0  0  0  0  0  0  0  0  0  0
   41.7920   31.7640   40.1280 C   0  0  0  0  0  0  0  0  0  0  0  0
   40.7510   31.1160   40.4130 O   0  0  0  0  0  0  0  0  0  0  0  0
   42.1140   30.5010   40.5830 O   0  0  0  0  0  0  0  0  0  0  0  0
   42.9040   29.9430   40.2920 H   0  0  0  0  0  0  0  0  0  0  0  0
  1  8  1  0  0  0  0
  2  1  2  0  0  0  0
  3  4  2  0  0  0  0
  3  2  1  0  0  0  0
  4  5  1  0  0  0  0
  5  1  1  0  0  0  0
  6  2  1  0  0  0  0
  7  3  1  0  0  0  0
  8  9  1  0  0  0  0
  9 11  1  0  0  0  0
 10  9  2  0  0  0  0
 11 16  1  0  0  0  0
 12 11  2  0  0  0  0
 12 13  1  0  0  0  0
 13 18  1  0  0  0  0
 13 14  2  0  0  0  0
 14 15  1  0  0  0  0
 15 19  1  0  0  0  0
 16 15  2  0  0  0  0
 17 12  1  0  0  0  0
 20 21  1  0  0  0  0
 20  4  1  0  0  0  0
 21 22  2  0  0  0  0
 22 32  1  0  0  0  0
 22 23  1  0  0  0  0
 23 24  1  0  0  0  0
 24 25  2  0  0  0  0
 26 27  1  0  0  0  0
 26 24  1  0  0  0  0
 28 29  1  6  0  0  0
 28 23  1  0  0  0  0
 28 26  1  0  0  0  0
 30 29  1  0  0  0  0
 30 31  1  0  0  0  0
 30 21  1  0  0  0  0
 32 33  2  0  0  0  0
 32 34  1  0  0  0  0
 35 34  1  0  0  0  0
M  END
>  <minimizedAffinity>
-5.4837923

>  <minimizedRMSD>
3.52935839

$$$$
