
 OpenBabel03242518303D

 35 38  0  0  1  0  0  0  0  0999 V2000
   47.3280   33.6420   39.5520 C   0  0  0  0  0  0  0  0  0  0  0  0
   48.2400   34.2630   38.7190 C   0  0  0  0  0  0  0  0  0  0  0  0
   47.8380   34.0370   37.4090 C   0  0  0  0  0  0  0  0  0  0  0  0
   46.6820   33.2760   37.5200 C   0  0  0  0  0  0  0  0  0  0  0  0
   46.4180   33.0670   38.7850 O   0  0  0  0  0  0  0  0  0  0  0  0
   49.0910   34.8120   39.0880 H   0  0  0  0  0  0  0  0  0  0  0  0
   48.3600   34.4040   36.5160 H   0  0  0  0  0  0  0  0  0  0  0  0
   47.2690   33.5650   40.9490 O   0  0  0  0  0  0  0  0  0  0  0  0
   47.3940   34.7050   41.7450 C   0  0  0  0  0  0  0  0  0  0  0  0
   48.2500   35.5390   41.3710 O   0  0  0  0  0  0  0  0  0  0  0  0
   46.5310   34.7690   42.8760 C   0  0  0  0  0  0  0  0  0  0  0  0
   45.6720   35.8500   42.8420 C   0  0  0  0  0  0  0  0  0  0  0  0
   44.7790   36.0000   43.9180 C   0  0  0  0  0  0  0  0  0  0  0  0
   44.8070   35.0910   44.9170 N   0  0  0  0  0  0  0  0  0  0  0  0
   45.6770   34.0480   44.8940 C   0  0  0  0  0  0  0  0  0  0  0  0
   46.5430   33.8870   43.8690 N   0  0  0  0  0  0  0  0  0  0  0  0
   45.6100   36.6070   42.0620 H   0  0  0  0  0  0  0  0  0  0  0  0
   44.0760   36.8230   43.9590 H   0  0  0  0  0  0  0  0  0  0  0  0
   45.6520   33.3490   45.7280 H   0  0  0  0  0  0  0  0  0  0  0  0
   45.8890   32.7880   36.3360 C   0  0  0  0  0  2  0  0  0  0  0  0
   46.3740   31.4350   36.0670 C   0  0  0  0  0  0  0  0  0  0  0  0
   46.9990   31.1730   34.9420 C   0  0  0  0  0  0  0  0  0  0  0  0
   47.4830   29.8950   34.6330 N   0  0  0  0  0  0  0  0  0  0  0  0
   48.4890   29.0730   34.0550 C   0  0  0  0  0  0  0  0  0  0  0  0
   49.3100   29.1860   33.1330 O   0  0  0  0  0  0  0  0  0  0  0  0
   48.1350   28.0210   35.0320 C   0  0  0  0  0  3  0  0  0  0  0  0
   48.1830   26.9920   34.6760 H   0  0  0  0  0  0  0  0  0  0  0  0
   46.7590   28.6840   34.9880 C   0  0  1  0  0  3  0  0  0  0  0  0
   45.9340   28.7700   36.5740 S   0  0  0  0  0  0  0  0  0  0  0  0
   46.0950   30.4850   37.1400 C   0  0  0  0  0  3  0  0  0  0  0  0
   46.8990   30.4750   37.9310 H   0  0  0  0  0  0  0  0  0  0  0  0
   47.2100   32.2280   33.9570 C   0  0  0  0  0  0  0  0  0  0  0  0
   48.3220   32.7520   33.6830 O   0  0  0  0  0  0  0  0  0  0  0  0
   47.0660   33.1950   32.9830 O   0  0  0  0  0  0  0  0  0  0  0  0
   46.3930   33.1900   32.2290 H   0  0  0  0  0  0  0  0  0  0  0  0
  1  8  1  0  0  0  0
  2  6  1  0  0  0  0
  2  1  2  0  0  0  0
  3  4  2  0  0  0  0
  3  2  1  0  0  0  0
  4  5  1  0  0  0  0
  5  1  1  0  0  0  0
  7  3  1  0  0  0  0
  8  9  1  0  0  0  0
  9 11  1  0  0  0  0
 10  9  2  0  0  0  0
 11 16  1  0  0  0  0
 12 11  2  0  0  0  0
 12 13  1  0  0  0  0
 13 18  1  0  0  0  0
 13 14  2  0  0  0  0
 15 14  1  0  0  0  0
 15 19  1  0  0  0  0
 16 15  2  0  0  0  0
 17 12  1  0  0  0  0
 20  4  1  0  0  0  0
 21 20  1  0  0  0  0
 21 30  1  0  0  0  0
 22 21  2  0  0  0  0
 23 22  1  0  0  0  0
 23 28  1  0  0  0  0
 24 23  1  0  0  0  0
 24 26  1  0  0  0  0
 25 24  2  0  0  0  0
 27 26  1  0  0  0  0
 28 26  1  1  0  0  0
 28 29  1  0  0  0  0
 29 30  1  0  0  0  0
 30 31  1  0  0  0  0
 32 22  1  0  0  0  0
 33 32  2  0  0  0  0
 34 32  1  0  0  0  0
 35 34  1  0  0  0  0
M  END
>  <minimizedAffinity>
-5.4172473

>  <minimizedRMSD>
1.11815095

$$$$
