
     RDKit          3D

 34 36  0  0  0  0  0  0  0  0999 V2000
   44.5385   36.0457   44.5663 C   0  0  0  0  0  0  0  0  0  0  0  0
   45.2559   36.0070   43.3605 C   0  0  0  0  0  0  0  0  0  0  0  0
   46.1366   34.9535   43.1527 C   0  0  0  0  0  0  0  0  0  0  0  0
   46.2764   34.0102   44.1011 N   0  0  0  0  0  0  0  0  0  0  0  0
   45.5678   34.0659   45.2697 C   0  0  0  0  0  0  0  0  0  0  0  0
   44.7116   35.0838   45.4799 N   0  0  0  0  0  0  0  0  0  0  0  0
   46.3775   34.2014   40.7893 C   0  0  0  0  0  0  0  0  0  0  0  0
   45.2270   33.7164   40.9342 O   0  0  0  0  0  0  0  0  0  0  0  0
   46.8926   34.8572   41.9524 N   0  0  0  0  0  0  0  0  0  0  0  0
   43.8772   36.9041   44.6372 H   0  0  0  0  0  0  0  0  0  0  0  0
   45.1767   36.7422   42.5694 H   0  0  0  0  0  0  0  0  0  0  0  0
   45.6902   33.2885   46.0388 H   0  0  0  0  0  0  0  0  0  0  0  0
   47.8373   35.3079   42.0211 H   0  0  0  0  0  0  0  0  0  0  0  0
   49.4331   29.0939   38.5611 C   0  0  0  0  0  0  0  0  0  0  0  0
   49.9522   29.3400   37.5882 H   0  0  0  0  0  0  0  0  0  0  0  0
   48.6274   30.2963   38.8880 C   0  0  0  0  0  0  0  0  0  0  0  0
   49.3214   31.4112   39.0408 C   0  0  0  0  0  0  0  0  0  0  0  0
   50.7770   31.4380   38.8953 C   0  0  0  0  0  0  0  0  0  0  0  0
   51.4642   32.4801   39.0354 O   0  0  0  0  0  0  0  0  0  0  0  0
   51.7197   30.4704   38.6012 O   0  0  0  0  0  0  0  0  0  0  0  0
   48.6701   32.6330   39.3517 N   0  0  0  0  0  0  0  0  0  0  0  0
   48.6657   33.8642   40.0376 C   0  0  0  0  0  0  0  0  0  0  0  0
   49.4894   34.5207   40.7567 O   0  0  0  0  0  0  0  0  0  0  0  0
   47.2772   34.2097   39.6371 C   0  0  1  0  0  0  0  0  0  0  0  0
   47.3684   32.9816   38.8054 C   0  0  2  0  0  0  0  0  0  0  0  0
   46.2510   31.6366   39.2733 S   0  0  0  0  0  0  0  0  0  0  0  0
   47.1616   30.1157   39.0090 C   0  0  2  0  0  0  0  0  0  0  0  0
   46.9459   29.3423   39.7892 H   0  0  0  0  0  0  0  0  0  0  0  0
   48.7933   28.2348   38.3226 H   0  0  0  0  0  0  0  0  0  0  0  0
   50.1976   28.8639   39.3332 H   0  0  0  0  0  0  0  0  0  0  0  0
   52.3848   30.2224   39.3168 H   0  0  0  0  0  0  0  0  0  0  0  0
   47.1979   35.1549   39.0578 H   0  0  0  0  0  0  0  0  0  0  0  0
   47.4228   33.1818   37.7238 H   0  0  0  0  0  0  0  0  0  0  0  0
   46.8357   29.7130   38.0056 H   0  0  0  0  0  0  0  0  0  0  0  0
  1  6  2  0
  2  1  1  0
  3  2  2  0
  3  4  1  0
  4  5  2  0
  5  6  1  0
  7  8  2  0
  7  9  1  0
  9  3  1  0
  1 10  1  0
  2 11  1  0
  5 12  1  0
  9 13  1  0
 14 15  1  0
 14 16  1  0
 16 17  2  0
 17 18  1  0
 18 19  2  0
 18 20  1  0
 17 21  1  0
 21 22  1  0
 22 23  2  0
 22 24  1  0
 24 25  1  0
 25 26  1  0
 26 27  1  0
 27 28  1  1
 27 16  1  0
 25 21  1  0
 14 29  1  0
 14 30  1  0
 20 31  1  0
 24 32  1  6
 25 33  1  6
 27 34  1  0
  7 24  1  0
M  ISO  5  10  14  11  14  12  14  15   8  28  15
M  END
>  <DihAtoms>  (1) 
7,6,23,21

>  <DihDeg>  (1) 
-119.99373654688416

$$$$
