
     RDKit          3D

 31 33  0  0  0  0  0  0  0  0999 V2000
   44.5371   36.0288   44.5364 C   0  0  0  0  0  0  0  0  0  0  0  0
   45.2660   35.8862   43.3183 C   0  0  0  0  0  0  0  0  0  0  0  0
   46.1357   34.7898   43.2041 C   0  0  0  0  0  0  0  0  0  0  0  0
   46.2319   33.9385   44.2469 N   0  0  0  0  0  0  0  0  0  0  0  0
   45.5235   34.1040   45.3918 C   0  0  0  0  0  0  0  0  0  0  0  0
   44.6873   35.1410   45.5265 N   0  0  0  0  0  0  0  0  0  0  0  0
   47.0695   34.5647   41.7050 S   0  0  0  0  0  0  0  0  0  0  0  0
   43.8738   36.8571   44.6349 H   0  0  0  0  0  0  0  0  0  0  0  0
   45.1367   36.6054   42.5310 H   0  0  0  0  0  0  0  0  0  0  0  0
   47.1756   33.2080   41.3475 H   0  0  0  0  0  0  0  0  0  0  0  0
   45.7980   33.0308   46.4071 C   0  0  0  0  0  0  0  0  0  0  0  0
   46.7745   32.0402   45.9300 C   0  0  0  0  0  0  0  0  0  0  0  0
   47.9032   31.8223   46.5405 C   0  0  0  0  0  0  0  0  0  0  0  0
   48.2948   32.5399   47.7470 C   0  0  0  0  0  0  0  0  0  0  0  0
   49.3598   32.3915   48.3965 O   0  0  0  0  0  0  0  0  0  0  0  0
   47.9885   33.4920   48.6991 O   0  0  0  0  0  0  0  0  0  0  0  0
   48.8380   30.8709   46.0773 N   0  0  0  0  0  0  0  0  0  0  0  0
   49.8391   29.9034   46.3191 C   0  0  0  0  0  0  0  0  0  0  0  0
   50.5222   29.4788   47.3120 O   0  0  0  0  0  0  0  0  0  0  0  0
   49.9039   29.4410   44.9292 C   0  0  2  0  0  0  0  0  0  0  0  0
   49.4524   28.4336   44.8161 H   0  0  0  0  0  0  0  0  0  0  0  0
   49.0088   30.6006   44.6641 C   0  0  1  0  0  0  0  0  0  0  0  0
   47.3507   30.0858   44.0737 S   0  0  0  0  0  0  0  0  0  0  0  0
   46.2893   31.3730   44.7167 C   0  0  2  0  0  0  0  0  0  0  0  0
   46.1813   32.1590   43.9186 H   0  0  0  0  0  0  0  0  0  0  0  0
   44.7838   32.5673   46.5885 H   0  0  0  0  0  0  0  0  0  0  0  0
   46.0560   33.4760   47.3901 H   0  0  0  0  0  0  0  0  0  0  0  0
   47.3143   33.3131   49.4549 H   0  0  0  0  0  0  0  0  0  0  0  0
   50.9392   29.5586   44.5301 H   0  0  0  0  0  0  0  0  0  0  0  0
   49.3693   31.4273   44.0496 H   0  0  0  0  0  0  0  0  0  0  0  0
   45.2633   30.9710   44.8332 H   0  0  0  0  0  0  0  0  0  0  0  0
  1  6  2  0
  2  1  1  0
  3  2  2  0
  3  4  1  0
  4  5  2  0
  5  6  1  0
  7  3  1  0
  1  8  1  0
  2  9  1  0
  7 10  1  0
 11 12  1  0
 12 13  2  0
 13 14  1  0
 14 15  2  0
 14 16  1  0
 13 17  1  0
 17 18  1  0
 18 19  2  0
 18 20  1  0
 20 21  1  1
 20 22  1  0
 22 23  1  0
 23 24  1  0
 24 25  1  6
 24 12  1  0
 22 17  1  0
 11 26  1  0
 11 27  1  0
 16 28  1  0
 20 29  1  0
 22 30  1  6
 24 31  1  0
  5 11  1  0
M  ISO  5   8  14   9  14  10  11  21  15  25  15
M  END
>  <DihAtoms>  (1) 
3,4,10,11

>  <DihDeg>  (1) 
-90.01976915318161

$$$$
