
 OpenBabel03242512343D

 27 29  0  0  1  0  0  0  0  0999 V2000
   42.8990   34.7600   39.5840 C   0  0  0  0  0  0  0  0  0  0  0  0
   43.8250   33.8750   39.3260 C   0  0  0  0  0  0  0  0  0  0  0  0
   44.6910   33.4280   40.3620 N   0  0  0  0  0  0  0  0  0  0  0  0
   46.0370   33.0630   40.7360 C   0  0  0  0  0  0  0  0  0  0  0  0
   47.1700   32.9340   40.1580 O   0  0  0  0  0  0  0  0  0  0  0  0
   45.5970   32.8810   42.1240 C   0  0  2  0  0  3  0  0  0  0  0  0
   44.1940   33.1620   41.7240 C   0  0  1  0  0  3  0  0  0  0  0  0
   43.4710   34.6950   42.2860 S   0  0  0  0  0  0  0  0  0  0  0  0
   42.6130   35.4110   40.8800 C   0  0  0  0  0  3  0  0  0  0  0  0
   41.5110   35.2470   41.0660 H   0  0  0  0  0  0  0  0  0  0  0  0
   46.2040   33.8080   43.1300 C   0  0  0  0  0  0  0  0  0  0  0  0
   46.6350   34.8930   42.6330 O   0  0  0  0  0  0  0  0  0  0  0  0
   46.2470   33.4140   44.5010 C   0  0  0  0  0  0  0  0  0  0  0  0
   45.3510   34.1090   45.3110 C   0  0  0  0  0  0  0  0  0  0  0  0
   45.3220   33.7880   46.6800 C   0  0  0  0  0  0  0  0  0  0  0  0
   46.1790   32.8160   47.1160 N   0  0  0  0  0  0  0  0  0  0  0  0
   47.0250   32.1730   46.2990 C   0  0  0  0  0  0  0  0  0  0  0  0
   47.0570   32.4760   44.9870 N   0  0  0  0  0  0  0  0  0  0  0  0
   44.6750   34.8780   44.9580 H   0  0  0  0  0  0  0  0  0  0  0  0
   44.6460   34.2950   47.3560 H   0  0  0  0  0  0  0  0  0  0  0  0
   47.6490   31.4250   46.7740 H   0  0  0  0  0  0  0  0  0  0  0  0
   42.0570   35.1390   38.4200 C   0  0  0  0  0  2  0  0  0  0  0  0
   41.3020   35.8810   38.7470 H   0  0  0  0  0  0  0  0  0  0  0  0
   44.0130   33.3040   37.9850 C   0  0  0  0  0  0  0  0  0  0  0  0
   43.5800   32.2150   37.5350 O   0  0  0  0  0  0  0  0  0  0  0  0
   44.7330   33.9250   36.9800 O   0  0  0  0  0  0  0  0  0  0  0  0
   44.4260   33.9370   36.0190 H   0  0  0  0  0  0  0  0  0  0  0  0
  1  9  1  0  0  0  0
  2  1  2  0  0  0  0
  2  3  1  0  0  0  0
  3  4  1  0  0  0  0
  3  7  1  0  0  0  0
  4  6  1  0  0  0  0
  5  4  2  0  0  0  0
  6 11  1  1  0  0  0
  7  6  1  0  0  0  0
  7  8  1  1  0  0  0
  9 10  1  0  0  0  0
  9  8  1  0  0  0  0
 11 13  1  0  0  0  0
 12 11  2  0  0  0  0
 13 18  2  0  0  0  0
 13 14  1  0  0  0  0
 14 15  2  0  0  0  0
 15 16  1  0  0  0  0
 15 20  1  0  0  0  0
 17 21  1  0  0  0  0
 17 16  2  0  0  0  0
 18 17  1  0  0  0  0
 19 14  1  0  0  0  0
 22 23  1  0  0  0  0
 22  1  1  0  0  0  0
 24  2  1  0  0  0  0
 25 24  2  0  0  0  0
 26 24  1  0  0  0  0
 27 26  1  0  0  0  0
M  END
>  <minimizedAffinity>
-4.39157391

>  <minimizedRMSD>
2.01071405

$$$$
