REMARK  Name = 
REMARK  6 active torsions:
REMARK  status: ('A' for Active; 'I' for Inactive)
REMARK    1  A    between atoms: C_3  and  C_10
REMARK    2  A    between atoms: C_7  and  C_14
REMARK    3  A    between atoms: C_14  and  C_32
REMARK    4  A    between atoms: C_22  and  C_24
REMARK    5  A    between atoms: C_25  and  C_26
REMARK    6  A    between atoms: C_26  and  O_28
REMARK                            x       y       z     vdW  Elec       q    Type
REMARK                         _______ _______ _______ _____ _____    ______ ____
ROOT
ATOM      1 BR   UNL     1      44.576  33.112  41.221  0.00  0.00    +0.000 Br
ATOM      2  C   UNL     1      46.252  33.988  41.016  0.00  0.00    +0.000 A 
ATOM      3  C   UNL     1      46.807  34.761  42.020  0.00  0.00    +0.000 A 
ATOM      4  C   UNL     1      48.031  35.369  41.778  0.00  0.00    +0.000 A 
ATOM      5  C   UNL     1      48.702  35.225  40.579  0.00  0.00    +0.000 A 
ATOM      6  C   UNL     1      48.150  34.452  39.574  0.00  0.00    +0.000 A 
ATOM      7  C   UNL     1      46.926  33.852  39.833  0.00  0.00    +0.000 A 
ATOM      8  H   UNL     1      48.441  35.959  42.561  0.00  0.00    +0.000 HD
ATOM      9  H   UNL     1      49.658  35.747  40.495  0.00  0.00    +0.000 HD
ATOM     10  H   UNL     1      48.691  34.349  38.634  0.00  0.00    +0.000 HD
ENDROOT
BRANCH   3  13
ATOM     11  C   UNL     1      44.485  35.959  44.754  0.00  0.00    +0.000 A 
ATOM     12  C   UNL     1      45.177  35.887  43.535  0.00  0.00    +0.000 A 
ATOM     13  C   UNL     1      46.069  34.876  43.266  0.00  0.00    +0.000 A 
ATOM     14  N   UNL     1      46.218  33.959  44.279  0.00  0.00    +0.000 NA
ATOM     15  C   UNL     1      45.554  34.036  45.438  0.00  0.00    +0.000 A 
ATOM     16  N   UNL     1      44.700  35.017  45.678  0.00  0.00    +0.000 NA
ATOM     17  H   UNL     1      43.786  36.748  44.971  0.00  0.00    +0.000 HD
ATOM     18  H   UNL     1      45.000  36.641  42.805  0.00  0.00    +0.000 HD
ATOM     19  H   UNL     1      45.832  33.208  46.081  0.00  0.00    +0.000 HD
ENDBRANCH   3  13
BRANCH   7  20
ATOM     20  C   UNL     1      46.382  33.029  38.775  0.00  0.00    +0.000 C 
ATOM     21  O   UNL     1      46.532  33.388  37.549  0.00  0.00    +0.000 OA
BRANCH  20  27
ATOM     22  C   UNL     1      43.135  29.105  36.994  0.00  0.00    +0.000 C 
ATOM     23  C   UNL     1      44.427  29.184  36.861  0.00  0.00    +0.000 C 
ATOM     24  N   UNL     1      45.187  30.183  37.480  0.00  0.00    +0.000 N 
ATOM     25  C   UNL     1      46.367  30.608  38.177  0.00  0.00    +0.000 C 
ATOM     26  O   UNL     1      47.555  30.141  38.216  0.00  0.00    +0.000 OA
ATOM     27  C   UNL     1      45.624  31.747  38.780  0.00  0.00    +0.000 C 
ATOM     28  C   UNL     1      44.714  31.553  37.564  0.00  0.00    +0.000 C 
ATOM     29  S   UNL     1      42.983  31.608  38.122  0.00  0.00    +0.000 S 
ATOM     30  C   UNL     1      42.275  29.998  37.779  0.00  0.00    +0.000 C 
ATOM     31  H   UNL     1      41.355  30.185  37.150  0.00  0.00    +0.000 HD
BRANCH  22  32
ATOM     32  C   UNL     1      42.486  27.985  36.267  0.00  0.00    +0.000 C 
ATOM     33  H   UNL     1      42.942  27.857  35.249  0.00  0.00    +0.000 HD
ENDBRANCH  22  32
BRANCH  23  34
ATOM     34  C   UNL     1      45.074  28.179  36.028  0.00  0.00    +0.000 C 
ATOM     35  O   UNL     1      46.331  28.142  35.816  0.00  0.00    +0.000 OA
BRANCH  34  36
ATOM     36  O   UNL     1      45.474  27.153  35.216  0.00  0.00    +0.000 OA
ATOM     37  H   UNL     1      44.837  26.444  34.837  0.00  0.00    +0.000 HD
ENDBRANCH  34  36
ENDBRANCH  23  34
ENDBRANCH  20  27
ENDBRANCH   7  20
TORSDOF 6
