
     RDKit          3D

 31 33  0  0  0  0  0  0  0  0999 V2000
   44.5371   36.0288   44.5364 C   0  0  0  0  0  0  0  0  0  0  0  0
   45.2660   35.8862   43.3183 C   0  0  0  0  0  0  0  0  0  0  0  0
   46.1357   34.7898   43.2041 C   0  0  0  0  0  0  0  0  0  0  0  0
   46.2319   33.9385   44.2469 N   0  0  0  0  0  0  0  0  0  0  0  0
   45.5235   34.1040   45.3918 C   0  0  0  0  0  0  0  0  0  0  0  0
   44.6873   35.1410   45.5265 N   0  0  0  0  0  0  0  0  0  0  0  0
   47.0695   34.5647   41.7050 S   0  0  0  0  0  0  0  0  0  0  0  0
   43.8738   36.8571   44.6349 H   0  0  0  0  0  0  0  0  0  0  0  0
   45.1367   36.6054   42.5310 H   0  0  0  0  0  0  0  0  0  0  0  0
   47.1756   33.2080   41.3475 H   0  0  0  0  0  0  0  0  0  0  0  0
   45.7980   33.0308   46.4071 C   0  0  0  0  0  0  0  0  0  0  0  0
   46.1524   31.7455   45.7867 C   0  0  0  0  0  0  0  0  0  0  0  0
   47.2933   31.1571   46.0024 C   0  0  0  0  0  0  0  0  0  0  0  0
   48.3148   31.7208   46.8757 C   0  0  0  0  0  0  0  0  0  0  0  0
   49.4371   31.2210   47.1384 O   0  0  0  0  0  0  0  0  0  0  0  0
   48.7089   32.7446   47.7143 O   0  0  0  0  0  0  0  0  0  0  0  0
   47.6291   29.9237   45.4030 N   0  0  0  0  0  0  0  0  0  0  0  0
   48.2810   28.6704   45.4371 C   0  0  0  0  0  0  0  0  0  0  0  0
   49.1106   28.0575   46.1913 O   0  0  0  0  0  0  0  0  0  0  0  0
   47.6699   28.1783   44.1984 C   0  0  2  0  0  0  0  0  0  0  0  0
   46.9120   27.3944   44.4045 H   0  0  0  0  0  0  0  0  0  0  0  0
   47.1632   29.5727   44.0766 C   0  0  1  0  0  0  0  0  0  0  0  0
   45.3343   29.6651   44.1742 S   0  0  0  0  0  0  0  0  0  0  0  0
   45.0630   31.2621   44.9311 C   0  0  2  0  0  0  0  0  0  0  0  0
   44.9225   32.0136   44.1053 H   0  0  0  0  0  0  0  0  0  0  0  0
   44.8344   32.9630   46.9930 H   0  0  0  0  0  0  0  0  0  0  0  0
   46.5325   33.3813   47.1612 H   0  0  0  0  0  0  0  0  0  0  0  0
   48.3471   32.8371   48.6725 H   0  0  0  0  0  0  0  0  0  0  0  0
   48.4597   27.9097   43.4575 H   0  0  0  0  0  0  0  0  0  0  0  0
   47.5123   30.2007   43.2551 H   0  0  0  0  0  0  0  0  0  0  0  0
   44.0846   31.2542   45.4512 H   0  0  0  0  0  0  0  0  0  0  0  0
  1  6  2  0
  2  1  1  0
  3  2  2  0
  3  4  1  0
  4  5  2  0
  5  6  1  0
  7  3  1  0
  1  8  1  0
  2  9  1  0
  7 10  1  0
 11 12  1  0
 12 13  2  0
 13 14  1  0
 14 15  2  0
 14 16  1  0
 13 17  1  0
 17 18  1  0
 18 19  2  0
 18 20  1  0
 20 21  1  1
 20 22  1  0
 22 23  1  0
 23 24  1  0
 24 25  1  6
 24 12  1  0
 22 17  1  0
 11 26  1  0
 11 27  1  0
 16 28  1  0
 20 29  1  0
 22 30  1  6
 24 31  1  0
  5 11  1  0
M  ISO  5   8  14   9  14  10  11  21  15  25  15
M  END
>  <DihAtoms>  (1) 
3,4,10,11

>  <DihDeg>  (1) 
-90.01976915318161

$$$$
