
 OpenBabel03242523323D

 44 48  0  0  1  0  0  0  0  0999 V2000
   44.4260   36.2630   45.0130 C   0  0  0  0  0  0  0  0  0  0  0  0
   45.0530   36.1570   43.7670 C   0  0  0  0  0  0  0  0  0  0  0  0
   45.8180   35.0320   43.4470 C   0  0  0  0  0  0  0  0  0  0  0  0
   45.9300   34.0410   44.3960 N   0  0  0  0  0  0  0  0  0  0  0  0
   45.3150   34.1610   45.6010 C   0  0  0  0  0  0  0  0  0  0  0  0
   44.5840   35.2570   45.8810 N   0  0  0  0  0  0  0  0  0  0  0  0
   43.8390   37.1430   45.2390 H   0  0  0  0  0  0  0  0  0  0  0  0
   44.9680   36.9220   43.0300 H   0  0  0  0  0  0  0  0  0  0  0  0
   45.5090   33.0360   46.5440 C   0  0  0  0  0  0  0  0  0  0  0  0
   45.7000   33.4940   47.5120 H   0  0  0  0  0  0  0  0  0  0  0  0
   44.5720   32.4250   46.6490 H   0  0  0  0  0  0  0  0  0  0  0  0
   46.8050   31.9830   45.8900 S   0  0  0  0  0  0  0  0  0  0  0  0
   47.7450   31.2440   47.2060 C   0  0  0  0  0  0  0  0  0  0  0  0
   48.0080   32.0100   48.3210 C   0  0  0  0  0  0  0  0  0  0  0  0
   48.7320   31.4470   49.3290 C   0  0  0  0  0  0  0  0  0  0  0  0
   49.2060   30.1260   49.2620 C   0  0  0  0  0  0  0  0  0  0  0  0
   49.9130   29.6220   50.2880 N   0  0  0  0  0  0  0  0  0  0  0  0
   50.3830   28.3560   50.2540 C   0  0  0  0  0  0  0  0  0  0  0  0
   50.1300   27.5910   49.1590 C   0  0  0  0  0  0  0  0  0  0  0  0
   49.4040   28.1190   48.1170 C   0  0  0  0  0  0  0  0  0  0  0  0
   48.9010   29.4130   48.1060 C   0  0  0  0  0  0  0  0  0  0  0  0
   48.1790   29.9470   47.0720 C   0  0  0  0  0  0  0  0  0  0  0  0
   47.6990   33.0330   48.4900 H   0  0  0  0  0  0  0  0  0  0  0  0
   48.9760   32.0010   50.2440 H   0  0  0  0  0  0  0  0  0  0  0  0
   50.9410   28.0300   51.1200 H   0  0  0  0  0  0  0  0  0  0  0  0
   50.4970   26.5720   49.1110 H   0  0  0  0  0  0  0  0  0  0  0  0
   49.2160   27.4870   47.2550 H   0  0  0  0  0  0  0  0  0  0  0  0
   47.9810   29.3470   46.2180 H   0  0  0  0  0  0  0  0  0  0  0  0
   46.5520   34.8460   42.2110 C   0  0  0  0  0  2  0  0  0  0  0  0
   46.0380   34.0230   41.1450 C   0  0  0  0  0  0  0  0  0  0  0  0
   44.8760   33.9750   40.5070 C   0  0  0  0  0  0  0  0  0  0  0  0
   44.5660   33.0610   39.4330 N   0  0  0  0  0  0  0  0  0  0  0  0
   43.6770   32.1530   38.7950 C   0  0  0  0  0  0  0  0  0  0  0  0
   42.4120   32.2040   38.7420 O   0  0  0  0  0  0  0  0  0  0  0  0
   44.9190   31.3950   38.3960 C   0  0  0  0  0  3  0  0  0  0  0  0
   44.8350   30.8850   37.4310 H   0  0  0  0  0  0  0  0  0  0  0  0
   45.5070   32.7880   38.3560 C   0  0  2  0  0  3  0  0  0  0  0  0
   47.2110   32.9480   38.9190 S   0  0  0  0  0  0  0  0  0  0  0  0
   47.0600   33.0310   40.7240 C   0  0  0  0  0  3  0  0  0  0  0  0
   46.8170   32.0190   41.1250 H   0  0  0  0  0  0  0  0  0  0  0  0
   43.8680   34.9360   40.9400 C   0  0  0  0  0  2  0  0  0  0  0  0
   42.9860   35.3150   40.0950 O   0  0  0  0  0  0  0  0  0  0  0  0
   42.8990   35.8450   41.3160 O   0  0  0  0  0  0  0  0  0  0  0  0
   42.6100   35.9520   42.2910 H   0  0  0  0  0  0  0  0  0  0  0  0
  1  7  1  0  0  0  0
  1  6  1  0  0  0  0
  2  1  2  0  0  0  0
  3  2  1  0  0  0  0
  3  4  2  0  0  0  0
  4  5  1  0  0  0  0
  5  6  2  0  0  0  0
  5  9  1  0  0  0  0
  8  2  1  0  0  0  0
  9 11  1  0  0  0  0
  9 10  1  0  0  0  0
 12  9  1  0  0  0  0
 12 13  1  0  0  0  0
 13 14  1  0  0  0  0
 14 23  1  0  0  0  0
 14 15  2  0  0  0  0
 15 24  1  0  0  0  0
 16 15  1  0  0  0  0
 16 17  1  0  0  0  0
 18 17  2  0  0  0  0
 18 25  1  0  0  0  0
 19 18  1  0  0  0  0
 20 19  2  0  0  0  0
 21 20  1  0  0  0  0
 21 16  2  0  0  0  0
 22 13  2  0  0  0  0
 22 21  1  0  0  0  0
 26 19  1  0  0  0  0
 27 20  1  0  0  0  0
 28 22  1  0  0  0  0
 29  3  1  0  0  0  0
 30 29  1  0  0  0  0
 31 41  1  0  0  0  0
 31 30  2  0  0  0  0
 32 31  1  0  0  0  0
 33 32  1  0  0  0  0
 34 33  2  0  0  0  0
 35 33  1  0  0  0  0
 36 35  1  0  0  0  0
 37 35  1  1  0  0  0
 37 38  1  0  0  0  0
 37 32  1  0  0  0  0
 38 39  1  0  0  0  0
 39 40  1  0  0  0  0
 39 30  1  0  0  0  0
 42 41  1  0  0  0  0
 42 43  1  0  0  0  0
 43 44  1  0  0  0  0
M  END
>  <minimizedAffinity>
-6.13052034

>  <minimizedRMSD>
2.93960238

$$$$
