
 OpenBabel03242523383D

 26 28  0  0  1  0  0  0  0  0999 V2000
   46.4920   31.5010   45.1230 C   0  0  0  0  0  0  0  0  0  0  0  0
   47.1800   31.1810   46.1810 C   0  0  0  0  0  0  0  0  0  0  0  0
   47.8990   29.9710   46.2730 N   0  0  0  0  0  0  0  0  0  0  0  0
   48.3990   28.8840   47.0270 C   0  0  0  0  0  0  0  0  0  0  0  0
   48.4890   28.5510   48.2570 O   0  0  0  0  0  0  0  0  0  0  0  0
   48.8590   28.1240   45.8610 C   0  0  0  0  0  3  0  0  0  0  0  0
   48.2150   27.2410   45.6730 H   0  0  0  0  0  0  0  0  0  0  0  0
   48.5170   29.3650   45.1110 C   0  0  1  0  0  3  0  0  0  0  0  0
   47.1450   29.1080   43.9210 S   0  0  0  0  0  0  0  0  0  0  0  0
   46.3430   30.7060   43.8990 C   0  0  0  0  0  3  0  0  0  0  0  0
   46.7870   31.3010   43.0530 H   0  0  0  0  0  0  0  0  0  0  0  0
   47.2650   32.0440   47.3530 C   0  0  0  0  0  0  0  0  0  0  0  0
   46.9220   31.7520   48.5260 O   0  0  0  0  0  0  0  0  0  0  0  0
   47.6120   33.2690   47.8880 O   0  0  0  0  0  0  0  0  0  0  0  0
   47.0310   34.1070   47.7560 H   0  0  0  0  0  0  0  0  0  0  0  0
   45.7430   32.7630   45.0210 C   0  0  0  0  0  2  0  0  0  0  0  0
   45.7010   34.6640   41.7860 C   0  0  0  0  0  0  0  0  0  0  0  0
   47.0910   34.9550   41.6520 C   0  0  0  0  0  0  0  0  0  0  0  0
   47.9540   34.4930   42.6580 C   0  0  0  0  0  0  0  0  0  0  0  0
   47.4230   33.8030   43.6900 N   0  0  0  0  0  0  0  0  0  0  0  0
   46.0940   33.5440   43.7870 C   0  0  0  0  0  0  0  0  0  0  0  0
   45.2500   33.9730   42.8400 N   0  0  0  0  0  0  0  0  0  0  0  0
   45.0360   35.0090   41.0290 H   0  0  0  0  0  0  0  0  0  0  0  0
   47.4410   35.5100   40.8010 H   0  0  0  0  0  0  0  0  0  0  0  0
   49.6980   34.8290   42.5380 S   0  0  0  0  0  0  0  0  0  0  0  0
   50.4780   33.7450   42.9840 H   0  0  0  0  0  0  0  0  0  0  0  0
  1  2  2  0  0  0  0
  2  3  1  0  0  0  0
  2 12  1  0  0  0  0
  3  4  1  0  0  0  0
  4  5  2  0  0  0  0
  6  4  1  0  0  0  0
  7  6  1  0  0  0  0
  8  9  1  6  0  0  0
  8  6  1  0  0  0  0
  8  3  1  0  0  0  0
 10  9  1  0  0  0  0
 10  1  1  0  0  0  0
 11 10  1  0  0  0  0
 12 14  1  0  0  0  0
 12 13  2  0  0  0  0
 15 14  1  0  0  0  0
 16  1  1  0  0  0  0
 17 22  1  0  0  0  0
 18 17  2  0  0  0  0
 18 19  1  0  0  0  0
 19 20  2  0  0  0  0
 20 21  1  0  0  0  0
 21 16  1  0  0  0  0
 22 21  2  0  0  0  0
 23 17  1  0  0  0  0
 24 18  1  0  0  0  0
 25 19  1  0  0  0  0
 25 26  1  0  0  0  0
M  END
>  <minimizedAffinity>
-4.30437183

>  <minimizedRMSD>
1.99035001

$$$$
