
     RDKit          3D

 34 36  0  0  0  0  0  0  0  0999 V2000
   44.9152   35.1335   44.0487 C   0  0  0  0  0  0  0  0  0  0  0  0
   45.7361   35.3894   42.9283 C   0  0  0  0  0  0  0  0  0  0  0  0
   46.9483   34.6758   42.8160 C   0  0  0  0  0  0  0  0  0  0  0  0
   47.2458   33.7851   43.7994 N   0  0  0  0  0  0  0  0  0  0  0  0
   46.4294   33.5727   44.8540 C   0  0  0  0  0  0  0  0  0  0  0  0
   45.2849   34.2474   44.9589 N   0  0  0  0  0  0  0  0  0  0  0  0
   43.6969   35.8415   44.1746 N   0  0  0  0  0  0  0  0  0  0  0  0
   47.7426   34.9722   41.6629 C   0  0  0  0  0  0  0  0  0  0  0  0
   48.6678   35.8174   41.6482 O   0  0  0  0  0  0  0  0  0  0  0  0
   45.4150   36.1202   42.1927 H   0  0  0  0  0  0  0  0  0  0  0  0
   46.7182   32.8498   45.6085 H   0  0  0  0  0  0  0  0  0  0  0  0
   43.9360   36.8433   44.4333 H   0  0  0  0  0  0  0  0  0  0  0  0
   42.7113   35.4799   44.0444 H   0  0  0  0  0  0  0  0  0  0  0  0
   48.7755   30.4861   36.5502 C   0  0  0  0  0  0  0  0  0  0  0  0
   49.6513   29.9033   36.8992 H   0  0  0  0  0  0  0  0  0  0  0  0
   48.4626   31.5958   37.4470 C   0  0  0  0  0  0  0  0  0  0  0  0
   48.1608   31.2897   38.6972 C   0  0  0  0  0  0  0  0  0  0  0  0
   48.1315   29.9160   39.1875 C   0  0  0  0  0  0  0  0  0  0  0  0
   47.8637   29.5099   40.3308 O   0  0  0  0  0  0  0  0  0  0  0  0
   48.3955   28.7497   38.4904 O   0  0  0  0  0  0  0  0  0  0  0  0
   47.8598   32.3407   39.6064 N   0  0  0  0  0  0  0  0  0  0  0  0
   46.9538   32.8606   40.6130 C   0  0  0  0  0  0  0  0  0  0  0  0
   46.0715   32.3387   41.3786 O   0  0  0  0  0  0  0  0  0  0  0  0
   47.4887   34.2535   40.3733 C   0  0  2  0  0  0  0  0  0  0  0  0
   48.6900   33.5423   39.7869 C   0  0  2  0  0  0  0  0  0  0  0  0
   49.1974   34.0890   38.1447 S   0  0  0  0  0  0  0  0  0  0  0  0
   48.4900   32.9675   36.9149 C   0  0  1  0  0  0  0  0  0  0  0  0
   49.0432   32.9989   35.9554 H   0  0  0  0  0  0  0  0  0  0  0  0
   48.9879   30.8258   35.5103 H   0  0  0  0  0  0  0  0  0  0  0  0
   47.9294   29.7483   36.4349 H   0  0  0  0  0  0  0  0  0  0  0  0
   49.1146   28.0859   38.7336 H   0  0  0  0  0  0  0  0  0  0  0  0
   46.9487   34.8292   39.6204 H   0  0  0  0  0  0  0  0  0  0  0  0
   49.5164   33.3775   40.4941 H   0  0  0  0  0  0  0  0  0  0  0  0
   47.4556   33.3532   36.6996 H   0  0  0  0  0  0  0  0  0  0  0  0
  1  7  1  0
  1  6  2  0
  2  1  1  0
  3  2  2  0
  3  4  1  0
  4  5  2  0
  5  6  1  0
  8  3  1  0
  9  8  2  0
  2 10  1  0
  5 11  1  0
  7 12  1  0
  7 13  1  0
 14 15  1  0
 14 16  1  0
 16 17  2  0
 17 18  1  0
 18 19  2  0
 18 20  1  0
 17 21  1  0
 21 22  1  0
 22 23  2  0
 22 24  1  0
 24 25  1  0
 25 26  1  0
 26 27  1  0
 27 28  1  6
 27 16  1  0
 25 21  1  0
 14 29  1  0
 14 30  1  0
 20 31  1  0
 24 32  1  6
 25 33  1  1
 27 34  1  0
  8 24  1  0
M  ISO  4  10  14  11  14  15   8  28  15
M  END
>  <DihAtoms>  (1) 
2,7,23,21

>  <DihDeg>  (1) 
-179.99765998644892

$$$$
