
     RDKit          3D

 35 37  0  0  0  0  0  0  0  0999 V2000
   45.5311   34.0335   45.5854 C   0  0  0  0  0  0  0  0  0  0  0  0
   46.2376   33.8999   44.3812 C   0  0  0  0  0  0  0  0  0  0  0  0
   47.0849   32.7898   44.2331 C   0  0  0  0  0  0  0  0  0  0  0  0
   47.1620   31.9128   45.2788 N   0  0  0  0  0  0  0  0  0  0  0  0
   46.4701   32.0805   46.4077 C   0  0  0  0  0  0  0  0  0  0  0  0
   45.6694   33.1259   46.5524 N   0  0  0  0  0  0  0  0  0  0  0  0
   44.7245   35.1172   45.6895 O   0  0  0  0  0  0  0  0  0  0  0  0
   44.3892   35.9542   44.6312 C   0  0  0  0  0  0  0  0  0  0  0  0
   45.0208   37.0229   44.3092 O   0  0  0  0  0  0  0  0  0  0  0  0
   43.2876   35.7404   43.7484 N   0  0  0  0  0  0  0  0  0  0  0  0
   46.2082   34.5628   43.5341 H   0  0  0  0  0  0  0  0  0  0  0  0
   47.6706   32.5942   43.3505 H   0  0  0  0  0  0  0  0  0  0  0  0
   43.2630   35.5358   42.7111 H   0  0  0  0  0  0  0  0  0  0  0  0
   42.2421   35.6704   43.5876 H   0  0  0  0  0  0  0  0  0  0  0  0
   46.5984   31.0787   47.5229 C   0  0  0  0  0  0  0  0  0  0  0  0
   47.9887   30.6995   47.7881 C   0  0  0  0  0  0  0  0  0  0  0  0
   48.2743   29.4199   47.6370 C   0  0  0  0  0  0  0  0  0  0  0  0
   47.2742   28.4352   47.2310 C   0  0  0  0  0  0  0  0  0  0  0  0
   47.5123   27.2029   47.0818 O   0  0  0  0  0  0  0  0  0  0  0  0
   46.0699   27.8966   46.8506 O   0  0  0  0  0  0  0  0  0  0  0  0
   49.5815   28.9440   47.8634 N   0  0  0  0  0  0  0  0  0  0  0  0
   50.4868   27.9346   48.3595 C   0  0  0  0  0  0  0  0  0  0  0  0
   50.3843   26.6927   48.3710 O   0  0  0  0  0  0  0  0  0  0  0  0
   51.3749   29.0909   48.7395 C   0  0  1  0  0  0  0  0  0  0  0  0
   51.0020   29.5999   49.6538 H   0  0  0  0  0  0  0  0  0  0  0  0
   50.7699   29.6852   47.4859 C   0  0  2  0  0  0  0  0  0  0  0  0
   50.5297   31.4509   47.4837 S   0  0  0  0  0  0  0  0  0  0  0  0
   48.9176   31.7662   48.1973 C   0  0  1  0  0  0  0  0  0  0  0  0
   48.5621   32.7357   47.7601 H   0  0  0  0  0  0  0  0  0  0  0  0
   45.9041   30.2642   47.3158 H   0  0  0  0  0  0  0  0  0  0  0  0
   46.2225   31.5428   48.4843 H   0  0  0  0  0  0  0  0  0  0  0  0
   45.6043   28.2836   46.0298 H   0  0  0  0  0  0  0  0  0  0  0  0
   52.4453   28.8730   48.7215 H   0  0  0  0  0  0  0  0  0  0  0  0
   51.2842   29.3290   46.5867 H   0  0  0  0  0  0  0  0  0  0  0  0
   49.0219   31.8488   49.2984 H   0  0  0  0  0  0  0  0  0  0  0  0
  1  7  1  0
  1  6  2  0
  2  1  1  0
  3  2  2  0
  3  4  1  0
  4  5  2  0
  5  6  1  0
  8  7  1  0
  9  8  2  0
 10  8  1  0
  2 11  1  0
  3 12  1  0
 10 13  1  0
 10 14  1  0
 15 16  1  0
 16 17  2  0
 17 18  1  0
 18 19  2  0
 18 20  1  0
 17 21  1  0
 21 22  1  0
 22 23  2  0
 22 24  1  0
 24 25  1  1
 24 26  1  0
 26 27  1  0
 27 28  1  0
 28 29  1  6
 28 16  1  0
 26 21  1  0
 15 30  1  0
 15 31  1  0
 20 32  1  0
 24 33  1  0
 26 34  1  6
 28 35  1  0
  5 15  1  0
M  ISO  4  11  14  12  14  25  15  29  15
M  END
>  <DihAtoms>  (1) 
3,4,14,15

>  <DihDeg>  (1) 
90.02617900482592

$$$$
