
     RDKit          3D

 34 36  0  0  0  0  0  0  0  0999 V2000
   44.9152   35.1335   44.0487 C   0  0  0  0  0  0  0  0  0  0  0  0
   45.7361   35.3894   42.9283 C   0  0  0  0  0  0  0  0  0  0  0  0
   46.9483   34.6758   42.8160 C   0  0  0  0  0  0  0  0  0  0  0  0
   47.2458   33.7851   43.7994 N   0  0  0  0  0  0  0  0  0  0  0  0
   46.4294   33.5727   44.8540 C   0  0  0  0  0  0  0  0  0  0  0  0
   45.2849   34.2474   44.9589 N   0  0  0  0  0  0  0  0  0  0  0  0
   43.6969   35.8415   44.1746 N   0  0  0  0  0  0  0  0  0  0  0  0
   47.7426   34.9722   41.6629 C   0  0  0  0  0  0  0  0  0  0  0  0
   48.6678   35.8174   41.6482 O   0  0  0  0  0  0  0  0  0  0  0  0
   45.4150   36.1202   42.1927 H   0  0  0  0  0  0  0  0  0  0  0  0
   46.7182   32.8498   45.6085 H   0  0  0  0  0  0  0  0  0  0  0  0
   43.9360   36.8433   44.4333 H   0  0  0  0  0  0  0  0  0  0  0  0
   42.7113   35.4799   44.0444 H   0  0  0  0  0  0  0  0  0  0  0  0
   44.2548   32.8349   36.1313 C   0  0  0  0  0  0  0  0  0  0  0  0
   43.2921   33.3776   36.2150 H   0  0  0  0  0  0  0  0  0  0  0  0
   45.1099   33.0523   37.2954 C   0  0  0  0  0  0  0  0  0  0  0  0
   45.4706   34.2984   37.5501 C   0  0  0  0  0  0  0  0  0  0  0  0
   45.0513   35.4251   36.7237 C   0  0  0  0  0  0  0  0  0  0  0  0
   45.3255   36.6289   36.8631 O   0  0  0  0  0  0  0  0  0  0  0  0
   44.2516   35.4107   35.5940 O   0  0  0  0  0  0  0  0  0  0  0  0
   46.2944   34.5559   38.6800 N   0  0  0  0  0  0  0  0  0  0  0  0
   47.4812   35.2074   39.2012 C   0  0  0  0  0  0  0  0  0  0  0  0
   48.2084   36.1862   38.8137 O   0  0  0  0  0  0  0  0  0  0  0  0
   47.4887   34.2535   40.3733 C   0  0  2  0  0  0  0  0  0  0  0  0
   46.0286   34.0412   40.0328 C   0  0  2  0  0  0  0  0  0  0  0  0
   45.5093   32.3231   39.8550 S   0  0  0  0  0  0  0  0  0  0  0  0
   45.5234   31.8909   38.0990 C   0  0  1  0  0  0  0  0  0  0  0  0
   44.8762   31.0188   37.8793 H   0  0  0  0  0  0  0  0  0  0  0  0
   44.0225   31.7571   35.9689 H   0  0  0  0  0  0  0  0  0  0  0  0
   44.7232   33.1682   35.1602 H   0  0  0  0  0  0  0  0  0  0  0  0
   43.3831   35.9144   35.4992 H   0  0  0  0  0  0  0  0  0  0  0  0
   48.0776   33.3476   40.2238 H   0  0  0  0  0  0  0  0  0  0  0  0
   45.3290   34.6790   40.5932 H   0  0  0  0  0  0  0  0  0  0  0  0
   46.5767   31.5737   37.8643 H   0  0  0  0  0  0  0  0  0  0  0  0
  1  7  1  0
  1  6  2  0
  2  1  1  0
  3  2  2  0
  3  4  1  0
  4  5  2  0
  5  6  1  0
  8  3  1  0
  9  8  2  0
  2 10  1  0
  5 11  1  0
  7 12  1  0
  7 13  1  0
 14 15  1  0
 14 16  1  0
 16 17  2  0
 17 18  1  0
 18 19  2  0
 18 20  1  0
 17 21  1  0
 21 22  1  0
 22 23  2  0
 22 24  1  0
 24 25  1  0
 25 26  1  0
 26 27  1  0
 27 28  1  1
 27 16  1  0
 25 21  1  0
 14 29  1  0
 14 30  1  0
 20 31  1  0
 24 32  1  6
 25 33  1  1
 27 34  1  0
  8 24  1  0
M  ISO  4  10  14  11  14  15   8  28  15
M  END
>  <DihAtoms>  (1) 
2,7,23,21

>  <DihDeg>  (1) 
-179.99765998644892

$$$$
