
     RDKit          3D

 49 53  0  0  0  0  0  0  0  0999 V2000
   46.5467   31.6974   46.0596 S   0  0  0  0  0  0  0  0  0  0  0  0
   47.5994   31.0690   47.3487 C   0  0  0  0  0  0  0  0  0  0  0  0
   47.9419   31.9217   48.3755 C   0  0  0  0  0  0  0  0  0  0  0  0
   48.7508   31.4437   49.3633 C   0  0  0  0  0  0  0  0  0  0  0  0
   49.2352   30.1255   49.3602 C   0  0  0  0  0  0  0  0  0  0  0  0
   50.0294   29.7070   50.3616 N   0  0  0  0  0  0  0  0  0  0  0  0
   50.5098   28.4457   50.3875 C   0  0  0  0  0  0  0  0  0  0  0  0
   50.1788   27.5950   49.3805 C   0  0  0  0  0  0  0  0  0  0  0  0
   49.3655   28.0364   48.3624 C   0  0  0  0  0  0  0  0  0  0  0  0
   48.8474   29.3222   48.2916 C   0  0  0  0  0  0  0  0  0  0  0  0
   48.0368   29.7681   47.2823 C   0  0  0  0  0  0  0  0  0  0  0  0
   45.6102   33.1142   46.6353 C   0  0  0  0  0  0  0  0  0  0  0  0
   44.5893   35.9967   44.4954 C   0  0  0  0  0  0  0  0  0  0  0  0
   45.3558   35.7315   43.3565 C   0  0  0  0  0  0  0  0  0  0  0  0
   46.1942   34.6134   43.3050 C   0  0  0  0  0  0  0  0  0  0  0  0
   46.2345   33.7908   44.4089 N   0  0  0  0  0  0  0  0  0  0  0  0
   45.4830   34.0651   45.5062 C   0  0  0  0  0  0  0  0  0  0  0  0
   44.6855   35.1495   45.5263 N   0  0  0  0  0  0  0  0  0  0  0  0
   47.6350   32.9527   48.4899 H   0  0  0  0  0  0  0  0  0  0  0  0
   49.0609   32.0704   50.2088 H   0  0  0  0  0  0  0  0  0  0  0  0
   51.1404   28.1921   51.2280 H   0  0  0  0  0  0  0  0  0  0  0  0
   50.5537   26.5785   49.3824 H   0  0  0  0  0  0  0  0  0  0  0  0
   49.1162   27.3370   47.5702 H   0  0  0  0  0  0  0  0  0  0  0  0
   47.7794   29.1016   46.4960 H   0  0  0  0  0  0  0  0  0  0  0  0
   46.0469   33.6840   47.4512 H   0  0  0  0  0  0  0  0  0  0  0  0
   44.6033   32.7583   46.9837 H   0  0  0  0  0  0  0  0  0  0  0  0
   43.9480   36.8677   44.5123 H   0  0  0  0  0  0  0  0  0  0  0  0
   45.3267   36.3651   42.5004 H   0  0  0  0  0  0  0  0  0  0  0  0
   47.0687   34.2752   42.2005 C   0  0  0  0  0  0  0  0  0  0  0  0
   46.5662   34.1192   40.8594 C   0  0  0  0  0  0  0  0  0  0  0  0
   45.3581   34.2169   40.3203 C   0  0  0  0  0  0  0  0  0  0  0  0
   44.2731   34.5480   41.2360 C   0  0  0  0  0  0  0  0  0  0  0  0
   43.0886   34.6527   40.7646 O   0  0  0  0  0  0  0  0  0  0  0  0
   43.2210   34.8606   42.0749 O   0  0  0  0  0  0  0  0  0  0  0  0
   45.0668   34.0308   38.9176 N   0  0  0  0  0  0  0  0  0  0  0  0
   44.2587   33.4932   37.8788 C   0  0  0  0  0  0  0  0  0  0  0  0
   43.0030   33.3204   37.8748 O   0  0  0  0  0  0  0  0  0  0  0  0
   45.5469   33.3508   37.1060 C   0  0  2  0  0  0  0  0  0  0  0  0
   45.4284   33.4711   36.0238 H   0  0  0  0  0  0  0  0  0  0  0  0
   45.9050   34.6024   37.8728 C   0  0  2  0  0  0  0  0  0  0  0  0
   47.6197   34.7418   38.4122 S   0  0  0  0  0  0  0  0  0  0  0  0
   47.6707   33.7587   39.9341 C   0  0  2  0  0  0  0  0  0  0  0  0
   47.6350   32.6743   39.6792 H   0  0  0  0  0  0  0  0  0  0  0  0
   47.6340   33.3037   42.4381 H   0  0  0  0  0  0  0  0  0  0  0  0
   47.9424   35.0174   42.2248 H   0  0  0  0  0  0  0  0  0  0  0  0
   43.2511   34.6518   43.0754 H   0  0  0  0  0  0  0  0  0  0  0  0
   46.0338   32.4309   37.4543 H   0  0  0  0  0  0  0  0  0  0  0  0
   45.5086   35.5074   37.3826 H   0  0  0  0  0  0  0  0  0  0  0  0
   48.6538   33.9306   40.3965 H   0  0  0  0  0  0  0  0  0  0  0  0
  1 12  1  0
  1  2  1  0
  2  3  2  0
  3  4  1  0
  4  5  2  0
  5  6  1  0
  6  7  2  0
  8  7  1  0
  9  8  2  0
 10  9  1  0
 10  5  1  0
 11  2  1  0
 11 10  2  0
 13 18  2  0
 14 13  1  0
 15 14  2  0
 15 16  1  0
 16 17  2  0
 17 18  1  0
 17 12  1  0
  3 19  1  0
  4 20  1  0
  7 21  1  0
  8 22  1  0
  9 23  1  0
 11 24  1  0
 12 25  1  0
 12 26  1  0
 13 27  1  0
 14 28  1  0
 29 30  1  0
 30 31  2  0
 31 32  1  0
 32 33  2  0
 32 34  1  0
 31 35  1  0
 35 36  1  0
 36 37  2  0
 36 38  1  0
 38 39  1  6
 38 40  1  0
 40 41  1  0
 41 42  1  0
 42 43  1  6
 42 30  1  0
 40 35  1  0
 29 44  1  0
 29 45  1  0
 34 46  1  0
 38 47  1  0
 40 48  1  6
 42 49  1  0
 15 29  1  0
M  ISO  8  19  14  20  14  21  14  22  14  23  14  24  14  25   8  26   8
M  ISO  4  27  14  28  14  39  15  43  15
M  END
>  <DihAtoms>  (1) 
13,14,28,29

>  <DihDeg>  (1) 
-85.83873973359265

$$$$
