
 OpenBabel03242518313D

 35 38  0  0  1  0  0  0  0  0999 V2000
   47.3520   33.6390   39.5230 C   0  0  0  0  0  0  0  0  0  0  0  0
   48.2550   34.2760   38.6910 C   0  0  0  0  0  0  0  0  0  0  0  0
   47.8480   34.0600   37.3820 C   0  0  0  0  0  0  0  0  0  0  0  0
   46.6970   33.2890   37.4910 C   0  0  0  0  0  0  0  0  0  0  0  0
   46.4430   33.0660   38.7560 O   0  0  0  0  0  0  0  0  0  0  0  0
   49.1040   34.8270   39.0620 H   0  0  0  0  0  0  0  0  0  0  0  0
   48.3620   34.4400   36.4900 H   0  0  0  0  0  0  0  0  0  0  0  0
   47.3020   33.5480   40.9200 O   0  0  0  0  0  0  0  0  0  0  0  0
   47.4130   34.6810   41.7270 C   0  0  0  0  0  0  0  0  0  0  0  0
   48.2440   35.5380   41.3490 O   0  0  0  0  0  0  0  0  0  0  0  0
   46.5680   34.7120   42.8720 C   0  0  0  0  0  0  0  0  0  0  0  0
   45.6520   35.7450   42.8410 C   0  0  0  0  0  0  0  0  0  0  0  0
   44.7700   35.8600   43.9310 C   0  0  0  0  0  0  0  0  0  0  0  0
   44.8640   34.9670   44.9390 N   0  0  0  0  0  0  0  0  0  0  0  0
   45.7880   33.9720   44.9130 C   0  0  0  0  0  0  0  0  0  0  0  0
   46.6430   33.8440   43.8750 N   0  0  0  0  0  0  0  0  0  0  0  0
   45.5360   36.4890   42.0540 H   0  0  0  0  0  0  0  0  0  0  0  0
   44.0250   36.6460   43.9750 H   0  0  0  0  0  0  0  0  0  0  0  0
   45.8150   33.2830   45.7550 H   0  0  0  0  0  0  0  0  0  0  0  0
   45.9010   32.8080   36.3070 C   0  0  0  0  0  2  0  0  0  0  0  0
   46.3750   31.4500   36.0400 C   0  0  0  0  0  0  0  0  0  0  0  0
   47.0630   31.1970   34.9510 C   0  0  0  0  0  0  0  0  0  0  0  0
   47.5380   29.9140   34.6460 N   0  0  0  0  0  0  0  0  0  0  0  0
   48.5610   29.0830   34.1140 C   0  0  0  0  0  0  0  0  0  0  0  0
   49.4420   29.1950   33.2470 O   0  0  0  0  0  0  0  0  0  0  0  0
   48.1240   28.0190   35.0440 C   0  0  0  0  0  3  0  0  0  0  0  0
   48.1730   26.9970   34.6680 H   0  0  0  0  0  0  0  0  0  0  0  0
   46.7680   28.7130   34.9280 C   0  0  1  0  0  3  0  0  0  0  0  0
   45.8480   28.7850   36.4600 S   0  0  0  0  0  0  0  0  0  0  0  0
   46.0080   30.4840   37.0720 C   0  0  0  0  0  3  0  0  0  0  0  0
   46.7600   30.4400   37.9110 H   0  0  0  0  0  0  0  0  0  0  0  0
   47.3590   32.2670   34.0040 C   0  0  0  0  0  0  0  0  0  0  0  0
   48.4790   32.8250   33.8670 O   0  0  0  0  0  0  0  0  0  0  0  0
   47.3020   33.2380   33.0240 O   0  0  0  0  0  0  0  0  0  0  0  0
   46.7240   33.2210   32.1960 H   0  0  0  0  0  0  0  0  0  0  0  0
  1  8  1  0  0  0  0
  2  6  1  0  0  0  0
  2  1  2  0  0  0  0
  3  4  2  0  0  0  0
  3  2  1  0  0  0  0
  4  5  1  0  0  0  0
  5  1  1  0  0  0  0
  7  3  1  0  0  0  0
  8  9  1  0  0  0  0
  9 11  1  0  0  0  0
 10  9  2  0  0  0  0
 11 16  1  0  0  0  0
 12 11  2  0  0  0  0
 12 13  1  0  0  0  0
 13 18  1  0  0  0  0
 13 14  2  0  0  0  0
 15 14  1  0  0  0  0
 15 19  1  0  0  0  0
 16 15  2  0  0  0  0
 17 12  1  0  0  0  0
 20  4  1  0  0  0  0
 21 20  1  0  0  0  0
 21 30  1  0  0  0  0
 22 21  2  0  0  0  0
 23 28  1  0  0  0  0
 23 22  1  0  0  0  0
 24 23  1  0  0  0  0
 24 26  1  0  0  0  0
 25 24  2  0  0  0  0
 27 26  1  0  0  0  0
 28 26  1  1  0  0  0
 28 29  1  0  0  0  0
 29 30  1  0  0  0  0
 30 31  1  0  0  0  0
 32 22  1  0  0  0  0
 33 32  2  0  0  0  0
 34 32  1  0  0  0  0
 35 34  1  0  0  0  0
M  END
>  <minimizedAffinity>
-5.4122901

>  <minimizedRMSD>
0.568177283

$$$$
