
 OpenBabel03242523333D

 44 48  0  0  1  0  0  0  0  0999 V2000
   44.6170   36.4580   44.2750 C   0  0  0  0  0  0  0  0  0  0  0  0
   45.0770   36.1030   43.0030 C   0  0  0  0  0  0  0  0  0  0  0  0
   45.6650   34.8550   42.7790 C   0  0  0  0  0  0  0  0  0  0  0  0
   45.7720   33.9950   43.8490 N   0  0  0  0  0  0  0  0  0  0  0  0
   45.3200   34.3560   45.0770 C   0  0  0  0  0  0  0  0  0  0  0  0
   44.7590   35.5670   45.2630 N   0  0  0  0  0  0  0  0  0  0  0  0
   44.1660   37.4290   44.4250 H   0  0  0  0  0  0  0  0  0  0  0  0
   44.9960   36.7660   42.1730 H   0  0  0  0  0  0  0  0  0  0  0  0
   45.4920   33.3530   46.1540 C   0  0  0  0  0  0  0  0  0  0  0  0
   45.8100   33.9140   47.0300 H   0  0  0  0  0  0  0  0  0  0  0  0
   44.5150   32.8620   46.4140 H   0  0  0  0  0  0  0  0  0  0  0  0
   46.6220   32.0940   45.5600 S   0  0  0  0  0  0  0  0  0  0  0  0
   47.5430   31.3850   46.9060 C   0  0  0  0  0  0  0  0  0  0  0  0
   47.7070   32.1420   48.0460 C   0  0  0  0  0  0  0  0  0  0  0  0
   48.4160   31.6020   49.0770 C   0  0  0  0  0  0  0  0  0  0  0  0
   48.9740   30.3140   49.0080 C   0  0  0  0  0  0  0  0  0  0  0  0
   49.6620   29.8320   50.0580 N   0  0  0  0  0  0  0  0  0  0  0  0
   50.2100   28.5980   50.0230 C   0  0  0  0  0  0  0  0  0  0  0  0
   50.0550   27.8420   48.9030 C   0  0  0  0  0  0  0  0  0  0  0  0
   49.3480   28.3480   47.8370 C   0  0  0  0  0  0  0  0  0  0  0  0
   48.7670   29.6090   47.8260 C   0  0  0  0  0  0  0  0  0  0  0  0
   48.0620   30.1190   46.7690 C   0  0  0  0  0  0  0  0  0  0  0  0
   47.3280   33.1400   48.2190 H   0  0  0  0  0  0  0  0  0  0  0  0
   48.5830   32.1500   50.0130 H   0  0  0  0  0  0  0  0  0  0  0  0
   50.7460   28.2880   50.9080 H   0  0  0  0  0  0  0  0  0  0  0  0
   50.4870   26.8490   48.8540 H   0  0  0  0  0  0  0  0  0  0  0  0
   49.2390   27.7240   46.9550 H   0  0  0  0  0  0  0  0  0  0  0  0
   47.9420   29.5270   45.8960 H   0  0  0  0  0  0  0  0  0  0  0  0
   46.2220   34.4090   41.5180 C   0  0  0  0  0  2  0  0  0  0  0  0
   47.2380   33.3890   41.4590 C   0  0  0  0  0  0  0  0  0  0  0  0
   48.5520   33.3970   41.6460 C   0  0  0  0  0  0  0  0  0  0  0  0
   49.4020   32.2330   41.5500 N   0  0  0  0  0  0  0  0  0  0  0  0
   50.5990   31.6040   41.1090 C   0  0  0  0  0  0  0  0  0  0  0  0
   51.7550   32.1120   41.0010 O   0  0  0  0  0  0  0  0  0  0  0  0
   49.7510   30.3660   40.9440 C   0  0  0  0  0  3  0  0  0  0  0  0
   50.2930   29.4330   41.1270 H   0  0  0  0  0  0  0  0  0  0  0  0
   49.0280   30.9530   42.1330 C   0  0  2  0  0  3  0  0  0  0  0  0
   47.2370   30.7430   42.1570 S   0  0  0  0  0  0  0  0  0  0  0  0
   46.6350   32.0820   41.0920 C   0  0  0  0  0  3  0  0  0  0  0  0
   46.8460   31.8350   40.0270 H   0  0  0  0  0  0  0  0  0  0  0  0
   49.1430   34.6870   41.9820 C   0  0  0  0  0  2  0  0  0  0  0  0
   50.2380   34.7010   42.6430 O   0  0  0  0  0  0  0  0  0  0  0  0
   49.7310   35.8910   42.3180 O   0  0  0  0  0  0  0  0  0  0  0  0
   49.5650   36.7400   41.7740 H   0  0  0  0  0  0  0  0  0  0  0  0
  1  7  1  0  0  0  0
  1  6  1  0  0  0  0
  2  1  2  0  0  0  0
  3  2  1  0  0  0  0
  3  4  2  0  0  0  0
  4  5  1  0  0  0  0
  5  6  2  0  0  0  0
  5  9  1  0  0  0  0
  8  2  1  0  0  0  0
  9 11  1  0  0  0  0
  9 10  1  0  0  0  0
 12  9  1  0  0  0  0
 12 13  1  0  0  0  0
 13 14  1  0  0  0  0
 14 23  1  0  0  0  0
 14 15  2  0  0  0  0
 15 24  1  0  0  0  0
 16 15  1  0  0  0  0
 16 17  1  0  0  0  0
 18 17  2  0  0  0  0
 18 25  1  0  0  0  0
 19 18  1  0  0  0  0
 20 19  2  0  0  0  0
 21 20  1  0  0  0  0
 21 16  2  0  0  0  0
 22 13  2  0  0  0  0
 22 21  1  0  0  0  0
 26 19  1  0  0  0  0
 27 20  1  0  0  0  0
 28 22  1  0  0  0  0
 29  3  1  0  0  0  0
 30 29  1  0  0  0  0
 30 31  2  0  0  0  0
 31 41  1  0  0  0  0
 32 31  1  0  0  0  0
 32 37  1  0  0  0  0
 33 32  1  0  0  0  0
 34 33  2  0  0  0  0
 35 33  1  0  0  0  0
 35 36  1  0  0  0  0
 37 35  1  6  0  0  0
 37 38  1  0  0  0  0
 39 30  1  0  0  0  0
 39 38  1  0  0  0  0
 40 39  1  0  0  0  0
 41 42  1  0  0  0  0
 43 42  1  0  0  0  0
 44 43  1  0  0  0  0
M  END
>  <minimizedAffinity>
-6.24102736

>  <minimizedRMSD>
2.03128552

$$$$
