
 OpenBabel03242519203D

 41 44  0  0  1  0  0  0  0  0999 V2000
   48.1540   32.0550   42.6150 C   0  0  0  0  0  0  0  0  0  0  0  0
   49.2300   32.4350   41.7640 C   0  0  0  0  0  0  0  0  0  0  0  0
   50.4410   31.7490   41.8490 C   0  0  0  0  0  0  0  0  0  0  0  0
   50.4990   30.7330   42.7780 N   0  0  0  0  0  0  0  0  0  0  0  0
   49.4770   30.3910   43.5700 C   0  0  0  0  0  0  0  0  0  0  0  0
   48.3070   31.0530   43.4860 N   0  0  0  0  0  0  0  0  0  0  0  0
   49.2600   33.1980   41.0290 H   0  0  0  0  0  0  0  0  0  0  0  0
   51.3030   31.9570   41.2580 H   0  0  0  0  0  0  0  0  0  0  0  0
   46.9120   32.8390   42.4690 C   0  0  0  0  0  0  0  0  0  0  0  0
   47.0500   33.9700   41.5290 C   0  0  0  0  0  0  0  0  0  0  0  0
   47.0180   35.3140   42.1990 C   0  0  0  0  0  0  0  0  0  0  0  0
   45.7540   35.5030   43.0190 C   0  0  0  0  0  0  0  0  0  0  0  0
   45.3790   34.2920   43.8200 C   0  0  0  0  0  0  0  0  0  0  0  0
   46.4850   33.2730   43.8650 C   0  0  0  0  0  0  0  0  0  0  0  0
   46.1180   32.0870   42.1790 H   0  0  0  0  0  0  0  0  0  0  0  0
   46.1330   33.9500   40.8690 H   0  0  0  0  0  0  0  0  0  0  0  0
   47.8920   33.9180   40.8380 H   0  0  0  0  0  0  0  0  0  0  0  0
   47.0300   36.0900   41.4080 H   0  0  0  0  0  0  0  0  0  0  0  0
   47.8520   35.5400   42.8640 H   0  0  0  0  0  0  0  0  0  0  0  0
   44.9010   35.8470   42.3850 H   0  0  0  0  0  0  0  0  0  0  0  0
   45.9290   36.3420   43.7230 H   0  0  0  0  0  0  0  0  0  0  0  0
   44.4880   33.8300   43.3020 H   0  0  0  0  0  0  0  0  0  0  0  0
   45.0770   34.5270   44.8400 H   0  0  0  0  0  0  0  0  0  0  0  0
   47.3380   33.7200   44.3850 H   0  0  0  0  0  0  0  0  0  0  0  0
   46.1100   32.3850   44.4180 H   0  0  0  0  0  0  0  0  0  0  0  0
   49.6130   29.2740   44.5570 C   0  0  0  0  0  2  0  0  0  0  0  0
   48.3290   28.7440   45.0060 C   0  0  0  0  0  0  0  0  0  0  0  0
   47.6670   29.1210   46.0870 C   0  0  0  0  0  0  0  0  0  0  0  0
   46.4340   28.4740   46.3580 N   0  0  0  0  0  0  0  0  0  0  0  0
   45.0690   28.5710   46.8230 C   0  0  0  0  0  0  0  0  0  0  0  0
   44.3700   29.4820   47.3880 O   0  0  0  0  0  0  0  0  0  0  0  0
   44.7330   27.1960   46.4070 C   0  0  0  0  0  3  0  0  0  0  0  0
   44.3150   26.5400   47.1990 H   0  0  0  0  0  0  0  0  0  0  0  0
   46.1900   27.0390   46.1460 C   0  0  1  0  0  3  0  0  0  0  0  0
   46.4870   26.8040   44.3730 S   0  0  0  0  0  0  0  0  0  0  0  0
   47.9690   27.7330   43.9840 C   0  0  0  0  0  3  0  0  0  0  0  0
   47.7980   28.2640   43.0210 H   0  0  0  0  0  0  0  0  0  0  0  0
   48.1430   30.1530   47.0130 C   0  0  0  0  0  0  0  0  0  0  0  0
   49.0100   30.2090   47.8940 O   0  0  0  0  0  0  0  0  0  0  0  0
   47.6020   31.4100   47.0360 O   0  0  0  0  0  0  0  0  0  0  0  0
   48.1690   32.2380   47.0620 H   0  0  0  0  0  0  0  0  0  0  0  0
  1  6  1  0  0  0  0
  2  3  1  0  0  0  0
  2  1  2  0  0  0  0
  3  4  2  0  0  0  0
  4  5  1  0  0  0  0
  5 26  1  0  0  0  0
  6  5  2  0  0  0  0
  7  2  1  0  0  0  0
  8  3  1  0  0  0  0
  9  1  1  0  0  0  0
  9 14  1  0  0  0  0
 10 11  1  0  0  0  0
 10  9  1  0  0  0  0
 11 19  1  0  0  0  0
 11 12  1  0  0  0  0
 12 21  1  0  0  0  0
 12 13  1  0  0  0  0
 13 14  1  0  0  0  0
 13 23  1  0  0  0  0
 14 24  1  0  0  0  0
 14 25  1  0  0  0  0
 15  9  1  0  0  0  0
 16 10  1  0  0  0  0
 17 10  1  0  0  0  0
 18 11  1  0  0  0  0
 20 12  1  0  0  0  0
 22 13  1  0  0  0  0
 26 27  1  0  0  0  0
 27 28  2  0  0  0  0
 28 29  1  0  0  0  0
 28 38  1  0  0  0  0
 29 30  1  0  0  0  0
 30 31  2  0  0  0  0
 32 30  1  0  0  0  0
 32 33  1  0  0  0  0
 34 35  1  6  0  0  0
 34 29  1  0  0  0  0
 34 32  1  0  0  0  0
 36 35  1  0  0  0  0
 36 27  1  0  0  0  0
 37 36  1  0  0  0  0
 38 40  1  0  0  0  0
 38 39  2  0  0  0  0
 40 41  1  0  0  0  0
M  END
>  <minimizedAffinity>
-3.77781677

>  <minimizedRMSD>
4.52930307

$$$$
