
     RDKit          3D

 32 34  0  0  0  0  0  0  0  0999 V2000
   44.5147   35.9112   44.6779 C   0  0  0  0  0  0  0  0  0  0  0  0
   45.1525   35.8922   43.4340 C   0  0  0  0  0  0  0  0  0  0  0  0
   46.0719   34.8652   43.2053 C   0  0  0  0  0  0  0  0  0  0  0  0
   46.3018   33.9510   44.1773 N   0  0  0  0  0  0  0  0  0  0  0  0
   45.6656   34.0044   45.3642 C   0  0  0  0  0  0  0  0  0  0  0  0
   44.7689   34.9950   45.6044 N   0  0  0  0  0  0  0  0  0  0  0  0
   45.8718   33.0477   46.4498 C   0  0  0  0  0  0  0  0  0  0  0  0
   45.1606   33.0234   47.4862 O   0  0  0  0  0  0  0  0  0  0  0  0
   43.8172   36.7341   44.7828 H   0  0  0  0  0  0  0  0  0  0  0  0
   45.0224   36.5833   42.6120 H   0  0  0  0  0  0  0  0  0  0  0  0
   46.6547   34.7043   42.2934 H   0  0  0  0  0  0  0  0  0  0  0  0
   50.1330   33.0737   41.6758 C   0  0  0  0  0  0  0  0  0  0  0  0
   51.0011   32.4050   41.8104 H   0  0  0  0  0  0  0  0  0  0  0  0
   49.2743   33.0689   42.9054 C   0  0  0  0  0  0  0  0  0  0  0  0
   48.7818   31.8886   43.2260 C   0  0  0  0  0  0  0  0  0  0  0  0
   49.0431   30.6825   42.4570 C   0  0  0  0  0  0  0  0  0  0  0  0
   49.7177   30.5112   41.4366 O   0  0  0  0  0  0  0  0  0  0  0  0
   48.5094   29.4642   42.8199 O   0  0  0  0  0  0  0  0  0  0  0  0
   47.9582   31.7959   44.3789 N   0  0  0  0  0  0  0  0  0  0  0  0
   46.8523   31.2245   45.0605 C   0  0  0  0  0  0  0  0  0  0  0  0
   46.0083   30.3011   44.7955 O   0  0  0  0  0  0  0  0  0  0  0  0
   46.9865   32.0889   46.2593 C   0  0  1  0  0  0  0  0  0  0  0  0
   48.1961   32.6197   45.5779 C   0  0  2  0  0  0  0  0  0  0  0  0
   48.0035   34.3323   44.9409 S   0  0  0  0  0  0  0  0  0  0  0  0
   49.1359   34.3950   43.5358 C   0  0  1  0  0  0  0  0  0  0  0  0
   50.1519   34.6195   43.9773 H   0  0  0  0  0  0  0  0  0  0  0  0
   50.4672   34.0895   41.3823 H   0  0  0  0  0  0  0  0  0  0  0  0
   49.5330   32.7259   40.7849 H   0  0  0  0  0  0  0  0  0  0  0  0
   48.2137   28.7472   42.1802 H   0  0  0  0  0  0  0  0  0  0  0  0
   47.2801   31.5601   47.1865 H   0  0  0  0  0  0  0  0  0  0  0  0
   49.1612   32.4721   46.0649 H   0  0  0  0  0  0  0  0  0  0  0  0
   48.8469   35.1837   42.8099 H   0  0  0  0  0  0  0  0  0  0  0  0
  1  6  2  0
  2  1  1  0
  3  2  2  0
  3  4  1  0
  4  5  2  0
  5  6  1  0
  5  7  1  0
  7  8  2  0
  1  9  1  0
  2 10  1  0
  3 11  1  0
 12 13  1  0
 12 14  1  0
 14 15  2  0
 15 16  1  0
 16 17  2  0
 16 18  1  0
 15 19  1  0
 19 20  1  0
 20 21  2  0
 20 22  1  0
 22 23  1  0
 23 24  1  0
 24 25  1  0
 25 26  1  1
 25 14  1  0
 23 19  1  0
 12 27  1  0
 12 28  1  0
 18 29  1  0
 22 30  1  1
 23 31  1  1
 25 32  1  0
  7 22  1  0
M  ISO  5   9  14  10  14  11  14  13   8  26  15
M  END
>  <DihAtoms>  (1) 
4,6,21,19

>  <DihDeg>  (1) 
-179.99238497532957

$$$$
