
     RDKit          3D

 52 55  0  0  0  0  0  0  0  0999 V2000
   47.3240   34.0679   42.5135 C   0  0  2  0  0  0  0  0  0  0  0  0
   48.6693   34.6688   42.6569 C   0  0  0  0  0  0  0  0  0  0  0  0
   48.9393   35.7248   41.6392 C   0  0  0  0  0  0  0  0  0  0  0  0
   48.7343   35.2641   40.2206 C   0  0  0  0  0  0  0  0  0  0  0  0
   47.5971   34.3084   40.0428 C   0  0  2  0  0  0  0  0  0  0  0  0
   46.6441   34.3543   41.2204 C   0  0  0  0  0  0  0  0  0  0  0  0
   46.4138   34.3801   43.6258 C   0  0  0  0  0  0  0  0  0  0  0  0
   45.6048   35.4900   43.3964 C   0  0  0  0  0  0  0  0  0  0  0  0
   44.6779   35.8893   44.3626 C   0  0  0  0  0  0  0  0  0  0  0  0
   44.6343   35.1252   45.5163 N   0  0  0  0  0  0  0  0  0  0  0  0
   45.4366   34.0592   45.6992 C   0  0  0  0  0  0  0  0  0  0  0  0
   46.3124   33.7005   44.7572 N   0  0  0  0  0  0  0  0  0  0  0  0
   48.1163   32.9565   39.7607 C   0  0  0  0  0  0  0  0  0  0  0  0
   47.1497   31.9308   39.3395 C   0  0  0  0  0  0  0  0  0  0  0  0
   47.4900   32.9451   42.5800 H   0  0  0  0  0  0  0  0  0  0  0  0
   49.5060   33.9431   42.6483 H   0  0  0  0  0  0  0  0  0  0  0  0
   48.7134   35.1643   43.6551 H   0  0  0  0  0  0  0  0  0  0  0  0
   50.0296   35.9891   41.7379 H   0  0  0  0  0  0  0  0  0  0  0  0
   48.3963   36.6517   41.8866 H   0  0  0  0  0  0  0  0  0  0  0  0
   48.6041   36.1981   39.6013 H   0  0  0  0  0  0  0  0  0  0  0  0
   49.6899   34.8230   39.8376 H   0  0  0  0  0  0  0  0  0  0  0  0
   47.0199   34.6588   39.1558 H   0  0  0  0  0  0  0  0  0  0  0  0
   46.0674   35.2507   41.1073 H   0  0  0  0  0  0  0  0  0  0  0  0
   45.9097   33.5017   41.0742 H   0  0  0  0  0  0  0  0  0  0  0  0
   45.4744   36.2192   42.6104 H   0  0  0  0  0  0  0  0  0  0  0  0
   43.9741   36.6890   44.3937 H   0  0  0  0  0  0  0  0  0  0  0  0
   45.3645   33.4933   46.6214 H   0  0  0  0  0  0  0  0  0  0  0  0
   48.6660   32.5734   40.6446 H   0  0  0  0  0  0  0  0  0  0  0  0
   48.9051   33.0568   38.9685 H   0  0  0  0  0  0  0  0  0  0  0  0
   47.6860   30.9719   39.1921 H   0  0  0  0  0  0  0  0  0  0  0  0
   46.4098   31.7549   40.1457 H   0  0  0  0  0  0  0  0  0  0  0  0
   49.0396   28.8612   34.3797 C   0  0  0  0  0  0  0  0  0  0  0  0
   48.2713   28.4673   33.6793 H   0  0  0  0  0  0  0  0  0  0  0  0
   48.4965   29.8020   35.3833 C   0  0  0  0  0  0  0  0  0  0  0  0
   47.2166   29.7910   35.6864 C   0  0  0  0  0  0  0  0  0  0  0  0
   46.3423   28.8375   35.0187 C   0  0  0  0  0  0  0  0  0  0  0  0
   45.1081   28.7515   35.2416 O   0  0  0  0  0  0  0  0  0  0  0  0
   45.8059   27.8537   34.2402 O   0  0  0  0  0  0  0  0  0  0  0  0
   46.6745   30.6678   36.6284 N   0  0  0  0  0  0  0  0  0  0  0  0
   45.7529   30.9072   37.6556 C   0  0  0  0  0  0  0  0  0  0  0  0
   44.7270   30.3191   38.1325 O   0  0  0  0  0  0  0  0  0  0  0  0
   46.3792   32.1920   38.0870 C   0  0  2  0  0  0  0  0  0  0  0  0
   47.1340   32.0216   36.7928 C   0  0  1  0  0  0  0  0  0  0  0  0
   48.9215   32.0231   36.9550 S   0  0  0  0  0  0  0  0  0  0  0  0
   49.5458   30.6833   35.9451 C   0  0  2  0  0  0  0  0  0  0  0  0
   50.0487   31.1680   35.0570 H   0  0  0  0  0  0  0  0  0  0  0  0
   49.4652   27.9819   34.9370 H   0  0  0  0  0  0  0  0  0  0  0  0
   49.8098   29.3282   33.7333 H   0  0  0  0  0  0  0  0  0  0  0  0
   46.3642   27.0479   33.9879 H   0  0  0  0  0  0  0  0  0  0  0  0
   45.6784   33.0202   38.0495 H   0  0  0  0  0  0  0  0  0  0  0  0
   46.7391   32.6611   35.9688 H   0  0  0  0  0  0  0  0  0  0  0  0
   50.3544   30.1036   36.4350 H   0  0  0  0  0  0  0  0  0  0  0  0
  1  2  1  0
  1  7  1  0
  3  2  1  0
  4  3  1  0
  5  4  1  0
  5  6  1  0
  6  1  1  0
  7 12  1  0
  8  7  2  0
  8  9  1  0
  9 10  2  0
 10 11  1  0
 12 11  2  0
 13  5  1  0
 14 13  1  0
  1 15  1  6
  2 16  1  0
  2 17  1  0
  3 18  1  0
  3 19  1  0
  4 20  1  0
  4 21  1  0
  5 22  1  6
  6 23  1  0
  6 24  1  0
  8 25  1  0
  9 26  1  0
 11 27  1  0
 13 28  1  0
 13 29  1  0
 14 30  1  0
 14 31  1  0
 32 33  1  0
 32 34  1  0
 34 35  2  0
 35 36  1  0
 36 37  2  0
 36 38  1  0
 35 39  1  0
 39 40  1  0
 40 41  2  0
 40 42  1  0
 42 43  1  0
 43 44  1  0
 44 45  1  0
 45 46  1  6
 45 34  1  0
 43 39  1  0
 32 47  1  0
 32 48  1  0
 38 49  1  0
 42 50  1  1
 43 51  1  6
 45 52  1  0
 14 42  1  0
M  ISO  8  15  13  16  13  17  13  18  13  19  13  20  13  21  13  22  13
M  ISO  8  23  13  24  13  25  14  26  14  27  14  28   8  29   8  30   8
M  ISO  3  31   8  33   8  46  15
M  END
>  <DihAtoms>  (1) 
12,13,41,39

>  <DihDeg>  (1) 
-179.9288537722503

$$$$
