
 OpenBabel03252507163D

 36 39  0  0  1  0  0  0  0  0999 V2000
   44.1670   35.3750   43.0820 C   0  0  0  0  0  0  0  0  0  0  0  0
   45.0220   34.2880   42.7850 C   0  0  0  0  0  0  0  0  0  0  0  0
   45.7160   33.7000   43.8190 C   0  0  0  0  0  0  0  0  0  0  0  0
   45.5650   34.1720   45.0800 N   0  0  0  0  0  0  0  0  0  0  0  0
   44.7340   35.2240   45.3520 C   0  0  0  0  0  0  0  0  0  0  0  0
   44.0660   35.7920   44.3620 N   0  0  0  0  0  0  0  0  0  0  0  0
   43.6040   35.8630   42.2960 H   0  0  0  0  0  0  0  0  0  0  0  0
   44.6480   35.5630   46.3750 H   0  0  0  0  0  0  0  0  0  0  0  0
   46.5980   32.5810   43.5190 C   0  0  0  0  0  0  0  0  0  0  0  0
   46.1610   31.2900   43.6950 C   0  0  0  0  0  0  0  0  0  0  0  0
   47.0210   30.2560   43.4020 C   0  0  0  0  0  0  0  0  0  0  0  0
   48.3130   30.4460   42.9370 C   0  0  0  0  0  0  0  0  0  0  0  0
   48.6860   31.7610   42.7830 C   0  0  0  0  0  0  0  0  0  0  0  0
   47.8370   32.7700   43.0720 N   0  0  0  0  0  0  0  0  0  0  0  0
   45.1820   31.0850   44.0500 H   0  0  0  0  0  0  0  0  0  0  0  0
   46.6820   29.2170   43.5400 H   0  0  0  0  0  0  0  0  0  0  0  0
   48.9990   29.6630   42.7020 H   0  0  0  0  0  0  0  0  0  0  0  0
   49.6750   31.9970   42.4250 H   0  0  0  0  0  0  0  0  0  0  0  0
   45.1380   33.8360   41.4310 C   0  0  0  0  0  0  0  0  0  0  0  0
   46.0450   34.3600   40.7220 O   0  0  0  0  0  0  0  0  0  0  0  0
   40.5100   34.3850   39.8570 C   0  0  0  0  0  0  0  0  0  0  0  0
   40.8220   33.2500   40.4340 C   0  0  0  0  0  0  0  0  0  0  0  0
   42.1740   32.9250   40.7310 N   0  0  0  0  0  0  0  0  0  0  0  0
   43.1460   32.3130   41.5700 C   0  0  0  0  0  0  0  0  0  0  0  0
   43.1140   31.5950   42.6170 O   0  0  0  0  0  0  0  0  0  0  0  0
   44.2850   32.8070   40.7980 C   0  0  1  0  0  3  0  0  0  0  0  0
   43.2750   33.3390   39.8460 C   0  0  2  0  0  3  0  0  0  0  0  0
   43.1660   35.1120   39.6800 S   0  0  0  0  0  0  0  0  0  0  0  0
   41.4270   35.4430   39.4460 C   0  0  0  0  0  3  0  0  0  0  0  0
   41.1900   36.3430   40.0880 H   0  0  0  0  0  0  0  0  0  0  0  0
   39.0860   34.6120   39.5980 C   0  0  0  0  0  2  0  0  0  0  0  0
   38.6420   33.8720   38.8690 H   0  0  0  0  0  0  0  0  0  0  0  0
   39.8010   32.2730   40.7950 C   0  0  0  0  0  0  0  0  0  0  0  0
   39.4230   31.2650   40.1500 O   0  0  0  0  0  0  0  0  0  0  0  0
   39.0670   32.3310   41.9690 O   0  0  0  0  0  0  0  0  0  0  0  0
   38.1040   32.0570   42.0810 H   0  0  0  0  0  0  0  0  0  0  0  0
  1  6  1  0  0  0  0
  2  1  2  0  0  0  0
  2  3  1  0  0  0  0
  3  4  2  0  0  0  0
  4  5  1  0  0  0  0
  5  8  1  0  0  0  0
  6  5  2  0  0  0  0
  7  1  1  0  0  0  0
  9 10  1  0  0  0  0
  9  3  1  0  0  0  0
 10 15  1  0  0  0  0
 11 16  1  0  0  0  0
 11 10  2  0  0  0  0
 12 11  1  0  0  0  0
 13 12  2  0  0  0  0
 13 14  1  0  0  0  0
 14  9  2  0  0  0  0
 17 12  1  0  0  0  0
 18 13  1  0  0  0  0
 19  2  1  0  0  0  0
 20 19  2  0  0  0  0
 21 22  2  0  0  0  0
 22 23  1  0  0  0  0
 22 33  1  0  0  0  0
 23 24  1  0  0  0  0
 24 25  2  0  0  0  0
 26 19  1  1  0  0  0
 26 24  1  0  0  0  0
 27 28  1  1  0  0  0
 27 23  1  0  0  0  0
 27 26  1  0  0  0  0
 29 28  1  0  0  0  0
 29 21  1  0  0  0  0
 29 30  1  0  0  0  0
 31 21  1  0  0  0  0
 32 31  1  0  0  0  0
 33 35  1  0  0  0  0
 34 33  2  0  0  0  0
 35 36  1  0  0  0  0
M  END
>  <minimizedAffinity>
-5.27852583

>  <minimizedRMSD>
1.70750713

$$$$
