REMARK  Name = 
REMARK  5 active torsions:
REMARK  status: ('A' for Active; 'I' for Inactive)
REMARK    1  A    between atoms: C_5  and  C_9
REMARK    2  A    between atoms: C_13  and  C_20
REMARK    3  A    between atoms: C_20  and  C_21
REMARK    4  A    between atoms: C_22  and  C_23
REMARK    5  A    between atoms: C_23  and  O_25
REMARK                            x       y       z     vdW  Elec       q    Type
REMARK                         _______ _______ _______ _____ _____    ______ ____
ROOT
ATOM      1 BR   UNL     1      44.587  33.140  41.187  0.00  0.00    +0.000 Br
ATOM      2  C   UNL     1      46.281  33.985  40.944  0.00  0.00    +0.000 A 
ATOM      3  C   UNL     1      46.836  34.745  41.959  0.00  0.00    +0.000 A 
ATOM      4  C   UNL     1      48.064  35.380  41.803  0.00  0.00    +0.000 A 
ATOM      5  C   UNL     1      48.705  35.225  40.604  0.00  0.00    +0.000 A 
ATOM      6  C   UNL     1      48.123  34.463  39.617  0.00  0.00    +0.000 A 
ATOM      7  C   UNL     1      46.931  33.837  39.749  0.00  0.00    +0.000 A 
ATOM      8  H   UNL     1      48.482  35.973  42.616  0.00  0.00    +0.000 HD
ATOM      9  H   UNL     1      49.674  35.721  40.466  0.00  0.00    +0.000 HD
ATOM     10  H   UNL     1      48.703  34.410  38.712  0.00  0.00    +0.000 HD
ENDROOT
BRANCH   3  15
ATOM     11  C   UNL     1      45.591  34.045  45.323  0.00  0.00    +0.000 A 
ATOM     12  C   UNL     1      44.695  35.095  45.587  0.00  0.00    +0.000 A 
ATOM     13  C   UNL     1      44.534  36.043  44.580  0.00  0.00    +0.000 A 
ATOM     14  N   UNL     1      45.237  35.896  43.431  0.00  0.00    +0.000 NA
ATOM     15  C   UNL     1      46.094  34.865  43.217  0.00  0.00    +0.000 A 
ATOM     16  N   UNL     1      46.265  33.937  44.177  0.00  0.00    +0.000 NA
ATOM     17  H   UNL     1      45.658  33.352  46.156  0.00  0.00    +0.000 HD
ATOM     18  H   UNL     1      44.123  35.253  46.468  0.00  0.00    +0.000 HD
ATOM     19  H   UNL     1      43.889  36.925  44.595  0.00  0.00    +0.000 HD
ENDBRANCH   3  15
BRANCH   7  20
ATOM     20  C   UNL     1      46.315  33.025  38.664  0.00  0.00    +0.000 C 
BRANCH  20  21
ATOM     21  C   UNL     1      46.822  33.304  37.322  0.00  0.00    +0.000 C 
ATOM     22  C   UNL     1      45.996  33.788  36.430  0.00  0.00    +0.000 C 
ATOM     23  N   UNL     1      46.481  34.072  35.125  0.00  0.00    +0.000 N 
ATOM     24  C   UNL     1      46.252  33.976  33.701  0.00  0.00    +0.000 C 
ATOM     25  O   UNL     1      45.249  33.768  32.937  0.00  0.00    +0.000 OA
ATOM     26  C   UNL     1      47.703  34.223  33.440  0.00  0.00    +0.000 C 
ATOM     27  H   UNL     1      47.790  35.033  32.671  0.00  0.00    +0.000 HD
ATOM     28  C   UNL     1      47.748  34.761  34.852  0.00  0.00    +0.000 C 
ATOM     29  S   UNL     1      48.987  34.103  35.944  0.00  0.00    +0.000 S 
ATOM     30  C   UNL     1      48.246  32.964  37.121  0.00  0.00    +0.000 C 
ATOM     31  H   UNL     1      48.370  31.893  36.802  0.00  0.00    +0.000 HD
BRANCH  22  32
ATOM     32  C   UNL     1      44.578  34.081  36.658  0.00  0.00    +0.000 C 
ATOM     33  O   UNL     1      43.759  34.542  35.830  0.00  0.00    +0.000 OA
BRANCH  32  34
ATOM     34  O   UNL     1      43.544  34.074  37.548  0.00  0.00    +0.000 OA
ATOM     35  H   UNL     1      43.009  33.218  37.748  0.00  0.00    +0.000 HD
ENDBRANCH  32  34
ENDBRANCH  22  32
ENDBRANCH  20  21
ENDBRANCH   7  20
TORSDOF 5
