
 OpenBabel03242518343D

 42 46  0  0  1  0  0  0  0  0999 V2000
   45.9040   32.8840   36.5740 C   0  0  2  0  0  0  0  0  0  0  0  0
   45.3770   31.5060   36.5850 C   0  0  0  0  0  0  0  0  0  0  0  0
   46.5490   31.8130   35.7150 C   0  0  1  0  0  0  0  0  0  0  0  0
   45.3330   33.6730   36.0640 H   0  0  0  0  0  0  0  0  0  0  0  0
   45.5820   30.9550   37.5400 H   0  0  0  0  0  0  0  0  0  0  0  0
   44.3840   31.2760   36.2020 H   0  0  0  0  0  0  0  0  0  0  0  0
   47.5100   31.3790   36.0880 H   0  0  0  0  0  0  0  0  0  0  0  0
   47.4510   33.6590   39.7150 C   0  0  0  0  0  0  0  0  0  0  0  0
   48.3130   34.3180   38.8370 C   0  0  0  0  0  0  0  0  0  0  0  0
   47.8720   34.1300   37.5400 C   0  0  0  0  0  0  0  0  0  0  0  0
   46.7520   33.3560   37.7040 C   0  0  0  0  0  0  0  0  0  0  0  0
   46.5020   33.0770   38.9660 O   0  0  0  0  0  0  0  0  0  0  0  0
   49.1710   34.8710   39.1840 H   0  0  0  0  0  0  0  0  0  0  0  0
   48.3200   34.5110   36.6340 H   0  0  0  0  0  0  0  0  0  0  0  0
   47.4560   33.5460   41.1140 O   0  0  0  0  0  0  0  0  0  0  0  0
   47.4890   34.7160   41.9090 C   0  0  0  0  0  0  0  0  0  0  0  0
   48.3140   35.5980   41.5560 O   0  0  0  0  0  0  0  0  0  0  0  0
   46.5850   34.7490   43.0070 C   0  0  0  0  0  0  0  0  0  0  0  0
   45.6500   35.7540   42.9570 C   0  0  0  0  0  0  0  0  0  0  0  0
   44.7300   35.8520   43.9990 C   0  0  0  0  0  0  0  0  0  0  0  0
   44.7990   34.9600   45.0010 N   0  0  0  0  0  0  0  0  0  0  0  0
   45.7340   33.9870   45.0110 C   0  0  0  0  0  0  0  0  0  0  0  0
   46.6140   33.8960   44.0140 N   0  0  0  0  0  0  0  0  0  0  0  0
   45.5740   36.4780   42.1690 H   0  0  0  0  0  0  0  0  0  0  0  0
   43.9710   36.6410   43.9900 H   0  0  0  0  0  0  0  0  0  0  0  0
   45.8300   33.2420   45.8010 H   0  0  0  0  0  0  0  0  0  0  0  0
   46.4570   31.9620   34.2490 C   0  0  0  0  0  2  0  0  0  0  0  0
   47.0200   30.9010   33.4020 C   0  0  0  0  0  0  0  0  0  0  0  0
   47.9660   31.3630   32.5410 C   0  0  0  0  0  0  0  0  0  0  0  0
   48.6870   30.4990   31.6270 N   0  0  0  0  0  0  0  0  0  0  0  0
   49.0550   30.2510   30.2640 C   0  0  0  0  0  0  0  0  0  0  0  0
   49.1830   31.0140   29.2570 O   0  0  0  0  0  0  0  0  0  0  0  0
   49.1740   28.8040   30.6810 C   0  0  0  0  0  3  0  0  0  0  0  0
   50.1010   28.3660   30.2700 H   0  0  0  0  0  0  0  0  0  0  0  0
   49.4270   29.2950   32.0890 C   0  0  2  0  0  3  0  0  0  0  0  0
   48.3750   28.5720   33.3770 S   0  0  0  0  0  0  0  0  0  0  0  0
   46.7780   29.4530   33.2020 C   0  0  0  0  0  3  0  0  0  0  0  0
   46.0020   29.0870   33.8520 H   0  0  0  0  0  0  0  0  0  0  0  0
   48.3420   32.7930   32.5040 C   0  0  0  0  0  0  0  0  0  0  0  0
   49.2920   33.3340   31.8300 O   0  0  0  0  0  0  0  0  0  0  0  0
   48.3670   34.1340   32.7360 O   0  0  0  0  0  0  0  0  0  0  0  0
   48.3600   34.4720   33.7120 H   0  0  0  0  0  0  0  0  0  0  0  0
  1  4  1  6  0  0  0
  1  2  1  0  0  0  0
  1 11  1  0  0  0  0
  2  5  1  0  0  0  0
  3  7  1  1  0  0  0
  3  1  1  0  0  0  0
  3  2  1  0  0  0  0
  6  2  1  0  0  0  0
  8 15  1  0  0  0  0
  9 13  1  0  0  0  0
  9  8  2  0  0  0  0
 10 11  2  0  0  0  0
 10  9  1  0  0  0  0
 11 12  1  0  0  0  0
 12  8  1  0  0  0  0
 14 10  1  0  0  0  0
 15 16  1  0  0  0  0
 16 18  1  0  0  0  0
 17 16  2  0  0  0  0
 18 23  1  0  0  0  0
 19 18  2  0  0  0  0
 19 20  1  0  0  0  0
 20 21  2  0  0  0  0
 21 22  1  0  0  0  0
 22 26  1  0  0  0  0
 23 22  2  0  0  0  0
 24 19  1  0  0  0  0
 25 20  1  0  0  0  0
 27  3  1  0  0  0  0
 28 27  1  0  0  0  0
 29 28  2  0  0  0  0
 30 35  1  0  0  0  0
 30 29  1  0  0  0  0
 31 33  1  0  0  0  0
 31 30  1  0  0  0  0
 32 31  2  0  0  0  0
 34 33  1  0  0  0  0
 35 33  1  6  0  0  0
 35 36  1  0  0  0  0
 37 36  1  0  0  0  0
 37 28  1  0  0  0  0
 37 38  1  0  0  0  0
 39 29  1  0  0  0  0
 39 41  1  0  0  0  0
 40 39  2  0  0  0  0
 41 42  1  0  0  0  0
M  END
>  <minimizedAffinity>
-6.34038448

>  <minimizedRMSD>
1.03056037

$$$$
