REMARK  Name = 
REMARK  5 active torsions:
REMARK  status: ('A' for Active; 'I' for Inactive)
REMARK    1  A    between atoms: C_3  and  C_8
REMARK    2  A    between atoms: C_8  and  C_24
REMARK    3  A    between atoms: C_14  and  C_16
REMARK    4  A    between atoms: C_17  and  C_18
REMARK    5  A    between atoms: C_18  and  O_20
REMARK                            x       y       z     vdW  Elec       q    Type
REMARK                         _______ _______ _______ _____ _____    ______ ____
ROOT
ATOM      1  C   UNL     1      47.808  31.051  37.879  0.00  0.00    +0.000 C 
ATOM      2  C   UNL     1      47.135  31.079  39.017  0.00  0.00    +0.000 C 
ATOM      3  N   UNL     1      47.136  32.275  39.786  0.00  0.00    +0.000 N 
ATOM      4  C   UNL     1      46.356  33.262  40.507  0.00  0.00    +0.000 C 
ATOM      5  O   UNL     1      45.189  33.272  41.032  0.00  0.00    +0.000 OA
ATOM      6  C   UNL     1      47.489  34.254  40.373  0.00  0.00    +0.000 C 
ATOM      7  C   UNL     1      48.349  33.029  40.140  0.00  0.00    +0.000 C 
ATOM      8  S   UNL     1      49.394  33.077  38.670  0.00  0.00    +0.000 S 
ATOM      9  C   UNL     1      48.554  32.196  37.332  0.00  0.00    +0.000 C 
ATOM     10  H   UNL     1      49.261  31.857  36.549  0.00  0.00    +0.000 HD
ENDROOT
BRANCH   6  11
ATOM     11  C   UNL     1      47.743  34.972  41.663  0.00  0.00    +0.000 C 
ATOM     12  O   UNL     1      48.668  35.817  41.648  0.00  0.00    +0.000 OA
BRANCH  11  15
ATOM     13  C   UNL     1      44.915  35.133  44.049  0.00  0.00    +0.000 A 
ATOM     14  C   UNL     1      45.736  35.389  42.928  0.00  0.00    +0.000 A 
ATOM     15  C   UNL     1      46.948  34.676  42.816  0.00  0.00    +0.000 A 
ATOM     16  N   UNL     1      47.246  33.785  43.799  0.00  0.00    +0.000 NA
ATOM     17  C   UNL     1      46.429  33.573  44.854  0.00  0.00    +0.000 A 
ATOM     18  N   UNL     1      45.285  34.247  44.959  0.00  0.00    +0.000 NA
ATOM     19  N   UNL     1      43.697  35.842  44.175  0.00  0.00    +0.000 N 
ATOM     20  H   UNL     1      45.415  36.120  42.193  0.00  0.00    +0.000 HD
ATOM     21  H   UNL     1      46.718  32.850  45.608  0.00  0.00    +0.000 HD
ATOM     22  H   UNL     1      43.936  36.843  44.433  0.00  0.00    +0.000 HD
ATOM     23  H   UNL     1      42.711  35.480  44.044  0.00  0.00    +0.000 HD
ENDBRANCH  11  15
ENDBRANCH   6  11
BRANCH   1  24
ATOM     24  C   UNL     1      47.788  29.799  37.127  0.00  0.00    +0.000 C 
ATOM     25  H   UNL     1      48.215  28.958  37.709  0.00  0.00    +0.000 HD
ENDBRANCH   1  24
BRANCH   2  26
ATOM     26  C   UNL     1      46.395  29.927  39.523  0.00  0.00    +0.000 C 
ATOM     27  O   UNL     1      45.731  29.836  40.569  0.00  0.00    +0.000 OA
BRANCH  26  28
ATOM     28  O   UNL     1      46.263  28.673  38.953  0.00  0.00    +0.000 OA
ATOM     29  H   UNL     1      46.542  27.810  39.394  0.00  0.00    +0.000 HD
ENDBRANCH  26  28
ENDBRANCH   2  26
TORSDOF 5
