
 OpenBabel03242514093D

 51 56  0  0  1  0  0  0  0  0999 V2000
   38.3320   32.3550   39.4090 C   0  0  0  0  0  0  0  0  0  0  0  0
   37.7990   33.5220   39.8990 C   0  0  0  0  0  0  0  0  0  0  0  0
   38.5270   34.6570   40.1890 C   0  0  0  0  0  0  0  0  0  0  0  0
   39.9050   34.5250   39.9390 C   0  0  0  0  0  0  0  0  0  0  0  0
   40.4670   33.3380   39.4400 C   0  0  0  0  0  0  0  0  0  0  0  0
   39.6750   32.2710   39.1820 N   0  0  0  0  0  0  0  0  0  0  0  0
   36.7310   33.5500   40.0660 H   0  0  0  0  0  0  0  0  0  0  0  0
   38.1130   35.5650   40.5690 H   0  0  0  0  0  0  0  0  0  0  0  0
   40.4730   35.4170   40.1630 H   0  0  0  0  0  0  0  0  0  0  0  0
   41.9030   33.2620   39.1910 C   0  0  1  0  0  0  0  0  0  0  0  0
   42.2820   33.9850   37.8590 C   0  0  0  0  0  0  0  0  0  0  0  0
   43.7070   33.4390   37.5810 C   0  0  0  0  0  0  0  0  0  0  0  0
   44.5860   34.1550   38.6040 C   0  0  0  0  0  0  0  0  0  0  0  0
   44.1840   33.8580   39.9960 C   0  0  0  0  0  0  0  0  0  0  0  0
   42.7510   33.6710   40.2900 C   0  0  2  0  0  0  0  0  0  0  0  0
   42.1080   32.1870   38.9050 H   0  0  0  0  0  0  0  0  0  0  0  0
   42.3430   35.0620   37.9950 H   0  0  0  0  0  0  0  0  0  0  0  0
   41.5810   33.6300   37.0830 H   0  0  0  0  0  0  0  0  0  0  0  0
   43.6890   32.3330   37.7780 H   0  0  0  0  0  0  0  0  0  0  0  0
   44.0360   33.6720   36.5700 H   0  0  0  0  0  0  0  0  0  0  0  0
   44.5430   35.2360   38.3110 H   0  0  0  0  0  0  0  0  0  0  0  0
   45.6140   33.8160   38.3860 H   0  0  0  0  0  0  0  0  0  0  0  0
   44.7970   32.9560   40.3020 H   0  0  0  0  0  0  0  0  0  0  0  0
   44.6140   34.6630   40.6320 H   0  0  0  0  0  0  0  0  0  0  0  0
   42.3620   34.6540   40.6910 H   0  0  0  0  0  0  0  0  0  0  0  0
   42.6390   32.3870   41.5870 S   0  0  0  0  0  0  0  0  0  0  0  0
   41.6050   31.4940   41.3540 H   0  0  0  0  0  0  0  0  0  0  0  0
   36.2770   29.8800   37.6930 C   0  0  0  0  0  0  0  0  0  0  0  0
   35.8770   29.0060   38.6790 C   0  0  0  0  0  0  0  0  0  0  0  0
   36.3350   29.2940   39.9490 C   0  0  0  0  0  0  0  0  0  0  0  0
   37.1300   30.3940   40.1250 N   0  0  0  0  0  0  0  0  0  0  0  0
   37.4900   31.2170   39.1180 C   0  0  0  0  0  0  0  0  0  0  0  0
   37.0600   30.9500   37.9210 N   0  0  0  0  0  0  0  0  0  0  0  0
   35.9480   29.7120   36.6580 H   0  0  0  0  0  0  0  0  0  0  0  0
   35.2460   28.1520   38.4730 H   0  0  0  0  0  0  0  0  0  0  0  0
   35.9260   28.3810   41.0760 C   0  0  0  0  0  2  0  0  0  0  0  0
   37.0010   27.4120   41.3740 C   0  0  0  0  0  0  0  0  0  0  0  0
   37.8810   27.5920   42.3170 C   0  0  0  0  0  0  0  0  0  0  0  0
   38.9050   26.6500   42.5950 N   0  0  0  0  0  0  0  0  0  0  0  0
   40.0540   26.2360   43.3340 C   0  0  1  0  0  0  0  0  0  0  0  0
   41.0420   26.8930   43.7740 O   0  0  0  0  0  1  0  0  0  0  0  0
   39.4630   24.8490   43.2650 C   0  0  0  0  0  3  0  0  0  0  0  0
   38.5380   24.7500   43.8880 H   0  0  0  0  0  0  0  0  0  0  0  0
   39.0830   25.3780   41.9200 C   0  0  1  0  0  0  0  0  0  0  0  0
   37.4500   24.7740   41.3730 S   0  0  0  0  0  0  0  0  0  0  0  0
   36.9090   26.2770   40.4640 C   0  0  0  0  0  3  0  0  0  0  0  0
   37.5780   26.3730   39.5710 H   0  0  0  0  0  0  0  0  0  0  0  0
   37.9180   28.7790   43.2040 C   0  0  0  0  0  0  0  0  0  0  0  0
   38.5800   29.8370   43.2850 O   0  0  0  0  0  0  0  0  0  0  0  0
   37.0930   28.9720   44.2860 O   0  0  0  0  0  0  0  0  0  0  0  0
   37.3350   29.3100   45.2080 H   0  0  0  0  0  0  0  0  0  0  0  0
  1  2  1  0  0  0  0
  2  7  1  0  0  0  0
  2  3  2  0  0  0  0
  3  8  1  0  0  0  0
  4  9  1  0  0  0  0
  4  3  1  0  0  0  0
  5  4  2  0  0  0  0
  6  1  2  0  0  0  0
  6  5  1  0  0  0  0
 10 16  1  6  0  0  0
 10  5  1  0  0  0  0
 10 15  1  0  0  0  0
 11 17  1  0  0  0  0
 11 10  1  0  0  0  0
 12 19  1  0  0  0  0
 12 11  1  0  0  0  0
 12 13  1  0  0  0  0
 13 14  1  0  0  0  0
 14 15  1  0  0  0  0
 14 23  1  0  0  0  0
 14 24  1  0  0  0  0
 15 25  1  1  0  0  0
 15 26  1  0  0  0  0
 18 11  1  0  0  0  0
 20 12  1  0  0  0  0
 21 13  1  0  0  0  0
 22 13  1  0  0  0  0
 27 26  1  0  0  0  0
 28 33  2  0  0  0  0
 28 29  1  0  0  0  0
 29 30  2  0  0  0  0
 30 31  1  0  0  0  0
 30 36  1  0  0  0  0
 32  1  1  0  0  0  0
 32 31  2  0  0  0  0
 33 32  1  0  0  0  0
 34 28  1  0  0  0  0
 35 29  1  0  0  0  0
 36 37  1  0  0  0  0
 37 38  2  0  0  0  0
 38 39  1  0  0  0  0
 38 48  1  0  0  0  0
 39 40  1  0  0  0  0
 40 41  1  1  0  0  0
 42 40  1  0  0  0  0
 42 43  1  0  0  0  0
 44 45  1  6  0  0  0
 44 39  1  0  0  0  0
 44 42  1  0  0  0  0
 44 40  1  0  0  0  0
 46 45  1  0  0  0  0
 46 37  1  0  0  0  0
 47 46  1  0  0  0  0
 48 49  2  0  0  0  0
 48 50  1  0  0  0  0
 50 51  1  0  0  0  0
M  END
>  <minimizedAffinity>
-7.41892672

$$$$

 OpenBabel03242514093D

 51 56  0  0  1  0  0  0  0  0999 V2000
   37.8620   30.8280   40.9100 C   0  0  0  0  0  0  0  0  0  0  0  0
   36.5100   30.6410   40.7560 C   0  0  0  0  0  0  0  0  0  0  0  0
   35.8490   29.4550   40.9950 C   0  0  0  0  0  0  0  0  0  0  0  0
   36.6920   28.4140   41.4250 C   0  0  0  0  0  0  0  0  0  0  0  0
   38.0760   28.5870   41.5870 C   0  0  0  0  0  0  0  0  0  0  0  0
   38.6420   29.7890   41.3280 N   0  0  0  0  0  0  0  0  0  0  0  0
   35.9250   31.4880   40.4230 H   0  0  0  0  0  0  0  0  0  0  0  0
   34.7980   29.3090   40.8760 H   0  0  0  0  0  0  0  0  0  0  0  0
   36.1720   27.4860   41.6160 H   0  0  0  0  0  0  0  0  0  0  0  0
   38.9000   27.4730   42.0440 C   0  0  1  0  0  0  0  0  0  0  0  0
   38.6910   27.2060   43.5690 C   0  0  0  0  0  0  0  0  0  0  0  0
   39.9140   26.3190   43.9200 C   0  0  0  0  0  0  0  0  0  0  0  0
   39.5800   24.9640   43.3020 C   0  0  0  0  0  0  0  0  0  0  0  0
   39.4070   25.0420   41.8360 C   0  0  0  0  0  0  0  0  0  0  0  0
   38.8000   26.2590   41.2630 C   0  0  2  0  0  0  0  0  0  0  0  0
   39.9630   27.8590   42.0490 H   0  0  0  0  0  0  0  0  0  0  0  0
   37.7830   26.6360   43.7520 H   0  0  0  0  0  0  0  0  0  0  0  0
   38.7670   28.1800   44.0850 H   0  0  0  0  0  0  0  0  0  0  0  0
   40.8140   26.7730   43.4220 H   0  0  0  0  0  0  0  0  0  0  0  0
   40.0440   26.2230   44.9970 H   0  0  0  0  0  0  0  0  0  0  0  0
   38.6870   24.6010   43.8730 H   0  0  0  0  0  0  0  0  0  0  0  0
   40.4190   24.3040   43.5880 H   0  0  0  0  0  0  0  0  0  0  0  0
   40.4310   24.8380   41.3980 H   0  0  0  0  0  0  0  0  0  0  0  0
   38.8350   24.1380   41.5320 H   0  0  0  0  0  0  0  0  0  0  0  0
   37.7050   26.0360   41.0920 H   0  0  0  0  0  0  0  0  0  0  0  0
   39.6270   26.5590   39.6600 S   0  0  0  0  0  0  0  0  0  0  0  0
   39.9050   27.9010   39.4560 H   0  0  0  0  0  0  0  0  0  0  0  0
   38.3820   34.3460   40.1070 C   0  0  0  0  0  0  0  0  0  0  0  0
   39.7460   34.5260   40.1680 C   0  0  0  0  0  0  0  0  0  0  0  0
   40.4780   33.4020   40.4940 C   0  0  0  0  0  0  0  0  0  0  0  0
   39.8120   32.2290   40.7240 N   0  0  0  0  0  0  0  0  0  0  0  0
   38.4700   32.1130   40.6500 C   0  0  0  0  0  0  0  0  0  0  0  0
   37.7760   33.1690   40.3440 N   0  0  0  0  0  0  0  0  0  0  0  0
   37.7370   35.1990   39.8530 H   0  0  0  0  0  0  0  0  0  0  0  0
   40.2110   35.4830   39.9740 H   0  0  0  0  0  0  0  0  0  0  0  0
   41.9780   33.5300   40.5680 C   0  0  0  0  0  2  0  0  0  0  0  0
   42.6300   32.3880   39.8950 C   0  0  0  0  0  0  0  0  0  0  0  0
   42.6780   32.2570   38.6000 C   0  0  0  0  0  0  0  0  0  0  0  0
   43.3110   31.1570   37.9670 N   0  0  0  0  0  0  0  0  0  0  0  0
   43.6850   30.4370   36.7920 C   0  0  1  0  0  0  0  0  0  0  0  0
   43.0670   30.2370   35.7060 O   0  0  0  0  0  1  0  0  0  0  0  0
   44.9780   30.1470   37.5140 C   0  0  0  0  0  3  0  0  0  0  0  0
   45.6120   31.0620   37.6340 H   0  0  0  0  0  0  0  0  0  0  0  0
   44.0090   30.0820   38.6490 C   0  0  1  0  0  0  0  0  0  0  0  0
   44.7120   30.7350   40.2020 S   0  0  0  0  0  0  0  0  0  0  0  0
   43.1760   31.4740   40.8900 C   0  0  0  0  0  3  0  0  0  0  0  0
   42.4900   30.6240   41.1330 H   0  0  0  0  0  0  0  0  0  0  0  0
   42.0910   33.2260   37.6440 C   0  0  0  0  0  0  0  0  0  0  0  0
   42.4000   34.3420   37.1710 O   0  0  0  0  0  0  0  0  0  0  0  0
   40.8980   33.0510   36.9860 O   0  0  0  0  0  0  0  0  0  0  0  0
   40.1570   33.7240   36.8380 H   0  0  0  0  0  0  0  0  0  0  0  0
  1  6  1  0  0  0  0
  2  1  2  0  0  0  0
  2  3  1  0  0  0  0
  3  4  2  0  0  0  0
  4  5  1  0  0  0  0
  4  9  1  0  0  0  0
  5 10  1  0  0  0  0
  6  5  2  0  0  0  0
  7  2  1  0  0  0  0
  8  3  1  0  0  0  0
 10 16  1  6  0  0  0
 10 11  1  0  0  0  0
 11 17  1  0  0  0  0
 11 12  1  0  0  0  0
 11 18  1  0  0  0  0
 12 20  1  0  0  0  0
 13 22  1  0  0  0  0
 13 21  1  0  0  0  0
 13 12  1  0  0  0  0
 14 13  1  0  0  0  0
 15 25  1  6  0  0  0
 15 14  1  0  0  0  0
 15 10  1  0  0  0  0
 19 12  1  0  0  0  0
 23 14  1  0  0  0  0
 24 14  1  0  0  0  0
 26 15  1  0  0  0  0
 27 26  1  0  0  0  0
 28 29  2  0  0  0  0
 28 33  1  0  0  0  0
 29 30  1  0  0  0  0
 30 36  1  0  0  0  0
 30 31  2  0  0  0  0
 32 31  1  0  0  0  0
 32  1  1  0  0  0  0
 33 32  2  0  0  0  0
 34 28  1  0  0  0  0
 35 29  1  0  0  0  0
 37 36  1  0  0  0  0
 37 46  1  0  0  0  0
 38 37  2  0  0  0  0
 39 38  1  0  0  0  0
 39 44  1  0  0  0  0
 40 41  1  6  0  0  0
 40 42  1  0  0  0  0
 40 39  1  0  0  0  0
 40 44  1  0  0  0  0
 42 43  1  0  0  0  0
 44 42  1  6  0  0  0
 44 45  1  0  0  0  0
 45 46  1  0  0  0  0
 46 47  1  0  0  0  0
 48 38  1  0  0  0  0
 49 48  2  0  0  0  0
 50 48  1  0  0  0  0
 51 50  1  0  0  0  0
M  END
>  <minimizedAffinity>
-6.98884153

$$$$

 OpenBabel03242514093D

 51 56  0  0  1  0  0  0  0  0999 V2000
   37.4040   29.9510   40.3830 C   0  0  0  0  0  0  0  0  0  0  0  0
   36.6720   29.6500   39.2610 C   0  0  0  0  0  0  0  0  0  0  0  0
   36.6220   30.4270   38.1240 C   0  0  0  0  0  0  0  0  0  0  0  0
   37.4050   31.5940   38.2010 C   0  0  0  0  0  0  0  0  0  0  0  0
   38.1580   31.9190   39.3400 C   0  0  0  0  0  0  0  0  0  0  0  0
   38.1490   31.0950   40.4150 N   0  0  0  0  0  0  0  0  0  0  0  0
   36.0940   28.7360   39.2740 H   0  0  0  0  0  0  0  0  0  0  0  0
   36.0530   30.1940   37.2500 H   0  0  0  0  0  0  0  0  0  0  0  0
   37.3680   32.2000   37.3060 H   0  0  0  0  0  0  0  0  0  0  0  0
   38.9600   33.1380   39.3600 C   0  0  1  0  0  0  0  0  0  0  0  0
   38.5140   34.0870   40.5180 C   0  0  0  0  0  0  0  0  0  0  0  0
   39.1650   35.4350   40.1100 C   0  0  0  0  0  0  0  0  0  0  0  0
   40.6500   35.2340   40.4030 C   0  0  0  0  0  0  0  0  0  0  0  0
   41.2330   34.1240   39.6200 C   0  0  0  0  0  0  0  0  0  0  0  0
   40.3930   32.9440   39.3390 C   0  0  2  0  0  0  0  0  0  0  0  0
   38.6240   33.7400   38.4630 H   0  0  0  0  0  0  0  0  0  0  0  0
   38.9330   33.7730   41.4720 H   0  0  0  0  0  0  0  0  0  0  0  0
   37.4130   34.1660   40.4710 H   0  0  0  0  0  0  0  0  0  0  0  0
   38.9920   35.5720   39.0080 H   0  0  0  0  0  0  0  0  0  0  0  0
   38.7710   36.2630   40.6950 H   0  0  0  0  0  0  0  0  0  0  0  0
   40.7090   35.1200   41.5160 H   0  0  0  0  0  0  0  0  0  0  0  0
   41.1220   36.2050   40.1660 H   0  0  0  0  0  0  0  0  0  0  0  0
   41.6230   34.5970   38.6680 H   0  0  0  0  0  0  0  0  0  0  0  0
   42.1710   33.8260   40.1370 H   0  0  0  0  0  0  0  0  0  0  0  0
   40.6570   32.1580   40.1080 H   0  0  0  0  0  0  0  0  0  0  0  0
   40.8510   32.3520   37.6700 S   0  0  0  0  0  0  0  0  0  0  0  0
   39.7460   31.9770   36.9250 H   0  0  0  0  0  0  0  0  0  0  0  0
   37.6420   28.6320   43.7740 C   0  0  0  0  0  0  0  0  0  0  0  0
   37.3970   27.2820   43.6470 C   0  0  0  0  0  0  0  0  0  0  0  0
   37.1480   26.8430   42.3620 C   0  0  0  0  0  0  0  0  0  0  0  0
   37.1630   27.7550   41.3420 N   0  0  0  0  0  0  0  0  0  0  0  0
   37.4100   29.0690   41.5280 C   0  0  0  0  0  0  0  0  0  0  0  0
   37.6450   29.4880   42.7360 N   0  0  0  0  0  0  0  0  0  0  0  0
   37.8490   29.0510   44.7690 H   0  0  0  0  0  0  0  0  0  0  0  0
   37.4000   26.6130   44.4960 H   0  0  0  0  0  0  0  0  0  0  0  0
   36.8810   25.3740   42.1540 C   0  0  0  0  0  2  0  0  0  0  0  0
   37.5180   24.9030   40.9070 C   0  0  0  0  0  0  0  0  0  0  0  0
   38.7820   24.6030   40.8220 C   0  0  0  0  0  0  0  0  0  0  0  0
   39.3790   24.1470   39.6180 N   0  0  0  0  0  0  0  0  0  0  0  0
   40.5200   23.7180   38.8740 C   0  0  1  0  0  0  0  0  0  0  0  0
   41.7220   24.1090   38.8940 O   0  0  0  0  0  1  0  0  0  0  0  0
   39.5820   22.7360   38.2140 C   0  0  0  0  0  3  0  0  0  0  0  0
   39.2440   21.9330   38.9160 H   0  0  0  0  0  0  0  0  0  0  0  0
   38.6800   23.9180   38.3670 C   0  0  1  0  0  0  0  0  0  0  0  0
   36.9590   23.4350   38.7400 S   0  0  0  0  0  0  0  0  0  0  0  0
   36.5280   24.8440   39.8390 C   0  0  0  0  0  3  0  0  0  0  0  0
   36.5160   25.7620   39.1980 H   0  0  0  0  0  0  0  0  0  0  0  0
   39.7360   24.6940   41.9530 C   0  0  0  0  0  0  0  0  0  0  0  0
   40.6360   25.4780   42.3270 O   0  0  0  0  0  0  0  0  0  0  0  0
   39.8260   23.7800   42.9750 O   0  0  0  0  0  0  0  0  0  0  0  0
   40.6580   23.3820   43.3910 H   0  0  0  0  0  0  0  0  0  0  0  0
  1  6  1  0  0  0  0
  1 32  1  0  0  0  0
  2  7  1  0  0  0  0
  2  1  2  0  0  0  0
  3  4  2  0  0  0  0
  3  2  1  0  0  0  0
  4  5  1  0  0  0  0
  5 10  1  0  0  0  0
  5  6  2  0  0  0  0
  8  3  1  0  0  0  0
  9  4  1  0  0  0  0
 10 16  1  6  0  0  0
 10 11  1  0  0  0  0
 11 17  1  0  0  0  0
 12 13  1  0  0  0  0
 12 11  1  0  0  0  0
 12 20  1  0  0  0  0
 13 21  1  0  0  0  0
 14 24  1  0  0  0  0
 14 13  1  0  0  0  0
 15 10  1  0  0  0  0
 15 14  1  0  0  0  0
 15 25  1  1  0  0  0
 18 11  1  0  0  0  0
 19 12  1  0  0  0  0
 22 13  1  0  0  0  0
 23 14  1  0  0  0  0
 26 15  1  0  0  0  0
 27 26  1  0  0  0  0
 28 34  1  0  0  0  0
 29 28  1  0  0  0  0
 29 35  1  0  0  0  0
 30 29  2  0  0  0  0
 31 32  2  0  0  0  0
 31 30  1  0  0  0  0
 32 33  1  0  0  0  0
 33 28  2  0  0  0  0
 36 30  1  0  0  0  0
 37 36  1  0  0  0  0
 38 37  2  0  0  0  0
 38 48  1  0  0  0  0
 39 38  1  0  0  0  0
 40 41  1  6  0  0  0
 40 39  1  0  0  0  0
 42 40  1  0  0  0  0
 42 43  1  0  0  0  0
 44 42  1  1  0  0  0
 44 45  1  0  0  0  0
 44 40  1  0  0  0  0
 44 39  1  0  0  0  0
 45 46  1  0  0  0  0
 46 37  1  0  0  0  0
 47 46  1  0  0  0  0
 48 49  2  0  0  0  0
 48 50  1  0  0  0  0
 50 51  1  0  0  0  0
M  END
>  <minimizedAffinity>
-6.94226265

$$$$

 OpenBabel03242514093D

 51 56  0  0  1  0  0  0  0  0999 V2000
   36.9760   25.2420   40.6030 C   0  0  0  0  0  0  0  0  0  0  0  0
   36.4860   23.9640   40.7100 C   0  0  0  0  0  0  0  0  0  0  0  0
   35.7240   23.3320   39.7510 C   0  0  0  0  0  0  0  0  0  0  0  0
   35.4760   24.1220   38.6140 C   0  0  0  0  0  0  0  0  0  0  0  0
   35.9680   25.4320   38.4880 C   0  0  0  0  0  0  0  0  0  0  0  0
   36.7110   25.9740   39.4820 N   0  0  0  0  0  0  0  0  0  0  0  0
   36.7170   23.4160   41.6140 H   0  0  0  0  0  0  0  0  0  0  0  0
   35.3420   22.3370   39.8330 H   0  0  0  0  0  0  0  0  0  0  0  0
   34.8820   23.6240   37.8600 H   0  0  0  0  0  0  0  0  0  0  0  0
   35.6880   26.2020   37.2810 C   0  0  1  0  0  0  0  0  0  0  0  0
   34.6110   27.3010   37.5500 C   0  0  0  0  0  0  0  0  0  0  0  0
   34.1700   27.6910   36.1150 C   0  0  0  0  0  0  0  0  0  0  0  0
   35.3420   28.5060   35.5750 C   0  0  0  0  0  0  0  0  0  0  0  0
   36.5980   27.7260   35.5320 C   0  0  0  0  0  0  0  0  0  0  0  0
   36.8460   26.7340   36.5960 C   0  0  2  0  0  0  0  0  0  0  0  0
   35.1050   25.5080   36.6030 H   0  0  0  0  0  0  0  0  0  0  0  0
   35.0470   28.1740   38.0300 H   0  0  0  0  0  0  0  0  0  0  0  0
   33.7760   26.8160   38.0860 H   0  0  0  0  0  0  0  0  0  0  0  0
   34.0450   26.7390   35.5310 H   0  0  0  0  0  0  0  0  0  0  0  0
   33.2630   28.2920   36.1240 H   0  0  0  0  0  0  0  0  0  0  0  0
   35.3700   29.4270   36.2130 H   0  0  0  0  0  0  0  0  0  0  0  0
   35.0230   28.8360   34.5700 H   0  0  0  0  0  0  0  0  0  0  0  0
   36.6270   27.2540   34.5030 H   0  0  0  0  0  0  0  0  0  0  0  0
   37.4300   28.4610   35.4790 H   0  0  0  0  0  0  0  0  0  0  0  0
   37.5160   27.2270   37.3620 H   0  0  0  0  0  0  0  0  0  0  0  0
   37.7260   25.3320   35.8180 S   0  0  0  0  0  0  0  0  0  0  0  0
   37.2630   24.1060   36.2690 H   0  0  0  0  0  0  0  0  0  0  0  0
   39.3460   25.6990   43.3360 C   0  0  0  0  0  0  0  0  0  0  0  0
   39.2720   27.0380   43.6490 C   0  0  0  0  0  0  0  0  0  0  0  0
   38.3850   27.7760   42.8920 C   0  0  0  0  0  0  0  0  0  0  0  0
   37.6670   27.1390   41.9160 N   0  0  0  0  0  0  0  0  0  0  0  0
   37.7820   25.8210   41.6550 C   0  0  0  0  0  0  0  0  0  0  0  0
   38.6160   25.1210   42.3650 N   0  0  0  0  0  0  0  0  0  0  0  0
   40.0320   25.0510   43.9000 H   0  0  0  0  0  0  0  0  0  0  0  0
   39.8690   27.4820   44.4350 H   0  0  0  0  0  0  0  0  0  0  0  0
   38.2510   29.2480   43.1890 C   0  0  0  0  0  2  0  0  0  0  0  0
   38.7430   30.0540   42.0530 C   0  0  0  0  0  0  0  0  0  0  0  0
   37.9560   30.5900   41.1650 C   0  0  0  0  0  0  0  0  0  0  0  0
   38.4440   31.3660   40.0820 N   0  0  0  0  0  0  0  0  0  0  0  0
   38.2270   32.1280   38.8950 C   0  0  1  0  0  0  0  0  0  0  0  0
   37.4160   31.9660   37.9380 O   0  0  0  0  0  1  0  0  0  0  0  0
   39.3250   33.0290   39.4050 C   0  0  0  0  0  3  0  0  0  0  0  0
   39.0130   33.6110   40.3090 H   0  0  0  0  0  0  0  0  0  0  0  0
   39.8370   31.6960   39.8440 C   0  0  1  0  0  0  0  0  0  0  0  0
   40.7000   31.7780   41.4510 S   0  0  0  0  0  0  0  0  0  0  0  0
   40.1980   30.1320   42.0980 C   0  0  0  0  0  3  0  0  0  0  0  0
   40.7010   29.3650   41.4560 H   0  0  0  0  0  0  0  0  0  0  0  0
   36.4790   30.4630   41.1790 C   0  0  0  0  0  0  0  0  0  0  0  0
   35.6330   29.6150   40.8180 O   0  0  0  0  0  0  0  0  0  0  0  0
   35.6180   31.4120   41.6740 O   0  0  0  0  0  0  0  0  0  0  0  0
   34.7530   31.7480   41.2690 H   0  0  0  0  0  0  0  0  0  0  0  0
  1  2  1  0  0  0  0
  1 32  1  0  0  0  0
  2  7  1  0  0  0  0
  3  8  1  0  0  0  0
  3  2  2  0  0  0  0
  4  3  1  0  0  0  0
  5  4  2  0  0  0  0
  5  6  1  0  0  0  0
  6  1  2  0  0  0  0
  9  4  1  0  0  0  0
 10 16  1  6  0  0  0
 10 11  1  0  0  0  0
 10  5  1  0  0  0  0
 11 17  1  0  0  0  0
 11 18  1  0  0  0  0
 12 20  1  0  0  0  0
 12 11  1  0  0  0  0
 13 12  1  0  0  0  0
 13 21  1  0  0  0  0
 14 13  1  0  0  0  0
 14 15  1  0  0  0  0
 15 10  1  0  0  0  0
 15 25  1  1  0  0  0
 19 12  1  0  0  0  0
 22 13  1  0  0  0  0
 23 14  1  0  0  0  0
 24 14  1  0  0  0  0
 26 27  1  0  0  0  0
 26 15  1  0  0  0  0
 28 29  1  0  0  0  0
 28 34  1  0  0  0  0
 29 35  1  0  0  0  0
 30 36  1  0  0  0  0
 30 29  2  0  0  0  0
 31 30  1  0  0  0  0
 32 31  2  0  0  0  0
 32 33  1  0  0  0  0
 33 28  2  0  0  0  0
 37 46  1  0  0  0  0
 37 36  1  0  0  0  0
 38 48  1  0  0  0  0
 38 37  2  0  0  0  0
 39 38  1  0  0  0  0
 40 41  1  6  0  0  0
 40 42  1  0  0  0  0
 40 44  1  0  0  0  0
 40 39  1  0  0  0  0
 42 43  1  0  0  0  0
 44 42  1  1  0  0  0
 44 39  1  0  0  0  0
 44 45  1  0  0  0  0
 45 46  1  0  0  0  0
 47 46  1  0  0  0  0
 48 50  1  0  0  0  0
 49 48  2  0  0  0  0
 51 50  1  0  0  0  0
M  END
>  <minimizedAffinity>
-6.8296814

$$$$

 OpenBabel03242514093D

 51 56  0  0  1  0  0  0  0  0999 V2000
   39.0330   28.3540   42.4870 C   0  0  0  0  0  0  0  0  0  0  0  0
   38.8570   27.2890   43.3360 C   0  0  0  0  0  0  0  0  0  0  0  0
   39.8660   26.6730   44.0450 C   0  0  0  0  0  0  0  0  0  0  0  0
   41.1360   27.2360   43.8250 C   0  0  0  0  0  0  0  0  0  0  0  0
   41.3360   28.3230   42.9600 C   0  0  0  0  0  0  0  0  0  0  0  0
   40.2850   28.8680   42.3030 N   0  0  0  0  0  0  0  0  0  0  0  0
   37.8500   26.9090   43.4550 H   0  0  0  0  0  0  0  0  0  0  0  0
   39.7290   25.8450   44.7060 H   0  0  0  0  0  0  0  0  0  0  0  0
   41.9260   26.7550   44.3850 H   0  0  0  0  0  0  0  0  0  0  0  0
   42.6760   28.8730   42.7780 C   0  0  1  0  0  0  0  0  0  0  0  0
   43.1290   29.6800   44.0370 C   0  0  0  0  0  0  0  0  0  0  0  0
   44.3310   30.4940   43.4910 C   0  0  0  0  0  0  0  0  0  0  0  0
   45.4450   29.4610   43.3460 C   0  0  0  0  0  0  0  0  0  0  0  0
   45.0890   28.3780   42.4040 C   0  0  0  0  0  0  0  0  0  0  0  0
   43.6850   27.9290   42.3470 C   0  0  2  0  0  0  0  0  0  0  0  0
   42.5650   29.7110   42.0280 H   0  0  0  0  0  0  0  0  0  0  0  0
   43.4850   29.0200   44.8250 H   0  0  0  0  0  0  0  0  0  0  0  0
   42.3010   30.3590   44.3060 H   0  0  0  0  0  0  0  0  0  0  0  0
   44.0340   30.9020   42.4870 H   0  0  0  0  0  0  0  0  0  0  0  0
   44.6310   31.2790   44.1830 H   0  0  0  0  0  0  0  0  0  0  0  0
   45.6700   29.1320   44.3940 H   0  0  0  0  0  0  0  0  0  0  0  0
   46.3260   30.0350   43.0070 H   0  0  0  0  0  0  0  0  0  0  0  0
   45.4610   28.7220   41.3920 H   0  0  0  0  0  0  0  0  0  0  0  0
   45.7660   27.5240   42.6270 H   0  0  0  0  0  0  0  0  0  0  0  0
   43.6050   27.0040   42.9920 H   0  0  0  0  0  0  0  0  0  0  0  0
   43.3360   27.5000   40.6040 S   0  0  0  0  0  0  0  0  0  0  0  0
   42.0870   27.9380   40.1950 H   0  0  0  0  0  0  0  0  0  0  0  0
   35.7730   28.9080   40.9520 C   0  0  0  0  0  0  0  0  0  0  0  0
   35.8320   30.1880   40.4480 C   0  0  0  0  0  0  0  0  0  0  0  0
   37.0240   30.8520   40.6530 C   0  0  0  0  0  0  0  0  0  0  0  0
   38.0280   30.2060   41.3220 N   0  0  0  0  0  0  0  0  0  0  0  0
   37.9130   28.9480   41.7940 C   0  0  0  0  0  0  0  0  0  0  0  0
   36.7920   28.3180   41.6040 N   0  0  0  0  0  0  0  0  0  0  0  0
   34.8530   28.3200   40.8250 H   0  0  0  0  0  0  0  0  0  0  0  0
   34.9990   30.6420   39.9270 H   0  0  0  0  0  0  0  0  0  0  0  0
   37.1560   32.2550   40.1180 C   0  0  0  0  0  2  0  0  0  0  0  0
   38.5620   32.5490   39.7750 C   0  0  0  0  0  0  0  0  0  0  0  0
   39.1020   32.2200   38.6360 C   0  0  0  0  0  0  0  0  0  0  0  0
   40.4530   32.5130   38.3190 N   0  0  0  0  0  0  0  0  0  0  0  0
   41.5690   32.4550   37.4290 C   0  0  1  0  0  0  0  0  0  0  0  0
   41.9650   31.5400   36.6500 O   0  0  0  0  0  1  0  0  0  0  0  0
   41.8830   33.8510   37.9070 C   0  0  0  0  0  3  0  0  0  0  0  0
   41.1320   34.6020   37.5500 H   0  0  0  0  0  0  0  0  0  0  0  0
   41.3800   33.2340   39.1720 C   0  0  1  0  0  0  0  0  0  0  0  0
   40.4340   34.4150   40.1940 S   0  0  0  0  0  0  0  0  0  0  0  0
   39.2090   33.2330   40.8870 C   0  0  0  0  0  3  0  0  0  0  0  0
   39.7740   32.5410   41.5620 H   0  0  0  0  0  0  0  0  0  0  0  0
   38.3830   31.5150   37.5480 C   0  0  0  0  0  0  0  0  0  0  0  0
   37.9370   30.3650   37.3440 O   0  0  0  0  0  0  0  0  0  0  0  0
   38.0070   32.0920   36.3590 O   0  0  0  0  0  0  0  0  0  0  0  0
   38.0840   31.7130   35.4240 H   0  0  0  0  0  0  0  0  0  0  0  0
  1  2  1  0  0  0  0
  2  7  1  0  0  0  0
  2  3  2  0  0  0  0
  3  8  1  0  0  0  0
  4  3  1  0  0  0  0
  4  9  1  0  0  0  0
  5  4  2  0  0  0  0
  6  1  2  0  0  0  0
  6  5  1  0  0  0  0
 10 16  1  6  0  0  0
 10  5  1  0  0  0  0
 10 11  1  0  0  0  0
 11 18  1  0  0  0  0
 11 17  1  0  0  0  0
 12 11  1  0  0  0  0
 12 20  1  0  0  0  0
 13 12  1  0  0  0  0
 13 21  1  0  0  0  0
 14 24  1  0  0  0  0
 14 13  1  0  0  0  0
 15 14  1  0  0  0  0
 15 10  1  0  0  0  0
 15 25  1  1  0  0  0
 19 12  1  0  0  0  0
 22 13  1  0  0  0  0
 23 14  1  0  0  0  0
 26 15  1  0  0  0  0
 27 26  1  0  0  0  0
 28 33  1  0  0  0  0
 29 30  1  0  0  0  0
 29 28  2  0  0  0  0
 30 31  2  0  0  0  0
 31 32  1  0  0  0  0
 32  1  1  0  0  0  0
 33 32  2  0  0  0  0
 34 28  1  0  0  0  0
 35 29  1  0  0  0  0
 36 30  1  0  0  0  0
 37 36  1  0  0  0  0
 37 46  1  0  0  0  0
 38 37  2  0  0  0  0
 39 38  1  0  0  0  0
 39 44  1  0  0  0  0
 40 41  1  6  0  0  0
 40 42  1  0  0  0  0
 40 39  1  0  0  0  0
 40 44  1  0  0  0  0
 43 42  1  0  0  0  0
 44 42  1  6  0  0  0
 44 45  1  0  0  0  0
 45 46  1  0  0  0  0
 46 47  1  0  0  0  0
 48 38  1  0  0  0  0
 49 48  2  0  0  0  0
 50 48  1  0  0  0  0
 51 50  1  0  0  0  0
M  END
>  <minimizedAffinity>
-6.80983925

$$$$

 OpenBabel03242514093D

 51 56  0  0  1  0  0  0  0  0999 V2000
   36.7820   27.0140   38.7150 C   0  0  0  0  0  0  0  0  0  0  0  0
   36.0200   25.9660   38.2590 C   0  0  0  0  0  0  0  0  0  0  0  0
   35.8700   24.7610   38.9120 C   0  0  0  0  0  0  0  0  0  0  0  0
   36.5820   24.6810   40.1230 C   0  0  0  0  0  0  0  0  0  0  0  0
   37.3670   25.7420   40.6040 C   0  0  0  0  0  0  0  0  0  0  0  0
   37.4570   26.8920   39.8950 N   0  0  0  0  0  0  0  0  0  0  0  0
   35.5000   26.1000   37.3200 H   0  0  0  0  0  0  0  0  0  0  0  0
   35.2780   23.9450   38.5590 H   0  0  0  0  0  0  0  0  0  0  0  0
   36.4600   23.7380   40.6360 H   0  0  0  0  0  0  0  0  0  0  0  0
   38.0760   25.6060   41.8720 C   0  0  1  0  0  0  0  0  0  0  0  0
   39.3810   24.7640   41.7020 C   0  0  0  0  0  0  0  0  0  0  0  0
   39.7300   24.3960   43.1670 C   0  0  0  0  0  0  0  0  0  0  0  0
   40.2570   25.6990   43.7620 C   0  0  0  0  0  0  0  0  0  0  0  0
   39.2490   26.7800   43.7310 C   0  0  0  0  0  0  0  0  0  0  0  0
   38.3170   26.8400   42.5880 C   0  0  2  0  0  0  0  0  0  0  0  0
   37.4550   24.8960   42.4960 H   0  0  0  0  0  0  0  0  0  0  0  0
   40.1900   25.3640   41.2910 H   0  0  0  0  0  0  0  0  0  0  0  0
   39.1110   23.8550   41.1350 H   0  0  0  0  0  0  0  0  0  0  0  0
   38.7760   24.0850   43.6730 H   0  0  0  0  0  0  0  0  0  0  0  0
   40.4940   23.6220   43.2150 H   0  0  0  0  0  0  0  0  0  0  0  0
   41.2040   25.9090   43.2010 H   0  0  0  0  0  0  0  0  0  0  0  0
   40.5600   25.4420   44.7930 H   0  0  0  0  0  0  0  0  0  0  0  0
   38.6980   26.7100   44.7180 H   0  0  0  0  0  0  0  0  0  0  0  0
   39.8030   27.7390   43.8370 H   0  0  0  0  0  0  0  0  0  0  0  0
   38.7330   27.5990   41.8600 H   0  0  0  0  0  0  0  0  0  0  0  0
   36.7130   27.4270   43.2420 S   0  0  0  0  0  0  0  0  0  0  0  0
   35.6410   26.7400   42.6970 H   0  0  0  0  0  0  0  0  0  0  0  0
   36.6420   29.5070   36.0580 C   0  0  0  0  0  0  0  0  0  0  0  0
   37.0820   30.6730   36.6430 C   0  0  0  0  0  0  0  0  0  0  0  0
   37.4280   30.5750   37.9760 C   0  0  0  0  0  0  0  0  0  0  0  0
   37.3090   29.3610   38.5960 N   0  0  0  0  0  0  0  0  0  0  0  0
   36.8700   28.2490   37.9700 C   0  0  0  0  0  0  0  0  0  0  0  0
   36.5430   28.3370   36.7150 N   0  0  0  0  0  0  0  0  0  0  0  0
   36.3500   29.5120   34.9990 H   0  0  0  0  0  0  0  0  0  0  0  0
   37.1530   31.6030   36.0950 H   0  0  0  0  0  0  0  0  0  0  0  0
   37.9270   31.8140   38.6730 C   0  0  0  0  0  2  0  0  0  0  0  0
   39.1000   31.4990   39.5140 C   0  0  0  0  0  0  0  0  0  0  0  0
   40.3150   31.8460   39.2000 C   0  0  0  0  0  0  0  0  0  0  0  0
   41.4320   31.5400   40.0210 N   0  0  0  0  0  0  0  0  0  0  0  0
   42.8360   31.5670   40.2800 C   0  0  1  0  0  0  0  0  0  0  0  0
   43.8280   31.4320   39.5070 O   0  0  0  0  0  1  0  0  0  0  0  0
   42.4530   31.8050   41.7210 C   0  0  0  0  0  3  0  0  0  0  0  0
   42.0040   32.8180   41.8800 H   0  0  0  0  0  0  0  0  0  0  0  0
   41.3730   30.8610   41.3010 C   0  0  1  0  0  0  0  0  0  0  0  0
   39.7720   31.2410   42.0920 S   0  0  0  0  0  0  0  0  0  0  0  0
   38.6750   30.7610   40.6970 C   0  0  0  0  0  3  0  0  0  0  0  0
   38.7670   29.6520   40.5810 H   0  0  0  0  0  0  0  0  0  0  0  0
   40.6760   32.5930   37.9720 C   0  0  0  0  0  0  0  0  0  0  0  0
   41.4190   33.5540   37.6740 O   0  0  0  0  0  0  0  0  0  0  0  0
   40.1790   32.3250   36.7190 O   0  0  0  0  0  0  0  0  0  0  0  0
   39.8500   32.9780   36.0200 H   0  0  0  0  0  0  0  0  0  0  0  0
  1  6  1  0  0  0  0
  2  1  2  0  0  0  0
  2  3  1  0  0  0  0
  3  4  2  0  0  0  0
  4  5  1  0  0  0  0
  4  9  1  0  0  0  0
  5 10  1  0  0  0  0
  6  5  2  0  0  0  0
  7  2  1  0  0  0  0
  8  3  1  0  0  0  0
 10 16  1  1  0  0  0
 10 15  1  0  0  0  0
 11 10  1  0  0  0  0
 11 12  1  0  0  0  0
 12 20  1  0  0  0  0
 12 19  1  0  0  0  0
 12 13  1  0  0  0  0
 13 22  1  0  0  0  0
 14 13  1  0  0  0  0
 14 24  1  0  0  0  0
 14 23  1  0  0  0  0
 15 25  1  6  0  0  0
 15 26  1  0  0  0  0
 15 14  1  0  0  0  0
 17 11  1  0  0  0  0
 18 11  1  0  0  0  0
 21 13  1  0  0  0  0
 27 26  1  0  0  0  0
 28 29  2  0  0  0  0
 28 33  1  0  0  0  0
 29 30  1  0  0  0  0
 30 31  2  0  0  0  0
 30 36  1  0  0  0  0
 32 31  1  0  0  0  0
 32  1  1  0  0  0  0
 33 32  2  0  0  0  0
 34 28  1  0  0  0  0
 35 29  1  0  0  0  0
 36 37  1  0  0  0  0
 37 46  1  0  0  0  0
 38 37  2  0  0  0  0
 38 39  1  0  0  0  0
 39 40  1  0  0  0  0
 39 44  1  0  0  0  0
 40 41  1  6  0  0  0
 40 44  1  0  0  0  0
 40 42  1  0  0  0  0
 42 43  1  0  0  0  0
 44 42  1  1  0  0  0
 44 45  1  0  0  0  0
 46 45  1  0  0  0  0
 47 46  1  0  0  0  0
 48 38  1  0  0  0  0
 49 48  2  0  0  0  0
 50 48  1  0  0  0  0
 51 50  1  0  0  0  0
M  END
>  <minimizedAffinity>
-6.76208878

$$$$

 OpenBabel03242514093D

 51 56  0  0  1  0  0  0  0  0999 V2000
   36.2890   26.0990   38.8050 C   0  0  0  0  0  0  0  0  0  0  0  0
   35.6350   24.9110   38.5910 C   0  0  0  0  0  0  0  0  0  0  0  0
   35.6760   23.8270   39.4420 C   0  0  0  0  0  0  0  0  0  0  0  0
   36.4680   24.0360   40.5860 C   0  0  0  0  0  0  0  0  0  0  0  0
   37.1460   25.2430   40.8200 C   0  0  0  0  0  0  0  0  0  0  0  0
   37.0480   26.2580   39.9280 N   0  0  0  0  0  0  0  0  0  0  0  0
   35.0440   24.8230   37.6890 H   0  0  0  0  0  0  0  0  0  0  0  0
   35.1670   22.9030   39.2770 H   0  0  0  0  0  0  0  0  0  0  0  0
   36.4960   23.1870   41.2550 H   0  0  0  0  0  0  0  0  0  0  0  0
   37.9450   25.4070   42.0300 C   0  0  1  0  0  0  0  0  0  0  0  0
   39.3280   24.6940   41.8920 C   0  0  0  0  0  0  0  0  0  0  0  0
   39.8120   24.6250   43.3640 C   0  0  0  0  0  0  0  0  0  0  0  0
   40.2150   26.0610   43.6900 C   0  0  0  0  0  0  0  0  0  0  0  0
   39.0840   27.0040   43.5660 C   0  0  0  0  0  0  0  0  0  0  0  0
   38.0810   26.7650   42.5100 C   0  0  2  0  0  0  0  0  0  0  0  0
   37.4560   24.7520   42.8120 H   0  0  0  0  0  0  0  0  0  0  0  0
   40.0310   25.2980   41.3220 H   0  0  0  0  0  0  0  0  0  0  0  0
   39.1350   23.6770   41.5070 H   0  0  0  0  0  0  0  0  0  0  0  0
   38.9370   24.3050   43.9920 H   0  0  0  0  0  0  0  0  0  0  0  0
   40.6650   23.9580   43.4750 H   0  0  0  0  0  0  0  0  0  0  0  0
   41.0920   26.2710   43.0250 H   0  0  0  0  0  0  0  0  0  0  0  0
   40.6120   26.0200   44.7200 H   0  0  0  0  0  0  0  0  0  0  0  0
   38.6100   27.0470   44.5930 H   0  0  0  0  0  0  0  0  0  0  0  0
   39.5240   28.0210   43.4660 H   0  0  0  0  0  0  0  0  0  0  0  0
   38.3550   27.4260   41.6350 H   0  0  0  0  0  0  0  0  0  0  0  0
   36.4630   27.2790   43.1900 S   0  0  0  0  0  0  0  0  0  0  0  0
   35.4490   26.3960   42.8570 H   0  0  0  0  0  0  0  0  0  0  0  0
   35.4880   28.1130   35.8730 C   0  0  0  0  0  0  0  0  0  0  0  0
   36.0270   29.3530   36.1370 C   0  0  0  0  0  0  0  0  0  0  0  0
   36.6720   29.4730   37.3500 C   0  0  0  0  0  0  0  0  0  0  0  0
   36.7260   28.3830   38.1760 N   0  0  0  0  0  0  0  0  0  0  0  0
   36.1770   27.1910   37.8640 C   0  0  0  0  0  0  0  0  0  0  0  0
   35.5680   27.0720   36.7210 N   0  0  0  0  0  0  0  0  0  0  0  0
   34.9590   27.9460   34.9240 H   0  0  0  0  0  0  0  0  0  0  0  0
   35.9500   30.1760   35.4390 H   0  0  0  0  0  0  0  0  0  0  0  0
   37.2930   30.8030   37.6960 C   0  0  0  0  0  2  0  0  0  0  0  0
   38.4640   30.6150   38.5770 C   0  0  0  0  0  0  0  0  0  0  0  0
   38.4130   30.7550   39.8700 C   0  0  0  0  0  0  0  0  0  0  0  0
   39.5450   30.5670   40.7030 N   0  0  0  0  0  0  0  0  0  0  0  0
   40.1630   30.5670   41.9910 C   0  0  1  0  0  0  0  0  0  0  0  0
   40.0130   31.3340   42.9860 O   0  0  0  0  0  1  0  0  0  0  0  0
   40.9200   29.3550   41.5070 C   0  0  0  0  0  3  0  0  0  0  0  0
   40.2580   28.4600   41.3880 H   0  0  0  0  0  0  0  0  0  0  0  0
   40.8640   30.1640   40.2520 C   0  0  1  0  0  0  0  0  0  0  0  0
   40.6790   29.1240   38.7620 S   0  0  0  0  0  0  0  0  0  0  0  0
   39.6320   30.2700   37.7770 C   0  0  0  0  0  3  0  0  0  0  0  0
   40.2710   31.1540   37.5240 H   0  0  0  0  0  0  0  0  0  0  0  0
   37.1860   31.1160   40.6200 C   0  0  0  0  0  0  0  0  0  0  0  0
   36.3630   30.5320   41.3600 O   0  0  0  0  0  0  0  0  0  0  0  0
   36.6280   32.3710   40.6470 O   0  0  0  0  0  0  0  0  0  0  0  0
   35.6530   32.6280   40.5670 H   0  0  0  0  0  0  0  0  0  0  0  0
  1  6  1  0  0  0  0
  2  1  2  0  0  0  0
  2  3  1  0  0  0  0
  3  4  2  0  0  0  0
  4  5  1  0  0  0  0
  4  9  1  0  0  0  0
  5 10  1  0  0  0  0
  6  5  2  0  0  0  0
  7  2  1  0  0  0  0
  8  3  1  0  0  0  0
 10 15  1  0  0  0  0
 10 16  1  1  0  0  0
 11 10  1  0  0  0  0
 11 12  1  0  0  0  0
 12 20  1  0  0  0  0
 12 13  1  0  0  0  0
 12 19  1  0  0  0  0
 13 22  1  0  0  0  0
 14 13  1  0  0  0  0
 14 23  1  0  0  0  0
 15 25  1  6  0  0  0
 15 26  1  0  0  0  0
 15 14  1  0  0  0  0
 17 11  1  0  0  0  0
 18 11  1  0  0  0  0
 21 13  1  0  0  0  0
 24 14  1  0  0  0  0
 27 26  1  0  0  0  0
 28 29  2  0  0  0  0
 28 33  1  0  0  0  0
 29 30  1  0  0  0  0
 30 36  1  0  0  0  0
 30 31  2  0  0  0  0
 32 31  1  0  0  0  0
 32  1  1  0  0  0  0
 33 32  2  0  0  0  0
 34 28  1  0  0  0  0
 35 29  1  0  0  0  0
 36 37  1  0  0  0  0
 37 38  2  0  0  0  0
 38 48  1  0  0  0  0
 38 39  1  0  0  0  0
 39 40  1  0  0  0  0
 40 41  1  1  0  0  0
 42 40  1  0  0  0  0
 43 42  1  0  0  0  0
 44 45  1  6  0  0  0
 44 39  1  0  0  0  0
 44 42  1  0  0  0  0
 44 40  1  0  0  0  0
 46 37  1  0  0  0  0
 46 45  1  0  0  0  0
 47 46  1  0  0  0  0
 48 50  1  0  0  0  0
 48 49  2  0  0  0  0
 51 50  1  0  0  0  0
M  END
>  <minimizedAffinity>
-6.71778297

$$$$

 OpenBabel03242514093D

 51 56  0  0  1  0  0  0  0  0999 V2000
   37.7170   28.3270   41.5400 C   0  0  0  0  0  0  0  0  0  0  0  0
   36.8910   28.1550   42.6240 C   0  0  0  0  0  0  0  0  0  0  0  0
   37.2840   27.6280   43.8350 C   0  0  0  0  0  0  0  0  0  0  0  0
   38.6430   27.2660   43.8800 C   0  0  0  0  0  0  0  0  0  0  0  0
   39.5020   27.4330   42.7810 C   0  0  0  0  0  0  0  0  0  0  0  0
   39.0290   27.9610   41.6280 N   0  0  0  0  0  0  0  0  0  0  0  0
   35.8580   28.4570   42.5150 H   0  0  0  0  0  0  0  0  0  0  0  0
   36.6430   27.4940   44.6790 H   0  0  0  0  0  0  0  0  0  0  0  0
   38.9510   26.8570   44.8320 H   0  0  0  0  0  0  0  0  0  0  0  0
   40.9050   27.0480   42.8890 C   0  0  1  0  0  0  0  0  0  0  0  0
   41.0850   25.5100   42.6860 C   0  0  0  0  0  0  0  0  0  0  0  0
   42.5120   25.2680   43.2420 C   0  0  0  0  0  0  0  0  0  0  0  0
   43.4320   25.8490   42.1720 C   0  0  0  0  0  0  0  0  0  0  0  0
   43.2030   27.2940   41.9570 C   0  0  0  0  0  0  0  0  0  0  0  0
   41.8270   27.8130   42.0780 C   0  0  2  0  0  0  0  0  0  0  0  0
   41.1650   27.1400   43.9860 H   0  0  0  0  0  0  0  0  0  0  0  0
   41.0730   25.2450   41.6310 H   0  0  0  0  0  0  0  0  0  0  0  0
   40.3370   25.0060   43.3240 H   0  0  0  0  0  0  0  0  0  0  0  0
   42.6030   25.8460   44.2010 H   0  0  0  0  0  0  0  0  0  0  0  0
   42.7150   24.2070   43.3800 H   0  0  0  0  0  0  0  0  0  0  0  0
   43.2730   25.1990   41.2730 H   0  0  0  0  0  0  0  0  0  0  0  0
   44.4560   25.6380   42.5280 H   0  0  0  0  0  0  0  0  0  0  0  0
   43.9140   27.8220   42.6630 H   0  0  0  0  0  0  0  0  0  0  0  0
   43.6310   27.5420   40.9610 H   0  0  0  0  0  0  0  0  0  0  0  0
   41.4050   27.8840   41.0310 H   0  0  0  0  0  0  0  0  0  0  0  0
   41.9540   29.4860   42.8070 S   0  0  0  0  0  0  0  0  0  0  0  0
   40.9760   29.7180   43.7610 H   0  0  0  0  0  0  0  0  0  0  0  0
   35.9050   28.8800   38.4240 C   0  0  0  0  0  0  0  0  0  0  0  0
   36.3460   30.1030   37.9700 C   0  0  0  0  0  0  0  0  0  0  0  0
   37.2820   30.7290   38.7670 C   0  0  0  0  0  0  0  0  0  0  0  0
   37.6900   30.1050   39.9150 N   0  0  0  0  0  0  0  0  0  0  0  0
   37.2210   28.9030   40.3100 C   0  0  0  0  0  0  0  0  0  0  0  0
   36.3390   28.3090   39.5630 N   0  0  0  0  0  0  0  0  0  0  0  0
   35.1590   28.3240   37.8390 H   0  0  0  0  0  0  0  0  0  0  0  0
   35.9830   30.5420   37.0510 H   0  0  0  0  0  0  0  0  0  0  0  0
   37.8120   32.0680   38.3220 C   0  0  0  0  0  2  0  0  0  0  0  0
   39.2660   32.1590   38.5710 C   0  0  0  0  0  0  0  0  0  0  0  0
   39.7940   33.0060   39.4070 C   0  0  0  0  0  0  0  0  0  0  0  0
   41.1910   33.0780   39.6390 N   0  0  0  0  0  0  0  0  0  0  0  0
   42.3220   33.6670   40.2830 C   0  0  1  0  0  0  0  0  0  0  0  0
   42.5790   34.8690   40.5800 O   0  0  0  0  0  1  0  0  0  0  0  0
   42.8700   32.2630   40.3600 C   0  0  0  0  0  3  0  0  0  0  0  0
   42.2980   31.6210   41.0770 H   0  0  0  0  0  0  0  0  0  0  0  0
   42.1910   32.2200   39.0300 C   0  0  1  0  0  0  0  0  0  0  0  0
   41.4340   30.5950   38.6880 S   0  0  0  0  0  0  0  0  0  0  0  0
   39.9690   31.1850   37.7470 C   0  0  0  0  0  3  0  0  0  0  0  0
   40.3540   31.6140   36.7870 H   0  0  0  0  0  0  0  0  0  0  0  0
   39.0140   33.9770   40.2110 C   0  0  0  0  0  0  0  0  0  0  0  0
   38.4600   35.0830   40.0200 O   0  0  0  0  0  0  0  0  0  0  0  0
   38.6990   33.8190   41.5390 O   0  0  0  0  0  0  0  0  0  0  0  0
   38.7430   34.5050   42.2810 H   0  0  0  0  0  0  0  0  0  0  0  0
  1  6  2  0  0  0  0
  1  2  1  0  0  0  0
  2  3  2  0  0  0  0
  3  4  1  0  0  0  0
  3  8  1  0  0  0  0
  4  9  1  0  0  0  0
  5 10  1  0  0  0  0
  5  4  2  0  0  0  0
  6  5  1  0  0  0  0
  7  2  1  0  0  0  0
 10 16  1  1  0  0  0
 11 10  1  0  0  0  0
 11 12  1  0  0  0  0
 11 18  1  0  0  0  0
 12 20  1  0  0  0  0
 12 19  1  0  0  0  0
 13 22  1  0  0  0  0
 13 12  1  0  0  0  0
 14 15  1  0  0  0  0
 14 13  1  0  0  0  0
 14 23  1  0  0  0  0
 15 25  1  6  0  0  0
 15 26  1  0  0  0  0
 15 10  1  0  0  0  0
 17 11  1  0  0  0  0
 21 13  1  0  0  0  0
 24 14  1  0  0  0  0
 26 27  1  0  0  0  0
 28 33  1  0  0  0  0
 29 28  2  0  0  0  0
 29 30  1  0  0  0  0
 30 31  2  0  0  0  0
 31 32  1  0  0  0  0
 32  1  1  0  0  0  0
 33 32  2  0  0  0  0
 34 28  1  0  0  0  0
 35 29  1  0  0  0  0
 36 37  1  0  0  0  0
 36 30  1  0  0  0  0
 37 38  2  0  0  0  0
 38 39  1  0  0  0  0
 38 48  1  0  0  0  0
 39 40  1  0  0  0  0
 40 42  1  0  0  0  0
 40 41  1  6  0  0  0
 42 43  1  0  0  0  0
 44 45  1  6  0  0  0
 44 39  1  0  0  0  0
 44 40  1  0  0  0  0
 44 42  1  0  0  0  0
 46 37  1  0  0  0  0
 46 45  1  0  0  0  0
 47 46  1  0  0  0  0
 48 50  1  0  0  0  0
 49 48  2  0  0  0  0
 50 51  1  0  0  0  0
M  END
>  <minimizedAffinity>
-6.6940794

$$$$

 OpenBabel03242514093D

 51 56  0  0  1  0  0  0  0  0999 V2000
   39.0460   33.1000   40.5800 C   0  0  0  0  0  0  0  0  0  0  0  0
   38.4290   34.2990   40.3200 C   0  0  0  0  0  0  0  0  0  0  0  0
   39.0870   35.4730   40.0240 C   0  0  0  0  0  0  0  0  0  0  0  0
   40.4880   35.3480   40.0070 C   0  0  0  0  0  0  0  0  0  0  0  0
   41.1360   34.1310   40.2710 C   0  0  0  0  0  0  0  0  0  0  0  0
   40.4090   33.0240   40.5530 N   0  0  0  0  0  0  0  0  0  0  0  0
   37.3480   34.3190   40.3510 H   0  0  0  0  0  0  0  0  0  0  0  0
   38.6080   36.4070   39.8220 H   0  0  0  0  0  0  0  0  0  0  0  0
   41.0030   36.2690   39.7700 H   0  0  0  0  0  0  0  0  0  0  0  0
   42.5930   34.0580   40.2300 C   0  0  1  0  0  0  0  0  0  0  0  0
   43.2010   34.1110   41.6680 C   0  0  0  0  0  0  0  0  0  0  0  0
   44.6900   34.4410   41.3850 C   0  0  0  0  0  0  0  0  0  0  0  0
   45.2620   33.1370   40.8350 C   0  0  0  0  0  0  0  0  0  0  0  0
   44.5870   32.7060   39.5930 C   0  0  0  0  0  0  0  0  0  0  0  0
   43.1430   32.9710   39.4490 C   0  0  2  0  0  0  0  0  0  0  0  0
   42.9390   35.0560   39.8260 H   0  0  0  0  0  0  0  0  0  0  0  0
   43.1470   33.1410   42.1580 H   0  0  0  0  0  0  0  0  0  0  0  0
   42.7180   34.9520   42.1970 H   0  0  0  0  0  0  0  0  0  0  0  0
   44.7140   35.2470   40.6030 H   0  0  0  0  0  0  0  0  0  0  0  0
   45.2160   34.7330   42.2930 H   0  0  0  0  0  0  0  0  0  0  0  0
   45.2030   32.4150   41.6900 H   0  0  0  0  0  0  0  0  0  0  0  0
   46.3370   33.3400   40.6770 H   0  0  0  0  0  0  0  0  0  0  0  0
   45.1840   33.1670   38.7480 H   0  0  0  0  0  0  0  0  0  0  0  0
   44.8020   31.6220   39.4700 H   0  0  0  0  0  0  0  0  0  0  0  0
   42.6000   32.0200   39.7330 H   0  0  0  0  0  0  0  0  0  0  0  0
   42.8460   33.3480   37.6840 S   0  0  0  0  0  0  0  0  0  0  0  0
   41.9610   34.4000   37.5140 H   0  0  0  0  0  0  0  0  0  0  0  0
   36.3630   30.6380   40.7600 C   0  0  0  0  0  0  0  0  0  0  0  0
   36.8900   29.5910   41.4820 C   0  0  0  0  0  0  0  0  0  0  0  0
   38.1940   29.7580   41.9030 C   0  0  0  0  0  0  0  0  0  0  0  0
   38.8440   30.9180   41.5800 N   0  0  0  0  0  0  0  0  0  0  0  0
   38.2740   31.9120   40.8680 C   0  0  0  0  0  0  0  0  0  0  0  0
   37.0460   31.7600   40.4690 N   0  0  0  0  0  0  0  0  0  0  0  0
   35.3280   30.5730   40.3930 H   0  0  0  0  0  0  0  0  0  0  0  0
   36.3210   28.6980   41.7040 H   0  0  0  0  0  0  0  0  0  0  0  0
   38.8280   28.6510   42.7060 C   0  0  0  0  0  2  0  0  0  0  0  0
   39.2670   27.5540   41.8200 C   0  0  0  0  0  0  0  0  0  0  0  0
   38.6150   26.4330   41.6960 C   0  0  0  0  0  0  0  0  0  0  0  0
   39.0470   25.3900   40.8370 N   0  0  0  0  0  0  0  0  0  0  0  0
   38.8930   24.0820   40.2860 C   0  0  1  0  0  0  0  0  0  0  0  0
   38.5080   22.9970   40.8100 O   0  0  0  0  0  1  0  0  0  0  0  0
   39.3700   24.6920   38.9900 C   0  0  0  0  0  3  0  0  0  0  0  0
   38.6190   25.3960   38.5500 H   0  0  0  0  0  0  0  0  0  0  0  0
   40.2110   25.4400   39.9730 C   0  0  1  0  0  0  0  0  0  0  0  0
   40.4920   27.1720   39.4710 S   0  0  0  0  0  0  0  0  0  0  0  0
   40.5040   27.9280   41.1460 C   0  0  0  0  0  3  0  0  0  0  0  0
   41.4210   27.5490   41.6650 H   0  0  0  0  0  0  0  0  0  0  0  0
   37.3610   26.1170   42.4210 C   0  0  0  0  0  0  0  0  0  0  0  0
   36.5670   26.7190   43.1770 O   0  0  0  0  0  0  0  0  0  0  0  0
   36.7290   24.8970   42.3920 O   0  0  0  0  0  0  0  0  0  0  0  0
   36.3250   24.3810   43.1620 H   0  0  0  0  0  0  0  0  0  0  0  0
  1 32  1  0  0  0  0
  2  7  1  0  0  0  0
  2  1  2  0  0  0  0
  3  2  1  0  0  0  0
  4  3  2  0  0  0  0
  4  5  1  0  0  0  0
  5  6  2  0  0  0  0
  6  1  1  0  0  0  0
  8  3  1  0  0  0  0
  9  4  1  0  0  0  0
 10 16  1  6  0  0  0
 10  5  1  0  0  0  0
 10 11  1  0  0  0  0
 11 17  1  0  0  0  0
 11 18  1  0  0  0  0
 12 11  1  0  0  0  0
 12 20  1  0  0  0  0
 13 12  1  0  0  0  0
 13 21  1  0  0  0  0
 14 13  1  0  0  0  0
 15 14  1  0  0  0  0
 15 25  1  1  0  0  0
 15 10  1  0  0  0  0
 19 12  1  0  0  0  0
 22 13  1  0  0  0  0
 23 14  1  0  0  0  0
 24 14  1  0  0  0  0
 26 15  1  0  0  0  0
 27 26  1  0  0  0  0
 28 29  1  0  0  0  0
 29 35  1  0  0  0  0
 29 30  2  0  0  0  0
 30 36  1  0  0  0  0
 31 30  1  0  0  0  0
 32 31  2  0  0  0  0
 33 28  2  0  0  0  0
 33 32  1  0  0  0  0
 34 28  1  0  0  0  0
 37 36  1  0  0  0  0
 38 37  2  0  0  0  0
 38 48  1  0  0  0  0
 39 38  1  0  0  0  0
 40 41  1  1  0  0  0
 40 39  1  0  0  0  0
 42 40  1  0  0  0  0
 43 42  1  0  0  0  0
 44 42  1  6  0  0  0
 44 40  1  0  0  0  0
 44 39  1  0  0  0  0
 45 44  1  0  0  0  0
 45 46  1  0  0  0  0
 46 47  1  0  0  0  0
 46 37  1  0  0  0  0
 48 49  2  0  0  0  0
 50 48  1  0  0  0  0
 50 51  1  0  0  0  0
M  END
>  <minimizedAffinity>
-6.67438459

$$$$
