
     RDKit          3D

 38 40  0  0  0  0  0  0  0  0999 V2000
   46.1293   35.2862   42.6913 C   0  0  0  0  0  0  0  0  0  0  0  0
   46.6892   34.1778   43.3497 C   0  0  0  0  0  0  0  0  0  0  0  0
   46.2045   33.8415   44.6094 C   0  0  0  0  0  0  0  0  0  0  0  0
   45.2144   34.5907   45.1546 N   0  0  0  0  0  0  0  0  0  0  0  0
   44.6967   35.6517   44.4948 C   0  0  0  0  0  0  0  0  0  0  0  0
   45.1565   35.9833   43.2823 N   0  0  0  0  0  0  0  0  0  0  0  0
   47.7065   33.4734   42.6971 O   0  0  0  0  0  0  0  0  0  0  0  0
   49.5491   35.3675   42.7824 O   0  0  0  0  0  0  0  0  0  0  0  0
   48.9719   34.2999   41.8988 P   0  0  1  0  0  0  0  0  0  0  0  0
   50.2263   33.2507   41.5126 O   0  0  0  0  0  0  0  0  0  0  0  0
   48.4084   35.0300   40.5073 O   0  0  0  0  0  0  0  0  0  0  0  0
   48.0692   34.3738   39.3678 C   0  0  0  0  0  0  0  0  0  0  0  0
   46.9449   33.7624   39.5020 O   0  0  0  0  0  0  0  0  0  0  0  0
   46.4383   35.6272   41.7096 H   0  0  0  0  0  0  0  0  0  0  0  0
   46.6769   32.9837   45.0556 H   0  0  0  0  0  0  0  0  0  0  0  0
   43.9163   36.1448   45.0621 H   0  0  0  0  0  0  0  0  0  0  0  0
   49.9006   32.4162   41.0848 H   0  0  0  0  0  0  0  0  0  0  0  0
   44.4261   29.8452   40.1416 C   0  0  0  0  0  0  0  0  0  0  0  0
   43.7452   30.1828   40.9753 H   0  0  0  0  0  0  0  0  0  0  0  0
   45.2189   30.9894   39.7107 C   0  0  0  0  0  0  0  0  0  0  0  0
   46.0961   30.8070   38.7389 C   0  0  0  0  0  0  0  0  0  0  0  0
   46.2495   29.4769   38.1279 C   0  0  0  0  0  0  0  0  0  0  0  0
   45.6028   28.4513   38.4489 O   0  0  0  0  0  0  0  0  0  0  0  0
   47.1006   29.1171   37.1248 O   0  0  0  0  0  0  0  0  0  0  0  0
   46.8895   31.8897   38.2702 N   0  0  0  0  0  0  0  0  0  0  0  0
   48.2359   32.3087   37.9416 C   0  0  0  0  0  0  0  0  0  0  0  0
   49.3408   31.7344   37.6499 O   0  0  0  0  0  0  0  0  0  0  0  0
   47.7627   33.6830   38.0933 C   0  0  1  0  0  0  0  0  0  0  0  0
   46.3557   33.1900   37.9120 C   0  0  2  0  0  0  0  0  0  0  0  0
   45.1750   33.6799   39.1625 S   0  0  0  0  0  0  0  0  0  0  0  0
   45.0494   32.3188   40.3527 C   0  0  2  0  0  0  0  0  0  0  0  0
   45.8951   32.4877   41.0797 H   0  0  0  0  0  0  0  0  0  0  0  0
   43.7163   29.4504   39.3752 H   0  0  0  0  0  0  0  0  0  0  0  0
   45.0240   29.0209   40.6298 H   0  0  0  0  0  0  0  0  0  0  0  0
   47.7443   28.3447   37.2369 H   0  0  0  0  0  0  0  0  0  0  0  0
   48.0729   34.2771   37.1925 H   0  0  0  0  0  0  0  0  0  0  0  0
   45.9473   33.2526   36.8861 H   0  0  0  0  0  0  0  0  0  0  0  0
   44.0733   32.4216   40.8506 H   0  0  0  0  0  0  0  0  0  0  0  0
  1  6  2  0
  1  2  1  0
  2  3  2  0
  3  4  1  0
  5  4  2  0
  6  5  1  0
  7  2  1  0
  9  7  1  1
  9  8  2  0
 10  9  1  0
 11  9  1  0
 12 13  2  0
 12 11  1  0
  1 14  1  0
  3 15  1  0
  5 16  1  0
 10 17  1  0
 18 19  1  0
 18 20  1  0
 20 21  2  0
 21 22  1  0
 22 23  2  0
 22 24  1  0
 21 25  1  0
 25 26  1  0
 26 27  2  0
 26 28  1  0
 28 29  1  0
 29 30  1  0
 30 31  1  0
 31 32  1  1
 31 20  1  0
 29 25  1  0
 18 33  1  0
 18 34  1  0
 24 35  1  0
 28 36  1  6
 29 37  1  6
 31 38  1  0
 12 28  1  0
M  ISO  6  14  14  15  14  16  14  17   3  19   8  32  15
M  END
>  <DihAtoms>  (1) 
12,11,27,25

>  <DihDeg>  (1) 
0.6178206600231226

$$$$
