
 OpenBabel03242523333D

 44 48  0  0  1  0  0  0  0  0999 V2000
   44.5620   36.1430   44.2550 C   0  0  0  0  0  0  0  0  0  0  0  0
   45.4340   35.9520   43.1780 C   0  0  0  0  0  0  0  0  0  0  0  0
   46.3350   34.8820   43.1710 C   0  0  0  0  0  0  0  0  0  0  0  0
   46.3300   34.0320   44.2540 N   0  0  0  0  0  0  0  0  0  0  0  0
   45.4770   34.2330   45.2900 C   0  0  0  0  0  0  0  0  0  0  0  0
   44.6210   35.2730   45.2700 N   0  0  0  0  0  0  0  0  0  0  0  0
   43.8740   36.9770   44.2400 H   0  0  0  0  0  0  0  0  0  0  0  0
   45.4400   36.6080   42.3390 H   0  0  0  0  0  0  0  0  0  0  0  0
   45.5640   33.2580   46.4020 C   0  0  0  0  0  0  0  0  0  0  0  0
   45.9820   33.8080   47.2420 H   0  0  0  0  0  0  0  0  0  0  0  0
   44.5440   32.9040   46.7150 H   0  0  0  0  0  0  0  0  0  0  0  0
   46.5050   31.8450   45.8250 S   0  0  0  0  0  0  0  0  0  0  0  0
   47.5170   31.1830   47.1290 C   0  0  0  0  0  0  0  0  0  0  0  0
   47.8070   32.0010   48.2000 C   0  0  0  0  0  0  0  0  0  0  0  0
   48.5850   31.4970   49.1990 C   0  0  0  0  0  0  0  0  0  0  0  0
   49.0890   30.1860   49.1650 C   0  0  0  0  0  0  0  0  0  0  0  0
   49.8510   29.7410   50.1800 N   0  0  0  0  0  0  0  0  0  0  0  0
   50.3500   28.4870   50.1770 C   0  0  0  0  0  0  0  0  0  0  0  0
   50.0720   27.6710   49.1260 C   0  0  0  0  0  0  0  0  0  0  0  0
   49.2900   28.1390   48.0940 C   0  0  0  0  0  0  0  0  0  0  0  0
   48.7550   29.4190   48.0530 C   0  0  0  0  0  0  0  0  0  0  0  0
   47.9770   29.8920   47.0300 C   0  0  0  0  0  0  0  0  0  0  0  0
   47.4790   33.0220   48.3410 H   0  0  0  0  0  0  0  0  0  0  0  0
   48.8520   32.0940   50.0800 H   0  0  0  0  0  0  0  0  0  0  0  0
   50.9520   28.2100   51.0310 H   0  0  0  0  0  0  0  0  0  0  0  0
   50.4620   26.6600   49.1040 H   0  0  0  0  0  0  0  0  0  0  0  0
   49.0830   27.4670   47.2670 H   0  0  0  0  0  0  0  0  0  0  0  0
   47.7600   29.2530   46.2100 H   0  0  0  0  0  0  0  0  0  0  0  0
   47.3160   34.6240   42.1350 C   0  0  0  0  0  2  0  0  0  0  0  0
   47.0310   33.7480   41.0280 C   0  0  0  0  0  0  0  0  0  0  0  0
   45.9810   33.0100   40.6930 C   0  0  0  0  0  0  0  0  0  0  0  0
   45.8940   32.1950   39.5050 N   0  0  0  0  0  0  0  0  0  0  0  0
   45.5410   30.9800   38.8560 C   0  0  0  0  0  0  0  0  0  0  0  0
   44.5710   30.2070   39.1170 O   0  0  0  0  0  0  0  0  0  0  0  0
   46.7410   31.2340   37.9760 C   0  0  0  0  0  3  0  0  0  0  0  0
   46.6230   30.8630   36.9530 H   0  0  0  0  0  0  0  0  0  0  0  0
   46.3460   32.6730   38.2060 C   0  0  2  0  0  3  0  0  0  0  0  0
   47.6990   33.8530   38.3760 S   0  0  0  0  0  0  0  0  0  0  0  0
   48.1980   33.6830   40.1110 C   0  0  0  0  0  3  0  0  0  0  0  0
   48.7550   32.7260   40.2470 H   0  0  0  0  0  0  0  0  0  0  0  0
   44.8470   33.0600   41.6090 C   0  0  0  0  0  2  0  0  0  0  0  0
   43.7120   33.4330   41.1530 O   0  0  0  0  0  0  0  0  0  0  0  0
   43.7510   33.1190   42.4480 O   0  0  0  0  0  0  0  0  0  0  0  0
   43.6890   32.5450   43.2910 H   0  0  0  0  0  0  0  0  0  0  0  0
  1  6  1  0  0  0  0
  2  1  2  0  0  0  0
  3  2  1  0  0  0  0
  3  4  2  0  0  0  0
  4  5  1  0  0  0  0
  5  9  1  0  0  0  0
  6  5  2  0  0  0  0
  7  1  1  0  0  0  0
  8  2  1  0  0  0  0
  9 11  1  0  0  0  0
  9 10  1  0  0  0  0
 12  9  1  0  0  0  0
 12 13  1  0  0  0  0
 13 14  1  0  0  0  0
 14 23  1  0  0  0  0
 14 15  2  0  0  0  0
 15 24  1  0  0  0  0
 16 15  1  0  0  0  0
 16 17  1  0  0  0  0
 18 17  2  0  0  0  0
 18 25  1  0  0  0  0
 19 18  1  0  0  0  0
 20 19  2  0  0  0  0
 21 20  1  0  0  0  0
 21 16  2  0  0  0  0
 22 13  2  0  0  0  0
 22 21  1  0  0  0  0
 26 19  1  0  0  0  0
 27 20  1  0  0  0  0
 28 22  1  0  0  0  0
 29  3  1  0  0  0  0
 30 29  1  0  0  0  0
 31 30  2  0  0  0  0
 31 41  1  0  0  0  0
 32 31  1  0  0  0  0
 33 34  2  0  0  0  0
 33 32  1  0  0  0  0
 35 33  1  0  0  0  0
 36 35  1  0  0  0  0
 37 35  1  6  0  0  0
 37 38  1  0  0  0  0
 37 32  1  0  0  0  0
 38 39  1  0  0  0  0
 39 40  1  0  0  0  0
 39 30  1  0  0  0  0
 42 41  1  0  0  0  0
 42 43  1  0  0  0  0
 43 44  1  0  0  0  0
M  END
>  <minimizedAffinity>
-6.09504843

>  <minimizedRMSD>
1.2816174

$$$$
