REMARK  Name = 
REMARK  7 active torsions:
REMARK  status: ('A' for Active; 'I' for Inactive)
REMARK    1  A    between atoms: C_1  and  C_7
REMARK    2  A    between atoms: C_5  and  C_13
REMARK    3  A    between atoms: C_13  and  C_14
REMARK    4  A    between atoms: C_14  and  C_42
REMARK    5  A    between atoms: C_32  and  C_34
REMARK    6  A    between atoms: C_35  and  C_36
REMARK    7  A    between atoms: C_36  and  O_38
REMARK                            x       y       z     vdW  Elec       q    Type
REMARK                         _______ _______ _______ _____ _____    ______ ____
ROOT
ATOM      1  C   UNL     1      47.324  34.068  42.514  0.00  0.00    +0.000 C 
ATOM      2  C   UNL     1      48.669  34.669  42.657  0.00  0.00    +0.000 C 
ATOM      3  C   UNL     1      48.939  35.725  41.639  0.00  0.00    +0.000 C 
ATOM      4  C   UNL     1      48.734  35.264  40.221  0.00  0.00    +0.000 C 
ATOM      5  C   UNL     1      47.597  34.308  40.043  0.00  0.00    +0.000 C 
ATOM      6  C   UNL     1      46.644  34.354  41.220  0.00  0.00    +0.000 C 
ATOM      7  H   UNL     1      47.490  32.945  42.580  0.00  0.00    +0.000 HD
ATOM      8  H   UNL     1      49.506  33.943  42.648  0.00  0.00    +0.000 HD
ATOM      9  H   UNL     1      48.713  35.164  43.655  0.00  0.00    +0.000 HD
ATOM     10  H   UNL     1      50.030  35.989  41.738  0.00  0.00    +0.000 HD
ATOM     11  H   UNL     1      48.396  36.652  41.887  0.00  0.00    +0.000 HD
ATOM     12  H   UNL     1      48.604  36.198  39.601  0.00  0.00    +0.000 HD
ATOM     13  H   UNL     1      49.690  34.823  39.838  0.00  0.00    +0.000 HD
ATOM     14  H   UNL     1      47.020  34.659  39.156  0.00  0.00    +0.000 HD
ATOM     15  H   UNL     1      46.067  35.251  41.107  0.00  0.00    +0.000 HD
ATOM     16  H   UNL     1      45.910  33.502  41.074  0.00  0.00    +0.000 HD
ENDROOT
BRANCH   1  17
ATOM     17  C   UNL     1      46.414  34.380  43.626  0.00  0.00    +0.000 A 
ATOM     18  C   UNL     1      45.605  35.490  43.396  0.00  0.00    +0.000 A 
ATOM     19  C   UNL     1      44.678  35.889  44.363  0.00  0.00    +0.000 A 
ATOM     20  N   UNL     1      44.634  35.125  45.516  0.00  0.00    +0.000 NA
ATOM     21  C   UNL     1      45.437  34.059  45.699  0.00  0.00    +0.000 A 
ATOM     22  N   UNL     1      46.312  33.700  44.757  0.00  0.00    +0.000 NA
ATOM     23  H   UNL     1      45.474  36.219  42.610  0.00  0.00    +0.000 HD
ATOM     24  H   UNL     1      43.974  36.689  44.394  0.00  0.00    +0.000 HD
ATOM     25  H   UNL     1      45.364  33.493  46.621  0.00  0.00    +0.000 HD
ENDBRANCH   1  17
BRANCH   5  26
ATOM     26  C   UNL     1      48.116  32.956  39.761  0.00  0.00    +0.000 C 
ATOM     27  H   UNL     1      48.666  32.573  40.645  0.00  0.00    +0.000 HD
ATOM     28  H   UNL     1      48.905  33.057  38.968  0.00  0.00    +0.000 HD
BRANCH  26  29
ATOM     29  C   UNL     1      47.150  31.931  39.340  0.00  0.00    +0.000 C 
ATOM     30  H   UNL     1      47.686  30.972  39.192  0.00  0.00    +0.000 HD
ATOM     31  H   UNL     1      46.410  31.755  40.146  0.00  0.00    +0.000 HD
BRANCH  29  37
ATOM     32  C   UNL     1      42.464  31.866  39.525  0.00  0.00    +0.000 C 
ATOM     33  C   UNL     1      43.044  32.864  38.894  0.00  0.00    +0.000 C 
ATOM     34  N   UNL     1      44.378  32.803  38.486  0.00  0.00    +0.000 N 
ATOM     35  C   UNL     1      45.602  33.452  38.279  0.00  0.00    +0.000 C 
ATOM     36  O   UNL     1      46.014  34.658  38.246  0.00  0.00    +0.000 OA
ATOM     37  C   UNL     1      46.379  32.192  38.087  0.00  0.00    +0.000 C 
ATOM     38  C   UNL     1      44.998  31.592  38.017  0.00  0.00    +0.000 C 
ATOM     39  S   UNL     1      44.686  30.274  39.196  0.00  0.00    +0.000 S 
ATOM     40  C   UNL     1      43.070  30.570  39.905  0.00  0.00    +0.000 C 
ATOM     41  H   UNL     1      42.390  29.775  39.478  0.00  0.00    +0.000 HD
BRANCH  32  42
ATOM     42  C   UNL     1      41.048  31.962  39.942  0.00  0.00    +0.000 C 
ATOM     43  H   UNL     1      40.465  32.714  39.367  0.00  0.00    +0.000 HD
ENDBRANCH  32  42
BRANCH  33  44
ATOM     44  C   UNL     1      42.270  34.065  38.614  0.00  0.00    +0.000 C 
ATOM     45  O   UNL     1      42.737  35.069  38.018  0.00  0.00    +0.000 OA
BRANCH  44  46
ATOM     46  O   UNL     1      41.303  35.021  38.505  0.00  0.00    +0.000 OA
ATOM     47  H   UNL     1      40.591  35.103  39.219  0.00  0.00    +0.000 HD
ENDBRANCH  44  46
ENDBRANCH  33  44
ENDBRANCH  29  37
ENDBRANCH  26  29
ENDBRANCH   5  26
TORSDOF 7
