
 OpenBabel03242519553D

 47 50  0  0  1  0  0  0  0  0999 V2000
   47.2020   33.9670   42.5750 C   0  0  2  0  0  0  0  0  0  0  0  0
   48.6050   34.4100   42.7290 C   0  0  0  0  0  0  0  0  0  0  0  0
   48.9660   35.5170   41.7960 C   0  0  0  0  0  0  0  0  0  0  0  0
   48.6840   35.2050   40.3510 C   0  0  0  0  0  0  0  0  0  0  0  0
   47.4490   34.3920   40.1260 C   0  0  2  0  0  0  0  0  0  0  0  0
   46.5300   34.4340   41.3300 C   0  0  0  0  0  0  0  0  0  0  0  0
   47.2480   32.8320   42.5410 H   0  0  0  0  0  0  0  0  0  0  0  0
   49.3600   33.6040   42.6340 H   0  0  0  0  0  0  0  0  0  0  0  0
   48.7220   34.8090   43.7630 H   0  0  0  0  0  0  0  0  0  0  0  0
   50.0800   35.6560   41.8850 H   0  0  0  0  0  0  0  0  0  0  0  0
   48.5300   36.4700   42.1370 H   0  0  0  0  0  0  0  0  0  0  0  0
   48.6420   36.1980   39.8160 H   0  0  0  0  0  0  0  0  0  0  0  0
   49.5800   34.7020   39.9040 H   0  0  0  0  0  0  0  0  0  0  0  0
   46.8950   34.8770   39.2890 H   0  0  0  0  0  0  0  0  0  0  0  0
   46.0500   35.3930   41.3100 H   0  0  0  0  0  0  0  0  0  0  0  0
   45.7070   33.6800   41.1340 H   0  0  0  0  0  0  0  0  0  0  0  0
   46.3530   34.2740   43.7350 C   0  0  0  0  0  0  0  0  0  0  0  0
   45.5060   35.3630   43.5400 C   0  0  0  0  0  0  0  0  0  0  0  0
   44.6300   35.7550   44.5560 C   0  0  0  0  0  0  0  0  0  0  0  0
   44.6720   35.0060   45.7190 N   0  0  0  0  0  0  0  0  0  0  0  0
   45.5080   33.9600   45.8670 C   0  0  0  0  0  0  0  0  0  0  0  0
   46.3330   33.6070   44.8780 N   0  0  0  0  0  0  0  0  0  0  0  0
   45.3130   36.0790   42.7550 H   0  0  0  0  0  0  0  0  0  0  0  0
   43.9110   36.5400   44.6200 H   0  0  0  0  0  0  0  0  0  0  0  0
   45.5030   33.4050   46.7980 H   0  0  0  0  0  0  0  0  0  0  0  0
   47.8150   33.0230   39.7150 C   0  0  0  0  0  0  0  0  0  0  0  0
   47.5720   32.3090   40.5290 H   0  0  0  0  0  0  0  0  0  0  0  0
   48.9350   32.9830   39.6390 H   0  0  0  0  0  0  0  0  0  0  0  0
   47.2370   32.5100   38.4650 C   0  0  0  0  0  0  0  0  0  0  0  0
   48.0210   32.5070   37.6820 H   0  0  0  0  0  0  0  0  0  0  0  0
   46.9230   31.4560   38.5980 H   0  0  0  0  0  0  0  0  0  0  0  0
   44.6370   30.4220   35.1660 C   0  0  0  0  0  0  0  0  0  0  0  0
   44.0140   31.0140   36.1610 C   0  0  0  0  0  0  0  0  0  0  0  0
   44.6550   31.9400   36.9870 N   0  0  0  0  0  0  0  0  0  0  0  0
   44.8300   32.4950   38.2610 C   0  0  0  0  0  0  0  0  0  0  0  0
   44.2240   32.4440   39.3820 O   0  0  0  0  0  0  0  0  0  0  0  0
   46.0660   33.2480   37.9000 C   0  0  2  0  0  3  0  0  0  0  0  0
   45.6470   32.8640   36.5040 C   0  0  1  0  0  3  0  0  0  0  0  0
   46.8840   31.9640   35.5640 S   0  0  0  0  0  0  0  0  0  0  0  0
   46.0480   30.6060   34.7530 C   0  0  0  0  0  3  0  0  0  0  0  0
   46.0150   30.8680   33.6550 H   0  0  0  0  0  0  0  0  0  0  0  0
   43.9290   29.4470   34.3090 C   0  0  0  0  0  2  0  0  0  0  0  0
   42.8230   29.5600   34.3280 H   0  0  0  0  0  0  0  0  0  0  0  0
   42.6150   30.6930   36.4080 C   0  0  0  0  0  0  0  0  0  0  0  0
   41.8640   31.3780   37.1480 O   0  0  0  0  0  0  0  0  0  0  0  0
   41.3700   30.1370   36.4350 O   0  0  0  0  0  0  0  0  0  0  0  0
   41.2620   29.1340   36.3400 H   0  0  0  0  0  0  0  0  0  0  0  0
  1  7  1  6  0  0  0
  1  2  1  0  0  0  0
  1 17  1  0  0  0  0
  2  9  1  0  0  0  0
  3 10  1  0  0  0  0
  3 11  1  0  0  0  0
  3  2  1  0  0  0  0
  4  3  1  0  0  0  0
  5 14  1  6  0  0  0
  5  4  1  0  0  0  0
  5  6  1  0  0  0  0
  6  1  1  0  0  0  0
  8  2  1  0  0  0  0
 12  4  1  0  0  0  0
 13  4  1  0  0  0  0
 15  6  1  0  0  0  0
 16  6  1  0  0  0  0
 17 22  1  0  0  0  0
 18 17  2  0  0  0  0
 18 19  1  0  0  0  0
 19 24  1  0  0  0  0
 19 20  2  0  0  0  0
 20 21  1  0  0  0  0
 21 25  1  0  0  0  0
 22 21  2  0  0  0  0
 23 18  1  0  0  0  0
 26  5  1  0  0  0  0
 26 27  1  0  0  0  0
 28 26  1  0  0  0  0
 29 31  1  0  0  0  0
 29 26  1  0  0  0  0
 30 29  1  0  0  0  0
 32 33  2  0  0  0  0
 33 44  1  0  0  0  0
 33 34  1  0  0  0  0
 34 35  1  0  0  0  0
 35 36  2  0  0  0  0
 37 35  1  0  0  0  0
 37 29  1  1  0  0  0
 38 39  1  6  0  0  0
 38 34  1  0  0  0  0
 38 37  1  0  0  0  0
 40 32  1  0  0  0  0
 40 39  1  0  0  0  0
 41 40  1  0  0  0  0
 42 43  1  0  0  0  0
 42 32  1  0  0  0  0
 44 46  1  0  0  0  0
 44 45  2  0  0  0  0
 47 46  1  0  0  0  0
M  END
>  <minimizedAffinity>
-5.84860229

>  <minimizedRMSD>
1.84068489

$$$$
