
 OpenBabel03242523323D

 44 48  0  0  1  0  0  0  0  0999 V2000
   44.5150   36.1800   44.3680 C   0  0  0  0  0  0  0  0  0  0  0  0
   45.3630   36.0020   43.2700 C   0  0  0  0  0  0  0  0  0  0  0  0
   46.2610   34.9310   43.2290 C   0  0  0  0  0  0  0  0  0  0  0  0
   46.2790   34.0670   44.3000 N   0  0  0  0  0  0  0  0  0  0  0  0
   45.4490   34.2560   45.3580 C   0  0  0  0  0  0  0  0  0  0  0  0
   44.5940   35.2960   45.3700 N   0  0  0  0  0  0  0  0  0  0  0  0
   43.8280   37.0150   44.3790 H   0  0  0  0  0  0  0  0  0  0  0  0
   45.3510   36.6690   42.4390 H   0  0  0  0  0  0  0  0  0  0  0  0
   45.5580   33.2660   46.4550 C   0  0  0  0  0  0  0  0  0  0  0  0
   45.9770   33.8080   47.2990 H   0  0  0  0  0  0  0  0  0  0  0  0
   44.5460   32.8950   46.7720 H   0  0  0  0  0  0  0  0  0  0  0  0
   46.5110   31.8730   45.8490 S   0  0  0  0  0  0  0  0  0  0  0  0
   47.5240   31.1900   47.1400 C   0  0  0  0  0  0  0  0  0  0  0  0
   47.8350   31.9970   48.2140 C   0  0  0  0  0  0  0  0  0  0  0  0
   48.6140   31.4760   49.2030 C   0  0  0  0  0  0  0  0  0  0  0  0
   49.1000   30.1590   49.1570 C   0  0  0  0  0  0  0  0  0  0  0  0
   49.8630   29.6970   50.1640 N   0  0  0  0  0  0  0  0  0  0  0  0
   50.3450   28.4370   50.1490 C   0  0  0  0  0  0  0  0  0  0  0  0
   50.0470   27.6300   49.0950 C   0  0  0  0  0  0  0  0  0  0  0  0
   49.2630   28.1150   48.0730 C   0  0  0  0  0  0  0  0  0  0  0  0
   48.7460   29.4030   48.0440 C   0  0  0  0  0  0  0  0  0  0  0  0
   47.9660   29.8930   47.0300 C   0  0  0  0  0  0  0  0  0  0  0  0
   47.5230   33.0220   48.3630 H   0  0  0  0  0  0  0  0  0  0  0  0
   48.8970   32.0650   50.0850 H   0  0  0  0  0  0  0  0  0  0  0  0
   50.9500   28.1460   50.9960 H   0  0  0  0  0  0  0  0  0  0  0  0
   50.4230   26.6140   49.0640 H   0  0  0  0  0  0  0  0  0  0  0  0
   49.0400   27.4520   47.2440 H   0  0  0  0  0  0  0  0  0  0  0  0
   47.7330   29.2620   46.2080 H   0  0  0  0  0  0  0  0  0  0  0  0
   47.2190   34.6850   42.1690 C   0  0  0  0  0  2  0  0  0  0  0  0
   46.9550   33.7330   41.1210 C   0  0  0  0  0  0  0  0  0  0  0  0
   45.9250   32.9470   40.8380 C   0  0  0  0  0  0  0  0  0  0  0  0
   45.8580   32.0560   39.7030 N   0  0  0  0  0  0  0  0  0  0  0  0
   45.5370   30.7940   39.1340 C   0  0  0  0  0  0  0  0  0  0  0  0
   44.5890   30.0130   39.4480 O   0  0  0  0  0  0  0  0  0  0  0  0
   46.7270   31.0250   38.2340 C   0  0  0  0  0  3  0  0  0  0  0  0
   46.6170   30.5870   37.2360 H   0  0  0  0  0  0  0  0  0  0  0  0
   46.2920   32.4650   38.3740 C   0  0  2  0  0  3  0  0  0  0  0  0
   47.6130   33.6900   38.4650 S   0  0  0  0  0  0  0  0  0  0  0  0
   48.1210   33.6420   40.2030 C   0  0  0  0  0  3  0  0  0  0  0  0
   48.7040   32.7130   40.3970 H   0  0  0  0  0  0  0  0  0  0  0  0
   44.7930   33.0230   41.7530 C   0  0  0  0  0  2  0  0  0  0  0  0
   43.6570   33.3860   41.2880 O   0  0  0  0  0  0  0  0  0  0  0  0
   43.6990   33.1070   42.5910 O   0  0  0  0  0  0  0  0  0  0  0  0
   43.6370   32.5560   43.4510 H   0  0  0  0  0  0  0  0  0  0  0  0
  1  7  1  0  0  0  0
  1  6  1  0  0  0  0
  2  1  2  0  0  0  0
  3  2  1  0  0  0  0
  3  4  2  0  0  0  0
  4  5  1  0  0  0  0
  5  6  2  0  0  0  0
  5  9  1  0  0  0  0
  8  2  1  0  0  0  0
  9 11  1  0  0  0  0
  9 10  1  0  0  0  0
 12  9  1  0  0  0  0
 12 13  1  0  0  0  0
 13 14  1  0  0  0  0
 14 23  1  0  0  0  0
 14 15  2  0  0  0  0
 15 24  1  0  0  0  0
 16 15  1  0  0  0  0
 16 17  1  0  0  0  0
 18 17  2  0  0  0  0
 18 25  1  0  0  0  0
 19 18  1  0  0  0  0
 20 19  2  0  0  0  0
 21 20  1  0  0  0  0
 21 16  2  0  0  0  0
 22 13  2  0  0  0  0
 22 21  1  0  0  0  0
 26 19  1  0  0  0  0
 27 20  1  0  0  0  0
 28 22  1  0  0  0  0
 29  3  1  0  0  0  0
 30 29  1  0  0  0  0
 31 30  2  0  0  0  0
 31 41  1  0  0  0  0
 32 31  1  0  0  0  0
 33 34  2  0  0  0  0
 33 32  1  0  0  0  0
 35 33  1  0  0  0  0
 36 35  1  0  0  0  0
 37 35  1  6  0  0  0
 37 38  1  0  0  0  0
 37 32  1  0  0  0  0
 38 39  1  0  0  0  0
 39 40  1  0  0  0  0
 39 30  1  0  0  0  0
 42 41  1  0  0  0  0
 42 43  1  0  0  0  0
 43 44  1  0  0  0  0
M  END
>  <minimizedAffinity>
-6.08507633

>  <minimizedRMSD>
0.52472049

$$$$
