
     RDKit          3D

 50 54  0  0  0  0  0  0  0  0999 V2000
   42.3241   35.5421   41.2881 S   0  0  0  0  0  0  0  0  0  0  0  0
   39.9640   34.8941   40.2582 C   0  0  0  0  0  0  0  0  0  0  0  0
   40.9844   34.3824   41.0850 C   0  0  0  0  0  0  0  0  0  0  0  0
   40.9288   33.0929   41.6119 C   0  0  0  0  0  0  0  0  0  0  0  0
   39.8551   32.2926   41.3188 C   0  0  0  0  0  0  0  0  0  0  0  0
   38.8322   32.7738   40.5021 C   0  0  0  0  0  0  0  0  0  0  0  0
   38.8723   34.0498   39.9740 C   0  0  0  0  0  0  0  0  0  0  0  0
   37.8688   31.7334   40.3801 O   0  0  0  0  0  0  0  0  0  0  0  0
   38.1409   30.8467   41.4123 C   0  0  0  0  0  0  0  0  0  0  0  0
   39.5217   30.9892   41.6825 O   0  0  0  0  0  0  0  0  0  0  0  0
   43.9082   34.7717   40.8683 C   0  0  0  0  0  0  0  0  0  0  0  0
   43.8536   33.8382   39.8808 C   0  0  0  0  0  0  0  0  0  0  0  0
   45.0841   33.2095   39.6022 C   0  0  0  0  0  0  0  0  0  0  0  0
   46.2124   33.5415   40.2734 N   0  0  0  0  0  0  0  0  0  0  0  0
   46.2063   34.4854   41.2384 C   0  0  0  0  0  0  0  0  0  0  0  0
   45.0479   35.0564   41.4939 N   0  0  0  0  0  0  0  0  0  0  0  0
   45.1645   32.1652   38.6300 N   0  0  0  0  0  0  0  0  0  0  0  0
   47.3070   34.8749   41.9397 O   0  0  0  0  0  0  0  0  0  0  0  0
   48.5048   35.1126   41.2406 C   0  0  0  0  0  0  0  0  0  0  0  0
   49.4092   34.0923   41.4440 F   0  0  0  0  0  0  0  0  0  0  0  0
   48.1696   35.2350   39.8885 F   0  0  0  0  0  0  0  0  0  0  0  0
   49.0712   36.2761   41.7341 F   0  0  0  0  0  0  0  0  0  0  0  0
   39.9499   35.8821   39.8248 H   0  0  0  0  0  0  0  0  0  0  0  0
   41.7452   32.8031   42.2241 H   0  0  0  0  0  0  0  0  0  0  0  0
   38.0741   34.4096   39.3441 H   0  0  0  0  0  0  0  0  0  0  0  0
   37.8396   29.8015   41.2391 H   0  0  0  0  0  0  0  0  0  0  0  0
   37.6043   31.2053   42.3325 H   0  0  0  0  0  0  0  0  0  0  0  0
   45.3261   31.2203   39.0896 H   0  0  0  0  0  0  0  0  0  0  0  0
   45.0407   32.6060   37.6790 H   0  0  0  0  0  0  0  0  0  0  0  0
   42.8873   33.3595   38.8775 C   0  0  0  0  0  0  0  0  0  0  0  0
   42.2325   34.2921   37.9799 C   0  0  0  0  0  0  0  0  0  0  0  0
   42.1698   35.5590   37.6223 C   0  0  0  0  0  0  0  0  0  0  0  0
   43.0694   36.4547   38.3472 C   0  0  0  0  0  0  0  0  0  0  0  0
   43.9405   36.7441   39.2000 O   0  0  0  0  0  0  0  0  0  0  0  0
   43.4559   37.7642   38.4096 O   0  0  0  0  0  0  0  0  0  0  0  0
   41.3070   36.0996   36.6359 N   0  0  0  0  0  0  0  0  0  0  0  0
   41.1461   36.8444   35.4433 C   0  0  0  0  0  0  0  0  0  0  0  0
   41.7882   37.8179   34.9645 O   0  0  0  0  0  0  0  0  0  0  0  0
   39.9738   35.9421   35.1573 C   0  0  1  0  0  0  0  0  0  0  0  0
   39.1161   36.4060   34.6783 H   0  0  0  0  0  0  0  0  0  0  0  0
   39.8413   35.9344   36.6605 C   0  0  1  0  0  0  0  0  0  0  0  0
   39.6326   34.2602   37.3886 S   0  0  0  0  0  0  0  0  0  0  0  0
   41.2810   33.4988   37.0991 C   0  0  2  0  0  0  0  0  0  0  0  0
   41.1830   32.4596   37.3521 H   0  0  0  0  0  0  0  0  0  0  0  0
   43.3798   32.5589   38.2073 H   0  0  0  0  0  0  0  0  0  0  0  0
   42.0815   32.7172   39.3208 H   0  0  0  0  0  0  0  0  0  0  0  0
   44.0154   38.2501   37.6754 H   0  0  0  0  0  0  0  0  0  0  0  0
   40.2849   34.9377   34.7971 H   0  0  0  0  0  0  0  0  0  0  0  0
   39.2767   36.7295   37.1331 H   0  0  0  0  0  0  0  0  0  0  0  0
   41.5090   33.7012   36.0258 H   0  0  0  0  0  0  0  0  0  0  0  0
  2  3  2  0
  3  1  1  0
  3  4  1  0
  5  4  2  0
  5 10  1  0
  6  5  1  0
  7  2  1  0
  7  6  2  0
  8  6  1  0
  8  9  1  0
  9 10  1  0
 11  1  1  0
 11 16  2  0
 12 11  1  0
 13 12  2  0
 13 14  1  0
 14 15  2  0
 15 16  1  0
 15 18  1  0
 17 13  1  0
 19 20  1  0
 19 22  1  0
 19 18  1  0
 21 19  1  0
  2 23  1  0
  4 24  1  0
  7 25  1  0
  9 26  1  0
  9 27  1  0
 17 28  1  0
 17 29  1  0
 30 31  1  0
 31 32  2  0
 32 33  1  0
 33 34  2  0
 33 35  1  0
 32 36  1  0
 36 37  1  0
 37 38  2  0
 37 39  1  0
 39 40  1  6
 39 41  1  0
 41 42  1  0
 42 43  1  0
 43 44  1  6
 43 31  1  0
 41 36  1  0
 30 45  1  0
 30 46  1  0
 35 47  1  0
 39 48  1  0
 41 49  1  6
 43 50  1  0
 12 30  1  0
M  ISO  7  23  14  24  14  25  14  26  13  27  13  40  15  44  15
M  END
>  <DihAtoms>  (1) 
10,11,29,30

>  <DihDeg>  (1) 
82.22953776268083

$$$$
