
 OpenBabel03242519413D

 36 40  0  0  1  0  0  0  0  0999 V2000
   48.0220   32.8860   40.8170 O   0  0  0  0  0  0  0  0  0  0  0  0
   48.6030   33.2620   43.3340 O   0  0  0  0  0  0  0  0  0  0  0  0
   47.6680   33.7170   42.2090 P   0  0  2  0  0  0  0  0  0  0  0  0
   46.0500   33.3890   42.6670 O   0  0  0  0  0  0  0  0  0  0  0  0
   44.4080   35.9110   44.7270 C   0  0  0  0  0  0  0  0  0  0  0  0
   44.9330   35.2430   43.5960 C   0  0  0  0  0  0  0  0  0  0  0  0
   45.5500   34.0060   43.7950 C   0  0  0  0  0  0  0  0  0  0  0  0
   45.6180   33.5070   45.0490 N   0  0  0  0  0  0  0  0  0  0  0  0
   45.1090   34.1630   46.1150 C   0  0  0  0  0  0  0  0  0  0  0  0
   44.5090   35.3510   45.9720 N   0  0  0  0  0  0  0  0  0  0  0  0
   43.9250   36.8660   44.6130 H   0  0  0  0  0  0  0  0  0  0  0  0
   44.8150   35.7430   42.6670 H   0  0  0  0  0  0  0  0  0  0  0  0
   45.2300   33.6530   47.0610 H   0  0  0  0  0  0  0  0  0  0  0  0
   47.8480   35.3550   42.0550 O   0  0  0  0  0  0  0  0  0  0  0  0
   49.0390   35.7160   41.4450 C   0  0  0  0  0  0  0  0  0  0  0  0
   49.4190   37.0200   41.7300 F   0  0  0  0  0  0  0  0  0  0  0  0
   50.0110   34.8130   41.7360 F   0  0  0  0  0  0  0  0  0  0  0  0
   48.7970   35.6830   40.0780 F   0  0  0  0  0  0  0  0  0  0  0  0
   47.2220   32.6660   39.7270 C   0  0  1  0  0  0  0  0  0  0  0  0
   46.5240   33.6760   39.2340 O   0  0  0  0  0  0  0  0  0  0  0  0
   43.8850   30.9240   36.0370 C   0  0  0  0  0  0  0  0  0  0  0  0
   44.9690   31.5880   35.7340 C   0  0  0  0  0  0  0  0  0  0  0  0
   45.8170   32.0880   36.7560 N   0  0  0  0  0  0  0  0  0  0  0  0
   47.1120   32.3580   37.2650 C   0  0  2  0  0  0  0  0  0  0  0  0
   48.1380   32.7430   36.6140 O   0  0  0  0  0  0  0  0  0  0  0  0
   46.5480   31.9860   38.6160 C   0  0  1  0  0  0  0  0  0  0  0  0
   45.3550   32.6560   37.9920 C   0  0  2  0  0  0  0  0  0  0  0  0
   43.7550   32.0600   38.5220 S   0  0  0  0  0  0  0  0  0  0  0  0
   43.5030   30.6640   37.4230 C   0  0  0  0  0  0  0  0  0  0  0  0
   44.1730   29.8400   37.8100 H   0  0  0  0  0  0  0  0  0  0  0  0
   43.0270   30.4230   34.9670 C   0  0  0  0  0  0  0  0  0  0  0  0
   42.1600   29.8290   35.3330 H   0  0  0  0  0  0  0  0  0  0  0  0
   45.3450   31.8400   34.3480 C   0  0  0  0  0  0  0  0  0  0  0  0
   46.0030   31.1070   33.6020 O   0  0  0  0  0  0  0  0  0  0  0  0
   45.0230   32.9670   33.6130 O   0  0  0  0  0  0  0  0  0  0  0  0
   45.6480   33.4750   33.0240 H   0  0  0  0  0  0  0  0  0  0  0  0
  1  3  1  0  0  0  0
  3  4  1  0  0  0  0
  3  2  2  1  0  0  0
  4  7  1  0  0  0  0
  5 10  1  0  0  0  0
  6  7  1  0  0  0  0
  6  5  2  0  0  0  0
  7  8  2  0  0  0  0
  8  9  1  0  0  0  0
  9 13  1  0  0  0  0
 10  9  2  0  0  0  0
 11  5  1  0  0  0  0
 12  6  1  0  0  0  0
 14  3  1  0  0  0  0
 15 16  1  0  0  0  0
 15 17  1  0  0  0  0
 15 14  1  0  0  0  0
 18 15  1  0  0  0  0
 19  1  1  6  0  0  0
 20 19  1  0  0  0  0
 21 29  1  0  0  0  0
 22 21  2  0  0  0  0
 22 23  1  0  0  0  0
 23 24  1  0  0  0  0
 23 27  1  0  0  0  0
 24 25  1  6  0  0  0
 24 27  1  0  0  0  0
 24 26  1  0  0  0  0
 26 20  1  6  0  0  0
 26 19  1  0  0  0  0
 27 28  1  1  0  0  0
 27 26  1  0  0  0  0
 29 30  1  0  0  0  0
 29 28  1  0  0  0  0
 31 32  1  0  0  0  0
 31 21  1  0  0  0  0
 33 22  1  0  0  0  0
 34 33  2  0  0  0  0
 35 33  1  0  0  0  0
 36 35  1  0  0  0  0
M  END
>  <minimizedAffinity>
-6.46710491

>  <minimizedRMSD>
1.70471466

$$$$
