
 OpenBabel03242519203D

 41 44  0  0  1  0  0  0  0  0999 V2000
   47.8970   33.7710   42.8170 C   0  0  0  0  0  0  0  0  0  0  0  0
   48.6130   35.0010   42.7920 C   0  0  0  0  0  0  0  0  0  0  0  0
   49.9690   34.9960   42.4660 C   0  0  0  0  0  0  0  0  0  0  0  0
   50.5200   33.7640   42.1890 N   0  0  0  0  0  0  0  0  0  0  0  0
   49.8320   32.6170   42.2180 C   0  0  0  0  0  0  0  0  0  0  0  0
   48.5210   32.6250   42.5320 N   0  0  0  0  0  0  0  0  0  0  0  0
   48.2600   35.9810   42.9900 H   0  0  0  0  0  0  0  0  0  0  0  0
   50.5890   35.8600   42.4200 H   0  0  0  0  0  0  0  0  0  0  0  0
   46.4700   33.8650   43.1830 C   0  0  0  0  0  0  0  0  0  0  0  0
   45.7400   34.8830   42.4000 C   0  0  0  0  0  0  0  0  0  0  0  0
   45.3280   36.0800   43.2080 C   0  0  0  0  0  0  0  0  0  0  0  0
   44.4900   35.6850   44.4110 C   0  0  0  0  0  0  0  0  0  0  0  0
   45.0150   34.4780   45.1310 C   0  0  0  0  0  0  0  0  0  0  0  0
   46.4040   34.1070   44.6850 C   0  0  0  0  0  0  0  0  0  0  0  0
   46.0660   32.8140   43.0730 H   0  0  0  0  0  0  0  0  0  0  0  0
   44.7700   34.4000   42.0760 H   0  0  0  0  0  0  0  0  0  0  0  0
   46.2140   35.2050   41.4730 H   0  0  0  0  0  0  0  0  0  0  0  0
   44.7090   36.7320   42.5610 H   0  0  0  0  0  0  0  0  0  0  0  0
   46.1360   36.7040   43.5900 H   0  0  0  0  0  0  0  0  0  0  0  0
   43.4150   35.5530   44.1380 H   0  0  0  0  0  0  0  0  0  0  0  0
   44.4920   36.5370   45.1210 H   0  0  0  0  0  0  0  0  0  0  0  0
   44.3190   33.6250   44.8750 H   0  0  0  0  0  0  0  0  0  0  0  0
   45.0130   34.5870   46.2140 H   0  0  0  0  0  0  0  0  0  0  0  0
   47.0770   34.9280   44.9520 H   0  0  0  0  0  0  0  0  0  0  0  0
   46.6950   33.1730   45.2120 H   0  0  0  0  0  0  0  0  0  0  0  0
   50.4990   31.3140   41.9040 C   0  0  0  0  0  2  0  0  0  0  0  0
   50.8800   31.1880   40.5010 C   0  0  0  0  0  0  0  0  0  0  0  0
   50.0600   30.9470   39.4930 C   0  0  0  0  0  0  0  0  0  0  0  0
   50.6280   30.8480   38.1950 N   0  0  0  0  0  0  0  0  0  0  0  0
   50.5260   31.1300   36.7820 C   0  0  0  0  0  0  0  0  0  0  0  0
   49.6080   31.5850   36.0150 O   0  0  0  0  0  0  0  0  0  0  0  0
   51.9070   30.6940   36.5020 C   0  0  0  0  0  3  0  0  0  0  0  0
   52.0200   29.9140   35.7190 H   0  0  0  0  0  0  0  0  0  0  0  0
   51.9180   30.2000   37.9060 C   0  0  1  0  0  3  0  0  0  0  0  0
   53.1090   31.1440   38.8940 S   0  0  0  0  0  0  0  0  0  0  0  0
   52.3470   31.3990   40.4940 C   0  0  0  0  0  3  0  0  0  0  0  0
   52.5440   32.4490   40.8050 H   0  0  0  0  0  0  0  0  0  0  0  0
   48.6130   30.7680   39.6440 C   0  0  0  0  0  0  0  0  0  0  0  0
   47.8670   29.8070   39.8710 O   0  0  0  0  0  0  0  0  0  0  0  0
   47.7370   31.8150   39.5360 O   0  0  0  0  0  0  0  0  0  0  0  0
   46.9950   31.9640   40.1950 H   0  0  0  0  0  0  0  0  0  0  0  0
  1  9  1  0  0  0  0
  2  1  1  0  0  0  0
  2  7  1  0  0  0  0
  3  2  2  0  0  0  0
  4  5  2  0  0  0  0
  4  3  1  0  0  0  0
  5  6  1  0  0  0  0
  6  1  2  0  0  0  0
  8  3  1  0  0  0  0
  9 14  1  0  0  0  0
 10  9  1  0  0  0  0
 10 11  1  0  0  0  0
 11 19  1  0  0  0  0
 11 12  1  0  0  0  0
 12 21  1  0  0  0  0
 12 13  1  0  0  0  0
 13 23  1  0  0  0  0
 14 24  1  0  0  0  0
 14 13  1  0  0  0  0
 14 25  1  0  0  0  0
 15  9  1  0  0  0  0
 16 10  1  0  0  0  0
 17 10  1  0  0  0  0
 18 11  1  0  0  0  0
 20 12  1  0  0  0  0
 22 13  1  0  0  0  0
 26  5  1  0  0  0  0
 27 26  1  0  0  0  0
 28 38  1  0  0  0  0
 28 27  2  0  0  0  0
 29 28  1  0  0  0  0
 30 29  1  0  0  0  0
 31 30  2  0  0  0  0
 32 30  1  0  0  0  0
 33 32  1  0  0  0  0
 34 32  1  6  0  0  0
 34 29  1  0  0  0  0
 34 35  1  0  0  0  0
 35 36  1  0  0  0  0
 36 27  1  0  0  0  0
 36 37  1  0  0  0  0
 38 39  2  0  0  0  0
 40 38  1  0  0  0  0
 40 41  1  0  0  0  0
M  END
>  <minimizedAffinity>
-4.87835503

>  <minimizedRMSD>
4.34713745

$$$$
