
     RDKit          3D

 32 34  0  0  0  0  0  0  0  0999 V2000
   46.2202   34.8362   43.1906 C   0  0  0  0  0  0  0  0  0  0  0  0
   45.3267   35.9021   43.2813 C   0  0  0  0  0  0  0  0  0  0  0  0
   44.5561   36.0118   44.4525 C   0  0  0  0  0  0  0  0  0  0  0  0
   44.7414   35.0615   45.4184 N   0  0  0  0  0  0  0  0  0  0  0  0
   45.6133   34.0534   45.2866 C   0  0  0  0  0  0  0  0  0  0  0  0
   46.3542   33.9424   44.1677 N   0  0  0  0  0  0  0  0  0  0  0  0
   46.9562   34.8077   41.9687 C   0  0  0  0  0  0  0  0  0  0  0  0
   48.0589   35.3879   41.7282 O   0  0  0  0  0  0  0  0  0  0  0  0
   45.1859   36.6514   42.5107 H   0  0  0  0  0  0  0  0  0  0  0  0
   43.8459   36.8195   44.5780 H   0  0  0  0  0  0  0  0  0  0  0  0
   45.6609   33.3700   46.1278 H   0  0  0  0  0  0  0  0  0  0  0  0
   45.1801   28.6466   41.7505 C   0  0  0  0  0  0  0  0  0  0  0  0
   45.8643   28.0100   42.3462 H   0  0  0  0  0  0  0  0  0  0  0  0
   45.7159   30.0319   41.7168 C   0  0  0  0  0  0  0  0  0  0  0  0
   44.9978   30.8805   41.0299 C   0  0  0  0  0  0  0  0  0  0  0  0
   43.7568   30.4870   40.3470 C   0  0  0  0  0  0  0  0  0  0  0  0
   43.2160   29.3547   40.3077 O   0  0  0  0  0  0  0  0  0  0  0  0
   42.9736   31.3599   39.6150 O   0  0  0  0  0  0  0  0  0  0  0  0
   45.4118   32.2374   40.9185 N   0  0  0  0  0  0  0  0  0  0  0  0
   45.0111   33.6240   40.9068 C   0  0  0  0  0  0  0  0  0  0  0  0
   43.9177   34.2852   40.9555 O   0  0  0  0  0  0  0  0  0  0  0  0
   46.4187   34.0257   40.8116 C   0  0  2  0  0  0  0  0  0  0  0  0
   46.8272   32.5996   40.7265 C   0  0  1  0  0  0  0  0  0  0  0  0
   47.7001   31.9108   42.1234 S   0  0  0  0  0  0  0  0  0  0  0  0
   46.9711   30.3029   42.4494 C   0  0  2  0  0  0  0  0  0  0  0  0
   47.7123   29.5374   42.0743 H   0  0  0  0  0  0  0  0  0  0  0  0
   44.1955   28.5762   42.2610 H   0  0  0  0  0  0  0  0  0  0  0  0
   45.1820   28.1962   40.7244 H   0  0  0  0  0  0  0  0  0  0  0  0
   41.9660   31.3519   39.6572 H   0  0  0  0  0  0  0  0  0  0  0  0
   46.5521   34.6105   39.8640 H   0  0  0  0  0  0  0  0  0  0  0  0
   47.2053   32.3601   39.7193 H   0  0  0  0  0  0  0  0  0  0  0  0
   46.8891   30.0774   43.5327 H   0  0  0  0  0  0  0  0  0  0  0  0
  1  2  2  0
  1  6  1  0
  2  3  1  0
  3  4  2  0
  5  4  1  0
  6  5  2  0
  7  1  1  0
  8  7  2  0
  2  9  1  0
  3 10  1  0
  5 11  1  0
 12 13  1  0
 12 14  1  0
 14 15  2  0
 15 16  1  0
 16 17  2  0
 16 18  1  0
 15 19  1  0
 19 20  1  0
 20 21  2  0
 20 22  1  0
 22 23  1  0
 23 24  1  0
 24 25  1  0
 25 26  1  6
 25 14  1  0
 23 19  1  0
 12 27  1  0
 12 28  1  0
 18 29  1  0
 22 30  1  6
 23 31  1  6
 25 32  1  0
  7 22  1  0
M  ISO  5   9  14  10  14  11  14  13   8  26  15
M  END
>  <DihAtoms>  (1) 
0,6,21,19

>  <DihDeg>  (1) 
-59.99983712908399

$$$$
