REMARK  Name = 
REMARK  6 active torsions:
REMARK  status: ('A' for Active; 'I' for Inactive)
REMARK    1  A    between atoms: C_3  and  C_10
REMARK    2  A    between atoms: C_7  and  C_14
REMARK    3  A    between atoms: C_14  and  C_32
REMARK    4  A    between atoms: C_22  and  C_24
REMARK    5  A    between atoms: C_25  and  C_26
REMARK    6  A    between atoms: C_26  and  O_28
REMARK                            x       y       z     vdW  Elec       q    Type
REMARK                         _______ _______ _______ _____ _____    ______ ____
ROOT
ATOM      1 BR   UNL     1      44.576  33.112  41.221  0.00  0.00    +0.000 Br
ATOM      2  C   UNL     1      46.252  33.988  41.016  0.00  0.00    +0.000 A 
ATOM      3  C   UNL     1      46.807  34.761  42.020  0.00  0.00    +0.000 A 
ATOM      4  C   UNL     1      48.031  35.369  41.778  0.00  0.00    +0.000 A 
ATOM      5  C   UNL     1      48.702  35.225  40.579  0.00  0.00    +0.000 A 
ATOM      6  C   UNL     1      48.150  34.452  39.574  0.00  0.00    +0.000 A 
ATOM      7  C   UNL     1      46.926  33.852  39.833  0.00  0.00    +0.000 A 
ATOM      8  H   UNL     1      48.441  35.959  42.561  0.00  0.00    +0.000 HD
ATOM      9  H   UNL     1      49.658  35.747  40.495  0.00  0.00    +0.000 HD
ATOM     10  H   UNL     1      48.691  34.349  38.634  0.00  0.00    +0.000 HD
ENDROOT
BRANCH   3  13
ATOM     11  C   UNL     1      44.485  35.959  44.754  0.00  0.00    +0.000 A 
ATOM     12  C   UNL     1      45.177  35.887  43.535  0.00  0.00    +0.000 A 
ATOM     13  C   UNL     1      46.069  34.876  43.266  0.00  0.00    +0.000 A 
ATOM     14  N   UNL     1      46.218  33.959  44.279  0.00  0.00    +0.000 NA
ATOM     15  C   UNL     1      45.554  34.036  45.438  0.00  0.00    +0.000 A 
ATOM     16  N   UNL     1      44.700  35.017  45.678  0.00  0.00    +0.000 NA
ATOM     17  H   UNL     1      43.786  36.748  44.971  0.00  0.00    +0.000 HD
ATOM     18  H   UNL     1      45.000  36.641  42.805  0.00  0.00    +0.000 HD
ATOM     19  H   UNL     1      45.832  33.208  46.081  0.00  0.00    +0.000 HD
ENDBRANCH   3  13
BRANCH   7  20
ATOM     20  C   UNL     1      46.382  33.029  38.775  0.00  0.00    +0.000 C 
ATOM     21  O   UNL     1      46.532  33.388  37.549  0.00  0.00    +0.000 OA
BRANCH  20  27
ATOM     22  C   UNL     1      44.818  28.110  37.201  0.00  0.00    +0.000 C 
ATOM     23  C   UNL     1      45.748  28.407  38.062  0.00  0.00    +0.000 C 
ATOM     24  N   UNL     1      45.981  29.718  38.496  0.00  0.00    +0.000 N 
ATOM     25  C   UNL     1      46.295  30.656  39.534  0.00  0.00    +0.000 C 
ATOM     26  O   UNL     1      46.913  30.529  40.645  0.00  0.00    +0.000 OA
ATOM     27  C   UNL     1      45.624  31.747  38.780  0.00  0.00    +0.000 C 
ATOM     28  C   UNL     1      45.916  30.842  37.580  0.00  0.00    +0.000 C 
ATOM     29  S   UNL     1      44.422  30.752  36.546  0.00  0.00    +0.000 S 
ATOM     30  C   UNL     1      43.883  29.043  36.558  0.00  0.00    +0.000 C 
ATOM     31  H   UNL     1      43.815  28.725  35.476  0.00  0.00    +0.000 HD
BRANCH  22  32
ATOM     32  C   UNL     1      44.710  26.673  36.849  0.00  0.00    +0.000 C 
ATOM     33  H   UNL     1      45.728  26.214  36.736  0.00  0.00    +0.000 HD
ENDBRANCH  22  32
BRANCH  23  34
ATOM     34  C   UNL     1      46.559  27.310  38.572  0.00  0.00    +0.000 C 
ATOM     35  O   UNL     1      47.500  27.463  39.418  0.00  0.00    +0.000 OA
BRANCH  34  36
ATOM     36  O   UNL     1      47.194  26.149  38.917  0.00  0.00    +0.000 OA
ATOM     37  H   UNL     1      46.923  25.223  38.566  0.00  0.00    +0.000 HD
ENDBRANCH  34  36
ENDBRANCH  23  34
ENDBRANCH  20  27
ENDBRANCH   7  20
TORSDOF 6
