
 OpenBabel03242518313D

 35 38  0  0  1  0  0  0  0  0999 V2000
   47.7450   33.0310   40.2920 C   0  0  0  0  0  0  0  0  0  0  0  0
   48.4210   32.1580   39.4580 C   0  0  0  0  0  0  0  0  0  0  0  0
   47.8130   32.2100   38.2110 C   0  0  0  0  0  0  0  0  0  0  0  0
   46.7820   33.1280   38.3570 C   0  0  0  0  0  0  0  0  0  0  0  0
   46.7760   33.5830   39.5840 O   0  0  0  0  0  0  0  0  0  0  0  0
   49.2650   31.5730   39.7850 H   0  0  0  0  0  0  0  0  0  0  0  0
   48.1230   31.6280   37.3340 H   0  0  0  0  0  0  0  0  0  0  0  0
   47.9510   33.3550   41.6380 O   0  0  0  0  0  0  0  0  0  0  0  0
   47.6660   34.6290   42.1320 C   0  0  0  0  0  0  0  0  0  0  0  0
   48.3060   35.5700   41.6080 O   0  0  0  0  0  0  0  0  0  0  0  0
   46.6870   34.6900   43.1630 C   0  0  0  0  0  0  0  0  0  0  0  0
   45.7620   35.6980   42.9730 C   0  0  0  0  0  0  0  0  0  0  0  0
   44.7520   35.8390   43.9420 C   0  0  0  0  0  0  0  0  0  0  0  0
   44.7400   34.9940   44.9950 N   0  0  0  0  0  0  0  0  0  0  0  0
   45.6790   34.0220   45.1270 C   0  0  0  0  0  0  0  0  0  0  0  0
   46.6560   33.8690   44.2080 N   0  0  0  0  0  0  0  0  0  0  0  0
   45.7290   36.4030   42.1440 H   0  0  0  0  0  0  0  0  0  0  0  0
   43.9920   36.6070   43.8590 H   0  0  0  0  0  0  0  0  0  0  0  0
   45.6160   33.3710   45.9980 H   0  0  0  0  0  0  0  0  0  0  0  0
   45.8400   33.5070   37.2450 C   0  0  0  0  0  2  0  0  0  0  0  0
   44.8740   32.4130   37.1580 C   0  0  0  0  0  0  0  0  0  0  0  0
   44.8340   31.6540   36.0870 C   0  0  0  0  0  0  0  0  0  0  0  0
   43.9280   30.5950   35.9510 N   0  0  0  0  0  0  0  0  0  0  0  0
   43.6440   29.2770   35.5010 C   0  0  0  0  0  0  0  0  0  0  0  0
   44.0460   28.5410   34.5860 O   0  0  0  0  0  0  0  0  0  0  0  0
   42.6570   29.1580   36.5950 C   0  0  0  0  0  3  0  0  0  0  0  0
   41.7510   28.5940   36.3720 H   0  0  0  0  0  0  0  0  0  0  0  0
   42.5610   30.6740   36.4430 C   0  0  1  0  0  3  0  0  0  0  0  0
   42.3960   31.5590   37.9890 S   0  0  0  0  0  0  0  0  0  0  0  0
   44.0210   32.2840   38.3370 C   0  0  0  0  0  3  0  0  0  0  0  0
   44.4820   31.6380   39.1370 H   0  0  0  0  0  0  0  0  0  0  0  0
   45.7530   31.8990   34.9810 C   0  0  0  0  0  0  0  0  0  0  0  0
   45.4430   32.4300   33.8820 O   0  0  0  0  0  0  0  0  0  0  0  0
   46.8550   31.9850   34.1520 O   0  0  0  0  0  0  0  0  0  0  0  0
   47.8120   32.1220   34.4420 H   0  0  0  0  0  0  0  0  0  0  0  0
  1  8  1  0  0  0  0
  2  6  1  0  0  0  0
  2  1  2  0  0  0  0
  3  4  2  0  0  0  0
  3  2  1  0  0  0  0
  4  5  1  0  0  0  0
  5  1  1  0  0  0  0
  7  3  1  0  0  0  0
  8  9  1  0  0  0  0
  9 11  1  0  0  0  0
 10  9  2  0  0  0  0
 11 16  1  0  0  0  0
 12 11  2  0  0  0  0
 12 13  1  0  0  0  0
 13 14  2  0  0  0  0
 14 15  1  0  0  0  0
 15 19  1  0  0  0  0
 16 15  2  0  0  0  0
 17 12  1  0  0  0  0
 18 13  1  0  0  0  0
 20  4  1  0  0  0  0
 21 20  1  0  0  0  0
 21 30  1  0  0  0  0
 22 21  2  0  0  0  0
 23 22  1  0  0  0  0
 23 28  1  0  0  0  0
 24 23  1  0  0  0  0
 24 26  1  0  0  0  0
 25 24  2  0  0  0  0
 27 26  1  0  0  0  0
 28 26  1  1  0  0  0
 28 29  1  0  0  0  0
 29 30  1  0  0  0  0
 30 31  1  0  0  0  0
 32 22  1  0  0  0  0
 33 32  2  0  0  0  0
 34 35  1  0  0  0  0
 34 32  1  0  0  0  0
M  END
>  <minimizedAffinity>
-4.49902058

>  <minimizedRMSD>
1.29216218

$$$$
