
 OpenBabel03242512413D

 30 32  0  0  1  0  0  0  0  0999 V2000
   46.0560   30.6050   47.1830 C   0  0  0  0  0  2  0  0  0  0  0  0
   47.2410   30.3900   48.0180 C   0  0  0  0  0  0  0  0  0  0  0  0
   47.9420   29.3040   47.7540 C   0  0  0  0  0  0  0  0  0  0  0  0
   49.1020   29.0000   48.4940 N   0  0  0  0  0  0  0  0  0  0  0  0
   49.9700   28.0440   49.1420 C   0  0  0  0  0  0  0  0  0  0  0  0
   50.2600   26.8740   48.8270 O   0  0  0  0  0  0  0  0  0  0  0  0
   50.2070   29.1310   50.1580 C   0  0  0  0  0  3  0  0  0  0  0  0
   49.3420   29.2300   50.8480 H   0  0  0  0  0  0  0  0  0  0  0  0
   50.0460   30.0090   48.9350 C   0  0  2  0  0  3  0  0  0  0  0  0
   49.3000   31.6060   49.2000 S   0  0  0  0  0  0  0  0  0  0  0  0
   47.5280   31.3910   49.0590 C   0  0  0  0  0  3  0  0  0  0  0  0
   47.1150   32.3800   48.7280 H   0  0  0  0  0  0  0  0  0  0  0  0
   47.5680   28.3660   46.6980 C   0  0  0  0  0  0  0  0  0  0  0  0
   48.1960   28.2370   45.6090 O   0  0  0  0  0  0  0  0  0  0  0  0
   46.8790   27.3940   46.0160 O   0  0  0  0  0  0  0  0  0  0  0  0
   45.8820   27.5330   45.8520 H   0  0  0  0  0  0  0  0  0  0  0  0
   45.5940   33.8830   45.5510 C   0  0  0  0  0  0  0  0  0  0  0  0
   46.5100   33.8460   44.4900 C   0  0  0  0  0  0  0  0  0  0  0  0
   47.2900   32.6890   44.3320 C   0  0  0  0  0  0  0  0  0  0  0  0
   47.1020   31.6750   45.2310 N   0  0  0  0  0  0  0  0  0  0  0  0
   46.2170   31.7560   46.2270 C   0  0  0  0  0  0  0  0  0  0  0  0
   45.4790   32.8450   46.3790 N   0  0  0  0  0  0  0  0  0  0  0  0
   46.6920   34.6170   43.7610 H   0  0  0  0  0  0  0  0  0  0  0  0
   48.0210   32.5580   43.5510 H   0  0  0  0  0  0  0  0  0  0  0  0
   44.8600   35.0160   45.6700 O   0  0  0  0  0  0  0  0  0  0  0  0
   44.5020   35.8370   44.6060 C   0  0  0  0  0  0  0  0  0  0  0  0
   44.9880   37.0030   44.3790 O   0  0  0  0  0  0  0  0  0  0  0  0
   43.5380   35.4960   43.6100 N   0  0  0  0  0  0  0  0  0  0  0  0
   43.6450   35.3350   42.5710 H   0  0  0  0  0  0  0  0  0  0  0  0
   42.5360   35.2740   43.3430 H   0  0  0  0  0  0  0  0  0  0  0  0
  1  2  1  0  0  0  0
  2 11  1  0  0  0  0
  3  2  2  0  0  0  0
  3  4  1  0  0  0  0
  4  9  1  0  0  0  0
  4  5  1  0  0  0  0
  5  7  1  0  0  0  0
  6  5  2  0  0  0  0
  7  8  1  0  0  0  0
  9 10  1  1  0  0  0
  9  7  1  0  0  0  0
 11 10  1  0  0  0  0
 12 11  1  0  0  0  0
 13  3  1  0  0  0  0
 14 13  2  0  0  0  0
 15 13  1  0  0  0  0
 16 15  1  0  0  0  0
 17 25  1  0  0  0  0
 17 22  1  0  0  0  0
 18 17  2  0  0  0  0
 19 18  1  0  0  0  0
 19 20  2  0  0  0  0
 20 21  1  0  0  0  0
 21 22  2  0  0  0  0
 21  1  1  0  0  0  0
 23 18  1  0  0  0  0
 24 19  1  0  0  0  0
 26 25  1  0  0  0  0
 27 26  2  0  0  0  0
 28 26  1  0  0  0  0
 29 28  1  0  0  0  0
 30 28  1  0  0  0  0
M  END
>  <minimizedAffinity>
-4.93087339

>  <minimizedRMSD>
0.90245378

$$$$
