
 OpenBabel03252503353D

 29 31  0  0  1  0  0  0  0  0999 V2000
   47.4170   30.8600   37.5230 C   0  0  0  0  0  0  0  0  0  0  0  0
   48.4830   31.3130   38.1610 C   0  0  0  0  0  0  0  0  0  0  0  0
   48.4010   32.4740   38.9720 N   0  0  0  0  0  0  0  0  0  0  0  0
   48.7940   33.1730   40.1330 C   0  0  0  0  0  0  0  0  0  0  0  0
   49.6310   32.9930   41.0780 O   0  0  0  0  0  0  0  0  0  0  0  0
   47.8480   34.2980   39.9090 C   0  0  1  0  0  3  0  0  0  0  0  0
   47.5660   33.6120   38.6220 C   0  0  2  0  0  3  0  0  0  0  0  0
   45.8870   32.9620   38.4330 S   0  0  0  0  0  0  0  0  0  0  0  0
   46.0460   31.4200   37.5350 C   0  0  0  0  0  3  0  0  0  0  0  0
   45.3280   30.6370   37.8900 H   0  0  0  0  0  0  0  0  0  0  0  0
   46.8000   34.3160   40.9280 C   0  0  0  0  0  0  0  0  0  0  0  0
   45.5950   33.9600   40.8790 O   0  0  0  0  0  0  0  0  0  0  0  0
   47.2140   34.8270   42.1990 N   0  0  0  0  0  0  0  0  0  0  0  0
   48.1820   35.1590   42.4290 H   0  0  0  0  0  0  0  0  0  0  0  0
   44.5360   36.0210   44.4780 C   0  0  0  0  0  0  0  0  0  0  0  0
   45.4000   35.9750   43.3740 C   0  0  0  0  0  0  0  0  0  0  0  0
   46.3120   34.9290   43.2940 C   0  0  0  0  0  0  0  0  0  0  0  0
   46.3400   34.0000   44.2650 N   0  0  0  0  0  0  0  0  0  0  0  0
   45.4890   34.0630   45.3350 C   0  0  0  0  0  0  0  0  0  0  0  0
   44.6030   35.0730   45.4210 N   0  0  0  0  0  0  0  0  0  0  0  0
   43.8620   36.8710   44.4530 H   0  0  0  0  0  0  0  0  0  0  0  0
   45.4140   36.6990   42.5680 H   0  0  0  0  0  0  0  0  0  0  0  0
   45.5220   33.2960   46.1240 H   0  0  0  0  0  0  0  0  0  0  0  0
   47.6440   29.6410   36.7070 C   0  0  0  0  0  2  0  0  0  0  0  0
   48.4300   29.9320   35.9500 H   0  0  0  0  0  0  0  0  0  0  0  0
   49.7820   30.6480   38.0600 C   0  0  0  0  0  0  0  0  0  0  0  0
   50.6840   31.0140   37.2670 O   0  0  0  0  0  0  0  0  0  0  0  0
   50.3470   29.5640   38.7080 O   0  0  0  0  0  0  0  0  0  0  0  0
   51.1390   29.7300   39.3080 H   0  0  0  0  0  0  0  0  0  0  0  0
  1  9  1  0  0  0  0
  1  2  2  0  0  0  0
  2  3  1  0  0  0  0
  3  4  1  0  0  0  0
  4  5  2  0  0  0  0
  6  4  1  0  0  0  0
  6 11  1  1  0  0  0
  7  8  1  1  0  0  0
  7  3  1  0  0  0  0
  7  6  1  0  0  0  0
  9 10  1  0  0  0  0
  9  8  1  0  0  0  0
 11 13  1  0  0  0  0
 12 11  2  0  0  0  0
 13 14  1  0  0  0  0
 13 17  1  0  0  0  0
 15 20  1  0  0  0  0
 16 15  2  0  0  0  0
 17 16  1  0  0  0  0
 17 18  2  0  0  0  0
 18 19  1  0  0  0  0
 19 20  2  0  0  0  0
 19 23  1  0  0  0  0
 21 15  1  0  0  0  0
 22 16  1  0  0  0  0
 24  1  1  0  0  0  0
 25 24  1  0  0  0  0
 26  2  1  0  0  0  0
 26 28  1  0  0  0  0
 27 26  2  0  0  0  0
 28 29  1  0  0  0  0
M  END
>  <minimizedAffinity>
-4.64110088

>  <minimizedRMSD>
0.767661572

$$$$
