
 OpenBabel03242520193D

 42 45  0  0  1  0  0  0  0  0999 V2000
   41.7290   35.3380   38.4140 C   0  0  0  0  0  0  0  0  0  0  0  0
   41.6590   35.9300   37.4860 H   0  0  0  0  0  0  0  0  0  0  0  0
   41.8640   36.0380   39.2610 H   0  0  0  0  0  0  0  0  0  0  0  0
   39.6360   34.8840   39.5920 C   0  0  0  0  0  0  0  0  0  0  0  0
   39.7940   35.8450   40.4010 O   0  0  0  0  0  0  0  0  0  0  0  0
   40.5170   34.5570   38.5160 N   0  0  0  0  0  0  0  0  0  0  0  0
   40.3280   33.8170   37.8400 H   0  0  0  0  0  0  0  0  0  0  0  0
   39.1740   30.1830   41.1990 C   0  0  0  0  0  0  0  0  0  0  0  0
   38.4500   30.5250   40.1710 C   0  0  0  0  0  0  0  0  0  0  0  0
   38.4130   31.8940   39.7850 N   0  0  0  0  0  0  0  0  0  0  0  0
   38.3320   32.9130   38.8020 C   0  0  0  0  0  0  0  0  0  0  0  0
   38.2140   32.9110   37.5280 O   0  0  0  0  0  0  0  0  0  0  0  0
   38.4350   34.0190   39.7670 C   0  0  1  0  0  0  0  0  0  0  0  0
   38.4880   32.9710   40.7880 C   0  0  2  0  0  0  0  0  0  0  0  0
   40.0720   32.6810   41.6130 S   0  0  0  0  0  0  0  0  0  0  0  0
   40.0270   30.9490   42.1200 C   0  0  0  0  0  0  0  0  0  0  0  0
   41.0410   30.5120   42.2260 H   0  0  0  0  0  0  0  0  0  0  0  0
   39.1200   28.7060   41.4960 C   0  0  0  0  0  0  0  0  0  0  0  0
   38.0910   28.3770   41.7470 H   0  0  0  0  0  0  0  0  0  0  0  0
   37.6680   29.5770   39.3850 C   0  0  0  0  0  0  0  0  0  0  0  0
   36.5520   29.0850   39.5850 O   0  0  0  0  0  0  0  0  0  0  0  0
   38.1320   29.0580   38.1880 O   0  0  0  0  0  0  0  0  0  0  0  0
   37.9380   28.1620   37.8080 H   0  0  0  0  0  0  0  0  0  0  0  0
   42.9670   34.4630   38.3350 C   0  0  0  0  0  0  0  0  0  0  0  0
   43.8270   35.0320   37.9200 H   0  0  0  0  0  0  0  0  0  0  0  0
   42.7360   33.6320   37.6600 H   0  0  0  0  0  0  0  0  0  0  0  0
   43.9380   34.3020   41.9850 C   0  0  0  0  0  0  0  0  0  0  0  0
   43.6050   34.8240   40.7120 C   0  0  0  0  0  0  0  0  0  0  0  0
   43.3270   33.9450   39.6790 C   0  0  0  0  0  0  0  0  0  0  0  0
   43.3930   32.6010   39.9660 N   0  0  0  0  0  0  0  0  0  0  0  0
   43.7150   32.1530   41.2010 C   0  0  0  0  0  0  0  0  0  0  0  0
   43.9850   32.9900   42.2000 N   0  0  0  0  0  0  0  0  0  0  0  0
   43.5830   35.8890   40.5950 H   0  0  0  0  0  0  0  0  0  0  0  0
   43.7540   31.0870   41.3780 H   0  0  0  0  0  0  0  0  0  0  0  0
   44.2460   35.2490   43.0870 C   0  0  0  0  0  0  0  0  0  0  0  0
   45.7460   35.1620   43.5360 C   0  0  0  0  0  0  0  0  0  0  0  0
   45.1150   36.3630   42.9740 C   0  0  0  0  0  0  0  0  0  0  0  0
   43.5230   35.1550   43.9210 H   0  0  0  0  0  0  0  0  0  0  0  0
   45.8780   35.0870   44.6260 H   0  0  0  0  0  0  0  0  0  0  0  0
   46.4220   34.5620   42.9080 H   0  0  0  0  0  0  0  0  0  0  0  0
   45.0040   37.2450   43.6250 H   0  0  0  0  0  0  0  0  0  0  0  0
   45.4830   36.6540   41.9460 H   0  0  0  0  0  0  0  0  0  0  0  0
  1  6  1  0  0  0  0
  1  3  1  0  0  0  0
  2  1  1  0  0  0  0
  4  5  2  0  0  0  0
  6  4  1  0  0  0  0
  7  6  1  0  0  0  0
  8 18  1  0  0  0  0
  8 16  1  0  0  0  0
  9  8  2  0  0  0  0
 10  9  1  0  0  0  0
 10 14  1  0  0  0  0
 11 13  1  0  0  0  0
 11 10  1  0  0  0  0
 12 11  2  0  0  0  0
 13  4  1  6  0  0  0
 13 14  1  0  0  0  0
 14 15  1  6  0  0  0
 15 16  1  0  0  0  0
 16 17  1  0  0  0  0
 18 19  1  0  0  0  0
 20 21  2  0  0  0  0
 20  9  1  0  0  0  0
 22 20  1  0  0  0  0
 23 22  1  0  0  0  0
 24  1  1  0  0  0  0
 24 29  1  0  0  0  0
 25 24  1  0  0  0  0
 26 24  1  0  0  0  0
 27 32  1  0  0  0  0
 27 35  1  0  0  0  0
 28 27  2  0  0  0  0
 29 30  2  0  0  0  0
 29 28  1  0  0  0  0
 30 31  1  0  0  0  0
 31 34  1  0  0  0  0
 31 32  2  0  0  0  0
 33 28  1  0  0  0  0
 35 36  1  0  0  0  0
 35 38  1  0  0  0  0
 36 39  1  0  0  0  0
 37 35  1  0  0  0  0
 37 36  1  0  0  0  0
 37 41  1  0  0  0  0
 40 36  1  0  0  0  0
 42 37  1  0  0  0  0
M  END
>  <minimizedAffinity>
-5.60674572

>  <minimizedRMSD>
1.91714525

$$$$
