
     RDKit          3D

 32 34  0  0  0  0  0  0  0  0999 V2000
   46.2202   34.8362   43.1906 C   0  0  0  0  0  0  0  0  0  0  0  0
   45.3267   35.9021   43.2813 C   0  0  0  0  0  0  0  0  0  0  0  0
   44.5561   36.0118   44.4525 C   0  0  0  0  0  0  0  0  0  0  0  0
   44.7414   35.0615   45.4184 N   0  0  0  0  0  0  0  0  0  0  0  0
   45.6133   34.0534   45.2866 C   0  0  0  0  0  0  0  0  0  0  0  0
   46.3542   33.9424   44.1677 N   0  0  0  0  0  0  0  0  0  0  0  0
   46.9562   34.8077   41.9687 C   0  0  0  0  0  0  0  0  0  0  0  0
   48.0589   35.3879   41.7282 O   0  0  0  0  0  0  0  0  0  0  0  0
   45.1859   36.6514   42.5107 H   0  0  0  0  0  0  0  0  0  0  0  0
   43.8459   36.8195   44.5780 H   0  0  0  0  0  0  0  0  0  0  0  0
   45.6609   33.3700   46.1278 H   0  0  0  0  0  0  0  0  0  0  0  0
   42.8993   29.8376   42.0051 C   0  0  0  0  0  0  0  0  0  0  0  0
   43.1081   29.1549   42.8527 H   0  0  0  0  0  0  0  0  0  0  0  0
   43.9506   30.8865   41.9593 C   0  0  0  0  0  0  0  0  0  0  0  0
   43.8196   31.7514   40.9886 C   0  0  0  0  0  0  0  0  0  0  0  0
   42.7144   31.6852   40.0215 C   0  0  0  0  0  0  0  0  0  0  0  0
   41.7793   30.8495   39.9649 O   0  0  0  0  0  0  0  0  0  0  0  0
   42.5460   32.5852   38.9855 O   0  0  0  0  0  0  0  0  0  0  0  0
   44.7689   32.8005   40.8365 N   0  0  0  0  0  0  0  0  0  0  0  0
   44.9887   34.1942   40.5319 C   0  0  0  0  0  0  0  0  0  0  0  0
   44.2841   35.1976   40.1687 O   0  0  0  0  0  0  0  0  0  0  0  0
   46.4187   34.0257   40.8116 C   0  0  2  0  0  0  0  0  0  0  0  0
   46.2114   32.5709   41.0320 C   0  0  1  0  0  0  0  0  0  0  0  0
   46.3858   31.9602   42.7006 S   0  0  0  0  0  0  0  0  0  0  0  0
   45.0067   30.8485   42.9932 C   0  0  2  0  0  0  0  0  0  0  0  0
   45.4303   29.8020   42.9555 H   0  0  0  0  0  0  0  0  0  0  0  0
   41.8862   30.2493   42.2030 H   0  0  0  0  0  0  0  0  0  0  0  0
   42.9454   29.1906   41.0913 H   0  0  0  0  0  0  0  0  0  0  0  0
   41.6433   32.9521   38.7257 H   0  0  0  0  0  0  0  0  0  0  0  0
   46.9897   34.2838   39.8815 H   0  0  0  0  0  0  0  0  0  0  0  0
   46.6724   31.9826   40.2219 H   0  0  0  0  0  0  0  0  0  0  0  0
   44.5987   30.9279   44.0218 H   0  0  0  0  0  0  0  0  0  0  0  0
  1  2  2  0
  1  6  1  0
  2  3  1  0
  3  4  2  0
  5  4  1  0
  6  5  2  0
  7  1  1  0
  8  7  2  0
  2  9  1  0
  3 10  1  0
  5 11  1  0
 12 13  1  0
 12 14  1  0
 14 15  2  0
 15 16  1  0
 16 17  2  0
 16 18  1  0
 15 19  1  0
 19 20  1  0
 20 21  2  0
 20 22  1  0
 22 23  1  0
 23 24  1  0
 24 25  1  0
 25 26  1  1
 25 14  1  0
 23 19  1  0
 12 27  1  0
 12 28  1  0
 18 29  1  0
 22 30  1  6
 23 31  1  6
 25 32  1  0
  7 22  1  0
M  ISO  5   9  14  10  14  11  14  13   8  26  15
M  END
>  <DihAtoms>  (1) 
0,6,21,19

>  <DihDeg>  (1) 
-59.99983712908399

$$$$
