REMARK  Name = 
REMARK  5 active torsions:
REMARK  status: ('A' for Active; 'I' for Inactive)
REMARK    1  A    between atoms: C_1  and  C_7
REMARK    2  A    between atoms: C_5  and  C_26
REMARK    3  A    between atoms: C_26  and  C_27
REMARK    4  A    between atoms: C_28  and  C_29
REMARK    5  A    between atoms: C_29  and  O_31
REMARK                            x       y       z     vdW  Elec       q    Type
REMARK                         _______ _______ _______ _____ _____    ______ ____
ROOT
ATOM      1  C   UNL     1      48.385  32.059  42.433  0.00  0.00    +0.000 A 
ATOM      2  C   UNL     1      49.174  32.778  41.492  0.00  0.00    +0.000 A 
ATOM      3  C   UNL     1      50.469  32.343  41.213  0.00  0.00    +0.000 A 
ATOM      4  N   UNL     1      50.891  31.221  41.893  0.00  0.00    +0.000 NA
ATOM      5  C   UNL     1      50.135  30.558  42.775  0.00  0.00    +0.000 A 
ATOM      6  N   UNL     1      48.883  30.979  43.042  0.00  0.00    +0.000 NA
ATOM      7  H   UNL     1      48.920  33.642  40.932  0.00  0.00    +0.000 HD
ATOM      8  H   UNL     1      51.136  32.811  40.527  0.00  0.00    +0.000 HD
ENDROOT
BRANCH   1   9
ATOM      9  C   UNL     1      47.031  32.593  42.678  0.00  0.00    +0.000 C 
ATOM     10  C   UNL     1      46.357  33.045  41.444  0.00  0.00    +0.000 C 
ATOM     11  C   UNL     1      46.195  34.536  41.360  0.00  0.00    +0.000 C 
ATOM     12  C   UNL     1      45.450  35.089  42.562  0.00  0.00    +0.000 C 
ATOM     13  C   UNL     1      45.890  34.486  43.863  0.00  0.00    +0.000 C 
ATOM     14  C   UNL     1      47.162  33.694  43.723  0.00  0.00    +0.000 C 
ATOM     15  H   UNL     1      46.484  31.774  43.234  0.00  0.00    +0.000 HD
ATOM     16  H   UNL     1      45.303  32.638  41.489  0.00  0.00    +0.000 HD
ATOM     17  H   UNL     1      46.764  32.662  40.508  0.00  0.00    +0.000 HD
ATOM     18  H   UNL     1      45.598  34.764  40.455  0.00  0.00    +0.000 HD
ATOM     19  H   UNL     1      47.114  35.116  41.276  0.00  0.00    +0.000 HD
ATOM     20  H   UNL     1      44.343  35.005  42.434  0.00  0.00    +0.000 HD
ATOM     21  H   UNL     1      45.640  36.181  42.606  0.00  0.00    +0.000 HD
ATOM     22  H   UNL     1      45.066  33.784  44.185  0.00  0.00    +0.000 HD
ATOM     23  H   UNL     1      46.021  35.221  44.656  0.00  0.00    +0.000 HD
ATOM     24  H   UNL     1      47.961  34.382  43.429  0.00  0.00    +0.000 HD
ATOM     25  H   UNL     1      47.386  33.229  44.707  0.00  0.00    +0.000 HD
ENDBRANCH   1   9
BRANCH   5  26
ATOM     26  C   UNL     1      50.661  29.344  43.476  0.00  0.00    +0.000 C 
BRANCH  26  27
ATOM     27  C   UNL     1      49.862  28.148  43.230  0.00  0.00    +0.000 C 
ATOM     28  C   UNL     1      49.244  27.425  44.148  0.00  0.00    +0.000 C 
ATOM     29  N   UNL     1      48.522  26.285  43.706  0.00  0.00    +0.000 N 
ATOM     30  C   UNL     1      47.352  25.446  43.828  0.00  0.00    +0.000 C 
ATOM     31  O   UNL     1      46.377  25.369  44.652  0.00  0.00    +0.000 OA
ATOM     32  C   UNL     1      47.674  24.665  42.618  0.00  0.00    +0.000 C 
ATOM     33  H   UNL     1      47.730  23.564  42.752  0.00  0.00    +0.000 HD
ATOM     34  C   UNL     1      48.979  25.381  42.639  0.00  0.00    +0.000 C 
ATOM     35  S   UNL     1      49.126  26.459  41.189  0.00  0.00    +0.000 S 
ATOM     36  C   UNL     1      49.910  27.966  41.761  0.00  0.00    +0.000 C 
ATOM     37  H   UNL     1      49.384  28.826  41.291  0.00  0.00    +0.000 HD
BRANCH  28  38
ATOM     38  C   UNL     1      49.272  27.731  45.581  0.00  0.00    +0.000 C 
ATOM     39  O   UNL     1      49.795  28.607  46.281  0.00  0.00    +0.000 OA
BRANCH  38  40
ATOM     40  O   UNL     1      48.613  26.959  46.500  0.00  0.00    +0.000 OA
ATOM     41  H   UNL     1      48.046  27.356  47.228  0.00  0.00    +0.000 HD
ENDBRANCH  38  40
ENDBRANCH  28  38
ENDBRANCH  26  27
ENDBRANCH   5  26
TORSDOF 5
