
 OpenBabel03242518463D

 52 56  0  0  1  0  0  0  0  0999 V2000
   47.4740   31.3370   45.9000 O   0  0  0  0  0  0  0  0  0  0  0  0
   47.4600   33.1160   44.3780 C   0  0  2  0  0  0  0  0  0  0  0  0
   47.3470   33.4470   42.9320 C   0  0  1  0  0  0  0  0  0  0  0  0
   47.2550   32.1960   42.0590 C   0  0  0  0  0  0  0  0  0  0  0  0
   48.3730   31.4410   42.4130 O   0  0  0  0  0  0  0  0  0  0  0  0
   48.2320   30.8740   43.6610 C   0  0  0  0  0  0  0  0  0  0  0  0
   47.2820   31.5960   44.5620 C   0  0  1  0  0  0  0  0  0  0  0  0
   48.4840   33.3310   44.7330 H   0  0  0  0  0  0  0  0  0  0  0  0
   48.2570   34.0080   42.5920 H   0  0  0  0  0  0  0  0  0  0  0  0
   46.3020   31.6590   42.2150 H   0  0  0  0  0  0  0  0  0  0  0  0
   47.3300   32.4630   40.9910 H   0  0  0  0  0  0  0  0  0  0  0  0
   47.8980   29.8060   43.5480 H   0  0  0  0  0  0  0  0  0  0  0  0
   49.2330   30.8170   44.1610 H   0  0  0  0  0  0  0  0  0  0  0  0
   46.2400   31.3340   44.2770 H   0  0  0  0  0  0  0  0  0  0  0  0
   45.0250   36.2690   42.7370 C   0  0  0  0  0  0  0  0  0  0  0  0
   43.9920   35.8100   41.8840 C   0  0  0  0  0  0  0  0  0  0  0  0
   44.1420   34.4830   41.3850 C   0  0  0  0  0  0  0  0  0  0  0  0
   45.2300   33.7690   41.7490 N   0  0  0  0  0  0  0  0  0  0  0  0
   46.1800   34.2630   42.5650 C   0  0  0  0  0  0  0  0  0  0  0  0
   46.0730   35.5200   43.0600 N   0  0  0  0  0  0  0  0  0  0  0  0
   43.1690   36.4370   41.6450 H   0  0  0  0  0  0  0  0  0  0  0  0
   43.3610   34.1220   40.7330 H   0  0  0  0  0  0  0  0  0  0  0  0
   44.8830   37.5340   43.2140 O   0  0  0  0  0  0  0  0  0  0  0  0
   44.4520   37.7370   44.1120 H   0  0  0  0  0  0  0  0  0  0  0  0
   46.5230   33.7640   45.1820 O   0  0  0  0  0  0  0  0  0  0  0  0
   45.6880   33.2440   45.2100 H   0  0  0  0  0  0  0  0  0  0  0  0
   46.5170   28.8130   45.9530 F   0  0  0  0  0  0  0  0  0  0  0  0
   46.2660   29.7460   46.8890 C   0  0  0  0  0  0  0  0  0  0  0  0
   46.7080   31.0490   46.9400 C   0  0  0  0  0  0  0  0  0  0  0  0
   46.2760   31.7810   48.0390 C   0  0  0  0  0  0  0  0  0  0  0  0
   45.4680   31.3250   49.0480 C   0  0  0  0  0  0  0  0  0  0  0  0
   45.0650   30.0260   48.9390 C   0  0  0  0  0  0  0  0  0  0  0  0
   45.4430   29.1910   47.8670 C   0  0  0  0  0  0  0  0  0  0  0  0
   46.6660   32.8100   48.0150 H   0  0  0  0  0  0  0  0  0  0  0  0
   45.2240   32.0120   49.8240 H   0  0  0  0  0  0  0  0  0  0  0  0
   44.4210   29.7420   49.7830 H   0  0  0  0  0  0  0  0  0  0  0  0
   44.8680   27.8350   48.0730 C   0  0  0  0  0  2  0  0  0  0  0  0
   44.4500   27.1410   46.8450 C   0  0  0  0  0  0  0  0  0  0  0  0
   45.0650   26.0120   46.5100 C   0  0  0  0  0  0  0  0  0  0  0  0
   44.7070   25.3210   45.3160 N   0  0  0  0  0  0  0  0  0  0  0  0
   44.7140   24.1590   44.5660 C   0  0  0  0  0  0  0  0  0  0  0  0
   45.2590   23.0450   44.5320 O   0  0  0  0  0  0  0  0  0  0  0  0
   43.7110   24.6550   43.6190 C   0  0  0  0  0  3  0  0  0  0  0  0
   42.6610   24.3590   43.8230 H   0  0  0  0  0  0  0  0  0  0  0  0
   44.0010   25.9660   44.2500 C   0  0  1  0  0  3  0  0  0  0  0  0
   42.5690   26.8290   44.9350 S   0  0  0  0  0  0  0  0  0  0  0  0
   43.3710   27.8540   46.1810 C   0  0  0  0  0  3  0  0  0  0  0  0
   42.5210   28.0950   46.9040 H   0  0  0  0  0  0  0  0  0  0  0  0
   46.1620   25.3690   47.2810 C   0  0  0  0  0  0  0  0  0  0  0  0
   46.5070   25.2760   48.4850 O   0  0  0  0  0  0  0  0  0  0  0  0
   47.1680   24.6350   46.7040 O   0  0  0  0  0  0  0  0  0  0  0  0
   47.4280   23.7240   47.0390 H   0  0  0  0  0  0  0  0  0  0  0  0
  1 29  1  0  0  0  0
  2  7  1  0  0  0  0
  2  8  1  1  0  0  0
  2 25  1  0  0  0  0
  3  9  1  6  0  0  0
  3  2  1  0  0  0  0
  4 10  1  0  0  0  0
  4  5  1  0  0  0  0
  4  3  1  0  0  0  0
  5  6  1  0  0  0  0
  6 13  1  0  0  0  0
  6  7  1  0  0  0  0
  7 14  1  6  0  0  0
  7  1  1  0  0  0  0
 11  4  1  0  0  0  0
 12  6  1  0  0  0  0
 15 20  1  0  0  0  0
 15 23  1  0  0  0  0
 16 15  2  0  0  0  0
 17 18  2  0  0  0  0
 17 16  1  0  0  0  0
 18 19  1  0  0  0  0
 19  3  1  0  0  0  0
 19 20  2  0  0  0  0
 21 16  1  0  0  0  0
 22 17  1  0  0  0  0
 23 24  1  0  0  0  0
 25 26  1  0  0  0  0
 27 28  1  0  0  0  0
 28 29  2  0  0  0  0
 28 33  1  0  0  0  0
 29 30  1  0  0  0  0
 30 31  2  0  0  0  0
 31 35  1  0  0  0  0
 32 31  1  0  0  0  0
 32 36  1  0  0  0  0
 33 37  1  0  0  0  0
 33 32  2  0  0  0  0
 34 30  1  0  0  0  0
 38 37  1  0  0  0  0
 39 38  2  0  0  0  0
 39 49  1  0  0  0  0
 40 39  1  0  0  0  0
 41 40  1  0  0  0  0
 42 41  2  0  0  0  0
 43 44  1  0  0  0  0
 43 41  1  0  0  0  0
 45 43  1  6  0  0  0
 45 46  1  0  0  0  0
 45 40  1  0  0  0  0
 46 47  1  0  0  0  0
 47 38  1  0  0  0  0
 47 48  1  0  0  0  0
 49 50  2  0  0  0  0
 51 52  1  0  0  0  0
 51 49  1  0  0  0  0
M  END
>  <minimizedAffinity>
-5.49190855

>  <minimizedRMSD>
1.55476236

$$$$
