
 OpenBabel03242514333D

 33 36  0  0  1  0  0  0  0  0999 V2000
   48.3550   33.6530   39.9160 C   0  0  2  0  0  3  0  0  0  0  0  0
   47.0850   33.8520   39.8640 O   0  0  0  0  0  0  0  0  0  0  0  0
   51.2930   31.1800   37.6920 C   0  0  0  0  0  0  0  0  0  0  0  0
   50.1680   31.3450   37.0180 C   0  0  0  0  0  0  0  0  0  0  0  0
   49.0040   31.8390   37.6670 N   0  0  0  0  0  0  0  0  0  0  0  0
   47.9290   32.8050   37.5870 C   0  0  0  0  0  0  0  0  0  0  0  0
   47.3750   33.5010   36.6680 O   0  0  0  0  0  0  0  0  0  0  0  0
   47.7620   32.6270   39.0270 C   0  0  1  0  0  0  0  0  0  0  0  0
   48.4940   31.3180   38.9210 C   0  0  2  0  0  3  0  0  0  0  0  0
   49.8700   31.0870   40.0390 S   0  0  0  0  0  0  0  0  0  0  0  0
   51.3800   31.5210   39.1360 C   0  0  0  0  0  3  0  0  0  0  0  0
   51.4760   32.6400   39.2450 H   0  0  0  0  0  0  0  0  0  0  0  0
   52.4500   30.6600   36.9760 C   0  0  0  0  0  2  0  0  0  0  0  0
   53.3130   30.5940   37.7010 H   0  0  0  0  0  0  0  0  0  0  0  0
   50.1130   31.0090   35.5860 C   0  0  0  0  0  0  0  0  0  0  0  0
   49.7880   29.8920   35.1140 O   0  0  0  0  0  0  0  0  0  0  0  0
   50.3960   31.8230   34.5310 O   0  0  0  0  0  0  0  0  0  0  0  0
   51.0740   31.5530   33.8290 H   0  0  0  0  0  0  0  0  0  0  0  0
   48.9600   34.5650   40.7190 O   0  0  0  0  0  0  0  0  0  0  0  0
   49.4270   35.6670   42.9900 O   0  0  0  0  0  0  0  0  0  0  0  0
   49.3340   34.3240   42.3280 P   0  0  2  0  0  0  0  0  0  0  0  0
   50.8490   33.6100   42.4510 O   0  0  0  0  0  0  0  0  0  0  0  0
   50.8340   32.6480   42.2050 H   0  0  0  0  0  0  0  0  0  0  0  0
   48.1400   33.3590   43.0820 O   0  0  0  0  0  0  0  0  0  0  0  0
   46.3570   34.9670   42.9720 C   0  0  0  0  0  0  0  0  0  0  0  0
   47.0160   33.9440   43.6760 C   0  0  0  0  0  0  0  0  0  0  0  0
   46.5180   33.5680   44.9180 C   0  0  0  0  0  0  0  0  0  0  0  0
   45.4190   34.1980   45.4050 N   0  0  0  0  0  0  0  0  0  0  0  0
   44.8090   35.1800   44.7030 C   0  0  0  0  0  0  0  0  0  0  0  0
   45.2820   35.5480   43.5060 N   0  0  0  0  0  0  0  0  0  0  0  0
   46.6680   35.3300   42.0000 H   0  0  0  0  0  0  0  0  0  0  0  0
   47.0690   32.7800   45.4010 H   0  0  0  0  0  0  0  0  0  0  0  0
   43.9490   35.5810   45.2250 H   0  0  0  0  0  0  0  0  0  0  0  0
  1 19  1  1  0  0  0
  2  1  1  0  0  0  0
  3 11  1  0  0  0  0
  4  5  1  0  0  0  0
  4  3  2  0  0  0  0
  5  9  1  0  0  0  0
  6  5  1  0  0  0  0
  7  6  2  0  0  0  0
  8  6  1  6  0  0  0
  8  2  1  0  0  0  0
  8  1  1  0  0  0  0
  9  8  1  0  0  0  0
  9 10  1  1  0  0  0
 11 12  1  0  0  0  0
 11 10  1  0  0  0  0
 13  3  1  0  0  0  0
 13 14  1  0  0  0  0
 15  4  1  0  0  0  0
 16 15  2  0  0  0  0
 17 15  1  0  0  0  0
 18 17  1  0  0  0  0
 19 21  1  0  0  0  0
 21 22  1  0  0  0  0
 21 20  2  1  0  0  0
 21 24  1  0  0  0  0
 23 22  1  0  0  0  0
 24 26  1  0  0  0  0
 25 30  2  0  0  0  0
 25 26  1  0  0  0  0
 26 27  2  0  0  0  0
 27 32  1  0  0  0  0
 27 28  1  0  0  0  0
 29 33  1  0  0  0  0
 29 28  2  0  0  0  0
 30 29  1  0  0  0  0
 31 25  1  0  0  0  0
M  END
>  <minimizedAffinity>
-4.64423943

>  <minimizedRMSD>
2.65270162

$$$$
