
 OpenBabel03252503093D

 34 38  0  0  1  0  0  0  0  0999 V2000
   46.5190   34.7430   41.9020 C   0  0  2  0  0  3  0  0  0  0  0  0
   47.7930   34.9320   41.9310 O   0  0  0  0  0  1  0  0  0  0  0  0
   45.0080   32.2030   37.4720 C   0  0  0  0  0  0  0  0  0  0  0  0
   44.2690   32.2950   38.5410 C   0  0  0  0  0  0  0  0  0  0  0  0
   44.6610   32.9780   39.7250 N   0  0  0  0  0  0  0  0  0  0  0  0
   44.4300   33.7750   40.8840 C   0  0  2  0  0  0  0  0  0  0  0  0
   43.4520   33.8210   41.6700 O   0  0  0  0  0  1  0  0  0  0  0  0
   45.7390   34.3790   40.6520 C   0  0  2  0  0  3  0  0  0  0  0  0
   46.0380   32.9750   40.1630 C   0  0  2  0  0  0  0  0  0  0  0  0
   47.2370   32.9990   38.8540 S   0  0  0  0  0  0  0  0  0  0  0  0
   46.3390   32.7820   37.3220 C   0  0  0  0  0  3  0  0  0  0  0  0
   46.9360   32.0880   36.6770 H   0  0  0  0  0  0  0  0  0  0  0  0
   44.3670   31.4410   36.3890 C   0  0  0  0  0  2  0  0  0  0  0  0
   44.8760   31.7050   35.4180 H   0  0  0  0  0  0  0  0  0  0  0  0
   42.9560   31.6590   38.5310 C   0  0  0  0  0  0  0  0  0  0  0  0
   42.2840   31.3650   39.5780 O   0  0  0  0  0  0  0  0  0  0  0  0
   41.7490   31.0670   38.2760 O   0  0  0  0  0  0  0  0  0  0  0  0
   41.4440   30.8480   37.3170 H   0  0  0  0  0  0  0  0  0  0  0  0
   45.2620   36.1360   43.4710 C   0  0  0  0  0  0  0  0  0  0  0  0
   45.8910   34.9170   43.1550 C   0  0  0  0  0  0  0  0  0  0  0  0
   45.8040   33.9470   44.1580 C   0  0  0  0  0  0  0  0  0  0  0  0
   45.1680   34.1670   45.3210 N   0  0  0  0  0  0  0  0  0  0  0  0
   44.5760   35.3680   45.5720 C   0  0  0  0  0  0  0  0  0  0  0  0
   44.6280   36.3470   44.6420 N   0  0  0  0  0  0  0  0  0  0  0  0
   45.3090   36.9180   42.7170 H   0  0  0  0  0  0  0  0  0  0  0  0
   44.0800   35.4900   46.5210 H   0  0  0  0  0  0  0  0  0  0  0  0
   46.4070   32.7140   43.9350 C   0  0  0  0  0  0  0  0  0  0  0  0
   47.6960   32.2370   43.9680 C   0  0  0  0  0  0  0  0  0  0  0  0
   48.0510   31.0040   43.7110 C   0  0  0  0  0  0  0  0  0  0  0  0
   47.0200   30.1450   43.3870 C   0  0  0  0  0  0  0  0  0  0  0  0
   45.5240   31.2470   43.4820 S   0  0  0  0  0  0  0  0  0  0  0  0
   48.5920   32.7740   44.2400 H   0  0  0  0  0  0  0  0  0  0  0  0
   48.9220   30.3900   43.6630 H   0  0  0  0  0  0  0  0  0  0  0  0
   46.7870   29.1270   43.1140 H   0  0  0  0  0  0  0  0  0  0  0  0
  1  2  1  6  0  0  0
  1 20  1  0  0  0  0
  3  4  2  0  0  0  0
  4  5  1  0  0  0  0
  5  9  1  0  0  0  0
  5  6  1  0  0  0  0
  6  7  1  1  0  0  0
  8  6  1  0  0  0  0
  8  1  1  1  0  0  0
  9 10  1  1  0  0  0
  9  8  1  0  0  0  0
  9  6  1  0  0  0  0
 11  3  1  0  0  0  0
 11 10  1  0  0  0  0
 12 11  1  0  0  0  0
 13  3  1  0  0  0  0
 14 13  1  0  0  0  0
 15  4  1  0  0  0  0
 15 16  2  0  0  0  0
 17 15  1  0  0  0  0
 18 17  1  0  0  0  0
 19 24  1  0  0  0  0
 20 19  2  0  0  0  0
 20 21  1  0  0  0  0
 21 22  2  0  0  0  0
 22 23  1  0  0  0  0
 23 26  1  0  0  0  0
 24 23  2  0  0  0  0
 25 19  1  0  0  0  0
 27 28  2  0  0  0  0
 27 21  1  0  0  0  0
 28 32  1  0  0  0  0
 29 28  1  0  0  0  0
 30 31  1  0  0  0  0
 30 29  2  0  0  0  0
 31 27  1  0  0  0  0
 33 29  1  0  0  0  0
 34 30  1  0  0  0  0
M  END
>  <minimizedAffinity>
-4.77150154

>  <minimizedRMSD>
1.79084182

$$$$
