
 OpenBabel03242513263D

 37 40  0  0  1  0  0  0  0  0999 V2000
   46.3900   33.7890   41.2220 C   0  0  0  0  0  0  0  0  0  0  0  0
   46.8260   34.6770   42.1640 C   0  0  0  0  0  0  0  0  0  0  0  0
   47.9580   35.4000   41.8710 C   0  0  0  0  0  0  0  0  0  0  0  0
   48.6330   35.2390   40.6720 C   0  0  0  0  0  0  0  0  0  0  0  0
   48.1830   34.3550   39.7530 C   0  0  0  0  0  0  0  0  0  0  0  0
   47.0330   33.5920   39.9990 C   0  0  0  0  0  0  0  0  0  0  0  0
   48.3270   36.1110   42.5980 H   0  0  0  0  0  0  0  0  0  0  0  0
   49.5280   35.8040   40.4270 H   0  0  0  0  0  0  0  0  0  0  0  0
   48.6980   34.2180   38.8130 H   0  0  0  0  0  0  0  0  0  0  0  0
   44.4760   35.9360   44.8370 C   0  0  0  0  0  0  0  0  0  0  0  0
   45.1840   35.8490   43.6270 C   0  0  0  0  0  0  0  0  0  0  0  0
   46.0800   34.8000   43.3910 C   0  0  0  0  0  0  0  0  0  0  0  0
   46.1970   33.9110   44.3940 N   0  0  0  0  0  0  0  0  0  0  0  0
   45.5140   33.9980   45.5530 C   0  0  0  0  0  0  0  0  0  0  0  0
   44.6600   34.9970   45.7810 N   0  0  0  0  0  0  0  0  0  0  0  0
   43.8060   36.7810   44.9290 H   0  0  0  0  0  0  0  0  0  0  0  0
   45.0580   36.5890   42.8470 H   0  0  0  0  0  0  0  0  0  0  0  0
   45.7070   33.2100   46.2740 H   0  0  0  0  0  0  0  0  0  0  0  0
   45.2540   33.0360   41.4700 O   0  0  0  0  0  0  0  0  0  0  0  0
   45.4260   32.0520   41.6610 H   0  0  0  0  0  0  0  0  0  0  0  0
   46.5130   32.6710   39.1110 O   0  0  0  0  0  0  0  0  0  0  0  0
   45.8550   33.2230   37.9570 C   0  0  0  0  0  2  0  0  0  0  0  0
   46.0220   32.3690   36.7800 C   0  0  0  0  0  0  0  0  0  0  0  0
   47.0940   32.2800   36.0510 C   0  0  0  0  0  0  0  0  0  0  0  0
   47.0980   31.4060   34.9340 N   0  0  0  0  0  0  0  0  0  0  0  0
   47.8460   30.4660   34.1610 C   0  0  0  0  0  0  0  0  0  0  0  0
   49.0310   29.9920   34.0950 O   0  0  0  0  0  0  0  0  0  0  0  0
   46.6650   30.1470   33.3270 C   0  0  0  0  0  3  0  0  0  0  0  0
   46.2640   29.1210   33.4560 H   0  0  0  0  0  0  0  0  0  0  0  0
   45.9360   31.2340   34.0460 C   0  0  1  0  0  3  0  0  0  0  0  0
   44.6090   30.6450   35.1540 S   0  0  0  0  0  0  0  0  0  0  0  0
   44.7230   31.6660   36.6480 C   0  0  0  0  0  3  0  0  0  0  0  0
   43.8610   32.3940   36.5620 H   0  0  0  0  0  0  0  0  0  0  0  0
   48.3050   33.0440   36.3240 C   0  0  0  0  0  0  0  0  0  0  0  0
   48.6230   34.2470   36.4840 O   0  0  0  0  0  0  0  0  0  0  0  0
   49.5500   32.4800   36.4850 O   0  0  0  0  0  0  0  0  0  0  0  0
   50.2120   32.6450   37.2330 H   0  0  0  0  0  0  0  0  0  0  0  0
  1 19  1  0  0  0  0
  1  2  1  0  0  0  0
  2 12  1  0  0  0  0
  3  2  2  0  0  0  0
  3  7  1  0  0  0  0
  4  3  1  0  0  0  0
  5  6  1  0  0  0  0
  5  4  2  0  0  0  0
  6  1  2  0  0  0  0
  8  4  1  0  0  0  0
  9  5  1  0  0  0  0
 10 16  1  0  0  0  0
 10 15  1  0  0  0  0
 11 10  2  0  0  0  0
 12 11  1  0  0  0  0
 12 13  2  0  0  0  0
 13 14  1  0  0  0  0
 14 15  2  0  0  0  0
 14 18  1  0  0  0  0
 17 11  1  0  0  0  0
 19 20  1  0  0  0  0
 21  6  1  0  0  0  0
 22 21  1  0  0  0  0
 23 22  1  0  0  0  0
 24 34  1  0  0  0  0
 24 23  2  0  0  0  0
 25 24  1  0  0  0  0
 26 25  1  0  0  0  0
 27 26  2  0  0  0  0
 28 29  1  0  0  0  0
 28 26  1  0  0  0  0
 30 28  1  6  0  0  0
 30 25  1  0  0  0  0
 30 31  1  0  0  0  0
 31 32  1  0  0  0  0
 32 23  1  0  0  0  0
 33 32  1  0  0  0  0
 34 35  2  0  0  0  0
 34 36  1  0  0  0  0
 36 37  1  0  0  0  0
M  END
>  <minimizedAffinity>
-6.00426865

>  <minimizedRMSD>
2.03857899

$$$$
