
 OpenBabel03252505533D

 40 43  0  0  1  0  0  0  0  0999 V2000
   46.9820   30.7400   47.7090 C   0  0  0  0  0  0  0  0  0  0  0  0
   47.6060   29.7650   46.9440 C   0  0  0  0  0  0  0  0  0  0  0  0
   48.9050   29.4610   47.1870 C   0  0  0  0  0  0  0  0  0  0  0  0
   49.5980   30.0710   48.1360 N   0  0  0  0  0  0  0  0  0  0  0  0
   49.0060   31.0160   48.8820 C   0  0  0  0  0  0  0  0  0  0  0  0
   47.7000   31.3650   48.6860 N   0  0  0  0  0  0  0  0  0  0  0  0
   46.9220   29.3570   46.2140 H   0  0  0  0  0  0  0  0  0  0  0  0
   49.3130   28.6960   46.5510 H   0  0  0  0  0  0  0  0  0  0  0  0
   45.6050   31.2730   47.6750 C   0  0  0  0  0  0  0  0  0  0  0  0
   45.0740   30.8620   46.8110 H   0  0  0  0  0  0  0  0  0  0  0  0
   45.1160   30.9440   48.6070 H   0  0  0  0  0  0  0  0  0  0  0  0
   45.6960   32.6750   47.6120 O   0  0  0  0  0  0  0  0  0  0  0  0
   44.8700   35.0740   45.1190 C   0  0  0  0  0  0  0  0  0  0  0  0
   45.6960   34.7290   44.0450 C   0  0  0  0  0  0  0  0  0  0  0  0
   46.5520   33.6320   44.2150 C   0  0  0  0  0  0  0  0  0  0  0  0
   46.5380   32.9710   45.3910 N   0  0  0  0  0  0  0  0  0  0  0  0
   45.7240   33.3420   46.3970 C   0  0  0  0  0  0  0  0  0  0  0  0
   44.8940   34.3820   46.2720 N   0  0  0  0  0  0  0  0  0  0  0  0
   44.2070   35.9250   44.9850 H   0  0  0  0  0  0  0  0  0  0  0  0
   47.1870   33.3780   43.3690 H   0  0  0  0  0  0  0  0  0  0  0  0
   45.6120   35.5450   42.7970 C   0  0  0  0  0  0  0  0  0  0  0  0
   45.3040   36.8160   43.2130 F   0  0  0  0  0  0  0  0  0  0  0  0
   44.5420   35.0170   42.0620 F   0  0  0  0  0  0  0  0  0  0  0  0
   46.7900   35.4570   42.1250 F   0  0  0  0  0  0  0  0  0  0  0  0
   49.8380   31.6800   49.9500 C   0  0  0  0  0  0  0  0  0  0  0  0
   50.7520   30.6800   50.5280 C   0  0  0  0  0  0  0  0  0  0  0  0
   52.0390   30.9650   50.6420 C   0  0  0  0  0  0  0  0  0  0  0  0
   52.9120   29.9980   51.2110 N   0  0  0  0  0  0  0  0  0  0  0  0
   54.1430   29.2820   51.0840 C   0  0  0  0  0  0  0  0  0  0  0  0
   55.2550   29.4660   50.4810 O   0  0  0  0  0  0  0  0  0  0  0  0
   53.5740   28.2110   51.9680 C   0  0  0  0  0  0  0  0  0  0  0  0
   54.3160   27.9670   52.7580 H   0  0  0  0  0  0  0  0  0  0  0  0
   52.6480   29.2950   52.4770 C   0  0  2  0  0  0  0  0  0  0  0  0
   50.8940   28.8890   52.5110 S   0  0  0  0  0  0  0  0  0  0  0  0
   50.1570   29.3880   50.9370 C   0  0  0  0  0  0  0  0  0  0  0  0
   50.3650   28.6450   50.1290 H   0  0  0  0  0  0  0  0  0  0  0  0
   52.5810   32.2370   50.2120 C   0  0  0  0  0  0  0  0  0  0  0  0
   53.8160   32.5690   50.2470 O   0  0  0  0  0  0  0  0  0  0  0  0
   52.7050   33.5090   49.7280 O   0  0  0  0  0  0  0  0  0  0  0  0
   52.0520   34.2400   50.0540 H   0  0  0  0  0  0  0  0  0  0  0  0
  1  6  1  0  0  0  0
  2  3  1  0  0  0  0
  2  1  2  0  0  0  0
  3  4  2  0  0  0  0
  4  5  1  0  0  0  0
  5 25  1  0  0  0  0
  6  5  2  0  0  0  0
  7  2  1  0  0  0  0
  8  3  1  0  0  0  0
  9  1  1  0  0  0  0
  9 11  1  0  0  0  0
 10  9  1  0  0  0  0
 12  9  1  0  0  0  0
 13 18  1  0  0  0  0
 14 15  1  0  0  0  0
 14 13  2  0  0  0  0
 15 16  2  0  0  0  0
 16 17  1  0  0  0  0
 17 12  1  0  0  0  0
 18 17  2  0  0  0  0
 19 13  1  0  0  0  0
 20 15  1  0  0  0  0
 21 22  1  0  0  0  0
 21 14  1  0  0  0  0
 23 21  1  0  0  0  0
 24 21  1  0  0  0  0
 25 26  1  0  0  0  0
 26 27  2  0  0  0  0
 26 35  1  0  0  0  0
 27 28  1  0  0  0  0
 28 33  1  0  0  0  0
 29 28  1  0  0  0  0
 29 31  1  0  0  0  0
 30 29  2  0  0  0  0
 31 32  1  0  0  0  0
 33 31  1  6  0  0  0
 33 34  1  0  0  0  0
 35 34  1  0  0  0  0
 36 35  1  0  0  0  0
 37 38  2  0  0  0  0
 37 27  1  0  0  0  0
 39 40  1  0  0  0  0
 39 37  1  0  0  0  0
M  END
>  <minimizedAffinity>
-6.17769384

>  <minimizedRMSD>
0.707209468

$$$$
