
 OpenBabel03242518353D

 42 46  0  0  1  0  0  0  0  0999 V2000
   46.1210   32.8090   36.5930 C   0  0  2  0  0  0  0  0  0  0  0  0
   45.7880   31.3740   36.5100 C   0  0  0  0  0  0  0  0  0  0  0  0
   46.9330   31.8880   35.7030 C   0  0  1  0  0  0  0  0  0  0  0  0
   45.4620   33.5410   36.1060 H   0  0  0  0  0  0  0  0  0  0  0  0
   46.0380   30.8000   37.4410 H   0  0  0  0  0  0  0  0  0  0  0  0
   44.8490   31.0330   36.0770 H   0  0  0  0  0  0  0  0  0  0  0  0
   47.9330   31.5680   36.0890 H   0  0  0  0  0  0  0  0  0  0  0  0
   47.3940   33.6690   39.8340 C   0  0  0  0  0  0  0  0  0  0  0  0
   48.2870   34.3640   39.0170 C   0  0  0  0  0  0  0  0  0  0  0  0
   47.9520   34.1490   37.6930 C   0  0  0  0  0  0  0  0  0  0  0  0
   46.8600   33.3250   37.7790 C   0  0  0  0  0  0  0  0  0  0  0  0
   46.5300   33.0400   39.0220 O   0  0  0  0  0  0  0  0  0  0  0  0
   49.0900   34.9570   39.4220 H   0  0  0  0  0  0  0  0  0  0  0  0
   48.4480   34.5470   36.8190 H   0  0  0  0  0  0  0  0  0  0  0  0
   47.3000   33.5620   41.2310 O   0  0  0  0  0  0  0  0  0  0  0  0
   47.3830   34.7290   42.0270 C   0  0  0  0  0  0  0  0  0  0  0  0
   48.2400   35.5780   41.6730 O   0  0  0  0  0  0  0  0  0  0  0  0
   46.4860   34.7950   43.1280 C   0  0  0  0  0  0  0  0  0  0  0  0
   45.5910   35.8360   43.0840 C   0  0  0  0  0  0  0  0  0  0  0  0
   44.6790   35.9680   44.1300 C   0  0  0  0  0  0  0  0  0  0  0  0
   44.7170   35.0720   45.1300 N   0  0  0  0  0  0  0  0  0  0  0  0
   45.6130   34.0630   45.1350 C   0  0  0  0  0  0  0  0  0  0  0  0
   46.4840   33.9400   44.1340 N   0  0  0  0  0  0  0  0  0  0  0  0
   45.5410   36.5640   42.2970 H   0  0  0  0  0  0  0  0  0  0  0  0
   43.9520   36.7870   44.1260 H   0  0  0  0  0  0  0  0  0  0  0  0
   45.6820   33.3140   45.9230 H   0  0  0  0  0  0  0  0  0  0  0  0
   46.8670   32.1100   34.2450 C   0  0  0  0  0  0  0  0  0  0  0  0
   47.2480   31.0050   33.3530 C   0  0  0  0  0  0  0  0  0  0  0  0
   48.0920   31.3980   32.3620 C   0  0  0  0  0  0  0  0  0  0  0  0
   48.6310   30.4790   31.3780 N   0  0  0  0  0  0  0  0  0  0  0  0
   48.7940   30.1900   29.9830 C   0  0  0  0  0  0  0  0  0  0  0  0
   48.8280   30.9310   28.9520 O   0  0  0  0  0  0  0  0  0  0  0  0
   48.8860   28.7450   30.4120 C   0  0  0  0  0  0  0  0  0  0  0  0
   49.7210   28.2470   29.8900 H   0  0  0  0  0  0  0  0  0  0  0  0
   49.3560   29.2410   31.7620 C   0  0  2  0  0  0  0  0  0  0  0  0
   48.4500   28.5990   33.1960 S   0  0  0  0  0  0  0  0  0  0  0  0
   46.8970   29.5710   33.2200 C   0  0  0  0  0  0  0  0  0  0  0  0
   46.1970   29.2610   33.9760 H   0  0  0  0  0  0  0  0  0  0  0  0
   48.5410   32.8010   32.2430 C   0  0  0  0  0  0  0  0  0  0  0  0
   49.4250   33.2750   31.4400 O   0  0  0  0  0  0  0  0  0  0  0  0
   48.6720   34.1420   32.4390 O   0  0  0  0  0  0  0  0  0  0  0  0
   48.8100   34.4970   33.4000 H   0  0  0  0  0  0  0  0  0  0  0  0
  1  4  1  6  0  0  0
  1 11  1  0  0  0  0
  2  1  1  0  0  0  0
  2  5  1  0  0  0  0
  3  7  1  1  0  0  0
  3  2  1  0  0  0  0
  3  1  1  0  0  0  0
  6  2  1  0  0  0  0
  8 15  1  0  0  0  0
  9 13  1  0  0  0  0
  9  8  2  0  0  0  0
 10 11  2  0  0  0  0
 10  9  1  0  0  0  0
 11 12  1  0  0  0  0
 12  8  1  0  0  0  0
 14 10  1  0  0  0  0
 15 16  1  0  0  0  0
 16 18  1  0  0  0  0
 17 16  2  0  0  0  0
 18 23  1  0  0  0  0
 19 18  2  0  0  0  0
 19 20  1  0  0  0  0
 20 21  2  0  0  0  0
 21 22  1  0  0  0  0
 22 26  1  0  0  0  0
 23 22  2  0  0  0  0
 24 19  1  0  0  0  0
 25 20  1  0  0  0  0
 27  3  1  0  0  0  0
 28 27  1  0  0  0  0
 29 28  2  0  0  0  0
 30 35  1  0  0  0  0
 30 29  1  0  0  0  0
 31 33  1  0  0  0  0
 31 30  1  0  0  0  0
 32 31  2  0  0  0  0
 34 33  1  0  0  0  0
 35 33  1  6  0  0  0
 35 36  1  0  0  0  0
 36 37  1  0  0  0  0
 37 28  1  0  0  0  0
 37 38  1  0  0  0  0
 39 29  1  0  0  0  0
 39 41  1  0  0  0  0
 40 39  2  0  0  0  0
 41 42  1  0  0  0  0
M  END
>  <minimizedAffinity>
-6.4829402

>  <minimizedRMSD>
1.7336458

$$$$
