REMARK  Name = 
REMARK  8 active torsions:
REMARK  status: ('A' for Active; 'I' for Inactive)
REMARK    1  A    between atoms: C_2  and  C_12
REMARK    2  A    between atoms: C_3  and  C_7
REMARK    3  A    between atoms: C_12  and  C_14
REMARK    4  A    between atoms: N_16  and  C_20
REMARK    5  A    between atoms: C_20  and  C_41
REMARK    6  A    between atoms: C_31  and  C_33
REMARK    7  A    between atoms: C_34  and  C_35
REMARK    8  A    between atoms: C_35  and  O_37
REMARK                            x       y       z     vdW  Elec       q    Type
REMARK                         _______ _______ _______ _____ _____    ______ ____
ROOT
ATOM      1  C   UNL     1      45.774  34.142  40.733  0.00  0.00    +0.000 A 
ATOM      2  C   UNL     1      44.419  34.138  40.547  0.00  0.00    +0.000 A 
ATOM      3  N   UNL     1      44.214  33.442  39.408  0.00  0.00    +0.000 N 
ATOM      4  C   UNL     1      45.405  33.040  38.924  0.00  0.00    +0.000 A 
ATOM      5  N   UNL     1      46.373  33.475  39.748  0.00  0.00    +0.000 NA
ATOM      6  N   UNL     1      45.738  32.286  37.762  0.00  0.00    +0.000 N 
ATOM      7  H   UNL     1      43.656  34.577  41.148  0.00  0.00    +0.000 HD
ATOM      8  H   UNL     1      45.311  32.510  36.822  0.00  0.00    +0.000 HD
ATOM      9  H   UNL     1      46.406  31.500  37.810  0.00  0.00    +0.000 HD
ENDROOT
BRANCH   3  10
ATOM     10  C   UNL     1      42.983  33.118  38.724  0.00  0.00    +0.000 C 
ATOM     11  H   UNL     1      42.256  33.921  38.994  0.00  0.00    +0.000 HD
ATOM     12  H   UNL     1      43.085  33.147  37.637  0.00  0.00    +0.000 HD
BRANCH  10  18
ATOM     13  C   UNL     1      46.005  30.048  39.413  0.00  0.00    +0.000 C 
ATOM     14  C   UNL     1      44.871  29.523  39.009  0.00  0.00    +0.000 C 
ATOM     15  N   UNL     1      43.677  30.295  39.029  0.00  0.00    +0.000 N 
ATOM     16  C   UNL     1      42.518  30.684  38.254  0.00  0.00    +0.000 C 
ATOM     17  O   UNL     1      41.880  30.259  37.230  0.00  0.00    +0.000 OA
ATOM     18  C   UNL     1      42.377  31.813  39.172  0.00  0.00    +0.000 C 
ATOM     19  C   UNL     1      43.247  31.081  40.169  0.00  0.00    +0.000 C 
ATOM     20  S   UNL     1      44.665  31.957  40.813  0.00  0.00    +0.000 S 
ATOM     21  C   UNL     1      46.136  31.446  39.889  0.00  0.00    +0.000 C 
ATOM     22  H   UNL     1      47.054  31.543  40.509  0.00  0.00    +0.000 HD
BRANCH  13  23
ATOM     23  C   UNL     1      47.206  29.209  39.383  0.00  0.00    +0.000 C 
ATOM     24  H   UNL     1      47.498  28.850  38.380  0.00  0.00    +0.000 HD
ENDBRANCH  13  23
BRANCH  14  25
ATOM     25  C   UNL     1      44.814  28.126  38.537  0.00  0.00    +0.000 C 
ATOM     26  O   UNL     1      43.801  27.513  38.128  0.00  0.00    +0.000 OA
BRANCH  25  27
ATOM     27  O   UNL     1      45.828  27.223  38.447  0.00  0.00    +0.000 OA
ATOM     28  H   UNL     1      46.094  26.773  37.602  0.00  0.00    +0.000 HD
ENDBRANCH  25  27
ENDBRANCH  14  25
ENDBRANCH  10  18
ENDBRANCH   3  10
BRANCH   1  29
ATOM     29  C   UNL     1      46.503  34.797  41.876  0.00  0.00    +0.000 C 
ATOM     30  O   UNL     1      47.689  35.238  41.800  0.00  0.00    +0.000 OA
BRANCH  29  32
ATOM     31  C   UNL     1      45.211  36.158  43.457  0.00  0.00    +0.000 A 
ATOM     32  C   UNL     1      45.862  34.954  43.136  0.00  0.00    +0.000 A 
ATOM     33  C   UNL     1      45.813  33.990  44.126  0.00  0.00    +0.000 A 
ATOM     34  N   UNL     1      45.199  34.182  45.294  0.00  0.00    +0.000 NA
ATOM     35  C   UNL     1      44.581  35.369  45.559  0.00  0.00    +0.000 A 
ATOM     36  N   UNL     1      44.596  36.342  44.635  0.00  0.00    +0.000 NA
ATOM     37  H   UNL     1      45.235  36.929  42.697  0.00  0.00    +0.000 HD
ATOM     38  H   UNL     1      44.081  35.525  46.511  0.00  0.00    +0.000 HD
BRANCH  33  39
ATOM     39  C   UNL     1      46.451  32.737  43.882  0.00  0.00    +0.000 A 
ATOM     40  C   UNL     1      47.720  32.268  43.983  0.00  0.00    +0.000 A 
ATOM     41  C   UNL     1      48.026  31.020  43.679  0.00  0.00    +0.000 A 
ATOM     42  C   UNL     1      47.028  30.227  43.264  0.00  0.00    +0.000 A 
ATOM     43  S   UNL     1      45.564  31.312  43.305  0.00  0.00    +0.000 S 
ATOM     44  H   UNL     1      48.452  33.022  44.337  0.00  0.00    +0.000 HD
ATOM     45  H   UNL     1      49.015  30.578  43.735  0.00  0.00    +0.000 HD
ATOM     46  H   UNL     1      46.993  29.168  42.951  0.00  0.00    +0.000 HD
ENDBRANCH  33  39
ENDBRANCH  29  32
ENDBRANCH   1  29
TORSDOF 8
