
 OpenBabel03252503193D

 46 50  0  0  1  0  0  0  0  0999 V2000
   46.1740   34.1650   40.6960 C   0  0  0  0  0  0  0  0  0  0  0  0
   44.8370   33.9600   40.4950 C   0  0  0  0  0  0  0  0  0  0  0  0
   44.7460   33.3030   39.3190 N   0  0  0  0  0  0  0  0  0  0  0  0
   45.9860   33.1190   38.8270 C   0  0  0  0  0  0  0  0  0  0  0  0
   46.8720   33.6550   39.6830 N   0  0  0  0  0  0  0  0  0  0  0  0
   46.4360   32.4900   37.6300 N   0  0  0  0  0  0  0  0  0  0  0  0
   44.0130   34.2410   41.1100 H   0  0  0  0  0  0  0  0  0  0  0  0
   45.9820   32.6950   36.6990 H   0  0  0  0  0  0  0  0  0  0  0  0
   47.2190   31.8170   37.6440 H   0  0  0  0  0  0  0  0  0  0  0  0
   43.5830   32.8280   38.6050 C   0  0  0  0  0  0  0  0  0  0  0  0
   43.5530   33.3970   37.6450 H   0  0  0  0  0  0  0  0  0  0  0  0
   43.6560   31.7720   38.3360 H   0  0  0  0  0  0  0  0  0  0  0  0
   40.9790   29.3310   38.7510 C   0  0  0  0  0  0  0  0  0  0  0  0
   40.2850   30.4440   38.7150 C   0  0  0  0  0  0  0  0  0  0  0  0
   40.9160   31.6910   38.9800 N   0  0  0  0  0  0  0  0  0  0  0  0
   41.0720   33.0510   38.5090 C   0  0  0  0  0  0  0  0  0  0  0  0
   40.4520   33.8600   37.7370 O   0  0  0  0  0  0  0  0  0  0  0  0
   42.2870   33.1120   39.3200 C   0  0  1  0  0  3  0  0  0  0  0  0
   41.7880   31.9260   40.1140 C   0  0  2  0  0  3  0  0  0  0  0  0
   42.8910   30.5270   40.2710 S   0  0  0  0  0  0  0  0  0  0  0  0
   42.4320   29.2810   39.0410 C   0  0  0  0  0  3  0  0  0  0  0  0
   42.7080   28.2600   39.3820 H   0  0  0  0  0  0  0  0  0  0  0  0
   40.2800   28.0710   38.4820 C   0  0  0  0  0  2  0  0  0  0  0  0
   39.8300   27.9940   37.4750 H   0  0  0  0  0  0  0  0  0  0  0  0
   38.8410   30.4220   38.4100 C   0  0  0  0  0  0  0  0  0  0  0  0
   37.9000   30.3800   39.2360 O   0  0  0  0  0  0  0  0  0  0  0  0
   38.2340   30.4440   37.1930 O   0  0  0  0  0  0  0  0  0  0  0  0
   37.5820   31.1390   36.9120 H   0  0  0  0  0  0  0  0  0  0  0  0
   46.7890   34.8640   41.8800 C   0  0  0  0  0  0  0  0  0  0  0  0
   47.9590   35.3510   41.8850 O   0  0  0  0  0  0  0  0  0  0  0  0
   45.3940   36.2200   43.3750 C   0  0  0  0  0  0  0  0  0  0  0  0
   46.0490   35.0100   43.0860 C   0  0  0  0  0  0  0  0  0  0  0  0
   45.9040   34.0300   44.0500 C   0  0  0  0  0  0  0  0  0  0  0  0
   45.2000   34.2130   45.1680 N   0  0  0  0  0  0  0  0  0  0  0  0
   44.5810   35.4060   45.4030 C   0  0  0  0  0  0  0  0  0  0  0  0
   44.6870   36.3940   44.5020 N   0  0  0  0  0  0  0  0  0  0  0  0
   45.4920   37.0030   42.6340 H   0  0  0  0  0  0  0  0  0  0  0  0
   44.0070   35.5540   46.3140 H   0  0  0  0  0  0  0  0  0  0  0  0
   46.5400   32.7710   43.8360 C   0  0  0  0  0  0  0  0  0  0  0  0
   47.8000   32.2910   43.9870 C   0  0  0  0  0  0  0  0  0  0  0  0
   48.1060   31.0390   43.7000 C   0  0  0  0  0  0  0  0  0  0  0  0
   47.1180   30.2530   43.2510 C   0  0  0  0  0  0  0  0  0  0  0  0
   45.6630   31.3510   43.2320 S   0  0  0  0  0  0  0  0  0  0  0  0
   48.5250   33.0410   44.3660 H   0  0  0  0  0  0  0  0  0  0  0  0
   49.0890   30.5890   43.7960 H   0  0  0  0  0  0  0  0  0  0  0  0
   47.0860   29.1930   42.9420 H   0  0  0  0  0  0  0  0  0  0  0  0
  1 29  1  0  0  0  0
  2  1  2  0  0  0  0
  2  7  1  0  0  0  0
  3  2  1  0  0  0  0
  4  3  1  0  0  0  0
  4  5  2  0  0  0  0
  5  1  1  0  0  0  0
  6  9  1  0  0  0  0
  6  4  1  0  0  0  0
  8  6  1  0  0  0  0
 10  3  1  0  0  0  0
 11 10  1  0  0  0  0
 12 10  1  0  0  0  0
 13 21  1  0  0  0  0
 14 13  2  0  0  0  0
 14 15  1  0  0  0  0
 15 19  1  0  0  0  0
 16 15  1  0  0  0  0
 16 18  1  0  0  0  0
 17 16  2  0  0  0  0
 18 10  1  6  0  0  0
 18 19  1  0  0  0  0
 19 20  1  6  0  0  0
 21 22  1  0  0  0  0
 21 20  1  0  0  0  0
 23 13  1  0  0  0  0
 24 23  1  0  0  0  0
 25 14  1  0  0  0  0
 25 26  2  0  0  0  0
 27 25  1  0  0  0  0
 28 27  1  0  0  0  0
 29 30  2  0  0  0  0
 29 32  1  0  0  0  0
 31 36  1  0  0  0  0
 32 31  2  0  0  0  0
 32 33  1  0  0  0  0
 33 34  2  0  0  0  0
 34 35  1  0  0  0  0
 35 38  1  0  0  0  0
 36 35  2  0  0  0  0
 37 31  1  0  0  0  0
 39 40  2  0  0  0  0
 39 33  1  0  0  0  0
 40 44  1  0  0  0  0
 41 45  1  0  0  0  0
 41 40  1  0  0  0  0
 42 41  2  0  0  0  0
 43 42  1  0  0  0  0
 43 39  1  0  0  0  0
 46 42  1  0  0  0  0
M  END
>  <minimizedAffinity>
-5.30350971

>  <minimizedRMSD>
2.46929216

$$$$
