
 OpenBabel03242514183D

 48 51  0  0  1  0  0  0  0  0999 V2000
   36.9520   27.7340   40.9290 C   0  0  0  0  0  0  0  0  0  0  0  0
   37.6060   28.4750   41.9070 C   0  0  0  0  0  0  0  0  0  0  0  0
   38.1200   27.7470   42.9700 C   0  0  0  0  0  0  0  0  0  0  0  0
   37.9580   26.3840   42.9950 N   0  0  0  0  0  0  0  0  0  0  0  0
   37.3260   25.7070   42.0430 C   0  0  0  0  0  0  0  0  0  0  0  0
   36.8360   26.3980   41.0310 N   0  0  0  0  0  0  0  0  0  0  0  0
   38.6600   28.0920   43.8360 H   0  0  0  0  0  0  0  0  0  0  0  0
   37.2240   24.6330   42.1080 H   0  0  0  0  0  0  0  0  0  0  0  0
   36.3770   28.5260   39.8420 C   0  0  0  0  0  0  0  0  0  0  0  0
   35.3020   29.4340   40.2030 C   0  0  0  0  0  0  0  0  0  0  0  0
   34.0080   29.0730   39.6100 C   0  0  0  0  0  0  0  0  0  0  0  0
   34.0940   29.0050   38.0910 C   0  0  0  0  0  0  0  0  0  0  0  0
   35.3060   28.3030   37.6070 C   0  0  0  0  0  0  0  0  0  0  0  0
   36.0120   27.5620   38.7220 C   0  0  0  0  0  0  0  0  0  0  0  0
   37.1820   29.1340   39.3290 H   0  0  0  0  0  0  0  0  0  0  0  0
   35.4780   30.5210   39.9840 H   0  0  0  0  0  0  0  0  0  0  0  0
   35.1840   29.4220   41.3180 H   0  0  0  0  0  0  0  0  0  0  0  0
   33.6210   28.0800   39.9290 H   0  0  0  0  0  0  0  0  0  0  0  0
   33.2560   29.8660   39.8520 H   0  0  0  0  0  0  0  0  0  0  0  0
   33.1350   28.5570   37.7300 H   0  0  0  0  0  0  0  0  0  0  0  0
   34.0950   30.0370   37.6660 H   0  0  0  0  0  0  0  0  0  0  0  0
   36.0140   28.9380   37.0560 H   0  0  0  0  0  0  0  0  0  0  0  0
   34.9710   27.5030   36.8930 H   0  0  0  0  0  0  0  0  0  0  0  0
   36.9400   27.1420   38.2830 H   0  0  0  0  0  0  0  0  0  0  0  0
   35.3450   26.7890   39.1260 H   0  0  0  0  0  0  0  0  0  0  0  0
   37.8640   29.7390   42.0710 O   0  0  0  0  0  0  0  0  0  0  0  0
   38.9700   30.5470   42.0220 C   0  0  0  0  0  0  0  0  0  0  0  0
   38.6210   31.5630   42.3910 H   0  0  0  0  0  0  0  0  0  0  0  0
   39.8200   30.3210   42.6600 H   0  0  0  0  0  0  0  0  0  0  0  0
   39.4800   30.8140   40.6380 C   0  0  0  0  0  0  0  0  0  0  0  0
   39.7880   29.8830   40.1340 H   0  0  0  0  0  0  0  0  0  0  0  0
   40.4440   31.3860   40.7770 H   0  0  0  0  0  0  0  0  0  0  0  0
   41.5380   30.8630   37.2840 C   0  0  0  0  0  0  0  0  0  0  0  0
   41.1440   32.0490   37.6640 C   0  0  0  0  0  0  0  0  0  0  0  0
   40.0080   32.2600   38.4510 N   0  0  0  0  0  0  0  0  0  0  0  0
   39.3110   32.9420   39.4910 C   0  0  0  0  0  0  0  0  0  0  0  0
   39.3930   34.1570   39.8780 O   0  0  0  0  0  0  0  0  0  0  0  0
   38.6000   31.6370   39.7650 C   0  0  1  0  0  3  0  0  0  0  0  0
   38.8000   31.4790   38.2740 C   0  0  2  0  0  3  0  0  0  0  0  0
   39.1030   29.7610   37.8490 S   0  0  0  0  0  0  0  0  0  0  0  0
   40.8820   29.5910   37.6090 C   0  0  0  0  0  3  0  0  0  0  0  0
   41.3750   29.0630   38.4680 H   0  0  0  0  0  0  0  0  0  0  0  0
   42.7510   30.8070   36.4570 C   0  0  0  0  0  2  0  0  0  0  0  0
   43.6430   30.7870   37.1430 H   0  0  0  0  0  0  0  0  0  0  0  0
   41.9440   33.1870   37.2300 C   0  0  0  0  0  0  0  0  0  0  0  0
   42.2940   34.1390   37.9950 O   0  0  0  0  0  0  0  0  0  0  0  0
   42.6940   34.1550   36.6160 O   0  0  0  0  0  0  0  0  0  0  0  0
   43.0290   34.0830   35.6440 H   0  0  0  0  0  0  0  0  0  0  0  0
  1  6  2  0  0  0  0
  1  2  1  0  0  0  0
  2 26  1  0  0  0  0
  2  3  2  0  0  0  0
  3  4  1  0  0  0  0
  3  7  1  0  0  0  0
  5  8  1  0  0  0  0
  5  4  2  0  0  0  0
  6  5  1  0  0  0  0
  9 10  1  0  0  0  0
  9  1  1  0  0  0  0
 10 17  1  0  0  0  0
 11 19  1  0  0  0  0
 11 18  1  0  0  0  0
 11 10  1  0  0  0  0
 12 11  1  0  0  0  0
 13 12  1  0  0  0  0
 13 14  1  0  0  0  0
 14 25  1  0  0  0  0
 14  9  1  0  0  0  0
 15  9  1  0  0  0  0
 16 10  1  0  0  0  0
 20 12  1  0  0  0  0
 21 12  1  0  0  0  0
 22 13  1  0  0  0  0
 23 13  1  0  0  0  0
 24 14  1  0  0  0  0
 27 26  1  0  0  0  0
 27 28  1  0  0  0  0
 27 29  1  0  0  0  0
 30 32  1  0  0  0  0
 30 27  1  0  0  0  0
 31 30  1  0  0  0  0
 33 41  1  0  0  0  0
 33 34  2  0  0  0  0
 34 35  1  0  0  0  0
 35 36  1  0  0  0  0
 36 38  1  0  0  0  0
 36 37  2  0  0  0  0
 38 30  1  1  0  0  0
 39 40  1  1  0  0  0
 39 35  1  0  0  0  0
 39 38  1  0  0  0  0
 41 40  1  0  0  0  0
 41 42  1  0  0  0  0
 43 44  1  0  0  0  0
 43 33  1  0  0  0  0
 45 34  1  0  0  0  0
 45 46  2  0  0  0  0
 47 45  1  0  0  0  0
 48 47  1  0  0  0  0
M  END
>  <minimizedAffinity>
-6.12540674

$$$$

 OpenBabel03242514183D

 48 51  0  0  1  0  0  0  0  0999 V2000
   37.5900   31.6750   39.9820 C   0  0  0  0  0  0  0  0  0  0  0  0
   38.6830   31.7730   40.8360 C   0  0  0  0  0  0  0  0  0  0  0  0
   39.1720   33.0540   41.0430 C   0  0  0  0  0  0  0  0  0  0  0  0
   38.5700   34.1150   40.4150 N   0  0  0  0  0  0  0  0  0  0  0  0
   37.5270   33.9870   39.6040 C   0  0  0  0  0  0  0  0  0  0  0  0
   37.0600   32.7690   39.4060 N   0  0  0  0  0  0  0  0  0  0  0  0
   39.9980   33.3780   41.6540 H   0  0  0  0  0  0  0  0  0  0  0  0
   37.0870   34.8540   39.1330 H   0  0  0  0  0  0  0  0  0  0  0  0
   37.1200   30.3120   39.7410 C   0  0  0  0  0  0  0  0  0  0  0  0
   37.0300   29.8970   38.3510 C   0  0  0  0  0  0  0  0  0  0  0  0
   35.6540   29.6420   37.9040 C   0  0  0  0  0  0  0  0  0  0  0  0
   34.9770   28.5870   38.7690 C   0  0  0  0  0  0  0  0  0  0  0  0
   35.2180   28.7790   40.2180 C   0  0  0  0  0  0  0  0  0  0  0  0
   35.8210   30.1350   40.5150 C   0  0  0  0  0  0  0  0  0  0  0  0
   37.7780   29.5660   40.2800 H   0  0  0  0  0  0  0  0  0  0  0  0
   37.6470   29.0040   38.0610 H   0  0  0  0  0  0  0  0  0  0  0  0
   37.4550   30.7110   37.7080 H   0  0  0  0  0  0  0  0  0  0  0  0
   34.9890   30.5320   37.9480 H   0  0  0  0  0  0  0  0  0  0  0  0
   35.6730   29.2360   36.8620 H   0  0  0  0  0  0  0  0  0  0  0  0
   33.8960   28.5790   38.4850 H   0  0  0  0  0  0  0  0  0  0  0  0
   35.3460   27.5720   38.4860 H   0  0  0  0  0  0  0  0  0  0  0  0
   35.8070   27.9820   40.6950 H   0  0  0  0  0  0  0  0  0  0  0  0
   34.2180   28.7880   40.7290 H   0  0  0  0  0  0  0  0  0  0  0  0
   36.0380   30.1520   41.6030 H   0  0  0  0  0  0  0  0  0  0  0  0
   35.1190   30.9220   40.2090 H   0  0  0  0  0  0  0  0  0  0  0  0
   39.3850   30.9150   41.5160 O   0  0  0  0  0  0  0  0  0  0  0  0
   39.2100   30.1470   42.6370 C   0  0  0  0  0  0  0  0  0  0  0  0
   40.0400   30.4550   43.3490 H   0  0  0  0  0  0  0  0  0  0  0  0
   38.3070   30.2690   43.2290 H   0  0  0  0  0  0  0  0  0  0  0  0
   39.4350   28.6800   42.4230 C   0  0  0  0  0  0  0  0  0  0  0  0
   40.4850   28.4670   42.1580 H   0  0  0  0  0  0  0  0  0  0  0  0
   38.8550   28.4200   41.4880 H   0  0  0  0  0  0  0  0  0  0  0  0
   39.5310   25.1820   40.6230 C   0  0  0  0  0  0  0  0  0  0  0  0
   38.4000   25.4160   41.2330 C   0  0  0  0  0  0  0  0  0  0  0  0
   38.2910   26.2640   42.3390 N   0  0  0  0  0  0  0  0  0  0  0  0
   37.5990   27.2520   43.1010 C   0  0  0  0  0  0  0  0  0  0  0  0
   36.3450   27.4450   43.2520 O   0  0  0  0  0  0  0  0  0  0  0  0
   38.9560   27.7800   43.5050 C   0  0  1  0  0  3  0  0  0  0  0  0
   39.3130   26.3160   43.3660 C   0  0  2  0  0  3  0  0  0  0  0  0
   40.9830   26.1240   42.7360 S   0  0  0  0  0  0  0  0  0  0  0  0
   40.8360   25.7500   40.9790 C   0  0  0  0  0  3  0  0  0  0  0  0
   41.1090   26.6290   40.3360 H   0  0  0  0  0  0  0  0  0  0  0  0
   39.4810   24.2640   39.4770 C   0  0  0  0  0  2  0  0  0  0  0  0
   39.2120   24.8600   38.5620 H   0  0  0  0  0  0  0  0  0  0  0  0
   37.2130   24.7470   40.7160 C   0  0  0  0  0  0  0  0  0  0  0  0
   36.3810   24.1190   41.4440 O   0  0  0  0  0  0  0  0  0  0  0  0
   36.1690   24.1930   40.0260 O   0  0  0  0  0  0  0  0  0  0  0  0
   36.0100   24.3440   39.0180 H   0  0  0  0  0  0  0  0  0  0  0  0
  1  2  1  0  0  0  0
  2  3  2  0  0  0  0
  2 26  1  0  0  0  0
  3  7  1  0  0  0  0
  4  3  1  0  0  0  0
  5  4  2  0  0  0  0
  6  5  1  0  0  0  0
  6  1  2  0  0  0  0
  8  5  1  0  0  0  0
  9  1  1  0  0  0  0
  9 15  1  0  0  0  0
  9 14  1  0  0  0  0
 10  9  1  0  0  0  0
 11 18  1  0  0  0  0
 11 10  1  0  0  0  0
 11 12  1  0  0  0  0
 12 13  1  0  0  0  0
 13 14  1  0  0  0  0
 13 22  1  0  0  0  0
 13 23  1  0  0  0  0
 14 24  1  0  0  0  0
 16 10  1  0  0  0  0
 17 10  1  0  0  0  0
 19 11  1  0  0  0  0
 20 12  1  0  0  0  0
 21 12  1  0  0  0  0
 25 14  1  0  0  0  0
 26 27  1  0  0  0  0
 27 29  1  0  0  0  0
 27 28  1  0  0  0  0
 30 27  1  0  0  0  0
 31 30  1  0  0  0  0
 32 30  1  0  0  0  0
 33 41  1  0  0  0  0
 33 34  2  0  0  0  0
 34 35  1  0  0  0  0
 35 36  1  0  0  0  0
 35 39  1  0  0  0  0
 36 37  2  0  0  0  0
 36 38  1  0  0  0  0
 38 30  1  6  0  0  0
 39 40  1  6  0  0  0
 39 38  1  0  0  0  0
 41 40  1  0  0  0  0
 42 41  1  0  0  0  0
 43 33  1  0  0  0  0
 44 43  1  0  0  0  0
 45 34  1  0  0  0  0
 45 46  2  0  0  0  0
 47 45  1  0  0  0  0
 48 47  1  0  0  0  0
M  END
>  <minimizedAffinity>
-6.04165506

$$$$

 OpenBabel03242514183D

 48 51  0  0  1  0  0  0  0  0999 V2000
   40.0090   26.1880   42.2220 C   0  0  0  0  0  0  0  0  0  0  0  0
   40.3120   27.5330   42.4040 C   0  0  0  0  0  0  0  0  0  0  0  0
   41.4390   27.7970   43.1660 C   0  0  0  0  0  0  0  0  0  0  0  0
   42.1670   26.7530   43.6800 N   0  0  0  0  0  0  0  0  0  0  0  0
   41.8500   25.4790   43.4870 C   0  0  0  0  0  0  0  0  0  0  0  0
   40.7770   25.2240   42.7620 N   0  0  0  0  0  0  0  0  0  0  0  0
   41.8690   28.7460   43.4420 H   0  0  0  0  0  0  0  0  0  0  0  0
   42.4550   24.6910   43.9120 H   0  0  0  0  0  0  0  0  0  0  0  0
   38.7900   25.9310   41.4550 C   0  0  0  0  0  0  0  0  0  0  0  0
   37.5570   25.8330   42.2180 C   0  0  0  0  0  0  0  0  0  0  0  0
   36.9550   24.4940   42.1850 C   0  0  0  0  0  0  0  0  0  0  0  0
   36.6770   24.0450   40.7560 C   0  0  0  0  0  0  0  0  0  0  0  0
   37.7960   24.3320   39.8280 C   0  0  0  0  0  0  0  0  0  0  0  0
   39.0570   24.7240   40.5680 C   0  0  0  0  0  0  0  0  0  0  0  0
   38.6440   26.7310   40.6680 H   0  0  0  0  0  0  0  0  0  0  0  0
   36.7510   26.5690   41.9510 H   0  0  0  0  0  0  0  0  0  0  0  0
   37.7780   26.0840   43.2880 H   0  0  0  0  0  0  0  0  0  0  0  0
   37.5920   23.6960   42.6280 H   0  0  0  0  0  0  0  0  0  0  0  0
   35.9660   24.5200   42.7090 H   0  0  0  0  0  0  0  0  0  0  0  0
   36.3920   22.9650   40.8040 H   0  0  0  0  0  0  0  0  0  0  0  0
   35.7640   24.5570   40.3700 H   0  0  0  0  0  0  0  0  0  0  0  0
   37.5650   25.0670   39.0440 H   0  0  0  0  0  0  0  0  0  0  0  0
   38.0540   23.3740   39.3020 H   0  0  0  0  0  0  0  0  0  0  0  0
   39.8050   24.9950   39.7950 H   0  0  0  0  0  0  0  0  0  0  0  0
   39.3840   23.8880   41.2010 H   0  0  0  0  0  0  0  0  0  0  0  0
   39.7680   28.6480   42.0140 O   0  0  0  0  0  0  0  0  0  0  0  0
   38.7280   29.4450   42.4150 C   0  0  0  0  0  0  0  0  0  0  0  0
   38.3630   28.9990   43.3940 H   0  0  0  0  0  0  0  0  0  0  0  0
   38.9220   30.4850   42.6640 H   0  0  0  0  0  0  0  0  0  0  0  0
   37.5290   29.3940   41.5170 C   0  0  0  0  0  0  0  0  0  0  0  0
   36.8850   28.5300   41.7520 H   0  0  0  0  0  0  0  0  0  0  0  0
   37.9330   29.1670   40.4870 H   0  0  0  0  0  0  0  0  0  0  0  0
   36.7850   29.5280   37.6550 C   0  0  0  0  0  0  0  0  0  0  0  0
   37.2500   30.6520   38.1290 C   0  0  0  0  0  0  0  0  0  0  0  0
   37.0860   31.0450   39.4600 N   0  0  0  0  0  0  0  0  0  0  0  0
   37.5640   31.6590   40.6560 C   0  0  0  0  0  0  0  0  0  0  0  0
   38.3600   32.6470   40.8140 O   0  0  0  0  0  0  0  0  0  0  0  0
   36.7350   30.6480   41.4140 C   0  0  1  0  0  3  0  0  0  0  0  0
   35.8600   30.7870   40.1880 C   0  0  2  0  0  3  0  0  0  0  0  0
   35.0880   29.2200   39.7740 S   0  0  0  0  0  0  0  0  0  0  0  0
   36.0370   28.5170   38.4120 C   0  0  0  0  0  3  0  0  0  0  0  0
   36.6890   27.6660   38.7470 H   0  0  0  0  0  0  0  0  0  0  0  0
   37.0370   29.2590   36.2330 C   0  0  0  0  0  2  0  0  0  0  0  0
   38.0500   28.7760   36.1420 H   0  0  0  0  0  0  0  0  0  0  0  0
   37.9690   31.5190   37.2030 C   0  0  0  0  0  0  0  0  0  0  0  0
   39.1740   31.8850   37.3670 O   0  0  0  0  0  0  0  0  0  0  0  0
   38.4480   32.3330   36.2120 O   0  0  0  0  0  0  0  0  0  0  0  0
   37.9190   32.5590   35.3560 H   0  0  0  0  0  0  0  0  0  0  0  0
  1  2  2  0  0  0  0
  1  6  1  0  0  0  0
  2  3  1  0  0  0  0
  3  7  1  0  0  0  0
  3  4  2  0  0  0  0
  5  4  1  0  0  0  0
  5  8  1  0  0  0  0
  6  5  2  0  0  0  0
  9 10  1  0  0  0  0
  9  1  1  0  0  0  0
 10 17  1  0  0  0  0
 11 10  1  0  0  0  0
 11 18  1  0  0  0  0
 11 19  1  0  0  0  0
 12 20  1  0  0  0  0
 12 11  1  0  0  0  0
 13 14  1  0  0  0  0
 13 12  1  0  0  0  0
 14 25  1  0  0  0  0
 14  9  1  0  0  0  0
 15  9  1  0  0  0  0
 16 10  1  0  0  0  0
 21 12  1  0  0  0  0
 22 13  1  0  0  0  0
 23 13  1  0  0  0  0
 24 14  1  0  0  0  0
 26  2  1  0  0  0  0
 26 27  1  0  0  0  0
 27 29  1  0  0  0  0
 27 28  1  0  0  0  0
 30 31  1  0  0  0  0
 30 27  1  0  0  0  0
 32 30  1  0  0  0  0
 33 34  2  0  0  0  0
 33 41  1  0  0  0  0
 34 35  1  0  0  0  0
 35 39  1  0  0  0  0
 35 36  1  0  0  0  0
 36 37  2  0  0  0  0
 36 38  1  0  0  0  0
 38 30  1  6  0  0  0
 39 40  1  6  0  0  0
 39 38  1  0  0  0  0
 41 42  1  0  0  0  0
 41 40  1  0  0  0  0
 43 33  1  0  0  0  0
 44 43  1  0  0  0  0
 45 46  2  0  0  0  0
 45 34  1  0  0  0  0
 47 45  1  0  0  0  0
 48 47  1  0  0  0  0
M  END
>  <minimizedAffinity>
-5.86958933

$$$$

 OpenBabel03242514183D

 48 51  0  0  1  0  0  0  0  0999 V2000
   38.2470   27.8540   42.0460 C   0  0  0  0  0  0  0  0  0  0  0  0
   37.8640   29.1860   42.1560 C   0  0  0  0  0  0  0  0  0  0  0  0
   38.8350   30.0530   42.6330 C   0  0  0  0  0  0  0  0  0  0  0  0
   40.0760   29.5640   42.9570 N   0  0  0  0  0  0  0  0  0  0  0  0
   40.4100   28.2850   42.8390 C   0  0  0  0  0  0  0  0  0  0  0  0
   39.4860   27.4570   42.3860 N   0  0  0  0  0  0  0  0  0  0  0  0
   38.7770   31.1160   42.8040 H   0  0  0  0  0  0  0  0  0  0  0  0
   41.4000   27.9480   43.1070 H   0  0  0  0  0  0  0  0  0  0  0  0
   37.1940   26.9490   41.5850 C   0  0  0  0  0  0  0  0  0  0  0  0
   36.8770   25.8320   42.4590 C   0  0  0  0  0  0  0  0  0  0  0  0
   37.2070   24.5240   41.8780 C   0  0  0  0  0  0  0  0  0  0  0  0
   36.5000   24.3130   40.5460 C   0  0  0  0  0  0  0  0  0  0  0  0
   36.5510   25.5030   39.6650 C   0  0  0  0  0  0  0  0  0  0  0  0
   37.5420   26.5320   40.1630 C   0  0  0  0  0  0  0  0  0  0  0  0
   36.2360   27.5210   41.3980 H   0  0  0  0  0  0  0  0  0  0  0  0
   35.8160   25.7770   42.8250 H   0  0  0  0  0  0  0  0  0  0  0  0
   37.4620   25.9440   43.4090 H   0  0  0  0  0  0  0  0  0  0  0  0
   38.2900   24.3810   41.6640 H   0  0  0  0  0  0  0  0  0  0  0  0
   36.8480   23.7140   42.5620 H   0  0  0  0  0  0  0  0  0  0  0  0
   36.9340   23.3900   40.0890 H   0  0  0  0  0  0  0  0  0  0  0  0
   35.4280   24.0570   40.7240 H   0  0  0  0  0  0  0  0  0  0  0  0
   35.5760   25.9700   39.4680 H   0  0  0  0  0  0  0  0  0  0  0  0
   36.9530   25.1700   38.6710 H   0  0  0  0  0  0  0  0  0  0  0  0
   37.4500   27.4100   39.4910 H   0  0  0  0  0  0  0  0  0  0  0  0
   38.5510   26.0990   40.1610 H   0  0  0  0  0  0  0  0  0  0  0  0
   36.7680   29.8410   41.9100 O   0  0  0  0  0  0  0  0  0  0  0  0
   36.2170   30.4990   40.8410 C   0  0  0  0  0  0  0  0  0  0  0  0
   35.1280   30.1770   40.8150 H   0  0  0  0  0  0  0  0  0  0  0  0
   36.1640   31.5840   40.8560 H   0  0  0  0  0  0  0  0  0  0  0  0
   36.7570   30.0730   39.5090 C   0  0  0  0  0  0  0  0  0  0  0  0
   36.1710   29.2430   39.0810 H   0  0  0  0  0  0  0  0  0  0  0  0
   37.7680   29.6170   39.7250 H   0  0  0  0  0  0  0  0  0  0  0  0
   40.6810   30.3820   39.5080 C   0  0  0  0  0  0  0  0  0  0  0  0
   40.0740   31.5320   39.6360 C   0  0  0  0  0  0  0  0  0  0  0  0
   38.7880   31.7750   39.1430 N   0  0  0  0  0  0  0  0  0  0  0  0
   37.4950   32.3670   39.2480 C   0  0  0  0  0  0  0  0  0  0  0  0
   37.1360   33.4720   39.7820 O   0  0  0  0  0  0  0  0  0  0  0  0
   36.9660   31.1580   38.5120 C   0  0  1  0  0  3  0  0  0  0  0  0
   38.3380   31.2290   37.8780 C   0  0  2  0  0  3  0  0  0  0  0  0
   38.9690   29.5830   37.5350 S   0  0  0  0  0  0  0  0  0  0  0  0
   40.1360   29.1880   38.8510 C   0  0  0  0  0  3  0  0  0  0  0  0
   39.7120   28.4520   39.5840 H   0  0  0  0  0  0  0  0  0  0  0  0
   42.0310   30.2850   40.0780 C   0  0  0  0  0  2  0  0  0  0  0  0
   41.9340   30.0130   41.1660 H   0  0  0  0  0  0  0  0  0  0  0  0
   40.7950   32.5930   40.3280 C   0  0  0  0  0  0  0  0  0  0  0  0
   40.8520   33.7940   39.9180 O   0  0  0  0  0  0  0  0  0  0  0  0
   41.5270   33.4260   41.1300 O   0  0  0  0  0  0  0  0  0  0  0  0
   41.9240   33.1380   42.0370 H   0  0  0  0  0  0  0  0  0  0  0  0
  1  2  2  0  0  0  0
  1  6  1  0  0  0  0
  2  3  1  0  0  0  0
  3  7  1  0  0  0  0
  3  4  2  0  0  0  0
  5  4  1  0  0  0  0
  5  8  1  0  0  0  0
  6  5  2  0  0  0  0
  9  1  1  0  0  0  0
  9 10  1  0  0  0  0
 10 16  1  0  0  0  0
 10 17  1  0  0  0  0
 11 10  1  0  0  0  0
 11 19  1  0  0  0  0
 12 21  1  0  0  0  0
 12 11  1  0  0  0  0
 13 14  1  0  0  0  0
 13 12  1  0  0  0  0
 14  9  1  0  0  0  0
 15  9  1  0  0  0  0
 18 11  1  0  0  0  0
 20 12  1  0  0  0  0
 22 13  1  0  0  0  0
 23 13  1  0  0  0  0
 24 14  1  0  0  0  0
 25 14  1  0  0  0  0
 26  2  1  0  0  0  0
 27 29  1  0  0  0  0
 27 26  1  0  0  0  0
 28 27  1  0  0  0  0
 30 32  1  0  0  0  0
 30 27  1  0  0  0  0
 31 30  1  0  0  0  0
 33 34  2  0  0  0  0
 33 43  1  0  0  0  0
 34 45  1  0  0  0  0
 35 36  1  0  0  0  0
 35 34  1  0  0  0  0
 36 37  2  0  0  0  0
 38 36  1  0  0  0  0
 38 30  1  1  0  0  0
 39 40  1  1  0  0  0
 39 38  1  0  0  0  0
 39 35  1  0  0  0  0
 40 41  1  0  0  0  0
 41 33  1  0  0  0  0
 41 42  1  0  0  0  0
 43 44  1  0  0  0  0
 45 47  1  0  0  0  0
 46 45  2  0  0  0  0
 47 48  1  0  0  0  0
M  END
>  <minimizedAffinity>
-5.79955006

$$$$

 OpenBabel03242514183D

 48 51  0  0  1  0  0  0  0  0999 V2000
   38.5800   31.3100   38.7940 C   0  0  0  0  0  0  0  0  0  0  0  0
   38.1270   31.7340   40.0380 C   0  0  0  0  0  0  0  0  0  0  0  0
   38.8390   32.7750   40.6150 C   0  0  0  0  0  0  0  0  0  0  0  0
   39.9130   33.3090   39.9470 N   0  0  0  0  0  0  0  0  0  0  0  0
   40.3190   32.8810   38.7590 C   0  0  0  0  0  0  0  0  0  0  0  0
   39.6430   31.8900   38.2080 N   0  0  0  0  0  0  0  0  0  0  0  0
   38.6820   33.2680   41.5600 H   0  0  0  0  0  0  0  0  0  0  0  0
   41.1710   33.3340   38.2720 H   0  0  0  0  0  0  0  0  0  0  0  0
   37.8450   30.1810   38.2250 C   0  0  0  0  0  0  0  0  0  0  0  0
   38.5220   28.8950   38.2450 C   0  0  0  0  0  0  0  0  0  0  0  0
   38.8440   28.3830   36.9070 C   0  0  0  0  0  0  0  0  0  0  0  0
   37.5950   28.2590   36.0440 C   0  0  0  0  0  0  0  0  0  0  0  0
   36.6980   29.4340   36.1470 C   0  0  0  0  0  0  0  0  0  0  0  0
   37.3700   30.5990   36.8410 C   0  0  0  0  0  0  0  0  0  0  0  0
   36.8500   30.0540   38.7490 H   0  0  0  0  0  0  0  0  0  0  0  0
   38.0000   28.0710   38.8020 H   0  0  0  0  0  0  0  0  0  0  0  0
   39.4830   29.0070   38.8110 H   0  0  0  0  0  0  0  0  0  0  0  0
   39.5410   29.0290   36.3270 H   0  0  0  0  0  0  0  0  0  0  0  0
   39.2720   27.3530   36.9980 H   0  0  0  0  0  0  0  0  0  0  0  0
   37.9380   28.0400   35.0040 H   0  0  0  0  0  0  0  0  0  0  0  0
   37.0170   27.3530   36.3440 H   0  0  0  0  0  0  0  0  0  0  0  0
   35.7190   29.2250   36.6040 H   0  0  0  0  0  0  0  0  0  0  0  0
   36.4930   29.7960   35.1040 H   0  0  0  0  0  0  0  0  0  0  0  0
   36.6010   31.3930   36.9420 H   0  0  0  0  0  0  0  0  0  0  0  0
   38.2390   30.9220   36.2530 H   0  0  0  0  0  0  0  0  0  0  0  0
   37.1560   31.3730   40.8240 O   0  0  0  0  0  0  0  0  0  0  0  0
   36.8910   30.3270   41.6690 C   0  0  0  0  0  0  0  0  0  0  0  0
   36.7130   30.7970   42.6870 H   0  0  0  0  0  0  0  0  0  0  0  0
   36.0010   29.7250   41.5050 H   0  0  0  0  0  0  0  0  0  0  0  0
   38.0500   29.4020   41.8880 C   0  0  0  0  0  0  0  0  0  0  0  0
   39.0010   29.8620   41.5700 H   0  0  0  0  0  0  0  0  0  0  0  0
   37.8970   28.5500   41.1620 H   0  0  0  0  0  0  0  0  0  0  0  0
   39.9250   26.0300   41.1100 C   0  0  0  0  0  0  0  0  0  0  0  0
   38.8670   25.8700   41.8590 C   0  0  0  0  0  0  0  0  0  0  0  0
   38.3650   26.8710   42.6950 N   0  0  0  0  0  0  0  0  0  0  0  0
   37.2820   27.5830   43.2930 C   0  0  0  0  0  0  0  0  0  0  0  0
   36.1240   27.1730   43.6460 O   0  0  0  0  0  0  0  0  0  0  0  0
   38.1640   28.8080   43.2480 C   0  0  1  0  0  3  0  0  0  0  0  0
   39.2400   27.7610   43.4330 C   0  0  2  0  0  3  0  0  0  0  0  0
   40.7310   28.2130   42.5410 S   0  0  0  0  0  0  0  0  0  0  0  0
   40.7400   27.2470   41.0190 C   0  0  0  0  0  3  0  0  0  0  0  0
   40.4790   27.8700   40.1220 H   0  0  0  0  0  0  0  0  0  0  0  0
   40.3280   24.8820   40.2880 C   0  0  0  0  0  2  0  0  0  0  0  0
   39.7490   24.9200   39.3240 H   0  0  0  0  0  0  0  0  0  0  0  0
   38.1990   24.5760   41.8000 C   0  0  0  0  0  0  0  0  0  0  0  0
   36.9370   24.4310   41.7600 O   0  0  0  0  0  0  0  0  0  0  0  0
   37.7840   23.2720   41.7480 O   0  0  0  0  0  0  0  0  0  0  0  0
   38.4300   22.4730   41.6540 H   0  0  0  0  0  0  0  0  0  0  0  0
  1  2  1  0  0  0  0
  2  3  2  0  0  0  0
  2 26  1  0  0  0  0
  3  7  1  0  0  0  0
  4  3  1  0  0  0  0
  5  4  2  0  0  0  0
  6  5  1  0  0  0  0
  6  1  2  0  0  0  0
  8  5  1  0  0  0  0
  9 10  1  0  0  0  0
  9 15  1  0  0  0  0
  9  1  1  0  0  0  0
 10 16  1  0  0  0  0
 10 17  1  0  0  0  0
 11 19  1  0  0  0  0
 11 10  1  0  0  0  0
 12 13  1  0  0  0  0
 12 21  1  0  0  0  0
 12 11  1  0  0  0  0
 13 22  1  0  0  0  0
 13 14  1  0  0  0  0
 14 24  1  0  0  0  0
 14  9  1  0  0  0  0
 18 11  1  0  0  0  0
 20 12  1  0  0  0  0
 23 13  1  0  0  0  0
 25 14  1  0  0  0  0
 26 27  1  0  0  0  0
 27 30  1  0  0  0  0
 27 28  1  0  0  0  0
 29 27  1  0  0  0  0
 31 30  1  0  0  0  0
 32 30  1  0  0  0  0
 33 34  2  0  0  0  0
 34 35  1  0  0  0  0
 35 36  1  0  0  0  0
 35 39  1  0  0  0  0
 36 37  2  0  0  0  0
 38 30  1  6  0  0  0
 38 36  1  0  0  0  0
 38 39  1  0  0  0  0
 39 40  1  6  0  0  0
 41 33  1  0  0  0  0
 41 40  1  0  0  0  0
 42 41  1  0  0  0  0
 43 33  1  0  0  0  0
 44 43  1  0  0  0  0
 45 34  1  0  0  0  0
 46 45  2  0  0  0  0
 47 45  1  0  0  0  0
 48 47  1  0  0  0  0
M  END
>  <minimizedAffinity>
-5.70638752

$$$$

 OpenBabel03242514183D

 48 51  0  0  1  0  0  0  0  0999 V2000
   38.4780   30.2660   41.6810 C   0  0  0  0  0  0  0  0  0  0  0  0
   39.1530   31.4540   41.4250 C   0  0  0  0  0  0  0  0  0  0  0  0
   38.4110   32.4450   40.8010 C   0  0  0  0  0  0  0  0  0  0  0  0
   37.0980   32.2050   40.4820 N   0  0  0  0  0  0  0  0  0  0  0  0
   36.4830   31.0580   40.7410 C   0  0  0  0  0  0  0  0  0  0  0  0
   37.1870   30.1130   41.3350 N   0  0  0  0  0  0  0  0  0  0  0  0
   38.7110   33.4370   40.5040 H   0  0  0  0  0  0  0  0  0  0  0  0
   35.4460   30.9170   40.4700 H   0  0  0  0  0  0  0  0  0  0  0  0
   39.2910   29.2180   42.2970 C   0  0  0  0  0  0  0  0  0  0  0  0
   40.1730   28.4800   41.4090 C   0  0  0  0  0  0  0  0  0  0  0  0
   39.8100   27.0640   41.2690 C   0  0  0  0  0  0  0  0  0  0  0  0
   39.7850   26.3610   42.6200 C   0  0  0  0  0  0  0  0  0  0  0  0
   39.1150   27.1550   43.6770 C   0  0  0  0  0  0  0  0  0  0  0  0
   38.3540   28.3300   43.1030 C   0  0  0  0  0  0  0  0  0  0  0  0
   39.9240   29.6490   43.1300 H   0  0  0  0  0  0  0  0  0  0  0  0
   41.2690   28.5220   41.6540 H   0  0  0  0  0  0  0  0  0  0  0  0
   40.1280   28.9490   40.3910 H   0  0  0  0  0  0  0  0  0  0  0  0
   38.8030   26.8930   40.8280 H   0  0  0  0  0  0  0  0  0  0  0  0
   40.5850   26.5430   40.6520 H   0  0  0  0  0  0  0  0  0  0  0  0
   39.3340   25.3530   42.4540 H   0  0  0  0  0  0  0  0  0  0  0  0
   40.8290   26.1480   42.9540 H   0  0  0  0  0  0  0  0  0  0  0  0
   39.7750   27.4830   44.4920 H   0  0  0  0  0  0  0  0  0  0  0  0
   38.3300   26.5010   44.1440 H   0  0  0  0  0  0  0  0  0  0  0  0
   37.9590   28.9030   43.9670 H   0  0  0  0  0  0  0  0  0  0  0  0
   37.5600   27.9620   42.4390 H   0  0  0  0  0  0  0  0  0  0  0  0
   40.3640   31.8760   41.6400 O   0  0  0  0  0  0  0  0  0  0  0  0
   41.2750   32.6690   40.9920 C   0  0  0  0  0  0  0  0  0  0  0  0
   40.7090   33.6130   40.7090 H   0  0  0  0  0  0  0  0  0  0  0  0
   42.1380   33.0420   41.5380 H   0  0  0  0  0  0  0  0  0  0  0  0
   41.7500   32.1190   39.6810 C   0  0  0  0  0  0  0  0  0  0  0  0
   41.5250   31.0440   39.5880 H   0  0  0  0  0  0  0  0  0  0  0  0
   42.8790   32.1630   39.7270 H   0  0  0  0  0  0  0  0  0  0  0  0
   42.1280   29.3620   36.8980 C   0  0  0  0  0  0  0  0  0  0  0  0
   42.6970   30.4940   36.5810 C   0  0  0  0  0  0  0  0  0  0  0  0
   42.2760   31.7280   37.0880 N   0  0  0  0  0  0  0  0  0  0  0  0
   42.5430   33.0380   37.5840 C   0  0  0  0  0  0  0  0  0  0  0  0
   43.4740   33.8600   37.2800 O   0  0  0  0  0  0  0  0  0  0  0  0
   41.3290   32.8680   38.4670 C   0  0  1  0  0  3  0  0  0  0  0  0
   40.8740   32.0330   37.2900 C   0  0  2  0  0  3  0  0  0  0  0  0
   39.8990   30.6300   37.8420 S   0  0  0  0  0  0  0  0  0  0  0  0
   40.9900   29.1940   37.8100 C   0  0  0  0  0  3  0  0  0  0  0  0
   41.3100   28.8840   38.8400 H   0  0  0  0  0  0  0  0  0  0  0  0
   42.6850   28.1520   36.2800 C   0  0  0  0  0  2  0  0  0  0  0  0
   43.5430   27.7960   36.9150 H   0  0  0  0  0  0  0  0  0  0  0  0
   43.8190   30.4390   35.6530 C   0  0  0  0  0  0  0  0  0  0  0  0
   44.9300   31.0240   35.8510 O   0  0  0  0  0  0  0  0  0  0  0  0
   44.7360   30.2550   34.6540 O   0  0  0  0  0  0  0  0  0  0  0  0
   44.5850   29.6240   33.8530 H   0  0  0  0  0  0  0  0  0  0  0  0
  1  9  1  0  0  0  0
  2 26  1  0  0  0  0
  2  1  1  0  0  0  0
  3  2  2  0  0  0  0
  4  5  2  0  0  0  0
  4  3  1  0  0  0  0
  5  6  1  0  0  0  0
  6  1  2  0  0  0  0
  7  3  1  0  0  0  0
  8  5  1  0  0  0  0
  9 14  1  0  0  0  0
  9 15  1  0  0  0  0
 10 16  1  0  0  0  0
 10  9  1  0  0  0  0
 11 10  1  0  0  0  0
 11 12  1  0  0  0  0
 12 21  1  0  0  0  0
 12 13  1  0  0  0  0
 13 23  1  0  0  0  0
 13 22  1  0  0  0  0
 14 13  1  0  0  0  0
 14 24  1  0  0  0  0
 17 10  1  0  0  0  0
 18 11  1  0  0  0  0
 19 11  1  0  0  0  0
 20 12  1  0  0  0  0
 25 14  1  0  0  0  0
 27 29  1  0  0  0  0
 27 26  1  0  0  0  0
 28 27  1  0  0  0  0
 30 32  1  0  0  0  0
 30 27  1  0  0  0  0
 31 30  1  0  0  0  0
 33 41  1  0  0  0  0
 34 33  2  0  0  0  0
 34 35  1  0  0  0  0
 35 39  1  0  0  0  0
 35 36  1  0  0  0  0
 36 38  1  0  0  0  0
 37 36  2  0  0  0  0
 38 30  1  1  0  0  0
 39 40  1  1  0  0  0
 39 38  1  0  0  0  0
 41 40  1  0  0  0  0
 41 42  1  0  0  0  0
 43 33  1  0  0  0  0
 43 44  1  0  0  0  0
 45 46  2  0  0  0  0
 45 34  1  0  0  0  0
 47 45  1  0  0  0  0
 48 47  1  0  0  0  0
M  END
>  <minimizedAffinity>
-5.64741325

$$$$

 OpenBabel03242514183D

 48 51  0  0  1  0  0  0  0  0999 V2000
   38.3240   25.5460   41.9250 C   0  0  0  0  0  0  0  0  0  0  0  0
   38.3940   26.5690   42.8640 C   0  0  0  0  0  0  0  0  0  0  0  0
   39.5160   26.5610   43.6790 C   0  0  0  0  0  0  0  0  0  0  0  0
   40.4600   25.5770   43.5180 N   0  0  0  0  0  0  0  0  0  0  0  0
   40.3620   24.6140   42.6100 C   0  0  0  0  0  0  0  0  0  0  0  0
   39.2950   24.6200   41.8330 N   0  0  0  0  0  0  0  0  0  0  0  0
   39.7900   27.2400   44.4690 H   0  0  0  0  0  0  0  0  0  0  0  0
   41.1330   23.8610   42.5220 H   0  0  0  0  0  0  0  0  0  0  0  0
   37.1110   25.5450   41.1080 C   0  0  0  0  0  0  0  0  0  0  0  0
   36.5480   24.2440   40.7890 C   0  0  0  0  0  0  0  0  0  0  0  0
   36.6040   23.9180   39.3580 C   0  0  0  0  0  0  0  0  0  0  0  0
   35.8910   24.9710   38.5210 C   0  0  0  0  0  0  0  0  0  0  0  0
   36.2100   26.3580   38.9350 C   0  0  0  0  0  0  0  0  0  0  0  0
   37.3880   26.4070   39.8840 C   0  0  0  0  0  0  0  0  0  0  0  0
   36.3000   26.1580   41.6050 H   0  0  0  0  0  0  0  0  0  0  0  0
   35.4940   24.0640   41.1320 H   0  0  0  0  0  0  0  0  0  0  0  0
   37.1280   23.4600   41.3430 H   0  0  0  0  0  0  0  0  0  0  0  0
   37.6350   23.8580   38.9440 H   0  0  0  0  0  0  0  0  0  0  0  0
   36.0690   22.9520   39.1780 H   0  0  0  0  0  0  0  0  0  0  0  0
   36.1280   24.7510   37.4510 H   0  0  0  0  0  0  0  0  0  0  0  0
   34.7870   24.8300   38.5960 H   0  0  0  0  0  0  0  0  0  0  0  0
   35.3590   26.9200   39.3460 H   0  0  0  0  0  0  0  0  0  0  0  0
   36.5490   26.9150   38.0210 H   0  0  0  0  0  0  0  0  0  0  0  0
   37.4960   27.4660   40.1980 H   0  0  0  0  0  0  0  0  0  0  0  0
   38.2820   26.0210   39.3760 H   0  0  0  0  0  0  0  0  0  0  0  0
   37.6290   27.5730   43.1740 O   0  0  0  0  0  0  0  0  0  0  0  0
   37.7880   28.9140   43.4080 C   0  0  0  0  0  0  0  0  0  0  0  0
   36.8300   29.2490   43.9180 H   0  0  0  0  0  0  0  0  0  0  0  0
   38.5690   29.2460   44.0860 H   0  0  0  0  0  0  0  0  0  0  0  0
   37.8550   29.7540   42.1680 C   0  0  0  0  0  0  0  0  0  0  0  0
   37.0430   30.4990   42.1390 H   0  0  0  0  0  0  0  0  0  0  0  0
   37.6180   29.0510   41.3150 H   0  0  0  0  0  0  0  0  0  0  0  0
   37.5270   30.4730   38.3130 C   0  0  0  0  0  0  0  0  0  0  0  0
   38.6380   29.8660   38.6300 C   0  0  0  0  0  0  0  0  0  0  0  0
   39.2370   29.9770   39.8880 N   0  0  0  0  0  0  0  0  0  0  0  0
   39.9490   29.4240   40.9930 C   0  0  0  0  0  0  0  0  0  0  0  0
   40.8390   28.5070   41.0230 O   0  0  0  0  0  0  0  0  0  0  0  0
   39.1730   30.3770   41.8720 C   0  0  1  0  0  3  0  0  0  0  0  0
   39.2460   31.2270   40.6220 C   0  0  2  0  0  3  0  0  0  0  0  0
   37.7480   32.1960   40.4210 S   0  0  0  0  0  0  0  0  0  0  0  0
   36.7400   31.3460   39.1920 C   0  0  0  0  0  3  0  0  0  0  0  0
   35.8690   30.8110   39.6570 H   0  0  0  0  0  0  0  0  0  0  0  0
   37.0260   30.2580   36.9480 C   0  0  0  0  0  2  0  0  0  0  0  0
   36.4090   29.3170   36.9460 H   0  0  0  0  0  0  0  0  0  0  0  0
   39.2630   29.0410   37.6030 C   0  0  0  0  0  0  0  0  0  0  0  0
   39.8490   27.9390   37.8410 O   0  0  0  0  0  0  0  0  0  0  0  0
   39.7800   28.4280   36.4930 O   0  0  0  0  0  0  0  0  0  0  0  0
   39.6310   28.7740   35.5330 H   0  0  0  0  0  0  0  0  0  0  0  0
  1  2  1  0  0  0  0
  2 26  1  0  0  0  0
  2  3  2  0  0  0  0
  3  7  1  0  0  0  0
  4  3  1  0  0  0  0
  5  4  2  0  0  0  0
  6  1  2  0  0  0  0
  6  5  1  0  0  0  0
  8  5  1  0  0  0  0
  9 15  1  0  0  0  0
  9  1  1  0  0  0  0
 10  9  1  0  0  0  0
 10 16  1  0  0  0  0
 10 17  1  0  0  0  0
 11 10  1  0  0  0  0
 12 21  1  0  0  0  0
 12 13  1  0  0  0  0
 12 11  1  0  0  0  0
 13 22  1  0  0  0  0
 13 14  1  0  0  0  0
 14 24  1  0  0  0  0
 14  9  1  0  0  0  0
 18 11  1  0  0  0  0
 19 11  1  0  0  0  0
 20 12  1  0  0  0  0
 23 13  1  0  0  0  0
 25 14  1  0  0  0  0
 26 27  1  0  0  0  0
 27 28  1  0  0  0  0
 27 29  1  0  0  0  0
 30 27  1  0  0  0  0
 31 30  1  0  0  0  0
 32 30  1  0  0  0  0
 33 34  2  0  0  0  0
 33 41  1  0  0  0  0
 34 35  1  0  0  0  0
 35 39  1  0  0  0  0
 35 36  1  0  0  0  0
 36 37  2  0  0  0  0
 36 38  1  0  0  0  0
 38 30  1  6  0  0  0
 39 40  1  6  0  0  0
 39 38  1  0  0  0  0
 41 42  1  0  0  0  0
 41 40  1  0  0  0  0
 43 33  1  0  0  0  0
 44 43  1  0  0  0  0
 45 46  2  0  0  0  0
 45 34  1  0  0  0  0
 47 45  1  0  0  0  0
 48 47  1  0  0  0  0
M  END
>  <minimizedAffinity>
-5.57172775

$$$$

 OpenBabel03242514183D

 48 51  0  0  1  0  0  0  0  0999 V2000
   40.2350   32.5610   39.3260 C   0  0  0  0  0  0  0  0  0  0  0  0
   40.3040   32.1670   40.6570 C   0  0  0  0  0  0  0  0  0  0  0  0
   41.4870   32.4700   41.3130 C   0  0  0  0  0  0  0  0  0  0  0  0
   42.4880   33.1190   40.6340 N   0  0  0  0  0  0  0  0  0  0  0  0
   42.3890   33.4830   39.3620 C   0  0  0  0  0  0  0  0  0  0  0  0
   41.2630   33.1950   38.7350 N   0  0  0  0  0  0  0  0  0  0  0  0
   41.7730   32.2680   42.3330 H   0  0  0  0  0  0  0  0  0  0  0  0
   43.2050   33.9930   38.8700 H   0  0  0  0  0  0  0  0  0  0  0  0
   38.9970   32.1900   38.6400 C   0  0  0  0  0  0  0  0  0  0  0  0
   37.7630   32.6990   39.2140 C   0  0  0  0  0  0  0  0  0  0  0  0
   36.8900   31.6470   39.7500 C   0  0  0  0  0  0  0  0  0  0  0  0
   36.5390   30.6200   38.6820 C   0  0  0  0  0  0  0  0  0  0  0  0
   37.7030   30.2120   37.8610 C   0  0  0  0  0  0  0  0  0  0  0  0
   39.0100   30.6780   38.4640 C   0  0  0  0  0  0  0  0  0  0  0  0
   39.0330   32.5180   37.5570 H   0  0  0  0  0  0  0  0  0  0  0  0
   37.1360   33.3450   38.5430 H   0  0  0  0  0  0  0  0  0  0  0  0
   38.0220   33.3940   40.0560 H   0  0  0  0  0  0  0  0  0  0  0  0
   37.3390   31.0640   40.5860 H   0  0  0  0  0  0  0  0  0  0  0  0
   35.9240   32.1030   40.0850 H   0  0  0  0  0  0  0  0  0  0  0  0
   36.0300   29.7710   39.2020 H   0  0  0  0  0  0  0  0  0  0  0  0
   35.7590   31.0360   38.0000 H   0  0  0  0  0  0  0  0  0  0  0  0
   37.6410   30.5030   36.8020 H   0  0  0  0  0  0  0  0  0  0  0  0
   37.7560   29.0910   37.8830 H   0  0  0  0  0  0  0  0  0  0  0  0
   39.8070   30.3990   37.7440 H   0  0  0  0  0  0  0  0  0  0  0  0
   39.1450   30.2110   39.4490 H   0  0  0  0  0  0  0  0  0  0  0  0
   39.4910   31.5560   41.4690 O   0  0  0  0  0  0  0  0  0  0  0  0
   39.5630   30.5160   42.3580 C   0  0  0  0  0  0  0  0  0  0  0  0
   40.6580   30.2140   42.3850 H   0  0  0  0  0  0  0  0  0  0  0  0
   39.3210   30.6930   43.4020 H   0  0  0  0  0  0  0  0  0  0  0  0
   38.8500   29.2740   41.9140 C   0  0  0  0  0  0  0  0  0  0  0  0
   39.5530   28.4400   41.7510 H   0  0  0  0  0  0  0  0  0  0  0  0
   38.4530   29.5070   40.8830 H   0  0  0  0  0  0  0  0  0  0  0  0
   38.9010   25.3730   41.3950 C   0  0  0  0  0  0  0  0  0  0  0  0
   37.7200   25.9010   41.2140 C   0  0  0  0  0  0  0  0  0  0  0  0
   37.3120   27.0870   41.8310 N   0  0  0  0  0  0  0  0  0  0  0  0
   36.6190   28.3340   41.8200 C   0  0  0  0  0  0  0  0  0  0  0  0
   35.5460   28.6740   41.2140 O   0  0  0  0  0  0  0  0  0  0  0  0
   37.6930   28.8510   42.7480 C   0  0  1  0  0  3  0  0  0  0  0  0
   37.6830   27.4060   43.1950 C   0  0  2  0  0  3  0  0  0  0  0  0
   39.3350   26.8650   43.6430 S   0  0  0  0  0  0  0  0  0  0  0  0
   39.9670   25.9160   42.2460 C   0  0  0  0  0  3  0  0  0  0  0  0
   40.7330   26.4890   41.6580 H   0  0  0  0  0  0  0  0  0  0  0  0
   39.1790   24.1220   40.6770 C   0  0  0  0  0  2  0  0  0  0  0  0
   39.5510   24.3830   39.6480 H   0  0  0  0  0  0  0  0  0  0  0  0
   36.8060   25.1980   40.3230 C   0  0  0  0  0  0  0  0  0  0  0  0
   36.2270   25.7410   39.3310 O   0  0  0  0  0  0  0  0  0  0  0  0
   35.9880   24.3560   39.6190 O   0  0  0  0  0  0  0  0  0  0  0  0
   35.9140   23.3450   39.8110 H   0  0  0  0  0  0  0  0  0  0  0  0
  1  2  1  0  0  0  0
  2  3  2  0  0  0  0
  2 26  1  0  0  0  0
  3  7  1  0  0  0  0
  4  3  1  0  0  0  0
  5  4  2  0  0  0  0
  6  1  2  0  0  0  0
  6  5  1  0  0  0  0
  8  5  1  0  0  0  0
  9 10  1  0  0  0  0
  9  1  1  0  0  0  0
 10 11  1  0  0  0  0
 10 17  1  0  0  0  0
 11 19  1  0  0  0  0
 11 18  1  0  0  0  0
 12 20  1  0  0  0  0
 12 11  1  0  0  0  0
 13 23  1  0  0  0  0
 13 14  1  0  0  0  0
 13 12  1  0  0  0  0
 14  9  1  0  0  0  0
 14 25  1  0  0  0  0
 15  9  1  0  0  0  0
 16 10  1  0  0  0  0
 21 12  1  0  0  0  0
 22 13  1  0  0  0  0
 24 14  1  0  0  0  0
 26 27  1  0  0  0  0
 27 28  1  0  0  0  0
 27 29  1  0  0  0  0
 30 27  1  0  0  0  0
 31 30  1  0  0  0  0
 32 30  1  0  0  0  0
 33 41  1  0  0  0  0
 34 33  2  0  0  0  0
 34 35  1  0  0  0  0
 35 39  1  0  0  0  0
 36 35  1  0  0  0  0
 36 38  1  0  0  0  0
 37 36  2  0  0  0  0
 38 30  1  6  0  0  0
 38 39  1  0  0  0  0
 39 40  1  6  0  0  0
 41 40  1  0  0  0  0
 42 41  1  0  0  0  0
 43 33  1  0  0  0  0
 44 43  1  0  0  0  0
 45 34  1  0  0  0  0
 46 45  2  0  0  0  0
 47 48  1  0  0  0  0
 47 45  1  0  0  0  0
M  END
>  <minimizedAffinity>
-5.56514978

$$$$

 OpenBabel03242514183D

 48 51  0  0  1  0  0  0  0  0999 V2000
   39.1450   27.0720   42.4710 C   0  0  0  0  0  0  0  0  0  0  0  0
   38.6920   28.3650   42.7070 C   0  0  0  0  0  0  0  0  0  0  0  0
   37.3480   28.4820   43.0260 C   0  0  0  0  0  0  0  0  0  0  0  0
   36.5680   27.3540   43.0880 N   0  0  0  0  0  0  0  0  0  0  0  0
   37.0330   26.1320   42.8560 C   0  0  0  0  0  0  0  0  0  0  0  0
   38.3130   26.0190   42.5520 N   0  0  0  0  0  0  0  0  0  0  0  0
   36.7730   29.3660   43.2480 H   0  0  0  0  0  0  0  0  0  0  0  0
   36.3790   25.2740   42.9170 H   0  0  0  0  0  0  0  0  0  0  0  0
   40.5540   26.9760   42.0900 C   0  0  0  0  0  0  0  0  0  0  0  0
   40.8510   27.1130   40.6740 C   0  0  0  0  0  0  0  0  0  0  0  0
   41.3860   25.8870   40.0680 C   0  0  0  0  0  0  0  0  0  0  0  0
   42.6460   25.4180   40.7830 C   0  0  0  0  0  0  0  0  0  0  0  0
   42.5330   25.4770   42.2590 C   0  0  0  0  0  0  0  0  0  0  0  0
   41.1050   25.6990   42.7090 C   0  0  0  0  0  0  0  0  0  0  0  0
   41.1660   27.7480   42.6460 H   0  0  0  0  0  0  0  0  0  0  0  0
   41.5410   27.9530   40.3930 H   0  0  0  0  0  0  0  0  0  0  0  0
   39.9040   27.3780   40.1360 H   0  0  0  0  0  0  0  0  0  0  0  0
   40.6880   25.0200   40.0990 H   0  0  0  0  0  0  0  0  0  0  0  0
   41.6790   26.0960   39.0080 H   0  0  0  0  0  0  0  0  0  0  0  0
   42.8860   24.4010   40.3860 H   0  0  0  0  0  0  0  0  0  0  0  0
   43.5130   26.0490   40.4740 H   0  0  0  0  0  0  0  0  0  0  0  0
   43.2070   26.2000   42.7420 H   0  0  0  0  0  0  0  0  0  0  0  0
   42.8110   24.4650   42.6600 H   0  0  0  0  0  0  0  0  0  0  0  0
   41.1350   25.8090   43.8120 H   0  0  0  0  0  0  0  0  0  0  0  0
   40.4850   24.8530   42.3830 H   0  0  0  0  0  0  0  0  0  0  0  0
   39.2500   29.5400   42.7010 O   0  0  0  0  0  0  0  0  0  0  0  0
   39.0630   30.7300   42.0480 C   0  0  0  0  0  0  0  0  0  0  0  0
   37.9450   30.9260   42.0880 H   0  0  0  0  0  0  0  0  0  0  0  0
   39.4970   31.6360   42.4620 H   0  0  0  0  0  0  0  0  0  0  0  0
   39.3770   30.6860   40.5830 C   0  0  0  0  0  0  0  0  0  0  0  0
   39.4520   29.6490   40.2160 H   0  0  0  0  0  0  0  0  0  0  0  0
   40.4270   31.0910   40.4880 H   0  0  0  0  0  0  0  0  0  0  0  0
   41.5080   30.8150   37.2770 C   0  0  0  0  0  0  0  0  0  0  0  0
   41.0880   31.9890   37.6650 C   0  0  0  0  0  0  0  0  0  0  0  0
   39.9320   32.1720   38.4290 N   0  0  0  0  0  0  0  0  0  0  0  0
   39.2020   32.8290   39.4640 C   0  0  0  0  0  0  0  0  0  0  0  0
   39.2580   34.0390   39.8700 O   0  0  0  0  0  0  0  0  0  0  0  0
   38.5040   31.5100   39.7030 C   0  0  1  0  0  3  0  0  0  0  0  0
   38.7390   31.3770   38.2140 C   0  0  2  0  0  3  0  0  0  0  0  0
   39.0770   29.6700   37.7710 S   0  0  0  0  0  0  0  0  0  0  0  0
   40.8630   29.5290   37.5680 C   0  0  0  0  0  3  0  0  0  0  0  0
   41.3450   28.9950   38.4300 H   0  0  0  0  0  0  0  0  0  0  0  0
   42.7390   30.7890   36.4760 C   0  0  0  0  0  2  0  0  0  0  0  0
   43.6160   30.7720   37.1810 H   0  0  0  0  0  0  0  0  0  0  0  0
   41.8800   33.1450   37.2650 C   0  0  0  0  0  0  0  0  0  0  0  0
   42.4060   33.9610   38.0860 O   0  0  0  0  0  0  0  0  0  0  0  0
   42.5840   34.1610   36.6760 O   0  0  0  0  0  0  0  0  0  0  0  0
   42.7580   34.2170   35.6600 H   0  0  0  0  0  0  0  0  0  0  0  0
  1  6  2  0  0  0  0
  1  2  1  0  0  0  0
  2  3  2  0  0  0  0
  3  4  1  0  0  0  0
  3  7  1  0  0  0  0
  5  8  1  0  0  0  0
  5  4  2  0  0  0  0
  6  5  1  0  0  0  0
  9  1  1  0  0  0  0
  9 15  1  0  0  0  0
  9 14  1  0  0  0  0
 10  9  1  0  0  0  0
 11 18  1  0  0  0  0
 11 10  1  0  0  0  0
 11 12  1  0  0  0  0
 12 13  1  0  0  0  0
 13 23  1  0  0  0  0
 13 14  1  0  0  0  0
 13 22  1  0  0  0  0
 14 24  1  0  0  0  0
 16 10  1  0  0  0  0
 17 10  1  0  0  0  0
 19 11  1  0  0  0  0
 20 12  1  0  0  0  0
 21 12  1  0  0  0  0
 25 14  1  0  0  0  0
 26  2  1  0  0  0  0
 27 28  1  0  0  0  0
 27 29  1  0  0  0  0
 27 26  1  0  0  0  0
 30 27  1  0  0  0  0
 31 30  1  0  0  0  0
 32 30  1  0  0  0  0
 33 41  1  0  0  0  0
 33 34  2  0  0  0  0
 34 35  1  0  0  0  0
 35 36  1  0  0  0  0
 36 38  1  0  0  0  0
 36 37  2  0  0  0  0
 38 30  1  1  0  0  0
 39 40  1  1  0  0  0
 39 35  1  0  0  0  0
 39 38  1  0  0  0  0
 41 40  1  0  0  0  0
 41 42  1  0  0  0  0
 43 44  1  0  0  0  0
 43 33  1  0  0  0  0
 45 34  1  0  0  0  0
 45 46  2  0  0  0  0
 47 45  1  0  0  0  0
 48 47  1  0  0  0  0
M  END
>  <minimizedAffinity>
-5.539814

$$$$
