
     RDKit          3D

 53 56  0  0  0  0  0  0  0  0999 V2000
   47.6865   33.6073   43.3428 C   0  0  0  0  0  0  0  0  0  0  0  0
   48.8103   34.3715   42.8272 C   0  0  0  0  0  0  0  0  0  0  0  0
   49.0939   34.1093   41.4102 C   0  0  0  0  0  0  0  0  0  0  0  0
   49.3598   32.6297   41.1622 C   0  0  0  0  0  0  0  0  0  0  0  0
   48.4020   31.7410   41.8604 C   0  0  0  0  0  0  0  0  0  0  0  0
   47.2151   32.5061   42.4037 C   0  0  0  0  0  0  0  0  0  0  0  0
   46.5084   34.3750   43.7428 C   0  0  0  0  0  0  0  0  0  0  0  0
   46.0108   34.0664   45.0035 C   0  0  0  0  0  0  0  0  0  0  0  0
   44.9203   34.8143   45.4197 C   0  0  0  0  0  0  0  0  0  0  0  0
   44.4112   35.7833   44.5920 N   0  0  0  0  0  0  0  0  0  0  0  0
   44.9104   36.0526   43.3923 C   0  0  0  0  0  0  0  0  0  0  0  0
   45.9488   35.3418   42.9937 N   0  0  0  0  0  0  0  0  0  0  0  0
   46.3367   33.2079   45.9245 O   0  0  0  0  0  0  0  0  0  0  0  0
   45.7690   32.7036   47.0662 C   0  0  0  0  0  0  0  0  0  0  0  0
   45.7908   31.2080   47.1578 C   0  0  0  0  0  0  0  0  0  0  0  0
   48.0638   32.9839   44.2092 H   0  0  0  0  0  0  0  0  0  0  0  0
   49.7782   34.2659   43.3868 H   0  0  0  0  0  0  0  0  0  0  0  0
   48.5782   35.4629   42.9354 H   0  0  0  0  0  0  0  0  0  0  0  0
   48.2628   34.3804   40.7209 H   0  0  0  0  0  0  0  0  0  0  0  0
   50.0242   34.6548   41.1124 H   0  0  0  0  0  0  0  0  0  0  0  0
   49.3885   32.4856   40.0545 H   0  0  0  0  0  0  0  0  0  0  0  0
   50.3901   32.3687   41.5031 H   0  0  0  0  0  0  0  0  0  0  0  0
   48.8481   31.1117   42.6437 H   0  0  0  0  0  0  0  0  0  0  0  0
   47.9709   31.0414   41.0946 H   0  0  0  0  0  0  0  0  0  0  0  0
   46.6029   31.7757   42.9729 H   0  0  0  0  0  0  0  0  0  0  0  0
   46.6641   32.9653   41.5721 H   0  0  0  0  0  0  0  0  0  0  0  0
   44.3684   34.7597   46.3442 H   0  0  0  0  0  0  0  0  0  0  0  0
   44.4744   36.8263   42.7756 H   0  0  0  0  0  0  0  0  0  0  0  0
   46.4409   33.0454   47.9160 H   0  0  0  0  0  0  0  0  0  0  0  0
   44.7832   33.0486   47.3653 H   0  0  0  0  0  0  0  0  0  0  0  0
   45.4679   30.8593   48.1526 H   0  0  0  0  0  0  0  0  0  0  0  0
   46.8823   30.9189   47.1034 H   0  0  0  0  0  0  0  0  0  0  0  0
   45.2917   26.6569   49.8456 C   0  0  0  0  0  0  0  0  0  0  0  0
   46.2685   26.8475   50.3695 H   0  0  0  0  0  0  0  0  0  0  0  0
   45.0577   27.7543   48.8971 C   0  0  0  0  0  0  0  0  0  0  0  0
   45.5989   27.6303   47.7152 C   0  0  0  0  0  0  0  0  0  0  0  0
   46.3749   26.4233   47.4605 C   0  0  0  0  0  0  0  0  0  0  0  0
   46.9547   26.1744   46.3573 O   0  0  0  0  0  0  0  0  0  0  0  0
   47.0493   25.2327   47.4371 O   0  0  0  0  0  0  0  0  0  0  0  0
   45.4618   28.5917   46.7084 N   0  0  0  0  0  0  0  0  0  0  0  0
   45.9804   29.3479   45.6157 C   0  0  0  0  0  0  0  0  0  0  0  0
   46.8416   29.0262   44.7282 O   0  0  0  0  0  0  0  0  0  0  0  0
   45.0848   30.4763   46.0719 C   0  0  1  0  0  0  0  0  0  0  0  0
   44.2212   29.3112   46.5025 C   0  0  2  0  0  0  0  0  0  0  0  0
   43.3436   29.6935   48.0210 S   0  0  0  0  0  0  0  0  0  0  0  0
   44.2436   28.8851   49.3587 C   0  0  2  0  0  0  0  0  0  0  0  0
   44.8352   29.6155   49.9719 H   0  0  0  0  0  0  0  0  0  0  0  0
   44.5465   26.6560   50.6814 H   0  0  0  0  0  0  0  0  0  0  0  0
   45.2956   25.6578   49.3656 H   0  0  0  0  0  0  0  0  0  0  0  0
   47.1619   24.6268   48.2646 H   0  0  0  0  0  0  0  0  0  0  0  0
   44.6981   31.0660   45.2344 H   0  0  0  0  0  0  0  0  0  0  0  0
   43.5885   28.9161   45.6839 H   0  0  0  0  0  0  0  0  0  0  0  0
   43.4664   28.5099   50.0598 H   0  0  0  0  0  0  0  0  0  0  0  0
  1  7  1  0
  2  1  1  0
  3  2  1  0
  4  3  1  0
  4  5  1  0
  5  6  1  0
  6  1  1  0
  7  8  1  0
  8  9  2  0
  8 13  1  0
 10  9  1  0
 11 10  2  0
 12 11  1  0
 12  7  2  0
 13 14  1  0
 14 15  1  0
  1 16  1  0
  2 17  1  0
  2 18  1  0
  3 19  1  0
  3 20  1  0
  4 21  1  0
  4 22  1  0
  5 23  1  0
  5 24  1  0
  6 25  1  0
  6 26  1  0
  9 27  1  0
 11 28  1  0
 14 29  1  0
 14 30  1  0
 15 31  1  0
 15 32  1  0
 33 34  1  0
 33 35  1  0
 35 36  2  0
 36 37  1  0
 37 38  2  0
 37 39  1  0
 36 40  1  0
 40 41  1  0
 41 42  2  0
 41 43  1  0
 43 44  1  0
 44 45  1  0
 45 46  1  0
 46 47  1  1
 46 35  1  0
 44 40  1  0
 33 48  1  0
 33 49  1  0
 39 50  1  0
 43 51  1  6
 44 52  1  6
 46 53  1  0
 15 43  1  0
M  ISO  8  16  13  17  13  18  13  19  13  20  13  21  13  22  13  23  13
M  ISO  8  24  13  25  13  26  13  27  14  28  14  29   8  30   8  31   8
M  ISO  3  32   8  34   8  47  15
M  END
>  <DihAtoms>  (1) 
13,14,42,40

>  <DihDeg>  (1) 
179.63663227778264

$$$$
