
     RDKit          3D

 62 66  0  0  0  0  0  0  0  0999 V2000
   47.9048   33.8471   42.8608 C   0  0  0  0  0  0  0  0  0  0  0  0
   48.5642   35.0930   42.6416 C   0  0  0  0  0  0  0  0  0  0  0  0
   49.9287   35.1163   42.3150 C   0  0  0  0  0  0  0  0  0  0  0  0
   50.5554   33.9042   42.2261 N   0  0  0  0  0  0  0  0  0  0  0  0
   49.8834   32.7300   42.4453 C   0  0  0  0  0  0  0  0  0  0  0  0
   48.5942   32.7199   42.7528 N   0  0  0  0  0  0  0  0  0  0  0  0
   46.4867   33.9645   43.1971 C   0  0  0  0  0  0  0  0  0  0  0  0
   45.7606   34.9587   42.4483 C   0  0  0  0  0  0  0  0  0  0  0  0
   45.2828   36.1095   43.2256 C   0  0  0  0  0  0  0  0  0  0  0  0
   44.4502   35.6614   44.4303 C   0  0  0  0  0  0  0  0  0  0  0  0
   45.0057   34.4721   45.1429 C   0  0  0  0  0  0  0  0  0  0  0  0
   46.4505   34.2153   44.7419 C   0  0  0  0  0  0  0  0  0  0  0  0
   50.7206   31.5437   42.3135 C   0  0  0  0  0  0  0  0  0  0  0  0
   51.3441   31.3054   41.1505 N   0  0  0  0  0  0  0  0  0  0  0  0
   52.0587   30.1570   41.2552 C   0  0  0  0  0  0  0  0  0  0  0  0
   51.8642   29.6926   42.5062 N   0  0  0  0  0  0  0  0  0  0  0  0
   51.0521   30.5277   43.1576 N   0  0  0  0  0  0  0  0  0  0  0  0
   52.4260   28.5094   43.1056 C   0  0  0  0  0  0  0  0  0  0  0  0
   53.7096   28.8231   43.7331 C   0  0  0  0  0  0  0  0  0  0  0  0
   54.0802   29.5884   44.7465 C   0  0  0  0  0  0  0  0  0  0  0  0
   55.4985   29.7388   45.3279 C   0  0  0  0  0  0  0  0  0  0  0  0
   48.1236   36.0792   42.6976 H   0  0  0  0  0  0  0  0  0  0  0  0
   50.4588   36.0204   42.1433 H   0  0  0  0  0  0  0  0  0  0  0  0
   46.0317   32.9366   43.1317 H   0  0  0  0  0  0  0  0  0  0  0  0
   46.3738   35.3531   41.5964 H   0  0  0  0  0  0  0  0  0  0  0  0
   44.8759   34.4923   41.9399 H   0  0  0  0  0  0  0  0  0  0  0  0
   44.5414   36.6735   42.5866 H   0  0  0  0  0  0  0  0  0  0  0  0
   46.0144   36.8636   43.5325 H   0  0  0  0  0  0  0  0  0  0  0  0
   44.4833   36.5191   45.1523 H   0  0  0  0  0  0  0  0  0  0  0  0
   43.3780   35.5582   44.1677 H   0  0  0  0  0  0  0  0  0  0  0  0
   44.4304   33.5686   44.8248 H   0  0  0  0  0  0  0  0  0  0  0  0
   44.9819   34.5317   46.2370 H   0  0  0  0  0  0  0  0  0  0  0  0
   47.0955   35.0866   44.9793 H   0  0  0  0  0  0  0  0  0  0  0  0
   46.8100   33.3003   45.2082 H   0  0  0  0  0  0  0  0  0  0  0  0
   52.6734   29.7007   40.4703 H   0  0  0  0  0  0  0  0  0  0  0  0
   52.5285   27.7271   42.3739 H   0  0  0  0  0  0  0  0  0  0  0  0
   51.6877   28.1160   43.8670 H   0  0  0  0  0  0  0  0  0  0  0  0
   54.6253   28.3501   43.3186 H   0  0  0  0  0  0  0  0  0  0  0  0
   53.2546   30.1302   45.2499 H   0  0  0  0  0  0  0  0  0  0  0  0
   55.4003   29.4456   46.3878 H   0  0  0  0  0  0  0  0  0  0  0  0
   56.1552   29.0610   44.7675 H   0  0  0  0  0  0  0  0  0  0  0  0
   57.2681   36.0959   46.5703 C   0  0  0  0  0  0  0  0  0  0  0  0
   58.3297   36.1064   46.9451 H   0  0  0  0  0  0  0  0  0  0  0  0
   56.8029   34.7271   46.3428 C   0  0  0  0  0  0  0  0  0  0  0  0
   57.6509   33.8987   45.7926 C   0  0  0  0  0  0  0  0  0  0  0  0
   58.9878   34.3665   45.4401 C   0  0  0  0  0  0  0  0  0  0  0  0
   59.9052   33.6668   44.9018 O   0  0  0  0  0  0  0  0  0  0  0  0
   60.1475   35.0810   45.2239 O   0  0  0  0  0  0  0  0  0  0  0  0
   57.3336   32.5655   45.5231 N   0  0  0  0  0  0  0  0  0  0  0  0
   57.3396   31.3643   44.7520 C   0  0  0  0  0  0  0  0  0  0  0  0
   58.2512   30.8852   44.0321 O   0  0  0  0  0  0  0  0  0  0  0  0
   55.9618   31.1421   45.2345 C   0  0  2  0  0  0  0  0  0  0  0  0
   56.5371   31.7683   46.4561 C   0  0  2  0  0  0  0  0  0  0  0  0
   55.4611   32.7316   47.5025 S   0  0  0  0  0  0  0  0  0  0  0  0
   55.4420   34.3464   46.7263 C   0  0  2  0  0  0  0  0  0  0  0  0
   54.7529   34.2856   45.8550 H   0  0  0  0  0  0  0  0  0  0  0  0
   56.5932   36.6402   47.2604 H   0  0  0  0  0  0  0  0  0  0  0  0
   57.2485   36.6389   45.5999 H   0  0  0  0  0  0  0  0  0  0  0  0
   60.2302   36.0900   45.2458 H   0  0  0  0  0  0  0  0  0  0  0  0
   55.1854   31.7849   44.7934 H   0  0  0  0  0  0  0  0  0  0  0  0
   57.2490   31.1642   47.0490 H   0  0  0  0  0  0  0  0  0  0  0  0
   54.9862   35.1287   47.3864 H   0  0  0  0  0  0  0  0  0  0  0  0
  1  7  1  0
  2  1  2  0
  3  2  1  0
  4  3  2  0
  4  5  1  0
  5  6  2  0
  6  1  1  0
  7 12  1  0
  8  7  1  0
  8  9  1  0
  9 10  1  0
 10 11  1  0
 12 11  1  0
 13  5  1  0
 13 17  2  0
 14 15  2  0
 14 13  1  0
 15 16  1  0
 16 18  1  0
 16 17  1  0
 18 19  1  0
 19 20  2  0
 20 21  1  0
  2 22  1  0
  3 23  1  0
  7 24  1  0
  8 25  1  0
  8 26  1  0
  9 27  1  0
  9 28  1  0
 10 29  1  0
 10 30  1  0
 11 31  1  0
 11 32  1  0
 12 33  1  0
 12 34  1  0
 15 35  1  0
 18 36  1  0
 18 37  1  0
 19 38  1  0
 20 39  1  0
 21 40  1  0
 21 41  1  0
 42 43  1  0
 42 44  1  0
 44 45  2  0
 45 46  1  0
 46 47  2  0
 46 48  1  0
 45 49  1  0
 49 50  1  0
 50 51  2  0
 50 52  1  0
 52 53  1  0
 53 54  1  0
 54 55  1  0
 55 56  1  6
 55 44  1  0
 53 49  1  0
 42 57  1  0
 42 58  1  0
 48 59  1  0
 52 60  1  6
 53 61  1  1
 55 62  1  0
 21 52  1  0
M  ISO  8  22  14  23  14  24  13  25  13  26  13  27  13  28  13  29  13
M  ISO  8  30  13  31  13  32  13  33  13  34  13  35  14  36   8  37   8
M  ISO  4  40   8  41   8  43   8  56  15
M  END
>  <DihAtoms>  (1) 
19,20,51,49

>  <DihDeg>  (1) 
60.00197888850106

$$$$
