
 OpenBabel03242514173D

 48 52  0  0  1  0  0  0  0  0999 V2000
   46.1570   34.5110   43.6610 C   0  0  0  0  0  0  0  0  0  0  0  0
   46.2470   33.7330   44.8100 C   0  0  0  0  0  0  0  0  0  0  0  0
   45.4160   34.1070   45.8550 C   0  0  0  0  0  0  0  0  0  0  0  0
   44.5820   35.1860   45.7020 N   0  0  0  0  0  0  0  0  0  0  0  0
   44.5220   35.9090   44.5900 C   0  0  0  0  0  0  0  0  0  0  0  0
   45.3120   35.5550   43.5930 N   0  0  0  0  0  0  0  0  0  0  0  0
   45.3070   33.6650   46.8320 H   0  0  0  0  0  0  0  0  0  0  0  0
   43.8480   36.7510   44.5170 H   0  0  0  0  0  0  0  0  0  0  0  0
   47.0750   34.1290   42.5880 C   0  0  0  0  0  0  0  0  0  0  0  0
   48.4190   34.6770   42.6620 C   0  0  0  0  0  0  0  0  0  0  0  0
   48.7310   35.6080   41.5700 C   0  0  0  0  0  0  0  0  0  0  0  0
   48.5530   34.9470   40.2100 C   0  0  0  0  0  0  0  0  0  0  0  0
   47.3110   34.1440   40.1110 C   0  0  0  0  0  0  0  0  0  0  0  0
   46.3730   34.4110   41.2680 C   0  0  0  0  0  0  0  0  0  0  0  0
   47.1660   33.0020   42.5300 H   0  0  0  0  0  0  0  0  0  0  0  0
   49.2550   33.9300   42.7140 H   0  0  0  0  0  0  0  0  0  0  0  0
   48.5230   35.2350   43.6300 H   0  0  0  0  0  0  0  0  0  0  0  0
   48.0870   36.5150   41.5460 H   0  0  0  0  0  0  0  0  0  0  0  0
   49.8060   35.9120   41.6390 H   0  0  0  0  0  0  0  0  0  0  0  0
   48.6330   35.7560   39.4420 H   0  0  0  0  0  0  0  0  0  0  0  0
   49.4190   34.2770   39.9980 H   0  0  0  0  0  0  0  0  0  0  0  0
   47.4730   33.0640   39.9860 H   0  0  0  0  0  0  0  0  0  0  0  0
   46.7550   34.4910   39.1990 H   0  0  0  0  0  0  0  0  0  0  0  0
   45.5190   33.7110   41.1490 H   0  0  0  0  0  0  0  0  0  0  0  0
   46.0630   35.4650   41.2510 H   0  0  0  0  0  0  0  0  0  0  0  0
   46.9510   32.6950   45.1530 O   0  0  0  0  0  0  0  0  0  0  0  0
   47.1750   31.9750   46.2970 C   0  0  0  0  0  0  0  0  0  0  0  0
   48.2970   32.0210   46.4700 H   0  0  0  0  0  0  0  0  0  0  0  0
   46.7570   32.3270   47.2360 H   0  0  0  0  0  0  0  0  0  0  0  0
   46.8830   30.5100   46.1720 C   0  0  0  0  0  0  0  0  0  0  0  0
   47.3600   29.9320   46.9810 H   0  0  0  0  0  0  0  0  0  0  0  0
   47.4200   30.1750   45.2360 H   0  0  0  0  0  0  0  0  0  0  0  0
   47.1700   26.7600   45.0130 C   0  0  0  0  0  0  0  0  0  0  0  0
   46.3760   27.4720   44.2580 C   0  0  0  0  0  0  0  0  0  0  0  0
   45.6940   28.6020   44.7220 N   0  0  0  0  0  0  0  0  0  0  0  0
   45.1870   29.9230   44.5430 C   0  0  2  0  0  0  0  0  0  0  0  0
   44.7410   30.4980   43.4920 O   0  0  0  0  0  1  0  0  0  0  0  0
   45.4500   30.1410   46.0150 C   0  0  1  0  0  3  0  0  0  0  0  0
   45.1330   28.6630   46.0560 C   0  0  2  0  0  0  0  0  0  0  0  0
   46.1250   27.8300   47.2990 S   0  0  0  0  0  0  0  0  0  0  0  0
   47.4750   27.0140   46.4250 C   0  0  0  0  0  3  0  0  0  0  0  0
   48.4510   27.5510   46.5610 H   0  0  0  0  0  0  0  0  0  0  0  0
   47.8120   25.6000   44.3800 C   0  0  0  0  0  2  0  0  0  0  0  0
   48.7520   25.9510   43.8740 H   0  0  0  0  0  0  0  0  0  0  0  0
   46.2100   27.0450   42.8750 C   0  0  0  0  0  0  0  0  0  0  0  0
   45.1070   27.0980   42.2450 O   0  0  0  0  0  0  0  0  0  0  0  0
   46.2780   26.5940   41.5850 O   0  0  0  0  0  0  0  0  0  0  0  0
   47.1600   26.3220   41.1240 H   0  0  0  0  0  0  0  0  0  0  0  0
  1  2  1  0  0  0  0
  2 26  1  0  0  0  0
  2  3  2  0  0  0  0
  3  7  1  0  0  0  0
  4  3  1  0  0  0  0
  5  4  2  0  0  0  0
  6  1  2  0  0  0  0
  6  5  1  0  0  0  0
  8  5  1  0  0  0  0
  9 10  1  0  0  0  0
  9  1  1  0  0  0  0
 10 16  1  0  0  0  0
 10 17  1  0  0  0  0
 11 19  1  0  0  0  0
 11 10  1  0  0  0  0
 12 11  1  0  0  0  0
 13 12  1  0  0  0  0
 13 14  1  0  0  0  0
 14  9  1  0  0  0  0
 15  9  1  0  0  0  0
 18 11  1  0  0  0  0
 20 12  1  0  0  0  0
 21 12  1  0  0  0  0
 22 13  1  0  0  0  0
 23 13  1  0  0  0  0
 24 14  1  0  0  0  0
 25 14  1  0  0  0  0
 26 27  1  0  0  0  0
 27 28  1  0  0  0  0
 27 29  1  0  0  0  0
 30 27  1  0  0  0  0
 30 31  1  0  0  0  0
 32 30  1  0  0  0  0
 33 41  1  0  0  0  0
 34 35  1  0  0  0  0
 34 33  2  0  0  0  0
 35 39  1  0  0  0  0
 36 37  1  6  0  0  0
 36 35  1  0  0  0  0
 36 38  1  0  0  0  0
 36 39  1  0  0  0  0
 38 39  1  0  0  0  0
 38 30  1  6  0  0  0
 39 40  1  1  0  0  0
 41 42  1  0  0  0  0
 41 40  1  0  0  0  0
 43 33  1  0  0  0  0
 44 43  1  0  0  0  0
 45 34  1  0  0  0  0
 46 45  2  0  0  0  0
 47 45  1  0  0  0  0
 48 47  1  0  0  0  0
M  END
>  <minimizedAffinity>
-5.12927723

>  <minimizedRMSD>
2.1758697

$$$$
