REMARK  Name = 
REMARK  8 active torsions:
REMARK  status: ('A' for Active; 'I' for Inactive)
REMARK    1  A    between atoms: C_2  and  C_12
REMARK    2  A    between atoms: C_3  and  C_7
REMARK    3  A    between atoms: C_12  and  C_14
REMARK    4  A    between atoms: N_16  and  C_20
REMARK    5  A    between atoms: C_20  and  C_41
REMARK    6  A    between atoms: C_31  and  C_33
REMARK    7  A    between atoms: C_34  and  C_35
REMARK    8  A    between atoms: C_35  and  O_37
REMARK                            x       y       z     vdW  Elec       q    Type
REMARK                         _______ _______ _______ _____ _____    ______ ____
ROOT
ATOM      1  C   UNL     1      45.774  34.142  40.733  0.00  0.00    +0.000 A 
ATOM      2  C   UNL     1      44.419  34.138  40.547  0.00  0.00    +0.000 A 
ATOM      3  N   UNL     1      44.214  33.442  39.408  0.00  0.00    +0.000 N 
ATOM      4  C   UNL     1      45.405  33.040  38.924  0.00  0.00    +0.000 A 
ATOM      5  N   UNL     1      46.373  33.475  39.748  0.00  0.00    +0.000 NA
ATOM      6  N   UNL     1      45.738  32.286  37.762  0.00  0.00    +0.000 N 
ATOM      7  H   UNL     1      43.656  34.577  41.148  0.00  0.00    +0.000 HD
ATOM      8  H   UNL     1      45.311  32.510  36.822  0.00  0.00    +0.000 HD
ATOM      9  H   UNL     1      46.406  31.500  37.810  0.00  0.00    +0.000 HD
ENDROOT
BRANCH   3  10
ATOM     10  C   UNL     1      42.983  33.118  38.724  0.00  0.00    +0.000 C 
ATOM     11  H   UNL     1      42.256  33.921  38.994  0.00  0.00    +0.000 HD
ATOM     12  H   UNL     1      43.085  33.147  37.637  0.00  0.00    +0.000 HD
BRANCH  10  18
ATOM     13  C   UNL     1      38.844  33.586  40.019  0.00  0.00    +0.000 C 
ATOM     14  C   UNL     1      39.444  32.618  40.672  0.00  0.00    +0.000 C 
ATOM     15  N   UNL     1      40.678  32.092  40.199  0.00  0.00    +0.000 N 
ATOM     16  C   UNL     1      42.021  31.718  40.588  0.00  0.00    +0.000 C 
ATOM     17  O   UNL     1      42.646  31.429  41.665  0.00  0.00    +0.000 OA
ATOM     18  C   UNL     1      42.377  31.813  39.172  0.00  0.00    +0.000 C 
ATOM     19  C   UNL     1      40.910  31.703  38.821  0.00  0.00    +0.000 C 
ATOM     20  S   UNL     1      40.228  32.969  37.760  0.00  0.00    +0.000 S 
ATOM     21  C   UNL     1      39.390  34.204  38.786  0.00  0.00    +0.000 C 
ATOM     22  H   UNL     1      38.569  34.702  38.225  0.00  0.00    +0.000 HD
BRANCH  13  23
ATOM     23  C   UNL     1      37.570  34.087  40.541  0.00  0.00    +0.000 C 
ATOM     24  H   UNL     1      37.624  34.531  41.551  0.00  0.00    +0.000 HD
ENDBRANCH  13  23
BRANCH  14  25
ATOM     25  C   UNL     1      38.849  32.056  41.900  0.00  0.00    +0.000 C 
ATOM     26  O   UNL     1      39.320  31.138  42.610  0.00  0.00    +0.000 OA
BRANCH  25  27
ATOM     27  O   UNL     1      37.685  32.407  42.511  0.00  0.00    +0.000 OA
ATOM     28  H   UNL     1      37.627  32.722  43.452  0.00  0.00    +0.000 HD
ENDBRANCH  25  27
ENDBRANCH  14  25
ENDBRANCH  10  18
ENDBRANCH   3  10
BRANCH   1  29
ATOM     29  C   UNL     1      46.503  34.797  41.876  0.00  0.00    +0.000 C 
ATOM     30  O   UNL     1      47.689  35.238  41.800  0.00  0.00    +0.000 OA
BRANCH  29  32
ATOM     31  C   UNL     1      45.211  36.158  43.457  0.00  0.00    +0.000 A 
ATOM     32  C   UNL     1      45.862  34.954  43.136  0.00  0.00    +0.000 A 
ATOM     33  C   UNL     1      45.813  33.990  44.126  0.00  0.00    +0.000 A 
ATOM     34  N   UNL     1      45.199  34.182  45.294  0.00  0.00    +0.000 NA
ATOM     35  C   UNL     1      44.581  35.369  45.559  0.00  0.00    +0.000 A 
ATOM     36  N   UNL     1      44.596  36.342  44.635  0.00  0.00    +0.000 NA
ATOM     37  H   UNL     1      45.235  36.929  42.697  0.00  0.00    +0.000 HD
ATOM     38  H   UNL     1      44.081  35.525  46.511  0.00  0.00    +0.000 HD
BRANCH  33  39
ATOM     39  C   UNL     1      46.451  32.737  43.882  0.00  0.00    +0.000 A 
ATOM     40  C   UNL     1      47.720  32.268  43.983  0.00  0.00    +0.000 A 
ATOM     41  C   UNL     1      48.026  31.020  43.679  0.00  0.00    +0.000 A 
ATOM     42  C   UNL     1      47.028  30.227  43.264  0.00  0.00    +0.000 A 
ATOM     43  S   UNL     1      45.564  31.312  43.305  0.00  0.00    +0.000 S 
ATOM     44  H   UNL     1      48.452  33.022  44.337  0.00  0.00    +0.000 HD
ATOM     45  H   UNL     1      49.015  30.578  43.735  0.00  0.00    +0.000 HD
ATOM     46  H   UNL     1      46.993  29.168  42.951  0.00  0.00    +0.000 HD
ENDBRANCH  33  39
ENDBRANCH  29  32
ENDBRANCH   1  29
TORSDOF 8
