
 OpenBabel03252500053D

 52 56  0  0  1  0  0  0  0  0999 V2000
   36.9870   29.0040   36.8120 C   0  0  0  0  0  0  0  0  0  0  0  0
   37.4140   28.2840   37.9230 C   0  0  0  0  0  0  0  0  0  0  0  0
   36.4700   27.7540   38.8050 C   0  0  0  0  0  0  0  0  0  0  0  0
   35.1850   28.0130   38.4640 N   0  0  0  0  0  0  0  0  0  0  0  0
   34.7840   28.6970   37.4080 C   0  0  0  0  0  0  0  0  0  0  0  0
   35.6990   29.1840   36.5940 N   0  0  0  0  0  0  0  0  0  0  0  0
   37.7540   29.3950   36.1580 H   0  0  0  0  0  0  0  0  0  0  0  0
   36.7470   27.0000   39.9710 C   0  0  0  0  0  0  0  0  0  0  0  0
   36.8270   25.6230   39.8250 C   0  0  0  0  0  0  0  0  0  0  0  0
   37.0890   24.7360   40.8460 C   0  0  0  0  0  0  0  0  0  0  0  0
   37.2900   25.1950   42.1130 C   0  0  0  0  0  0  0  0  0  0  0  0
   37.2250   26.5480   42.3300 C   0  0  0  0  0  0  0  0  0  0  0  0
   37.4140   27.0810   43.5720 C   0  0  0  0  0  0  0  0  0  0  0  0
   37.3580   28.4230   43.8390 C   0  0  0  0  0  0  0  0  0  0  0  0
   37.0870   29.2700   42.7520 C   0  0  0  0  0  0  0  0  0  0  0  0
   36.9010   28.6980   41.5110 C   0  0  0  0  0  0  0  0  0  0  0  0
   36.9590   27.3850   41.2620 C   0  0  0  0  0  0  0  0  0  0  0  0
   36.6820   25.1410   38.8490 H   0  0  0  0  0  0  0  0  0  0  0  0
   37.1420   23.6680   40.6870 H   0  0  0  0  0  0  0  0  0  0  0  0
   37.4920   24.5210   42.9060 H   0  0  0  0  0  0  0  0  0  0  0  0
   37.6200   26.3650   44.3690 H   0  0  0  0  0  0  0  0  0  0  0  0
   37.5140   28.8030   44.8390 H   0  0  0  0  0  0  0  0  0  0  0  0
   37.0500   30.3110   42.9980 H   0  0  0  0  0  0  0  0  0  0  0  0
   36.6230   29.7060   40.5310 N   0  0  0  0  0  0  0  0  0  0  0  0
   37.2110   30.3400   39.9490 H   0  0  0  0  0  0  0  0  0  0  0  0
   35.7580   30.1090   40.1170 H   0  0  0  0  0  0  0  0  0  0  0  0
   33.2940   28.8240   37.2790 C   0  0  0  0  0  0  0  0  0  0  0  0
   32.7180   29.1520   38.4750 F   0  0  0  0  0  0  0  0  0  0  0  0
   32.7600   27.6530   36.7680 F   0  0  0  0  0  0  0  0  0  0  0  0
   33.0030   29.7890   36.2900 F   0  0  0  0  0  0  0  0  0  0  0  0
   38.8220   28.0220   38.2510 C   0  0  0  0  0  0  0  0  0  0  0  0
   39.3130   27.4570   37.4330 H   0  0  0  0  0  0  0  0  0  0  0  0
   38.8170   27.3110   39.1280 H   0  0  0  0  0  0  0  0  0  0  0  0
   39.6180   29.2160   38.6310 C   0  0  0  0  0  0  0  0  0  0  0  0
   40.5240   28.9110   39.1920 H   0  0  0  0  0  0  0  0  0  0  0  0
   39.0150   29.9750   39.1110 H   0  0  0  0  0  0  0  0  0  0  0  0
   40.8570   33.4220   39.2710 C   0  0  0  0  0  0  0  0  0  0  0  0
   41.5290   32.8530   38.2830 C   0  0  0  0  0  0  0  0  0  0  0  0
   41.0950   31.6050   37.7550 N   0  0  0  0  0  0  0  0  0  0  0  0
   41.5310   30.2790   37.3710 C   0  0  0  0  0  0  0  0  0  0  0  0
   42.6390   29.6780   37.1430 O   0  0  0  0  0  0  0  0  0  0  0  0
   40.1130   29.8980   37.3550 C   0  0  2  0  0  3  0  0  0  0  0  0
   39.7050   31.3430   37.3770 C   0  0  1  0  0  3  0  0  0  0  0  0
   38.6630   31.8460   38.7580 S   0  0  0  0  0  0  0  0  0  0  0  0
   39.6570   32.8230   39.9070 C   0  0  0  0  0  3  0  0  0  0  0  0
   39.0380   33.6540   40.3460 H   0  0  0  0  0  0  0  0  0  0  0  0
   41.3470   34.7220   39.7680 C   0  0  0  0  0  2  0  0  0  0  0  0
   42.3540   34.6380   40.2290 H   0  0  0  0  0  0  0  0  0  0  0  0
   42.7260   33.4980   37.7030 C   0  0  0  0  0  0  0  0  0  0  0  0
   43.9050   33.3130   38.0880 O   0  0  0  0  0  0  0  0  0  0  0  0
   42.7480   34.3830   36.6740 O   0  0  0  0  0  0  0  0  0  0  0  0
   43.3620   34.2360   35.8870 H   0  0  0  0  0  0  0  0  0  0  0  0
  1  2  1  0  0  0  0
  2 31  1  0  0  0  0
  2  3  2  0  0  0  0
  3  8  1  0  0  0  0
  4  3  1  0  0  0  0
  5  4  2  0  0  0  0
  6  1  2  0  0  0  0
  6  5  1  0  0  0  0
  7  1  1  0  0  0  0
  8 17  1  0  0  0  0
  9  8  2  0  0  0  0
  9 10  1  0  0  0  0
 10 11  2  0  0  0  0
 11 12  1  0  0  0  0
 11 20  1  0  0  0  0
 12 13  1  0  0  0  0
 13 14  2  0  0  0  0
 13 21  1  0  0  0  0
 14 22  1  0  0  0  0
 15 23  1  0  0  0  0
 15 14  1  0  0  0  0
 16 15  2  0  0  0  0
 17 16  1  0  0  0  0
 17 12  2  0  0  0  0
 18  9  1  0  0  0  0
 19 10  1  0  0  0  0
 24 16  1  0  0  0  0
 25 24  1  0  0  0  0
 26 24  1  0  0  0  0
 27  5  1  0  0  0  0
 27 28  1  0  0  0  0
 29 27  1  0  0  0  0
 30 27  1  0  0  0  0
 31 34  1  0  0  0  0
 31 33  1  0  0  0  0
 32 31  1  0  0  0  0
 34 36  1  0  0  0  0
 34 35  1  0  0  0  0
 37 47  1  0  0  0  0
 37 45  1  0  0  0  0
 38 37  2  0  0  0  0
 39 38  1  0  0  0  0
 40 39  1  0  0  0  0
 41 40  2  0  0  0  0
 42 40  1  0  0  0  0
 42 43  1  0  0  0  0
 42 34  1  1  0  0  0
 43 39  1  0  0  0  0
 43 44  1  1  0  0  0
 44 45  1  0  0  0  0
 45 46  1  0  0  0  0
 47 48  1  0  0  0  0
 49 50  2  0  0  0  0
 49 38  1  0  0  0  0
 51 49  1  0  0  0  0
 52 51  1  0  0  0  0
M  END
>  <minimizedAffinity>
-7.19441271

$$$$

 OpenBabel03252500053D

 52 56  0  0  1  0  0  0  0  0999 V2000
   36.1680   26.2240   37.9500 C   0  0  0  0  0  0  0  0  0  0  0  0
   36.7400   26.7670   39.0960 C   0  0  0  0  0  0  0  0  0  0  0  0
   36.8130   25.9980   40.2600 C   0  0  0  0  0  0  0  0  0  0  0  0
   36.2960   24.7520   40.1350 N   0  0  0  0  0  0  0  0  0  0  0  0
   35.7550   24.2410   39.0450 C   0  0  0  0  0  0  0  0  0  0  0  0
   35.7000   24.9920   37.9630 N   0  0  0  0  0  0  0  0  0  0  0  0
   36.1330   26.8570   37.0740 H   0  0  0  0  0  0  0  0  0  0  0  0
   37.3660   26.4060   41.4970 C   0  0  0  0  0  0  0  0  0  0  0  0
   36.5530   27.1590   42.3320 C   0  0  0  0  0  0  0  0  0  0  0  0
   36.9220   27.6390   43.5690 C   0  0  0  0  0  0  0  0  0  0  0  0
   38.1690   27.3850   44.0550 C   0  0  0  0  0  0  0  0  0  0  0  0
   39.0280   26.6440   43.2810 C   0  0  0  0  0  0  0  0  0  0  0  0
   40.2920   26.3500   43.7010 C   0  0  0  0  0  0  0  0  0  0  0  0
   41.1850   25.6170   42.9650 C   0  0  0  0  0  0  0  0  0  0  0  0
   40.7420   25.1590   41.7130 C   0  0  0  0  0  0  0  0  0  0  0  0
   39.4580   25.4740   41.3210 C   0  0  0  0  0  0  0  0  0  0  0  0
   38.5940   26.1910   42.0490 C   0  0  0  0  0  0  0  0  0  0  0  0
   35.5270   27.4260   42.0440 H   0  0  0  0  0  0  0  0  0  0  0  0
   36.2540   28.2240   44.1870 H   0  0  0  0  0  0  0  0  0  0  0  0
   38.4640   27.7490   45.0060 H   0  0  0  0  0  0  0  0  0  0  0  0
   40.5680   26.7380   44.6820 H   0  0  0  0  0  0  0  0  0  0  0  0
   42.1780   25.4080   43.3350 H   0  0  0  0  0  0  0  0  0  0  0  0
   41.4660   24.5900   41.1670 H   0  0  0  0  0  0  0  0  0  0  0  0
   39.1860   24.9400   40.0200 N   0  0  0  0  0  0  0  0  0  0  0  0
   38.8720   24.0110   39.6630 H   0  0  0  0  0  0  0  0  0  0  0  0
   39.2290   25.3120   39.0490 H   0  0  0  0  0  0  0  0  0  0  0  0
   35.2640   22.8310   39.1970 C   0  0  0  0  0  0  0  0  0  0  0  0
   36.2480   22.0130   39.6800 F   0  0  0  0  0  0  0  0  0  0  0  0
   34.7720   22.3670   37.9890 F   0  0  0  0  0  0  0  0  0  0  0  0
   34.1360   22.8300   40.0460 F   0  0  0  0  0  0  0  0  0  0  0  0
   37.2950   28.1250   39.1840 C   0  0  0  0  0  0  0  0  0  0  0  0
   38.0710   28.2780   38.4060 H   0  0  0  0  0  0  0  0  0  0  0  0
   37.8560   28.1760   40.1630 H   0  0  0  0  0  0  0  0  0  0  0  0
   36.2960   29.2220   39.1680 C   0  0  0  0  0  0  0  0  0  0  0  0
   36.3970   29.8470   40.0780 H   0  0  0  0  0  0  0  0  0  0  0  0
   35.2960   28.8630   38.9680 H   0  0  0  0  0  0  0  0  0  0  0  0
   39.7990   31.8500   39.8440 C   0  0  0  0  0  0  0  0  0  0  0  0
   39.6370   31.5610   38.5630 C   0  0  0  0  0  0  0  0  0  0  0  0
   38.4280   30.9550   38.1170 N   0  0  0  0  0  0  0  0  0  0  0  0
   37.8800   29.8820   37.3160 C   0  0  0  0  0  0  0  0  0  0  0  0
   38.2970   29.0620   36.4250 O   0  0  0  0  0  0  0  0  0  0  0  0
   36.5980   30.1390   37.9820 C   0  0  2  0  0  3  0  0  0  0  0  0
   37.1050   31.4570   38.4940 C   0  0  1  0  0  3  0  0  0  0  0  0
   37.0910   31.6650   40.2820 S   0  0  0  0  0  0  0  0  0  0  0  0
   38.7890   31.5590   40.8910 C   0  0  0  0  0  3  0  0  0  0  0  0
   38.9420   32.2810   41.7410 H   0  0  0  0  0  0  0  0  0  0  0  0
   41.0680   32.4900   40.2420 C   0  0  0  0  0  2  0  0  0  0  0  0
   41.9400   31.8230   40.0720 H   0  0  0  0  0  0  0  0  0  0  0  0
   40.6910   31.8660   37.5710 C   0  0  0  0  0  0  0  0  0  0  0  0
   41.5430   31.0490   37.1470 O   0  0  0  0  0  0  0  0  0  0  0  0
   40.9080   33.0620   36.9660 O   0  0  0  0  0  0  0  0  0  0  0  0
   40.9890   33.1180   35.9610 H   0  0  0  0  0  0  0  0  0  0  0  0
  1  6  2  0  0  0  0
  1  2  1  0  0  0  0
  2 31  1  0  0  0  0
  2  3  2  0  0  0  0
  3  8  1  0  0  0  0
  4  3  1  0  0  0  0
  5 27  1  0  0  0  0
  5  4  2  0  0  0  0
  6  5  1  0  0  0  0
  7  1  1  0  0  0  0
  8 17  2  0  0  0  0
  8  9  1  0  0  0  0
  9 10  2  0  0  0  0
 10 11  1  0  0  0  0
 10 19  1  0  0  0  0
 11 20  1  0  0  0  0
 12 13  1  0  0  0  0
 12 11  2  0  0  0  0
 13 21  1  0  0  0  0
 14 22  1  0  0  0  0
 14 13  2  0  0  0  0
 15 14  1  0  0  0  0
 16 15  2  0  0  0  0
 16 17  1  0  0  0  0
 17 12  1  0  0  0  0
 18  9  1  0  0  0  0
 23 15  1  0  0  0  0
 24 16  1  0  0  0  0
 25 24  1  0  0  0  0
 26 24  1  0  0  0  0
 27 28  1  0  0  0  0
 27 30  1  0  0  0  0
 29 27  1  0  0  0  0
 31 33  1  0  0  0  0
 32 31  1  0  0  0  0
 34 31  1  0  0  0  0
 34 35  1  0  0  0  0
 36 34  1  0  0  0  0
 37 47  1  0  0  0  0
 37 45  1  0  0  0  0
 38 37  2  0  0  0  0
 39 43  1  0  0  0  0
 39 38  1  0  0  0  0
 40 42  1  0  0  0  0
 40 39  1  0  0  0  0
 41 40  2  0  0  0  0
 42 43  1  0  0  0  0
 42 34  1  1  0  0  0
 43 44  1  1  0  0  0
 44 45  1  0  0  0  0
 45 46  1  0  0  0  0
 48 47  1  0  0  0  0
 49 38  1  0  0  0  0
 50 49  2  0  0  0  0
 51 49  1  0  0  0  0
 52 51  1  0  0  0  0
M  END
>  <minimizedAffinity>
-7.12197351

$$$$

 OpenBabel03252500053D

 52 56  0  0  1  0  0  0  0  0999 V2000
   37.0650   28.6470   36.5600 C   0  0  0  0  0  0  0  0  0  0  0  0
   37.4540   27.9880   37.7220 C   0  0  0  0  0  0  0  0  0  0  0  0
   36.4870   27.6090   38.6550 C   0  0  0  0  0  0  0  0  0  0  0  0
   35.2200   27.9410   38.3080 N   0  0  0  0  0  0  0  0  0  0  0  0
   34.8560   28.5660   37.2040 C   0  0  0  0  0  0  0  0  0  0  0  0
   35.7920   28.9110   36.3420 N   0  0  0  0  0  0  0  0  0  0  0  0
   37.8490   28.9200   35.8670 H   0  0  0  0  0  0  0  0  0  0  0  0
   36.7240   26.9330   39.8760 C   0  0  0  0  0  0  0  0  0  0  0  0
   36.6930   25.5460   39.8430 C   0  0  0  0  0  0  0  0  0  0  0  0
   36.9030   24.7270   40.9310 C   0  0  0  0  0  0  0  0  0  0  0  0
   37.1610   25.2700   42.1530 C   0  0  0  0  0  0  0  0  0  0  0  0
   37.2070   26.6380   42.2590 C   0  0  0  0  0  0  0  0  0  0  0  0
   37.4590   27.2530   43.4500 C   0  0  0  0  0  0  0  0  0  0  0  0
   37.5140   28.6130   43.6060 C   0  0  0  0  0  0  0  0  0  0  0  0
   37.2910   29.3870   42.4560 C   0  0  0  0  0  0  0  0  0  0  0  0
   37.0390   28.7320   41.2690 C   0  0  0  0  0  0  0  0  0  0  0  0
   36.9890   27.4030   41.1280 C   0  0  0  0  0  0  0  0  0  0  0  0
   36.4930   24.9990   38.9120 H   0  0  0  0  0  0  0  0  0  0  0  0
   36.8680   23.6490   40.8600 H   0  0  0  0  0  0  0  0  0  0  0  0
   37.3240   24.6490   42.9980 H   0  0  0  0  0  0  0  0  0  0  0  0
   37.6220   26.5900   44.3010 H   0  0  0  0  0  0  0  0  0  0  0  0
   37.7160   29.0590   44.5690 H   0  0  0  0  0  0  0  0  0  0  0  0
   37.3410   30.4440   42.6160 H   0  0  0  0  0  0  0  0  0  0  0  0
   36.8240   29.6760   40.2120 N   0  0  0  0  0  0  0  0  0  0  0  0
   37.4490   30.2120   39.5730 H   0  0  0  0  0  0  0  0  0  0  0  0
   35.9850   30.1120   39.7760 H   0  0  0  0  0  0  0  0  0  0  0  0
   33.3780   28.8010   37.0820 C   0  0  0  0  0  0  0  0  0  0  0  0
   33.0990   29.7060   36.0960 F   0  0  0  0  0  0  0  0  0  0  0  0
   32.8600   29.2080   38.3000 F   0  0  0  0  0  0  0  0  0  0  0  0
   32.7400   27.5650   36.8380 F   0  0  0  0  0  0  0  0  0  0  0  0
   38.8430   27.6420   38.0550 C   0  0  0  0  0  0  0  0  0  0  0  0
   39.0760   26.6090   37.7250 H   0  0  0  0  0  0  0  0  0  0  0  0
   38.8990   27.6030   39.1820 H   0  0  0  0  0  0  0  0  0  0  0  0
   39.8680   28.6020   37.5760 C   0  0  0  0  0  0  0  0  0  0  0  0
   39.5670   29.0310   36.5990 H   0  0  0  0  0  0  0  0  0  0  0  0
   40.8650   28.1850   37.6050 H   0  0  0  0  0  0  0  0  0  0  0  0
   43.5770   30.9950   37.1810 C   0  0  0  0  0  0  0  0  0  0  0  0
   42.5590   31.7260   37.6070 C   0  0  0  0  0  0  0  0  0  0  0  0
   41.3630   31.0920   38.0470 N   0  0  0  0  0  0  0  0  0  0  0  0
   39.9200   31.1010   37.9310 C   0  0  0  0  0  0  0  0  0  0  0  0
   39.0140   31.8900   37.4890 O   0  0  0  0  0  0  0  0  0  0  0  0
   39.9360   29.7730   38.5570 C   0  0  2  0  0  3  0  0  0  0  0  0
   41.3600   29.9730   38.9910 C   0  0  1  0  0  3  0  0  0  0  0  0
   42.5430   28.7540   38.3930 S   0  0  0  0  0  0  0  0  0  0  0  0
   43.5550   29.5130   37.1030 C   0  0  0  0  0  3  0  0  0  0  0  0
   44.6140   29.1400   37.1710 H   0  0  0  0  0  0  0  0  0  0  0  0
   44.7950   31.7090   36.7510 C   0  0  0  0  0  2  0  0  0  0  0  0
   44.6110   32.3420   35.8570 H   0  0  0  0  0  0  0  0  0  0  0  0
   42.6420   33.2020   37.6460 C   0  0  0  0  0  0  0  0  0  0  0  0
   43.0040   33.8790   38.6380 O   0  0  0  0  0  0  0  0  0  0  0  0
   42.3450   34.0540   36.6330 O   0  0  0  0  0  0  0  0  0  0  0  0
   43.0020   34.7690   36.3570 H   0  0  0  0  0  0  0  0  0  0  0  0
  1  2  1  0  0  0  0
  2 31  1  0  0  0  0
  2  3  2  0  0  0  0
  3  8  1  0  0  0  0
  4  3  1  0  0  0  0
  5  4  2  0  0  0  0
  6  1  2  0  0  0  0
  6  5  1  0  0  0  0
  7  1  1  0  0  0  0
  8 17  1  0  0  0  0
  9  8  2  0  0  0  0
  9 10  1  0  0  0  0
 10 11  2  0  0  0  0
 11 12  1  0  0  0  0
 11 20  1  0  0  0  0
 12 13  1  0  0  0  0
 13 14  2  0  0  0  0
 13 21  1  0  0  0  0
 14 22  1  0  0  0  0
 15 23  1  0  0  0  0
 15 14  1  0  0  0  0
 16 15  2  0  0  0  0
 17 16  1  0  0  0  0
 17 12  2  0  0  0  0
 18  9  1  0  0  0  0
 19 10  1  0  0  0  0
 24 16  1  0  0  0  0
 25 24  1  0  0  0  0
 26 24  1  0  0  0  0
 27  5  1  0  0  0  0
 27 29  1  0  0  0  0
 28 27  1  0  0  0  0
 30 27  1  0  0  0  0
 31 33  1  0  0  0  0
 32 31  1  0  0  0  0
 34 36  1  0  0  0  0
 34 31  1  0  0  0  0
 35 34  1  0  0  0  0
 37 38  2  0  0  0  0
 38 49  1  0  0  0  0
 38 39  1  0  0  0  0
 39 43  1  0  0  0  0
 40 39  1  0  0  0  0
 40 42  1  0  0  0  0
 41 40  2  0  0  0  0
 42 34  1  6  0  0  0
 42 43  1  0  0  0  0
 43 44  1  6  0  0  0
 45 46  1  0  0  0  0
 45 37  1  0  0  0  0
 45 44  1  0  0  0  0
 47 37  1  0  0  0  0
 48 47  1  0  0  0  0
 49 50  2  0  0  0  0
 51 49  1  0  0  0  0
 52 51  1  0  0  0  0
M  END
>  <minimizedAffinity>
-7.05217743

$$$$

 OpenBabel03252500053D

 52 56  0  0  1  0  0  0  0  0999 V2000
   39.5880   28.1550   43.0550 C   0  0  0  0  0  0  0  0  0  0  0  0
   38.7250   28.7300   42.1280 C   0  0  0  0  0  0  0  0  0  0  0  0
   37.9100   27.9100   41.3440 C   0  0  0  0  0  0  0  0  0  0  0  0
   38.0600   26.5850   41.5850 N   0  0  0  0  0  0  0  0  0  0  0  0
   38.8810   26.0440   42.4650 C   0  0  0  0  0  0  0  0  0  0  0  0
   39.6370   26.8440   43.1900 N   0  0  0  0  0  0  0  0  0  0  0  0
   40.1990   28.8290   43.6380 H   0  0  0  0  0  0  0  0  0  0  0  0
   36.9830   28.3430   40.3670 C   0  0  0  0  0  0  0  0  0  0  0  0
   35.7270   28.7230   40.8170 C   0  0  0  0  0  0  0  0  0  0  0  0
   34.7030   29.1710   40.0110 C   0  0  0  0  0  0  0  0  0  0  0  0
   34.8870   29.2650   38.6640 C   0  0  0  0  0  0  0  0  0  0  0  0
   36.1070   28.9060   38.1490 C   0  0  0  0  0  0  0  0  0  0  0  0
   36.3640   28.9730   36.8110 C   0  0  0  0  0  0  0  0  0  0  0  0
   37.5640   28.6250   36.2500 C   0  0  0  0  0  0  0  0  0  0  0  0
   38.5640   28.1760   37.1300 C   0  0  0  0  0  0  0  0  0  0  0  0
   38.2690   28.1220   38.4760 C   0  0  0  0  0  0  0  0  0  0  0  0
   37.0930   28.4650   39.0130 C   0  0  0  0  0  0  0  0  0  0  0  0
   35.4640   28.6880   41.8820 H   0  0  0  0  0  0  0  0  0  0  0  0
   33.7370   29.4560   40.4050 H   0  0  0  0  0  0  0  0  0  0  0  0
   34.1050   29.6090   38.0340 H   0  0  0  0  0  0  0  0  0  0  0  0
   35.5430   29.3290   36.1880 H   0  0  0  0  0  0  0  0  0  0  0  0
   37.7250   28.6930   35.1840 H   0  0  0  0  0  0  0  0  0  0  0  0
   39.4870   27.9130   36.6570 H   0  0  0  0  0  0  0  0  0  0  0  0
   39.3940   27.6310   39.2160 N   0  0  0  0  0  0  0  0  0  0  0  0
   40.2570   28.0670   39.6080 H   0  0  0  0  0  0  0  0  0  0  0  0
   39.6890   26.6990   39.5720 H   0  0  0  0  0  0  0  0  0  0  0  0
   38.8340   24.5440   42.5180 C   0  0  0  0  0  0  0  0  0  0  0  0
   37.5470   24.0900   42.5980 F   0  0  0  0  0  0  0  0  0  0  0  0
   39.5980   24.0830   43.5780 F   0  0  0  0  0  0  0  0  0  0  0  0
   39.4890   24.0280   41.3790 F   0  0  0  0  0  0  0  0  0  0  0  0
   38.5910   30.1760   41.9050 C   0  0  0  0  0  0  0  0  0  0  0  0
   37.9160   30.6250   42.6630 H   0  0  0  0  0  0  0  0  0  0  0  0
   38.0430   30.2960   40.9250 H   0  0  0  0  0  0  0  0  0  0  0  0
   39.8680   30.9250   41.8130 C   0  0  0  0  0  0  0  0  0  0  0  0
   40.6410   30.3070   41.3130 H   0  0  0  0  0  0  0  0  0  0  0  0
   40.1640   31.3500   42.7620 H   0  0  0  0  0  0  0  0  0  0  0  0
   43.3910   31.8940   39.3050 C   0  0  0  0  0  0  0  0  0  0  0  0
   42.2570   32.2590   38.7280 C   0  0  0  0  0  0  0  0  0  0  0  0
   41.0490   32.2760   39.4810 N   0  0  0  0  0  0  0  0  0  0  0  0
   39.6610   31.8660   39.4790 C   0  0  0  0  0  0  0  0  0  0  0  0
   38.8020   31.4450   38.6280 O   0  0  0  0  0  0  0  0  0  0  0  0
   39.6530   32.1480   40.9200 C   0  0  2  0  0  3  0  0  0  0  0  0
   40.9440   32.9050   40.7990 C   0  0  1  0  0  3  0  0  0  0  0  0
   42.3100   32.2960   41.8020 S   0  0  0  0  0  0  0  0  0  0  0  0
   43.4960   31.4640   40.7210 C   0  0  0  0  0  3  0  0  0  0  0  0
   44.5460   31.6610   41.0740 H   0  0  0  0  0  0  0  0  0  0  0  0
   44.6120   31.9110   38.4770 C   0  0  0  0  0  2  0  0  0  0  0  0
   44.5600   31.1750   37.6470 H   0  0  0  0  0  0  0  0  0  0  0  0
   42.2190   32.6640   37.3060 C   0  0  0  0  0  0  0  0  0  0  0  0
   42.0800   31.8830   36.3350 O   0  0  0  0  0  0  0  0  0  0  0  0
   42.3280   33.9290   36.8250 O   0  0  0  0  0  0  0  0  0  0  0  0
   41.6450   34.2870   36.1720 H   0  0  0  0  0  0  0  0  0  0  0  0
  1  6  1  0  0  0  0
  1  7  1  0  0  0  0
  2  1  2  0  0  0  0
  3  4  2  0  0  0  0
  3  2  1  0  0  0  0
  4  5  1  0  0  0  0
  5 27  1  0  0  0  0
  5  6  2  0  0  0  0
  8  9  1  0  0  0  0
  8  3  1  0  0  0  0
  9 18  1  0  0  0  0
 10 19  1  0  0  0  0
 10  9  2  0  0  0  0
 11 10  1  0  0  0  0
 12 11  2  0  0  0  0
 12 17  1  0  0  0  0
 13 12  1  0  0  0  0
 14 13  2  0  0  0  0
 14 15  1  0  0  0  0
 15 16  2  0  0  0  0
 16 17  1  0  0  0  0
 16 24  1  0  0  0  0
 17  8  2  0  0  0  0
 20 11  1  0  0  0  0
 21 13  1  0  0  0  0
 22 14  1  0  0  0  0
 23 15  1  0  0  0  0
 24 26  1  0  0  0  0
 24 25  1  0  0  0  0
 27 28  1  0  0  0  0
 27 29  1  0  0  0  0
 30 27  1  0  0  0  0
 31  2  1  0  0  0  0
 31 32  1  0  0  0  0
 33 31  1  0  0  0  0
 34 31  1  0  0  0  0
 34 36  1  0  0  0  0
 35 34  1  0  0  0  0
 37 45  1  0  0  0  0
 38 37  2  0  0  0  0
 38 39  1  0  0  0  0
 39 43  1  0  0  0  0
 40 39  1  0  0  0  0
 40 42  1  0  0  0  0
 41 40  2  0  0  0  0
 42 34  1  1  0  0  0
 43 42  1  0  0  0  0
 43 44  1  1  0  0  0
 45 46  1  0  0  0  0
 45 44  1  0  0  0  0
 47 37  1  0  0  0  0
 48 47  1  0  0  0  0
 49 38  1  0  0  0  0
 50 49  2  0  0  0  0
 51 49  1  0  0  0  0
 52 51  1  0  0  0  0
M  END
>  <minimizedAffinity>
-7.03973722

$$$$

 OpenBabel03252500053D

 52 56  0  0  1  0  0  0  0  0999 V2000
   35.4040   29.4180   38.3660 C   0  0  0  0  0  0  0  0  0  0  0  0
   36.0220   29.3710   39.6110 C   0  0  0  0  0  0  0  0  0  0  0  0
   36.4610   28.1450   40.1160 C   0  0  0  0  0  0  0  0  0  0  0  0
   36.2240   27.0910   39.2980 N   0  0  0  0  0  0  0  0  0  0  0  0
   35.6360   27.1410   38.1170 C   0  0  0  0  0  0  0  0  0  0  0  0
   35.2330   28.3130   37.6680 N   0  0  0  0  0  0  0  0  0  0  0  0
   35.0810   30.3890   38.0170 H   0  0  0  0  0  0  0  0  0  0  0  0
   37.1070   27.9360   41.3580 C   0  0  0  0  0  0  0  0  0  0  0  0
   36.2970   27.8460   42.4800 C   0  0  0  0  0  0  0  0  0  0  0  0
   36.7510   27.6440   43.7650 C   0  0  0  0  0  0  0  0  0  0  0  0
   38.0860   27.5180   44.0050 C   0  0  0  0  0  0  0  0  0  0  0  0
   38.9470   27.5970   42.9380 C   0  0  0  0  0  0  0  0  0  0  0  0
   40.2960   27.4800   43.1010 C   0  0  0  0  0  0  0  0  0  0  0  0
   41.1950   27.5530   42.0690 C   0  0  0  0  0  0  0  0  0  0  0  0
   40.6630   27.7610   40.7860 C   0  0  0  0  0  0  0  0  0  0  0  0
   39.2940   27.8730   40.6580 C   0  0  0  0  0  0  0  0  0  0  0  0
   38.4260   27.8000   41.6740 C   0  0  0  0  0  0  0  0  0  0  0  0
   35.2050   27.9340   42.4090 H   0  0  0  0  0  0  0  0  0  0  0  0
   36.0830   27.5810   44.6130 H   0  0  0  0  0  0  0  0  0  0  0  0
   38.4470   27.3620   44.9900 H   0  0  0  0  0  0  0  0  0  0  0  0
   40.6390   27.3210   44.1240 H   0  0  0  0  0  0  0  0  0  0  0  0
   42.2570   27.4570   42.2430 H   0  0  0  0  0  0  0  0  0  0  0  0
   41.3940   27.8130   40.0050 H   0  0  0  0  0  0  0  0  0  0  0  0
   38.9350   28.0940   39.2890 N   0  0  0  0  0  0  0  0  0  0  0  0
   38.7780   27.4740   38.4660 H   0  0  0  0  0  0  0  0  0  0  0  0
   38.7340   28.9340   38.7090 H   0  0  0  0  0  0  0  0  0  0  0  0
   35.5090   25.8120   37.4300 C   0  0  0  0  0  0  0  0  0  0  0  0
   35.9370   25.8800   36.1340 F   0  0  0  0  0  0  0  0  0  0  0  0
   34.2010   25.3630   37.5050 F   0  0  0  0  0  0  0  0  0  0  0  0
   36.2400   24.8500   38.1600 F   0  0  0  0  0  0  0  0  0  0  0  0
   36.2650   30.5430   40.4620 C   0  0  0  0  0  0  0  0  0  0  0  0
   36.0020   30.3190   41.5170 H   0  0  0  0  0  0  0  0  0  0  0  0
   35.5190   31.3290   40.1420 H   0  0  0  0  0  0  0  0  0  0  0  0
   37.6240   31.1310   40.3620 C   0  0  0  0  0  0  0  0  0  0  0  0
   38.3870   30.3290   40.3070 H   0  0  0  0  0  0  0  0  0  0  0  0
   37.8020   31.8830   41.1180 H   0  0  0  0  0  0  0  0  0  0  0  0
   41.5800   33.0330   39.7560 C   0  0  0  0  0  0  0  0  0  0  0  0
   41.0020   32.7180   38.6080 C   0  0  0  0  0  0  0  0  0  0  0  0
   39.6280   32.3450   38.5830 N   0  0  0  0  0  0  0  0  0  0  0  0
   38.6880   31.3640   38.0840 C   0  0  0  0  0  0  0  0  0  0  0  0
   38.6730   30.4330   37.2050 O   0  0  0  0  0  0  0  0  0  0  0  0
   37.7230   31.9080   39.0480 C   0  0  2  0  0  3  0  0  0  0  0  0
   38.5830   33.1210   39.2550 C   0  0  1  0  0  3  0  0  0  0  0  0
   39.1300   33.4190   40.9450 S   0  0  0  0  0  0  0  0  0  0  0  0
   40.8850   33.0050   41.0670 C   0  0  0  0  0  3  0  0  0  0  0  0
   41.4060   33.7230   41.7590 H   0  0  0  0  0  0  0  0  0  0  0  0
   43.0020   33.4240   39.7170 C   0  0  0  0  0  2  0  0  0  0  0  0
   43.6530   32.5880   39.3840 H   0  0  0  0  0  0  0  0  0  0  0  0
   41.7560   32.7540   37.3370 C   0  0  0  0  0  0  0  0  0  0  0  0
   42.1300   31.7470   36.6900 O   0  0  0  0  0  0  0  0  0  0  0  0
   42.1630   33.8650   36.6720 O   0  0  0  0  0  0  0  0  0  0  0  0
   41.9590   33.9750   35.6890 H   0  0  0  0  0  0  0  0  0  0  0  0
  1  2  1  0  0  0  0
  2  3  2  0  0  0  0
  2 31  1  0  0  0  0
  3  8  1  0  0  0  0
  4  3  1  0  0  0  0
  5  4  2  0  0  0  0
  6  5  1  0  0  0  0
  6  1  2  0  0  0  0
  7  1  1  0  0  0  0
  8 17  2  0  0  0  0
  8  9  1  0  0  0  0
  9 10  2  0  0  0  0
 10 11  1  0  0  0  0
 10 19  1  0  0  0  0
 11 20  1  0  0  0  0
 12 13  1  0  0  0  0
 12 11  2  0  0  0  0
 13 21  1  0  0  0  0
 14 22  1  0  0  0  0
 14 13  2  0  0  0  0
 15 14  1  0  0  0  0
 16 15  2  0  0  0  0
 16 17  1  0  0  0  0
 17 12  1  0  0  0  0
 18  9  1  0  0  0  0
 23 15  1  0  0  0  0
 24 16  1  0  0  0  0
 25 24  1  0  0  0  0
 26 24  1  0  0  0  0
 27 29  1  0  0  0  0
 27  5  1  0  0  0  0
 27 30  1  0  0  0  0
 28 27  1  0  0  0  0
 31 32  1  0  0  0  0
 33 31  1  0  0  0  0
 34 31  1  0  0  0  0
 34 36  1  0  0  0  0
 35 34  1  0  0  0  0
 37 45  1  0  0  0  0
 38 37  2  0  0  0  0
 39 38  1  0  0  0  0
 39 43  1  0  0  0  0
 40 39  1  0  0  0  0
 40 42  1  0  0  0  0
 41 40  2  0  0  0  0
 42 43  1  0  0  0  0
 42 34  1  1  0  0  0
 43 44  1  1  0  0  0
 44 45  1  0  0  0  0
 45 46  1  0  0  0  0
 47 37  1  0  0  0  0
 48 47  1  0  0  0  0
 49 38  1  0  0  0  0
 50 49  2  0  0  0  0
 51 49  1  0  0  0  0
 52 51  1  0  0  0  0
M  END
>  <minimizedAffinity>
-6.96715736

$$$$

 OpenBabel03252500053D

 52 56  0  0  1  0  0  0  0  0999 V2000
   36.9410   29.4650   36.8780 C   0  0  0  0  0  0  0  0  0  0  0  0
   37.3750   29.0040   38.1170 C   0  0  0  0  0  0  0  0  0  0  0  0
   36.4390   28.5520   39.0490 C   0  0  0  0  0  0  0  0  0  0  0  0
   35.1550   28.6150   38.6230 N   0  0  0  0  0  0  0  0  0  0  0  0
   34.7480   29.0540   37.4460 C   0  0  0  0  0  0  0  0  0  0  0  0
   35.6560   29.4740   36.5880 N   0  0  0  0  0  0  0  0  0  0  0  0
   37.7020   29.8050   36.1900 H   0  0  0  0  0  0  0  0  0  0  0  0
   36.7230   28.0520   40.3430 C   0  0  0  0  0  0  0  0  0  0  0  0
   36.9070   28.9870   41.3520 C   0  0  0  0  0  0  0  0  0  0  0  0
   37.1880   28.6830   42.6660 C   0  0  0  0  0  0  0  0  0  0  0  0
   37.3060   27.3830   43.0550 C   0  0  0  0  0  0  0  0  0  0  0  0
   37.1350   26.4050   42.1080 C   0  0  0  0  0  0  0  0  0  0  0  0
   37.2390   25.0820   42.4240 C   0  0  0  0  0  0  0  0  0  0  0  0
   37.0790   24.0690   41.5140 C   0  0  0  0  0  0  0  0  0  0  0  0
   36.7940   24.4500   40.1920 C   0  0  0  0  0  0  0  0  0  0  0  0
   36.6960   25.7970   39.9100 C   0  0  0  0  0  0  0  0  0  0  0  0
   36.8540   26.7770   40.8060 C   0  0  0  0  0  0  0  0  0  0  0  0
   36.8370   30.0650   41.1550 H   0  0  0  0  0  0  0  0  0  0  0  0
   37.3260   29.4460   43.4200 H   0  0  0  0  0  0  0  0  0  0  0  0
   37.5220   27.1380   44.0640 H   0  0  0  0  0  0  0  0  0  0  0  0
   37.4630   24.8590   43.4670 H   0  0  0  0  0  0  0  0  0  0  0  0
   37.1700   23.0340   41.8070 H   0  0  0  0  0  0  0  0  0  0  0  0
   36.6750   23.6340   39.5110 H   0  0  0  0  0  0  0  0  0  0  0  0
   36.4160   25.9970   38.5190 N   0  0  0  0  0  0  0  0  0  0  0  0
   35.5480   25.9980   37.9410 H   0  0  0  0  0  0  0  0  0  0  0  0
   36.9920   26.1910   37.6740 H   0  0  0  0  0  0  0  0  0  0  0  0
   33.2610   29.0070   37.2460 C   0  0  0  0  0  0  0  0  0  0  0  0
   32.8590   29.9090   36.3000 F   0  0  0  0  0  0  0  0  0  0  0  0
   32.6130   29.2190   38.4510 F   0  0  0  0  0  0  0  0  0  0  0  0
   32.8910   27.6920   36.8890 F   0  0  0  0  0  0  0  0  0  0  0  0
   38.7820   28.9470   38.5360 C   0  0  0  0  0  0  0  0  0  0  0  0
   39.4020   28.4670   37.7500 H   0  0  0  0  0  0  0  0  0  0  0  0
   38.8250   28.2350   39.4100 H   0  0  0  0  0  0  0  0  0  0  0  0
   39.3690   30.2400   38.9660 C   0  0  0  0  0  0  0  0  0  0  0  0
   40.2520   30.0650   39.6130 H   0  0  0  0  0  0  0  0  0  0  0  0
   38.6270   30.9120   39.3750 H   0  0  0  0  0  0  0  0  0  0  0  0
   42.5760   33.1580   39.8850 C   0  0  0  0  0  0  0  0  0  0  0  0
   42.6930   32.6620   38.6640 C   0  0  0  0  0  0  0  0  0  0  0  0
   41.6220   31.9190   38.0910 N   0  0  0  0  0  0  0  0  0  0  0  0
   41.2850   30.7010   37.3860 C   0  0  0  0  0  0  0  0  0  0  0  0
   41.9020   29.7790   36.7460 O   0  0  0  0  0  0  0  0  0  0  0  0
   39.8840   30.9780   37.7290 C   0  0  2  0  0  3  0  0  0  0  0  0
   40.2350   32.3890   38.1060 C   0  0  1  0  0  3  0  0  0  0  0  0
   39.8420   32.8730   39.7950 S   0  0  0  0  0  0  0  0  0  0  0  0
   41.3780   32.9710   40.7410 C   0  0  0  0  0  3  0  0  0  0  0  0
   41.3290   33.8250   41.4720 H   0  0  0  0  0  0  0  0  0  0  0  0
   43.7140   33.9300   40.4180 C   0  0  0  0  0  2  0  0  0  0  0  0
   44.6210   33.3020   40.5400 H   0  0  0  0  0  0  0  0  0  0  0  0
   43.9210   32.8740   37.8680 C   0  0  0  0  0  0  0  0  0  0  0  0
   44.9220   32.1180   37.8670 O   0  0  0  0  0  0  0  0  0  0  0  0
   44.1650   33.9060   37.0200 O   0  0  0  0  0  0  0  0  0  0  0  0
   44.4790   33.7280   36.0770 H   0  0  0  0  0  0  0  0  0  0  0  0
  1  2  1  0  0  0  0
  2 31  1  0  0  0  0
  2  3  2  0  0  0  0
  3  8  1  0  0  0  0
  4  3  1  0  0  0  0
  5  4  2  0  0  0  0
  6  1  2  0  0  0  0
  6  5  1  0  0  0  0
  7  1  1  0  0  0  0
  8 17  2  0  0  0  0
  8  9  1  0  0  0  0
  9 10  2  0  0  0  0
 10 11  1  0  0  0  0
 10 19  1  0  0  0  0
 11 20  1  0  0  0  0
 12 13  1  0  0  0  0
 12 11  2  0  0  0  0
 13 21  1  0  0  0  0
 14 22  1  0  0  0  0
 14 13  2  0  0  0  0
 15 14  1  0  0  0  0
 16 15  2  0  0  0  0
 16 17  1  0  0  0  0
 17 12  1  0  0  0  0
 18  9  1  0  0  0  0
 23 15  1  0  0  0  0
 24 16  1  0  0  0  0
 25 24  1  0  0  0  0
 26 24  1  0  0  0  0
 27  5  1  0  0  0  0
 27 29  1  0  0  0  0
 28 27  1  0  0  0  0
 30 27  1  0  0  0  0
 31 34  1  0  0  0  0
 31 33  1  0  0  0  0
 32 31  1  0  0  0  0
 34 36  1  0  0  0  0
 34 35  1  0  0  0  0
 37 47  1  0  0  0  0
 37 45  1  0  0  0  0
 38 37  2  0  0  0  0
 39 43  1  0  0  0  0
 39 38  1  0  0  0  0
 40 42  1  0  0  0  0
 40 39  1  0  0  0  0
 41 40  2  0  0  0  0
 42 43  1  0  0  0  0
 42 34  1  1  0  0  0
 43 44  1  1  0  0  0
 44 45  1  0  0  0  0
 45 46  1  0  0  0  0
 47 48  1  0  0  0  0
 49 38  1  0  0  0  0
 50 49  2  0  0  0  0
 51 49  1  0  0  0  0
 52 51  1  0  0  0  0
M  END
>  <minimizedAffinity>
-6.96219969

$$$$

 OpenBabel03252500053D

 52 56  0  0  1  0  0  0  0  0999 V2000
   38.3510   28.2150   42.1830 C   0  0  0  0  0  0  0  0  0  0  0  0
   37.5980   28.7520   41.1440 C   0  0  0  0  0  0  0  0  0  0  0  0
   36.8270   27.9060   40.3430 C   0  0  0  0  0  0  0  0  0  0  0  0
   36.9030   26.5980   40.6850 N   0  0  0  0  0  0  0  0  0  0  0  0
   37.6190   26.0920   41.6710 C   0  0  0  0  0  0  0  0  0  0  0  0
   38.3360   26.9160   42.4090 N   0  0  0  0  0  0  0  0  0  0  0  0
   38.9320   28.9090   42.7750 H   0  0  0  0  0  0  0  0  0  0  0  0
   36.0090   28.3010   39.2570 C   0  0  0  0  0  0  0  0  0  0  0  0
   34.7090   28.6820   39.5550 C   0  0  0  0  0  0  0  0  0  0  0  0
   33.7770   29.0950   38.6280 C   0  0  0  0  0  0  0  0  0  0  0  0
   34.1060   29.1500   37.3080 C   0  0  0  0  0  0  0  0  0  0  0  0
   35.3780   28.7870   36.9410 C   0  0  0  0  0  0  0  0  0  0  0  0
   35.7800   28.8150   35.6370 C   0  0  0  0  0  0  0  0  0  0  0  0
   37.0370   28.4610   35.2220 C   0  0  0  0  0  0  0  0  0  0  0  0
   37.9360   28.0500   36.2200 C   0  0  0  0  0  0  0  0  0  0  0  0
   37.4960   28.0340   37.5270 C   0  0  0  0  0  0  0  0  0  0  0  0
   36.2660   28.3820   37.9210 C   0  0  0  0  0  0  0  0  0  0  0  0
   34.3310   28.6770   40.5860 H   0  0  0  0  0  0  0  0  0  0  0  0
   32.7720   29.3830   38.9050 H   0  0  0  0  0  0  0  0  0  0  0  0
   33.3970   29.4670   36.5850 H   0  0  0  0  0  0  0  0  0  0  0  0
   35.0300   29.1440   34.9170 H   0  0  0  0  0  0  0  0  0  0  0  0
   37.3130   28.4980   34.1790 H   0  0  0  0  0  0  0  0  0  0  0  0
   38.9070   27.7810   35.8590 H   0  0  0  0  0  0  0  0  0  0  0  0
   38.5370   27.5770   38.4000 N   0  0  0  0  0  0  0  0  0  0  0  0
   39.3480   28.0330   38.8700 H   0  0  0  0  0  0  0  0  0  0  0  0
   38.7970   26.6590   38.8150 H   0  0  0  0  0  0  0  0  0  0  0  0
   37.5090   24.6030   41.8200 C   0  0  0  0  0  0  0  0  0  0  0  0
   36.2650   24.2370   42.2530 F   0  0  0  0  0  0  0  0  0  0  0  0
   38.4960   24.1370   42.6720 F   0  0  0  0  0  0  0  0  0  0  0  0
   37.8180   23.9980   40.5810 F   0  0  0  0  0  0  0  0  0  0  0  0
   37.5410   30.1830   40.8130 C   0  0  0  0  0  0  0  0  0  0  0  0
   36.9950   30.7420   41.6010 H   0  0  0  0  0  0  0  0  0  0  0  0
   36.8900   30.2710   39.8950 H   0  0  0  0  0  0  0  0  0  0  0  0
   38.8480   30.8180   40.5130 C   0  0  0  0  0  0  0  0  0  0  0  0
   39.6630   30.0690   40.5750 H   0  0  0  0  0  0  0  0  0  0  0  0
   39.0080   31.7180   41.0900 H   0  0  0  0  0  0  0  0  0  0  0  0
   42.0000   33.8110   39.6530 C   0  0  0  0  0  0  0  0  0  0  0  0
   41.6860   33.1010   38.5810 C   0  0  0  0  0  0  0  0  0  0  0  0
   40.5220   32.2810   38.5870 N   0  0  0  0  0  0  0  0  0  0  0  0
   40.0170   30.9600   38.2800 C   0  0  0  0  0  0  0  0  0  0  0  0
   40.4050   29.9300   37.6260 O   0  0  0  0  0  0  0  0  0  0  0  0
   38.8290   31.3130   39.0660 C   0  0  2  0  0  3  0  0  0  0  0  0
   39.2150   32.7640   39.0350 C   0  0  1  0  0  3  0  0  0  0  0  0
   39.4460   33.5510   40.6380 S   0  0  0  0  0  0  0  0  0  0  0  0
   41.2150   33.7980   40.9120 C   0  0  0  0  0  3  0  0  0  0  0  0
   41.3920   34.7710   41.4490 H   0  0  0  0  0  0  0  0  0  0  0  0
   43.2100   34.6520   39.5810 C   0  0  0  0  0  2  0  0  0  0  0  0
   44.1320   34.0440   39.4630 H   0  0  0  0  0  0  0  0  0  0  0  0
   42.5210   33.1490   37.3610 C   0  0  0  0  0  0  0  0  0  0  0  0
   43.2080   32.1990   36.9180 O   0  0  0  0  0  0  0  0  0  0  0  0
   42.6780   34.2130   36.5330 O   0  0  0  0  0  0  0  0  0  0  0  0
   42.5450   34.1090   35.5380 H   0  0  0  0  0  0  0  0  0  0  0  0
  1  6  1  0  0  0  0
  1  7  1  0  0  0  0
  2  1  2  0  0  0  0
  3  4  2  0  0  0  0
  3  2  1  0  0  0  0
  4  5  1  0  0  0  0
  5 27  1  0  0  0  0
  5  6  2  0  0  0  0
  8  9  1  0  0  0  0
  8  3  1  0  0  0  0
  9 18  1  0  0  0  0
 10 19  1  0  0  0  0
 10  9  2  0  0  0  0
 11 10  1  0  0  0  0
 12 11  2  0  0  0  0
 12 17  1  0  0  0  0
 13 12  1  0  0  0  0
 14 13  2  0  0  0  0
 14 15  1  0  0  0  0
 15 16  2  0  0  0  0
 16 17  1  0  0  0  0
 16 24  1  0  0  0  0
 17  8  2  0  0  0  0
 20 11  1  0  0  0  0
 21 13  1  0  0  0  0
 22 14  1  0  0  0  0
 23 15  1  0  0  0  0
 24 26  1  0  0  0  0
 24 25  1  0  0  0  0
 27 28  1  0  0  0  0
 27 29  1  0  0  0  0
 30 27  1  0  0  0  0
 31  2  1  0  0  0  0
 31 32  1  0  0  0  0
 33 31  1  0  0  0  0
 34 35  1  0  0  0  0
 34 31  1  0  0  0  0
 34 36  1  0  0  0  0
 37 45  1  0  0  0  0
 38 39  1  0  0  0  0
 38 37  2  0  0  0  0
 39 43  1  0  0  0  0
 40 39  1  0  0  0  0
 40 42  1  0  0  0  0
 41 40  2  0  0  0  0
 42 34  1  1  0  0  0
 43 42  1  0  0  0  0
 43 44  1  1  0  0  0
 44 45  1  0  0  0  0
 45 46  1  0  0  0  0
 47 37  1  0  0  0  0
 48 47  1  0  0  0  0
 49 38  1  0  0  0  0
 50 49  2  0  0  0  0
 51 49  1  0  0  0  0
 52 51  1  0  0  0  0
M  END
>  <minimizedAffinity>
-6.80460405

$$$$

 OpenBabel03252500053D

 52 56  0  0  1  0  0  0  0  0999 V2000
   35.5370   28.7350   38.8000 C   0  0  0  0  0  0  0  0  0  0  0  0
   36.3150   29.6960   39.4360 C   0  0  0  0  0  0  0  0  0  0  0  0
   37.0470   30.6060   38.6710 C   0  0  0  0  0  0  0  0  0  0  0  0
   36.9110   30.4430   37.3330 N   0  0  0  0  0  0  0  0  0  0  0  0
   36.1710   29.5290   36.7330 C   0  0  0  0  0  0  0  0  0  0  0  0
   35.4920   28.6840   37.4830 N   0  0  0  0  0  0  0  0  0  0  0  0
   34.9880   28.0520   39.4340 H   0  0  0  0  0  0  0  0  0  0  0  0
   37.8780   31.6390   39.1690 C   0  0  0  0  0  0  0  0  0  0  0  0
   37.2710   32.8560   39.4430 C   0  0  0  0  0  0  0  0  0  0  0  0
   37.9210   33.9680   39.9330 C   0  0  0  0  0  0  0  0  0  0  0  0
   39.2600   33.9210   40.1820 C   0  0  0  0  0  0  0  0  0  0  0  0
   39.9250   32.7460   39.9340 C   0  0  0  0  0  0  0  0  0  0  0  0
   41.2650   32.6240   40.1590 C   0  0  0  0  0  0  0  0  0  0  0  0
   41.9720   31.4740   39.9250 C   0  0  0  0  0  0  0  0  0  0  0  0
   41.2460   30.3790   39.4260 C   0  0  0  0  0  0  0  0  0  0  0  0
   39.8930   30.5380   39.2110 C   0  0  0  0  0  0  0  0  0  0  0  0
   39.2130   31.6660   39.4430 C   0  0  0  0  0  0  0  0  0  0  0  0
   36.1970   33.0120   39.2800 H   0  0  0  0  0  0  0  0  0  0  0  0
   37.4080   34.8990   40.1320 H   0  0  0  0  0  0  0  0  0  0  0  0
   39.7700   34.7700   40.5600 H   0  0  0  0  0  0  0  0  0  0  0  0
   41.7640   33.5130   40.5460 H   0  0  0  0  0  0  0  0  0  0  0  0
   43.0340   31.4200   40.1160 H   0  0  0  0  0  0  0  0  0  0  0  0
   41.8310   29.4990   39.2560 H   0  0  0  0  0  0  0  0  0  0  0  0
   39.3230   29.3310   38.6910 N   0  0  0  0  0  0  0  0  0  0  0  0
   38.9670   28.4480   39.1170 H   0  0  0  0  0  0  0  0  0  0  0  0
   39.1050   28.9730   37.7390 H   0  0  0  0  0  0  0  0  0  0  0  0
   36.2080   29.5850   35.2340 C   0  0  0  0  0  0  0  0  0  0  0  0
   35.0130   29.2010   34.6930 F   0  0  0  0  0  0  0  0  0  0  0  0
   37.2500   28.8080   34.7560 F   0  0  0  0  0  0  0  0  0  0  0  0
   36.5520   30.8950   34.8360 F   0  0  0  0  0  0  0  0  0  0  0  0
   36.4280   29.8410   40.8940 C   0  0  0  0  0  0  0  0  0  0  0  0
   35.6190   30.4910   41.2840 H   0  0  0  0  0  0  0  0  0  0  0  0
   37.3790   30.4210   41.0830 H   0  0  0  0  0  0  0  0  0  0  0  0
   36.5070   28.5690   41.6540 C   0  0  0  0  0  0  0  0  0  0  0  0
   37.0680   27.8090   41.0750 H   0  0  0  0  0  0  0  0  0  0  0  0
   35.5400   28.2470   42.0160 H   0  0  0  0  0  0  0  0  0  0  0  0
   40.2630   26.2250   41.8280 C   0  0  0  0  0  0  0  0  0  0  0  0
   40.3610   27.3660   42.4910 C   0  0  0  0  0  0  0  0  0  0  0  0
   39.1910   28.1260   42.7740 N   0  0  0  0  0  0  0  0  0  0  0  0
   38.6150   29.4530   42.7260 C   0  0  0  0  0  0  0  0  0  0  0  0
   39.0260   30.6560   42.5740 O   0  0  0  0  0  0  0  0  0  0  0  0
   37.3100   28.8130   42.9320 C   0  0  2  0  0  3  0  0  0  0  0  0
   37.9800   27.5340   43.3470 C   0  0  1  0  0  3  0  0  0  0  0  0
   37.5710   26.0790   42.3680 S   0  0  0  0  0  0  0  0  0  0  0  0
   38.9840   25.6720   41.3180 C   0  0  0  0  0  3  0  0  0  0  0  0
   39.0920   24.5550   41.2290 H   0  0  0  0  0  0  0  0  0  0  0  0
   41.5090   25.4750   41.5770 C   0  0  0  0  0  2  0  0  0  0  0  0
   42.2050   26.0360   40.9170 H   0  0  0  0  0  0  0  0  0  0  0  0
   41.6700   27.8680   42.9600 C   0  0  0  0  0  0  0  0  0  0  0  0
   42.3410   28.7680   42.4010 O   0  0  0  0  0  0  0  0  0  0  0  0
   42.3520   27.4440   44.0550 O   0  0  0  0  0  0  0  0  0  0  0  0
   42.6930   28.1100   44.7330 H   0  0  0  0  0  0  0  0  0  0  0  0
  1  7  1  0  0  0  0
  1  2  1  0  0  0  0
  2 31  1  0  0  0  0
  3  8  1  0  0  0  0
  3  2  2  0  0  0  0
  4  3  1  0  0  0  0
  5  4  2  0  0  0  0
  5  6  1  0  0  0  0
  6  1  2  0  0  0  0
  8 17  2  0  0  0  0
  8  9  1  0  0  0  0
  9 10  2  0  0  0  0
 10 19  1  0  0  0  0
 10 11  1  0  0  0  0
 11 20  1  0  0  0  0
 12 13  1  0  0  0  0
 12 11  2  0  0  0  0
 13 21  1  0  0  0  0
 14 22  1  0  0  0  0
 14 13  2  0  0  0  0
 15 14  1  0  0  0  0
 16 15  2  0  0  0  0
 16 17  1  0  0  0  0
 17 12  1  0  0  0  0
 18  9  1  0  0  0  0
 23 15  1  0  0  0  0
 24 25  1  0  0  0  0
 24 16  1  0  0  0  0
 26 24  1  0  0  0  0
 27  5  1  0  0  0  0
 28 27  1  0  0  0  0
 29 27  1  0  0  0  0
 30 27  1  0  0  0  0
 31 33  1  0  0  0  0
 31 32  1  0  0  0  0
 31 34  1  0  0  0  0
 34 36  1  0  0  0  0
 35 34  1  0  0  0  0
 37 38  2  0  0  0  0
 38 39  1  0  0  0  0
 38 49  1  0  0  0  0
 39 43  1  0  0  0  0
 40 39  1  0  0  0  0
 40 42  1  0  0  0  0
 41 40  2  0  0  0  0
 42 34  1  6  0  0  0
 42 43  1  0  0  0  0
 43 44  1  6  0  0  0
 45 37  1  0  0  0  0
 45 44  1  0  0  0  0
 46 45  1  0  0  0  0
 47 37  1  0  0  0  0
 48 47  1  0  0  0  0
 49 51  1  0  0  0  0
 50 49  2  0  0  0  0
 51 52  1  0  0  0  0
M  END
>  <minimizedAffinity>
-6.80457449

$$$$

 OpenBabel03252500053D

 52 56  0  0  1  0  0  0  0  0999 V2000
   35.3680   29.2990   38.9910 C   0  0  0  0  0  0  0  0  0  0  0  0
   36.5180   29.7540   39.6280 C   0  0  0  0  0  0  0  0  0  0  0  0
   37.5890   30.2210   38.8630 C   0  0  0  0  0  0  0  0  0  0  0  0
   37.3790   30.1760   37.5260 N   0  0  0  0  0  0  0  0  0  0  0  0
   36.2860   29.7430   36.9260 C   0  0  0  0  0  0  0  0  0  0  0  0
   35.2920   29.3080   37.6740 N   0  0  0  0  0  0  0  0  0  0  0  0
   34.5650   28.9460   39.6230 H   0  0  0  0  0  0  0  0  0  0  0  0
   38.8170   30.7180   39.3630 C   0  0  0  0  0  0  0  0  0  0  0  0
   39.8530   29.8060   39.5050 C   0  0  0  0  0  0  0  0  0  0  0  0
   41.1130   30.1100   39.9720 C   0  0  0  0  0  0  0  0  0  0  0  0
   41.4140   31.3870   40.3370 C   0  0  0  0  0  0  0  0  0  0  0  0
   40.4360   32.3430   40.2220 C   0  0  0  0  0  0  0  0  0  0  0  0
   40.6640   33.6430   40.5680 C   0  0  0  0  0  0  0  0  0  0  0  0
   39.7200   34.6310   40.4730 C   0  0  0  0  0  0  0  0  0  0  0  0
   38.4570   34.2500   39.9880 C   0  0  0  0  0  0  0  0  0  0  0  0
   38.2630   32.9280   39.6470 C   0  0  0  0  0  0  0  0  0  0  0  0
   39.1920   31.9720   39.7440 C   0  0  0  0  0  0  0  0  0  0  0  0
   39.7250   28.7470   39.2430 H   0  0  0  0  0  0  0  0  0  0  0  0
   41.8910   29.3660   40.0680 H   0  0  0  0  0  0  0  0  0  0  0  0
   42.3810   31.6330   40.6980 H   0  0  0  0  0  0  0  0  0  0  0  0
   41.6660   33.8660   40.9370 H   0  0  0  0  0  0  0  0  0  0  0  0
   39.9430   35.6480   40.7590 H   0  0  0  0  0  0  0  0  0  0  0  0
   37.7460   35.0480   39.9270 H   0  0  0  0  0  0  0  0  0  0  0  0
   36.9200   32.7220   39.1890 N   0  0  0  0  0  0  0  0  0  0  0  0
   36.4350   32.8410   38.2740 H   0  0  0  0  0  0  0  0  0  0  0  0
   36.0340   32.4040   39.6310 H   0  0  0  0  0  0  0  0  0  0  0  0
   36.3310   29.8110   35.4270 C   0  0  0  0  0  0  0  0  0  0  0  0
   37.2140   28.9020   34.9150 F   0  0  0  0  0  0  0  0  0  0  0  0
   36.6410   31.0990   35.0200 F   0  0  0  0  0  0  0  0  0  0  0  0
   35.0300   29.6000   34.9220 F   0  0  0  0  0  0  0  0  0  0  0  0
   36.7000   29.7910   41.0850 C   0  0  0  0  0  0  0  0  0  0  0  0
   35.9940   30.5110   41.5470 H   0  0  0  0  0  0  0  0  0  0  0  0
   37.7220   30.2340   41.2660 H   0  0  0  0  0  0  0  0  0  0  0  0
   36.6430   28.4730   41.7650 C   0  0  0  0  0  0  0  0  0  0  0  0
   37.1390   27.6990   41.1460 H   0  0  0  0  0  0  0  0  0  0  0  0
   35.6440   28.2250   42.0950 H   0  0  0  0  0  0  0  0  0  0  0  0
   40.4090   26.1410   41.6540 C   0  0  0  0  0  0  0  0  0  0  0  0
   40.5010   27.1910   42.4540 C   0  0  0  0  0  0  0  0  0  0  0  0
   39.3280   27.9060   42.8270 N   0  0  0  0  0  0  0  0  0  0  0  0
   38.7460   29.2260   42.9420 C   0  0  0  0  0  0  0  0  0  0  0  0
   39.1530   30.4400   42.9410 O   0  0  0  0  0  0  0  0  0  0  0  0
   37.4430   28.5610   43.0660 C   0  0  2  0  0  3  0  0  0  0  0  0
   38.1180   27.2430   43.3200 C   0  0  1  0  0  3  0  0  0  0  0  0
   37.7170   25.9180   42.1680 S   0  0  0  0  0  0  0  0  0  0  0  0
   39.1330   25.6500   41.0780 C   0  0  0  0  0  3  0  0  0  0  0  0
   39.2460   24.5530   40.8520 H   0  0  0  0  0  0  0  0  0  0  0  0
   41.6580   25.4330   41.3150 C   0  0  0  0  0  2  0  0  0  0  0  0
   42.3530   26.0730   40.7310 H   0  0  0  0  0  0  0  0  0  0  0  0
   41.8080   27.6360   42.9830 C   0  0  0  0  0  0  0  0  0  0  0  0
   42.3260   27.2410   44.0550 O   0  0  0  0  0  0  0  0  0  0  0  0
   42.6490   28.5330   42.4070 O   0  0  0  0  0  0  0  0  0  0  0  0
   43.6230   28.3040   42.2700 H   0  0  0  0  0  0  0  0  0  0  0  0
  1  7  1  0  0  0  0
  1  2  1  0  0  0  0
  2 31  1  0  0  0  0
  3  8  1  0  0  0  0
  3  2  2  0  0  0  0
  4  3  1  0  0  0  0
  5  4  2  0  0  0  0
  5  6  1  0  0  0  0
  6  1  2  0  0  0  0
  8  9  2  0  0  0  0
  8 17  1  0  0  0  0
  9 10  1  0  0  0  0
 10 19  1  0  0  0  0
 10 11  2  0  0  0  0
 11 20  1  0  0  0  0
 12 11  1  0  0  0  0
 12 13  1  0  0  0  0
 13 21  1  0  0  0  0
 14 13  2  0  0  0  0
 14 22  1  0  0  0  0
 15 14  1  0  0  0  0
 16 17  1  0  0  0  0
 16 15  2  0  0  0  0
 17 12  2  0  0  0  0
 18  9  1  0  0  0  0
 23 15  1  0  0  0  0
 24 26  1  0  0  0  0
 24 16  1  0  0  0  0
 25 24  1  0  0  0  0
 27  5  1  0  0  0  0
 28 27  1  0  0  0  0
 29 27  1  0  0  0  0
 30 27  1  0  0  0  0
 31 33  1  0  0  0  0
 31 32  1  0  0  0  0
 31 34  1  0  0  0  0
 34 36  1  0  0  0  0
 35 34  1  0  0  0  0
 37 38  2  0  0  0  0
 38 39  1  0  0  0  0
 38 49  1  0  0  0  0
 39 40  1  0  0  0  0
 39 43  1  0  0  0  0
 40 42  1  0  0  0  0
 41 40  2  0  0  0  0
 42 34  1  6  0  0  0
 42 43  1  0  0  0  0
 43 44  1  6  0  0  0
 45 37  1  0  0  0  0
 45 44  1  0  0  0  0
 46 45  1  0  0  0  0
 47 37  1  0  0  0  0
 48 47  1  0  0  0  0
 49 50  2  0  0  0  0
 51 49  1  0  0  0  0
 52 51  1  0  0  0  0
M  END
>  <minimizedAffinity>
-6.77096748

$$$$
