
 OpenBabel03242514173D

 48 52  0  0  1  0  0  0  0  0999 V2000
   46.4770   34.3140   43.8500 C   0  0  0  0  0  0  0  0  0  0  0  0
   46.0410   33.9980   45.1310 C   0  0  0  0  0  0  0  0  0  0  0  0
   44.9690   34.7400   45.6020 C   0  0  0  0  0  0  0  0  0  0  0  0
   44.4190   35.7120   44.8040 N   0  0  0  0  0  0  0  0  0  0  0  0
   44.8600   35.9900   43.5830 C   0  0  0  0  0  0  0  0  0  0  0  0
   45.8810   35.2840   43.1330 N   0  0  0  0  0  0  0  0  0  0  0  0
   44.4610   34.6800   46.5510 H   0  0  0  0  0  0  0  0  0  0  0  0
   44.3930   36.7650   42.9920 H   0  0  0  0  0  0  0  0  0  0  0  0
   47.6380   33.5520   43.3900 C   0  0  0  0  0  0  0  0  0  0  0  0
   48.7190   34.3180   42.7950 C   0  0  0  0  0  0  0  0  0  0  0  0
   48.9190   34.0360   41.3670 C   0  0  0  0  0  0  0  0  0  0  0  0
   49.1850   32.5560   41.1270 C   0  0  0  0  0  0  0  0  0  0  0  0
   48.2810   31.6690   41.8960 C   0  0  0  0  0  0  0  0  0  0  0  0
   47.1210   32.4310   42.5000 C   0  0  0  0  0  0  0  0  0  0  0  0
   48.0740   32.9470   44.2410 H   0  0  0  0  0  0  0  0  0  0  0  0
   49.7200   34.2320   43.2960 H   0  0  0  0  0  0  0  0  0  0  0  0
   48.4820   35.4100   42.9000 H   0  0  0  0  0  0  0  0  0  0  0  0
   48.0440   34.2870   40.7260 H   0  0  0  0  0  0  0  0  0  0  0  0
   49.8230   34.5860   41.0050 H   0  0  0  0  0  0  0  0  0  0  0  0
   49.1480   32.3940   40.0220 H   0  0  0  0  0  0  0  0  0  0  0  0
   50.2370   32.3110   41.4080 H   0  0  0  0  0  0  0  0  0  0  0  0
   48.7810   31.0570   42.6610 H   0  0  0  0  0  0  0  0  0  0  0  0
   47.8120   30.9520   41.1700 H   0  0  0  0  0  0  0  0  0  0  0  0
   46.5530   31.7040   43.1160 H   0  0  0  0  0  0  0  0  0  0  0  0
   46.5160   32.8710   41.6960 H   0  0  0  0  0  0  0  0  0  0  0  0
   46.4120   33.1360   46.0310 O   0  0  0  0  0  0  0  0  0  0  0  0
   45.8120   32.4140   47.0300 C   0  0  0  0  0  0  0  0  0  0  0  0
   46.3870   32.6700   47.9760 H   0  0  0  0  0  0  0  0  0  0  0  0
   44.7790   32.6280   47.2920 H   0  0  0  0  0  0  0  0  0  0  0  0
   45.9650   30.9290   46.8970 C   0  0  0  0  0  0  0  0  0  0  0  0
   45.1740   30.3900   47.4450 H   0  0  0  0  0  0  0  0  0  0  0  0
   46.9140   30.6730   47.4550 H   0  0  0  0  0  0  0  0  0  0  0  0
   46.0640   27.0460   47.5290 C   0  0  0  0  0  0  0  0  0  0  0  0
   47.0310   27.4660   46.7590 C   0  0  0  0  0  0  0  0  0  0  0  0
   46.9320   28.6150   45.9670 N   0  0  0  0  0  0  0  0  0  0  0  0
   47.4880   29.7950   45.3910 C   0  0  2  0  0  0  0  0  0  0  0  0
   48.6820   30.0360   45.0030 O   0  0  0  0  0  1  0  0  0  0  0  0
   46.1130   30.4090   45.5110 C   0  0  1  0  0  3  0  0  0  0  0  0
   45.7020   28.9710   45.2890 C   0  0  2  0  0  0  0  0  0  0  0  0
   44.2190   28.5790   46.2200 S   0  0  0  0  0  0  0  0  0  0  0  0
   44.7520   27.6840   47.6940 C   0  0  0  0  0  3  0  0  0  0  0  0
   44.6990   28.3200   48.6160 H   0  0  0  0  0  0  0  0  0  0  0  0
   46.3210   25.8210   48.2990 C   0  0  0  0  0  2  0  0  0  0  0  0
   46.8390   26.1100   49.2550 H   0  0  0  0  0  0  0  0  0  0  0  0
   48.2590   26.6820   46.7430 C   0  0  0  0  0  0  0  0  0  0  0  0
   48.9590   26.4840   45.7010 O   0  0  0  0  0  0  0  0  0  0  0  0
   49.3740   25.9170   46.9520 O   0  0  0  0  0  0  0  0  0  0  0  0
   49.6810   25.6010   47.8860 H   0  0  0  0  0  0  0  0  0  0  0  0
  1  2  1  0  0  0  0
  2  3  2  0  0  0  0
  2 26  1  0  0  0  0
  3  7  1  0  0  0  0
  4  3  1  0  0  0  0
  5  4  2  0  0  0  0
  6  5  1  0  0  0  0
  6  1  2  0  0  0  0
  8  5  1  0  0  0  0
  9  1  1  0  0  0  0
  9 15  1  0  0  0  0
 10 17  1  0  0  0  0
 10 16  1  0  0  0  0
 10  9  1  0  0  0  0
 11 10  1  0  0  0  0
 12 11  1  0  0  0  0
 12 21  1  0  0  0  0
 12 13  1  0  0  0  0
 13 14  1  0  0  0  0
 13 22  1  0  0  0  0
 14 24  1  0  0  0  0
 14  9  1  0  0  0  0
 18 11  1  0  0  0  0
 19 11  1  0  0  0  0
 20 12  1  0  0  0  0
 23 13  1  0  0  0  0
 25 14  1  0  0  0  0
 26 27  1  0  0  0  0
 27 29  1  0  0  0  0
 27 28  1  0  0  0  0
 30 27  1  0  0  0  0
 30 31  1  0  0  0  0
 30 32  1  0  0  0  0
 33 41  1  0  0  0  0
 33 43  1  0  0  0  0
 34 33  2  0  0  0  0
 35 34  1  0  0  0  0
 36 37  1  6  0  0  0
 36 38  1  0  0  0  0
 36 35  1  0  0  0  0
 38 30  1  1  0  0  0
 39 36  1  0  0  0  0
 39 38  1  0  0  0  0
 39 35  1  0  0  0  0
 39 40  1  6  0  0  0
 40 41  1  0  0  0  0
 41 42  1  0  0  0  0
 43 44  1  0  0  0  0
 45 34  1  0  0  0  0
 45 47  1  0  0  0  0
 46 45  2  0  0  0  0
 47 48  1  0  0  0  0
M  END
>  <minimizedAffinity>
-4.87310839

>  <minimizedRMSD>
0.969018221

$$$$
