
 OpenBabel03242523293D

 29 31  0  0  1  0  0  0  0  0999 V2000
   46.2360   29.1400   46.6070 C   0  0  0  0  0  0  0  0  0  0  0  0
   47.2870   28.3260   46.5560 C   0  0  0  0  0  0  0  0  0  0  0  0
   47.2930   27.1180   47.3040 N   0  0  0  0  0  0  0  0  0  0  0  0
   48.0770   26.3220   48.2260 C   0  0  0  0  0  0  0  0  0  0  0  0
   49.2830   26.2310   48.6400 O   0  0  0  0  0  0  0  0  0  0  0  0
   46.8150   25.5780   48.5380 C   0  0  0  0  0  3  0  0  0  0  0  0
   47.0430   24.4790   48.4020 H   0  0  0  0  0  0  0  0  0  0  0  0
   46.1800   26.1520   47.2890 C   0  0  1  0  0  3  0  0  0  0  0  0
   44.6610   27.0710   47.5070 S   0  0  0  0  0  0  0  0  0  0  0  0
   45.0560   28.8350   47.4480 C   0  0  0  0  0  3  0  0  0  0  0  0
   45.1810   29.2520   48.4880 H   0  0  0  0  0  0  0  0  0  0  0  0
   48.4840   28.6030   45.7330 C   0  0  0  0  0  0  0  0  0  0  0  0
   48.8810   27.9670   44.7230 O   0  0  0  0  0  0  0  0  0  0  0  0
   49.6240   29.2960   45.3850 O   0  0  0  0  0  0  0  0  0  0  0  0
   49.6040   30.2710   45.0450 H   0  0  0  0  0  0  0  0  0  0  0  0
   46.3000   30.3610   45.7940 C   0  0  0  0  0  2  0  0  0  0  0  0
   46.8760   31.8230   46.6480 S   0  0  0  0  0  0  0  0  0  0  0  0
   45.5800   33.0220   47.0210 C   0  0  0  0  0  0  0  0  0  0  0  0
   44.6130   32.5980   47.2820 H   0  0  0  0  0  0  0  0  0  0  0  0
   45.9910   33.6800   47.8410 H   0  0  0  0  0  0  0  0  0  0  0  0
   44.5920   35.7810   44.7040 C   0  0  0  0  0  0  0  0  0  0  0  0
   45.3750   35.4890   43.5970 C   0  0  0  0  0  0  0  0  0  0  0  0
   46.2140   34.3840   43.6410 C   0  0  0  0  0  0  0  0  0  0  0  0
   46.2490   33.6180   44.7610 N   0  0  0  0  0  0  0  0  0  0  0  0
   45.4630   33.9300   45.8420 C   0  0  0  0  0  0  0  0  0  0  0  0
   44.6660   34.9930   45.7800 N   0  0  0  0  0  0  0  0  0  0  0  0
   43.9610   36.6430   44.6230 H   0  0  0  0  0  0  0  0  0  0  0  0
   45.4150   36.0450   42.6560 H   0  0  0  0  0  0  0  0  0  0  0  0
   46.8690   34.0720   42.8210 H   0  0  0  0  0  0  0  0  0  0  0  0
  1 10  1  0  0  0  0
  2  1  2  0  0  0  0
  2  3  1  0  0  0  0
  3  4  1  0  0  0  0
  4  6  1  0  0  0  0
  4  5  2  0  0  0  0
  7  6  1  0  0  0  0
  8  3  1  0  0  0  0
  8  9  1  1  0  0  0
  8  6  1  0  0  0  0
 10  9  1  0  0  0  0
 10 11  1  0  0  0  0
 12  2  1  0  0  0  0
 13 12  2  0  0  0  0
 14 12  1  0  0  0  0
 15 14  1  0  0  0  0
 16  1  1  0  0  0  0
 16 17  1  0  0  0  0
 17 18  1  0  0  0  0
 18 19  1  0  0  0  0
 18 20  1  0  0  0  0
 21 26  1  0  0  0  0
 22 23  1  0  0  0  0
 22 21  2  0  0  0  0
 23 24  2  0  0  0  0
 24 25  1  0  0  0  0
 25 18  1  0  0  0  0
 26 25  2  0  0  0  0
 27 21  1  0  0  0  0
 28 22  1  0  0  0  0
 29 23  1  0  0  0  0
M  END
>  <minimizedAffinity>
-3.85950518

>  <minimizedRMSD>
2.95644879

$$$$
