
 OpenBabel03242523293D

 29 31  0  0  1  0  0  0  0  0999 V2000
   46.5370   30.6270   43.0270 C   0  0  0  0  0  0  0  0  0  0  0  0
   45.7220   31.1710   42.1270 C   0  0  0  0  0  0  0  0  0  0  0  0
   46.0640   31.1560   40.7480 N   0  0  0  0  0  0  0  0  0  0  0  0
   46.1740   31.9850   39.5660 C   0  0  0  0  0  0  0  0  0  0  0  0
   45.7800   33.1260   39.1460 O   0  0  0  0  0  0  0  0  0  0  0  0
   47.0050   30.8920   38.9680 C   0  0  0  0  0  3  0  0  0  0  0  0
   46.5440   30.6430   37.9670 H   0  0  0  0  0  0  0  0  0  0  0  0
   46.5060   29.9430   40.0380 C   0  0  1  0  0  3  0  0  0  0  0  0
   47.7470   29.1450   41.0490 S   0  0  0  0  0  0  0  0  0  0  0  0
   47.8250   30.0120   42.6350 C   0  0  0  0  0  3  0  0  0  0  0  0
   48.6560   30.7730   42.6340 H   0  0  0  0  0  0  0  0  0  0  0  0
   44.4320   31.8010   42.4830 C   0  0  0  0  0  0  0  0  0  0  0  0
   43.2840   31.2900   42.4120 O   0  0  0  0  0  0  0  0  0  0  0  0
   43.6280   32.8280   42.9350 O   0  0  0  0  0  0  0  0  0  0  0  0
   43.6610   33.1780   43.9060 H   0  0  0  0  0  0  0  0  0  0  0  0
   46.1040   30.6690   44.4280 C   0  0  0  0  0  2  0  0  0  0  0  0
   46.9790   31.8320   45.4690 S   0  0  0  0  0  0  0  0  0  0  0  0
   45.9300   33.1000   46.2090 C   0  0  0  0  0  0  0  0  0  0  0  0
   44.9980   32.7420   46.6380 H   0  0  0  0  0  0  0  0  0  0  0  0
   46.5730   33.6310   46.9700 H   0  0  0  0  0  0  0  0  0  0  0  0
   44.5200   35.9580   44.2590 C   0  0  0  0  0  0  0  0  0  0  0  0
   45.3430   35.9470   43.1420 C   0  0  0  0  0  0  0  0  0  0  0  0
   46.3480   34.9930   43.0580 C   0  0  0  0  0  0  0  0  0  0  0  0
   46.5010   34.0970   44.0660 N   0  0  0  0  0  0  0  0  0  0  0  0
   45.6730   34.1300   45.1590 C   0  0  0  0  0  0  0  0  0  0  0  0
   44.7160   35.0520   45.2210 N   0  0  0  0  0  0  0  0  0  0  0  0
   43.7590   36.7120   44.2790 H   0  0  0  0  0  0  0  0  0  0  0  0
   45.2950   36.6250   42.2860 H   0  0  0  0  0  0  0  0  0  0  0  0
   47.0460   34.9030   42.2200 H   0  0  0  0  0  0  0  0  0  0  0  0
  1 16  1  0  0  0  0
  2 12  1  0  0  0  0
  2  1  2  0  0  0  0
  3  2  1  0  0  0  0
  4  3  1  0  0  0  0
  5  4  2  0  0  0  0
  6  4  1  0  0  0  0
  7  6  1  0  0  0  0
  8  6  1  6  0  0  0
  8  3  1  0  0  0  0
  8  9  1  0  0  0  0
  9 10  1  0  0  0  0
 10  1  1  0  0  0  0
 11 10  1  0  0  0  0
 12 14  1  0  0  0  0
 13 12  2  0  0  0  0
 14 15  1  0  0  0  0
 16 17  1  0  0  0  0
 17 18  1  0  0  0  0
 18 19  1  0  0  0  0
 18 20  1  0  0  0  0
 21 27  1  0  0  0  0
 21 26  1  0  0  0  0
 22 21  2  0  0  0  0
 23 22  1  0  0  0  0
 23 24  2  0  0  0  0
 24 25  1  0  0  0  0
 25 26  2  0  0  0  0
 25 18  1  0  0  0  0
 28 22  1  0  0  0  0
 29 23  1  0  0  0  0
M  END
>  <minimizedAffinity>
-3.73836136

>  <minimizedRMSD>
1.0028007

$$$$
