
     RDKit          3D

 34 36  0  0  0  0  0  0  0  0999 V2000
   44.5232   36.0058   44.5236 C   0  0  0  0  0  0  0  0  0  0  0  0
   45.2147   35.8793   43.3288 C   0  0  0  0  0  0  0  0  0  0  0  0
   46.1081   34.8261   43.1792 C   0  0  0  0  0  0  0  0  0  0  0  0
   46.2821   33.9504   44.2013 N   0  0  0  0  0  0  0  0  0  0  0  0
   45.5838   34.1004   45.3735 C   0  0  0  0  0  0  0  0  0  0  0  0
   44.7329   35.1152   45.4967 N   0  0  0  0  0  0  0  0  0  0  0  0
   45.8517   33.0810   46.4314 C   0  0  0  0  0  0  0  0  0  0  0  0
   46.5265   31.6218   45.6105 S   0  0  0  0  0  0  0  0  0  0  0  0
   43.8448   36.8333   44.5932 H   0  0  0  0  0  0  0  0  0  0  0  0
   45.1414   36.5319   42.4552 H   0  0  0  0  0  0  0  0  0  0  0  0
   46.7002   34.6408   42.2767 H   0  0  0  0  0  0  0  0  0  0  0  0
   44.9661   32.9078   47.0366 H   0  0  0  0  0  0  0  0  0  0  0  0
   46.7001   33.5195   47.0327 H   0  0  0  0  0  0  0  0  0  0  0  0
   45.3758   30.7968   44.5168 C   0  0  0  0  0  0  0  0  0  0  0  0
   45.8319   29.5110   43.9756 C   0  0  0  0  0  0  0  0  0  0  0  0
   45.9293   29.4153   42.6519 C   0  0  0  0  0  0  0  0  0  0  0  0
   45.6047   30.5290   41.7350 C   0  0  0  0  0  0  0  0  0  0  0  0
   45.6719   30.5305   40.4791 O   0  0  0  0  0  0  0  0  0  0  0  0
   45.1915   31.8083   41.4243 O   0  0  0  0  0  0  0  0  0  0  0  0
   46.3503   28.1972   42.0523 N   0  0  0  0  0  0  0  0  0  0  0  0
   47.2668   27.6322   41.0840 C   0  0  0  0  0  0  0  0  0  0  0  0
   48.0040   28.0146   40.1120 O   0  0  0  0  0  0  0  0  0  0  0  0
   46.9945   26.3018   41.7162 C   0  0  1  0  0  0  0  0  0  0  0  0
   46.6920   25.6001   40.8825 H   0  0  0  0  0  0  0  0  0  0  0  0
   45.7722   26.8855   42.3934 C   0  0  1  0  0  0  0  0  0  0  0  0
   45.7069   26.7694   44.1765 S   0  0  0  0  0  0  0  0  0  0  0  0
   46.1732   28.3769   44.8640 C   0  0  1  0  0  0  0  0  0  0  0  0
   47.2647   28.3917   45.1412 H   0  0  0  0  0  0  0  0  0  0  0  0
   44.4270   30.6423   45.1168 H   0  0  0  0  0  0  0  0  0  0  0  0
   45.0765   31.5187   43.7354 H   0  0  0  0  0  0  0  0  0  0  0  0
   44.2302   32.1438   41.6007 H   0  0  0  0  0  0  0  0  0  0  0  0
   47.7654   25.9287   42.3940 H   0  0  0  0  0  0  0  0  0  0  0  0
   44.8378   26.6673   41.8466 H   0  0  0  0  0  0  0  0  0  0  0  0
   45.6136   28.4792   45.8213 H   0  0  0  0  0  0  0  0  0  0  0  0
  1  6  2  0
  2  1  1  0
  3  2  2  0
  3  4  1  0
  4  5  2  0
  5  6  1  0
  5  7  1  0
  8  7  1  0
  1  9  1  0
  2 10  1  0
  3 11  1  0
  7 12  1  0
  7 13  1  0
 14 15  1  0
 15 16  2  0
 16 17  1  0
 17 18  2  0
 17 19  1  0
 16 20  1  0
 20 21  1  0
 21 22  2  0
 21 23  1  0
 23 24  1  6
 23 25  1  0
 25 26  1  0
 26 27  1  0
 27 28  1  1
 27 15  1  0
 25 20  1  0
 14 29  1  0
 14 30  1  0
 19 31  1  0
 23 32  1  0
 25 33  1  6
 27 34  1  0
  8 14  1  0
M  ISO  7   9  14  10  14  11  14  12   8  13   8  24  15  28  15
M  END
>  <DihAtoms>  (1) 
6,7,13,14

>  <DihDeg>  (1) 
-67.13124208584534

$$$$
