
 OpenBabel03242523293D

 29 31  0  0  1  0  0  0  0  0999 V2000
   46.2040   29.3920   46.1080 C   0  0  0  0  0  0  0  0  0  0  0  0
   47.2010   28.5150   46.1960 C   0  0  0  0  0  0  0  0  0  0  0  0
   47.0370   27.3190   46.9470 N   0  0  0  0  0  0  0  0  0  0  0  0
   47.6490   26.4920   47.9670 C   0  0  0  0  0  0  0  0  0  0  0  0
   48.7850   26.3330   48.5310 O   0  0  0  0  0  0  0  0  0  0  0  0
   46.3150   25.8290   48.1220 C   0  0  0  0  0  3  0  0  0  0  0  0
   46.4890   24.7160   48.0220 H   0  0  0  0  0  0  0  0  0  0  0  0
   45.8780   26.4220   46.7980 C   0  0  1  0  0  3  0  0  0  0  0  0
   44.4040   27.4340   46.8160 S   0  0  0  0  0  0  0  0  0  0  0  0
   44.9110   29.1710   46.7970 C   0  0  0  0  0  3  0  0  0  0  0  0
   44.9300   29.5930   47.8410 H   0  0  0  0  0  0  0  0  0  0  0  0
   48.5070   28.7060   45.5300 C   0  0  0  0  0  0  0  0  0  0  0  0
   48.9540   28.0890   44.5290 O   0  0  0  0  0  0  0  0  0  0  0  0
   49.7430   29.2920   45.3560 O   0  0  0  0  0  0  0  0  0  0  0  0
   49.8600   30.2820   45.0830 H   0  0  0  0  0  0  0  0  0  0  0  0
   46.4460   30.5940   45.3020 C   0  0  0  0  0  2  0  0  0  0  0  0
   46.9390   32.0490   46.2200 S   0  0  0  0  0  0  0  0  0  0  0  0
   45.5790   33.1580   46.6380 C   0  0  0  0  0  0  0  0  0  0  0  0
   44.6290   32.6720   46.8470 H   0  0  0  0  0  0  0  0  0  0  0  0
   45.9400   33.7790   47.5080 H   0  0  0  0  0  0  0  0  0  0  0  0
   44.5500   36.0470   44.5040 C   0  0  0  0  0  0  0  0  0  0  0  0
   45.3180   35.8250   43.3710 C   0  0  0  0  0  0  0  0  0  0  0  0
   46.1620   34.7230   43.3370 C   0  0  0  0  0  0  0  0  0  0  0  0
   46.2140   33.8910   44.4080 N   0  0  0  0  0  0  0  0  0  0  0  0
   45.4430   34.1350   45.5170 C   0  0  0  0  0  0  0  0  0  0  0  0
   44.6410   35.1960   45.5300 N   0  0  0  0  0  0  0  0  0  0  0  0
   43.9140   36.9090   44.4840 H   0  0  0  0  0  0  0  0  0  0  0  0
   45.3430   36.4370   42.4650 H   0  0  0  0  0  0  0  0  0  0  0  0
   46.8070   34.4630   42.4910 H   0  0  0  0  0  0  0  0  0  0  0  0
  1  2  2  0  0  0  0
  1 10  1  0  0  0  0
  2  3  1  0  0  0  0
  3  4  1  0  0  0  0
  4  6  1  0  0  0  0
  4  5  2  0  0  0  0
  7  6  1  0  0  0  0
  8  9  1  1  0  0  0
  8  3  1  0  0  0  0
  8  6  1  0  0  0  0
 10  9  1  0  0  0  0
 10 11  1  0  0  0  0
 12  2  1  0  0  0  0
 13 12  2  0  0  0  0
 14 12  1  0  0  0  0
 15 14  1  0  0  0  0
 16  1  1  0  0  0  0
 16 17  1  0  0  0  0
 17 18  1  0  0  0  0
 18 19  1  0  0  0  0
 18 20  1  0  0  0  0
 21 26  1  0  0  0  0
 22 21  2  0  0  0  0
 23 22  1  0  0  0  0
 23 24  2  0  0  0  0
 24 25  1  0  0  0  0
 25 26  2  0  0  0  0
 25 18  1  0  0  0  0
 27 21  1  0  0  0  0
 28 22  1  0  0  0  0
 29 23  1  0  0  0  0
M  END
>  <minimizedAffinity>
-3.8242898

>  <minimizedRMSD>
3.14247394

$$$$
