
     RDKit          3D

 34 36  0  0  0  0  0  0  0  0999 V2000
   44.5232   36.0058   44.5236 C   0  0  0  0  0  0  0  0  0  0  0  0
   45.2147   35.8793   43.3288 C   0  0  0  0  0  0  0  0  0  0  0  0
   46.1081   34.8261   43.1792 C   0  0  0  0  0  0  0  0  0  0  0  0
   46.2821   33.9504   44.2013 N   0  0  0  0  0  0  0  0  0  0  0  0
   45.5838   34.1004   45.3735 C   0  0  0  0  0  0  0  0  0  0  0  0
   44.7329   35.1152   45.4967 N   0  0  0  0  0  0  0  0  0  0  0  0
   45.8517   33.0810   46.4314 C   0  0  0  0  0  0  0  0  0  0  0  0
   46.5265   31.6218   45.6105 S   0  0  0  0  0  0  0  0  0  0  0  0
   43.8448   36.8333   44.5932 H   0  0  0  0  0  0  0  0  0  0  0  0
   45.1414   36.5319   42.4552 H   0  0  0  0  0  0  0  0  0  0  0  0
   46.7002   34.6408   42.2767 H   0  0  0  0  0  0  0  0  0  0  0  0
   44.9661   32.9078   47.0366 H   0  0  0  0  0  0  0  0  0  0  0  0
   46.7001   33.5195   47.0327 H   0  0  0  0  0  0  0  0  0  0  0  0
   45.3758   30.7968   44.5168 C   0  0  0  0  0  0  0  0  0  0  0  0
   45.5068   31.1330   43.0941 C   0  0  0  0  0  0  0  0  0  0  0  0
   44.4464   31.6793   42.5044 C   0  0  0  0  0  0  0  0  0  0  0  0
   43.1783   31.9527   43.2139 C   0  0  0  0  0  0  0  0  0  0  0  0
   42.1326   32.4677   42.7415 O   0  0  0  0  0  0  0  0  0  0  0  0
   42.3393   31.9618   44.3093 O   0  0  0  0  0  0  0  0  0  0  0  0
   44.4917   32.0192   41.1248 N   0  0  0  0  0  0  0  0  0  0  0  0
   44.2214   33.0809   40.1780 C   0  0  0  0  0  0  0  0  0  0  0  0
   43.5756   34.1828   40.1185 O   0  0  0  0  0  0  0  0  0  0  0  0
   45.0676   32.3224   39.2021 C   0  0  1  0  0  0  0  0  0  0  0  0
   44.4510   32.1997   38.2620 H   0  0  0  0  0  0  0  0  0  0  0  0
   44.9568   31.0921   40.0782 C   0  0  1  0  0  0  0  0  0  0  0  0
   46.4896   30.3640   40.6416 S   0  0  0  0  0  0  0  0  0  0  0  0
   46.7639   30.8808   42.3538 C   0  0  1  0  0  0  0  0  0  0  0  0
   47.4475   31.7748   42.3970 H   0  0  0  0  0  0  0  0  0  0  0  0
   45.5445   29.6857   44.6626 H   0  0  0  0  0  0  0  0  0  0  0  0
   44.3573   30.9609   44.9129 H   0  0  0  0  0  0  0  0  0  0  0  0
   41.9868   31.0967   44.7509 H   0  0  0  0  0  0  0  0  0  0  0  0
   46.0829   32.6981   39.0578 H   0  0  0  0  0  0  0  0  0  0  0  0
   44.1718   30.3950   39.7355 H   0  0  0  0  0  0  0  0  0  0  0  0
   47.3180   30.0486   42.8443 H   0  0  0  0  0  0  0  0  0  0  0  0
  1  6  2  0
  2  1  1  0
  3  2  2  0
  3  4  1  0
  4  5  2  0
  5  6  1  0
  5  7  1  0
  8  7  1  0
  1  9  1  0
  2 10  1  0
  3 11  1  0
  7 12  1  0
  7 13  1  0
 14 15  1  0
 15 16  2  0
 16 17  1  0
 17 18  2  0
 17 19  1  0
 16 20  1  0
 20 21  1  0
 21 22  2  0
 21 23  1  0
 23 24  1  6
 23 25  1  0
 25 26  1  0
 26 27  1  0
 27 28  1  6
 27 15  1  0
 25 20  1  0
 14 29  1  0
 14 30  1  0
 19 31  1  0
 23 32  1  0
 25 33  1  6
 27 34  1  0
  8 14  1  0
M  ISO  7   9  14  10  14  11  14  12   8  13   8  24  15  28  15
M  END
>  <DihAtoms>  (1) 
6,7,13,14

>  <DihDeg>  (1) 
-67.13124208584534

$$$$
