
 OpenBabel03242513583D

 48 53  0  0  1  0  0  0  0  0999 V2000
   45.0310   34.7430   44.9730 C   0  0  0  0  0  0  0  0  0  0  0  0
   45.6990   34.6620   43.7600 C   0  0  0  0  0  0  0  0  0  0  0  0
   46.7790   33.7670   43.6720 C   0  0  0  0  0  0  0  0  0  0  0  0
   47.1030   33.0490   44.7610 N   0  0  0  0  0  0  0  0  0  0  0  0
   46.4360   33.1480   45.9300 C   0  0  0  0  0  0  0  0  0  0  0  0
   45.3900   34.0120   46.0190 N   0  0  0  0  0  0  0  0  0  0  0  0
   44.2150   35.4530   44.9570 H   0  0  0  0  0  0  0  0  0  0  0  0
   47.3560   33.6400   42.7640 H   0  0  0  0  0  0  0  0  0  0  0  0
   46.7500   32.3920   47.1310 C   0  0  0  0  0  0  0  0  0  0  0  0
   45.8130   32.2540   48.1650 C   0  0  0  0  0  0  0  0  0  0  0  0
   46.3950   31.4890   49.1650 C   0  0  0  0  0  0  0  0  0  0  0  0
   47.6530   31.1830   48.7220 N   0  0  0  0  0  0  0  0  0  0  0  0
   47.8330   31.7310   47.5160 N   0  0  0  0  0  0  0  0  0  0  0  0
   44.8130   32.6470   48.2300 H   0  0  0  0  0  0  0  0  0  0  0  0
   45.9290   31.2010   50.1010 H   0  0  0  0  0  0  0  0  0  0  0  0
   48.6060   30.3890   49.4700 C   0  0  0  0  0  0  0  0  0  0  0  0
   49.9930   30.8990   49.3200 C   0  0  0  0  0  0  0  0  0  0  0  0
   50.9100   30.2710   48.6100 C   0  0  0  0  0  0  0  0  0  0  0  0
   52.2180   30.7970   48.4980 N   0  0  0  0  0  0  0  0  0  0  0  0
   53.3470   31.0460   47.6770 C   0  0  0  0  0  0  0  0  0  0  0  0
   53.7000   30.7800   46.4770 O   0  0  0  0  0  0  0  0  0  0  0  0
   54.0190   31.7780   48.7800 C   0  0  0  0  0  0  0  0  0  0  0  0
   54.9570   31.2410   49.0970 H   0  0  0  0  0  0  0  0  0  0  0  0
   52.8730   31.4080   49.6670 C   0  0  1  0  0  0  0  0  0  0  0  0
   51.7950   32.7890   50.1370 S   0  0  0  0  0  0  0  0  0  0  0  0
   50.0980   32.1630   50.0780 C   0  0  0  0  0  0  0  0  0  0  0  0
   49.7670   32.0230   51.1280 H   0  0  0  0  0  0  0  0  0  0  0  0
   50.5890   29.0270   47.9310 C   0  0  0  0  0  0  0  0  0  0  0  0
   51.2600   27.9750   48.0690 O   0  0  0  0  0  0  0  0  0  0  0  0
   50.0170   28.0570   47.1610 O   0  0  0  0  0  0  0  0  0  0  0  0
   49.0000   27.9470   47.0960 H   0  0  0  0  0  0  0  0  0  0  0  0
   45.3870   35.3900   42.6250 O   0  0  0  0  0  0  0  0  0  0  0  0
   44.4340   35.0210   41.6770 C   0  0  0  0  0  0  0  0  0  0  0  0
   44.6220   34.1610   40.6210 C   0  0  0  0  0  0  0  0  0  0  0  0
   43.5660   33.8990   39.7650 C   0  0  0  0  0  0  0  0  0  0  0  0
   42.3230   34.4730   39.9350 C   0  0  0  0  0  0  0  0  0  0  0  0
   41.3480   34.1780   39.0750 N   0  0  0  0  0  0  0  0  0  0  0  0
   40.1200   34.7030   39.1870 C   0  0  0  0  0  0  0  0  0  0  0  0
   39.9000   35.5660   40.2320 C   0  0  0  0  0  0  0  0  0  0  0  0
   40.9190   35.8880   41.1520 C   0  0  0  0  0  0  0  0  0  0  0  0
   42.1580   35.3230   40.9910 C   0  0  0  0  0  0  0  0  0  0  0  0
   43.2020   35.6170   41.8840 C   0  0  0  0  0  0  0  0  0  0  0  0
   45.6080   33.7330   40.5210 H   0  0  0  0  0  0  0  0  0  0  0  0
   43.7310   33.2130   38.9290 H   0  0  0  0  0  0  0  0  0  0  0  0
   39.3700   34.4380   38.4740 H   0  0  0  0  0  0  0  0  0  0  0  0
   38.9070   35.9920   40.3270 H   0  0  0  0  0  0  0  0  0  0  0  0
   40.6980   36.5700   41.9540 H   0  0  0  0  0  0  0  0  0  0  0  0
   42.9410   36.3010   42.6700 H   0  0  0  0  0  0  0  0  0  0  0  0
  1  6  1  0  0  0  0
  2  1  2  0  0  0  0
  3  2  1  0  0  0  0
  3  4  2  0  0  0  0
  4  5  1  0  0  0  0
  5  6  2  0  0  0  0
  5  9  1  0  0  0  0
  7  1  1  0  0  0  0
  8  3  1  0  0  0  0
  9 13  2  0  0  0  0
  9 10  1  0  0  0  0
 10 14  1  0  0  0  0
 10 11  2  0  0  0  0
 11 15  1  0  0  0  0
 12 11  1  0  0  0  0
 12 16  1  0  0  0  0
 13 12  1  0  0  0  0
 17 16  1  0  0  0  0
 17 26  1  0  0  0  0
 18 17  2  0  0  0  0
 19 18  1  0  0  0  0
 19 24  1  0  0  0  0
 20 19  1  0  0  0  0
 20 22  1  0  0  0  0
 21 20  2  0  0  0  0
 22 23  1  0  0  0  0
 24 22  1  6  0  0  0
 24 25  1  0  0  0  0
 26 25  1  0  0  0  0
 26 27  1  0  0  0  0
 28 29  2  0  0  0  0
 28 18  1  0  0  0  0
 30 28  1  0  0  0  0
 31 30  1  0  0  0  0
 32  2  1  0  0  0  0
 33 42  1  0  0  0  0
 33 32  1  0  0  0  0
 34 33  2  0  0  0  0
 35 36  2  0  0  0  0
 35 34  1  0  0  0  0
 36 41  1  0  0  0  0
 37 38  2  0  0  0  0
 37 36  1  0  0  0  0
 38 39  1  0  0  0  0
 39 46  1  0  0  0  0
 39 40  2  0  0  0  0
 40 47  1  0  0  0  0
 41 40  1  0  0  0  0
 41 42  2  0  0  0  0
 42 48  1  0  0  0  0
 43 34  1  0  0  0  0
 44 35  1  0  0  0  0
 45 38  1  0  0  0  0
M  END
>  <minimizedAffinity>
-7.16475821

>  <minimizedRMSD>
1.10013723

$$$$
