
     RDKit          3D

 34 36  0  0  0  0  0  0  0  0999 V2000
   44.5232   36.0058   44.5236 C   0  0  0  0  0  0  0  0  0  0  0  0
   45.2147   35.8793   43.3288 C   0  0  0  0  0  0  0  0  0  0  0  0
   46.1081   34.8261   43.1792 C   0  0  0  0  0  0  0  0  0  0  0  0
   46.2821   33.9504   44.2013 N   0  0  0  0  0  0  0  0  0  0  0  0
   45.5838   34.1004   45.3735 C   0  0  0  0  0  0  0  0  0  0  0  0
   44.7329   35.1152   45.4967 N   0  0  0  0  0  0  0  0  0  0  0  0
   45.8517   33.0810   46.4314 C   0  0  0  0  0  0  0  0  0  0  0  0
   46.5265   31.6218   45.6105 S   0  0  0  0  0  0  0  0  0  0  0  0
   43.8448   36.8333   44.5932 H   0  0  0  0  0  0  0  0  0  0  0  0
   45.1414   36.5319   42.4552 H   0  0  0  0  0  0  0  0  0  0  0  0
   46.7002   34.6408   42.2767 H   0  0  0  0  0  0  0  0  0  0  0  0
   44.9661   32.9078   47.0366 H   0  0  0  0  0  0  0  0  0  0  0  0
   46.7001   33.5195   47.0327 H   0  0  0  0  0  0  0  0  0  0  0  0
   45.3758   30.7968   44.5168 C   0  0  0  0  0  0  0  0  0  0  0  0
   44.1088   31.5012   44.2873 C   0  0  0  0  0  0  0  0  0  0  0  0
   42.9944   30.8677   44.6443 C   0  0  0  0  0  0  0  0  0  0  0  0
   42.9899   29.5182   45.2485 C   0  0  0  0  0  0  0  0  0  0  0  0
   41.9916   28.8491   45.6194 O   0  0  0  0  0  0  0  0  0  0  0  0
   43.5758   28.3627   45.7233 O   0  0  0  0  0  0  0  0  0  0  0  0
   41.7276   31.4795   44.4400 N   0  0  0  0  0  0  0  0  0  0  0  0
   40.4728   31.8019   45.0868 C   0  0  0  0  0  0  0  0  0  0  0  0
   39.8080   31.4714   46.1277 O   0  0  0  0  0  0  0  0  0  0  0  0
   40.2278   32.7615   43.9629 C   0  0  1  0  0  0  0  0  0  0  0  0
   39.2082   32.5153   43.5400 H   0  0  0  0  0  0  0  0  0  0  0  0
   41.3176   32.0828   43.1598 C   0  0  1  0  0  0  0  0  0  0  0  0
   42.6621   33.1160   42.5926 S   0  0  0  0  0  0  0  0  0  0  0  0
   44.0757   32.8564   43.6918 C   0  0  1  0  0  0  0  0  0  0  0  0
   44.1140   33.6515   44.4885 H   0  0  0  0  0  0  0  0  0  0  0  0
   45.9198   30.6610   43.5320 H   0  0  0  0  0  0  0  0  0  0  0  0
   45.2413   29.7639   44.8858 H   0  0  0  0  0  0  0  0  0  0  0  0
   44.0795   27.6991   45.1120 H   0  0  0  0  0  0  0  0  0  0  0  0
   40.4063   33.8152   44.1875 H   0  0  0  0  0  0  0  0  0  0  0  0
   40.9196   31.3457   42.4401 H   0  0  0  0  0  0  0  0  0  0  0  0
   44.9859   33.0053   43.0677 H   0  0  0  0  0  0  0  0  0  0  0  0
  1  6  2  0
  2  1  1  0
  3  2  2  0
  3  4  1  0
  4  5  2  0
  5  6  1  0
  5  7  1  0
  8  7  1  0
  1  9  1  0
  2 10  1  0
  3 11  1  0
  7 12  1  0
  7 13  1  0
 14 15  1  0
 15 16  2  0
 16 17  1  0
 17 18  2  0
 17 19  1  0
 16 20  1  0
 20 21  1  0
 21 22  2  0
 21 23  1  0
 23 24  1  6
 23 25  1  0
 25 26  1  0
 26 27  1  0
 27 28  1  1
 27 15  1  0
 25 20  1  0
 14 29  1  0
 14 30  1  0
 19 31  1  0
 23 32  1  0
 25 33  1  6
 27 34  1  0
  8 14  1  0
M  ISO  7   9  14  10  14  11  14  12   8  13   8  24  15  28  15
M  END
>  <DihAtoms>  (1) 
6,7,13,14

>  <DihDeg>  (1) 
-67.13124208584534

$$$$
