REMARK  Name = 
REMARK  6 active torsions:
REMARK  status: ('A' for Active; 'I' for Inactive)
REMARK    1  A    between atoms: C_5  and  C_7
REMARK    2  A    between atoms: C_7  and  S_8
REMARK    3  A    between atoms: S_8  and  C_14
REMARK    4  A    between atoms: C_14  and  C_15
REMARK    5  A    between atoms: C_16  and  C_17
REMARK    6  A    between atoms: C_17  and  O_19
REMARK                            x       y       z     vdW  Elec       q    Type
REMARK                         _______ _______ _______ _____ _____    ______ ____
ROOT
ATOM      1  C   UNL     1      44.277  31.630  44.014  0.00  0.00    +0.000 C 
ATOM      2  C   UNL     1      43.040  31.241  44.314  0.00  0.00    +0.000 C 
ATOM      3  N   UNL     1      41.923  31.988  43.850  0.00  0.00    +0.000 N 
ATOM      4  C   UNL     1      40.679  32.602  44.266  0.00  0.00    +0.000 C 
ATOM      5  O   UNL     1      39.862  32.562  45.248  0.00  0.00    +0.000 OA
ATOM      6  C   UNL     1      40.720  33.374  42.983  0.00  0.00    +0.000 C 
ATOM      7  H   UNL     1      39.724  33.211  42.473  0.00  0.00    +0.000 HD
ATOM      8  C   UNL     1      41.759  32.410  42.448  0.00  0.00    +0.000 C 
ATOM      9  S   UNL     1      43.311  33.117  41.910  0.00  0.00    +0.000 S 
ATOM     10  C   UNL     1      44.536  32.848  43.214  0.00  0.00    +0.000 C 
ATOM     11  H   UNL     1      44.623  33.757  43.874  0.00  0.00    +0.000 HD
ENDROOT
BRANCH   2  12
ATOM     12  C   UNL     1      42.745  30.035  45.117  0.00  0.00    +0.000 C 
ATOM     13  O   UNL     1      41.615  29.597  45.452  0.00  0.00    +0.000 OA
BRANCH  12  14
ATOM     14  O   UNL     1      43.074  28.907  45.840  0.00  0.00    +0.000 OA
ATOM     15  H   UNL     1      43.521  28.079  45.413  0.00  0.00    +0.000 HD
ENDBRANCH  12  14
ENDBRANCH   2  12
BRANCH   1  16
ATOM     16  C   UNL     1      45.376  30.797  44.517  0.00  0.00    +0.000 C 
BRANCH  16  17
ATOM     17  S   UNL     1      46.526  31.622  45.611  0.00  0.00    +0.000 S 
BRANCH  17  18
ATOM     18  C   UNL     1      45.852  33.081  46.431  0.00  0.00    +0.000 C 
ATOM     19  H   UNL     1      44.966  32.908  47.037  0.00  0.00    +0.000 HD
ATOM     20  H   UNL     1      46.700  33.520  47.033  0.00  0.00    +0.000 HD
BRANCH  18  25
ATOM     21  C   UNL     1      44.523  36.006  44.524  0.00  0.00    +0.000 A 
ATOM     22  C   UNL     1      45.215  35.879  43.329  0.00  0.00    +0.000 A 
ATOM     23  C   UNL     1      46.108  34.826  43.179  0.00  0.00    +0.000 A 
ATOM     24  N   UNL     1      46.282  33.950  44.201  0.00  0.00    +0.000 NA
ATOM     25  C   UNL     1      45.584  34.100  45.373  0.00  0.00    +0.000 A 
ATOM     26  N   UNL     1      44.733  35.115  45.497  0.00  0.00    +0.000 NA
ATOM     27  H   UNL     1      43.845  36.833  44.593  0.00  0.00    +0.000 HD
ATOM     28  H   UNL     1      45.141  36.532  42.455  0.00  0.00    +0.000 HD
ATOM     29  H   UNL     1      46.700  34.641  42.277  0.00  0.00    +0.000 HD
ENDBRANCH  18  25
ENDBRANCH  17  18
ENDBRANCH  16  17
ENDBRANCH   1  16
TORSDOF 6
