
     RDKit          3D

 34 36  0  0  0  0  0  0  0  0999 V2000
   44.5232   36.0058   44.5236 C   0  0  0  0  0  0  0  0  0  0  0  0
   45.2147   35.8793   43.3288 C   0  0  0  0  0  0  0  0  0  0  0  0
   46.1081   34.8261   43.1792 C   0  0  0  0  0  0  0  0  0  0  0  0
   46.2821   33.9504   44.2013 N   0  0  0  0  0  0  0  0  0  0  0  0
   45.5838   34.1004   45.3735 C   0  0  0  0  0  0  0  0  0  0  0  0
   44.7329   35.1152   45.4967 N   0  0  0  0  0  0  0  0  0  0  0  0
   45.8517   33.0810   46.4314 C   0  0  0  0  0  0  0  0  0  0  0  0
   46.5265   31.6218   45.6105 S   0  0  0  0  0  0  0  0  0  0  0  0
   43.8448   36.8333   44.5932 H   0  0  0  0  0  0  0  0  0  0  0  0
   45.1414   36.5319   42.4552 H   0  0  0  0  0  0  0  0  0  0  0  0
   46.7002   34.6408   42.2767 H   0  0  0  0  0  0  0  0  0  0  0  0
   44.9661   32.9078   47.0366 H   0  0  0  0  0  0  0  0  0  0  0  0
   46.7001   33.5195   47.0327 H   0  0  0  0  0  0  0  0  0  0  0  0
   45.3758   30.7968   44.5168 C   0  0  0  0  0  0  0  0  0  0  0  0
   45.9847   29.9578   43.4778 C   0  0  0  0  0  0  0  0  0  0  0  0
   45.7250   30.2815   42.2135 C   0  0  0  0  0  0  0  0  0  0  0  0
   44.8700   31.4258   41.8315 C   0  0  0  0  0  0  0  0  0  0  0  0
   44.5758   31.8069   40.6695 O   0  0  0  0  0  0  0  0  0  0  0  0
   44.0611   32.5156   42.0801 O   0  0  0  0  0  0  0  0  0  0  0  0
   46.2670   29.5075   41.1516 N   0  0  0  0  0  0  0  0  0  0  0  0
   46.9875   29.5934   39.8984 C   0  0  0  0  0  0  0  0  0  0  0  0
   47.2898   30.4661   39.0143 O   0  0  0  0  0  0  0  0  0  0  0  0
   47.2695   28.1299   40.0480 C   0  0  1  0  0  0  0  0  0  0  0  0
   46.9411   27.6343   39.0859 H   0  0  0  0  0  0  0  0  0  0  0  0
   46.1797   28.0377   41.0956 C   0  0  1  0  0  0  0  0  0  0  0  0
   46.6555   27.4052   42.6989 S   0  0  0  0  0  0  0  0  0  0  0  0
   46.8524   28.8090   43.8234 C   0  0  1  0  0  0  0  0  0  0  0  0
   47.9328   29.1206   43.8885 H   0  0  0  0  0  0  0  0  0  0  0  0
   44.7125   30.1606   45.1797 H   0  0  0  0  0  0  0  0  0  0  0  0
   44.6868   31.5610   44.1137 H   0  0  0  0  0  0  0  0  0  0  0  0
   43.1361   32.4336   42.5332 H   0  0  0  0  0  0  0  0  0  0  0  0
   48.2709   27.8700   40.3976 H   0  0  0  0  0  0  0  0  0  0  0  0
   45.2219   27.6749   40.6825 H   0  0  0  0  0  0  0  0  0  0  0  0
   46.5807   28.4356   44.8367 H   0  0  0  0  0  0  0  0  0  0  0  0
  1  6  2  0
  2  1  1  0
  3  2  2  0
  3  4  1  0
  4  5  2  0
  5  6  1  0
  5  7  1  0
  8  7  1  0
  1  9  1  0
  2 10  1  0
  3 11  1  0
  7 12  1  0
  7 13  1  0
 14 15  1  0
 15 16  2  0
 16 17  1  0
 17 18  2  0
 17 19  1  0
 16 20  1  0
 20 21  1  0
 21 22  2  0
 21 23  1  0
 23 24  1  6
 23 25  1  0
 25 26  1  0
 26 27  1  0
 27 28  1  1
 27 15  1  0
 25 20  1  0
 14 29  1  0
 14 30  1  0
 19 31  1  0
 23 32  1  0
 25 33  1  6
 27 34  1  0
  8 14  1  0
M  ISO  7   9  14  10  14  11  14  12   8  13   8  24  15  28  15
M  END
>  <DihAtoms>  (1) 
6,7,13,14

>  <DihDeg>  (1) 
-67.13124208584534

$$$$
