
     RDKit          3D

 34 36  0  0  0  0  0  0  0  0999 V2000
   44.5232   36.0058   44.5236 C   0  0  0  0  0  0  0  0  0  0  0  0
   45.2147   35.8793   43.3288 C   0  0  0  0  0  0  0  0  0  0  0  0
   46.1081   34.8261   43.1792 C   0  0  0  0  0  0  0  0  0  0  0  0
   46.2821   33.9504   44.2013 N   0  0  0  0  0  0  0  0  0  0  0  0
   45.5838   34.1004   45.3735 C   0  0  0  0  0  0  0  0  0  0  0  0
   44.7329   35.1152   45.4967 N   0  0  0  0  0  0  0  0  0  0  0  0
   45.8517   33.0810   46.4314 C   0  0  0  0  0  0  0  0  0  0  0  0
   46.5265   31.6218   45.6105 S   0  0  0  0  0  0  0  0  0  0  0  0
   43.8448   36.8333   44.5932 H   0  0  0  0  0  0  0  0  0  0  0  0
   45.1414   36.5319   42.4552 H   0  0  0  0  0  0  0  0  0  0  0  0
   46.7002   34.6408   42.2767 H   0  0  0  0  0  0  0  0  0  0  0  0
   44.9661   32.9078   47.0366 H   0  0  0  0  0  0  0  0  0  0  0  0
   46.7001   33.5195   47.0327 H   0  0  0  0  0  0  0  0  0  0  0  0
   45.3758   30.7968   44.5168 C   0  0  0  0  0  0  0  0  0  0  0  0
   45.7115   30.8541   43.0891 C   0  0  0  0  0  0  0  0  0  0  0  0
   44.8268   31.4390   42.2855 C   0  0  0  0  0  0  0  0  0  0  0  0
   43.5548   32.0177   42.7687 C   0  0  0  0  0  0  0  0  0  0  0  0
   42.6668   32.5907   42.0867 O   0  0  0  0  0  0  0  0  0  0  0  0
   42.6181   32.3437   43.7279 O   0  0  0  0  0  0  0  0  0  0  0  0
   45.0745   31.5201   40.8881 N   0  0  0  0  0  0  0  0  0  0  0  0
   45.0886   32.4267   39.7591 C   0  0  0  0  0  0  0  0  0  0  0  0
   44.6475   33.5841   39.4422 O   0  0  0  0  0  0  0  0  0  0  0  0
   45.8937   31.3914   39.0353 C   0  0  1  0  0  0  0  0  0  0  0  0
   45.3684   31.1978   38.0526 H   0  0  0  0  0  0  0  0  0  0  0  0
   45.4851   30.3648   40.0710 C   0  0  1  0  0  0  0  0  0  0  0  0
   46.8050   29.5283   40.9400 S   0  0  0  0  0  0  0  0  0  0  0  0
   46.9795   30.2921   42.5711 C   0  0  1  0  0  0  0  0  0  0  0  0
   47.7954   31.0684   42.5638 H   0  0  0  0  0  0  0  0  0  0  0  0
   45.3387   29.7162   44.8562 H   0  0  0  0  0  0  0  0  0  0  0  0
   44.3633   31.1771   44.7435 H   0  0  0  0  0  0  0  0  0  0  0  0
   42.0802   31.6318   44.2490 H   0  0  0  0  0  0  0  0  0  0  0  0
   46.9672   31.5812   38.9699 H   0  0  0  0  0  0  0  0  0  0  0  0
   44.6348   29.7422   39.7407 H   0  0  0  0  0  0  0  0  0  0  0  0
   47.3305   29.4865   43.2551 H   0  0  0  0  0  0  0  0  0  0  0  0
  1  6  2  0
  2  1  1  0
  3  2  2  0
  3  4  1  0
  4  5  2  0
  5  6  1  0
  5  7  1  0
  8  7  1  0
  1  9  1  0
  2 10  1  0
  3 11  1  0
  7 12  1  0
  7 13  1  0
 14 15  1  0
 15 16  2  0
 16 17  1  0
 17 18  2  0
 17 19  1  0
 16 20  1  0
 20 21  1  0
 21 22  2  0
 21 23  1  0
 23 24  1  6
 23 25  1  0
 25 26  1  0
 26 27  1  0
 27 28  1  6
 27 15  1  0
 25 20  1  0
 14 29  1  0
 14 30  1  0
 19 31  1  0
 23 32  1  0
 25 33  1  6
 27 34  1  0
  8 14  1  0
M  ISO  7   9  14  10  14  11  14  12   8  13   8  24  15  28  15
M  END
>  <DihAtoms>  (1) 
6,7,13,14

>  <DihDeg>  (1) 
-67.13124208584534

$$$$
