
     RDKit          3D

 49 53  0  0  0  0  0  0  0  0999 V2000
   46.5668   32.3999   44.9748 C   0  0  2  0  0  0  0  0  0  0  0  0
   46.8692   31.1595   44.8872 N   0  0  0  0  0  0  0  0  0  0  0  0
   47.9498   30.5187   44.7298 C   0  0  0  0  0  0  0  0  0  0  0  0
   47.9643   30.2109   46.0277 N   0  0  0  0  0  0  0  0  0  0  0  0
   47.1343   30.8820   46.8745 C   0  0  0  0  0  0  0  0  0  0  0  0
   47.0700   30.4031   48.2132 C   0  0  0  0  0  0  0  0  0  0  0  0
   46.2226   31.0390   49.0531 C   0  0  0  0  0  0  0  0  0  0  0  0
   45.4286   32.0945   48.7242 C   0  0  0  0  0  0  0  0  0  0  0  0
   45.5748   32.4745   47.3951 C   0  0  0  0  0  0  0  0  0  0  0  0
   46.3744   31.9790   46.3616 C   0  0  0  0  0  0  0  0  0  0  0  0
   44.6318   35.5529   45.2536 C   0  0  0  0  0  0  0  0  0  0  0  0
   44.3262   35.6590   43.9078 C   0  0  0  0  0  0  0  0  0  0  0  0
   44.7882   34.6684   43.0746 C   0  0  0  0  0  0  0  0  0  0  0  0
   45.5135   33.6579   43.6476 N   0  0  0  0  0  0  0  0  0  0  0  0
   45.7938   33.5899   44.9801 C   0  0  0  0  0  0  0  0  0  0  0  0
   45.3315   34.5385   45.6677 N   0  0  0  0  0  0  0  0  0  0  0  0
   44.4443   34.7173   41.2993 S   0  0  0  0  0  0  0  0  0  0  0  0
   47.6315   32.9004   45.0337 H   0  0  0  0  0  0  0  0  0  0  0  0
   46.0528   30.6068   44.5065 H   0  0  0  0  0  0  0  0  0  0  0  0
   48.8604   31.0589   44.3954 H   0  0  0  0  0  0  0  0  0  0  0  0
   47.9395   29.5967   44.0775 H   0  0  0  0  0  0  0  0  0  0  0  0
   48.6365   29.4450   46.3212 H   0  0  0  0  0  0  0  0  0  0  0  0
   47.6568   29.5838   48.5526 H   0  0  0  0  0  0  0  0  0  0  0  0
   46.1863   30.6553   50.0881 H   0  0  0  0  0  0  0  0  0  0  0  0
   44.7796   32.5674   49.4000 H   0  0  0  0  0  0  0  0  0  0  0  0
   44.8979   33.2911   47.1894 H   0  0  0  0  0  0  0  0  0  0  0  0
   44.3176   36.2755   45.9973 H   0  0  0  0  0  0  0  0  0  0  0  0
   43.7603   36.5245   43.7110 H   0  0  0  0  0  0  0  0  0  0  0  0
   45.6400   35.6657   40.3836 C   0  0  0  0  0  0  0  0  0  0  0  0
   46.7448   34.8898   39.8074 C   0  0  0  0  0  0  0  0  0  0  0  0
   47.1386   33.6467   40.0097 C   0  0  0  0  0  0  0  0  0  0  0  0
   46.3933   32.8210   40.9864 C   0  0  0  0  0  0  0  0  0  0  0  0
   46.7484   31.6085   41.1793 O   0  0  0  0  0  0  0  0  0  0  0  0
   45.5924   32.2165   41.9202 O   0  0  0  0  0  0  0  0  0  0  0  0
   48.2258   33.0209   39.3777 N   0  0  0  0  0  0  0  0  0  0  0  0
   48.8495   31.8738   38.8609 C   0  0  0  0  0  0  0  0  0  0  0  0
   48.7427   30.6140   39.0124 O   0  0  0  0  0  0  0  0  0  0  0  0
   49.7631   32.6628   37.9966 C   0  0  1  0  0  0  0  0  0  0  0  0
   50.8292   32.3537   38.0037 H   0  0  0  0  0  0  0  0  0  0  0  0
   49.4073   33.7656   38.9695 C   0  0  1  0  0  0  0  0  0  0  0  0
   48.8131   35.2037   37.9982 S   0  0  0  0  0  0  0  0  0  0  0  0
   47.3961   35.8361   38.8880 C   0  0  2  0  0  0  0  0  0  0  0  0
   47.7850   36.6975   39.5149 H   0  0  0  0  0  0  0  0  0  0  0  0
   45.0888   36.2950   39.6234 H   0  0  0  0  0  0  0  0  0  0  0  0
   46.0879   36.4155   41.1163 H   0  0  0  0  0  0  0  0  0  0  0  0
   45.5431   32.5485   42.8916 H   0  0  0  0  0  0  0  0  0  0  0  0
   49.3501   32.7426   36.9889 H   0  0  0  0  0  0  0  0  0  0  0  0
   50.1420   33.9968   39.7365 H   0  0  0  0  0  0  0  0  0  0  0  0
   46.7062   36.3140   38.1538 H   0  0  0  0  0  0  0  0  0  0  0  0
  1 15  1  0
  1 10  1  0
  2  1  1  0
  3  2  1  0
  3  4  1  0
  4  5  1  0
  5  6  2  0
  6  7  1  0
  8  7  2  0
  9  8  1  0
 10  5  1  0
 10  9  2  0
 11 16  2  0
 12 11  1  0
 13 14  1  0
 13 12  2  0
 14 15  2  0
 15 16  1  0
 17 13  1  0
  1 18  1  1
  2 19  1  0
  3 20  1  0
  3 21  1  0
  4 22  1  0
  6 23  1  0
  7 24  1  0
  8 25  1  0
  9 26  1  0
 11 27  1  0
 12 28  1  0
 29 30  1  0
 30 31  2  0
 31 32  1  0
 32 33  2  0
 32 34  1  0
 31 35  1  0
 35 36  1  0
 36 37  2  0
 36 38  1  0
 38 39  1  6
 38 40  1  0
 40 41  1  0
 41 42  1  0
 42 43  1  1
 42 30  1  0
 40 35  1  0
 29 44  1  0
 29 45  1  0
 34 46  1  0
 38 47  1  0
 40 48  1  1
 42 49  1  0
 17 29  1  0
M  ISO  8  18  13  19   5  20  13  21  13  23  14  24  14  25  14  26  14
M  ISO  4  27  14  28  14  39  15  43  15
M  END
>  <DihAtoms>  (1) 
12,16,28,29

>  <DihDeg>  (1) 
-85.79361122495726

$$$$
