
     RDKit          3D

 45 48  0  0  0  0  0  0  0  0999 V2000
   46.6348   34.6810   41.6231 C   0  0  0  0  0  0  0  0  0  0  0  0
   45.9370   34.9213   42.9340 C   0  0  0  0  0  0  0  0  0  0  0  0
   46.0046   33.8999   43.8753 C   0  0  0  0  0  0  0  0  0  0  0  0
   45.3746   34.0952   45.1075 C   0  0  0  0  0  0  0  0  0  0  0  0
   44.7365   35.2709   45.3053 N   0  0  0  0  0  0  0  0  0  0  0  0
   44.6875   36.2585   44.3568 C   0  0  0  0  0  0  0  0  0  0  0  0
   45.2899   36.0799   43.1702 N   0  0  0  0  0  0  0  0  0  0  0  0
   48.3754   33.0001   41.5021 C   0  0  0  0  0  0  0  0  0  0  0  0
   48.0437   34.2935   41.8706 C   0  0  0  0  0  0  0  0  0  0  0  0
   49.0115   35.1151   42.4170 C   0  0  0  0  0  0  0  0  0  0  0  0
   50.2920   34.6050   42.5762 C   0  0  0  0  0  0  0  0  0  0  0  0
   50.5741   33.3130   42.1945 C   0  0  0  0  0  0  0  0  0  0  0  0
   49.6358   32.4643   41.6460 C   0  0  0  0  0  0  0  0  0  0  0  0
   47.4459   32.0941   40.9364 O   0  0  0  0  0  0  0  0  0  0  0  0
   49.9987   31.2042   41.2930 O   0  0  0  0  0  0  0  0  0  0  0  0
   46.1197   34.0209   40.9507 H   0  0  0  0  0  0  0  0  0  0  0  0
   46.6957   35.6773   41.1052 H   0  0  0  0  0  0  0  0  0  0  0  0
   46.5352   32.9827   43.6455 H   0  0  0  0  0  0  0  0  0  0  0  0
   45.3963   33.3454   45.8630 H   0  0  0  0  0  0  0  0  0  0  0  0
   44.1657   37.1603   44.5823 H   0  0  0  0  0  0  0  0  0  0  0  0
   48.6800   36.0895   42.6730 H   0  0  0  0  0  0  0  0  0  0  0  0
   50.9649   35.3249   43.0089 H   0  0  0  0  0  0  0  0  0  0  0  0
   51.6008   33.1070   42.3901 H   0  0  0  0  0  0  0  0  0  0  0  0
   47.0270   32.4099   40.0846 H   0  0  0  0  0  0  0  0  0  0  0  0
   51.1668   30.4882   41.3518 C   0  0  0  0  0  0  0  0  0  0  0  0
   51.6911   30.0231   40.0400 C   0  0  0  0  0  0  0  0  0  0  0  0
   51.9063   28.7629   39.6837 C   0  0  0  0  0  0  0  0  0  0  0  0
   51.6386   27.6336   40.5916 C   0  0  0  0  0  0  0  0  0  0  0  0
   51.2173   27.4558   41.7598 O   0  0  0  0  0  0  0  0  0  0  0  0
   51.8428   26.3271   40.2501 O   0  0  0  0  0  0  0  0  0  0  0  0
   52.4092   28.4721   38.4137 N   0  0  0  0  0  0  0  0  0  0  0  0
   52.4646   27.6130   37.2951 C   0  0  0  0  0  0  0  0  0  0  0  0
   52.1332   26.4172   36.9871 O   0  0  0  0  0  0  0  0  0  0  0  0
   53.1140   28.6158   36.4168 C   0  0  2  0  0  0  0  0  0  0  0  0
   52.3249   29.0578   35.7603 H   0  0  0  0  0  0  0  0  0  0  0  0
   53.3413   29.3426   37.7253 C   0  0  1  0  0  0  0  0  0  0  0  0
   52.6248   31.0058   37.6256 S   0  0  0  0  0  0  0  0  0  0  0  0
   51.9056   31.2344   39.2566 C   0  0  1  0  0  0  0  0  0  0  0  0
   50.9612   31.8313   39.1992 H   0  0  0  0  0  0  0  0  0  0  0  0
   51.9766   31.1017   41.8823 H   0  0  0  0  0  0  0  0  0  0  0  0
   51.0130   29.6524   42.0724 H   0  0  0  0  0  0  0  0  0  0  0  0
   51.1549   25.5698   40.3448 H   0  0  0  0  0  0  0  0  0  0  0  0
   54.0358   28.3020   35.9001 H   0  0  0  0  0  0  0  0  0  0  0  0
   54.3921   29.2828   38.0575 H   0  0  0  0  0  0  0  0  0  0  0  0
   52.6430   31.8868   39.8157 H   0  0  0  0  0  0  0  0  0  0  0  0
  1  9  1  0
  1  2  1  0
  2  7  1  0
  2  3  2  0
  3  4  1  0
  4  5  2  0
  6  5  1  0
  7  6  2  0
  8 13  2  0
  8  9  1  0
  9 10  2  0
 10 11  1  0
 12 11  2  0
 13 12  1  0
 14  8  1  0
 15 13  1  0
  1 16  1  0
  1 17  1  0
  3 18  1  0
  4 19  1  0
  6 20  1  0
 10 21  1  0
 11 22  1  0
 12 23  1  0
 14 24  1  0
 25 26  1  0
 26 27  2  0
 27 28  1  0
 28 29  2  0
 28 30  1  0
 27 31  1  0
 31 32  1  0
 32 33  2  0
 32 34  1  0
 34 35  1  6
 34 36  1  0
 36 37  1  0
 37 38  1  0
 38 39  1  6
 38 26  1  0
 36 31  1  0
 25 40  1  0
 25 41  1  0
 30 42  1  0
 34 43  1  0
 36 44  1  1
 38 45  1  0
 15 25  1  0
M  ISO  8  16   8  17   8  18  14  19  14  20  14  21  14  22  14  23  14
M  ISO  3  24   3  35  15  39  15
M  END
>  <DihAtoms>  (1) 
12,14,24,25

>  <DihDeg>  (1) 
60.76097828039772

$$$$
