
     RDKit          3D

 45 48  0  0  0  0  0  0  0  0999 V2000
   46.6348   34.6810   41.6231 C   0  0  0  0  0  0  0  0  0  0  0  0
   45.9370   34.9213   42.9340 C   0  0  0  0  0  0  0  0  0  0  0  0
   46.0046   33.8999   43.8753 C   0  0  0  0  0  0  0  0  0  0  0  0
   45.3746   34.0952   45.1075 C   0  0  0  0  0  0  0  0  0  0  0  0
   44.7365   35.2709   45.3053 N   0  0  0  0  0  0  0  0  0  0  0  0
   44.6875   36.2585   44.3568 C   0  0  0  0  0  0  0  0  0  0  0  0
   45.2899   36.0799   43.1702 N   0  0  0  0  0  0  0  0  0  0  0  0
   48.3754   33.0001   41.5021 C   0  0  0  0  0  0  0  0  0  0  0  0
   48.0437   34.2935   41.8706 C   0  0  0  0  0  0  0  0  0  0  0  0
   49.0115   35.1151   42.4170 C   0  0  0  0  0  0  0  0  0  0  0  0
   50.2920   34.6050   42.5762 C   0  0  0  0  0  0  0  0  0  0  0  0
   50.5741   33.3130   42.1945 C   0  0  0  0  0  0  0  0  0  0  0  0
   49.6358   32.4643   41.6460 C   0  0  0  0  0  0  0  0  0  0  0  0
   47.4459   32.0941   40.9364 O   0  0  0  0  0  0  0  0  0  0  0  0
   49.9987   31.2042   41.2930 O   0  0  0  0  0  0  0  0  0  0  0  0
   46.1197   34.0209   40.9507 H   0  0  0  0  0  0  0  0  0  0  0  0
   46.6957   35.6773   41.1052 H   0  0  0  0  0  0  0  0  0  0  0  0
   46.5352   32.9827   43.6455 H   0  0  0  0  0  0  0  0  0  0  0  0
   45.3963   33.3454   45.8630 H   0  0  0  0  0  0  0  0  0  0  0  0
   44.1657   37.1603   44.5823 H   0  0  0  0  0  0  0  0  0  0  0  0
   48.6800   36.0895   42.6730 H   0  0  0  0  0  0  0  0  0  0  0  0
   50.9649   35.3249   43.0089 H   0  0  0  0  0  0  0  0  0  0  0  0
   51.6008   33.1070   42.3901 H   0  0  0  0  0  0  0  0  0  0  0  0
   47.0270   32.4099   40.0846 H   0  0  0  0  0  0  0  0  0  0  0  0
   51.1668   30.4882   41.3518 C   0  0  0  0  0  0  0  0  0  0  0  0
   51.0292   29.0914   41.8437 C   0  0  0  0  0  0  0  0  0  0  0  0
   51.6273   28.5727   42.9089 C   0  0  0  0  0  0  0  0  0  0  0  0
   52.5371   29.3597   43.7597 C   0  0  0  0  0  0  0  0  0  0  0  0
   52.9964   30.5262   43.8044 O   0  0  0  0  0  0  0  0  0  0  0  0
   53.1602   28.8554   44.8654 O   0  0  0  0  0  0  0  0  0  0  0  0
   51.4083   27.2366   43.2516 N   0  0  0  0  0  0  0  0  0  0  0  0
   51.2744   26.2420   44.2442 C   0  0  0  0  0  0  0  0  0  0  0  0
   51.5079   26.0956   45.4927 O   0  0  0  0  0  0  0  0  0  0  0  0
   50.6962   25.2382   43.3185 C   0  0  2  0  0  0  0  0  0  0  0  0
   49.5893   25.2283   43.4724 H   0  0  0  0  0  0  0  0  0  0  0  0
   51.1883   26.2026   42.2602 C   0  0  1  0  0  0  0  0  0  0  0  0
   49.8023   26.6944   41.1988 S   0  0  0  0  0  0  0  0  0  0  0  0
   50.1106   28.4421   40.9156 C   0  0  1  0  0  0  0  0  0  0  0  0
   49.1513   29.0147   40.8553 H   0  0  0  0  0  0  0  0  0  0  0  0
   51.6708   30.4746   40.3225 H   0  0  0  0  0  0  0  0  0  0  0  0
   51.8960   31.0827   41.9487 H   0  0  0  0  0  0  0  0  0  0  0  0
   53.1547   29.2804   45.8009 H   0  0  0  0  0  0  0  0  0  0  0  0
   51.1779   24.2469   43.2955 H   0  0  0  0  0  0  0  0  0  0  0  0
   52.0899   25.8297   41.7442 H   0  0  0  0  0  0  0  0  0  0  0  0
   50.5626   28.4980   39.8791 H   0  0  0  0  0  0  0  0  0  0  0  0
  1  9  1  0
  1  2  1  0
  2  7  1  0
  2  3  2  0
  3  4  1  0
  4  5  2  0
  6  5  1  0
  7  6  2  0
  8 13  2  0
  8  9  1  0
  9 10  2  0
 10 11  1  0
 12 11  2  0
 13 12  1  0
 14  8  1  0
 15 13  1  0
  1 16  1  0
  1 17  1  0
  3 18  1  0
  4 19  1  0
  6 20  1  0
 10 21  1  0
 11 22  1  0
 12 23  1  0
 14 24  1  0
 25 26  1  0
 26 27  2  0
 27 28  1  0
 28 29  2  0
 28 30  1  0
 27 31  1  0
 31 32  1  0
 32 33  2  0
 32 34  1  0
 34 35  1  1
 34 36  1  0
 36 37  1  0
 37 38  1  0
 38 39  1  6
 38 26  1  0
 36 31  1  0
 25 40  1  0
 25 41  1  0
 30 42  1  0
 34 43  1  0
 36 44  1  6
 38 45  1  0
 15 25  1  0
M  ISO  8  16   8  17   8  18  14  19  14  20  14  21  14  22  14  23  14
M  ISO  3  24   3  35  15  39  15
M  END
>  <DihAtoms>  (1) 
12,14,24,25

>  <DihDeg>  (1) 
60.76097828039772

$$$$
