
     RDKit          3D

 31 33  0  0  0  0  0  0  0  0999 V2000
   44.5083   35.9834   44.5363 C   0  0  0  0  0  0  0  0  0  0  0  0
   45.1814   35.9196   43.2965 C   0  0  0  0  0  0  0  0  0  0  0  0
   46.1092   34.8833   43.1057 C   0  0  0  0  0  0  0  0  0  0  0  0
   46.3194   33.9945   44.1092 N   0  0  0  0  0  0  0  0  0  0  0  0
   45.6462   34.0927   45.2943 C   0  0  0  0  0  0  0  0  0  0  0  0
   44.7549   35.0764   45.4966 N   0  0  0  0  0  0  0  0  0  0  0  0
   46.0945   32.8091   46.4544 S   0  0  0  0  0  0  0  0  0  0  0  0
   43.7836   36.7601   44.7381 H   0  0  0  0  0  0  0  0  0  0  0  0
   44.9644   36.6624   42.5400 H   0  0  0  0  0  0  0  0  0  0  0  0
   46.6275   34.8256   42.1647 H   0  0  0  0  0  0  0  0  0  0  0  0
   44.9573   31.4012   46.1483 C   0  0  0  0  0  0  0  0  0  0  0  0
   44.8452   31.1633   44.7100 C   0  0  0  0  0  0  0  0  0  0  0  0
   45.2147   29.9821   44.2976 C   0  0  0  0  0  0  0  0  0  0  0  0
   45.7108   28.9569   45.2123 C   0  0  0  0  0  0  0  0  0  0  0  0
   46.0884   27.7887   44.8647 O   0  0  0  0  0  0  0  0  0  0  0  0
   46.1062   28.2911   46.3497 O   0  0  0  0  0  0  0  0  0  0  0  0
   45.1542   29.6199   42.9311 N   0  0  0  0  0  0  0  0  0  0  0  0
   45.6999   28.9293   41.7877 C   0  0  0  0  0  0  0  0  0  0  0  0
   46.3028   27.8297   41.7489 O   0  0  0  0  0  0  0  0  0  0  0  0
   45.1837   30.0989   40.9913 C   0  0  2  0  0  0  0  0  0  0  0  0
   44.8554   29.8238   39.9723 H   0  0  0  0  0  0  0  0  0  0  0  0
   44.0949   30.0490   42.0429 C   0  0  2  0  0  0  0  0  0  0  0  0
   43.3556   31.6011   42.5049 S   0  0  0  0  0  0  0  0  0  0  0  0
   44.3425   32.2489   43.8721 C   0  0  1  0  0  0  0  0  0  0  0  0
   43.6510   32.8719   44.4749 H   0  0  0  0  0  0  0  0  0  0  0  0
   45.3839   30.5701   46.7386 H   0  0  0  0  0  0  0  0  0  0  0  0
   43.9900   31.7048   46.5929 H   0  0  0  0  0  0  0  0  0  0  0  0
   45.5453   28.2373   47.2022 H   0  0  0  0  0  0  0  0  0  0  0  0
   45.8932   30.9308   41.0854 H   0  0  0  0  0  0  0  0  0  0  0  0
   43.3379   29.2961   41.7798 H   0  0  0  0  0  0  0  0  0  0  0  0
   45.1312   32.9448   43.5228 H   0  0  0  0  0  0  0  0  0  0  0  0
  1  6  2  0
  2  1  1  0
  3  2  2  0
  3  4  1  0
  4  5  2  0
  5  6  1  0
  5  7  1  0
  1  8  1  0
  2  9  1  0
  3 10  1  0
 11 12  1  0
 12 13  2  0
 13 14  1  0
 14 15  2  0
 14 16  1  0
 13 17  1  0
 17 18  1  0
 18 19  2  0
 18 20  1  0
 20 21  1  6
 20 22  1  0
 22 23  1  0
 23 24  1  0
 24 25  1  1
 24 12  1  0
 22 17  1  0
 11 26  1  0
 11 27  1  0
 16 28  1  0
 20 29  1  0
 22 30  1  6
 24 31  1  0
  7 11  1  0
M  ISO  5   8  14   9  14  10  14  21  15  25  15
M  END
>  <DihAtoms>  (1) 
4,6,10,11

>  <DihDeg>  (1) 
-179.96629820498399

$$$$
