
 OpenBabel03242512163D

 40 43  0  0  1  0  0  0  0  0999 V2000
   48.3230   32.9240   41.9280 C   0  0  0  0  0  0  0  0  0  0  0  0
   47.9260   34.2480   42.0230 C   0  0  0  0  0  0  0  0  0  0  0  0
   48.8650   35.2230   42.2960 C   0  0  0  0  0  0  0  0  0  0  0  0
   50.1860   34.8340   42.4670 C   0  0  0  0  0  0  0  0  0  0  0  0
   50.5340   33.5060   42.3630 C   0  0  0  0  0  0  0  0  0  0  0  0
   49.6250   32.5040   42.0920 C   0  0  0  0  0  0  0  0  0  0  0  0
   48.4820   36.2120   42.3510 H   0  0  0  0  0  0  0  0  0  0  0  0
   50.8320   35.6690   42.6750 H   0  0  0  0  0  0  0  0  0  0  0  0
   51.5830   33.4060   42.5210 H   0  0  0  0  0  0  0  0  0  0  0  0
   46.4800   34.4910   41.8020 C   0  0  0  0  0  0  0  0  0  0  0  0
   45.9970   33.7190   41.2340 H   0  0  0  0  0  0  0  0  0  0  0  0
   46.4360   35.4230   41.1750 H   0  0  0  0  0  0  0  0  0  0  0  0
   45.8170   34.8230   43.1110 C   0  0  0  0  0  0  0  0  0  0  0  0
   45.9250   33.8780   44.1250 C   0  0  0  0  0  0  0  0  0  0  0  0
   45.3280   34.1600   45.3570 C   0  0  0  0  0  0  0  0  0  0  0  0
   44.6800   35.3410   45.4830 N   0  0  0  0  0  0  0  0  0  0  0  0
   44.5930   36.2520   44.4640 C   0  0  0  0  0  0  0  0  0  0  0  0
   45.1630   35.9900   43.2770 N   0  0  0  0  0  0  0  0  0  0  0  0
   46.4590   32.9520   43.9500 H   0  0  0  0  0  0  0  0  0  0  0  0
   45.3800   33.4710   46.1660 H   0  0  0  0  0  0  0  0  0  0  0  0
   44.0660   37.1640   44.6350 H   0  0  0  0  0  0  0  0  0  0  0  0
   47.4270   31.8640   41.6520 O   0  0  0  0  0  0  0  0  0  0  0  0
   46.9350   31.9540   40.7860 H   0  0  0  0  0  0  0  0  0  0  0  0
   50.0540   31.2190   42.0030 O   0  0  0  0  0  0  0  0  0  0  0  0
   51.1850   30.6140   41.5200 C   0  0  0  0  0  2  0  0  0  0  0  0
   51.3270   30.6270   40.0400 C   0  0  0  0  0  0  0  0  0  0  0  0
   50.5150   30.0380   39.1700 C   0  0  0  0  0  0  0  0  0  0  0  0
   50.7740   30.1290   37.8010 N   0  0  0  0  0  0  0  0  0  0  0  0
   50.2960   30.2110   36.4750 C   0  0  0  0  0  0  0  0  0  0  0  0
   49.2010   30.0360   35.8390 O   0  0  0  0  0  0  0  0  0  0  0  0
   51.6040   30.6200   35.9100 C   0  0  0  0  0  3  0  0  0  0  0  0
   51.5770   31.7260   35.7530 H   0  0  0  0  0  0  0  0  0  0  0  0
   52.1190   30.1750   37.2630 C   0  0  1  0  0  3  0  0  0  0  0  0
   53.0160   31.5420   38.0470 S   0  0  0  0  0  0  0  0  0  0  0  0
   52.5250   31.4120   39.7710 C   0  0  0  0  0  3  0  0  0  0  0  0
   52.4400   32.4230   40.2420 H   0  0  0  0  0  0  0  0  0  0  0  0
   49.3300   29.2720   39.5960 C   0  0  0  0  0  0  0  0  0  0  0  0
   49.0120   28.0720   39.7800 O   0  0  0  0  0  0  0  0  0  0  0  0
   48.1390   29.8490   39.9290 O   0  0  0  0  0  0  0  0  0  0  0  0
   47.6110   29.6760   40.7930 H   0  0  0  0  0  0  0  0  0  0  0  0
  1  2  2  0  0  0  0
  1  6  1  0  0  0  0
  2  3  1  0  0  0  0
  3  7  1  0  0  0  0
  3  4  2  0  0  0  0
  4  8  1  0  0  0  0
  5  4  1  0  0  0  0
  5  9  1  0  0  0  0
  6  5  2  0  0  0  0
 10  2  1  0  0  0  0
 10 13  1  0  0  0  0
 11 10  1  0  0  0  0
 12 10  1  0  0  0  0
 13 18  2  0  0  0  0
 13 14  1  0  0  0  0
 14 15  2  0  0  0  0
 15 16  1  0  0  0  0
 15 20  1  0  0  0  0
 17 21  1  0  0  0  0
 17 16  2  0  0  0  0
 18 17  1  0  0  0  0
 19 14  1  0  0  0  0
 22  1  1  0  0  0  0
 23 22  1  0  0  0  0
 24  6  1  0  0  0  0
 25 24  1  0  0  0  0
 26 25  1  0  0  0  0
 27 37  1  0  0  0  0
 27 26  2  0  0  0  0
 28 27  1  0  0  0  0
 29 28  1  0  0  0  0
 30 29  2  0  0  0  0
 31 29  1  0  0  0  0
 32 31  1  0  0  0  0
 33 31  1  6  0  0  0
 33 28  1  0  0  0  0
 33 34  1  0  0  0  0
 34 35  1  0  0  0  0
 35 26  1  0  0  0  0
 35 36  1  0  0  0  0
 37 38  2  0  0  0  0
 37 39  1  0  0  0  0
 39 40  1  0  0  0  0
M  END
>  <minimizedAffinity>
-5.05021524

>  <minimizedRMSD>
2.16985178

$$$$
