
 OpenBabel03242512193D

 40 43  0  0  1  0  0  0  0  0999 V2000
   36.7530   28.9050   41.7140 C   0  0  0  0  0  0  0  0  0  0  0  0
   36.8130   27.5230   41.6250 C   0  0  0  0  0  0  0  0  0  0  0  0
   36.6020   26.9090   40.4060 C   0  0  0  0  0  0  0  0  0  0  0  0
   36.3350   27.7110   39.3050 C   0  0  0  0  0  0  0  0  0  0  0  0
   36.2860   29.0800   39.4420 C   0  0  0  0  0  0  0  0  0  0  0  0
   36.4910   29.7280   40.6410 C   0  0  0  0  0  0  0  0  0  0  0  0
   36.6650   25.8500   40.4200 H   0  0  0  0  0  0  0  0  0  0  0  0
   36.1870   27.1330   38.4090 H   0  0  0  0  0  0  0  0  0  0  0  0
   36.0740   29.5180   38.4940 H   0  0  0  0  0  0  0  0  0  0  0  0
   37.1190   26.8210   42.8940 C   0  0  0  0  0  0  0  0  0  0  0  0
   36.5090   25.9540   43.0640 H   0  0  0  0  0  0  0  0  0  0  0  0
   36.8560   27.5570   43.7020 H   0  0  0  0  0  0  0  0  0  0  0  0
   38.6010   26.5820   42.9970 C   0  0  0  0  0  0  0  0  0  0  0  0
   39.0510   25.3020   42.6950 C   0  0  0  0  0  0  0  0  0  0  0  0
   40.4240   25.0490   42.7720 C   0  0  0  0  0  0  0  0  0  0  0  0
   41.2290   26.0730   43.1370 N   0  0  0  0  0  0  0  0  0  0  0  0
   40.7550   27.3240   43.4270 C   0  0  0  0  0  0  0  0  0  0  0  0
   39.4380   27.5770   43.3560 N   0  0  0  0  0  0  0  0  0  0  0  0
   38.3440   24.5310   42.4110 H   0  0  0  0  0  0  0  0  0  0  0  0
   40.8200   24.0860   42.5520 H   0  0  0  0  0  0  0  0  0  0  0  0
   41.4490   28.0830   43.7070 H   0  0  0  0  0  0  0  0  0  0  0  0
   36.9570   29.6130   42.9230 O   0  0  0  0  0  0  0  0  0  0  0  0
   37.8480   29.4550   43.3490 H   0  0  0  0  0  0  0  0  0  0  0  0
   36.4290   31.0840   40.6880 O   0  0  0  0  0  0  0  0  0  0  0  0
   37.0620   32.0990   40.0190 C   0  0  0  0  0  2  0  0  0  0  0  0
   38.5290   31.9250   39.8460 C   0  0  0  0  0  0  0  0  0  0  0  0
   39.1610   31.6930   38.7030 C   0  0  0  0  0  0  0  0  0  0  0  0
   40.5500   31.5440   38.6900 N   0  0  0  0  0  0  0  0  0  0  0  0
   41.7860   31.7210   38.0330 C   0  0  0  0  0  0  0  0  0  0  0  0
   42.2180   32.0030   36.8620 O   0  0  0  0  0  0  0  0  0  0  0  0
   42.5970   31.4530   39.2440 C   0  0  0  0  0  3  0  0  0  0  0  0
   42.9280   32.4370   39.6600 H   0  0  0  0  0  0  0  0  0  0  0  0
   41.2800   30.9390   39.7870 C   0  0  1  0  0  3  0  0  0  0  0  0
   40.8720   31.8190   41.3190 S   0  0  0  0  0  0  0  0  0  0  0  0
   39.0970   32.0650   41.1820 C   0  0  0  0  0  3  0  0  0  0  0  0
   38.7900   33.0430   41.6330 H   0  0  0  0  0  0  0  0  0  0  0  0
   38.4460   31.5760   37.4190 C   0  0  0  0  0  0  0  0  0  0  0  0
   37.5480   30.8610   36.9150 O   0  0  0  0  0  0  0  0  0  0  0  0
   38.6870   32.3850   36.3470 O   0  0  0  0  0  0  0  0  0  0  0  0
   37.9750   32.9050   35.8180 H   0  0  0  0  0  0  0  0  0  0  0  0
  1 22  1  0  0  0  0
  2  1  1  0  0  0  0
  2 10  1  0  0  0  0
  3  7  1  0  0  0  0
  3  2  2  0  0  0  0
  4  5  2  0  0  0  0
  4  3  1  0  0  0  0
  5  6  1  0  0  0  0
  6 24  1  0  0  0  0
  6  1  2  0  0  0  0
  8  4  1  0  0  0  0
  9  5  1  0  0  0  0
 10 13  1  0  0  0  0
 10 11  1  0  0  0  0
 10 12  1  0  0  0  0
 13 18  1  0  0  0  0
 14 15  1  0  0  0  0
 14 13  2  0  0  0  0
 15 16  2  0  0  0  0
 16 17  1  0  0  0  0
 17 21  1  0  0  0  0
 18 17  2  0  0  0  0
 19 14  1  0  0  0  0
 20 15  1  0  0  0  0
 22 23  1  0  0  0  0
 25 24  1  0  0  0  0
 26 25  1  0  0  0  0
 26 35  1  0  0  0  0
 27 26  2  0  0  0  0
 28 27  1  0  0  0  0
 28 33  1  0  0  0  0
 29 28  1  0  0  0  0
 29 31  1  0  0  0  0
 30 29  2  0  0  0  0
 31 32  1  0  0  0  0
 33 31  1  6  0  0  0
 33 34  1  0  0  0  0
 35 34  1  0  0  0  0
 35 36  1  0  0  0  0
 37 27  1  0  0  0  0
 38 37  2  0  0  0  0
 39 37  1  0  0  0  0
 40 39  1  0  0  0  0
M  END
>  <minimizedAffinity>
-6.36690092

$$$$

 OpenBabel03242512193D

 40 43  0  0  1  0  0  0  0  0999 V2000
   37.2840   30.0720   41.8500 C   0  0  0  0  0  0  0  0  0  0  0  0
   38.0850   29.4350   42.7840 C   0  0  0  0  0  0  0  0  0  0  0  0
   39.3900   29.8520   42.9590 C   0  0  0  0  0  0  0  0  0  0  0  0
   39.8530   30.9050   42.1830 C   0  0  0  0  0  0  0  0  0  0  0  0
   39.0190   31.5070   41.2670 C   0  0  0  0  0  0  0  0  0  0  0  0
   37.7120   31.1200   41.0650 C   0  0  0  0  0  0  0  0  0  0  0  0
   39.9390   29.3160   43.6920 H   0  0  0  0  0  0  0  0  0  0  0  0
   40.8790   31.1490   42.3980 H   0  0  0  0  0  0  0  0  0  0  0  0
   39.5490   32.2900   40.7740 H   0  0  0  0  0  0  0  0  0  0  0  0
   37.4310   28.3370   43.5350 C   0  0  0  0  0  0  0  0  0  0  0  0
   36.3590   28.3730   43.5000 H   0  0  0  0  0  0  0  0  0  0  0  0
   37.7200   28.5090   44.6080 H   0  0  0  0  0  0  0  0  0  0  0  0
   38.0350   27.0190   43.1340 C   0  0  0  0  0  0  0  0  0  0  0  0
   37.3470   26.2810   42.1770 C   0  0  0  0  0  0  0  0  0  0  0  0
   37.8860   25.0550   41.7750 C   0  0  0  0  0  0  0  0  0  0  0  0
   39.0480   24.6650   42.3470 N   0  0  0  0  0  0  0  0  0  0  0  0
   39.7020   25.4160   43.2870 C   0  0  0  0  0  0  0  0  0  0  0  0
   39.1920   26.5950   43.6800 N   0  0  0  0  0  0  0  0  0  0  0  0
   36.4190   26.6580   41.7640 H   0  0  0  0  0  0  0  0  0  0  0  0
   37.3990   24.4510   41.0470 H   0  0  0  0  0  0  0  0  0  0  0  0
   40.6150   25.0460   43.6950 H   0  0  0  0  0  0  0  0  0  0  0  0
   35.9370   29.7080   41.6080 O   0  0  0  0  0  0  0  0  0  0  0  0
   35.3430   29.7690   42.4100 H   0  0  0  0  0  0  0  0  0  0  0  0
   36.9560   31.7700   40.1430 O   0  0  0  0  0  0  0  0  0  0  0  0
   36.9490   31.8270   38.7730 C   0  0  0  0  0  2  0  0  0  0  0  0
   37.3130   30.5600   38.0850 C   0  0  0  0  0  0  0  0  0  0  0  0
   38.5050   30.2490   37.5940 C   0  0  0  0  0  0  0  0  0  0  0  0
   38.7030   29.0180   36.9650 N   0  0  0  0  0  0  0  0  0  0  0  0
   39.5460   27.9270   36.6650 C   0  0  0  0  0  0  0  0  0  0  0  0
   40.7900   27.6320   36.7230 O   0  0  0  0  0  0  0  0  0  0  0  0
   38.4430   27.0610   36.1830 C   0  0  0  0  0  3  0  0  0  0  0  0
   38.1820   26.3500   37.0040 H   0  0  0  0  0  0  0  0  0  0  0  0
   37.6670   28.3620   36.1910 C   0  0  1  0  0  3  0  0  0  0  0  0
   36.1900   28.1780   37.2260 S   0  0  0  0  0  0  0  0  0  0  0  0
   36.0940   29.7590   38.0760 C   0  0  0  0  0  3  0  0  0  0  0  0
   35.7050   29.6320   39.1180 H   0  0  0  0  0  0  0  0  0  0  0  0
   39.6540   31.1690   37.6780 C   0  0  0  0  0  0  0  0  0  0  0  0
   40.7210   31.2700   38.3290 O   0  0  0  0  0  0  0  0  0  0  0  0
   39.7780   32.2920   36.9110 O   0  0  0  0  0  0  0  0  0  0  0  0
   40.5990   32.5430   36.3470 H   0  0  0  0  0  0  0  0  0  0  0  0
  1  2  1  0  0  0  0
  2  3  2  0  0  0  0
  2 10  1  0  0  0  0
  3  7  1  0  0  0  0
  4  8  1  0  0  0  0
  4  3  1  0  0  0  0
  5  4  2  0  0  0  0
  6  5  1  0  0  0  0
  6  1  2  0  0  0  0
  9  5  1  0  0  0  0
 10 12  1  0  0  0  0
 11 10  1  0  0  0  0
 13 10  1  0  0  0  0
 13 18  1  0  0  0  0
 14 13  2  0  0  0  0
 15 14  1  0  0  0  0
 15 16  2  0  0  0  0
 16 17  1  0  0  0  0
 17 18  2  0  0  0  0
 17 21  1  0  0  0  0
 19 14  1  0  0  0  0
 20 15  1  0  0  0  0
 22  1  1  0  0  0  0
 22 23  1  0  0  0  0
 24  6  1  0  0  0  0
 25 24  1  0  0  0  0
 26 25  1  0  0  0  0
 27 37  1  0  0  0  0
 27 26  2  0  0  0  0
 28 27  1  0  0  0  0
 29 30  2  0  0  0  0
 29 28  1  0  0  0  0
 31 29  1  0  0  0  0
 31 32  1  0  0  0  0
 33 31  1  1  0  0  0
 33 28  1  0  0  0  0
 33 34  1  0  0  0  0
 34 35  1  0  0  0  0
 35 26  1  0  0  0  0
 35 36  1  0  0  0  0
 37 38  2  0  0  0  0
 39 37  1  0  0  0  0
 40 39  1  0  0  0  0
M  END
>  <minimizedAffinity>
-6.3472352

$$$$

 OpenBabel03242512193D

 40 43  0  0  1  0  0  0  0  0999 V2000
   36.9370   31.6010   39.7570 C   0  0  0  0  0  0  0  0  0  0  0  0
   37.8920   32.3850   39.1300 C   0  0  0  0  0  0  0  0  0  0  0  0
   38.3160   32.0530   37.8580 C   0  0  0  0  0  0  0  0  0  0  0  0
   37.7620   30.9350   37.2510 C   0  0  0  0  0  0  0  0  0  0  0  0
   36.8150   30.1870   37.9140 C   0  0  0  0  0  0  0  0  0  0  0  0
   36.3670   30.4860   39.1830 C   0  0  0  0  0  0  0  0  0  0  0  0
   39.0480   32.7020   37.4460 H   0  0  0  0  0  0  0  0  0  0  0  0
   38.1620   30.7670   36.2660 H   0  0  0  0  0  0  0  0  0  0  0  0
   36.5100   29.3780   37.2910 H   0  0  0  0  0  0  0  0  0  0  0  0
   38.3700   33.5470   39.9150 C   0  0  0  0  0  0  0  0  0  0  0  0
   37.7730   33.7550   40.7830 H   0  0  0  0  0  0  0  0  0  0  0  0
   38.2490   34.4290   39.2280 H   0  0  0  0  0  0  0  0  0  0  0  0
   39.8450   33.4080   40.1790 C   0  0  0  0  0  0  0  0  0  0  0  0
   40.6780   34.3490   39.5840 C   0  0  0  0  0  0  0  0  0  0  0  0
   42.0540   34.2540   39.8170 C   0  0  0  0  0  0  0  0  0  0  0  0
   42.4860   33.2470   40.6100 N   0  0  0  0  0  0  0  0  0  0  0  0
   41.6380   32.3360   41.1830 C   0  0  0  0  0  0  0  0  0  0  0  0
   40.3160   32.4190   40.9640 N   0  0  0  0  0  0  0  0  0  0  0  0
   40.2590   35.1280   38.9580 H   0  0  0  0  0  0  0  0  0  0  0  0
   42.7360   34.9480   39.3850 H   0  0  0  0  0  0  0  0  0  0  0  0
   42.0500   31.5680   41.7970 H   0  0  0  0  0  0  0  0  0  0  0  0
   36.4470   31.8690   41.0580 O   0  0  0  0  0  0  0  0  0  0  0  0
   36.0220   32.7680   41.1620 H   0  0  0  0  0  0  0  0  0  0  0  0
   35.4270   29.6960   39.7640 O   0  0  0  0  0  0  0  0  0  0  0  0
   35.4520   28.7250   40.7310 C   0  0  0  0  0  2  0  0  0  0  0  0
   36.6590   27.8560   40.7250 C   0  0  0  0  0  0  0  0  0  0  0  0
   37.7250   27.9900   41.5030 C   0  0  0  0  0  0  0  0  0  0  0  0
   38.7940   27.0990   41.3830 N   0  0  0  0  0  0  0  0  0  0  0  0
   39.8470   26.3750   41.9820 C   0  0  0  0  0  0  0  0  0  0  0  0
   40.4930   26.3600   43.0860 O   0  0  0  0  0  0  0  0  0  0  0  0
   40.0510   25.4860   40.8140 C   0  0  0  0  0  3  0  0  0  0  0  0
   39.5510   24.5110   41.0330 H   0  0  0  0  0  0  0  0  0  0  0  0
   39.1800   26.5100   40.1160 C   0  0  1  0  0  3  0  0  0  0  0  0
   37.7390   25.6840   39.3890 S   0  0  0  0  0  0  0  0  0  0  0  0
   36.4070   26.8510   39.6990 C   0  0  0  0  0  3  0  0  0  0  0  0
   35.4460   26.3160   39.9070 H   0  0  0  0  0  0  0  0  0  0  0  0
   37.8370   29.0660   42.5040 C   0  0  0  0  0  0  0  0  0  0  0  0
   38.4780   30.1330   42.6570 O   0  0  0  0  0  0  0  0  0  0  0  0
   37.1210   29.0900   43.6660 O   0  0  0  0  0  0  0  0  0  0  0  0
   36.5580   29.8810   44.0050 H   0  0  0  0  0  0  0  0  0  0  0  0
  1 22  1  0  0  0  0
  2  1  2  0  0  0  0
  2 10  1  0  0  0  0
  3  2  1  0  0  0  0
  4  3  2  0  0  0  0
  4  5  1  0  0  0  0
  5  6  2  0  0  0  0
  6  1  1  0  0  0  0
  6 24  1  0  0  0  0
  7  3  1  0  0  0  0
  8  4  1  0  0  0  0
  9  5  1  0  0  0  0
 10 13  1  0  0  0  0
 10 11  1  0  0  0  0
 12 10  1  0  0  0  0
 13 18  1  0  0  0  0
 14 15  1  0  0  0  0
 14 13  2  0  0  0  0
 15 16  2  0  0  0  0
 16 17  1  0  0  0  0
 17 21  1  0  0  0  0
 18 17  2  0  0  0  0
 19 14  1  0  0  0  0
 20 15  1  0  0  0  0
 22 23  1  0  0  0  0
 24 25  1  0  0  0  0
 26 25  1  0  0  0  0
 26 27  2  0  0  0  0
 27 37  1  0  0  0  0
 28 27  1  0  0  0  0
 28 29  1  0  0  0  0
 29 30  2  0  0  0  0
 31 32  1  0  0  0  0
 31 29  1  0  0  0  0
 33 34  1  1  0  0  0
 33 31  1  0  0  0  0
 33 28  1  0  0  0  0
 34 35  1  0  0  0  0
 35 36  1  0  0  0  0
 35 26  1  0  0  0  0
 37 38  2  0  0  0  0
 37 39  1  0  0  0  0
 39 40  1  0  0  0  0
M  END
>  <minimizedAffinity>
-6.12058115

$$$$

 OpenBabel03242512193D

 40 43  0  0  1  0  0  0  0  0999 V2000
   36.6590   28.3570   41.0640 C   0  0  0  0  0  0  0  0  0  0  0  0
   37.0220   27.1990   41.7340 C   0  0  0  0  0  0  0  0  0  0  0  0
   36.9770   25.9870   41.0720 C   0  0  0  0  0  0  0  0  0  0  0  0
   36.5660   25.9770   39.7470 C   0  0  0  0  0  0  0  0  0  0  0  0
   36.2160   27.1530   39.1230 C   0  0  0  0  0  0  0  0  0  0  0  0
   36.2480   28.3810   39.7490 C   0  0  0  0  0  0  0  0  0  0  0  0
   37.2700   25.1490   41.6520 H   0  0  0  0  0  0  0  0  0  0  0  0
   36.5680   24.9850   39.3290 H   0  0  0  0  0  0  0  0  0  0  0  0
   35.9340   26.9440   38.1170 H   0  0  0  0  0  0  0  0  0  0  0  0
   37.4460   27.3900   43.1410 C   0  0  0  0  0  0  0  0  0  0  0  0
   37.0260   26.6700   43.8170 H   0  0  0  0  0  0  0  0  0  0  0  0
   37.0220   28.3880   43.4370 H   0  0  0  0  0  0  0  0  0  0  0  0
   38.9430   27.5220   43.2060 C   0  0  0  0  0  0  0  0  0  0  0  0
   39.6530   26.4000   43.6170 C   0  0  0  0  0  0  0  0  0  0  0  0
   41.0470   26.4860   43.6790 C   0  0  0  0  0  0  0  0  0  0  0  0
   41.6170   27.6630   43.3340 N   0  0  0  0  0  0  0  0  0  0  0  0
   40.8890   28.7510   42.9330 C   0  0  0  0  0  0  0  0  0  0  0  0
   39.5490   28.6780   42.8700 N   0  0  0  0  0  0  0  0  0  0  0  0
   39.1260   25.4890   43.8790 H   0  0  0  0  0  0  0  0  0  0  0  0
   41.6380   25.6560   43.9880 H   0  0  0  0  0  0  0  0  0  0  0  0
   41.4060   29.6480   42.6750 H   0  0  0  0  0  0  0  0  0  0  0  0
   36.6760   29.6380   41.6660 O   0  0  0  0  0  0  0  0  0  0  0  0
   37.5700   29.9180   42.0150 H   0  0  0  0  0  0  0  0  0  0  0  0
   35.8890   29.4940   39.0590 O   0  0  0  0  0  0  0  0  0  0  0  0
   36.4510   30.2130   38.0350 C   0  0  0  0  0  2  0  0  0  0  0  0
   37.8670   30.6150   38.2470 C   0  0  0  0  0  0  0  0  0  0  0  0
   38.2870   31.6940   38.8950 C   0  0  0  0  0  0  0  0  0  0  0  0
   39.6540   31.9500   39.0130 N   0  0  0  0  0  0  0  0  0  0  0  0
   40.7360   32.4630   39.7610 C   0  0  0  0  0  0  0  0  0  0  0  0
   40.9270   33.2060   40.7830 O   0  0  0  0  0  0  0  0  0  0  0  0
   41.7710   31.8130   38.9210 C   0  0  0  0  0  3  0  0  0  0  0  0
   42.1220   30.8970   39.4570 H   0  0  0  0  0  0  0  0  0  0  0  0
   40.6060   31.5970   37.9770 C   0  0  1  0  0  3  0  0  0  0  0  0
   40.4450   29.8290   37.6110 S   0  0  0  0  0  0  0  0  0  0  0  0
   38.6640   29.5800   37.6000 C   0  0  0  0  0  3  0  0  0  0  0  0
   38.3970   28.5720   38.0070 H   0  0  0  0  0  0  0  0  0  0  0  0
   37.3530   32.6580   39.5030 C   0  0  0  0  0  0  0  0  0  0  0  0
   36.8980   33.8000   39.2530 O   0  0  0  0  0  0  0  0  0  0  0  0
   36.6910   32.4290   40.6760 O   0  0  0  0  0  0  0  0  0  0  0  0
   35.6780   32.5250   40.8190 H   0  0  0  0  0  0  0  0  0  0  0  0
  1 22  1  0  0  0  0
  1  2  1  0  0  0  0
  2 10  1  0  0  0  0
  3  7  1  0  0  0  0
  3  2  2  0  0  0  0
  4  3  1  0  0  0  0
  5  4  2  0  0  0  0
  5  6  1  0  0  0  0
  6  1  2  0  0  0  0
  8  4  1  0  0  0  0
  9  5  1  0  0  0  0
 10 13  1  0  0  0  0
 10 12  1  0  0  0  0
 10 11  1  0  0  0  0
 13 14  1  0  0  0  0
 14 15  2  0  0  0  0
 14 19  1  0  0  0  0
 15 20  1  0  0  0  0
 16 15  1  0  0  0  0
 17 16  2  0  0  0  0
 18 17  1  0  0  0  0
 18 13  2  0  0  0  0
 21 17  1  0  0  0  0
 22 23  1  0  0  0  0
 24  6  1  0  0  0  0
 25 26  1  0  0  0  0
 25 24  1  0  0  0  0
 26 27  2  0  0  0  0
 27 28  1  0  0  0  0
 27 37  1  0  0  0  0
 28 29  1  0  0  0  0
 29 30  2  0  0  0  0
 31 32  1  0  0  0  0
 31 29  1  0  0  0  0
 33 34  1  1  0  0  0
 33 31  1  0  0  0  0
 33 28  1  0  0  0  0
 35 34  1  0  0  0  0
 35 36  1  0  0  0  0
 35 26  1  0  0  0  0
 37 39  1  0  0  0  0
 38 37  2  0  0  0  0
 39 40  1  0  0  0  0
M  END
>  <minimizedAffinity>
-6.05247259

$$$$

 OpenBabel03242512193D

 40 43  0  0  1  0  0  0  0  0999 V2000
   38.3930   30.3220   39.3690 C   0  0  0  0  0  0  0  0  0  0  0  0
   37.5860   30.8480   38.3720 C   0  0  0  0  0  0  0  0  0  0  0  0
   37.0920   32.1310   38.5020 C   0  0  0  0  0  0  0  0  0  0  0  0
   37.4290   32.8520   39.6390 C   0  0  0  0  0  0  0  0  0  0  0  0
   38.2340   32.2890   40.6020 C   0  0  0  0  0  0  0  0  0  0  0  0
   38.7450   31.0120   40.5090 C   0  0  0  0  0  0  0  0  0  0  0  0
   36.4840   32.4610   37.6980 H   0  0  0  0  0  0  0  0  0  0  0  0
   36.9930   33.8370   39.6390 H   0  0  0  0  0  0  0  0  0  0  0  0
   38.3810   32.9910   41.3900 H   0  0  0  0  0  0  0  0  0  0  0  0
   37.3350   29.9470   37.2220 C   0  0  0  0  0  0  0  0  0  0  0  0
   38.0650   29.1670   37.1200 H   0  0  0  0  0  0  0  0  0  0  0  0
   37.4410   30.6020   36.3140 H   0  0  0  0  0  0  0  0  0  0  0  0
   35.9050   29.4780   37.2480 C   0  0  0  0  0  0  0  0  0  0  0  0
   35.2620   29.3640   36.0210 C   0  0  0  0  0  0  0  0  0  0  0  0
   33.9360   28.9220   36.0100 C   0  0  0  0  0  0  0  0  0  0  0  0
   33.3620   28.6330   37.2000 N   0  0  0  0  0  0  0  0  0  0  0  0
   34.0240   28.7550   38.3930 C   0  0  0  0  0  0  0  0  0  0  0  0
   35.2980   29.1790   38.4140 N   0  0  0  0  0  0  0  0  0  0  0  0
   35.7870   29.6160   35.1070 H   0  0  0  0  0  0  0  0  0  0  0  0
   33.3970   28.8180   35.0980 H   0  0  0  0  0  0  0  0  0  0  0  0
   33.5090   28.5090   39.2930 H   0  0  0  0  0  0  0  0  0  0  0  0
   38.9400   29.0170   39.3160 O   0  0  0  0  0  0  0  0  0  0  0  0
   39.5210   28.8450   38.5200 H   0  0  0  0  0  0  0  0  0  0  0  0
   39.5350   30.5320   41.5040 O   0  0  0  0  0  0  0  0  0  0  0  0
   39.3000   29.9860   42.7390 C   0  0  0  0  0  2  0  0  0  0  0  0
   39.4720   28.5110   42.8220 C   0  0  0  0  0  0  0  0  0  0  0  0
   38.5050   27.6050   42.7550 C   0  0  0  0  0  0  0  0  0  0  0  0
   38.8120   26.2460   42.8530 N   0  0  0  0  0  0  0  0  0  0  0  0
   38.5480   24.9090   42.4860 C   0  0  0  0  0  0  0  0  0  0  0  0
   37.6190   24.2370   41.9200 O   0  0  0  0  0  0  0  0  0  0  0  0
   39.8340   24.3920   43.0100 C   0  0  0  0  0  3  0  0  0  0  0  0
   40.5290   24.2600   42.1450 H   0  0  0  0  0  0  0  0  0  0  0  0
   39.8950   25.7500   43.6790 C   0  0  1  0  0  3  0  0  0  0  0  0
   41.4290   26.5900   43.2030 S   0  0  0  0  0  0  0  0  0  0  0  0
   40.9040   28.2950   42.9870 C   0  0  0  0  0  3  0  0  0  0  0  0
   41.4690   28.7870   42.1550 H   0  0  0  0  0  0  0  0  0  0  0  0
   37.0890   27.9780   42.5840 C   0  0  0  0  0  0  0  0  0  0  0  0
   36.3720   28.5440   41.7260 O   0  0  0  0  0  0  0  0  0  0  0  0
   36.1250   27.7190   43.5160 O   0  0  0  0  0  0  0  0  0  0  0  0
   35.2280   27.2520   43.3340 H   0  0  0  0  0  0  0  0  0  0  0  0
  1  6  1  0  0  0  0
  2  3  1  0  0  0  0
  2  1  2  0  0  0  0
  3  4  2  0  0  0  0
  4  5  1  0  0  0  0
  5  9  1  0  0  0  0
  6  5  2  0  0  0  0
  6 24  1  0  0  0  0
  7  3  1  0  0  0  0
  8  4  1  0  0  0  0
 10 13  1  0  0  0  0
 10  2  1  0  0  0  0
 11 10  1  0  0  0  0
 12 10  1  0  0  0  0
 13 18  1  0  0  0  0
 14 13  2  0  0  0  0
 15 14  1  0  0  0  0
 15 16  2  0  0  0  0
 16 17  1  0  0  0  0
 17 18  2  0  0  0  0
 17 21  1  0  0  0  0
 19 14  1  0  0  0  0
 20 15  1  0  0  0  0
 22  1  1  0  0  0  0
 23 22  1  0  0  0  0
 24 25  1  0  0  0  0
 25 26  1  0  0  0  0
 26 35  1  0  0  0  0
 27 26  2  0  0  0  0
 27 28  1  0  0  0  0
 28 33  1  0  0  0  0
 29 28  1  0  0  0  0
 29 31  1  0  0  0  0
 30 29  2  0  0  0  0
 32 31  1  0  0  0  0
 33 31  1  6  0  0  0
 34 33  1  0  0  0  0
 35 34  1  0  0  0  0
 36 35  1  0  0  0  0
 37 27  1  0  0  0  0
 37 39  1  0  0  0  0
 38 37  2  0  0  0  0
 40 39  1  0  0  0  0
M  END
>  <minimizedAffinity>
-5.98725414

$$$$

 OpenBabel03242512193D

 40 43  0  0  1  0  0  0  0  0999 V2000
   36.5190   31.1620   39.7490 C   0  0  0  0  0  0  0  0  0  0  0  0
   36.1560   29.9710   39.1410 C   0  0  0  0  0  0  0  0  0  0  0  0
   36.5830   29.7050   37.8550 C   0  0  0  0  0  0  0  0  0  0  0  0
   37.3680   30.6540   37.2150 C   0  0  0  0  0  0  0  0  0  0  0  0
   37.7030   31.8230   37.8590 C   0  0  0  0  0  0  0  0  0  0  0  0
   37.2970   32.1230   39.1420 C   0  0  0  0  0  0  0  0  0  0  0  0
   36.2640   28.7730   37.4600 H   0  0  0  0  0  0  0  0  0  0  0  0
   37.6440   30.3480   36.2200 H   0  0  0  0  0  0  0  0  0  0  0  0
   38.3070   32.4170   37.2130 H   0  0  0  0  0  0  0  0  0  0  0  0
   35.3240   29.0660   39.9700 C   0  0  0  0  0  0  0  0  0  0  0  0
   34.5730   28.5410   39.4110 H   0  0  0  0  0  0  0  0  0  0  0  0
   34.7760   29.7450   40.6780 H   0  0  0  0  0  0  0  0  0  0  0  0
   36.2120   28.1920   40.8130 C   0  0  0  0  0  0  0  0  0  0  0  0
   36.5750   26.9630   40.2740 C   0  0  0  0  0  0  0  0  0  0  0  0
   37.4080   26.1310   41.0280 C   0  0  0  0  0  0  0  0  0  0  0  0
   37.8060   26.5780   42.2420 N   0  0  0  0  0  0  0  0  0  0  0  0
   37.4300   27.7950   42.7450 C   0  0  0  0  0  0  0  0  0  0  0  0
   36.6310   28.6010   42.0270 N   0  0  0  0  0  0  0  0  0  0  0  0
   36.2150   26.6720   39.2940 H   0  0  0  0  0  0  0  0  0  0  0  0
   37.7150   25.1800   40.6620 H   0  0  0  0  0  0  0  0  0  0  0  0
   37.7830   28.0820   43.7090 H   0  0  0  0  0  0  0  0  0  0  0  0
   36.1250   31.5120   41.0630 O   0  0  0  0  0  0  0  0  0  0  0  0
   36.4180   30.8670   41.7680 H   0  0  0  0  0  0  0  0  0  0  0  0
   37.6750   33.2990   39.7060 O   0  0  0  0  0  0  0  0  0  0  0  0
   38.5970   33.6560   40.6570 C   0  0  0  0  0  2  0  0  0  0  0  0
   39.9980   33.2530   40.3620 C   0  0  0  0  0  0  0  0  0  0  0  0
   40.5900   32.1320   40.7540 C   0  0  0  0  0  0  0  0  0  0  0  0
   41.9200   31.8870   40.4070 N   0  0  0  0  0  0  0  0  0  0  0  0
   42.9380   30.9720   40.0610 C   0  0  0  0  0  0  0  0  0  0  0  0
   43.1420   29.7100   40.0870 O   0  0  0  0  0  0  0  0  0  0  0  0
   43.8710   32.0190   39.5790 C   0  0  0  0  0  3  0  0  0  0  0  0
   43.8150   32.0400   38.4630 H   0  0  0  0  0  0  0  0  0  0  0  0
   42.9030   32.9450   40.2870 C   0  0  1  0  0  3  0  0  0  0  0  0
   42.2880   34.1860   39.1160 S   0  0  0  0  0  0  0  0  0  0  0  0
   40.5550   34.3400   39.5660 C   0  0  0  0  0  3  0  0  0  0  0  0
   39.9200   34.5240   38.6620 H   0  0  0  0  0  0  0  0  0  0  0  0
   39.8920   31.1170   41.5630 C   0  0  0  0  0  0  0  0  0  0  0  0
   39.5510   30.9510   42.7580 O   0  0  0  0  0  0  0  0  0  0  0  0
   39.4010   29.9520   41.0480 O   0  0  0  0  0  0  0  0  0  0  0  0
   38.4430   29.6000   41.1730 H   0  0  0  0  0  0  0  0  0  0  0  0
  1 22  1  0  0  0  0
  2  1  2  0  0  0  0
  2 10  1  0  0  0  0
  3  2  1  0  0  0  0
  4  3  2  0  0  0  0
  4  5  1  0  0  0  0
  5  6  2  0  0  0  0
  6 24  1  0  0  0  0
  6  1  1  0  0  0  0
  7  3  1  0  0  0  0
  8  4  1  0  0  0  0
  9  5  1  0  0  0  0
 10 12  1  0  0  0  0
 10 13  1  0  0  0  0
 11 10  1  0  0  0  0
 13 18  1  0  0  0  0
 14 13  2  0  0  0  0
 14 15  1  0  0  0  0
 15 16  2  0  0  0  0
 16 17  1  0  0  0  0
 17 21  1  0  0  0  0
 18 17  2  0  0  0  0
 19 14  1  0  0  0  0
 20 15  1  0  0  0  0
 22 23  1  0  0  0  0
 24 25  1  0  0  0  0
 26 25  1  0  0  0  0
 26 27  2  0  0  0  0
 27 37  1  0  0  0  0
 28 27  1  0  0  0  0
 29 30  2  0  0  0  0
 29 28  1  0  0  0  0
 31 29  1  0  0  0  0
 31 33  1  0  0  0  0
 32 31  1  0  0  0  0
 33 34  1  6  0  0  0
 33 28  1  0  0  0  0
 34 35  1  0  0  0  0
 35 26  1  0  0  0  0
 36 35  1  0  0  0  0
 37 38  2  0  0  0  0
 39 40  1  0  0  0  0
 39 37  1  0  0  0  0
M  END
>  <minimizedAffinity>
-5.92613125

$$$$

 OpenBabel03242512193D

 40 43  0  0  1  0  0  0  0  0999 V2000
   36.5710   27.6630   41.6490 C   0  0  0  0  0  0  0  0  0  0  0  0
   36.9950   26.3660   41.4080 C   0  0  0  0  0  0  0  0  0  0  0  0
   36.9580   25.8650   40.1210 C   0  0  0  0  0  0  0  0  0  0  0  0
   36.4930   26.6920   39.1080 C   0  0  0  0  0  0  0  0  0  0  0  0
   36.0830   27.9740   39.3960 C   0  0  0  0  0  0  0  0  0  0  0  0
   36.1050   28.5090   40.6670 C   0  0  0  0  0  0  0  0  0  0  0  0
   37.2990   24.8660   40.0180 H   0  0  0  0  0  0  0  0  0  0  0  0
   36.5050   26.2050   38.1480 H   0  0  0  0  0  0  0  0  0  0  0  0
   35.7660   28.4500   38.4970 H   0  0  0  0  0  0  0  0  0  0  0  0
   37.4710   25.6240   42.6000 C   0  0  0  0  0  0  0  0  0  0  0  0
   37.1640   24.5960   42.6170 H   0  0  0  0  0  0  0  0  0  0  0  0
   36.9640   26.1220   43.4710 H   0  0  0  0  0  0  0  0  0  0  0  0
   38.9480   25.8470   42.7780 C   0  0  0  0  0  0  0  0  0  0  0  0
   39.7980   24.9780   42.1030 C   0  0  0  0  0  0  0  0  0  0  0  0
   41.1770   25.1640   42.2400 C   0  0  0  0  0  0  0  0  0  0  0  0
   41.5960   26.1820   43.0260 N   0  0  0  0  0  0  0  0  0  0  0  0
   40.7330   27.0220   43.6770 C   0  0  0  0  0  0  0  0  0  0  0  0
   39.4070   26.8510   43.5520 N   0  0  0  0  0  0  0  0  0  0  0  0
   39.3880   24.1830   41.4920 H   0  0  0  0  0  0  0  0  0  0  0  0
   41.8710   24.5260   41.7460 H   0  0  0  0  0  0  0  0  0  0  0  0
   41.1350   27.8040   44.2800 H   0  0  0  0  0  0  0  0  0  0  0  0
   36.5760   28.2530   42.9360 O   0  0  0  0  0  0  0  0  0  0  0  0
   37.4750   28.2850   43.3720 H   0  0  0  0  0  0  0  0  0  0  0  0
   35.6860   29.7850   40.8640 O   0  0  0  0  0  0  0  0  0  0  0  0
   36.3150   31.0000   40.9540 C   0  0  0  0  0  2  0  0  0  0  0  0
   37.4980   31.1680   40.0680 C   0  0  0  0  0  0  0  0  0  0  0  0
   38.7700   31.1160   40.4420 C   0  0  0  0  0  0  0  0  0  0  0  0
   39.7830   31.2970   39.4980 N   0  0  0  0  0  0  0  0  0  0  0  0
   41.0800   30.9940   39.0330 C   0  0  0  0  0  0  0  0  0  0  0  0
   42.1460   30.4320   39.4630 O   0  0  0  0  0  0  0  0  0  0  0  0
   40.8610   31.5890   37.6930 C   0  0  0  0  0  3  0  0  0  0  0  0
   40.6490   30.7570   36.9780 H   0  0  0  0  0  0  0  0  0  0  0  0
   39.6410   32.1870   38.3620 C   0  0  1  0  0  3  0  0  0  0  0  0
   38.1540   31.7200   37.4350 S   0  0  0  0  0  0  0  0  0  0  0  0
   36.9550   31.3940   38.7340 C   0  0  0  0  0  3  0  0  0  0  0  0
   36.2690   30.5570   38.4470 H   0  0  0  0  0  0  0  0  0  0  0  0
   39.1690   30.8770   41.8400 C   0  0  0  0  0  0  0  0  0  0  0  0
   38.9810   30.0110   42.7280 O   0  0  0  0  0  0  0  0  0  0  0  0
   39.9700   31.7240   42.5500 O   0  0  0  0  0  0  0  0  0  0  0  0
   40.8160   31.4540   43.0680 H   0  0  0  0  0  0  0  0  0  0  0  0
  1 22  1  0  0  0  0
  2  1  1  0  0  0  0
  2 10  1  0  0  0  0
  3  2  2  0  0  0  0
  4  5  2  0  0  0  0
  4  3  1  0  0  0  0
  5  6  1  0  0  0  0
  6 24  1  0  0  0  0
  6  1  2  0  0  0  0
  7  3  1  0  0  0  0
  8  4  1  0  0  0  0
  9  5  1  0  0  0  0
 10 11  1  0  0  0  0
 10 13  1  0  0  0  0
 10 12  1  0  0  0  0
 13 18  1  0  0  0  0
 14 15  1  0  0  0  0
 14 13  2  0  0  0  0
 15 16  2  0  0  0  0
 16 17  1  0  0  0  0
 17 21  1  0  0  0  0
 18 17  2  0  0  0  0
 19 14  1  0  0  0  0
 20 15  1  0  0  0  0
 22 23  1  0  0  0  0
 24 25  1  0  0  0  0
 26 27  2  0  0  0  0
 26 25  1  0  0  0  0
 27 37  1  0  0  0  0
 28 27  1  0  0  0  0
 29 30  2  0  0  0  0
 29 28  1  0  0  0  0
 31 33  1  0  0  0  0
 31 29  1  0  0  0  0
 32 31  1  0  0  0  0
 33 34  1  6  0  0  0
 33 28  1  0  0  0  0
 34 35  1  0  0  0  0
 35 26  1  0  0  0  0
 36 35  1  0  0  0  0
 37 39  1  0  0  0  0
 37 38  2  0  0  0  0
 39 40  1  0  0  0  0
M  END
>  <minimizedAffinity>
-5.89995289

$$$$

 OpenBabel03242512193D

 40 43  0  0  1  0  0  0  0  0999 V2000
   37.9170   29.4160   40.5360 C   0  0  0  0  0  0  0  0  0  0  0  0
   36.9280   28.8560   41.3290 C   0  0  0  0  0  0  0  0  0  0  0  0
   35.6240   28.8300   40.8750 C   0  0  0  0  0  0  0  0  0  0  0  0
   35.3530   29.3720   39.6270 C   0  0  0  0  0  0  0  0  0  0  0  0
   36.3680   29.9180   38.8750 C   0  0  0  0  0  0  0  0  0  0  0  0
   37.6810   29.9620   39.2940 C   0  0  0  0  0  0  0  0  0  0  0  0
   34.9260   28.3840   41.5390 H   0  0  0  0  0  0  0  0  0  0  0  0
   34.3090   29.3010   39.3710 H   0  0  0  0  0  0  0  0  0  0  0  0
   35.9670   30.2770   37.9550 H   0  0  0  0  0  0  0  0  0  0  0  0
   37.3920   28.3130   42.6280 C   0  0  0  0  0  0  0  0  0  0  0  0
   36.6720   28.4140   43.4180 H   0  0  0  0  0  0  0  0  0  0  0  0
   38.2690   28.9560   42.9130 H   0  0  0  0  0  0  0  0  0  0  0  0
   37.9260   26.9200   42.4330 C   0  0  0  0  0  0  0  0  0  0  0  0
   36.9880   25.9010   42.3110 C   0  0  0  0  0  0  0  0  0  0  0  0
   37.4510   24.5960   42.1190 C   0  0  0  0  0  0  0  0  0  0  0  0
   38.7900   24.4090   42.0660 N   0  0  0  0  0  0  0  0  0  0  0  0
   39.6890   25.4340   42.1890 C   0  0  0  0  0  0  0  0  0  0  0  0
   39.2540   26.6910   42.3740 N   0  0  0  0  0  0  0  0  0  0  0  0
   35.9290   26.1280   42.3660 H   0  0  0  0  0  0  0  0  0  0  0  0
   36.7750   23.7800   42.0210 H   0  0  0  0  0  0  0  0  0  0  0  0
   40.7300   25.2120   42.1370 H   0  0  0  0  0  0  0  0  0  0  0  0
   39.2770   29.4830   40.9250 O   0  0  0  0  0  0  0  0  0  0  0  0
   39.6960   28.5960   41.1160 H   0  0  0  0  0  0  0  0  0  0  0  0
   38.6230   30.5150   38.4870 O   0  0  0  0  0  0  0  0  0  0  0  0
   38.8720   31.7840   38.0300 C   0  0  0  0  0  2  0  0  0  0  0  0
   40.1940   32.3470   38.4150 C   0  0  0  0  0  0  0  0  0  0  0  0
   40.4950   32.9170   39.5750 C   0  0  0  0  0  0  0  0  0  0  0  0
   41.7820   33.4090   39.7980 N   0  0  0  0  0  0  0  0  0  0  0  0
   42.8530   33.6600   40.6840 C   0  0  0  0  0  0  0  0  0  0  0  0
   43.0660   33.6940   41.9440 O   0  0  0  0  0  0  0  0  0  0  0  0
   43.8350   33.9170   39.6030 C   0  0  0  0  0  3  0  0  0  0  0  0
   44.4500   32.9930   39.4720 H   0  0  0  0  0  0  0  0  0  0  0  0
   42.5900   33.9870   38.7420 C   0  0  1  0  0  3  0  0  0  0  0  0
   42.7260   32.7900   37.3860 S   0  0  0  0  0  0  0  0  0  0  0  0
   41.0570   32.1330   37.2610 C   0  0  0  0  0  3  0  0  0  0  0  0
   41.0720   31.0490   36.9830 H   0  0  0  0  0  0  0  0  0  0  0  0
   39.5070   33.0630   40.6590 C   0  0  0  0  0  0  0  0  0  0  0  0
   38.4880   33.7520   40.9040 O   0  0  0  0  0  0  0  0  0  0  0  0
   39.5360   32.3280   41.8090 O   0  0  0  0  0  0  0  0  0  0  0  0
   38.7470   31.7980   42.2010 H   0  0  0  0  0  0  0  0  0  0  0  0
  1 22  1  0  0  0  0
  1  2  1  0  0  0  0
  2 10  1  0  0  0  0
  3  2  2  0  0  0  0
  3  7  1  0  0  0  0
  4  3  1  0  0  0  0
  5  6  1  0  0  0  0
  5  4  2  0  0  0  0
  6  1  2  0  0  0  0
  8  4  1  0  0  0  0
  9  5  1  0  0  0  0
 10 12  1  0  0  0  0
 10 11  1  0  0  0  0
 13 10  1  0  0  0  0
 14 19  1  0  0  0  0
 14 13  2  0  0  0  0
 15 14  1  0  0  0  0
 16 15  2  0  0  0  0
 16 17  1  0  0  0  0
 17 18  2  0  0  0  0
 18 13  1  0  0  0  0
 20 15  1  0  0  0  0
 21 17  1  0  0  0  0
 22 23  1  0  0  0  0
 24  6  1  0  0  0  0
 25 26  1  0  0  0  0
 25 24  1  0  0  0  0
 26 27  2  0  0  0  0
 27 28  1  0  0  0  0
 27 37  1  0  0  0  0
 28 29  1  0  0  0  0
 29 30  2  0  0  0  0
 31 29  1  0  0  0  0
 32 31  1  0  0  0  0
 33 34  1  6  0  0  0
 33 31  1  0  0  0  0
 33 28  1  0  0  0  0
 35 34  1  0  0  0  0
 35 26  1  0  0  0  0
 36 35  1  0  0  0  0
 37 38  2  0  0  0  0
 37 39  1  0  0  0  0
 39 40  1  0  0  0  0
M  END
>  <minimizedAffinity>
-5.89632559

$$$$

 OpenBabel03242512193D

 40 43  0  0  1  0  0  0  0  0999 V2000
   34.0650   29.0480   37.5450 C   0  0  0  0  0  0  0  0  0  0  0  0
   33.8270   29.0580   36.1800 C   0  0  0  0  0  0  0  0  0  0  0  0
   34.8790   29.2540   35.3070 C   0  0  0  0  0  0  0  0  0  0  0  0
   36.1490   29.4340   35.8380 C   0  0  0  0  0  0  0  0  0  0  0  0
   36.3370   29.4150   37.2010 C   0  0  0  0  0  0  0  0  0  0  0  0
   35.3120   29.2220   38.1040 C   0  0  0  0  0  0  0  0  0  0  0  0
   34.6170   29.2490   34.2790 H   0  0  0  0  0  0  0  0  0  0  0  0
   36.8930   29.5780   35.0730 H   0  0  0  0  0  0  0  0  0  0  0  0
   37.3700   29.5660   37.4140 H   0  0  0  0  0  0  0  0  0  0  0  0
   32.4160   28.8410   35.7820 C   0  0  0  0  0  0  0  0  0  0  0  0
   31.9200   28.0830   36.3590 H   0  0  0  0  0  0  0  0  0  0  0  0
   32.4690   28.4540   34.7280 H   0  0  0  0  0  0  0  0  0  0  0  0
   31.6980   30.1610   35.7190 C   0  0  0  0  0  0  0  0  0  0  0  0
   31.7730   30.8570   34.5180 C   0  0  0  0  0  0  0  0  0  0  0  0
   31.1080   32.0840   34.4230 C   0  0  0  0  0  0  0  0  0  0  0  0
   30.4330   32.5160   35.5120 N   0  0  0  0  0  0  0  0  0  0  0  0
   30.3780   31.8050   36.6820 C   0  0  0  0  0  0  0  0  0  0  0  0
   31.0130   30.6270   36.7830 N   0  0  0  0  0  0  0  0  0  0  0  0
   32.3350   30.4480   33.6870 H   0  0  0  0  0  0  0  0  0  0  0  0
   31.1340   32.6570   33.5260 H   0  0  0  0  0  0  0  0  0  0  0  0
   29.8250   32.2070   37.5000 H   0  0  0  0  0  0  0  0  0  0  0  0
   33.0460   28.8540   38.5080 O   0  0  0  0  0  0  0  0  0  0  0  0
   32.5500   27.9900   38.4160 H   0  0  0  0  0  0  0  0  0  0  0  0
   35.5850   29.2140   39.4340 O   0  0  0  0  0  0  0  0  0  0  0  0
   35.7680   30.1860   40.3840 C   0  0  0  0  0  2  0  0  0  0  0  0
   37.1420   30.2670   40.9500 C   0  0  0  0  0  0  0  0  0  0  0  0
   37.7190   29.3670   41.7360 C   0  0  0  0  0  0  0  0  0  0  0  0
   39.0190   29.5770   42.2010 N   0  0  0  0  0  0  0  0  0  0  0  0
   40.2740   29.0550   42.5800 C   0  0  0  0  0  0  0  0  0  0  0  0
   40.7940   27.9230   42.8680 O   0  0  0  0  0  0  0  0  0  0  0  0
   40.9550   30.3720   42.5560 C   0  0  0  0  0  3  0  0  0  0  0  0
   41.5230   30.4470   41.5960 H   0  0  0  0  0  0  0  0  0  0  0  0
   39.5350   30.8970   42.5030 C   0  0  1  0  0  3  0  0  0  0  0  0
   39.3350   31.9530   41.0430 S   0  0  0  0  0  0  0  0  0  0  0  0
   37.6920   31.5230   40.4560 C   0  0  0  0  0  3  0  0  0  0  0  0
   37.6430   31.5550   39.3380 H   0  0  0  0  0  0  0  0  0  0  0  0
   37.0310   28.1330   42.1550 C   0  0  0  0  0  0  0  0  0  0  0  0
   36.9510   26.9380   41.7810 O   0  0  0  0  0  0  0  0  0  0  0  0
   36.1980   28.0640   43.2350 O   0  0  0  0  0  0  0  0  0  0  0  0
   36.2600   27.3740   43.9950 H   0  0  0  0  0  0  0  0  0  0  0  0
  1  6  1  0  0  0  0
  1 22  1  0  0  0  0
  2  1  2  0  0  0  0
  3  4  2  0  0  0  0
  3  2  1  0  0  0  0
  4  5  1  0  0  0  0
  5  9  1  0  0  0  0
  5  6  2  0  0  0  0
  6 24  1  0  0  0  0
  7  3  1  0  0  0  0
  8  4  1  0  0  0  0
 10  2  1  0  0  0  0
 10 11  1  0  0  0  0
 12 10  1  0  0  0  0
 13 10  1  0  0  0  0
 13 18  1  0  0  0  0
 14 13  2  0  0  0  0
 15 14  1  0  0  0  0
 15 16  2  0  0  0  0
 16 17  1  0  0  0  0
 17 18  2  0  0  0  0
 17 21  1  0  0  0  0
 19 14  1  0  0  0  0
 20 15  1  0  0  0  0
 23 22  1  0  0  0  0
 24 25  1  0  0  0  0
 25 26  1  0  0  0  0
 26 27  2  0  0  0  0
 27 37  1  0  0  0  0
 27 28  1  0  0  0  0
 28 33  1  0  0  0  0
 28 29  1  0  0  0  0
 29 30  2  0  0  0  0
 31 29  1  0  0  0  0
 32 31  1  0  0  0  0
 33 34  1  6  0  0  0
 33 31  1  0  0  0  0
 35 26  1  0  0  0  0
 35 34  1  0  0  0  0
 36 35  1  0  0  0  0
 37 39  1  0  0  0  0
 38 37  2  0  0  0  0
 39 40  1  0  0  0  0
M  END
>  <minimizedAffinity>
-5.86203575

$$$$
