
     RDKit          3D

 31 33  0  0  0  0  0  0  0  0999 V2000
   44.5083   35.9834   44.5363 C   0  0  0  0  0  0  0  0  0  0  0  0
   45.1814   35.9196   43.2965 C   0  0  0  0  0  0  0  0  0  0  0  0
   46.1092   34.8833   43.1057 C   0  0  0  0  0  0  0  0  0  0  0  0
   46.3194   33.9945   44.1092 N   0  0  0  0  0  0  0  0  0  0  0  0
   45.6462   34.0927   45.2943 C   0  0  0  0  0  0  0  0  0  0  0  0
   44.7549   35.0764   45.4966 N   0  0  0  0  0  0  0  0  0  0  0  0
   46.0945   32.8091   46.4544 S   0  0  0  0  0  0  0  0  0  0  0  0
   43.7836   36.7601   44.7381 H   0  0  0  0  0  0  0  0  0  0  0  0
   44.9644   36.6624   42.5400 H   0  0  0  0  0  0  0  0  0  0  0  0
   46.6275   34.8256   42.1647 H   0  0  0  0  0  0  0  0  0  0  0  0
   44.9573   31.4012   46.1483 C   0  0  0  0  0  0  0  0  0  0  0  0
   45.1139   30.9328   44.7721 C   0  0  0  0  0  0  0  0  0  0  0  0
   45.4860   29.6903   44.6323 C   0  0  0  0  0  0  0  0  0  0  0  0
   45.7324   28.8167   45.7769 C   0  0  0  0  0  0  0  0  0  0  0  0
   46.1005   27.5974   45.6993 O   0  0  0  0  0  0  0  0  0  0  0  0
   45.8582   28.3369   47.0603 O   0  0  0  0  0  0  0  0  0  0  0  0
   45.6717   29.1096   43.3553 N   0  0  0  0  0  0  0  0  0  0  0  0
   46.3879   28.2258   42.4678 C   0  0  0  0  0  0  0  0  0  0  0  0
   46.9205   27.1189   42.7236 O   0  0  0  0  0  0  0  0  0  0  0  0
   46.1073   29.2616   41.4110 C   0  0  2  0  0  0  0  0  0  0  0  0
   45.9682   28.8314   40.4024 H   0  0  0  0  0  0  0  0  0  0  0  0
   44.8333   29.4150   42.2156 C   0  0  2  0  0  0  0  0  0  0  0  0
   44.1116   31.0414   42.2708 S   0  0  0  0  0  0  0  0  0  0  0  0
   44.8496   31.8786   43.6911 C   0  0  1  0  0  0  0  0  0  0  0  0
   44.0921   32.6109   44.0370 H   0  0  0  0  0  0  0  0  0  0  0  0
   45.2105   30.6675   46.9349 H   0  0  0  0  0  0  0  0  0  0  0  0
   43.9417   31.7999   46.3354 H   0  0  0  0  0  0  0  0  0  0  0  0
   45.1397   28.4394   47.7796 H   0  0  0  0  0  0  0  0  0  0  0  0
   46.8329   30.0783   41.5155 H   0  0  0  0  0  0  0  0  0  0  0  0
   44.0988   28.6498   41.9257 H   0  0  0  0  0  0  0  0  0  0  0  0
   45.7312   32.4860   43.4041 H   0  0  0  0  0  0  0  0  0  0  0  0
  1  6  2  0
  2  1  1  0
  3  2  2  0
  3  4  1  0
  4  5  2  0
  5  6  1  0
  5  7  1  0
  1  8  1  0
  2  9  1  0
  3 10  1  0
 11 12  1  0
 12 13  2  0
 13 14  1  0
 14 15  2  0
 14 16  1  0
 13 17  1  0
 17 18  1  0
 18 19  2  0
 18 20  1  0
 20 21  1  6
 20 22  1  0
 22 23  1  0
 23 24  1  0
 24 25  1  1
 24 12  1  0
 22 17  1  0
 11 26  1  0
 11 27  1  0
 16 28  1  0
 20 29  1  0
 22 30  1  6
 24 31  1  0
  7 11  1  0
M  ISO  5   8  14   9  14  10  14  21  15  25  15
M  END
>  <DihAtoms>  (1) 
4,6,10,11

>  <DihDeg>  (1) 
-179.96629820498399

$$$$
