
 OpenBabel03242522453D

 54 58  0  0  1  0  0  0  0  0999 V2000
   40.7750   28.5320   42.9970 C   0  0  0  0  0  0  0  0  0  0  0  0
   40.0910   27.4480   43.4860 C   0  0  0  0  0  0  0  0  0  0  0  0
   40.6440   26.3370   43.9950 C   0  0  0  0  0  0  0  0  0  0  0  0
   42.0060   26.2530   44.0430 C   0  0  0  0  0  0  0  0  0  0  0  0
   42.7930   27.2660   43.5910 C   0  0  0  0  0  0  0  0  0  0  0  0
   42.1600   28.3880   43.0770 C   0  0  0  0  0  0  0  0  0  0  0  0
   40.2140   25.4680   44.4040 H   0  0  0  0  0  0  0  0  0  0  0  0
   42.5850   25.4180   44.4230 H   0  0  0  0  0  0  0  0  0  0  0  0
   43.8950   27.2650   43.6020 H   0  0  0  0  0  0  0  0  0  0  0  0
   42.8120   29.2020   42.7160 H   0  0  0  0  0  0  0  0  0  0  0  0
   38.6150   27.5360   43.4660 C   0  0  0  0  0  0  0  0  0  0  0  0
   38.3560   28.5180   43.0910 H   0  0  0  0  0  0  0  0  0  0  0  0
   38.3400   27.3040   44.5160 H   0  0  0  0  0  0  0  0  0  0  0  0
   37.9080   26.4410   42.7380 C   0  0  0  0  0  0  0  0  0  0  0  0
   38.5540   25.5620   42.4700 H   0  0  0  0  0  0  0  0  0  0  0  0
   37.1040   25.9190   43.3330 H   0  0  0  0  0  0  0  0  0  0  0  0
   36.3930   28.1600   41.8140 C   0  0  0  0  0  0  0  0  0  0  0  0
   37.2070   27.0230   41.6020 C   0  0  0  0  0  0  0  0  0  0  0  0
   37.3150   26.5420   40.3110 C   0  0  0  0  0  0  0  0  0  0  0  0
   36.6440   27.1780   39.3240 N   0  0  0  0  0  0  0  0  0  0  0  0
   35.8880   28.2490   39.5540 C   0  0  0  0  0  0  0  0  0  0  0  0
   35.7450   28.7610   40.7980 N   0  0  0  0  0  0  0  0  0  0  0  0
   36.1670   28.6860   42.7230 H   0  0  0  0  0  0  0  0  0  0  0  0
   37.9350   25.6720   40.1480 H   0  0  0  0  0  0  0  0  0  0  0  0
   35.1850   28.8990   38.3950 C   0  0  0  0  0  0  0  0  0  0  0  0
   34.3300   29.5090   38.7640 H   0  0  0  0  0  0  0  0  0  0  0  0
   34.7760   28.0450   37.7900 H   0  0  0  0  0  0  0  0  0  0  0  0
   36.0720   29.6780   37.5420 C   0  0  0  0  0  0  0  0  0  0  0  0
   36.9280   30.6810   37.9780 C   0  0  0  0  0  0  0  0  0  0  0  0
   37.5980   31.1860   36.8970 C   0  0  0  0  0  0  0  0  0  0  0  0
   37.1270   30.4690   35.8300 N   0  0  0  0  0  0  0  0  0  0  0  0
   36.2190   29.5710   36.2080 N   0  0  0  0  0  0  0  0  0  0  0  0
   37.1110   31.0770   38.9820 H   0  0  0  0  0  0  0  0  0  0  0  0
   38.3430   31.9680   36.8160 H   0  0  0  0  0  0  0  0  0  0  0  0
   37.4430   30.6130   34.8420 H   0  0  0  0  0  0  0  0  0  0  0  0
   40.1830   29.9300   42.2270 S   0  0  0  0  0  0  0  0  0  0  0  0
   41.1650   31.0690   42.2240 O   0  0  0  0  0  0  0  0  0  0  0  0
   39.0170   30.4600   43.1000 O   0  0  0  0  0  0  0  0  0  0  0  0
   39.4690   29.9140   40.6640 C   0  0  0  0  0  2  0  0  0  0  0  0
   40.2550   30.8580   39.7770 C   0  0  0  0  0  0  0  0  0  0  0  0
   40.0140   32.1310   39.6180 C   0  0  0  0  0  0  0  0  0  0  0  0
   40.8350   32.8790   38.7400 N   0  0  0  0  0  0  0  0  0  0  0  0
   41.6250   34.0640   38.5010 C   0  0  0  0  0  0  0  0  0  0  0  0
   41.5090   35.2770   38.8840 O   0  0  0  0  0  0  0  0  0  0  0  0
   42.5060   33.1630   37.6770 C   0  0  0  0  0  3  0  0  0  0  0  0
   42.9440   33.6560   36.7860 H   0  0  0  0  0  0  0  0  0  0  0  0
   41.1850   32.4600   37.3970 C   0  0  1  0  0  3  0  0  0  0  0  0
   41.4520   30.6740   37.3040 S   0  0  0  0  0  0  0  0  0  0  0  0
   41.3600   30.1310   39.0650 C   0  0  0  0  0  3  0  0  0  0  0  0
   41.1860   29.0520   38.9750 H   0  0  0  0  0  0  0  0  0  0  0  0
   38.9030   32.8290   40.3130 C   0  0  0  0  0  0  0  0  0  0  0  0
   37.7370   33.2620   40.1470 O   0  0  0  0  0  0  0  0  0  0  0  0
   38.9000   33.2630   41.6080 O   0  0  0  0  0  0  0  0  0  0  0  0
   38.3250   32.9240   42.3510 H   0  0  0  0  0  0  0  0  0  0  0  0
  1  6  2  0  0  0  0
  1  2  1  0  0  0  0
  2  3  2  0  0  0  0
  3  4  1  0  0  0  0
  3  7  1  0  0  0  0
  4  8  1  0  0  0  0
  5  9  1  0  0  0  0
  5  4  2  0  0  0  0
  6  5  1  0  0  0  0
 10  6  1  0  0  0  0
 11  2  1  0  0  0  0
 11 13  1  0  0  0  0
 12 11  1  0  0  0  0
 14 16  1  0  0  0  0
 14 11  1  0  0  0  0
 15 14  1  0  0  0  0
 17 23  1  0  0  0  0
 18 17  1  0  0  0  0
 18 14  1  0  0  0  0
 19 18  2  0  0  0  0
 20 21  2  0  0  0  0
 20 19  1  0  0  0  0
 21 22  1  0  0  0  0
 22 17  2  0  0  0  0
 24 19  1  0  0  0  0
 25 26  1  0  0  0  0
 25 21  1  0  0  0  0
 27 25  1  0  0  0  0
 28 29  1  0  0  0  0
 28 25  1  0  0  0  0
 29 33  1  0  0  0  0
 30 29  2  0  0  0  0
 31 32  1  0  0  0  0
 31 30  1  0  0  0  0
 32 28  2  0  0  0  0
 34 30  1  0  0  0  0
 35 31  1  0  0  0  0
 36  1  1  0  0  0  0
 36 38  2  0  0  0  0
 37 36  2  0  0  0  0
 39 36  1  0  0  0  0
 40 39  1  0  0  0  0
 41 40  2  0  0  0  0
 41 51  1  0  0  0  0
 42 41  1  0  0  0  0
 43 42  1  0  0  0  0
 43 44  2  0  0  0  0
 45 43  1  0  0  0  0
 46 45  1  0  0  0  0
 47 48  1  1  0  0  0
 47 45  1  0  0  0  0
 47 42  1  0  0  0  0
 48 49  1  0  0  0  0
 49 40  1  0  0  0  0
 50 49  1  0  0  0  0
 51 53  1  0  0  0  0
 52 51  2  0  0  0  0
 53 54  1  0  0  0  0
M  END
>  <minimizedAffinity>
-6.6679492

$$$$

 OpenBabel03242522453D

 54 58  0  0  1  0  0  0  0  0999 V2000
   39.0040   27.8090   42.4330 C   0  0  0  0  0  0  0  0  0  0  0  0
   38.4290   26.5920   42.1670 C   0  0  0  0  0  0  0  0  0  0  0  0
   38.7990   25.4170   42.6970 C   0  0  0  0  0  0  0  0  0  0  0  0
   39.8380   25.4030   43.5840 C   0  0  0  0  0  0  0  0  0  0  0  0
   40.4860   26.5480   43.9310 C   0  0  0  0  0  0  0  0  0  0  0  0
   40.0530   27.7300   43.3480 C   0  0  0  0  0  0  0  0  0  0  0  0
   38.4190   24.4440   42.5710 H   0  0  0  0  0  0  0  0  0  0  0  0
   40.2430   24.5310   44.0850 H   0  0  0  0  0  0  0  0  0  0  0  0
   41.3270   26.6090   44.6400 H   0  0  0  0  0  0  0  0  0  0  0  0
   40.5880   28.6500   43.6410 H   0  0  0  0  0  0  0  0  0  0  0  0
   37.2850   26.5950   41.2290 C   0  0  0  0  0  0  0  0  0  0  0  0
   36.8190   27.5700   41.2910 H   0  0  0  0  0  0  0  0  0  0  0  0
   36.6870   25.7240   41.5670 H   0  0  0  0  0  0  0  0  0  0  0  0
   37.5960   26.1990   39.8240 C   0  0  0  0  0  0  0  0  0  0  0  0
   37.7570   27.0580   39.1180 H   0  0  0  0  0  0  0  0  0  0  0  0
   38.5740   25.6520   39.6910 H   0  0  0  0  0  0  0  0  0  0  0  0
   36.2970   24.1300   40.1870 C   0  0  0  0  0  0  0  0  0  0  0  0
   36.5820   25.2540   39.3780 C   0  0  0  0  0  0  0  0  0  0  0  0
   35.8540   25.4080   38.2140 C   0  0  0  0  0  0  0  0  0  0  0  0
   34.9120   24.4870   37.9100 N   0  0  0  0  0  0  0  0  0  0  0  0
   34.6640   23.4400   38.6940 C   0  0  0  0  0  0  0  0  0  0  0  0
   35.3470   23.2380   39.8440 N   0  0  0  0  0  0  0  0  0  0  0  0
   36.7390   23.8180   41.1150 H   0  0  0  0  0  0  0  0  0  0  0  0
   36.0730   26.2670   37.5940 H   0  0  0  0  0  0  0  0  0  0  0  0
   33.5910   22.4690   38.2840 C   0  0  0  0  0  0  0  0  0  0  0  0
   33.8070   21.4640   38.7120 H   0  0  0  0  0  0  0  0  0  0  0  0
   33.6770   22.4020   37.1650 H   0  0  0  0  0  0  0  0  0  0  0  0
   32.2460   22.9170   38.6120 C   0  0  0  0  0  0  0  0  0  0  0  0
   31.5860   22.6630   39.8070 C   0  0  0  0  0  0  0  0  0  0  0  0
   30.3440   23.2370   39.7540 C   0  0  0  0  0  0  0  0  0  0  0  0
   30.2880   23.8290   38.5200 N   0  0  0  0  0  0  0  0  0  0  0  0
   31.4170   23.6410   37.8370 N   0  0  0  0  0  0  0  0  0  0  0  0
   31.9060   22.1110   40.6980 H   0  0  0  0  0  0  0  0  0  0  0  0
   29.5350   23.2660   40.4720 H   0  0  0  0  0  0  0  0  0  0  0  0
   29.4600   24.3600   38.1610 H   0  0  0  0  0  0  0  0  0  0  0  0
   38.6950   29.3310   41.7360 S   0  0  0  0  0  0  0  0  0  0  0  0
   39.3210   30.4700   42.4910 O   0  0  0  0  0  0  0  0  0  0  0  0
   37.1730   29.5890   41.8860 O   0  0  0  0  0  0  0  0  0  0  0  0
   38.9420   29.6710   40.0700 C   0  0  0  0  0  2  0  0  0  0  0  0
   39.6570   31.0020   39.9620 C   0  0  0  0  0  0  0  0  0  0  0  0
   39.0870   32.1590   39.7650 C   0  0  0  0  0  0  0  0  0  0  0  0
   39.8980   33.3160   39.6750 N   0  0  0  0  0  0  0  0  0  0  0  0
   40.1480   34.6800   40.0780 C   0  0  0  0  0  0  0  0  0  0  0  0
   39.3770   35.6550   40.3700 O   0  0  0  0  0  0  0  0  0  0  0  0
   41.6060   34.3180   39.9640 C   0  0  0  0  0  3  0  0  0  0  0  0
   42.2470   35.1460   39.6010 H   0  0  0  0  0  0  0  0  0  0  0  0
   41.0890   33.4140   38.8540 C   0  0  1  0  0  3  0  0  0  0  0  0
   42.0210   31.8650   38.8430 S   0  0  0  0  0  0  0  0  0  0  0  0
   41.1440   30.8240   40.0900 C   0  0  0  0  0  3  0  0  0  0  0  0
   41.4870   29.8130   39.8410 H   0  0  0  0  0  0  0  0  0  0  0  0
   37.6180   32.3130   39.6190 C   0  0  0  0  0  0  0  0  0  0  0  0
   36.6050   31.7840   39.1000 O   0  0  0  0  0  0  0  0  0  0  0  0
   36.8490   33.3110   40.1470 O   0  0  0  0  0  0  0  0  0  0  0  0
   36.1440   33.2160   40.8480 H   0  0  0  0  0  0  0  0  0  0  0  0
  1  6  1  0  0  0  0
  2  1  2  0  0  0  0
  2  3  1  0  0  0  0
  3  4  2  0  0  0  0
  4  5  1  0  0  0  0
  4  8  1  0  0  0  0
  5  9  1  0  0  0  0
  6 10  1  0  0  0  0
  6  5  2  0  0  0  0
  7  3  1  0  0  0  0
 11 12  1  0  0  0  0
 11 13  1  0  0  0  0
 11  2  1  0  0  0  0
 14 11  1  0  0  0  0
 15 14  1  0  0  0  0
 16 14  1  0  0  0  0
 17 23  1  0  0  0  0
 18 14  1  0  0  0  0
 18 17  2  0  0  0  0
 19 18  1  0  0  0  0
 20 19  2  0  0  0  0
 20 21  1  0  0  0  0
 21 22  2  0  0  0  0
 22 17  1  0  0  0  0
 24 19  1  0  0  0  0
 25 28  1  0  0  0  0
 25 21  1  0  0  0  0
 25 26  1  0  0  0  0
 27 25  1  0  0  0  0
 28 29  1  0  0  0  0
 29 33  1  0  0  0  0
 30 29  2  0  0  0  0
 30 34  1  0  0  0  0
 31 30  1  0  0  0  0
 32 31  1  0  0  0  0
 32 28  2  0  0  0  0
 35 31  1  0  0  0  0
 36 38  2  0  0  0  0
 36  1  1  0  0  0  0
 36 37  2  0  0  0  0
 39 36  1  0  0  0  0
 40 39  1  0  0  0  0
 40 49  1  0  0  0  0
 41 40  2  0  0  0  0
 42 41  1  0  0  0  0
 42 43  1  0  0  0  0
 43 44  2  0  0  0  0
 45 43  1  0  0  0  0
 46 45  1  0  0  0  0
 47 48  1  1  0  0  0
 47 42  1  0  0  0  0
 47 45  1  0  0  0  0
 48 49  1  0  0  0  0
 50 49  1  0  0  0  0
 51 41  1  0  0  0  0
 51 53  1  0  0  0  0
 52 51  2  0  0  0  0
 53 54  1  0  0  0  0
M  END
>  <minimizedAffinity>
-6.64559603

$$$$

 OpenBabel03242522453D

 54 58  0  0  1  0  0  0  0  0999 V2000
   41.4020   34.1380   40.7210 C   0  0  0  0  0  0  0  0  0  0  0  0
   40.4480   33.1530   40.6870 C   0  0  0  0  0  0  0  0  0  0  0  0
   39.1440   33.3330   40.4340 C   0  0  0  0  0  0  0  0  0  0  0  0
   38.6990   34.6000   40.1830 C   0  0  0  0  0  0  0  0  0  0  0  0
   39.5510   35.6610   40.1850 C   0  0  0  0  0  0  0  0  0  0  0  0
   40.8880   35.4070   40.4530 C   0  0  0  0  0  0  0  0  0  0  0  0
   38.3440   32.6510   40.3710 H   0  0  0  0  0  0  0  0  0  0  0  0
   37.6770   34.8910   39.9670 H   0  0  0  0  0  0  0  0  0  0  0  0
   39.2610   36.7050   39.9890 H   0  0  0  0  0  0  0  0  0  0  0  0
   41.5670   36.2780   40.4490 H   0  0  0  0  0  0  0  0  0  0  0  0
   40.9190   31.7720   40.9300 C   0  0  0  0  0  0  0  0  0  0  0  0
   41.9950   31.7720   40.8050 H   0  0  0  0  0  0  0  0  0  0  0  0
   40.3230   31.1780   40.2060 H   0  0  0  0  0  0  0  0  0  0  0  0
   40.4930   31.1570   42.2210 C   0  0  0  0  0  0  0  0  0  0  0  0
   41.3350   30.8810   42.9110 H   0  0  0  0  0  0  0  0  0  0  0  0
   39.9020   31.8400   42.8980 H   0  0  0  0  0  0  0  0  0  0  0  0
   38.6410   29.6740   42.9070 C   0  0  0  0  0  0  0  0  0  0  0  0
   39.5880   30.0550   41.9290 C   0  0  0  0  0  0  0  0  0  0  0  0
   39.5800   29.3720   40.7280 C   0  0  0  0  0  0  0  0  0  0  0  0
   38.6740   28.3840   40.5490 N   0  0  0  0  0  0  0  0  0  0  0  0
   37.7930   28.0500   41.4880 C   0  0  0  0  0  0  0  0  0  0  0  0
   37.7560   28.6830   42.6830 N   0  0  0  0  0  0  0  0  0  0  0  0
   38.4780   30.0600   43.8960 H   0  0  0  0  0  0  0  0  0  0  0  0
   40.3050   29.6620   39.9790 H   0  0  0  0  0  0  0  0  0  0  0  0
   36.8150   26.9450   41.1990 C   0  0  0  0  0  0  0  0  0  0  0  0
   36.4140   27.0540   40.1660 H   0  0  0  0  0  0  0  0  0  0  0  0
   35.9720   27.1100   41.9240 H   0  0  0  0  0  0  0  0  0  0  0  0
   37.3580   25.6140   41.4280 C   0  0  0  0  0  0  0  0  0  0  0  0
   37.0570   24.4850   40.6760 C   0  0  0  0  0  0  0  0  0  0  0  0
   37.7510   23.4210   41.1850 C   0  0  0  0  0  0  0  0  0  0  0  0
   38.4600   23.9390   42.2360 N   0  0  0  0  0  0  0  0  0  0  0  0
   38.2290   25.2430   42.3840 N   0  0  0  0  0  0  0  0  0  0  0  0
   36.3950   24.3570   39.8130 H   0  0  0  0  0  0  0  0  0  0  0  0
   37.7910   22.3810   40.8870 H   0  0  0  0  0  0  0  0  0  0  0  0
   39.1010   23.3780   42.8450 H   0  0  0  0  0  0  0  0  0  0  0  0
   43.0480   34.0420   41.1440 S   0  0  0  0  0  0  0  0  0  0  0  0
   43.3350   32.9940   42.1830 O   0  0  0  0  0  0  0  0  0  0  0  0
   43.4020   35.3700   41.8610 O   0  0  0  0  0  0  0  0  0  0  0  0
   44.3130   33.9230   39.9860 C   0  0  0  0  0  2  0  0  0  0  0  0
   44.2160   32.5650   39.3210 C   0  0  0  0  0  0  0  0  0  0  0  0
   43.5060   32.2850   38.2630 C   0  0  0  0  0  0  0  0  0  0  0  0
   43.5100   30.9590   37.7670 N   0  0  0  0  0  0  0  0  0  0  0  0
   43.6340   30.0660   36.6390 C   0  0  0  0  0  0  0  0  0  0  0  0
   43.2990   30.1650   35.4110 O   0  0  0  0  0  0  0  0  0  0  0  0
   44.2820   29.1190   37.6150 C   0  0  0  0  0  3  0  0  0  0  0  0
   44.0560   28.0520   37.4220 H   0  0  0  0  0  0  0  0  0  0  0  0
   43.3180   29.7810   38.5890 C   0  0  1  0  0  3  0  0  0  0  0  0
   44.1090   29.9600   40.2050 S   0  0  0  0  0  0  0  0  0  0  0  0
   45.0390   31.5470   40.0580 C   0  0  0  0  0  3  0  0  0  0  0  0
   45.2280   31.8120   41.1050 H   0  0  0  0  0  0  0  0  0  0  0  0
   42.6810   33.3000   37.5600 C   0  0  0  0  0  0  0  0  0  0  0  0
   41.4940   33.6480   37.3470 O   0  0  0  0  0  0  0  0  0  0  0  0
   43.1420   34.3380   36.8010 O   0  0  0  0  0  0  0  0  0  0  0  0
   43.0540   35.3120   37.0030 H   0  0  0  0  0  0  0  0  0  0  0  0
  1 36  1  0  0  0  0
  2  1  1  0  0  0  0
  2 11  1  0  0  0  0
  3  2  2  0  0  0  0
  4  5  2  0  0  0  0
  4  3  1  0  0  0  0
  5  6  1  0  0  0  0
  6  1  2  0  0  0  0
  7  3  1  0  0  0  0
  8  4  1  0  0  0  0
  9  5  1  0  0  0  0
 10  6  1  0  0  0  0
 11 14  1  0  0  0  0
 12 11  1  0  0  0  0
 13 11  1  0  0  0  0
 14 16  1  0  0  0  0
 14 15  1  0  0  0  0
 17 23  1  0  0  0  0
 18 14  1  0  0  0  0
 18 17  2  0  0  0  0
 19 18  1  0  0  0  0
 20 19  2  0  0  0  0
 20 21  1  0  0  0  0
 21 22  2  0  0  0  0
 22 17  1  0  0  0  0
 24 19  1  0  0  0  0
 25 28  1  0  0  0  0
 25 21  1  0  0  0  0
 25 27  1  0  0  0  0
 26 25  1  0  0  0  0
 28 32  2  0  0  0  0
 29 30  2  0  0  0  0
 29 28  1  0  0  0  0
 30 31  1  0  0  0  0
 31 32  1  0  0  0  0
 31 35  1  0  0  0  0
 33 29  1  0  0  0  0
 34 30  1  0  0  0  0
 36 38  2  0  0  0  0
 36 37  2  0  0  0  0
 39 36  1  0  0  0  0
 40 39  1  0  0  0  0
 40 49  1  0  0  0  0
 41 40  2  0  0  0  0
 42 41  1  0  0  0  0
 42 47  1  0  0  0  0
 43 45  1  0  0  0  0
 43 42  1  0  0  0  0
 44 43  2  0  0  0  0
 46 45  1  0  0  0  0
 47 45  1  6  0  0  0
 47 48  1  0  0  0  0
 49 48  1  0  0  0  0
 49 50  1  0  0  0  0
 51 41  1  0  0  0  0
 52 51  2  0  0  0  0
 53 54  1  0  0  0  0
 53 51  1  0  0  0  0
M  END
>  <minimizedAffinity>
-6.55140638

$$$$

 OpenBabel03242522453D

 54 58  0  0  1  0  0  0  0  0999 V2000
   38.2420   31.9280   40.6850 C   0  0  0  0  0  0  0  0  0  0  0  0
   37.4160   32.3910   39.6920 C   0  0  0  0  0  0  0  0  0  0  0  0
   37.3600   33.6530   39.2430 C   0  0  0  0  0  0  0  0  0  0  0  0
   38.1890   34.5800   39.8080 C   0  0  0  0  0  0  0  0  0  0  0  0
   39.0570   34.2420   40.7990 C   0  0  0  0  0  0  0  0  0  0  0  0
   39.0670   32.9190   41.2170 C   0  0  0  0  0  0  0  0  0  0  0  0
   36.7800   34.1000   38.4870 H   0  0  0  0  0  0  0  0  0  0  0  0
   38.2490   35.6320   39.5480 H   0  0  0  0  0  0  0  0  0  0  0  0
   39.7530   34.9360   41.2960 H   0  0  0  0  0  0  0  0  0  0  0  0
   39.7770   32.6600   42.0210 H   0  0  0  0  0  0  0  0  0  0  0  0
   36.5320   31.3920   39.0520 C   0  0  0  0  0  0  0  0  0  0  0  0
   35.5660   31.8590   38.9120 H   0  0  0  0  0  0  0  0  0  0  0  0
   36.5840   30.5320   39.7520 H   0  0  0  0  0  0  0  0  0  0  0  0
   37.0540   30.7700   37.8000 C   0  0  0  0  0  0  0  0  0  0  0  0
   36.8270   31.3440   36.8610 H   0  0  0  0  0  0  0  0  0  0  0  0
   38.1790   30.7180   37.7300 H   0  0  0  0  0  0  0  0  0  0  0  0
   37.2370   28.5000   36.8440 C   0  0  0  0  0  0  0  0  0  0  0  0
   36.6180   29.3810   37.7600 C   0  0  0  0  0  0  0  0  0  0  0  0
   35.6470   28.8630   38.5940 C   0  0  0  0  0  0  0  0  0  0  0  0
   35.3400   27.5490   38.4950 N   0  0  0  0  0  0  0  0  0  0  0  0
   35.9420   26.7430   37.6240 C   0  0  0  0  0  0  0  0  0  0  0  0
   36.8990   27.1970   36.7820 N   0  0  0  0  0  0  0  0  0  0  0  0
   37.9990   28.6900   36.1110 H   0  0  0  0  0  0  0  0  0  0  0  0
   35.1720   29.5360   39.2940 H   0  0  0  0  0  0  0  0  0  0  0  0
   35.5460   25.2930   37.5890 C   0  0  0  0  0  0  0  0  0  0  0  0
   35.6060   24.9100   36.5450 H   0  0  0  0  0  0  0  0  0  0  0  0
   34.4680   25.2810   37.9080 H   0  0  0  0  0  0  0  0  0  0  0  0
   36.3030   24.4610   38.5120 C   0  0  0  0  0  0  0  0  0  0  0  0
   37.5320   23.8730   38.2380 C   0  0  0  0  0  0  0  0  0  0  0  0
   37.9350   23.1660   39.3390 C   0  0  0  0  0  0  0  0  0  0  0  0
   36.9330   23.3490   40.2550 N   0  0  0  0  0  0  0  0  0  0  0  0
   35.9610   24.1180   39.7680 N   0  0  0  0  0  0  0  0  0  0  0  0
   38.1540   23.9030   37.3380 H   0  0  0  0  0  0  0  0  0  0  0  0
   38.8220   22.5750   39.5270 H   0  0  0  0  0  0  0  0  0  0  0  0
   36.9350   22.9330   41.2160 H   0  0  0  0  0  0  0  0  0  0  0  0
   38.3130   30.3890   41.4080 S   0  0  0  0  0  0  0  0  0  0  0  0
   38.8060   29.3160   40.4780 O   0  0  0  0  0  0  0  0  0  0  0  0
   36.8500   29.9680   41.7040 O   0  0  0  0  0  0  0  0  0  0  0  0
   39.0730   30.0930   42.9210 C   0  0  0  0  0  2  0  0  0  0  0  0
   39.5440   28.6530   42.9370 C   0  0  0  0  0  0  0  0  0  0  0  0
   38.8230   27.6200   43.2740 C   0  0  0  0  0  0  0  0  0  0  0  0
   39.4160   26.3340   43.2500 N   0  0  0  0  0  0  0  0  0  0  0  0
   39.3360   24.9480   42.8520 C   0  0  0  0  0  0  0  0  0  0  0  0
   38.3610   24.1300   42.7400 O   0  0  0  0  0  0  0  0  0  0  0  0
   40.8300   25.0370   42.6820 C   0  0  0  0  0  3  0  0  0  0  0  0
   41.3690   24.1060   42.9460 H   0  0  0  0  0  0  0  0  0  0  0  0
   40.7020   26.0180   43.8390 C   0  0  1  0  0  3  0  0  0  0  0  0
   41.8830   27.3710   43.6250 S   0  0  0  0  0  0  0  0  0  0  0  0
   40.9870   28.5570   42.5300 C   0  0  0  0  0  3  0  0  0  0  0  0
   41.5470   29.4880   42.6770 H   0  0  0  0  0  0  0  0  0  0  0  0
   37.4050   27.7360   43.6950 C   0  0  0  0  0  0  0  0  0  0  0  0
   36.2780   27.1960   43.5710 O   0  0  0  0  0  0  0  0  0  0  0  0
   36.8760   28.6920   44.5160 O   0  0  0  0  0  0  0  0  0  0  0  0
   36.4870   28.5510   45.4250 H   0  0  0  0  0  0  0  0  0  0  0  0
  1  6  1  0  0  0  0
  1 36  1  0  0  0  0
  2  1  2  0  0  0  0
  3  2  1  0  0  0  0
  3  4  2  0  0  0  0
  4  5  1  0  0  0  0
  5  6  2  0  0  0  0
  5  9  1  0  0  0  0
  6 10  1  0  0  0  0
  7  3  1  0  0  0  0
  8  4  1  0  0  0  0
 11  2  1  0  0  0  0
 11 13  1  0  0  0  0
 12 11  1  0  0  0  0
 14 11  1  0  0  0  0
 15 14  1  0  0  0  0
 16 14  1  0  0  0  0
 17 18  1  0  0  0  0
 18 14  1  0  0  0  0
 18 19  2  0  0  0  0
 19 24  1  0  0  0  0
 20 19  1  0  0  0  0
 21 20  2  0  0  0  0
 22 17  2  0  0  0  0
 22 21  1  0  0  0  0
 23 17  1  0  0  0  0
 25 21  1  0  0  0  0
 25 27  1  0  0  0  0
 25 28  1  0  0  0  0
 26 25  1  0  0  0  0
 28 32  2  0  0  0  0
 29 28  1  0  0  0  0
 29 30  2  0  0  0  0
 30 34  1  0  0  0  0
 30 31  1  0  0  0  0
 31 35  1  0  0  0  0
 32 31  1  0  0  0  0
 33 29  1  0  0  0  0
 36 38  2  0  0  0  0
 36 39  1  0  0  0  0
 37 36  2  0  0  0  0
 39 40  1  0  0  0  0
 40 41  2  0  0  0  0
 41 51  1  0  0  0  0
 42 41  1  0  0  0  0
 42 47  1  0  0  0  0
 43 42  1  0  0  0  0
 44 43  2  0  0  0  0
 45 43  1  0  0  0  0
 45 46  1  0  0  0  0
 47 45  1  6  0  0  0
 48 47  1  0  0  0  0
 49 50  1  0  0  0  0
 49 40  1  0  0  0  0
 49 48  1  0  0  0  0
 51 53  1  0  0  0  0
 52 51  2  0  0  0  0
 53 54  1  0  0  0  0
M  END
>  <minimizedAffinity>
-6.52660704

$$$$

 OpenBabel03242522453D

 54 58  0  0  1  0  0  0  0  0999 V2000
   38.3970   26.1250   42.0750 C   0  0  0  0  0  0  0  0  0  0  0  0
   37.3450   26.2920   41.2090 C   0  0  0  0  0  0  0  0  0  0  0  0
   36.8420   25.3510   40.3980 C   0  0  0  0  0  0  0  0  0  0  0  0
   37.4070   24.1070   40.4150 C   0  0  0  0  0  0  0  0  0  0  0  0
   38.4540   23.8180   41.2340 C   0  0  0  0  0  0  0  0  0  0  0  0
   38.9270   24.8350   42.0500 C   0  0  0  0  0  0  0  0  0  0  0  0
   36.0390   25.3730   39.7170 H   0  0  0  0  0  0  0  0  0  0  0  0
   37.1070   23.2560   39.8130 H   0  0  0  0  0  0  0  0  0  0  0  0
   38.9550   22.8390   41.3010 H   0  0  0  0  0  0  0  0  0  0  0  0
   39.7760   24.5850   42.7110 H   0  0  0  0  0  0  0  0  0  0  0  0
   36.7050   27.6250   41.2000 C   0  0  0  0  0  0  0  0  0  0  0  0
   37.4190   28.3280   41.6090 H   0  0  0  0  0  0  0  0  0  0  0  0
   35.7720   27.4540   41.7760 H   0  0  0  0  0  0  0  0  0  0  0  0
   36.1520   28.0700   39.8870 C   0  0  0  0  0  0  0  0  0  0  0  0
   36.4800   27.4550   39.0060 H   0  0  0  0  0  0  0  0  0  0  0  0
   35.0320   27.9720   39.7880 H   0  0  0  0  0  0  0  0  0  0  0  0
   36.3310   30.3240   40.8820 C   0  0  0  0  0  0  0  0  0  0  0  0
   36.4110   29.4950   39.7390 C   0  0  0  0  0  0  0  0  0  0  0  0
   36.7640   30.0860   38.5410 C   0  0  0  0  0  0  0  0  0  0  0  0
   37.0140   31.4140   38.5210 N   0  0  0  0  0  0  0  0  0  0  0  0
   36.9340   32.1690   39.6150 C   0  0  0  0  0  0  0  0  0  0  0  0
   36.5920   31.6440   40.8130 N   0  0  0  0  0  0  0  0  0  0  0  0
   36.0730   30.0780   41.8950 H   0  0  0  0  0  0  0  0  0  0  0  0
   36.8230   29.4530   37.6660 H   0  0  0  0  0  0  0  0  0  0  0  0
   37.2400   33.6370   39.5030 C   0  0  0  0  0  0  0  0  0  0  0  0
   36.4220   34.2300   39.9720 H   0  0  0  0  0  0  0  0  0  0  0  0
   37.2410   33.8470   38.4000 H   0  0  0  0  0  0  0  0  0  0  0  0
   38.5430   34.0010   40.0380 C   0  0  0  0  0  0  0  0  0  0  0  0
   39.0260   35.2980   40.1600 C   0  0  0  0  0  0  0  0  0  0  0  0
   40.2830   35.2490   40.7000 C   0  0  0  0  0  0  0  0  0  0  0  0
   40.5270   33.9150   40.8920 N   0  0  0  0  0  0  0  0  0  0  0  0
   39.4950   33.1690   40.5000 N   0  0  0  0  0  0  0  0  0  0  0  0
   38.5680   36.2580   39.9010 H   0  0  0  0  0  0  0  0  0  0  0  0
   40.9880   36.0320   40.9500 H   0  0  0  0  0  0  0  0  0  0  0  0
   41.4150   33.5330   41.2960 H   0  0  0  0  0  0  0  0  0  0  0  0
   39.1870   27.2700   43.0560 S   0  0  0  0  0  0  0  0  0  0  0  0
   38.9870   27.0340   44.5270 O   0  0  0  0  0  0  0  0  0  0  0  0
   38.4830   28.6290   42.8090 O   0  0  0  0  0  0  0  0  0  0  0  0
   40.8410   27.6950   42.8620 C   0  0  0  0  0  2  0  0  0  0  0  0
   40.9970   28.3770   41.5180 C   0  0  0  0  0  0  0  0  0  0  0  0
   41.1220   29.6610   41.3260 C   0  0  0  0  0  0  0  0  0  0  0  0
   41.2480   30.1460   40.0020 N   0  0  0  0  0  0  0  0  0  0  0  0
   41.9420   30.9930   39.0600 C   0  0  0  0  0  0  0  0  0  0  0  0
   42.5130   32.1300   39.1710 O   0  0  0  0  0  0  0  0  0  0  0  0
   41.6360   29.9160   38.0520 C   0  0  0  0  0  3  0  0  0  0  0  0
   41.4320   30.3010   37.0330 H   0  0  0  0  0  0  0  0  0  0  0  0
   40.3860   29.7520   38.9050 C   0  0  1  0  0  3  0  0  0  0  0  0
   39.9400   28.0020   39.0030 S   0  0  0  0  0  0  0  0  0  0  0  0
   40.9670   27.3720   40.4010 C   0  0  0  0  0  3  0  0  0  0  0  0
   40.4620   26.4370   40.6670 H   0  0  0  0  0  0  0  0  0  0  0  0
   41.1280   30.6410   42.4410 C   0  0  0  0  0  0  0  0  0  0  0  0
   41.8640   31.1490   43.3210 O   0  0  0  0  0  0  0  0  0  0  0  0
   40.0710   31.3980   42.8620 O   0  0  0  0  0  0  0  0  0  0  0  0
   39.9900   32.3930   42.8120 H   0  0  0  0  0  0  0  0  0  0  0  0
  1 36  1  0  0  0  0
  2  1  2  0  0  0  0
  3  4  2  0  0  0  0
  3  2  1  0  0  0  0
  4  5  1  0  0  0  0
  5  9  1  0  0  0  0
  5  6  2  0  0  0  0
  6  1  1  0  0  0  0
  6 10  1  0  0  0  0
  7  3  1  0  0  0  0
  8  4  1  0  0  0  0
 11  2  1  0  0  0  0
 11 12  1  0  0  0  0
 11 13  1  0  0  0  0
 14 11  1  0  0  0  0
 15 14  1  0  0  0  0
 16 14  1  0  0  0  0
 17 23  1  0  0  0  0
 18 14  1  0  0  0  0
 18 17  2  0  0  0  0
 19 18  1  0  0  0  0
 20 19  2  0  0  0  0
 20 21  1  0  0  0  0
 21 22  2  0  0  0  0
 22 17  1  0  0  0  0
 24 19  1  0  0  0  0
 25 21  1  0  0  0  0
 25 26  1  0  0  0  0
 25 28  1  0  0  0  0
 27 25  1  0  0  0  0
 28 29  1  0  0  0  0
 28 32  2  0  0  0  0
 29 30  2  0  0  0  0
 30 31  1  0  0  0  0
 30 34  1  0  0  0  0
 31 35  1  0  0  0  0
 32 31  1  0  0  0  0
 33 29  1  0  0  0  0
 36 37  2  0  0  0  0
 38 36  2  0  0  0  0
 39 36  1  0  0  0  0
 40 39  1  0  0  0  0
 41 40  2  0  0  0  0
 41 51  1  0  0  0  0
 42 41  1  0  0  0  0
 43 44  2  0  0  0  0
 43 42  1  0  0  0  0
 45 43  1  0  0  0  0
 46 45  1  0  0  0  0
 47 45  1  6  0  0  0
 47 48  1  0  0  0  0
 47 42  1  0  0  0  0
 48 49  1  0  0  0  0
 49 50  1  0  0  0  0
 49 40  1  0  0  0  0
 51 53  1  0  0  0  0
 51 52  2  0  0  0  0
 54 53  1  0  0  0  0
M  END
>  <minimizedAffinity>
-6.42611599

$$$$

 OpenBabel03242522453D

 54 58  0  0  1  0  0  0  0  0999 V2000
   37.9830   24.9890   40.9860 C   0  0  0  0  0  0  0  0  0  0  0  0
   37.1120   25.6680   40.1720 C   0  0  0  0  0  0  0  0  0  0  0  0
   36.1900   25.1120   39.3730 C   0  0  0  0  0  0  0  0  0  0  0  0
   36.0870   23.7500   39.3490 C   0  0  0  0  0  0  0  0  0  0  0  0
   36.8940   22.9670   40.1150 C   0  0  0  0  0  0  0  0  0  0  0  0
   37.8260   23.6040   40.9210 C   0  0  0  0  0  0  0  0  0  0  0  0
   35.4740   25.5390   38.7310 H   0  0  0  0  0  0  0  0  0  0  0  0
   35.3930   23.1680   38.7520 H   0  0  0  0  0  0  0  0  0  0  0  0
   36.8640   21.8660   40.1470 H   0  0  0  0  0  0  0  0  0  0  0  0
   38.4720   22.9560   41.5380 H   0  0  0  0  0  0  0  0  0  0  0  0
   37.1930   27.1440   40.2090 C   0  0  0  0  0  0  0  0  0  0  0  0
   38.1840   27.4220   39.8740 H   0  0  0  0  0  0  0  0  0  0  0  0
   36.9260   27.3800   41.2600 H   0  0  0  0  0  0  0  0  0  0  0  0
   36.1170   27.8720   39.4730 C   0  0  0  0  0  0  0  0  0  0  0  0
   35.8960   27.4710   38.4470 H   0  0  0  0  0  0  0  0  0  0  0  0
   35.0910   27.7970   39.9370 H   0  0  0  0  0  0  0  0  0  0  0  0
   36.1250   30.0400   40.6560 C   0  0  0  0  0  0  0  0  0  0  0  0
   36.4270   29.2940   39.4930 C   0  0  0  0  0  0  0  0  0  0  0  0
   37.0330   29.9590   38.4450 C   0  0  0  0  0  0  0  0  0  0  0  0
   37.3060   31.2760   38.5820 N   0  0  0  0  0  0  0  0  0  0  0  0
   37.0120   31.9510   39.6910 C   0  0  0  0  0  0  0  0  0  0  0  0
   36.4170   31.3520   40.7480 N   0  0  0  0  0  0  0  0  0  0  0  0
   35.6560   29.7300   41.5720 H   0  0  0  0  0  0  0  0  0  0  0  0
   37.2630   29.3900   37.5540 H   0  0  0  0  0  0  0  0  0  0  0  0
   37.3610   33.4120   39.7610 C   0  0  0  0  0  0  0  0  0  0  0  0
   36.6190   33.9470   40.3960 H   0  0  0  0  0  0  0  0  0  0  0  0
   37.2560   33.7830   38.7060 H   0  0  0  0  0  0  0  0  0  0  0  0
   38.7260   33.6630   40.1990 C   0  0  0  0  0  0  0  0  0  0  0  0
   39.4440   34.8270   39.9560 C   0  0  0  0  0  0  0  0  0  0  0  0
   40.6870   34.6990   40.5150 C   0  0  0  0  0  0  0  0  0  0  0  0
   40.6860   33.4540   41.0860 N   0  0  0  0  0  0  0  0  0  0  0  0
   39.5210   32.8340   40.9000 N   0  0  0  0  0  0  0  0  0  0  0  0
   39.1650   35.7410   39.4230 H   0  0  0  0  0  0  0  0  0  0  0  0
   41.5330   35.3750   40.5460 H   0  0  0  0  0  0  0  0  0  0  0  0
   41.5000   33.0450   41.6010 H   0  0  0  0  0  0  0  0  0  0  0  0
   39.2600   25.5810   41.9430 S   0  0  0  0  0  0  0  0  0  0  0  0
   40.4460   26.0350   41.1380 O   0  0  0  0  0  0  0  0  0  0  0  0
   39.8090   24.3750   42.7480 O   0  0  0  0  0  0  0  0  0  0  0  0
   39.0460   26.7550   43.1780 C   0  0  0  0  0  2  0  0  0  0  0  0
   40.3770   27.4390   43.4150 C   0  0  0  0  0  0  0  0  0  0  0  0
   40.7610   28.5640   42.8780 C   0  0  0  0  0  0  0  0  0  0  0  0
   42.0460   29.0680   43.1900 N   0  0  0  0  0  0  0  0  0  0  0  0
   42.8670   30.1860   43.5940 C   0  0  0  0  0  0  0  0  0  0  0  0
   42.8010   31.4410   43.3640 O   0  0  0  0  0  0  0  0  0  0  0  0
   43.6950   29.1590   44.3200 C   0  0  0  0  0  3  0  0  0  0  0  0
   44.7810   29.3820   44.3280 H   0  0  0  0  0  0  0  0  0  0  0  0
   43.2620   28.2790   43.1560 C   0  0  1  0  0  3  0  0  0  0  0  0
   42.9770   26.5920   43.7400 S   0  0  0  0  0  0  0  0  0  0  0  0
   41.2350   26.6330   44.3480 C   0  0  0  0  0  3  0  0  0  0  0  0
   40.9680   25.5700   44.3810 H   0  0  0  0  0  0  0  0  0  0  0  0
   39.9080   29.3360   41.9400 C   0  0  0  0  0  0  0  0  0  0  0  0
   39.6510   29.4910   40.7210 O   0  0  0  0  0  0  0  0  0  0  0  0
   38.9840   30.2840   42.2750 O   0  0  0  0  0  0  0  0  0  0  0  0
   37.9950   30.2270   42.1470 H   0  0  0  0  0  0  0  0  0  0  0  0
  1 36  1  0  0  0  0
  2 11  1  0  0  0  0
  2  1  2  0  0  0  0
  3  2  1  0  0  0  0
  4  3  2  0  0  0  0
  4  5  1  0  0  0  0
  5  9  1  0  0  0  0
  5  6  2  0  0  0  0
  6  1  1  0  0  0  0
  6 10  1  0  0  0  0
  7  3  1  0  0  0  0
  8  4  1  0  0  0  0
 11 13  1  0  0  0  0
 12 11  1  0  0  0  0
 14 18  1  0  0  0  0
 14 16  1  0  0  0  0
 14 11  1  0  0  0  0
 15 14  1  0  0  0  0
 17 22  1  0  0  0  0
 17 23  1  0  0  0  0
 18 17  2  0  0  0  0
 19 20  2  0  0  0  0
 19 18  1  0  0  0  0
 20 21  1  0  0  0  0
 21 25  1  0  0  0  0
 21 22  2  0  0  0  0
 24 19  1  0  0  0  0
 25 28  1  0  0  0  0
 25 26  1  0  0  0  0
 27 25  1  0  0  0  0
 28 32  2  0  0  0  0
 29 28  1  0  0  0  0
 29 30  2  0  0  0  0
 30 34  1  0  0  0  0
 30 31  1  0  0  0  0
 31 35  1  0  0  0  0
 32 31  1  0  0  0  0
 33 29  1  0  0  0  0
 36 38  2  0  0  0  0
 36 39  1  0  0  0  0
 37 36  2  0  0  0  0
 39 40  1  0  0  0  0
 40 49  1  0  0  0  0
 41 42  1  0  0  0  0
 41 40  2  0  0  0  0
 42 43  1  0  0  0  0
 43 45  1  0  0  0  0
 44 43  2  0  0  0  0
 45 46  1  0  0  0  0
 47 42  1  0  0  0  0
 47 48  1  1  0  0  0
 47 45  1  0  0  0  0
 48 49  1  0  0  0  0
 49 50  1  0  0  0  0
 51 53  1  0  0  0  0
 51 41  1  0  0  0  0
 52 51  2  0  0  0  0
 54 53  1  0  0  0  0
M  END
>  <minimizedAffinity>
-6.38822699

$$$$

 OpenBabel03242522453D

 54 58  0  0  1  0  0  0  0  0999 V2000
   37.0920   30.6490   38.6920 C   0  0  0  0  0  0  0  0  0  0  0  0
   36.0700   29.8350   39.1100 C   0  0  0  0  0  0  0  0  0  0  0  0
   35.2710   29.1090   38.3150 C   0  0  0  0  0  0  0  0  0  0  0  0
   35.4730   29.1660   36.9650 C   0  0  0  0  0  0  0  0  0  0  0  0
   36.4590   29.9350   36.4300 C   0  0  0  0  0  0  0  0  0  0  0  0
   37.2510   30.6620   37.3060 C   0  0  0  0  0  0  0  0  0  0  0  0
   34.4790   28.4510   38.5340 H   0  0  0  0  0  0  0  0  0  0  0  0
   34.9040   28.6380   36.2070 H   0  0  0  0  0  0  0  0  0  0  0  0
   36.6780   30.0260   35.3540 H   0  0  0  0  0  0  0  0  0  0  0  0
   38.0480   31.2800   36.8580 H   0  0  0  0  0  0  0  0  0  0  0  0
   35.8580   29.7420   40.5710 C   0  0  0  0  0  0  0  0  0  0  0  0
   35.0310   30.3950   40.8190 H   0  0  0  0  0  0  0  0  0  0  0  0
   36.8540   30.0040   40.9820 H   0  0  0  0  0  0  0  0  0  0  0  0
   35.6800   28.3630   41.1150 C   0  0  0  0  0  0  0  0  0  0  0  0
   34.7180   28.1980   41.6700 H   0  0  0  0  0  0  0  0  0  0  0  0
   35.5960   27.5530   40.3330 H   0  0  0  0  0  0  0  0  0  0  0  0
   37.3370   26.6820   41.8400 C   0  0  0  0  0  0  0  0  0  0  0  0
   36.8680   28.0150   41.8810 C   0  0  0  0  0  0  0  0  0  0  0  0
   37.5880   28.9260   42.6290 C   0  0  0  0  0  0  0  0  0  0  0  0
   38.6960   28.5020   43.2770 N   0  0  0  0  0  0  0  0  0  0  0  0
   39.1150   27.2410   43.2170 C   0  0  0  0  0  0  0  0  0  0  0  0
   38.4490   26.3060   42.5020 N   0  0  0  0  0  0  0  0  0  0  0  0
   36.9340   25.8240   41.3340 H   0  0  0  0  0  0  0  0  0  0  0  0
   37.2290   29.9460   42.6620 H   0  0  0  0  0  0  0  0  0  0  0  0
   40.3650   26.8590   43.9620 C   0  0  0  0  0  0  0  0  0  0  0  0
   40.1170   26.1310   44.7670 H   0  0  0  0  0  0  0  0  0  0  0  0
   40.7160   27.8120   44.4420 H   0  0  0  0  0  0  0  0  0  0  0  0
   41.4280   26.3650   43.0980 C   0  0  0  0  0  0  0  0  0  0  0  0
   42.1230   27.1270   42.1670 C   0  0  0  0  0  0  0  0  0  0  0  0
   43.0410   26.3260   41.5440 C   0  0  0  0  0  0  0  0  0  0  0  0
   42.8760   25.0940   42.1200 N   0  0  0  0  0  0  0  0  0  0  0  0
   41.9180   25.1130   43.0440 N   0  0  0  0  0  0  0  0  0  0  0  0
   42.0330   28.1850   41.8980 H   0  0  0  0  0  0  0  0  0  0  0  0
   43.7670   26.5360   40.7680 H   0  0  0  0  0  0  0  0  0  0  0  0
   43.4350   24.2470   41.8620 H   0  0  0  0  0  0  0  0  0  0  0  0
   38.0830   31.6980   39.5960 S   0  0  0  0  0  0  0  0  0  0  0  0
   37.4270   32.2030   40.8500 O   0  0  0  0  0  0  0  0  0  0  0  0
   38.2710   32.9790   38.7430 O   0  0  0  0  0  0  0  0  0  0  0  0
   39.7050   31.3250   40.0250 C   0  0  0  0  0  2  0  0  0  0  0  0
   40.1820   30.1990   39.1290 C   0  0  0  0  0  0  0  0  0  0  0  0
   40.7590   30.3430   37.9680 C   0  0  0  0  0  0  0  0  0  0  0  0
   41.1360   29.1870   37.2430 N   0  0  0  0  0  0  0  0  0  0  0  0
   42.1450   28.4800   36.4890 C   0  0  0  0  0  0  0  0  0  0  0  0
   43.0670   28.8670   35.6950 O   0  0  0  0  0  0  0  0  0  0  0  0
   41.5540   27.2360   37.0980 C   0  0  0  0  0  3  0  0  0  0  0  0
   41.5670   26.3560   36.4240 H   0  0  0  0  0  0  0  0  0  0  0  0
   40.2690   28.0470   37.0180 C   0  0  1  0  0  3  0  0  0  0  0  0
   39.2370   27.7000   38.4610 S   0  0  0  0  0  0  0  0  0  0  0  0
   39.8810   28.8610   39.7430 C   0  0  0  0  0  3  0  0  0  0  0  0
   39.0650   28.8880   40.4740 H   0  0  0  0  0  0  0  0  0  0  0  0
   41.0280   31.6730   37.3660 C   0  0  0  0  0  0  0  0  0  0  0  0
   41.9270   32.5350   37.2080 O   0  0  0  0  0  0  0  0  0  0  0  0
   40.1370   32.4490   36.6800 O   0  0  0  0  0  0  0  0  0  0  0  0
   40.1790   32.6940   35.7120 H   0  0  0  0  0  0  0  0  0  0  0  0
  1  2  1  0  0  0  0
  1 36  1  0  0  0  0
  2 11  1  0  0  0  0
  3  7  1  0  0  0  0
  3  2  2  0  0  0  0
  4  3  1  0  0  0  0
  5  4  2  0  0  0  0
  5  6  1  0  0  0  0
  6  1  2  0  0  0  0
  8  4  1  0  0  0  0
  9  5  1  0  0  0  0
 10  6  1  0  0  0  0
 11 12  1  0  0  0  0
 11 13  1  0  0  0  0
 11 14  1  0  0  0  0
 14 15  1  0  0  0  0
 14 18  1  0  0  0  0
 16 14  1  0  0  0  0
 17 18  2  0  0  0  0
 17 22  1  0  0  0  0
 18 19  1  0  0  0  0
 19 24  1  0  0  0  0
 19 20  2  0  0  0  0
 21 20  1  0  0  0  0
 21 25  1  0  0  0  0
 22 21  2  0  0  0  0
 23 17  1  0  0  0  0
 25 27  1  0  0  0  0
 25 26  1  0  0  0  0
 28 25  1  0  0  0  0
 29 28  1  0  0  0  0
 30 31  1  0  0  0  0
 30 29  2  0  0  0  0
 31 32  1  0  0  0  0
 32 28  2  0  0  0  0
 33 29  1  0  0  0  0
 34 30  1  0  0  0  0
 35 31  1  0  0  0  0
 36 39  1  0  0  0  0
 36 37  2  0  0  0  0
 38 36  2  0  0  0  0
 40 49  1  0  0  0  0
 40 39  1  0  0  0  0
 41 40  2  0  0  0  0
 42 41  1  0  0  0  0
 43 45  1  0  0  0  0
 43 42  1  0  0  0  0
 44 43  2  0  0  0  0
 46 45  1  0  0  0  0
 47 45  1  1  0  0  0
 47 42  1  0  0  0  0
 47 48  1  0  0  0  0
 48 49  1  0  0  0  0
 49 50  1  0  0  0  0
 51 41  1  0  0  0  0
 52 51  2  0  0  0  0
 53 51  1  0  0  0  0
 54 53  1  0  0  0  0
M  END
>  <minimizedAffinity>
-6.36454868

$$$$

 OpenBabel03242522453D

 54 58  0  0  1  0  0  0  0  0999 V2000
   37.1170   27.5670   40.9660 C   0  0  0  0  0  0  0  0  0  0  0  0
   37.3030   28.8620   41.3800 C   0  0  0  0  0  0  0  0  0  0  0  0
   37.4720   29.2620   42.6480 C   0  0  0  0  0  0  0  0  0  0  0  0
   37.4640   28.3170   43.6350 C   0  0  0  0  0  0  0  0  0  0  0  0
   37.2910   26.9980   43.3480 C   0  0  0  0  0  0  0  0  0  0  0  0
   37.1220   26.6490   42.0160 C   0  0  0  0  0  0  0  0  0  0  0  0
   37.6350   30.2150   43.0640 H   0  0  0  0  0  0  0  0  0  0  0  0
   37.5850   28.4960   44.6980 H   0  0  0  0  0  0  0  0  0  0  0  0
   37.2760   26.1850   44.0920 H   0  0  0  0  0  0  0  0  0  0  0  0
   36.9850   25.5760   41.7990 H   0  0  0  0  0  0  0  0  0  0  0  0
   37.3430   29.8930   40.3210 C   0  0  0  0  0  0  0  0  0  0  0  0
   36.9070   29.4580   39.4300 H   0  0  0  0  0  0  0  0  0  0  0  0
   38.4180   30.1640   40.2800 H   0  0  0  0  0  0  0  0  0  0  0  0
   36.7310   31.2090   40.6720 C   0  0  0  0  0  0  0  0  0  0  0  0
   35.7680   31.4350   40.1400 H   0  0  0  0  0  0  0  0  0  0  0  0
   36.3900   31.3010   41.7430 H   0  0  0  0  0  0  0  0  0  0  0  0
   39.0340   32.0170   41.0540 C   0  0  0  0  0  0  0  0  0  0  0  0
   37.7450   32.2420   40.5170 C   0  0  0  0  0  0  0  0  0  0  0  0
   37.5280   33.4290   39.8440 C   0  0  0  0  0  0  0  0  0  0  0  0
   38.5510   34.3070   39.7310 N   0  0  0  0  0  0  0  0  0  0  0  0
   39.7540   34.0660   40.2450 C   0  0  0  0  0  0  0  0  0  0  0  0
   40.0220   32.9220   40.9150 N   0  0  0  0  0  0  0  0  0  0  0  0
   39.4120   31.1800   41.6100 H   0  0  0  0  0  0  0  0  0  0  0  0
   36.5430   33.6030   39.4340 H   0  0  0  0  0  0  0  0  0  0  0  0
   40.8360   35.0940   40.0630 C   0  0  0  0  0  0  0  0  0  0  0  0
   41.1910   35.4490   41.0580 H   0  0  0  0  0  0  0  0  0  0  0  0
   40.3330   35.9520   39.5410 H   0  0  0  0  0  0  0  0  0  0  0  0
   41.9390   34.6370   39.2300 C   0  0  0  0  0  0  0  0  0  0  0  0
   43.0530   33.9430   39.6850 C   0  0  0  0  0  0  0  0  0  0  0  0
   43.8730   33.6850   38.6210 C   0  0  0  0  0  0  0  0  0  0  0  0
   43.2280   34.2320   37.5430 N   0  0  0  0  0  0  0  0  0  0  0  0
   42.0770   34.8000   37.9020 N   0  0  0  0  0  0  0  0  0  0  0  0
   43.3270   33.6120   40.6920 H   0  0  0  0  0  0  0  0  0  0  0  0
   44.8250   33.1740   38.5550 H   0  0  0  0  0  0  0  0  0  0  0  0
   43.5970   34.2070   36.5640 H   0  0  0  0  0  0  0  0  0  0  0  0
   36.7770   26.9640   39.4100 S   0  0  0  0  0  0  0  0  0  0  0  0
   35.7360   27.7620   38.6760 O   0  0  0  0  0  0  0  0  0  0  0  0
   36.1030   25.5810   39.6070 O   0  0  0  0  0  0  0  0  0  0  0  0
   37.9960   26.5960   38.2560 C   0  0  0  0  0  2  0  0  0  0  0  0
   39.0200   27.7120   38.2800 C   0  0  0  0  0  0  0  0  0  0  0  0
   39.0130   28.7670   37.5120 C   0  0  0  0  0  0  0  0  0  0  0  0
   40.0520   29.7190   37.6480 N   0  0  0  0  0  0  0  0  0  0  0  0
   40.4470   31.1020   37.7800 C   0  0  0  0  0  0  0  0  0  0  0  0
   39.9700   32.1900   37.3120 O   0  0  0  0  0  0  0  0  0  0  0  0
   41.5610   30.5750   38.6450 C   0  0  0  0  0  3  0  0  0  0  0  0
   42.5100   31.1400   38.5490 H   0  0  0  0  0  0  0  0  0  0  0  0
   41.4620   29.3840   37.7020 C   0  0  1  0  0  3  0  0  0  0  0  0
   41.7490   27.8530   38.6200 S   0  0  0  0  0  0  0  0  0  0  0  0
   40.0850   27.4410   39.3040 C   0  0  0  0  0  3  0  0  0  0  0  0
   40.1870   26.3800   39.5590 H   0  0  0  0  0  0  0  0  0  0  0  0
   37.9650   29.0080   36.4900 C   0  0  0  0  0  0  0  0  0  0  0  0
   36.8900   29.6240   36.2860 O   0  0  0  0  0  0  0  0  0  0  0  0
   37.9230   28.4820   35.2290 O   0  0  0  0  0  0  0  0  0  0  0  0
   38.0010   28.9840   34.3690 H   0  0  0  0  0  0  0  0  0  0  0  0
  1  2  2  0  0  0  0
  1  6  1  0  0  0  0
  2  3  1  0  0  0  0
  3  7  1  0  0  0  0
  3  4  2  0  0  0  0
  4  8  1  0  0  0  0
  5  4  1  0  0  0  0
  5  9  1  0  0  0  0
  6  5  2  0  0  0  0
 10  6  1  0  0  0  0
 11 14  1  0  0  0  0
 11  2  1  0  0  0  0
 12 11  1  0  0  0  0
 13 11  1  0  0  0  0
 14 16  1  0  0  0  0
 15 14  1  0  0  0  0
 17 23  1  0  0  0  0
 18 14  1  0  0  0  0
 18 17  2  0  0  0  0
 19 18  1  0  0  0  0
 20 19  2  0  0  0  0
 20 21  1  0  0  0  0
 21 22  2  0  0  0  0
 22 17  1  0  0  0  0
 24 19  1  0  0  0  0
 25 21  1  0  0  0  0
 25 26  1  0  0  0  0
 27 25  1  0  0  0  0
 28 29  1  0  0  0  0
 28 25  1  0  0  0  0
 29 33  1  0  0  0  0
 30 29  2  0  0  0  0
 31 32  1  0  0  0  0
 31 30  1  0  0  0  0
 32 28  2  0  0  0  0
 34 30  1  0  0  0  0
 35 31  1  0  0  0  0
 36 38  2  0  0  0  0
 36  1  1  0  0  0  0
 37 36  2  0  0  0  0
 39 40  1  0  0  0  0
 39 36  1  0  0  0  0
 40 49  1  0  0  0  0
 41 42  1  0  0  0  0
 41 40  2  0  0  0  0
 42 47  1  0  0  0  0
 42 43  1  0  0  0  0
 43 45  1  0  0  0  0
 44 43  2  0  0  0  0
 46 45  1  0  0  0  0
 47 48  1  1  0  0  0
 47 45  1  0  0  0  0
 48 49  1  0  0  0  0
 49 50  1  0  0  0  0
 51 41  1  0  0  0  0
 52 51  2  0  0  0  0
 53 51  1  0  0  0  0
 54 53  1  0  0  0  0
M  END
>  <minimizedAffinity>
-6.33945465

$$$$

 OpenBabel03242522453D

 54 58  0  0  1  0  0  0  0  0999 V2000
   36.2800   29.4210   37.7410 C   0  0  0  0  0  0  0  0  0  0  0  0
   35.4710   29.3330   38.8460 C   0  0  0  0  0  0  0  0  0  0  0  0
   34.1640   29.0370   38.8390 C   0  0  0  0  0  0  0  0  0  0  0  0
   33.5590   28.7950   37.6390 C   0  0  0  0  0  0  0  0  0  0  0  0
   34.2560   28.8480   36.4720 C   0  0  0  0  0  0  0  0  0  0  0  0
   35.6060   29.1590   36.5480 C   0  0  0  0  0  0  0  0  0  0  0  0
   33.4680   28.9310   39.6220 H   0  0  0  0  0  0  0  0  0  0  0  0
   32.5140   28.5480   37.4840 H   0  0  0  0  0  0  0  0  0  0  0  0
   33.8330   28.6630   35.4720 H   0  0  0  0  0  0  0  0  0  0  0  0
   36.1590   29.1970   35.5930 H   0  0  0  0  0  0  0  0  0  0  0  0
   36.1190   29.5650   40.1550 C   0  0  0  0  0  0  0  0  0  0  0  0
   36.0130   30.6180   40.3860 H   0  0  0  0  0  0  0  0  0  0  0  0
   37.1470   29.1810   39.9930 H   0  0  0  0  0  0  0  0  0  0  0  0
   35.6600   28.6870   41.2720 C   0  0  0  0  0  0  0  0  0  0  0  0
   34.9310   29.1680   41.9780 H   0  0  0  0  0  0  0  0  0  0  0  0
   35.0570   27.7890   40.9500 H   0  0  0  0  0  0  0  0  0  0  0  0
   37.8180   29.0100   42.4280 C   0  0  0  0  0  0  0  0  0  0  0  0
   36.8330   28.1280   41.9280 C   0  0  0  0  0  0  0  0  0  0  0  0
   37.0260   26.7730   42.1200 C   0  0  0  0  0  0  0  0  0  0  0  0
   38.1380   26.3630   42.7720 N   0  0  0  0  0  0  0  0  0  0  0  0
   39.0470   27.2180   43.2340 C   0  0  0  0  0  0  0  0  0  0  0  0
   38.9100   28.5540   43.0730 N   0  0  0  0  0  0  0  0  0  0  0  0
   37.8700   30.0820   42.3840 H   0  0  0  0  0  0  0  0  0  0  0  0
   36.2740   26.0980   41.7370 H   0  0  0  0  0  0  0  0  0  0  0  0
   40.2490   26.6740   43.9560 C   0  0  0  0  0  0  0  0  0  0  0  0
   39.9230   25.9650   44.7510 H   0  0  0  0  0  0  0  0  0  0  0  0
   40.7170   27.5680   44.4500 H   0  0  0  0  0  0  0  0  0  0  0  0
   41.2360   26.0730   43.0710 C   0  0  0  0  0  0  0  0  0  0  0  0
   41.1880   26.0980   41.6830 C   0  0  0  0  0  0  0  0  0  0  0  0
   42.2800   25.4320   41.1950 C   0  0  0  0  0  0  0  0  0  0  0  0
   42.9640   25.0210   42.3090 N   0  0  0  0  0  0  0  0  0  0  0  0
   42.3460   25.4000   43.4260 N   0  0  0  0  0  0  0  0  0  0  0  0
   40.4550   26.5400   41.0000 H   0  0  0  0  0  0  0  0  0  0  0  0
   42.6040   25.2310   40.1820 H   0  0  0  0  0  0  0  0  0  0  0  0
   43.8580   24.4770   42.2800 H   0  0  0  0  0  0  0  0  0  0  0  0
   37.9080   29.9010   37.6230 S   0  0  0  0  0  0  0  0  0  0  0  0
   38.0870   31.2510   36.9860 O   0  0  0  0  0  0  0  0  0  0  0  0
   38.5870   28.9330   36.6190 O   0  0  0  0  0  0  0  0  0  0  0  0
   39.0030   29.8520   38.9470 C   0  0  0  0  0  2  0  0  0  0  0  0
   39.6610   31.2120   39.0650 C   0  0  0  0  0  0  0  0  0  0  0  0
   40.8230   31.5410   38.5710 C   0  0  0  0  0  0  0  0  0  0  0  0
   41.3080   32.8540   38.7780 N   0  0  0  0  0  0  0  0  0  0  0  0
   41.9030   34.0500   38.2270 C   0  0  0  0  0  0  0  0  0  0  0  0
   42.7490   34.2470   37.2910 O   0  0  0  0  0  0  0  0  0  0  0  0
   41.0700   34.7860   39.2440 C   0  0  0  0  0  3  0  0  0  0  0  0
   41.5620   35.6890   39.6580 H   0  0  0  0  0  0  0  0  0  0  0  0
   41.3160   33.5270   40.0630 C   0  0  1  0  0  3  0  0  0  0  0  0
   39.8420   33.1310   41.0320 S   0  0  0  0  0  0  0  0  0  0  0  0
   38.8030   32.1560   39.8590 C   0  0  0  0  0  3  0  0  0  0  0  0
   38.0980   31.6490   40.5280 H   0  0  0  0  0  0  0  0  0  0  0  0
   41.6670   30.5880   37.8080 C   0  0  0  0  0  0  0  0  0  0  0  0
   42.7090   29.8920   37.8860 O   0  0  0  0  0  0  0  0  0  0  0  0
   41.4450   30.1450   36.5350 O   0  0  0  0  0  0  0  0  0  0  0  0
   41.2270   29.2110   36.2560 H   0  0  0  0  0  0  0  0  0  0  0  0
  1  2  1  0  0  0  0
  2 11  1  0  0  0  0
  3  2  2  0  0  0  0
  3  7  1  0  0  0  0
  4  3  1  0  0  0  0
  5  6  1  0  0  0  0
  5  4  2  0  0  0  0
  6  1  2  0  0  0  0
  8  4  1  0  0  0  0
  9  5  1  0  0  0  0
 10  6  1  0  0  0  0
 11 12  1  0  0  0  0
 11 14  1  0  0  0  0
 13 11  1  0  0  0  0
 14 18  1  0  0  0  0
 14 15  1  0  0  0  0
 16 14  1  0  0  0  0
 17 22  1  0  0  0  0
 18 19  1  0  0  0  0
 18 17  2  0  0  0  0
 19 20  2  0  0  0  0
 20 21  1  0  0  0  0
 21 25  1  0  0  0  0
 22 21  2  0  0  0  0
 23 17  1  0  0  0  0
 24 19  1  0  0  0  0
 25 27  1  0  0  0  0
 25 26  1  0  0  0  0
 28 32  2  0  0  0  0
 28 25  1  0  0  0  0
 29 28  1  0  0  0  0
 30 29  2  0  0  0  0
 30 31  1  0  0  0  0
 31 32  1  0  0  0  0
 33 29  1  0  0  0  0
 34 30  1  0  0  0  0
 35 31  1  0  0  0  0
 36  1  1  0  0  0  0
 36 39  1  0  0  0  0
 37 36  2  0  0  0  0
 38 36  2  0  0  0  0
 39 40  1  0  0  0  0
 40 49  1  0  0  0  0
 41 42  1  0  0  0  0
 41 40  2  0  0  0  0
 42 47  1  0  0  0  0
 43 42  1  0  0  0  0
 43 45  1  0  0  0  0
 44 43  2  0  0  0  0
 45 46  1  0  0  0  0
 47 45  1  6  0  0  0
 47 48  1  0  0  0  0
 49 50  1  0  0  0  0
 49 48  1  0  0  0  0
 51 52  2  0  0  0  0
 51 41  1  0  0  0  0
 53 51  1  0  0  0  0
 54 53  1  0  0  0  0
M  END
>  <minimizedAffinity>
-6.324224

$$$$
