REMARK  Name = 
REMARK  5 active torsions:
REMARK  status: ('A' for Active; 'I' for Inactive)
REMARK    1  A    between atoms: C_5  and  S_7
REMARK    2  A    between atoms: S_7  and  C_11
REMARK    3  A    between atoms: C_11  and  C_12
REMARK    4  A    between atoms: C_13  and  C_14
REMARK    5  A    between atoms: C_14  and  O_16
REMARK                            x       y       z     vdW  Elec       q    Type
REMARK                         _______ _______ _______ _____ _____    ______ ____
ROOT
ATOM      1  C   UNL     1      44.845  31.163  44.710  0.00  0.00    +0.000 C 
ATOM      2  C   UNL     1      45.215  29.982  44.298  0.00  0.00    +0.000 C 
ATOM      3  N   UNL     1      45.154  29.620  42.931  0.00  0.00    +0.000 N 
ATOM      4  C   UNL     1      45.700  28.929  41.788  0.00  0.00    +0.000 C 
ATOM      5  O   UNL     1      46.303  27.830  41.749  0.00  0.00    +0.000 OA
ATOM      6  C   UNL     1      45.184  30.099  40.991  0.00  0.00    +0.000 C 
ATOM      7  H   UNL     1      44.855  29.824  39.972  0.00  0.00    +0.000 HD
ATOM      8  C   UNL     1      44.095  30.049  42.043  0.00  0.00    +0.000 C 
ATOM      9  S   UNL     1      43.356  31.601  42.505  0.00  0.00    +0.000 S 
ATOM     10  C   UNL     1      44.343  32.249  43.872  0.00  0.00    +0.000 C 
ATOM     11  H   UNL     1      43.651  32.872  44.475  0.00  0.00    +0.000 HD
ENDROOT
BRANCH   2  12
ATOM     12  C   UNL     1      45.711  28.957  45.212  0.00  0.00    +0.000 C 
ATOM     13  O   UNL     1      46.088  27.789  44.865  0.00  0.00    +0.000 OA
BRANCH  12  14
ATOM     14  O   UNL     1      46.106  28.291  46.350  0.00  0.00    +0.000 OA
ATOM     15  H   UNL     1      45.545  28.237  47.202  0.00  0.00    +0.000 HD
ENDBRANCH  12  14
ENDBRANCH   2  12
BRANCH   1  16
ATOM     16  C   UNL     1      44.957  31.401  46.148  0.00  0.00    +0.000 C 
BRANCH  16  17
ATOM     17  S   UNL     1      46.094  32.809  46.454  0.00  0.00    +0.000 S 
BRANCH  17  22
ATOM     18  C   UNL     1      44.508  35.983  44.536  0.00  0.00    +0.000 A 
ATOM     19  C   UNL     1      45.181  35.920  43.297  0.00  0.00    +0.000 A 
ATOM     20  C   UNL     1      46.109  34.883  43.106  0.00  0.00    +0.000 A 
ATOM     21  N   UNL     1      46.319  33.995  44.109  0.00  0.00    +0.000 NA
ATOM     22  C   UNL     1      45.646  34.093  45.294  0.00  0.00    +0.000 A 
ATOM     23  N   UNL     1      44.755  35.076  45.497  0.00  0.00    +0.000 NA
ATOM     24  H   UNL     1      43.784  36.760  44.738  0.00  0.00    +0.000 HD
ATOM     25  H   UNL     1      44.964  36.662  42.540  0.00  0.00    +0.000 HD
ATOM     26  H   UNL     1      46.627  34.826  42.165  0.00  0.00    +0.000 HD
ENDBRANCH  17  22
ENDBRANCH  16  17
ENDBRANCH   1  16
TORSDOF 5
