
 OpenBabel03242521103D

 26 28  0  0  1  0  0  0  0  0999 V2000
   46.0350   30.3630   46.1180 C   0  0  0  0  0  0  0  0  0  0  0  0
   45.5930   29.8000   47.2090 C   0  0  0  0  0  0  0  0  0  0  0  0
   44.8950   28.5700   47.1800 N   0  0  0  0  0  0  0  0  0  0  0  0
   44.5890   27.2830   47.7580 C   0  0  0  0  0  0  0  0  0  0  0  0
   44.5020   26.9660   48.9680 O   0  0  0  0  0  0  0  0  0  0  0  0
   44.4940   26.8050   46.3320 C   0  0  0  0  0  0  0  0  0  0  0  0
   43.7460   26.0040   46.1870 H   0  0  0  0  0  0  0  0  0  0  0  0
   43.9650   28.2100   46.1310 C   0  0  2  0  0  0  0  0  0  0  0  0
   44.3160   28.9810   44.5650 S   0  0  0  0  0  0  0  0  0  0  0  0
   45.8930   29.8390   44.7630 C   0  0  0  0  0  0  0  0  0  0  0  0
   45.8640   30.6910   44.0530 H   0  0  0  0  0  0  0  0  0  0  0  0
   45.7860   30.3980   48.5280 C   0  0  0  0  0  0  0  0  0  0  0  0
   44.8590   30.9140   49.2380 O   0  0  0  0  0  0  0  0  0  0  0  0
   46.3580   30.8520   49.6930 O   0  0  0  0  0  0  0  0  0  0  0  0
   47.1920   31.4420   49.7260 H   0  0  0  0  0  0  0  0  0  0  0  0
   46.7350   31.6340   46.2950 C   0  0  0  0  0  0  0  0  0  0  0  0
   47.0690   32.3860   44.6540 S   0  0  0  0  0  0  0  0  0  0  0  0
   44.5660   35.4800   45.3080 C   0  0  0  0  0  0  0  0  0  0  0  0
   44.6670   36.1780   44.0860 C   0  0  0  0  0  0  0  0  0  0  0  0
   45.5160   35.6530   43.0980 C   0  0  0  0  0  0  0  0  0  0  0  0
   46.1990   34.5100   43.3560 N   0  0  0  0  0  0  0  0  0  0  0  0
   46.0730   33.8660   44.5550 C   0  0  0  0  0  0  0  0  0  0  0  0
   45.2660   34.3510   45.5120 N   0  0  0  0  0  0  0  0  0  0  0  0
   43.9280   35.8390   46.1040 H   0  0  0  0  0  0  0  0  0  0  0  0
   44.0930   37.0850   43.9470 H   0  0  0  0  0  0  0  0  0  0  0  0
   45.6000   36.1780   42.1620 H   0  0  0  0  0  0  0  0  0  0  0  0
  1 16  1  0  0  0  0
  1  2  2  0  0  0  0
  2 12  1  0  0  0  0
  3  2  1  0  0  0  0
  3  4  1  0  0  0  0
  4  5  2  0  0  0  0
  6  4  1  0  0  0  0
  7  6  1  0  0  0  0
  8  9  1  6  0  0  0
  8  6  1  0  0  0  0
  8  3  1  0  0  0  0
  9 10  1  0  0  0  0
 10  1  1  0  0  0  0
 11 10  1  0  0  0  0
 12 13  2  0  0  0  0
 12 14  1  0  0  0  0
 14 15  1  0  0  0  0
 17 16  1  0  0  0  0
 18 23  1  0  0  0  0
 18 24  1  0  0  0  0
 19 18  2  0  0  0  0
 20 21  2  0  0  0  0
 20 19  1  0  0  0  0
 21 22  1  0  0  0  0
 22 17  1  0  0  0  0
 22 23  2  0  0  0  0
 25 19  1  0  0  0  0
 26 20  1  0  0  0  0
M  END
>  <minimizedAffinity>
-4.94754839

>  <minimizedRMSD>
2.60723615

$$$$
