
 OpenBabel03242512163D

 40 43  0  0  1  0  0  0  0  0999 V2000
   48.3970   32.9490   41.8260 C   0  0  0  0  0  0  0  0  0  0  0  0
   48.0000   34.2660   41.9950 C   0  0  0  0  0  0  0  0  0  0  0  0
   48.9340   35.2190   42.3500 C   0  0  0  0  0  0  0  0  0  0  0  0
   50.2500   34.8150   42.5260 C   0  0  0  0  0  0  0  0  0  0  0  0
   50.5980   33.4960   42.3460 C   0  0  0  0  0  0  0  0  0  0  0  0
   49.6950   32.5160   41.9920 C   0  0  0  0  0  0  0  0  0  0  0  0
   48.5530   36.2030   42.4600 H   0  0  0  0  0  0  0  0  0  0  0  0
   50.8930   35.6340   42.8010 H   0  0  0  0  0  0  0  0  0  0  0  0
   51.6430   33.3830   42.5210 H   0  0  0  0  0  0  0  0  0  0  0  0
   46.5600   34.5270   41.7590 C   0  0  0  0  0  0  0  0  0  0  0  0
   46.0800   33.7760   41.1610 H   0  0  0  0  0  0  0  0  0  0  0  0
   46.5340   35.4760   41.1560 H   0  0  0  0  0  0  0  0  0  0  0  0
   45.8790   34.8290   43.0650 C   0  0  0  0  0  0  0  0  0  0  0  0
   45.9810   33.8650   44.0620 C   0  0  0  0  0  0  0  0  0  0  0  0
   45.3660   34.1190   45.2920 C   0  0  0  0  0  0  0  0  0  0  0  0
   44.7080   35.2920   45.4320 N   0  0  0  0  0  0  0  0  0  0  0  0
   44.6270   36.2220   44.4310 C   0  0  0  0  0  0  0  0  0  0  0  0
   45.2130   35.9880   43.2460 N   0  0  0  0  0  0  0  0  0  0  0  0
   46.5240   32.9460   43.8750 H   0  0  0  0  0  0  0  0  0  0  0  0
   45.4140   33.4140   46.0880 H   0  0  0  0  0  0  0  0  0  0  0  0
   44.0910   37.1260   44.6120 H   0  0  0  0  0  0  0  0  0  0  0  0
   47.5060   31.9110   41.4630 O   0  0  0  0  0  0  0  0  0  0  0  0
   47.0330   32.0580   40.5940 H   0  0  0  0  0  0  0  0  0  0  0  0
   50.1220   31.2370   41.8320 O   0  0  0  0  0  0  0  0  0  0  0  0
   51.3010   30.6610   41.4350 C   0  0  0  0  0  2  0  0  0  0  0  0
   51.5240   30.6230   39.9650 C   0  0  0  0  0  0  0  0  0  0  0  0
   50.7370   30.0420   39.0680 C   0  0  0  0  0  0  0  0  0  0  0  0
   51.0750   30.0810   37.7130 N   0  0  0  0  0  0  0  0  0  0  0  0
   50.6740   30.1410   36.3610 C   0  0  0  0  0  0  0  0  0  0  0  0
   49.6090   29.9920   35.6690 O   0  0  0  0  0  0  0  0  0  0  0  0
   52.0280   30.4800   35.8590 C   0  0  0  0  0  3  0  0  0  0  0  0
   52.0570   31.5810   35.6700 H   0  0  0  0  0  0  0  0  0  0  0  0
   52.4480   30.0570   37.2500 C   0  0  1  0  0  3  0  0  0  0  0  0
   53.3580   31.4090   38.0460 S   0  0  0  0  0  0  0  0  0  0  0  0
   52.7680   31.3500   39.7420 C   0  0  0  0  0  3  0  0  0  0  0  0
   52.6990   32.3780   40.1790 H   0  0  0  0  0  0  0  0  0  0  0  0
   49.5000   29.3370   39.4480 C   0  0  0  0  0  0  0  0  0  0  0  0
   49.1280   28.1590   39.6670 O   0  0  0  0  0  0  0  0  0  0  0  0
   48.3110   29.9700   39.6740 O   0  0  0  0  0  0  0  0  0  0  0  0
   47.7220   29.8560   40.5080 H   0  0  0  0  0  0  0  0  0  0  0  0
  1  6  2  0  0  0  0
  1  2  1  0  0  0  0
  2  3  2  0  0  0  0
  3  7  1  0  0  0  0
  3  4  1  0  0  0  0
  4  8  1  0  0  0  0
  5  9  1  0  0  0  0
  5  4  2  0  0  0  0
  6  5  1  0  0  0  0
 10  2  1  0  0  0  0
 10 13  1  0  0  0  0
 11 10  1  0  0  0  0
 12 10  1  0  0  0  0
 13 18  2  0  0  0  0
 13 14  1  0  0  0  0
 14 15  2  0  0  0  0
 15 16  1  0  0  0  0
 15 20  1  0  0  0  0
 17 21  1  0  0  0  0
 17 16  2  0  0  0  0
 18 17  1  0  0  0  0
 19 14  1  0  0  0  0
 22  1  1  0  0  0  0
 23 22  1  0  0  0  0
 24  6  1  0  0  0  0
 25 24  1  0  0  0  0
 26 25  1  0  0  0  0
 27 37  1  0  0  0  0
 27 26  2  0  0  0  0
 28 27  1  0  0  0  0
 29 28  1  0  0  0  0
 30 29  2  0  0  0  0
 31 29  1  0  0  0  0
 32 31  1  0  0  0  0
 33 31  1  6  0  0  0
 33 28  1  0  0  0  0
 33 34  1  0  0  0  0
 34 35  1  0  0  0  0
 35 26  1  0  0  0  0
 35 36  1  0  0  0  0
 37 38  2  0  0  0  0
 37 39  1  0  0  0  0
 39 40  1  0  0  0  0
M  END
>  <minimizedAffinity>
-5.05185986

>  <minimizedRMSD>
1.82945311

$$$$
