
 OpenBabel03242512173D

 40 43  0  0  1  0  0  0  0  0999 V2000
   48.4110   32.9440   41.6570 C   0  0  0  0  0  0  0  0  0  0  0  0
   48.0780   34.2660   41.9090 C   0  0  0  0  0  0  0  0  0  0  0  0
   49.0460   35.1370   42.3690 C   0  0  0  0  0  0  0  0  0  0  0  0
   50.3310   34.6480   42.5620 C   0  0  0  0  0  0  0  0  0  0  0  0
   50.6150   33.3270   42.2980 C   0  0  0  0  0  0  0  0  0  0  0  0
   49.6760   32.4280   41.8380 C   0  0  0  0  0  0  0  0  0  0  0  0
   48.7130   36.1300   42.5380 H   0  0  0  0  0  0  0  0  0  0  0  0
   51.0040   35.4070   42.9220 H   0  0  0  0  0  0  0  0  0  0  0  0
   51.6450   33.1440   42.5020 H   0  0  0  0  0  0  0  0  0  0  0  0
   46.6650   34.6230   41.6400 C   0  0  0  0  0  0  0  0  0  0  0  0
   46.1650   33.9340   40.9860 H   0  0  0  0  0  0  0  0  0  0  0  0
   46.7150   35.6030   41.0900 H   0  0  0  0  0  0  0  0  0  0  0  0
   45.9550   34.8950   42.9380 C   0  0  0  0  0  0  0  0  0  0  0  0
   46.0140   33.8970   43.9040 C   0  0  0  0  0  0  0  0  0  0  0  0
   45.3720   34.1220   45.1260 C   0  0  0  0  0  0  0  0  0  0  0  0
   44.7310   35.3030   45.2880 N   0  0  0  0  0  0  0  0  0  0  0  0
   44.6920   36.2660   44.3150 C   0  0  0  0  0  0  0  0  0  0  0  0
   45.3050   36.0590   43.1390 N   0  0  0  0  0  0  0  0  0  0  0  0
   46.5460   32.9750   43.7020 H   0  0  0  0  0  0  0  0  0  0  0  0
   45.3860   33.3910   45.8990 H   0  0  0  0  0  0  0  0  0  0  0  0
   44.1670   37.1730   44.5130 H   0  0  0  0  0  0  0  0  0  0  0  0
   47.4820   31.9870   41.1850 O   0  0  0  0  0  0  0  0  0  0  0  0
   47.0540   32.2220   40.3130 H   0  0  0  0  0  0  0  0  0  0  0  0
   50.0420   31.1430   41.5990 O   0  0  0  0  0  0  0  0  0  0  0  0
   50.9500   30.2820   42.1580 C   0  0  0  0  0  0  0  0  0  0  0  0
   50.5880   29.7660   43.5050 C   0  0  0  0  0  0  0  0  0  0  0  0
   51.4220   29.5620   44.5170 C   0  0  0  0  0  0  0  0  0  0  0  0
   50.9410   29.0660   45.7300 N   0  0  0  0  0  0  0  0  0  0  0  0
   51.0100   29.0210   47.1390 C   0  0  0  0  0  0  0  0  0  0  0  0
   51.8170   29.3630   48.0710 O   0  0  0  0  0  0  0  0  0  0  0  0
   49.6890   28.3680   47.2960 C   0  0  0  0  0  0  0  0  0  0  0  0
   48.9480   29.1550   47.5780 H   0  0  0  0  0  0  0  0  0  0  0  0
   49.8370   28.1300   45.8070 C   0  0  1  0  0  0  0  0  0  0  0  0
   48.4100   28.8340   44.9380 S   0  0  0  0  0  0  0  0  0  0  0  0
   49.1480   29.5450   43.4610 C   0  0  0  0  0  0  0  0  0  0  0  0
   48.6200   30.4860   43.1610 H   0  0  0  0  0  0  0  0  0  0  0  0
   52.8670   29.8350   44.4110 C   0  0  0  0  0  0  0  0  0  0  0  0
   53.8440   29.4340   43.7350 O   0  0  0  0  0  0  0  0  0  0  0  0
   53.5180   30.7530   45.1840 O   0  0  0  0  0  0  0  0  0  0  0  0
   54.1310   31.5010   44.8360 H   0  0  0  0  0  0  0  0  0  0  0  0
  1  6  2  0  0  0  0
  1  2  1  0  0  0  0
  2  3  2  0  0  0  0
  3  7  1  0  0  0  0
  3  4  1  0  0  0  0
  4  8  1  0  0  0  0
  5  9  1  0  0  0  0
  5  4  2  0  0  0  0
  6  5  1  0  0  0  0
 10  2  1  0  0  0  0
 10 13  1  0  0  0  0
 11 10  1  0  0  0  0
 12 10  1  0  0  0  0
 13 18  2  0  0  0  0
 13 14  1  0  0  0  0
 14 15  2  0  0  0  0
 15 16  1  0  0  0  0
 15 20  1  0  0  0  0
 17 21  1  0  0  0  0
 17 16  2  0  0  0  0
 18 17  1  0  0  0  0
 19 14  1  0  0  0  0
 22  1  1  0  0  0  0
 23 22  1  0  0  0  0
 24  6  1  0  0  0  0
 24 25  1  0  0  0  0
 25 26  1  0  0  0  0
 26 27  2  0  0  0  0
 27 28  1  0  0  0  0
 28 33  1  0  0  0  0
 28 29  1  0  0  0  0
 29 31  1  0  0  0  0
 29 30  2  0  0  0  0
 31 32  1  0  0  0  0
 33 34  1  6  0  0  0
 33 31  1  0  0  0  0
 35 26  1  0  0  0  0
 35 34  1  0  0  0  0
 36 35  1  0  0  0  0
 37 27  1  0  0  0  0
 37 39  1  0  0  0  0
 38 37  2  0  0  0  0
 40 39  1  0  0  0  0
M  END
>  <minimizedAffinity>
-5.25786352

>  <minimizedRMSD>
2.16879153

$$$$
