
     RDKit          3D

 33 35  0  0  0  0  0  0  0  0999 V2000
   46.2580   34.8763   43.1635 C   0  0  0  0  0  0  0  0  0  0  0  0
   45.3381   35.9102   43.2838 C   0  0  0  0  0  0  0  0  0  0  0  0
   44.5629   35.9670   44.4577 C   0  0  0  0  0  0  0  0  0  0  0  0
   44.7605   35.0066   45.4042 N   0  0  0  0  0  0  0  0  0  0  0  0
   45.6723   34.0259   45.2269 C   0  0  0  0  0  0  0  0  0  0  0  0
   46.4190   33.9606   44.1100 N   0  0  0  0  0  0  0  0  0  0  0  0
   46.9900   34.9080   41.9425 C   0  0  0  0  0  0  0  0  0  0  0  0
   48.1335   35.4101   41.7479 O   0  0  0  0  0  0  0  0  0  0  0  0
   46.3497   34.3094   40.8495 O   0  0  0  0  0  0  0  0  0  0  0  0
   45.1603   36.6773   42.5599 H   0  0  0  0  0  0  0  0  0  0  0  0
   43.8290   36.7356   44.6277 H   0  0  0  0  0  0  0  0  0  0  0  0
   45.7665   33.3014   46.0293 H   0  0  0  0  0  0  0  0  0  0  0  0
   47.0152   34.2938   39.5713 C   0  0  0  0  0  0  0  0  0  0  0  0
   47.8400   33.0905   39.4166 C   0  0  0  0  0  0  0  0  0  0  0  0
   47.6692   32.1982   38.4625 C   0  0  0  0  0  0  0  0  0  0  0  0
   46.6381   32.2910   37.4370 C   0  0  0  0  0  0  0  0  0  0  0  0
   45.7180   33.0858   37.1297 O   0  0  0  0  0  0  0  0  0  0  0  0
   46.4637   31.3601   36.4557 O   0  0  0  0  0  0  0  0  0  0  0  0
   48.5436   31.0768   38.4252 N   0  0  0  0  0  0  0  0  0  0  0  0
   48.6223   29.6776   38.1835 C   0  0  0  0  0  0  0  0  0  0  0  0
   47.9168   28.6970   37.7871 O   0  0  0  0  0  0  0  0  0  0  0  0
   50.0291   29.6980   38.6071 C   0  0  1  0  0  0  0  0  0  0  0  0
   50.3082   29.1092   39.4957 H   0  0  0  0  0  0  0  0  0  0  0  0
   49.9831   31.1838   38.7272 C   0  0  2  0  0  0  0  0  0  0  0  0
   50.0323   31.8057   40.4429 S   0  0  0  0  0  0  0  0  0  0  0  0
   48.8154   33.1404   40.5291 C   0  0  1  0  0  0  0  0  0  0  0  0
   49.4042   34.1082   40.5018 H   0  0  0  0  0  0  0  0  0  0  0  0
   47.6781   35.2103   39.5931 H   0  0  0  0  0  0  0  0  0  0  0  0
   46.2700   34.4623   38.8033 H   0  0  0  0  0  0  0  0  0  0  0  0
   45.5970   30.9233   36.1695 H   0  0  0  0  0  0  0  0  0  0  0  0
   50.7548   29.4265   37.7858 H   0  0  0  0  0  0  0  0  0  0  0  0
   50.5306   31.7894   38.0038 H   0  0  0  0  0  0  0  0  0  0  0  0
   48.2905   33.1316   41.5225 H   0  0  0  0  0  0  0  0  0  0  0  0
  1  2  2  0
  1  6  1  0
  2  3  1  0
  3  4  2  0
  5  4  1  0
  6  5  2  0
  7  1  1  0
  8  7  2  0
  9  7  1  0
  2 10  1  0
  3 11  1  0
  5 12  1  0
 13 14  1  0
 14 15  2  0
 15 16  1  0
 16 17  2  0
 16 18  1  0
 15 19  1  0
 19 20  1  0
 20 21  2  0
 20 22  1  0
 22 23  1  1
 22 24  1  0
 24 25  1  0
 25 26  1  0
 26 27  1  6
 26 14  1  0
 24 19  1  0
 13 28  1  0
 13 29  1  0
 18 30  1  0
 22 31  1  0
 24 32  1  6
 26 33  1  0
  9 13  1  0
M  ISO  5  10  14  11  14  12  14  23  15  27  15
M  END
>  <DihAtoms>  (1) 
6,8,12,13

>  <DihDeg>  (1) 
-179.9996024630318

$$$$
