
     RDKit          3D

 31 33  0  0  0  0  0  0  0  0999 V2000
   44.2654   35.7325   44.2536 C   0  0  0  0  0  0  0  0  0  0  0  0
   44.4266   34.9067   43.1317 C   0  0  0  0  0  0  0  0  0  0  0  0
   45.0634   33.6827   43.2759 C   0  0  0  0  0  0  0  0  0  0  0  0
   45.5046   33.3421   44.5153 N   0  0  0  0  0  0  0  0  0  0  0  0
   45.3409   34.1473   45.5793 C   0  0  0  0  0  0  0  0  0  0  0  0
   44.7297   35.3377   45.4762 N   0  0  0  0  0  0  0  0  0  0  0  0
   43.8074   35.4500   41.5391 S   0  0  0  0  0  0  0  0  0  0  0  0
   43.7698   36.6799   44.1295 H   0  0  0  0  0  0  0  0  0  0  0  0
   45.2034   33.0307   42.4480 H   0  0  0  0  0  0  0  0  0  0  0  0
   45.7241   33.8004   46.5412 H   0  0  0  0  0  0  0  0  0  0  0  0
   44.1790   34.1539   40.3168 C   0  0  0  0  0  0  0  0  0  0  0  0
   45.3996   33.4099   40.6636 C   0  0  0  0  0  0  0  0  0  0  0  0
   45.4376   32.1068   40.8869 C   0  0  0  0  0  0  0  0  0  0  0  0
   44.2504   31.2258   40.8169 C   0  0  0  0  0  0  0  0  0  0  0  0
   43.0220   31.2883   40.5765 O   0  0  0  0  0  0  0  0  0  0  0  0
   44.1937   29.8916   41.0370 O   0  0  0  0  0  0  0  0  0  0  0  0
   46.6891   31.5011   41.1988 N   0  0  0  0  0  0  0  0  0  0  0  0
   47.3929   30.6196   42.0684 C   0  0  0  0  0  0  0  0  0  0  0  0
   47.1154   29.6469   42.8492 O   0  0  0  0  0  0  0  0  0  0  0  0
   48.6607   31.3010   41.7033 C   0  0  1  0  0  0  0  0  0  0  0  0
   48.8849   32.0937   42.4361 H   0  0  0  0  0  0  0  0  0  0  0  0
   47.9341   31.7088   40.4566 C   0  0  2  0  0  0  0  0  0  0  0  0
   48.0480   33.4349   40.0005 S   0  0  0  0  0  0  0  0  0  0  0  0
   46.5904   34.2644   40.7500 C   0  0  1  0  0  0  0  0  0  0  0  0
   46.4373   35.2381   40.2654 H   0  0  0  0  0  0  0  0  0  0  0  0
   44.2638   34.6637   39.3233 H   0  0  0  0  0  0  0  0  0  0  0  0
   43.3174   33.4758   40.3234 H   0  0  0  0  0  0  0  0  0  0  0  0
   43.7049   29.4000   41.7965 H   0  0  0  0  0  0  0  0  0  0  0  0
   49.4452   30.5335   41.5786 H   0  0  0  0  0  0  0  0  0  0  0  0
   48.0836   31.0084   39.6274 H   0  0  0  0  0  0  0  0  0  0  0  0
   46.8932   34.3953   41.8306 H   0  0  0  0  0  0  0  0  0  0  0  0
  1  6  2  0
  2  3  2  0
  2  1  1  0
  3  4  1  0
  4  5  2  0
  6  5  1  0
  7  2  1  0
  1  8  1  0
  3  9  1  0
  5 10  1  0
 11 12  1  0
 12 13  2  0
 13 14  1  0
 14 15  2  0
 14 16  1  0
 13 17  1  0
 17 18  1  0
 18 19  2  0
 18 20  1  0
 20 21  1  1
 20 22  1  0
 22 23  1  0
 23 24  1  0
 24 25  1  6
 24 12  1  0
 22 17  1  0
 11 26  1  0
 11 27  1  0
 16 28  1  0
 20 29  1  0
 22 30  1  6
 24 31  1  0
  7 11  1  0
M  ISO  5   8  14   9  14  10  14  21  15  25  15
M  END
>  <DihAtoms>  (1) 
1,6,10,11

>  <DihDeg>  (1) 
-179.99874847358186

$$$$
