
 OpenBabel03242517423D

 26 28  0  0  1  0  0  0  0  0999 V2000
   46.7260   33.4280   40.7260 C   0  0  0  0  0  0  0  0  0  0  0  0
   46.9990   32.1360   40.7970 C   0  0  0  0  0  0  0  0  0  0  0  0
   48.2020   31.6580   40.2020 N   0  0  0  0  0  0  0  0  0  0  0  0
   49.3660   30.8530   40.3680 C   0  0  0  0  0  0  0  0  0  0  0  0
   49.7310   29.8620   41.0870 O   0  0  0  0  0  0  0  0  0  0  0  0
   50.0460   31.6540   39.3190 C   0  0  0  0  0  3  0  0  0  0  0  0
   50.6260   32.4680   39.7850 H   0  0  0  0  0  0  0  0  0  0  0  0
   48.6610   31.9820   38.8490 C   0  0  2  0  0  3  0  0  0  0  0  0
   48.3210   33.7100   38.5290 S   0  0  0  0  0  0  0  0  0  0  0  0
   47.6230   34.3960   40.0830 C   0  0  0  0  0  3  0  0  0  0  0  0
   47.1200   35.3480   39.8660 H   0  0  0  0  0  0  0  0  0  0  0  0
   46.1160   31.1440   41.4480 C   0  0  0  0  0  0  0  0  0  0  0  0
   45.9770   30.5600   42.5480 O   0  0  0  0  0  0  0  0  0  0  0  0
   45.0480   30.5070   40.9140 O   0  0  0  0  0  0  0  0  0  0  0  0
   44.9480   29.5020   40.7200 H   0  0  0  0  0  0  0  0  0  0  0  0
   45.5130   34.0480   41.2830 C   0  0  0  0  0  2  0  0  0  0  0  0
   45.9070   35.2470   42.5940 S   0  0  0  0  0  0  0  0  0  0  0  0
   45.0600   34.6950   45.1700 C   0  0  0  0  0  0  0  0  0  0  0  0
   45.9680   34.3650   44.1540 C   0  0  0  0  0  0  0  0  0  0  0  0
   46.8980   33.3590   44.3750 C   0  0  0  0  0  0  0  0  0  0  0  0
   46.8810   32.7370   45.5830 N   0  0  0  0  0  0  0  0  0  0  0  0
   46.0030   33.0680   46.5450 C   0  0  0  0  0  0  0  0  0  0  0  0
   45.0900   34.0360   46.3660 N   0  0  0  0  0  0  0  0  0  0  0  0
   44.3440   35.4770   44.9880 H   0  0  0  0  0  0  0  0  0  0  0  0
   47.6010   33.0820   43.6270 H   0  0  0  0  0  0  0  0  0  0  0  0
   46.0540   32.5200   47.4880 H   0  0  0  0  0  0  0  0  0  0  0  0
  1  2  2  0  0  0  0
  1 16  1  0  0  0  0
  2 12  1  0  0  0  0
  3  4  1  0  0  0  0
  3  2  1  0  0  0  0
  4  5  2  0  0  0  0
  6  7  1  0  0  0  0
  6  4  1  0  0  0  0
  8  9  1  1  0  0  0
  8  6  1  0  0  0  0
  8  3  1  0  0  0  0
  9 10  1  0  0  0  0
 10  1  1  0  0  0  0
 11 10  1  0  0  0  0
 12 13  2  0  0  0  0
 14 12  1  0  0  0  0
 15 14  1  0  0  0  0
 16 17  1  0  0  0  0
 17 19  1  0  0  0  0
 18 23  1  0  0  0  0
 19 20  1  0  0  0  0
 19 18  2  0  0  0  0
 20 21  2  0  0  0  0
 21 22  1  0  0  0  0
 22 26  1  0  0  0  0
 23 22  2  0  0  0  0
 24 18  1  0  0  0  0
 25 20  1  0  0  0  0
M  END
>  <minimizedAffinity>
-3.50546956

>  <minimizedRMSD>
2.59160662

$$$$
