
     RDKit          3D

 33 35  0  0  0  0  0  0  0  0999 V2000
   46.2580   34.8763   43.1635 C   0  0  0  0  0  0  0  0  0  0  0  0
   45.3381   35.9102   43.2838 C   0  0  0  0  0  0  0  0  0  0  0  0
   44.5629   35.9670   44.4577 C   0  0  0  0  0  0  0  0  0  0  0  0
   44.7605   35.0066   45.4042 N   0  0  0  0  0  0  0  0  0  0  0  0
   45.6723   34.0259   45.2269 C   0  0  0  0  0  0  0  0  0  0  0  0
   46.4190   33.9606   44.1100 N   0  0  0  0  0  0  0  0  0  0  0  0
   46.9900   34.9080   41.9425 C   0  0  0  0  0  0  0  0  0  0  0  0
   48.1335   35.4101   41.7479 O   0  0  0  0  0  0  0  0  0  0  0  0
   46.3497   34.3094   40.8495 O   0  0  0  0  0  0  0  0  0  0  0  0
   45.1603   36.6773   42.5599 H   0  0  0  0  0  0  0  0  0  0  0  0
   43.8290   36.7356   44.6277 H   0  0  0  0  0  0  0  0  0  0  0  0
   45.7665   33.3014   46.0293 H   0  0  0  0  0  0  0  0  0  0  0  0
   47.0152   34.2938   39.5713 C   0  0  0  0  0  0  0  0  0  0  0  0
   47.5445   32.9604   39.2643 C   0  0  0  0  0  0  0  0  0  0  0  0
   47.1896   32.2515   38.2122 C   0  0  0  0  0  0  0  0  0  0  0  0
   46.2246   32.7003   37.2167 C   0  0  0  0  0  0  0  0  0  0  0  0
   45.5166   33.7160   37.0171 O   0  0  0  0  0  0  0  0  0  0  0  0
   45.8577   31.9581   36.1329 O   0  0  0  0  0  0  0  0  0  0  0  0
   47.7839   30.9719   38.0310 N   0  0  0  0  0  0  0  0  0  0  0  0
   47.5436   29.6311   37.6224 C   0  0  0  0  0  0  0  0  0  0  0  0
   46.6388   28.8933   37.1192 O   0  0  0  0  0  0  0  0  0  0  0  0
   48.9103   29.2772   38.0297 C   0  0  1  0  0  0  0  0  0  0  0  0
   49.0319   28.5383   38.8382 H   0  0  0  0  0  0  0  0  0  0  0  0
   49.2043   30.7085   38.3275 C   0  0  2  0  0  0  0  0  0  0  0  0
   49.3661   31.0935   40.1047 S   0  0  0  0  0  0  0  0  0  0  0  0
   48.4865   32.6520   40.3638 C   0  0  1  0  0  0  0  0  0  0  0  0
   49.2820   33.4548   40.4461 H   0  0  0  0  0  0  0  0  0  0  0  0
   47.8702   35.0242   39.6954 H   0  0  0  0  0  0  0  0  0  0  0  0
   46.3415   34.7193   38.8374 H   0  0  0  0  0  0  0  0  0  0  0  0
   44.9189   31.7693   35.8061 H   0  0  0  0  0  0  0  0  0  0  0  0
   49.5680   28.9460   37.1738 H   0  0  0  0  0  0  0  0  0  0  0  0
   49.8882   31.2540   37.6758 H   0  0  0  0  0  0  0  0  0  0  0  0
   47.9571   32.6457   41.3548 H   0  0  0  0  0  0  0  0  0  0  0  0
  1  2  2  0
  1  6  1  0
  2  3  1  0
  3  4  2  0
  5  4  1  0
  6  5  2  0
  7  1  1  0
  8  7  2  0
  9  7  1  0
  2 10  1  0
  3 11  1  0
  5 12  1  0
 13 14  1  0
 14 15  2  0
 15 16  1  0
 16 17  2  0
 16 18  1  0
 15 19  1  0
 19 20  1  0
 20 21  2  0
 20 22  1  0
 22 23  1  1
 22 24  1  0
 24 25  1  0
 25 26  1  0
 26 27  1  1
 26 14  1  0
 24 19  1  0
 13 28  1  0
 13 29  1  0
 18 30  1  0
 22 31  1  0
 24 32  1  6
 26 33  1  0
  9 13  1  0
M  ISO  5  10  14  11  14  12  14  23  15  27  15
M  END
>  <DihAtoms>  (1) 
6,8,12,13

>  <DihDeg>  (1) 
-179.9996024630318

$$$$
