
     RDKit          3D

 45 48  0  0  0  0  0  0  0  0999 V2000
   46.6566   34.7593   41.9734 C   0  0  0  0  0  0  0  0  0  0  0  0
   47.9214   35.3281   41.9039 C   0  0  0  0  0  0  0  0  0  0  0  0
   48.6415   35.1504   40.7334 C   0  0  0  0  0  0  0  0  0  0  0  0
   48.1150   34.4397   39.6937 C   0  0  0  0  0  0  0  0  0  0  0  0
   46.8644   33.8671   39.7392 C   0  0  0  0  0  0  0  0  0  0  0  0
   46.1391   34.0511   40.9299 C   0  0  0  0  0  0  0  0  0  0  0  0
   44.5137   36.1491   44.7502 C   0  0  0  0  0  0  0  0  0  0  0  0
   45.1612   36.0695   43.4908 C   0  0  0  0  0  0  0  0  0  0  0  0
   45.9336   34.9709   43.2290 C   0  0  0  0  0  0  0  0  0  0  0  0
   46.0281   34.0208   44.2049 N   0  0  0  0  0  0  0  0  0  0  0  0
   45.4101   34.1033   45.3989 C   0  0  0  0  0  0  0  0  0  0  0  0
   44.6460   35.1799   45.6706 N   0  0  0  0  0  0  0  0  0  0  0  0
   43.5412   33.9270   40.8102 C   0  0  0  0  0  0  0  0  0  0  0  0
   43.2212   34.9724   40.2673 O   0  0  0  0  0  0  0  0  0  0  0  0
   44.8476   33.5183   41.1300 N   0  0  0  0  0  0  0  0  0  0  0  0
   42.4944   33.0630   41.1397 O   0  0  0  0  0  0  0  0  0  0  0  0
   48.3564   35.8905   42.7069 H   0  0  0  0  0  0  0  0  0  0  0  0
   49.6322   35.5490   40.5732 H   0  0  0  0  0  0  0  0  0  0  0  0
   48.6521   34.2822   38.7645 H   0  0  0  0  0  0  0  0  0  0  0  0
   46.4096   33.2951   38.9352 H   0  0  0  0  0  0  0  0  0  0  0  0
   43.9319   37.0423   44.8663 H   0  0  0  0  0  0  0  0  0  0  0  0
   45.0659   36.8411   42.7371 H   0  0  0  0  0  0  0  0  0  0  0  0
   45.5748   33.2765   46.0754 H   0  0  0  0  0  0  0  0  0  0  0  0
   45.0448   32.6061   41.6468 H   0  0  0  0  0  0  0  0  0  0  0  0
   41.1740   33.4662   40.8213 C   0  0  0  0  0  0  0  0  0  0  0  0
   40.2780   32.5705   41.5929 C   0  0  0  0  0  0  0  0  0  0  0  0
   39.4105   31.7965   41.0140 C   0  0  0  0  0  0  0  0  0  0  0  0
   39.2845   31.7806   39.5646 C   0  0  0  0  0  0  0  0  0  0  0  0
   38.4886   31.0809   38.9139 O   0  0  0  0  0  0  0  0  0  0  0  0
   39.4395   32.0207   38.2159 O   0  0  0  0  0  0  0  0  0  0  0  0
   38.5582   30.9402   41.7567 N   0  0  0  0  0  0  0  0  0  0  0  0
   37.2727   30.3669   41.9476 C   0  0  0  0  0  0  0  0  0  0  0  0
   36.1630   30.3590   41.3134 O   0  0  0  0  0  0  0  0  0  0  0  0
   37.6790   29.7327   43.2247 C   0  0  1  0  0  0  0  0  0  0  0  0
   37.2593   30.2236   44.1310 H   0  0  0  0  0  0  0  0  0  0  0  0
   39.0764   30.2109   42.9268 C   0  0  2  0  0  0  0  0  0  0  0  0
   39.6790   31.4970   44.0567 S   0  0  0  0  0  0  0  0  0  0  0  0
   40.5348   32.7144   43.0447 C   0  0  1  0  0  0  0  0  0  0  0  0
   41.6365   32.5361   43.2108 H   0  0  0  0  0  0  0  0  0  0  0  0
   41.0560   34.5064   41.2237 H   0  0  0  0  0  0  0  0  0  0  0  0
   40.9855   33.4278   39.7326 H   0  0  0  0  0  0  0  0  0  0  0  0
   40.3097   32.2612   37.7533 H   0  0  0  0  0  0  0  0  0  0  0  0
   37.6342   28.6249   43.2395 H   0  0  0  0  0  0  0  0  0  0  0  0
   39.7888   29.4085   42.6950 H   0  0  0  0  0  0  0  0  0  0  0  0
   40.2589   33.7558   43.3037 H   0  0  0  0  0  0  0  0  0  0  0  0
  1  9  1  0
  2  1  2  0
  3  2  1  0
  4  5  1  0
  4  3  2  0
  5  6  2  0
  6 15  1  0
  6  1  1  0
  7 12  2  0
  8  7  1  0
  9  8  2  0
  9 10  1  0
 10 11  2  0
 11 12  1  0
 13 15  1  0
 13 16  1  0
 14 13  2  0
  2 17  1  0
  3 18  1  0
  4 19  1  0
  5 20  1  0
  7 21  1  0
  8 22  1  0
 11 23  1  0
 15 24  1  0
 25 26  1  0
 26 27  2  0
 27 28  1  0
 28 29  2  0
 28 30  1  0
 27 31  1  0
 31 32  1  0
 32 33  2  0
 32 34  1  0
 34 35  1  1
 34 36  1  0
 36 37  1  0
 37 38  1  0
 38 39  1  6
 38 26  1  0
 36 31  1  0
 25 40  1  0
 25 41  1  0
 30 42  1  0
 34 43  1  0
 36 44  1  6
 38 45  1  0
 16 25  1  0
M  ISO  8  17  14  18  14  19  14  20  14  21  14  22  14  23  14  35  15
M  ISO  1  39  15
M  END
>  <DihAtoms>  (1) 
12,15,24,25

>  <DihDeg>  (1) 
-179.9981853037701

$$$$
