
     RDKit          3D

 33 35  0  0  0  0  0  0  0  0999 V2000
   46.2580   34.8763   43.1635 C   0  0  0  0  0  0  0  0  0  0  0  0
   45.3381   35.9102   43.2838 C   0  0  0  0  0  0  0  0  0  0  0  0
   44.5629   35.9670   44.4577 C   0  0  0  0  0  0  0  0  0  0  0  0
   44.7605   35.0066   45.4042 N   0  0  0  0  0  0  0  0  0  0  0  0
   45.6723   34.0259   45.2269 C   0  0  0  0  0  0  0  0  0  0  0  0
   46.4190   33.9606   44.1100 N   0  0  0  0  0  0  0  0  0  0  0  0
   46.9900   34.9080   41.9425 C   0  0  0  0  0  0  0  0  0  0  0  0
   48.1335   35.4101   41.7479 O   0  0  0  0  0  0  0  0  0  0  0  0
   46.3497   34.3094   40.8495 O   0  0  0  0  0  0  0  0  0  0  0  0
   45.1603   36.6773   42.5599 H   0  0  0  0  0  0  0  0  0  0  0  0
   43.8290   36.7356   44.6277 H   0  0  0  0  0  0  0  0  0  0  0  0
   45.7665   33.3014   46.0293 H   0  0  0  0  0  0  0  0  0  0  0  0
   47.0152   34.2938   39.5713 C   0  0  0  0  0  0  0  0  0  0  0  0
   46.6274   33.1176   38.7849 C   0  0  0  0  0  0  0  0  0  0  0  0
   46.0450   33.1800   37.6049 C   0  0  0  0  0  0  0  0  0  0  0  0
   45.7102   34.4262   36.9278 C   0  0  0  0  0  0  0  0  0  0  0  0
   45.8264   35.6541   37.1547 O   0  0  0  0  0  0  0  0  0  0  0  0
   45.1018   34.4828   35.7085 O   0  0  0  0  0  0  0  0  0  0  0  0
   45.7249   31.9602   36.9469 N   0  0  0  0  0  0  0  0  0  0  0  0
   44.7531   31.2954   36.1493 C   0  0  0  0  0  0  0  0  0  0  0  0
   43.6594   31.5053   35.5361 O   0  0  0  0  0  0  0  0  0  0  0  0
   45.5315   30.0541   36.2610 C   0  0  1  0  0  0  0  0  0  0  0  0
   45.0596   29.1934   36.7620 H   0  0  0  0  0  0  0  0  0  0  0  0
   46.6153   30.7850   36.9786 C   0  0  2  0  0  0  0  0  0  0  0  0
   46.7539   30.3803   38.7534 S   0  0  0  0  0  0  0  0  0  0  0  0
   47.0191   31.9514   39.6084 C   0  0  1  0  0  0  0  0  0  0  0  0
   48.1231   31.9924   39.8606 H   0  0  0  0  0  0  0  0  0  0  0  0
   48.1143   34.2326   39.8321 H   0  0  0  0  0  0  0  0  0  0  0  0
   46.8566   35.2558   39.0990 H   0  0  0  0  0  0  0  0  0  0  0  0
   44.3029   35.0453   35.4454 H   0  0  0  0  0  0  0  0  0  0  0  0
   45.9397   29.6835   35.2757 H   0  0  0  0  0  0  0  0  0  0  0  0
   47.5661   30.9518   36.4705 H   0  0  0  0  0  0  0  0  0  0  0  0
   46.4812   31.9589   40.5948 H   0  0  0  0  0  0  0  0  0  0  0  0
  1  2  2  0
  1  6  1  0
  2  3  1  0
  3  4  2  0
  5  4  1  0
  6  5  2  0
  7  1  1  0
  8  7  2  0
  9  7  1  0
  2 10  1  0
  3 11  1  0
  5 12  1  0
 13 14  1  0
 14 15  2  0
 15 16  1  0
 16 17  2  0
 16 18  1  0
 15 19  1  0
 19 20  1  0
 20 21  2  0
 20 22  1  0
 22 23  1  1
 22 24  1  0
 24 25  1  0
 25 26  1  0
 26 27  1  1
 26 14  1  0
 24 19  1  0
 13 28  1  0
 13 29  1  0
 18 30  1  0
 22 31  1  0
 24 32  1  6
 26 33  1  0
  9 13  1  0
M  ISO  5  10  14  11  14  12  14  23  15  27  15
M  END
>  <DihAtoms>  (1) 
6,8,12,13

>  <DihDeg>  (1) 
-179.9996024630318

$$$$
