
 OpenBabel03242517433D

 26 28  0  0  1  0  0  0  0  0999 V2000
   46.2750   32.7990   40.5170 C   0  0  0  0  0  0  0  0  0  0  0  0
   46.8240   31.6490   40.8730 C   0  0  0  0  0  0  0  0  0  0  0  0
   48.2250   31.4730   40.6890 N   0  0  0  0  0  0  0  0  0  0  0  0
   49.4520   31.0500   41.2770 C   0  0  0  0  0  0  0  0  0  0  0  0
   49.8250   30.2750   42.2220 O   0  0  0  0  0  0  0  0  0  0  0  0
   50.1890   31.9040   40.3100 C   0  0  0  0  0  3  0  0  0  0  0  0
   50.3920   32.8890   40.7610 H   0  0  0  0  0  0  0  0  0  0  0  0
   48.9590   31.7820   39.4600 C   0  0  2  0  0  3  0  0  0  0  0  0
   48.3140   33.3040   38.7750 S   0  0  0  0  0  0  0  0  0  0  0  0
   47.0550   33.9130   39.9640 C   0  0  0  0  0  3  0  0  0  0  0  0
   46.4180   34.6590   39.4690 H   0  0  0  0  0  0  0  0  0  0  0  0
   46.0610   30.5160   41.4430 C   0  0  0  0  0  0  0  0  0  0  0  0
   45.7250   30.0480   42.5560 O   0  0  0  0  0  0  0  0  0  0  0  0
   45.4240   29.5260   40.7740 O   0  0  0  0  0  0  0  0  0  0  0  0
   45.6510   28.5240   40.7700 H   0  0  0  0  0  0  0  0  0  0  0  0
   44.8400   33.1030   40.6390 C   0  0  0  0  0  2  0  0  0  0  0  0
   44.5560   34.7460   41.3670 S   0  0  0  0  0  0  0  0  0  0  0  0
   44.4180   35.6900   43.9650 C   0  0  0  0  0  0  0  0  0  0  0  0
   44.7810   34.6140   43.1420 C   0  0  0  0  0  0  0  0  0  0  0  0
   45.3070   33.4670   43.7160 C   0  0  0  0  0  0  0  0  0  0  0  0
   45.4460   33.4430   45.0680 N   0  0  0  0  0  0  0  0  0  0  0  0
   45.0930   34.4840   45.8410 C   0  0  0  0  0  0  0  0  0  0  0  0
   44.5810   35.6100   45.3190 N   0  0  0  0  0  0  0  0  0  0  0  0
   44.0110   36.5750   43.5080 H   0  0  0  0  0  0  0  0  0  0  0  0
   45.5920   32.6320   43.1230 H   0  0  0  0  0  0  0  0  0  0  0  0
   45.2360   34.3860   46.9190 H   0  0  0  0  0  0  0  0  0  0  0  0
  1 16  1  0  0  0  0
  1  2  2  0  0  0  0
  2 12  1  0  0  0  0
  3  2  1  0  0  0  0
  3  4  1  0  0  0  0
  4  5  2  0  0  0  0
  6  7  1  0  0  0  0
  6  4  1  0  0  0  0
  8  9  1  1  0  0  0
  8  6  1  0  0  0  0
  8  3  1  0  0  0  0
  9 10  1  0  0  0  0
 10  1  1  0  0  0  0
 11 10  1  0  0  0  0
 12 13  2  0  0  0  0
 14 12  1  0  0  0  0
 15 14  1  0  0  0  0
 16 17  1  0  0  0  0
 17 19  1  0  0  0  0
 18 23  1  0  0  0  0
 19 20  1  0  0  0  0
 19 18  2  0  0  0  0
 20 21  2  0  0  0  0
 21 22  1  0  0  0  0
 22 26  1  0  0  0  0
 23 22  2  0  0  0  0
 24 18  1  0  0  0  0
 25 20  1  0  0  0  0
M  END
>  <minimizedAffinity>
-3.43228722

>  <minimizedRMSD>
2.86388564

$$$$
