
     RDKit          3D

 33 35  0  0  0  0  0  0  0  0999 V2000
   46.2580   34.8763   43.1635 C   0  0  0  0  0  0  0  0  0  0  0  0
   45.3381   35.9102   43.2838 C   0  0  0  0  0  0  0  0  0  0  0  0
   44.5629   35.9670   44.4577 C   0  0  0  0  0  0  0  0  0  0  0  0
   44.7605   35.0066   45.4042 N   0  0  0  0  0  0  0  0  0  0  0  0
   45.6723   34.0259   45.2269 C   0  0  0  0  0  0  0  0  0  0  0  0
   46.4190   33.9606   44.1100 N   0  0  0  0  0  0  0  0  0  0  0  0
   46.9900   34.9080   41.9425 C   0  0  0  0  0  0  0  0  0  0  0  0
   48.1335   35.4101   41.7479 O   0  0  0  0  0  0  0  0  0  0  0  0
   46.3497   34.3094   40.8495 O   0  0  0  0  0  0  0  0  0  0  0  0
   45.1603   36.6773   42.5599 H   0  0  0  0  0  0  0  0  0  0  0  0
   43.8290   36.7356   44.6277 H   0  0  0  0  0  0  0  0  0  0  0  0
   45.7665   33.3014   46.0293 H   0  0  0  0  0  0  0  0  0  0  0  0
   47.0152   34.2938   39.5713 C   0  0  0  0  0  0  0  0  0  0  0  0
   46.9168   32.9745   38.9373 C   0  0  0  0  0  0  0  0  0  0  0  0
   46.3488   32.7597   37.7682 C   0  0  0  0  0  0  0  0  0  0  0  0
   45.7443   33.8055   36.9531 C   0  0  0  0  0  0  0  0  0  0  0  0
   45.5727   35.0455   37.0301 O   0  0  0  0  0  0  0  0  0  0  0  0
   45.1528   33.5746   35.7461 O   0  0  0  0  0  0  0  0  0  0  0  0
   46.3248   31.4292   37.2657 N   0  0  0  0  0  0  0  0  0  0  0  0
   45.5408   30.4685   36.5694 C   0  0  0  0  0  0  0  0  0  0  0  0
   44.4349   30.3469   35.9541 O   0  0  0  0  0  0  0  0  0  0  0  0
   46.5821   29.4615   36.8153 C   0  0  1  0  0  0  0  0  0  0  0  0
   46.3151   28.5819   37.4231 H   0  0  0  0  0  0  0  0  0  0  0  0
   47.4610   30.5021   37.4224 C   0  0  2  0  0  0  0  0  0  0  0  0
   47.6691   30.3557   39.2301 S   0  0  0  0  0  0  0  0  0  0  0  0
   47.5567   32.0365   39.8872 C   0  0  1  0  0  0  0  0  0  0  0  0
   48.6188   32.3596   40.1142 H   0  0  0  0  0  0  0  0  0  0  0  0
   48.0960   34.5181   39.8191 H   0  0  0  0  0  0  0  0  0  0  0  0
   46.6451   35.1300   38.9905 H   0  0  0  0  0  0  0  0  0  0  0  0
   44.2490   33.9031   35.4313 H   0  0  0  0  0  0  0  0  0  0  0  0
   47.0755   29.0791   35.8744 H   0  0  0  0  0  0  0  0  0  0  0  0
   48.3536   30.8204   36.8821 H   0  0  0  0  0  0  0  0  0  0  0  0
   47.0205   32.0386   40.8746 H   0  0  0  0  0  0  0  0  0  0  0  0
  1  2  2  0
  1  6  1  0
  2  3  1  0
  3  4  2  0
  5  4  1  0
  6  5  2  0
  7  1  1  0
  8  7  2  0
  9  7  1  0
  2 10  1  0
  3 11  1  0
  5 12  1  0
 13 14  1  0
 14 15  2  0
 15 16  1  0
 16 17  2  0
 16 18  1  0
 15 19  1  0
 19 20  1  0
 20 21  2  0
 20 22  1  0
 22 23  1  1
 22 24  1  0
 24 25  1  0
 25 26  1  0
 26 27  1  1
 26 14  1  0
 24 19  1  0
 13 28  1  0
 13 29  1  0
 18 30  1  0
 22 31  1  0
 24 32  1  6
 26 33  1  0
  9 13  1  0
M  ISO  5  10  14  11  14  12  14  23  15  27  15
M  END
>  <DihAtoms>  (1) 
6,8,12,13

>  <DihDeg>  (1) 
-179.9996024630318

$$$$
