
 OpenBabel03242517023D

 40 43  0  0  1  0  0  0  0  0999 V2000
   43.5150   33.6180   40.9470 C   0  0  0  0  0  0  0  0  0  0  0  0
   43.1180   34.6100   40.3570 O   0  0  0  0  0  0  0  0  0  0  0  0
   44.8520   33.3100   41.2570 N   0  0  0  0  0  0  0  0  0  0  0  0
   45.1170   32.4410   41.8170 H   0  0  0  0  0  0  0  0  0  0  0  0
   46.6020   34.6920   41.9990 C   0  0  0  0  0  0  0  0  0  0  0  0
   47.8260   35.3330   41.8720 C   0  0  0  0  0  0  0  0  0  0  0  0
   48.5260   35.1510   40.6890 C   0  0  0  0  0  0  0  0  0  0  0  0
   48.0170   34.3680   39.6940 C   0  0  0  0  0  0  0  0  0  0  0  0
   46.8050   33.7230   39.7970 C   0  0  0  0  0  0  0  0  0  0  0  0
   46.1020   33.9110   41.0000 C   0  0  0  0  0  0  0  0  0  0  0  0
   48.2460   35.9540   42.6400 H   0  0  0  0  0  0  0  0  0  0  0  0
   49.4850   35.6030   40.4850 H   0  0  0  0  0  0  0  0  0  0  0  0
   48.5390   34.2050   38.7560 H   0  0  0  0  0  0  0  0  0  0  0  0
   46.3670   33.0920   39.0300 H   0  0  0  0  0  0  0  0  0  0  0  0
   44.4900   36.0890   44.7970 C   0  0  0  0  0  0  0  0  0  0  0  0
   45.1130   36.0000   43.5260 C   0  0  0  0  0  0  0  0  0  0  0  0
   45.9000   34.9110   43.2660 C   0  0  0  0  0  0  0  0  0  0  0  0
   46.0290   33.9780   44.2540 N   0  0  0  0  0  0  0  0  0  0  0  0
   45.4330   34.0680   45.4590 C   0  0  0  0  0  0  0  0  0  0  0  0
   44.6560   35.1360   45.7290 N   0  0  0  0  0  0  0  0  0  0  0  0
   43.8950   36.9730   44.9110 H   0  0  0  0  0  0  0  0  0  0  0  0
   44.9910   36.7590   42.7630 H   0  0  0  0  0  0  0  0  0  0  0  0
   45.6250   33.2540   46.1440 H   0  0  0  0  0  0  0  0  0  0  0  0
   42.5320   32.7090   41.3460 O   0  0  0  0  0  0  0  0  0  0  0  0
   41.1910   32.9750   40.9760 C   0  0  0  0  0  2  0  0  0  0  0  0
   40.4300   31.7420   41.2920 C   0  0  0  0  0  0  0  0  0  0  0  0
   39.5300   31.2610   40.4870 C   0  0  0  0  0  0  0  0  0  0  0  0
   38.8070   30.0800   40.7920 N   0  0  0  0  0  0  0  0  0  0  0  0
   37.5760   29.3700   40.7920 C   0  0  0  0  0  0  0  0  0  0  0  0
   36.4000   29.5630   40.3320 O   0  0  0  0  0  0  0  0  0  0  0  0
   38.1580   28.2440   41.5620 C   0  0  0  0  0  3  0  0  0  0  0  0
   37.8310   28.2020   42.6250 H   0  0  0  0  0  0  0  0  0  0  0  0
   39.4890   28.9320   41.4140 C   0  0  2  0  0  3  0  0  0  0  0  0
   40.1730   29.5730   42.9690 S   0  0  0  0  0  0  0  0  0  0  0  0
   40.8520   31.1990   42.6030 C   0  0  0  0  0  3  0  0  0  0  0  0
   41.9720   31.0650   42.5670 H   0  0  0  0  0  0  0  0  0  0  0  0
   39.2320   31.9270   39.2290 C   0  0  0  0  0  0  0  0  0  0  0  0
   38.6020   31.4320   38.2770 O   0  0  0  0  0  0  0  0  0  0  0  0
   39.1370   32.8400   38.1990 O   0  0  0  0  0  0  0  0  0  0  0  0
   39.8320   33.5400   37.9630 H   0  0  0  0  0  0  0  0  0  0  0  0
  1  3  1  0  0  0  0
  1 24  1  0  0  0  0
  2  1  2  0  0  0  0
  3  4  1  0  0  0  0
  5 17  1  0  0  0  0
  6  5  1  0  0  0  0
  6 11  1  0  0  0  0
  7  6  2  0  0  0  0
  8  9  2  0  0  0  0
  8  7  1  0  0  0  0
  9 10  1  0  0  0  0
 10  3  1  0  0  0  0
 10  5  2  0  0  0  0
 12  7  1  0  0  0  0
 13  8  1  0  0  0  0
 14  9  1  0  0  0  0
 15 21  1  0  0  0  0
 15 20  1  0  0  0  0
 16 15  2  0  0  0  0
 17 16  1  0  0  0  0
 17 18  2  0  0  0  0
 18 19  1  0  0  0  0
 19 20  2  0  0  0  0
 19 23  1  0  0  0  0
 22 16  1  0  0  0  0
 25 26  1  0  0  0  0
 25 24  1  0  0  0  0
 26 35  1  0  0  0  0
 27 28  1  0  0  0  0
 27 26  2  0  0  0  0
 28 33  1  0  0  0  0
 29 28  1  0  0  0  0
 29 31  1  0  0  0  0
 30 29  2  0  0  0  0
 31 32  1  0  0  0  0
 33 31  1  1  0  0  0
 33 34  1  0  0  0  0
 35 34  1  0  0  0  0
 36 35  1  0  0  0  0
 37 27  1  0  0  0  0
 38 37  2  0  0  0  0
 39 37  1  0  0  0  0
 40 39  1  0  0  0  0
M  END
>  <minimizedAffinity>
-6.45064831

>  <minimizedRMSD>
0.529861331

$$$$
