
 OpenBabel03242518283D

 28 30  0  0  1  0  0  0  0  0999 V2000
   47.5200   32.9300   38.8020 C   0  0  0  0  0  0  0  0  0  0  0  0
   46.4600   32.3530   38.2730 C   0  0  0  0  0  0  0  0  0  0  0  0
   46.6540   31.1780   37.4940 N   0  0  0  0  0  0  0  0  0  0  0  0
   46.1260   29.8940   37.1830 C   0  0  0  0  0  0  0  0  0  0  0  0
   45.1200   29.1530   37.4130 O   0  0  0  0  0  0  0  0  0  0  0  0
   47.3120   29.6220   36.3600 C   0  0  0  0  0  3  0  0  0  0  0  0
   47.9670   28.7880   36.6600 H   0  0  0  0  0  0  0  0  0  0  0  0
   47.7960   31.0160   36.5750 C   0  0  2  0  0  3  0  0  0  0  0  0
   49.2600   31.1510   37.6570 S   0  0  0  0  0  0  0  0  0  0  0  0
   48.9520   32.5590   38.7480 C   0  0  0  0  0  3  0  0  0  0  0  0
   49.5720   33.4160   38.3420 H   0  0  0  0  0  0  0  0  0  0  0  0
   45.0980   32.8450   38.4360 C   0  0  0  0  0  0  0  0  0  0  0  0
   44.2860   33.5320   37.7740 O   0  0  0  0  0  0  0  0  0  0  0  0
   44.3320   32.5960   39.5370 O   0  0  0  0  0  0  0  0  0  0  0  0
   43.7960   33.2630   40.0760 H   0  0  0  0  0  0  0  0  0  0  0  0
   47.4660   34.1460   39.6230 C   0  0  0  0  0  2  0  0  0  0  0  0
   47.2740   33.8260   41.0150 O   0  0  0  0  0  0  0  0  0  0  0  0
   47.4830   34.8230   41.9780 C   0  0  0  0  0  0  0  0  0  0  0  0
   48.4190   35.6470   41.7720 O   0  0  0  0  0  0  0  0  0  0  0  0
   46.5970   34.7830   43.0910 C   0  0  0  0  0  0  0  0  0  0  0  0
   45.6340   35.7840   43.0690 C   0  0  0  0  0  0  0  0  0  0  0  0
   44.7090   35.8310   44.1290 C   0  0  0  0  0  0  0  0  0  0  0  0
   44.8130   34.8940   45.1120 N   0  0  0  0  0  0  0  0  0  0  0  0
   45.7720   33.9450   45.0770 C   0  0  0  0  0  0  0  0  0  0  0  0
   46.6630   33.8900   44.0690 N   0  0  0  0  0  0  0  0  0  0  0  0
   45.5280   36.5330   42.3120 H   0  0  0  0  0  0  0  0  0  0  0  0
   43.9330   36.5750   44.1850 H   0  0  0  0  0  0  0  0  0  0  0  0
   45.7850   33.2360   45.8990 H   0  0  0  0  0  0  0  0  0  0  0  0
  1 16  1  0  0  0  0
  2 12  1  0  0  0  0
  2  1  2  0  0  0  0
  3  2  1  0  0  0  0
  4  5  2  0  0  0  0
  4  3  1  0  0  0  0
  6  7  1  0  0  0  0
  6  4  1  0  0  0  0
  8  6  1  1  0  0  0
  8  3  1  0  0  0  0
  8  9  1  0  0  0  0
  9 10  1  0  0  0  0
 10  1  1  0  0  0  0
 11 10  1  0  0  0  0
 12 14  1  0  0  0  0
 13 12  2  0  0  0  0
 14 15  1  0  0  0  0
 16 17  1  0  0  0  0
 17 18  1  0  0  0  0
 18 20  1  0  0  0  0
 19 18  2  0  0  0  0
 20 25  1  0  0  0  0
 21 20  2  0  0  0  0
 21 22  1  0  0  0  0
 22 27  1  0  0  0  0
 22 23  2  0  0  0  0
 24 23  1  0  0  0  0
 24 28  1  0  0  0  0
 25 24  2  0  0  0  0
 26 21  1  0  0  0  0
M  END
>  <minimizedAffinity>
-3.97587705

>  <minimizedRMSD>
1.40659332

$$$$
