REMARK  Name = 
REMARK  5 active torsions:
REMARK  status: ('A' for Active; 'I' for Inactive)
REMARK    1  A    between atoms: C_2  and  S_7
REMARK    2  A    between atoms: S_7  and  C_11
REMARK    3  A    between atoms: C_11  and  C_12
REMARK    4  A    between atoms: C_13  and  C_14
REMARK    5  A    between atoms: C_14  and  O_16
REMARK                            x       y       z     vdW  Elec       q    Type
REMARK                         _______ _______ _______ _____ _____    ______ ____
ROOT
ATOM      1  C   UNL     1      45.555  33.653  40.454  0.00  0.00    +0.000 C 
ATOM      2  C   UNL     1      45.865  32.393  40.713  0.00  0.00    +0.000 C 
ATOM      3  N   UNL     1      47.240  32.031  40.805  0.00  0.00    +0.000 N 
ATOM      4  C   UNL     1      48.234  31.343  41.557  0.00  0.00    +0.000 C 
ATOM      5  O   UNL     1      48.280  30.393  42.412  0.00  0.00    +0.000 OA
ATOM      6  C   UNL     1      49.273  32.202  40.935  0.00  0.00    +0.000 C 
ATOM      7  H   UNL     1      49.480  33.070  41.582  0.00  0.00    +0.000 HD
ATOM      8  C   UNL     1      48.274  32.394  39.834  0.00  0.00    +0.000 C 
ATOM      9  S   UNL     1      47.993  34.078  39.301  0.00  0.00    +0.000 S 
ATOM     10  C   UNL     1      46.570  34.700  40.282  0.00  0.00    +0.000 C 
ATOM     11  H   UNL     1      46.160  35.598  39.800  0.00  0.00    +0.000 HD
ENDROOT
BRANCH   2  12
ATOM     12  C   UNL     1      44.861  31.322  40.901  0.00  0.00    +0.000 C 
ATOM     13  O   UNL     1      43.619  31.159  40.895  0.00  0.00    +0.000 OA
BRANCH  12  14
ATOM     14  O   UNL     1      45.085  30.015  41.176  0.00  0.00    +0.000 OA
ATOM     15  H   UNL     1      44.836  29.502  42.032  0.00  0.00    +0.000 HD
ENDBRANCH  12  14
ENDBRANCH   2  12
BRANCH   1  16
ATOM     16  C   UNL     1      44.179  34.154  40.317  0.00  0.00    +0.000 C 
BRANCH  16  17
ATOM     17  S   UNL     1      43.807  35.450  41.539  0.00  0.00    +0.000 S 
BRANCH  17  19
ATOM     18  C   UNL     1      44.265  35.733  44.254  0.00  0.00    +0.000 A 
ATOM     19  C   UNL     1      44.427  34.907  43.132  0.00  0.00    +0.000 A 
ATOM     20  C   UNL     1      45.063  33.683  43.276  0.00  0.00    +0.000 A 
ATOM     21  N   UNL     1      45.505  33.342  44.515  0.00  0.00    +0.000 NA
ATOM     22  C   UNL     1      45.341  34.147  45.579  0.00  0.00    +0.000 A 
ATOM     23  N   UNL     1      44.730  35.338  45.476  0.00  0.00    +0.000 NA
ATOM     24  H   UNL     1      43.770  36.680  44.130  0.00  0.00    +0.000 HD
ATOM     25  H   UNL     1      45.203  33.031  42.448  0.00  0.00    +0.000 HD
ATOM     26  H   UNL     1      45.724  33.800  46.541  0.00  0.00    +0.000 HD
ENDBRANCH  17  19
ENDBRANCH  16  17
ENDBRANCH   1  16
TORSDOF 5
