
 OpenBabel03242518273D

 28 30  0  0  1  0  0  0  0  0999 V2000
   47.2180   31.4440   40.2900 C   0  0  0  0  0  0  0  0  0  0  0  0
   46.7070   32.4820   39.6620 C   0  0  0  0  0  0  0  0  0  0  0  0
   45.7410   32.2460   38.6450 N   0  0  0  0  0  0  0  0  0  0  0  0
   44.5250   32.7120   38.0710 C   0  0  0  0  0  0  0  0  0  0  0  0
   43.6940   33.6710   38.1490 O   0  0  0  0  0  0  0  0  0  0  0  0
   44.5050   31.5340   37.1930 C   0  0  0  0  0  3  0  0  0  0  0  0
   43.6650   30.8280   37.2980 H   0  0  0  0  0  0  0  0  0  0  0  0
   45.8460   31.1210   37.6980 C   0  0  2  0  0  3  0  0  0  0  0  0
   45.8290   29.6390   38.7640 S   0  0  0  0  0  0  0  0  0  0  0  0
   46.9500   29.9950   40.1370 C   0  0  0  0  0  3  0  0  0  0  0  0
   47.9090   29.4310   39.9180 H   0  0  0  0  0  0  0  0  0  0  0  0
   47.0730   33.8640   39.9440 C   0  0  0  0  0  0  0  0  0  0  0  0
   48.0340   34.6290   39.6920 O   0  0  0  0  0  0  0  0  0  0  0  0
   46.2910   34.7210   40.6620 O   0  0  0  0  0  0  0  0  0  0  0  0
   46.5750   35.3190   41.4270 H   0  0  0  0  0  0  0  0  0  0  0  0
   48.2240   31.5410   41.3530 C   0  0  0  0  0  2  0  0  0  0  0  0
   47.6060   31.7640   42.6350 O   0  0  0  0  0  0  0  0  0  0  0  0
   47.8900   32.9460   43.3330 C   0  0  0  0  0  0  0  0  0  0  0  0
   48.9190   33.5940   42.9890 O   0  0  0  0  0  0  0  0  0  0  0  0
   46.9650   33.2770   44.3620 C   0  0  0  0  0  0  0  0  0  0  0  0
   46.0770   34.2850   44.0060 C   0  0  0  0  0  0  0  0  0  0  0  0
   45.1210   34.6860   44.9580 C   0  0  0  0  0  0  0  0  0  0  0  0
   45.1230   34.0640   46.1700 N   0  0  0  0  0  0  0  0  0  0  0  0
   46.0140   33.0900   46.4570 C   0  0  0  0  0  0  0  0  0  0  0  0
   46.9320   32.6980   45.5560 N   0  0  0  0  0  0  0  0  0  0  0  0
   46.0500   34.7910   43.0640 H   0  0  0  0  0  0  0  0  0  0  0  0
   44.3980   35.4590   44.7600 H   0  0  0  0  0  0  0  0  0  0  0  0
   45.9470   32.6470   47.4450 H   0  0  0  0  0  0  0  0  0  0  0  0
  1 16  1  0  0  0  0
  2 12  1  0  0  0  0
  2  1  2  0  0  0  0
  3  2  1  0  0  0  0
  4  5  2  0  0  0  0
  4  3  1  0  0  0  0
  6  7  1  0  0  0  0
  6  4  1  0  0  0  0
  8  6  1  6  0  0  0
  8  3  1  0  0  0  0
  8  9  1  0  0  0  0
  9 10  1  0  0  0  0
 10  1  1  0  0  0  0
 11 10  1  0  0  0  0
 12 14  1  0  0  0  0
 13 12  2  0  0  0  0
 14 15  1  0  0  0  0
 16 17  1  0  0  0  0
 17 18  1  0  0  0  0
 18 20  1  0  0  0  0
 19 18  2  0  0  0  0
 20 25  1  0  0  0  0
 21 20  2  0  0  0  0
 21 22  1  0  0  0  0
 22 23  2  0  0  0  0
 23 24  1  0  0  0  0
 24 28  1  0  0  0  0
 25 24  2  0  0  0  0
 26 21  1  0  0  0  0
 27 22  1  0  0  0  0
M  END
>  <minimizedAffinity>
-3.77717066

>  <minimizedRMSD>
2.56973052

$$$$
