
 OpenBabel03242517033D

 40 43  0  0  1  0  0  0  0  0999 V2000
   43.6400   34.1560   40.9100 C   0  0  0  0  0  0  0  0  0  0  0  0
   43.3440   35.2840   40.5510 O   0  0  0  0  0  0  0  0  0  0  0  0
   44.9390   33.6640   41.1320 N   0  0  0  0  0  0  0  0  0  0  0  0
   45.1160   32.6750   41.4900 H   0  0  0  0  0  0  0  0  0  0  0  0
   46.7340   34.8460   42.0820 C   0  0  0  0  0  0  0  0  0  0  0  0
   48.0070   35.4000   42.0770 C   0  0  0  0  0  0  0  0  0  0  0  0
   48.7640   35.2580   40.9230 C   0  0  0  0  0  0  0  0  0  0  0  0
   48.2620   34.5980   39.8400 C   0  0  0  0  0  0  0  0  0  0  0  0
   47.0030   34.0410   39.8220 C   0  0  0  0  0  0  0  0  0  0  0  0
   46.2420   34.1870   40.9960 C   0  0  0  0  0  0  0  0  0  0  0  0
   48.4230   35.9240   42.9150 H   0  0  0  0  0  0  0  0  0  0  0  0
   49.7630   35.6500   40.8120 H   0  0  0  0  0  0  0  0  0  0  0  0
   48.8270   34.4690   38.9230 H   0  0  0  0  0  0  0  0  0  0  0  0
   46.5690   33.5070   38.9820 H   0  0  0  0  0  0  0  0  0  0  0  0
   44.4890   36.1360   44.8270 C   0  0  0  0  0  0  0  0  0  0  0  0
   45.1720   36.0950   43.5850 C   0  0  0  0  0  0  0  0  0  0  0  0
   45.9740   35.0180   43.3220 C   0  0  0  0  0  0  0  0  0  0  0  0
   46.0600   34.0500   44.2810 N   0  0  0  0  0  0  0  0  0  0  0  0
   45.4080   34.0950   45.4590 C   0  0  0  0  0  0  0  0  0  0  0  0
   44.6160   35.1510   45.7310 N   0  0  0  0  0  0  0  0  0  0  0  0
   43.8870   37.0150   44.9440 H   0  0  0  0  0  0  0  0  0  0  0  0
   45.0820   36.8800   42.8440 H   0  0  0  0  0  0  0  0  0  0  0  0
   45.5710   33.2580   46.1220 H   0  0  0  0  0  0  0  0  0  0  0  0
   42.5720   33.2790   41.1160 O   0  0  0  0  0  0  0  0  0  0  0  0
   41.7260   32.9920   40.0170 C   0  0  0  0  0  2  0  0  0  0  0  0
   42.2340   31.7270   39.4330 C   0  0  0  0  0  0  0  0  0  0  0  0
   43.0920   31.7120   38.4580 C   0  0  0  0  0  0  0  0  0  0  0  0
   43.5760   30.4990   37.9050 N   0  0  0  0  0  0  0  0  0  0  0  0
   43.9510   29.7450   36.7600 C   0  0  0  0  0  0  0  0  0  0  0  0
   44.0920   29.9740   35.5110 O   0  0  0  0  0  0  0  0  0  0  0  0
   44.1370   28.5110   37.5600 C   0  0  0  0  0  3  0  0  0  0  0  0
   43.3360   27.7520   37.4200 H   0  0  0  0  0  0  0  0  0  0  0  0
   43.8970   29.3590   38.7810 C   0  0  2  0  0  3  0  0  0  0  0  0
   42.3500   28.9840   39.6540 S   0  0  0  0  0  0  0  0  0  0  0  0
   41.6210   30.5640   40.1150 C   0  0  0  0  0  3  0  0  0  0  0  0
   41.8130   30.6830   41.2200 H   0  0  0  0  0  0  0  0  0  0  0  0
   43.5940   32.9560   37.8950 C   0  0  0  0  0  0  0  0  0  0  0  0
   44.6970   33.1080   37.3420 O   0  0  0  0  0  0  0  0  0  0  0  0
   43.7380   34.2640   37.4830 O   0  0  0  0  0  0  0  0  0  0  0  0
   43.3520   35.0770   37.9480 H   0  0  0  0  0  0  0  0  0  0  0  0
  1 24  1  0  0  0  0
  1  3  1  0  0  0  0
  2  1  2  0  0  0  0
  3  4  1  0  0  0  0
  5 17  1  0  0  0  0
  6  5  1  0  0  0  0
  6 11  1  0  0  0  0
  7  6  2  0  0  0  0
  8  7  1  0  0  0  0
  9  8  2  0  0  0  0
  9 10  1  0  0  0  0
 10  3  1  0  0  0  0
 10  5  2  0  0  0  0
 12  7  1  0  0  0  0
 13  8  1  0  0  0  0
 14  9  1  0  0  0  0
 15 21  1  0  0  0  0
 15 20  1  0  0  0  0
 16 15  2  0  0  0  0
 17 16  1  0  0  0  0
 17 18  2  0  0  0  0
 18 19  1  0  0  0  0
 19 20  2  0  0  0  0
 19 23  1  0  0  0  0
 22 16  1  0  0  0  0
 25 24  1  0  0  0  0
 26 25  1  0  0  0  0
 26 35  1  0  0  0  0
 27 26  2  0  0  0  0
 28 27  1  0  0  0  0
 28 33  1  0  0  0  0
 29 31  1  0  0  0  0
 29 28  1  0  0  0  0
 30 29  2  0  0  0  0
 32 31  1  0  0  0  0
 33 31  1  6  0  0  0
 33 34  1  0  0  0  0
 34 35  1  0  0  0  0
 35 36  1  0  0  0  0
 37 27  1  0  0  0  0
 38 37  2  0  0  0  0
 39 37  1  0  0  0  0
 39 40  1  0  0  0  0
M  END
>  <minimizedAffinity>
-5.82544851

>  <minimizedRMSD>
4.69823647

$$$$
