
     RDKit          3D

 31 33  0  0  0  0  0  0  0  0999 V2000
   44.2654   35.7325   44.2536 C   0  0  0  0  0  0  0  0  0  0  0  0
   44.4266   34.9067   43.1317 C   0  0  0  0  0  0  0  0  0  0  0  0
   45.0634   33.6827   43.2759 C   0  0  0  0  0  0  0  0  0  0  0  0
   45.5046   33.3421   44.5153 N   0  0  0  0  0  0  0  0  0  0  0  0
   45.3409   34.1473   45.5793 C   0  0  0  0  0  0  0  0  0  0  0  0
   44.7297   35.3377   45.4762 N   0  0  0  0  0  0  0  0  0  0  0  0
   43.8074   35.4500   41.5391 S   0  0  0  0  0  0  0  0  0  0  0  0
   43.7698   36.6799   44.1295 H   0  0  0  0  0  0  0  0  0  0  0  0
   45.2034   33.0307   42.4480 H   0  0  0  0  0  0  0  0  0  0  0  0
   45.7241   33.8004   46.5412 H   0  0  0  0  0  0  0  0  0  0  0  0
   44.1790   34.1539   40.3168 C   0  0  0  0  0  0  0  0  0  0  0  0
   45.1685   33.1915   40.8250 C   0  0  0  0  0  0  0  0  0  0  0  0
   44.9430   31.8953   40.9608 C   0  0  0  0  0  0  0  0  0  0  0  0
   43.6591   31.2439   40.6179 C   0  0  0  0  0  0  0  0  0  0  0  0
   42.5268   31.5338   40.1656 O   0  0  0  0  0  0  0  0  0  0  0  0
   43.3373   29.9342   40.7314 O   0  0  0  0  0  0  0  0  0  0  0  0
   45.9924   31.0646   41.4498 N   0  0  0  0  0  0  0  0  0  0  0  0
   46.3601   30.0404   42.3686 C   0  0  0  0  0  0  0  0  0  0  0  0
   45.7798   29.1050   43.0177 O   0  0  0  0  0  0  0  0  0  0  0  0
   47.7705   30.4970   42.2853 C   0  0  1  0  0  0  0  0  0  0  0  0
   47.9828   31.2095   43.0994 H   0  0  0  0  0  0  0  0  0  0  0  0
   47.3722   31.0734   40.9595 C   0  0  2  0  0  0  0  0  0  0  0  0
   47.8600   32.7668   40.6518 S   0  0  0  0  0  0  0  0  0  0  0  0
   46.4484   33.8156   41.1827 C   0  0  1  0  0  0  0  0  0  0  0  0
   46.5564   34.8180   40.7470 H   0  0  0  0  0  0  0  0  0  0  0  0
   44.5349   34.6763   39.3924 H   0  0  0  0  0  0  0  0  0  0  0  0
   43.2298   33.6410   40.1216 H   0  0  0  0  0  0  0  0  0  0  0  0
   42.6379   29.5105   41.3549 H   0  0  0  0  0  0  0  0  0  0  0  0
   48.4234   29.6067   42.2508 H   0  0  0  0  0  0  0  0  0  0  0  0
   47.5552   30.3884   40.1243 H   0  0  0  0  0  0  0  0  0  0  0  0
   46.5592   33.8506   42.3066 H   0  0  0  0  0  0  0  0  0  0  0  0
  1  6  2  0
  2  3  2  0
  2  1  1  0
  3  4  1  0
  4  5  2  0
  6  5  1  0
  7  2  1  0
  1  8  1  0
  3  9  1  0
  5 10  1  0
 11 12  1  0
 12 13  2  0
 13 14  1  0
 14 15  2  0
 14 16  1  0
 13 17  1  0
 17 18  1  0
 18 19  2  0
 18 20  1  0
 20 21  1  1
 20 22  1  0
 22 23  1  0
 23 24  1  0
 24 25  1  6
 24 12  1  0
 22 17  1  0
 11 26  1  0
 11 27  1  0
 16 28  1  0
 20 29  1  0
 22 30  1  6
 24 31  1  0
  7 11  1  0
M  ISO  5   8  14   9  14  10  14  21  15  25  15
M  END
>  <DihAtoms>  (1) 
1,6,10,11

>  <DihDeg>  (1) 
-179.99874847358186

$$$$
