REMARK  Name = 
REMARK  7 active torsions:
REMARK  status: ('A' for Active; 'I' for Inactive)
REMARK    1  A    between atoms: C_1  and  C_9
REMARK    2  A    between atoms: C_6  and  N_15
REMARK    3  A    between atoms: C_13  and  O_16
REMARK    4  A    between atoms: O_16  and  C_25
REMARK    5  A    between atoms: C_25  and  C_26
REMARK    6  A    between atoms: C_27  and  C_28
REMARK    7  A    between atoms: C_28  and  O_30
REMARK                            x       y       z     vdW  Elec       q    Type
REMARK                         _______ _______ _______ _____ _____    ______ ____
ROOT
ATOM      1  C   UNL     1      43.541  33.927  40.810  0.00  0.00    +0.000 C 
ATOM      2  O   UNL     1      43.221  34.972  40.267  0.00  0.00    +0.000 OA
ATOM      3  N   UNL     1      44.848  33.518  41.130  0.00  0.00    +0.000 N 
ATOM      4  H   UNL     1      45.045  32.606  41.647  0.00  0.00    +0.000 HD
ENDROOT
BRANCH   3  10
ATOM      5  C   UNL     1      46.657  34.759  41.973  0.00  0.00    +0.000 A 
ATOM      6  C   UNL     1      47.921  35.328  41.904  0.00  0.00    +0.000 A 
ATOM      7  C   UNL     1      48.642  35.150  40.733  0.00  0.00    +0.000 A 
ATOM      8  C   UNL     1      48.115  34.440  39.694  0.00  0.00    +0.000 A 
ATOM      9  C   UNL     1      46.864  33.867  39.739  0.00  0.00    +0.000 A 
ATOM     10  C   UNL     1      46.139  34.051  40.930  0.00  0.00    +0.000 A 
ATOM     11  H   UNL     1      48.356  35.891  42.707  0.00  0.00    +0.000 HD
ATOM     12  H   UNL     1      49.632  35.549  40.573  0.00  0.00    +0.000 HD
ATOM     13  H   UNL     1      48.652  34.282  38.764  0.00  0.00    +0.000 HD
ATOM     14  H   UNL     1      46.410  33.295  38.935  0.00  0.00    +0.000 HD
BRANCH   5  17
ATOM     15  C   UNL     1      44.514  36.149  44.750  0.00  0.00    +0.000 A 
ATOM     16  C   UNL     1      45.161  36.069  43.491  0.00  0.00    +0.000 A 
ATOM     17  C   UNL     1      45.934  34.971  43.229  0.00  0.00    +0.000 A 
ATOM     18  N   UNL     1      46.028  34.021  44.205  0.00  0.00    +0.000 NA
ATOM     19  C   UNL     1      45.410  34.103  45.399  0.00  0.00    +0.000 A 
ATOM     20  N   UNL     1      44.646  35.180  45.671  0.00  0.00    +0.000 NA
ATOM     21  H   UNL     1      43.932  37.042  44.866  0.00  0.00    +0.000 HD
ATOM     22  H   UNL     1      45.066  36.841  42.737  0.00  0.00    +0.000 HD
ATOM     23  H   UNL     1      45.575  33.276  46.075  0.00  0.00    +0.000 HD
ENDBRANCH   5  17
ENDBRANCH   3  10
BRANCH   1  24
ATOM     24  O   UNL     1      42.494  33.063  41.140  0.00  0.00    +0.000 OA
BRANCH  24  25
ATOM     25  C   UNL     1      41.174  33.466  40.821  0.00  0.00    +0.000 C 
BRANCH  25  26
ATOM     26  C   UNL     1      40.291  32.367  41.282  0.00  0.00    +0.000 C 
ATOM     27  C   UNL     1      39.518  31.715  40.466  0.00  0.00    +0.000 C 
ATOM     28  N   UNL     1      38.678  30.663  40.911  0.00  0.00    +0.000 N 
ATOM     29  C   UNL     1      37.423  29.998  40.855  0.00  0.00    +0.000 C 
ATOM     30  O   UNL     1      36.361  30.090  40.150  0.00  0.00    +0.000 OA
ATOM     31  C   UNL     1      37.786  29.093  41.972  0.00  0.00    +0.000 C 
ATOM     32  H   UNL     1      37.275  29.327  42.933  0.00  0.00    +0.000 HD
ATOM     33  C   UNL     1      39.164  29.697  41.911  0.00  0.00    +0.000 C 
ATOM     34  S   UNL     1      39.603  30.698  43.361  0.00  0.00    +0.000 S 
ATOM     35  C   UNL     1      40.440  32.165  42.741  0.00  0.00    +0.000 C 
ATOM     36  H   UNL     1      41.538  32.006  42.949  0.00  0.00    +0.000 HD
BRANCH  27  37
ATOM     37  C   UNL     1      39.490  32.046  39.050  0.00  0.00    +0.000 C 
ATOM     38  O   UNL     1      38.788  31.488  38.188  0.00  0.00    +0.000 OA
BRANCH  37  39
ATOM     39  O   UNL     1      39.718  32.615  37.815  0.00  0.00    +0.000 OA
ATOM     40  H   UNL     1      40.599  33.003  37.495  0.00  0.00    +0.000 HD
ENDBRANCH  37  39
ENDBRANCH  27  37
ENDBRANCH  25  26
ENDBRANCH  24  25
ENDBRANCH   1  24
TORSDOF 7
