
     RDKit          3D

 45 48  0  0  0  0  0  0  0  0999 V2000
   44.4728   35.7490   45.0102 C   0  0  0  0  0  0  0  0  0  0  0  0
   45.1235   35.7124   43.7468 C   0  0  0  0  0  0  0  0  0  0  0  0
   46.0203   34.7186   43.4892 C   0  0  0  0  0  0  0  0  0  0  0  0
   46.2308   33.8166   44.4807 N   0  0  0  0  0  0  0  0  0  0  0  0
   45.6241   33.8504   45.6589 C   0  0  0  0  0  0  0  0  0  0  0  0
   44.7473   34.8103   45.9289 N   0  0  0  0  0  0  0  0  0  0  0  0
   45.9508   32.8336   46.5974 N   0  0  0  0  0  0  0  0  0  0  0  0
   45.1599   32.5604   47.8082 C   0  0  0  0  0  0  0  0  0  0  0  0
   46.2583   32.2466   48.8123 C   0  0  0  0  0  0  0  0  0  0  0  0
   47.5284   32.0727   48.0384 C   0  0  0  0  0  0  0  0  0  0  0  0
   47.0265   31.8926   46.6238 C   0  0  1  0  0  0  0  0  0  0  0  0
   44.7631   36.7612   42.8312 N   0  0  0  0  0  0  0  0  0  0  0  0
   46.4761   30.1994   46.3850 S   0  0  0  0  0  0  0  0  0  0  0  0
   43.7476   36.4900   45.3178 H   0  0  0  0  0  0  0  0  0  0  0  0
   46.5046   34.7065   42.5265 H   0  0  0  0  0  0  0  0  0  0  0  0
   44.5260   31.6744   47.6178 H   0  0  0  0  0  0  0  0  0  0  0  0
   44.5813   33.4592   48.0726 H   0  0  0  0  0  0  0  0  0  0  0  0
   46.0516   31.2891   49.3481 H   0  0  0  0  0  0  0  0  0  0  0  0
   46.3338   33.1050   49.5153 H   0  0  0  0  0  0  0  0  0  0  0  0
   48.1599   32.9783   48.1271 H   0  0  0  0  0  0  0  0  0  0  0  0
   48.1305   31.2057   48.3932 H   0  0  0  0  0  0  0  0  0  0  0  0
   47.8415   32.1693   45.9194 H   0  0  0  0  0  0  0  0  0  0  0  0
   43.7150   36.8650   42.7094 H   0  0  0  0  0  0  0  0  0  0  0  0
   45.4257   37.3928   42.3065 H   0  0  0  0  0  0  0  0  0  0  0  0
   47.8780   29.0550   46.4383 C   0  0  0  0  0  0  0  0  0  0  0  0
   47.4904   27.7838   47.0869 C   0  0  0  0  0  0  0  0  0  0  0  0
   47.5506   26.6091   46.5025 C   0  0  0  0  0  0  0  0  0  0  0  0
   48.0171   26.4083   45.1112 C   0  0  0  0  0  0  0  0  0  0  0  0
   48.4352   27.1511   44.1962 O   0  0  0  0  0  0  0  0  0  0  0  0
   48.0756   25.1774   44.5028 O   0  0  0  0  0  0  0  0  0  0  0  0
   47.1754   25.4246   47.1675 N   0  0  0  0  0  0  0  0  0  0  0  0
   46.8663   24.0162   47.1442 C   0  0  0  0  0  0  0  0  0  0  0  0
   46.2042   23.3486   46.3000 O   0  0  0  0  0  0  0  0  0  0  0  0
   47.6589   23.9855   48.4354 C   0  0  1  0  0  0  0  0  0  0  0  0
   47.4248   23.1543   49.0992 H   0  0  0  0  0  0  0  0  0  0  0  0
   46.9106   25.2642   48.5853 C   0  0  1  0  0  0  0  0  0  0  0  0
   47.6639   26.6227   49.4619 S   0  0  0  0  0  0  0  0  0  0  0  0
   47.0309   28.0328   48.4551 C   0  0  1  0  0  0  0  0  0  0  0  0
   47.3323   28.9729   48.9001 H   0  0  0  0  0  0  0  0  0  0  0  0
   48.3266   28.9676   45.4463 H   0  0  0  0  0  0  0  0  0  0  0  0
   48.6250   29.5540   47.1361 H   0  0  0  0  0  0  0  0  0  0  0  0
   47.8236   24.9722   43.5507 H   0  0  0  0  0  0  0  0  0  0  0  0
   48.7576   24.1593   48.2456 H   0  0  0  0  0  0  0  0  0  0  0  0
   45.8395   25.0880   48.8300 H   0  0  0  0  0  0  0  0  0  0  0  0
   45.9039   27.9727   48.4204 H   0  0  0  0  0  0  0  0  0  0  0  0
  1  6  2  0
  2  1  1  0
  3  2  2  0
  3  4  1  0
  4  5  2  0
  5  6  1  0
  5  7  1  0
  7 11  1  0
  7  8  1  0
  8  9  1  0
 10  9  1  0
 11 10  1  0
 12  2  1  0
 13 11  1  0
  1 14  1  0
  3 15  1  0
  8 16  1  0
  8 17  1  0
  9 18  1  0
  9 19  1  0
 10 20  1  0
 10 21  1  0
 11 22  1  6
 12 23  1  0
 12 24  1  0
 25 26  1  0
 26 27  2  0
 27 28  1  0
 28 29  2  0
 28 30  1  0
 27 31  1  0
 31 32  1  0
 32 33  2  0
 32 34  1  0
 34 35  1  1
 34 36  1  0
 36 37  1  0
 37 38  1  0
 38 39  1  1
 38 26  1  0
 36 31  1  0
 25 40  1  0
 25 41  1  0
 30 42  1  0
 34 43  1  0
 36 44  1  6
 38 45  1  0
 13 25  1  0
M  ISO  8  14  14  15  14  16  13  17  13  18  13  19  13  20  13  21  13
M  ISO  3  22  13  35  15  39  15
M  END
>  <DihAtoms>  (1) 
10,12,24,25

>  <DihDeg>  (1) 
-66.0779662816914

$$$$
