
     RDKit          3D

 45 48  0  0  0  0  0  0  0  0999 V2000
   44.4728   35.7490   45.0102 C   0  0  0  0  0  0  0  0  0  0  0  0
   45.1235   35.7124   43.7468 C   0  0  0  0  0  0  0  0  0  0  0  0
   46.0203   34.7186   43.4892 C   0  0  0  0  0  0  0  0  0  0  0  0
   46.2308   33.8166   44.4807 N   0  0  0  0  0  0  0  0  0  0  0  0
   45.6241   33.8504   45.6589 C   0  0  0  0  0  0  0  0  0  0  0  0
   44.7473   34.8103   45.9289 N   0  0  0  0  0  0  0  0  0  0  0  0
   45.9508   32.8336   46.5974 N   0  0  0  0  0  0  0  0  0  0  0  0
   45.1599   32.5604   47.8082 C   0  0  0  0  0  0  0  0  0  0  0  0
   46.2583   32.2466   48.8123 C   0  0  0  0  0  0  0  0  0  0  0  0
   47.5284   32.0727   48.0384 C   0  0  0  0  0  0  0  0  0  0  0  0
   47.0265   31.8926   46.6238 C   0  0  1  0  0  0  0  0  0  0  0  0
   44.7631   36.7612   42.8312 N   0  0  0  0  0  0  0  0  0  0  0  0
   46.4761   30.1994   46.3850 S   0  0  0  0  0  0  0  0  0  0  0  0
   43.7476   36.4900   45.3178 H   0  0  0  0  0  0  0  0  0  0  0  0
   46.5046   34.7065   42.5265 H   0  0  0  0  0  0  0  0  0  0  0  0
   44.5260   31.6744   47.6178 H   0  0  0  0  0  0  0  0  0  0  0  0
   44.5813   33.4592   48.0726 H   0  0  0  0  0  0  0  0  0  0  0  0
   46.0516   31.2891   49.3481 H   0  0  0  0  0  0  0  0  0  0  0  0
   46.3338   33.1050   49.5153 H   0  0  0  0  0  0  0  0  0  0  0  0
   48.1599   32.9783   48.1271 H   0  0  0  0  0  0  0  0  0  0  0  0
   48.1305   31.2057   48.3932 H   0  0  0  0  0  0  0  0  0  0  0  0
   47.8415   32.1693   45.9194 H   0  0  0  0  0  0  0  0  0  0  0  0
   43.7150   36.8650   42.7094 H   0  0  0  0  0  0  0  0  0  0  0  0
   45.4257   37.3928   42.3065 H   0  0  0  0  0  0  0  0  0  0  0  0
   47.8780   29.0550   46.4383 C   0  0  0  0  0  0  0  0  0  0  0  0
   48.8475   29.4644   47.4773 C   0  0  0  0  0  0  0  0  0  0  0  0
   49.1941   28.7154   48.4990 C   0  0  0  0  0  0  0  0  0  0  0  0
   48.6541   27.3577   48.7410 C   0  0  0  0  0  0  0  0  0  0  0  0
   47.8400   26.6065   48.1605 O   0  0  0  0  0  0  0  0  0  0  0  0
   49.0175   26.5787   49.8132 O   0  0  0  0  0  0  0  0  0  0  0  0
   50.1292   29.1499   49.4595 N   0  0  0  0  0  0  0  0  0  0  0  0
   50.7888   28.9883   50.7318 C   0  0  0  0  0  0  0  0  0  0  0  0
   50.3131   28.6405   51.8496 O   0  0  0  0  0  0  0  0  0  0  0  0
   52.0253   29.4055   49.9616 C   0  0  1  0  0  0  0  0  0  0  0  0
   52.8221   29.8344   50.5679 H   0  0  0  0  0  0  0  0  0  0  0  0
   50.9986   30.3086   49.3720 C   0  0  1  0  0  0  0  0  0  0  0  0
   51.1341   30.7898   47.6598 S   0  0  0  0  0  0  0  0  0  0  0  0
   49.3479   30.8126   47.1999 C   0  0  1  0  0  0  0  0  0  0  0  0
   49.2293   31.1703   46.1846 H   0  0  0  0  0  0  0  0  0  0  0  0
   47.5177   28.0258   46.5003 H   0  0  0  0  0  0  0  0  0  0  0  0
   48.4013   29.2009   45.4389 H   0  0  0  0  0  0  0  0  0  0  0  0
   48.4046   26.0012   50.3635 H   0  0  0  0  0  0  0  0  0  0  0  0
   52.3467   28.6022   49.2371 H   0  0  0  0  0  0  0  0  0  0  0  0
   50.7273   31.1332   50.0680 H   0  0  0  0  0  0  0  0  0  0  0  0
   48.8022   31.4993   47.9110 H   0  0  0  0  0  0  0  0  0  0  0  0
  1  6  2  0
  2  1  1  0
  3  2  2  0
  3  4  1  0
  4  5  2  0
  5  6  1  0
  5  7  1  0
  7 11  1  0
  7  8  1  0
  8  9  1  0
 10  9  1  0
 11 10  1  0
 12  2  1  0
 13 11  1  0
  1 14  1  0
  3 15  1  0
  8 16  1  0
  8 17  1  0
  9 18  1  0
  9 19  1  0
 10 20  1  0
 10 21  1  0
 11 22  1  6
 12 23  1  0
 12 24  1  0
 25 26  1  0
 26 27  2  0
 27 28  1  0
 28 29  2  0
 28 30  1  0
 27 31  1  0
 31 32  1  0
 32 33  2  0
 32 34  1  0
 34 35  1  1
 34 36  1  0
 36 37  1  0
 37 38  1  0
 38 39  1  6
 38 26  1  0
 36 31  1  0
 25 40  1  0
 25 41  1  0
 30 42  1  0
 34 43  1  0
 36 44  1  1
 38 45  1  0
 13 25  1  0
M  ISO  8  14  14  15  14  16  13  17  13  18  13  19  13  20  13  21  13
M  ISO  3  22  13  35  15  39  15
M  END
>  <DihAtoms>  (1) 
10,12,24,25

>  <DihDeg>  (1) 
-66.0779662816914

$$$$
