
 OpenBabel03252506343D

 40 44  0  0  1  0  0  0  0  0999 V2000
   44.4260   35.8860   44.9990 C   0  0  0  0  0  0  0  0  0  0  0  0
   45.0850   35.9030   43.7400 C   0  0  0  0  0  0  0  0  0  0  0  0
   45.9990   34.9340   43.4540 C   0  0  0  0  0  0  0  0  0  0  0  0
   46.2170   34.0010   44.4160 N   0  0  0  0  0  0  0  0  0  0  0  0
   45.6020   33.9840   45.5900 C   0  0  0  0  0  0  0  0  0  0  0  0
   44.7080   34.9200   45.8870 N   0  0  0  0  0  0  0  0  0  0  0  0
   45.9380   32.9410   46.4940 N   0  0  0  0  0  0  0  0  0  0  0  0
   45.1440   32.6130   47.6890 C   0  0  0  0  0  0  0  0  0  0  0  0
   46.2400   32.2820   48.6900 C   0  0  0  0  0  0  0  0  0  0  0  0
   47.5170   32.1540   47.9190 C   0  0  0  0  0  0  0  0  0  0  0  0
   47.0280   32.0160   46.4960 C   0  0  1  0  0  0  0  0  0  0  0  0
   43.6870   36.6050   45.3270 H   0  0  0  0  0  0  0  0  0  0  0  0
   46.4900   34.9620   42.4950 H   0  0  0  0  0  0  0  0  0  0  0  0
   44.5250   31.7240   47.4640 H   0  0  0  0  0  0  0  0  0  0  0  0
   44.5490   33.4930   47.9810 H   0  0  0  0  0  0  0  0  0  0  0  0
   46.0450   31.3030   49.1910 H   0  0  0  0  0  0  0  0  0  0  0  0
   46.2980   33.1160   49.4230 H   0  0  0  0  0  0  0  0  0  0  0  0
   48.1350   33.0650   48.0440 H   0  0  0  0  0  0  0  0  0  0  0  0
   48.1300   31.2850   48.2480 H   0  0  0  0  0  0  0  0  0  0  0  0
   47.8440   32.3290   45.8070 H   0  0  0  0  0  0  0  0  0  0  0  0
   44.7140   36.9780   42.8590 N   0  0  0  0  0  0  0  0  0  0  0  0
   43.6660   37.0700   42.7330 H   0  0  0  0  0  0  0  0  0  0  0  0
   45.3710   37.6380   42.3610 H   0  0  0  0  0  0  0  0  0  0  0  0
   46.5050   30.3230   46.1950 S   0  0  0  0  0  0  0  0  0  0  0  0
   47.0740   29.7550   44.5730 C   0  0  0  0  0  2  0  0  0  0  0  0
   46.2740   30.3720   43.4930 C   0  0  0  0  0  0  0  0  0  0  0  0
   46.7690   31.1530   42.5620 C   0  0  0  0  0  0  0  0  0  0  0  0
   45.9650   31.7120   41.5490 N   0  0  0  0  0  0  0  0  0  0  0  0
   45.7830   32.6350   40.4560 C   0  0  1  0  0  0  0  0  0  0  0  0
   46.1690   33.8320   40.3380 O   0  0  0  0  0  1  0  0  0  0  0  0
   45.0470   31.4780   39.8130 C   0  0  0  0  0  3  0  0  0  0  0  0
   44.3240   31.7600   39.0480 H   0  0  0  0  0  0  0  0  0  0  0  0
   44.5940   31.3580   41.2260 C   0  0  1  0  0  0  0  0  0  0  0  0
   44.2500   29.7440   41.9030 S   0  0  0  0  0  0  0  0  0  0  0  0
   44.8660   29.9890   43.6240 C   0  0  0  0  0  3  0  0  0  0  0  0
   44.6600   29.1110   44.2220 H   0  0  0  0  0  0  0  0  0  0  0  0
   48.2030   31.5180   42.4750 C   0  0  0  0  0  0  0  0  0  0  0  0
   49.2250   30.9990   41.9740 O   0  0  0  0  0  0  0  0  0  0  0  0
   48.7250   32.6700   43.0150 O   0  0  0  0  0  0  0  0  0  0  0  0
   49.6040   32.7540   43.4970 H   0  0  0  0  0  0  0  0  0  0  0  0
  1 12  1  0  0  0  0
  1  6  1  0  0  0  0
  2  1  2  0  0  0  0
  3  2  1  0  0  0  0
  3  4  2  0  0  0  0
  4  5  1  0  0  0  0
  5  6  2  0  0  0  0
  5  7  1  0  0  0  0
  7 11  1  0  0  0  0
  7  8  1  0  0  0  0
  8 15  1  0  0  0  0
  8  9  1  0  0  0  0
  9 16  1  0  0  0  0
  9 17  1  0  0  0  0
 10 18  1  0  0  0  0
 10 19  1  0  0  0  0
 10  9  1  0  0  0  0
 11 20  1  6  0  0  0
 11 10  1  0  0  0  0
 13  3  1  0  0  0  0
 14  8  1  0  0  0  0
 21  2  1  0  0  0  0
 22 21  1  0  0  0  0
 23 21  1  0  0  0  0
 24 11  1  0  0  0  0
 25 24  1  0  0  0  0
 26 35  1  0  0  0  0
 26 25  1  0  0  0  0
 27 26  2  0  0  0  0
 28 27  1  0  0  0  0
 29 30  1  6  0  0  0
 29 33  1  0  0  0  0
 29 28  1  0  0  0  0
 31 29  1  0  0  0  0
 32 31  1  0  0  0  0
 33 31  1  6  0  0  0
 33 28  1  0  0  0  0
 33 34  1  0  0  0  0
 34 35  1  0  0  0  0
 35 36  1  0  0  0  0
 37 27  1  0  0  0  0
 37 39  1  0  0  0  0
 38 37  2  0  0  0  0
 39 40  1  0  0  0  0
M  END
>  <minimizedAffinity>
-5.16033554

>  <minimizedRMSD>
3.92358208

$$$$
