
 OpenBabel03252506333D

 40 44  0  0  1  0  0  0  0  0999 V2000
   44.4450   35.7240   44.9750 C   0  0  0  0  0  0  0  0  0  0  0  0
   45.1310   35.6910   43.7310 C   0  0  0  0  0  0  0  0  0  0  0  0
   46.0650   34.7230   43.5110 C   0  0  0  0  0  0  0  0  0  0  0  0
   46.2760   33.8410   44.5210 N   0  0  0  0  0  0  0  0  0  0  0  0
   45.6360   33.8710   45.6820 C   0  0  0  0  0  0  0  0  0  0  0  0
   44.7230   34.8060   45.9140 N   0  0  0  0  0  0  0  0  0  0  0  0
   45.9680   32.8780   46.6430 N   0  0  0  0  0  0  0  0  0  0  0  0
   45.1530   32.5960   47.8350 C   0  0  0  0  0  0  0  0  0  0  0  0
   46.2320   32.3300   48.8730 C   0  0  0  0  0  0  0  0  0  0  0  0
   47.5280   32.1860   48.1370 C   0  0  0  0  0  0  0  0  0  0  0  0
   47.0710   31.9720   46.7120 C   0  0  1  0  0  0  0  0  0  0  0  0
   43.6900   36.4460   45.2530 H   0  0  0  0  0  0  0  0  0  0  0  0
   46.5770   34.7120   42.5620 H   0  0  0  0  0  0  0  0  0  0  0  0
   44.5520   31.6880   47.6410 H   0  0  0  0  0  0  0  0  0  0  0  0
   44.5400   33.4790   48.0720 H   0  0  0  0  0  0  0  0  0  0  0  0
   46.0410   31.3740   49.4170 H   0  0  0  0  0  0  0  0  0  0  0  0
   46.2620   33.2000   49.5660 H   0  0  0  0  0  0  0  0  0  0  0  0
   48.1290   33.1110   48.2300 H   0  0  0  0  0  0  0  0  0  0  0  0
   48.1460   31.3430   48.5200 H   0  0  0  0  0  0  0  0  0  0  0  0
   47.8970   32.2640   46.0260 H   0  0  0  0  0  0  0  0  0  0  0  0
   44.7640   36.7160   42.7910 N   0  0  0  0  0  0  0  0  0  0  0  0
   43.7170   36.7850   42.6390 H   0  0  0  0  0  0  0  0  0  0  0  0
   45.4220   37.3610   42.2750 H   0  0  0  0  0  0  0  0  0  0  0  0
   46.5800   30.2580   46.4820 S   0  0  0  0  0  0  0  0  0  0  0  0
   47.6910   29.1460   47.3810 C   0  0  0  0  0  2  0  0  0  0  0  0
   49.0370   29.1480   46.7710 C   0  0  0  0  0  0  0  0  0  0  0  0
   50.1520   29.3310   47.4430 C   0  0  0  0  0  0  0  0  0  0  0  0
   51.4130   29.3160   46.8150 N   0  0  0  0  0  0  0  0  0  0  0  0
   52.8340   29.5570   46.8490 C   0  0  1  0  0  0  0  0  0  0  0  0
   53.4790   30.5160   47.3610 O   0  0  0  0  0  1  0  0  0  0  0  0
   52.9100   28.2530   46.0790 C   0  0  0  0  0  3  0  0  0  0  0  0
   53.8100   28.1260   45.4780 H   0  0  0  0  0  0  0  0  0  0  0  0
   51.7110   28.8850   45.4620 C   0  0  1  0  0  0  0  0  0  0  0  0
   50.3750   27.8530   44.8860 S   0  0  0  0  0  0  0  0  0  0  0  0
   48.9400   28.9240   45.3270 C   0  0  0  0  0  3  0  0  0  0  0  0
   48.0200   28.4800   44.9700 H   0  0  0  0  0  0  0  0  0  0  0  0
   50.1990   29.5600   48.9050 C   0  0  0  0  0  0  0  0  0  0  0  0
   49.3590   29.8250   49.7930 O   0  0  0  0  0  0  0  0  0  0  0  0
   51.3570   29.5100   49.6420 O   0  0  0  0  0  0  0  0  0  0  0  0
   51.6130   30.1320   50.3900 H   0  0  0  0  0  0  0  0  0  0  0  0
  1 12  1  0  0  0  0
  1  6  1  0  0  0  0
  2  1  2  0  0  0  0
  3  2  1  0  0  0  0
  3  4  2  0  0  0  0
  4  5  1  0  0  0  0
  5  6  2  0  0  0  0
  5  7  1  0  0  0  0
  7 11  1  0  0  0  0
  7  8  1  0  0  0  0
  8 15  1  0  0  0  0
  8  9  1  0  0  0  0
  9 16  1  0  0  0  0
  9 17  1  0  0  0  0
 10 18  1  0  0  0  0
 10 19  1  0  0  0  0
 10  9  1  0  0  0  0
 11 20  1  6  0  0  0
 11 10  1  0  0  0  0
 13  3  1  0  0  0  0
 14  8  1  0  0  0  0
 21  2  1  0  0  0  0
 22 21  1  0  0  0  0
 23 21  1  0  0  0  0
 24 11  1  0  0  0  0
 24 25  1  0  0  0  0
 26 25  1  0  0  0  0
 26 27  2  0  0  0  0
 27 37  1  0  0  0  0
 28 29  1  0  0  0  0
 28 27  1  0  0  0  0
 29 30  1  1  0  0  0
 31 29  1  0  0  0  0
 32 31  1  0  0  0  0
 33 34  1  6  0  0  0
 33 31  1  0  0  0  0
 33 28  1  0  0  0  0
 33 29  1  0  0  0  0
 34 35  1  0  0  0  0
 35 26  1  0  0  0  0
 36 35  1  0  0  0  0
 37 39  1  0  0  0  0
 37 38  2  0  0  0  0
 39 40  1  0  0  0  0
M  END
>  <minimizedAffinity>
-5.34926987

>  <minimizedRMSD>
2.23860121

$$$$
