
 OpenBabel03252504223D

 39 43  0  0  1  0  0  0  0  0999 V2000
   47.3920   33.5120   39.2220 C   0  0  0  0  0  0  0  0  0  0  0  0
   48.6500   32.9630   39.4650 C   0  0  0  0  0  0  0  0  0  0  0  0
   49.1500   32.9710   40.7830 C   0  0  0  0  0  0  0  0  0  0  0  0
   48.3460   33.5280   41.7440 N   0  0  0  0  0  0  0  0  0  0  0  0
   47.1340   34.0460   41.4590 C   0  0  0  0  0  0  0  0  0  0  0  0
   46.6580   34.0410   40.2130 N   0  0  0  0  0  0  0  0  0  0  0  0
   46.3720   34.6030   42.5300 N   0  0  0  0  0  0  0  0  0  0  0  0
   45.6890   35.7680   42.5100 C   0  0  0  0  0  0  0  0  0  0  0  0
   45.0980   35.9420   43.7200 N   0  0  0  0  0  0  0  0  0  0  0  0
   45.4250   34.8880   44.4570 C   0  0  0  0  0  0  0  0  0  0  0  0
   45.1380   34.4930   45.7490 C   0  0  0  0  0  0  0  0  0  0  0  0
   45.5980   33.3580   46.2760 N   0  0  0  0  0  0  0  0  0  0  0  0
   46.3780   32.5220   45.5720 C   0  0  0  0  0  0  0  0  0  0  0  0
   46.6650   32.8910   44.3180 N   0  0  0  0  0  0  0  0  0  0  0  0
   46.2280   34.0200   43.7420 C   0  0  0  0  0  0  0  0  0  0  0  0
   49.2640   32.5280   38.6680 H   0  0  0  0  0  0  0  0  0  0  0  0
   50.1140   32.5580   41.0070 H   0  0  0  0  0  0  0  0  0  0  0  0
   45.6350   36.4460   41.6470 H   0  0  0  0  0  0  0  0  0  0  0  0
   46.7430   31.6050   46.0140 H   0  0  0  0  0  0  0  0  0  0  0  0
   44.3280   35.2750   46.6090 N   0  0  0  0  0  0  0  0  0  0  0  0
   43.3240   35.5480   46.4190 H   0  0  0  0  0  0  0  0  0  0  0  0
   44.6610   35.6520   47.5160 H   0  0  0  0  0  0  0  0  0  0  0  0
   46.8460   33.4510   37.4980 S   0  0  0  0  0  0  0  0  0  0  0  0
   46.7530   31.7320   36.9350 C   0  0  0  0  0  0  0  0  0  0  0  0
   47.6960   31.5020   35.8280 C   0  0  0  0  0  0  0  0  0  0  0  0
   47.3890   31.6860   34.5830 C   0  0  0  0  0  0  0  0  0  0  0  0
   48.3070   31.4620   33.5330 N   0  0  0  0  0  0  0  0  0  0  0  0
   48.5890   31.0120   32.2180 C   0  0  0  0  0  0  0  0  0  0  0  0
   47.8740   30.6840   31.2120 O   0  0  0  0  0  0  0  0  0  0  0  0
   50.0570   31.0590   32.4280 C   0  0  0  0  0  0  0  0  0  0  0  0
   50.5270   31.6370   31.6130 H   0  0  0  0  0  0  0  0  0  0  0  0
   49.7110   31.7930   33.6830 C   0  0  2  0  0  0  0  0  0  0  0  0
   50.2810   30.8410   35.1390 S   0  0  0  0  0  0  0  0  0  0  0  0
   48.9770   31.0500   36.3590 C   0  0  0  0  0  0  0  0  0  0  0  0
   49.3500   31.8250   37.0910 H   0  0  0  0  0  0  0  0  0  0  0  0
   46.0480   32.1440   34.2370 C   0  0  0  0  0  0  0  0  0  0  0  0
   45.0870   31.3810   33.9100 O   0  0  0  0  0  0  0  0  0  0  0  0
   44.8850   32.8280   33.9590 O   0  0  0  0  0  0  0  0  0  0  0  0
   44.8130   33.8240   33.7670 H   0  0  0  0  0  0  0  0  0  0  0  0
  1  2  2  0  0  0  0
  1  6  1  0  0  0  0
  2  3  1  0  0  0  0
  3 17  1  0  0  0  0
  3  4  2  0  0  0  0
  5  4  1  0  0  0  0
  5  7  1  0  0  0  0
  6  5  2  0  0  0  0
  7 15  1  0  0  0  0
  8  7  1  0  0  0  0
  8  9  2  0  0  0  0
  9 10  1  0  0  0  0
 10 11  1  0  0  0  0
 11 12  2  0  0  0  0
 11 20  1  0  0  0  0
 13 19  1  0  0  0  0
 13 12  1  0  0  0  0
 14 13  2  0  0  0  0
 15 14  1  0  0  0  0
 15 10  2  0  0  0  0
 16  2  1  0  0  0  0
 18  8  1  0  0  0  0
 20 22  1  0  0  0  0
 21 20  1  0  0  0  0
 23  1  1  0  0  0  0
 24 23  1  0  0  0  0
 25 34  1  0  0  0  0
 25 24  1  0  0  0  0
 26 25  2  0  0  0  0
 27 32  1  0  0  0  0
 27 26  1  0  0  0  0
 28 30  1  0  0  0  0
 28 27  1  0  0  0  0
 29 28  2  0  0  0  0
 31 30  1  0  0  0  0
 32 30  1  6  0  0  0
 32 33  1  0  0  0  0
 33 34  1  0  0  0  0
 34 35  1  0  0  0  0
 36 26  1  0  0  0  0
 37 36  2  0  0  0  0
 38 36  1  0  0  0  0
 39 38  1  0  0  0  0
M  END
>  <minimizedAffinity>
-7.48040342

>  <minimizedRMSD>
2.65627742

$$$$
