
     RDKit          3D

 45 48  0  0  0  0  0  0  0  0999 V2000
   44.4728   35.7490   45.0102 C   0  0  0  0  0  0  0  0  0  0  0  0
   45.1235   35.7124   43.7468 C   0  0  0  0  0  0  0  0  0  0  0  0
   46.0203   34.7186   43.4892 C   0  0  0  0  0  0  0  0  0  0  0  0
   46.2308   33.8166   44.4807 N   0  0  0  0  0  0  0  0  0  0  0  0
   45.6241   33.8504   45.6589 C   0  0  0  0  0  0  0  0  0  0  0  0
   44.7473   34.8103   45.9289 N   0  0  0  0  0  0  0  0  0  0  0  0
   45.9508   32.8336   46.5974 N   0  0  0  0  0  0  0  0  0  0  0  0
   45.1599   32.5604   47.8082 C   0  0  0  0  0  0  0  0  0  0  0  0
   46.2583   32.2466   48.8123 C   0  0  0  0  0  0  0  0  0  0  0  0
   47.5284   32.0727   48.0384 C   0  0  0  0  0  0  0  0  0  0  0  0
   47.0265   31.8926   46.6238 C   0  0  1  0  0  0  0  0  0  0  0  0
   44.7631   36.7612   42.8312 N   0  0  0  0  0  0  0  0  0  0  0  0
   46.4761   30.1994   46.3850 S   0  0  0  0  0  0  0  0  0  0  0  0
   43.7476   36.4900   45.3178 H   0  0  0  0  0  0  0  0  0  0  0  0
   46.5046   34.7065   42.5265 H   0  0  0  0  0  0  0  0  0  0  0  0
   44.5260   31.6744   47.6178 H   0  0  0  0  0  0  0  0  0  0  0  0
   44.5813   33.4592   48.0726 H   0  0  0  0  0  0  0  0  0  0  0  0
   46.0516   31.2891   49.3481 H   0  0  0  0  0  0  0  0  0  0  0  0
   46.3338   33.1050   49.5153 H   0  0  0  0  0  0  0  0  0  0  0  0
   48.1599   32.9783   48.1271 H   0  0  0  0  0  0  0  0  0  0  0  0
   48.1305   31.2057   48.3932 H   0  0  0  0  0  0  0  0  0  0  0  0
   47.8415   32.1693   45.9194 H   0  0  0  0  0  0  0  0  0  0  0  0
   43.7150   36.8650   42.7094 H   0  0  0  0  0  0  0  0  0  0  0  0
   45.4257   37.3928   42.3065 H   0  0  0  0  0  0  0  0  0  0  0  0
   47.8780   29.0550   46.4383 C   0  0  0  0  0  0  0  0  0  0  0  0
   47.4210   27.6829   46.7472 C   0  0  0  0  0  0  0  0  0  0  0  0
   47.6040   26.6492   45.9579 C   0  0  0  0  0  0  0  0  0  0  0  0
   48.2956   26.7280   44.6505 C   0  0  0  0  0  0  0  0  0  0  0  0
   48.8390   27.6358   43.9837 O   0  0  0  0  0  0  0  0  0  0  0  0
   48.4822   25.6441   43.8265 O   0  0  0  0  0  0  0  0  0  0  0  0
   47.1544   25.3587   46.3019 N   0  0  0  0  0  0  0  0  0  0  0  0
   46.8876   23.9865   45.9472 C   0  0  0  0  0  0  0  0  0  0  0  0
   46.3882   23.5083   44.8896 O   0  0  0  0  0  0  0  0  0  0  0  0
   47.4599   23.6897   47.3186 C   0  0  1  0  0  0  0  0  0  0  0  0
   47.1411   22.7441   47.7553 H   0  0  0  0  0  0  0  0  0  0  0  0
   46.6663   24.9189   47.5959 C   0  0  1  0  0  0  0  0  0  0  0  0
   47.2336   26.0666   48.8379 S   0  0  0  0  0  0  0  0  0  0  0  0
   46.7390   27.6560   48.0430 C   0  0  1  0  0  0  0  0  0  0  0  0
   46.9409   28.4846   48.7102 H   0  0  0  0  0  0  0  0  0  0  0  0
   48.4841   29.1648   45.5363 H   0  0  0  0  0  0  0  0  0  0  0  0
   48.4891   29.3967   47.3349 H   0  0  0  0  0  0  0  0  0  0  0  0
   48.3937   25.6367   42.8244 H   0  0  0  0  0  0  0  0  0  0  0  0
   48.5703   23.8881   47.3506 H   0  0  0  0  0  0  0  0  0  0  0  0
   45.5743   24.7068   47.6210 H   0  0  0  0  0  0  0  0  0  0  0  0
   45.6344   27.6142   47.8122 H   0  0  0  0  0  0  0  0  0  0  0  0
  1  6  2  0
  2  1  1  0
  3  2  2  0
  3  4  1  0
  4  5  2  0
  5  6  1  0
  5  7  1  0
  7 11  1  0
  7  8  1  0
  8  9  1  0
 10  9  1  0
 11 10  1  0
 12  2  1  0
 13 11  1  0
  1 14  1  0
  3 15  1  0
  8 16  1  0
  8 17  1  0
  9 18  1  0
  9 19  1  0
 10 20  1  0
 10 21  1  0
 11 22  1  6
 12 23  1  0
 12 24  1  0
 25 26  1  0
 26 27  2  0
 27 28  1  0
 28 29  2  0
 28 30  1  0
 27 31  1  0
 31 32  1  0
 32 33  2  0
 32 34  1  0
 34 35  1  1
 34 36  1  0
 36 37  1  0
 37 38  1  0
 38 39  1  1
 38 26  1  0
 36 31  1  0
 25 40  1  0
 25 41  1  0
 30 42  1  0
 34 43  1  0
 36 44  1  6
 38 45  1  0
 13 25  1  0
M  ISO  8  14  14  15  14  16  13  17  13  18  13  19  13  20  13  21  13
M  ISO  3  22  13  35  15  39  15
M  END
>  <DihAtoms>  (1) 
10,12,24,25

>  <DihDeg>  (1) 
-66.0779662816914

$$$$
