
     RDKit          3D

 45 48  0  0  0  0  0  0  0  0999 V2000
   44.4728   35.7490   45.0102 C   0  0  0  0  0  0  0  0  0  0  0  0
   45.1235   35.7124   43.7468 C   0  0  0  0  0  0  0  0  0  0  0  0
   46.0203   34.7186   43.4892 C   0  0  0  0  0  0  0  0  0  0  0  0
   46.2308   33.8166   44.4807 N   0  0  0  0  0  0  0  0  0  0  0  0
   45.6241   33.8504   45.6589 C   0  0  0  0  0  0  0  0  0  0  0  0
   44.7473   34.8103   45.9289 N   0  0  0  0  0  0  0  0  0  0  0  0
   45.9508   32.8336   46.5974 N   0  0  0  0  0  0  0  0  0  0  0  0
   45.1599   32.5604   47.8082 C   0  0  0  0  0  0  0  0  0  0  0  0
   46.2583   32.2466   48.8123 C   0  0  0  0  0  0  0  0  0  0  0  0
   47.5284   32.0727   48.0384 C   0  0  0  0  0  0  0  0  0  0  0  0
   47.0265   31.8926   46.6238 C   0  0  1  0  0  0  0  0  0  0  0  0
   44.7631   36.7612   42.8312 N   0  0  0  0  0  0  0  0  0  0  0  0
   46.4761   30.1994   46.3850 S   0  0  0  0  0  0  0  0  0  0  0  0
   43.7476   36.4900   45.3178 H   0  0  0  0  0  0  0  0  0  0  0  0
   46.5046   34.7065   42.5265 H   0  0  0  0  0  0  0  0  0  0  0  0
   44.5260   31.6744   47.6178 H   0  0  0  0  0  0  0  0  0  0  0  0
   44.5813   33.4592   48.0726 H   0  0  0  0  0  0  0  0  0  0  0  0
   46.0516   31.2891   49.3481 H   0  0  0  0  0  0  0  0  0  0  0  0
   46.3338   33.1050   49.5153 H   0  0  0  0  0  0  0  0  0  0  0  0
   48.1599   32.9783   48.1271 H   0  0  0  0  0  0  0  0  0  0  0  0
   48.1305   31.2057   48.3932 H   0  0  0  0  0  0  0  0  0  0  0  0
   47.8415   32.1693   45.9194 H   0  0  0  0  0  0  0  0  0  0  0  0
   43.7150   36.8650   42.7094 H   0  0  0  0  0  0  0  0  0  0  0  0
   45.4257   37.3928   42.3065 H   0  0  0  0  0  0  0  0  0  0  0  0
   47.8780   29.0550   46.4383 C   0  0  0  0  0  0  0  0  0  0  0  0
   48.9514   29.5007   45.5238 C   0  0  0  0  0  0  0  0  0  0  0  0
   50.1728   29.7937   45.9074 C   0  0  0  0  0  0  0  0  0  0  0  0
   50.6321   29.7143   47.3133 C   0  0  0  0  0  0  0  0  0  0  0  0
   50.1094   29.3980   48.4045 O   0  0  0  0  0  0  0  0  0  0  0  0
   51.9106   30.0248   47.7105 O   0  0  0  0  0  0  0  0  0  0  0  0
   51.1627   30.2080   44.9940 N   0  0  0  0  0  0  0  0  0  0  0  0
   52.4657   30.7627   44.7214 C   0  0  0  0  0  0  0  0  0  0  0  0
   53.0725   31.7153   45.2879 O   0  0  0  0  0  0  0  0  0  0  0  0
   52.5108   29.7056   43.6365 C   0  0  1  0  0  0  0  0  0  0  0  0
   53.1883   29.9217   42.8114 H   0  0  0  0  0  0  0  0  0  0  0  0
   51.0936   30.1537   43.5454 C   0  0  1  0  0  0  0  0  0  0  0  0
   49.8322   28.9817   43.0798 S   0  0  0  0  0  0  0  0  0  0  0  0
   48.4495   29.5701   44.1497 C   0  0  1  0  0  0  0  0  0  0  0  0
   47.5490   29.0073   43.9374 H   0  0  0  0  0  0  0  0  0  0  0  0
   48.1760   28.8776   47.4740 H   0  0  0  0  0  0  0  0  0  0  0  0
   47.4701   28.0865   46.0029 H   0  0  0  0  0  0  0  0  0  0  0  0
   52.1692   30.5280   48.5424 H   0  0  0  0  0  0  0  0  0  0  0  0
   52.5986   28.6704   44.0770 H   0  0  0  0  0  0  0  0  0  0  0  0
   51.0074   31.1499   43.0575 H   0  0  0  0  0  0  0  0  0  0  0  0
   48.2722   30.6650   43.9383 H   0  0  0  0  0  0  0  0  0  0  0  0
  1  6  2  0
  2  1  1  0
  3  2  2  0
  3  4  1  0
  4  5  2  0
  5  6  1  0
  5  7  1  0
  7 11  1  0
  7  8  1  0
  8  9  1  0
 10  9  1  0
 11 10  1  0
 12  2  1  0
 13 11  1  0
  1 14  1  0
  3 15  1  0
  8 16  1  0
  8 17  1  0
  9 18  1  0
  9 19  1  0
 10 20  1  0
 10 21  1  0
 11 22  1  6
 12 23  1  0
 12 24  1  0
 25 26  1  0
 26 27  2  0
 27 28  1  0
 28 29  2  0
 28 30  1  0
 27 31  1  0
 31 32  1  0
 32 33  2  0
 32 34  1  0
 34 35  1  6
 34 36  1  0
 36 37  1  0
 37 38  1  0
 38 39  1  1
 38 26  1  0
 36 31  1  0
 25 40  1  0
 25 41  1  0
 30 42  1  0
 34 43  1  0
 36 44  1  6
 38 45  1  0
 13 25  1  0
M  ISO  8  14  14  15  14  16  13  17  13  18  13  19  13  20  13  21  13
M  ISO  3  22  13  35  15  39  15
M  END
>  <DihAtoms>  (1) 
10,12,24,25

>  <DihDeg>  (1) 
-66.0779662816914

$$$$
