
     RDKit          3D

 44 48  0  0  0  0  0  0  0  0999 V2000
   47.7015   33.4911   40.1320 C   0  0  0  0  0  0  0  0  0  0  0  0
   49.0455   33.2195   40.3872 C   0  0  0  0  0  0  0  0  0  0  0  0
   49.5118   33.2964   41.7149 C   0  0  0  0  0  0  0  0  0  0  0  0
   48.5930   33.6386   42.6733 N   0  0  0  0  0  0  0  0  0  0  0  0
   47.3016   33.8924   42.3762 C   0  0  0  0  0  0  0  0  0  0  0  0
   46.8570   33.8206   41.1214 N   0  0  0  0  0  0  0  0  0  0  0  0
   46.4218   34.2410   43.4453 N   0  0  0  0  0  0  0  0  0  0  0  0
   45.5049   35.2319   43.4396 C   0  0  0  0  0  0  0  0  0  0  0  0
   44.8723   35.2397   44.6411 N   0  0  0  0  0  0  0  0  0  0  0  0
   45.4084   34.2601   45.3584 C   0  0  0  0  0  0  0  0  0  0  0  0
   45.1937   33.7763   46.6340 C   0  0  0  0  0  0  0  0  0  0  0  0
   45.8805   32.7518   47.1418 N   0  0  0  0  0  0  0  0  0  0  0  0
   46.8323   32.1240   46.4326 C   0  0  0  0  0  0  0  0  0  0  0  0
   47.0514   32.5820   45.1946 N   0  0  0  0  0  0  0  0  0  0  0  0
   46.3896   33.6061   44.6395 C   0  0  0  0  0  0  0  0  0  0  0  0
   44.2216   34.3404   47.4960 N   0  0  0  0  0  0  0  0  0  0  0  0
   47.2071   33.3642   38.3959 S   0  0  0  0  0  0  0  0  0  0  0  0
   49.7498   32.9489   39.5922 H   0  0  0  0  0  0  0  0  0  0  0  0
   50.5392   33.0940   41.9481 H   0  0  0  0  0  0  0  0  0  0  0  0
   45.3182   35.9074   42.5933 H   0  0  0  0  0  0  0  0  0  0  0  0
   47.3805   31.2940   46.8597 H   0  0  0  0  0  0  0  0  0  0  0  0
   43.1863   34.3961   47.2928 H   0  0  0  0  0  0  0  0  0  0  0  0
   44.4521   34.7544   48.4188 H   0  0  0  0  0  0  0  0  0  0  0  0
   46.6618   31.6761   38.0268 C   0  0  0  0  0  0  0  0  0  0  0  0
   47.0834   30.7554   39.0960 C   0  0  0  0  0  0  0  0  0  0  0  0
   47.8607   29.7376   38.8917 C   0  0  0  0  0  0  0  0  0  0  0  0
   48.3531   29.4730   37.5452 C   0  0  0  0  0  0  0  0  0  0  0  0
   49.1160   28.5076   37.2327 O   0  0  0  0  0  0  0  0  0  0  0  0
   48.6725   29.4477   36.2046 O   0  0  0  0  0  0  0  0  0  0  0  0
   48.2567   28.8642   39.9286 N   0  0  0  0  0  0  0  0  0  0  0  0
   48.5583   27.5591   40.3927 C   0  0  0  0  0  0  0  0  0  0  0  0
   48.7495   26.4309   39.8255 O   0  0  0  0  0  0  0  0  0  0  0  0
   48.5741   27.9786   41.8154 C   0  0  2  0  0  0  0  0  0  0  0  0
   49.5123   27.6398   42.2875 H   0  0  0  0  0  0  0  0  0  0  0  0
   48.5427   29.3647   41.2603 C   0  0  2  0  0  0  0  0  0  0  0  0
   47.0148   30.2177   41.7971 S   0  0  0  0  0  0  0  0  0  0  0  0
   46.4970   31.1718   40.3642 C   0  0  1  0  0  0  0  0  0  0  0  0
   46.8094   32.2391   40.5646 H   0  0  0  0  0  0  0  0  0  0  0  0
   45.5427   31.6574   37.8800 H   0  0  0  0  0  0  0  0  0  0  0  0
   47.0625   31.3378   37.0515 H   0  0  0  0  0  0  0  0  0  0  0  0
   48.5589   30.2187   35.5523 H   0  0  0  0  0  0  0  0  0  0  0  0
   47.6980   27.6601   42.4143 H   0  0  0  0  0  0  0  0  0  0  0  0
   49.4307   29.9909   41.3615 H   0  0  0  0  0  0  0  0  0  0  0  0
   45.3907   31.2375   40.2679 H   0  0  0  0  0  0  0  0  0  0  0  0
  1  2  2  0
  1  6  1  0
  2  3  1  0
  3  4  2  0
  5  4  1  0
  5  7  1  0
  6  5  2  0
  7 15  1  0
  8  7  1  0
  8  9  2  0
  9 10  1  0
 10 11  2  0
 11 12  1  0
 11 16  1  0
 13 12  2  0
 14 13  1  0
 15 14  2  0
 15 10  1  0
 17  1  1  0
  2 18  1  0
  3 19  1  0
  8 20  1  0
 13 21  1  0
 16 22  1  0
 16 23  1  0
 24 25  1  0
 25 26  2  0
 26 27  1  0
 27 28  2  0
 27 29  1  0
 26 30  1  0
 30 31  1  0
 31 32  2  0
 31 33  1  0
 33 34  1  1
 33 35  1  0
 35 36  1  0
 36 37  1  0
 37 38  1  1
 37 25  1  0
 35 30  1  0
 24 39  1  0
 24 40  1  0
 29 41  1  0
 33 42  1  0
 35 43  1  6
 37 44  1  0
 17 24  1  0
M  ISO  6  18  14  19  14  20  14  21  14  34  15  38  15
M  END
>  <DihAtoms>  (1) 
0,16,23,24

>  <DihDeg>  (1) 
179.99056392979216

$$$$
