
 OpenBabel03242521553D

 55 60  0  0  1  0  0  0  0  0999 V2000
   44.8820   29.7490   43.8620 C   0  0  0  0  0  0  0  0  0  0  0  0
   46.2500   30.2250   43.8670 C   0  0  0  0  0  0  0  0  0  0  0  0
   46.7070   30.3410   42.6230 C   0  0  0  0  0  0  0  0  0  0  0  0
   46.0050   30.0520   41.4720 C   0  0  0  0  0  0  0  0  0  0  0  0
   44.7160   29.6000   41.4930 C   0  0  0  0  0  0  0  0  0  0  0  0
   44.1460   29.4460   42.7330 C   0  0  0  0  0  0  0  0  0  0  0  0
   47.7410   30.7090   42.7260 H   0  0  0  0  0  0  0  0  0  0  0  0
   46.6050   30.2300   40.5780 H   0  0  0  0  0  0  0  0  0  0  0  0
   44.3440   29.4290   40.4980 H   0  0  0  0  0  0  0  0  0  0  0  0
   46.0350   32.2260   46.1790 C   0  0  0  0  0  0  0  0  0  0  0  0
   45.7610   32.8700   47.3850 C   0  0  0  0  0  0  0  0  0  0  0  0
   45.9630   32.2710   48.6330 C   0  0  0  0  0  0  0  0  0  0  0  0
   46.4520   30.9980   48.7190 C   0  0  0  0  0  0  0  0  0  0  0  0
   46.7300   30.3200   47.5170 C   0  0  0  0  0  0  0  0  0  0  0  0
   47.1620   29.0370   47.6450 C   0  0  0  0  0  0  0  0  0  0  0  0
   47.3770   28.3130   46.4710 C   0  0  0  0  0  0  0  0  0  0  0  0
   47.1230   28.9560   45.2050 C   0  0  0  0  0  0  0  0  0  0  0  0
   46.6880   30.2600   45.2480 C   0  0  0  0  0  0  0  0  0  0  0  0
   46.4870   31.0040   46.3240 C   0  0  0  0  0  0  0  0  0  0  0  0
   45.3660   33.8980   47.3270 H   0  0  0  0  0  0  0  0  0  0  0  0
   45.7080   32.8870   49.4940 H   0  0  0  0  0  0  0  0  0  0  0  0
   46.6100   30.5520   49.6820 H   0  0  0  0  0  0  0  0  0  0  0  0
   47.3320   28.6000   48.6170 H   0  0  0  0  0  0  0  0  0  0  0  0
   47.7230   27.3060   46.6470 H   0  0  0  0  0  0  0  0  0  0  0  0
   47.3680   28.1760   44.5030 H   0  0  0  0  0  0  0  0  0  0  0  0
   45.3930   34.1370   43.0390 C   0  0  0  0  0  0  0  0  0  0  0  0
   46.7190   34.5000   42.7020 C   0  0  0  0  0  0  0  0  0  0  0  0
   47.7070   34.0470   43.5470 C   0  0  0  0  0  0  0  0  0  0  0  0
   47.2850   33.3230   44.5810 N   0  0  0  0  0  0  0  0  0  0  0  0
   46.0530   32.9650   44.9270 C   0  0  0  0  0  0  0  0  0  0  0  0
   45.1310   33.3960   44.1190 N   0  0  0  0  0  0  0  0  0  0  0  0
   44.6250   34.4810   42.3920 H   0  0  0  0  0  0  0  0  0  0  0  0
   46.9590   35.0940   41.8420 H   0  0  0  0  0  0  0  0  0  0  0  0
   49.0830   34.2820   43.3000 N   0  0  0  0  0  0  0  0  0  0  0  0
   49.3030   35.0090   44.0290 H   0  0  0  0  0  0  0  0  0  0  0  0
   49.7010   33.8400   42.5820 H   0  0  0  0  0  0  0  0  0  0  0  0
   44.0660   29.5140   45.0020 O   0  0  0  0  0  0  0  0  0  0  0  0
   43.3550   30.1990   45.1890 H   0  0  0  0  0  0  0  0  0  0  0  0
   42.8500   28.9850   42.6900 O   0  0  0  0  0  0  0  0  0  0  0  0
   42.2280   28.8470   41.4290 C   0  0  0  0  0  2  0  0  0  0  0  0
   41.7550   30.1530   40.9030 C   0  0  0  0  0  0  0  0  0  0  0  0
   42.0350   30.6520   39.7160 C   0  0  0  0  0  0  0  0  0  0  0  0
   41.5610   31.9080   39.2510 N   0  0  0  0  0  0  0  0  0  0  0  0
   41.9240   33.1370   38.5850 C   0  0  0  0  0  0  0  0  0  0  0  0
   42.8360   33.4310   37.7670 O   0  0  0  0  0  0  0  0  0  0  0  0
   40.7760   33.7990   39.3010 C   0  0  0  0  0  3  0  0  0  0  0  0
   41.0130   34.2420   40.2710 H   0  0  0  0  0  0  0  0  0  0  0  0
   40.1820   32.4160   39.3650 C   0  0  2  0  0  3  0  0  0  0  0  0
   39.6100   31.8780   40.9960 S   0  0  0  0  0  0  0  0  0  0  0  0
   40.8950   30.9220   41.8390 C   0  0  0  0  0  3  0  0  0  0  0  0
   41.5890   31.6890   42.2880 H   0  0  0  0  0  0  0  0  0  0  0  0
   42.8900   29.9180   38.7530 C   0  0  0  0  0  0  0  0  0  0  0  0
   43.5130   28.8610   38.6260 O   0  0  0  0  0  0  0  0  0  0  0  0
   43.2380   30.3830   37.5240 O   0  0  0  0  0  0  0  0  0  0  0  0
   42.8980   30.0830   36.6320 H   0  0  0  0  0  0  0  0  0  0  0  0
  1  2  1  0  0  0  0
  1 37  1  0  0  0  0
  2 18  1  0  0  0  0
  3  7  1  0  0  0  0
  3  2  2  0  0  0  0
  4  5  2  0  0  0  0
  4  3  1  0  0  0  0
  5  6  1  0  0  0  0
  6  1  2  0  0  0  0
  8  4  1  0  0  0  0
  9  5  1  0  0  0  0
 10 19  2  0  0  0  0
 10 11  1  0  0  0  0
 11 12  2  0  0  0  0
 12 13  1  0  0  0  0
 12 21  1  0  0  0  0
 13 22  1  0  0  0  0
 14 15  1  0  0  0  0
 14 13  2  0  0  0  0
 15 23  1  0  0  0  0
 16 24  1  0  0  0  0
 16 15  2  0  0  0  0
 17 18  2  0  0  0  0
 17 16  1  0  0  0  0
 18 19  1  0  0  0  0
 19 14  1  0  0  0  0
 20 11  1  0  0  0  0
 25 17  1  0  0  0  0
 26 31  1  0  0  0  0
 27 26  2  0  0  0  0
 27 28  1  0  0  0  0
 28 29  2  0  0  0  0
 29 30  1  0  0  0  0
 30 10  1  0  0  0  0
 31 30  2  0  0  0  0
 32 26  1  0  0  0  0
 33 27  1  0  0  0  0
 34 28  1  0  0  0  0
 34 35  1  0  0  0  0
 36 34  1  0  0  0  0
 37 38  1  0  0  0  0
 39  6  1  0  0  0  0
 40 39  1  0  0  0  0
 41 40  1  0  0  0  0
 41 50  1  0  0  0  0
 42 41  2  0  0  0  0
 43 48  1  0  0  0  0
 43 42  1  0  0  0  0
 44 43  1  0  0  0  0
 44 46  1  0  0  0  0
 45 44  2  0  0  0  0
 46 47  1  0  0  0  0
 48 46  1  1  0  0  0
 48 49  1  0  0  0  0
 49 50  1  0  0  0  0
 50 51  1  0  0  0  0
 52 42  1  0  0  0  0
 53 52  2  0  0  0  0
 54 52  1  0  0  0  0
 55 54  1  0  0  0  0
M  END
>  <minimizedAffinity>
-5.19200516

>  <minimizedRMSD>
0.460292518

$$$$
