
 OpenBabel03242521543D

 55 60  0  0  1  0  0  0  0  0999 V2000
   45.0930   30.3760   42.9660 C   0  0  0  0  0  0  0  0  0  0  0  0
   46.4480   30.7460   43.3200 C   0  0  0  0  0  0  0  0  0  0  0  0
   47.2680   30.5440   42.2930 C   0  0  0  0  0  0  0  0  0  0  0  0
   46.9110   30.0490   41.0560 C   0  0  0  0  0  0  0  0  0  0  0  0
   45.6260   29.7030   40.7480 C   0  0  0  0  0  0  0  0  0  0  0  0
   44.6950   29.8760   41.7420 C   0  0  0  0  0  0  0  0  0  0  0  0
   48.2640   30.8540   42.6500 H   0  0  0  0  0  0  0  0  0  0  0  0
   47.7700   29.9770   40.3870 H   0  0  0  0  0  0  0  0  0  0  0  0
   45.5500   29.3360   39.7390 H   0  0  0  0  0  0  0  0  0  0  0  0
   45.8140   33.2270   45.0040 C   0  0  0  0  0  0  0  0  0  0  0  0
   45.2780   34.1430   45.9080 C   0  0  0  0  0  0  0  0  0  0  0  0
   45.0160   33.8300   47.2460 C   0  0  0  0  0  0  0  0  0  0  0  0
   45.2850   32.5810   47.7310 C   0  0  0  0  0  0  0  0  0  0  0  0
   45.8190   31.6330   46.8380 C   0  0  0  0  0  0  0  0  0  0  0  0
   46.0210   30.3870   47.3450 C   0  0  0  0  0  0  0  0  0  0  0  0
   46.4800   29.4040   46.4670 C   0  0  0  0  0  0  0  0  0  0  0  0
   46.7050   29.7600   45.0880 C   0  0  0  0  0  0  0  0  0  0  0  0
   46.4520   31.0640   44.7340 C   0  0  0  0  0  0  0  0  0  0  0  0
   46.0370   32.0440   45.5210 C   0  0  0  0  0  0  0  0  0  0  0  0
   45.0570   35.1540   45.5280 H   0  0  0  0  0  0  0  0  0  0  0  0
   44.5970   34.6390   47.8420 H   0  0  0  0  0  0  0  0  0  0  0  0
   45.0860   32.3550   48.7610 H   0  0  0  0  0  0  0  0  0  0  0  0
   45.8320   30.1720   48.3860 H   0  0  0  0  0  0  0  0  0  0  0  0
   46.6220   28.4430   46.9380 H   0  0  0  0  0  0  0  0  0  0  0  0
   47.0440   28.8260   44.6670 H   0  0  0  0  0  0  0  0  0  0  0  0
   46.4030   34.3410   41.4910 C   0  0  0  0  0  0  0  0  0  0  0  0
   47.7750   34.6780   41.5720 C   0  0  0  0  0  0  0  0  0  0  0  0
   48.3810   34.4750   42.7920 C   0  0  0  0  0  0  0  0  0  0  0  0
   47.5920   33.9870   43.7460 N   0  0  0  0  0  0  0  0  0  0  0  0
   46.3040   33.6620   43.7060 C   0  0  0  0  0  0  0  0  0  0  0  0
   45.7460   33.8540   42.5480 N   0  0  0  0  0  0  0  0  0  0  0  0
   45.9280   34.4920   40.5540 H   0  0  0  0  0  0  0  0  0  0  0  0
   48.3270   35.0710   40.7410 H   0  0  0  0  0  0  0  0  0  0  0  0
   49.7620   34.7100   43.0010 N   0  0  0  0  0  0  0  0  0  0  0  0
   49.7380   35.5940   43.5730 H   0  0  0  0  0  0  0  0  0  0  0  0
   50.5770   34.1450   42.6690 H   0  0  0  0  0  0  0  0  0  0  0  0
   43.9480   30.4630   43.8050 O   0  0  0  0  0  0  0  0  0  0  0  0
   43.3140   31.2210   43.6160 H   0  0  0  0  0  0  0  0  0  0  0  0
   43.4210   29.5060   41.3740 O   0  0  0  0  0  0  0  0  0  0  0  0
   42.8000   30.2030   40.3140 C   0  0  0  0  0  2  0  0  0  0  0  0
   42.2570   31.5120   40.7580 C   0  0  0  0  0  0  0  0  0  0  0  0
   42.6610   32.6940   40.3400 C   0  0  0  0  0  0  0  0  0  0  0  0
   42.1140   33.9270   40.7920 N   0  0  0  0  0  0  0  0  0  0  0  0
   42.4240   35.2580   41.2570 C   0  0  0  0  0  0  0  0  0  0  0  0
   43.4110   36.0190   41.0790 O   0  0  0  0  0  0  0  0  0  0  0  0
   41.1000   35.2530   41.9760 C   0  0  0  0  0  3  0  0  0  0  0  0
   41.1200   34.8800   43.0040 H   0  0  0  0  0  0  0  0  0  0  0  0
   40.6820   34.2410   40.9430 C   0  0  2  0  0  3  0  0  0  0  0  0
   39.9260   32.7260   41.5820 S   0  0  0  0  0  0  0  0  0  0  0  0
   41.1680   31.4220   41.7650 C   0  0  0  0  0  3  0  0  0  0  0  0
   41.6780   31.6340   42.7480 H   0  0  0  0  0  0  0  0  0  0  0  0
   43.7460   32.8300   39.3390 C   0  0  0  0  0  0  0  0  0  0  0  0
   44.6120   32.1700   38.7580 O   0  0  0  0  0  0  0  0  0  0  0  0
   44.0780   33.9920   38.7160 O   0  0  0  0  0  0  0  0  0  0  0  0
   43.8970   34.2570   37.7690 H   0  0  0  0  0  0  0  0  0  0  0  0
  1  2  1  0  0  0  0
  1 37  1  0  0  0  0
  2 18  1  0  0  0  0
  3  7  1  0  0  0  0
  3  2  2  0  0  0  0
  4  3  1  0  0  0  0
  5  4  2  0  0  0  0
  5  6  1  0  0  0  0
  6  1  2  0  0  0  0
  8  4  1  0  0  0  0
  9  5  1  0  0  0  0
 10 19  2  0  0  0  0
 10 11  1  0  0  0  0
 11 12  2  0  0  0  0
 12 13  1  0  0  0  0
 12 21  1  0  0  0  0
 13 22  1  0  0  0  0
 14 15  1  0  0  0  0
 14 13  2  0  0  0  0
 15 23  1  0  0  0  0
 16 24  1  0  0  0  0
 16 15  2  0  0  0  0
 17 16  1  0  0  0  0
 18 17  2  0  0  0  0
 18 19  1  0  0  0  0
 19 14  1  0  0  0  0
 20 11  1  0  0  0  0
 25 17  1  0  0  0  0
 26 27  2  0  0  0  0
 26 31  1  0  0  0  0
 27 28  1  0  0  0  0
 28 34  1  0  0  0  0
 28 29  2  0  0  0  0
 30 29  1  0  0  0  0
 30 10  1  0  0  0  0
 31 30  2  0  0  0  0
 32 26  1  0  0  0  0
 33 27  1  0  0  0  0
 34 35  1  0  0  0  0
 36 34  1  0  0  0  0
 38 37  1  0  0  0  0
 39  6  1  0  0  0  0
 40 41  1  0  0  0  0
 40 39  1  0  0  0  0
 41 50  1  0  0  0  0
 42 41  2  0  0  0  0
 42 43  1  0  0  0  0
 43 48  1  0  0  0  0
 43 44  1  0  0  0  0
 44 46  1  0  0  0  0
 45 44  2  0  0  0  0
 46 47  1  0  0  0  0
 48 49  1  1  0  0  0
 48 46  1  0  0  0  0
 49 50  1  0  0  0  0
 50 51  1  0  0  0  0
 52 42  1  0  0  0  0
 53 52  2  0  0  0  0
 54 52  1  0  0  0  0
 55 54  1  0  0  0  0
M  END
>  <minimizedAffinity>
-6.42550468

>  <minimizedRMSD>
4.07313776

$$$$
