
 OpenBabel03242521543D

 55 60  0  0  1  0  0  0  0  0999 V2000
   45.3070   30.4950   42.6840 C   0  0  0  0  0  0  0  0  0  0  0  0
   46.6430   30.8830   43.0890 C   0  0  0  0  0  0  0  0  0  0  0  0
   47.4980   30.7230   42.0830 C   0  0  0  0  0  0  0  0  0  0  0  0
   47.1890   30.2540   40.8230 C   0  0  0  0  0  0  0  0  0  0  0  0
   45.9210   29.8910   40.4670 C   0  0  0  0  0  0  0  0  0  0  0  0
   44.9570   30.0190   41.4360 C   0  0  0  0  0  0  0  0  0  0  0  0
   48.4760   31.0440   42.4780 H   0  0  0  0  0  0  0  0  0  0  0  0
   48.0690   30.2160   40.1800 H   0  0  0  0  0  0  0  0  0  0  0  0
   45.8840   29.5480   39.4470 H   0  0  0  0  0  0  0  0  0  0  0  0
   45.9440   33.3190   44.8130 C   0  0  0  0  0  0  0  0  0  0  0  0
   45.3750   34.2100   45.7210 C   0  0  0  0  0  0  0  0  0  0  0  0
   45.0680   33.8630   47.0410 C   0  0  0  0  0  0  0  0  0  0  0  0
   45.3230   32.6020   47.5020 C   0  0  0  0  0  0  0  0  0  0  0  0
   45.8910   31.6780   46.6050 C   0  0  0  0  0  0  0  0  0  0  0  0
   46.0780   30.4200   47.0860 C   0  0  0  0  0  0  0  0  0  0  0  0
   46.5700   29.4610   46.2000 C   0  0  0  0  0  0  0  0  0  0  0  0
   46.8410   29.8520   44.8380 C   0  0  0  0  0  0  0  0  0  0  0  0
   46.5970   31.1650   44.5100 C   0  0  0  0  0  0  0  0  0  0  0  0
   46.1530   32.1230   45.3070 C   0  0  0  0  0  0  0  0  0  0  0  0
   45.1650   35.2310   45.3590 H   0  0  0  0  0  0  0  0  0  0  0  0
   44.6270   34.6560   47.6420 H   0  0  0  0  0  0  0  0  0  0  0  0
   45.0900   32.3500   48.5190 H   0  0  0  0  0  0  0  0  0  0  0  0
   45.8540   30.1780   48.1140 H   0  0  0  0  0  0  0  0  0  0  0  0
   46.6990   28.4880   46.6510 H   0  0  0  0  0  0  0  0  0  0  0  0
   47.1980   28.9310   44.4060 H   0  0  0  0  0  0  0  0  0  0  0  0
   46.6520   34.5170   41.3500 C   0  0  0  0  0  0  0  0  0  0  0  0
   48.0160   34.8660   41.4900 C   0  0  0  0  0  0  0  0  0  0  0  0
   48.5780   34.6420   42.7270 C   0  0  0  0  0  0  0  0  0  0  0  0
   47.7590   34.1260   43.6390 N   0  0  0  0  0  0  0  0  0  0  0  0
   46.4780   33.7880   43.5440 C   0  0  0  0  0  0  0  0  0  0  0  0
   45.9610   34.0000   42.3700 N   0  0  0  0  0  0  0  0  0  0  0  0
   46.2100   34.6850   40.3990 H   0  0  0  0  0  0  0  0  0  0  0  0
   48.5950   35.2840   40.6890 H   0  0  0  0  0  0  0  0  0  0  0  0
   49.9480   34.8870   42.9930 N   0  0  0  0  0  0  0  0  0  0  0  0
   49.8920   35.7580   43.5830 H   0  0  0  0  0  0  0  0  0  0  0  0
   50.7810   34.3390   42.6800 H   0  0  0  0  0  0  0  0  0  0  0  0
   44.1360   30.5390   43.4890 O   0  0  0  0  0  0  0  0  0  0  0  0
   43.4930   31.2880   43.2990 H   0  0  0  0  0  0  0  0  0  0  0  0
   43.7030   29.6340   41.0200 O   0  0  0  0  0  0  0  0  0  0  0  0
   43.0820   30.3740   39.9890 C   0  0  0  0  0  2  0  0  0  0  0  0
   42.4930   31.6390   40.4980 C   0  0  0  0  0  0  0  0  0  0  0  0
   42.8490   32.8550   40.1330 C   0  0  0  0  0  0  0  0  0  0  0  0
   42.2590   34.0420   40.6460 N   0  0  0  0  0  0  0  0  0  0  0  0
   42.5220   35.3620   41.1700 C   0  0  0  0  0  0  0  0  0  0  0  0
   43.4780   36.1680   41.0240 O   0  0  0  0  0  0  0  0  0  0  0  0
   41.2040   35.2730   41.8970 C   0  0  0  0  0  3  0  0  0  0  0  0
   41.2460   34.8530   42.9040 H   0  0  0  0  0  0  0  0  0  0  0  0
   40.8170   34.2950   40.8190 C   0  0  2  0  0  3  0  0  0  0  0  0
   40.1240   32.7230   41.3910 S   0  0  0  0  0  0  0  0  0  0  0  0
   41.4160   31.4610   41.5050 C   0  0  0  0  0  3  0  0  0  0  0  0
   41.9250   31.6450   42.4940 H   0  0  0  0  0  0  0  0  0  0  0  0
   43.9200   33.0780   39.1340 C   0  0  0  0  0  0  0  0  0  0  0  0
   45.0940   32.7820   38.8940 O   0  0  0  0  0  0  0  0  0  0  0  0
   43.7830   33.8370   38.0140 O   0  0  0  0  0  0  0  0  0  0  0  0
   43.6980   33.5300   37.0670 H   0  0  0  0  0  0  0  0  0  0  0  0
  1  2  1  0  0  0  0
  1 37  1  0  0  0  0
  2 18  1  0  0  0  0
  3  7  1  0  0  0  0
  3  2  2  0  0  0  0
  4  3  1  0  0  0  0
  5  4  2  0  0  0  0
  5  6  1  0  0  0  0
  6  1  2  0  0  0  0
  8  4  1  0  0  0  0
  9  5  1  0  0  0  0
 10 19  2  0  0  0  0
 10 11  1  0  0  0  0
 11 12  2  0  0  0  0
 12 13  1  0  0  0  0
 12 21  1  0  0  0  0
 13 22  1  0  0  0  0
 14 15  1  0  0  0  0
 14 13  2  0  0  0  0
 15 23  1  0  0  0  0
 16 24  1  0  0  0  0
 16 15  2  0  0  0  0
 17 16  1  0  0  0  0
 18 17  2  0  0  0  0
 18 19  1  0  0  0  0
 19 14  1  0  0  0  0
 20 11  1  0  0  0  0
 25 17  1  0  0  0  0
 26 27  2  0  0  0  0
 26 31  1  0  0  0  0
 27 28  1  0  0  0  0
 28 34  1  0  0  0  0
 28 29  2  0  0  0  0
 30 29  1  0  0  0  0
 30 10  1  0  0  0  0
 31 30  2  0  0  0  0
 32 26  1  0  0  0  0
 33 27  1  0  0  0  0
 34 35  1  0  0  0  0
 36 34  1  0  0  0  0
 38 37  1  0  0  0  0
 39  6  1  0  0  0  0
 40 41  1  0  0  0  0
 40 39  1  0  0  0  0
 41 50  1  0  0  0  0
 42 41  2  0  0  0  0
 42 43  1  0  0  0  0
 43 48  1  0  0  0  0
 43 44  1  0  0  0  0
 44 46  1  0  0  0  0
 45 44  2  0  0  0  0
 46 47  1  0  0  0  0
 48 49  1  1  0  0  0
 48 46  1  0  0  0  0
 49 50  1  0  0  0  0
 50 51  1  0  0  0  0
 52 42  1  0  0  0  0
 53 52  2  0  0  0  0
 54 52  1  0  0  0  0
 55 54  1  0  0  0  0
M  END
>  <minimizedAffinity>
-6.46566868

>  <minimizedRMSD>
2.95719695

$$$$
