
 OpenBabel03242521543D

 55 60  0  0  1  0  0  0  0  0999 V2000
   44.8930   30.3990   42.9000 C   0  0  0  0  0  0  0  0  0  0  0  0
   46.2710   30.7410   43.1870 C   0  0  0  0  0  0  0  0  0  0  0  0
   47.0150   30.6320   42.0890 C   0  0  0  0  0  0  0  0  0  0  0  0
   46.5680   30.2470   40.8420 C   0  0  0  0  0  0  0  0  0  0  0  0
   45.2630   29.9250   40.5990 C   0  0  0  0  0  0  0  0  0  0  0  0
   44.4060   30.0070   41.6690 C   0  0  0  0  0  0  0  0  0  0  0  0
   48.0350   30.9130   42.3980 H   0  0  0  0  0  0  0  0  0  0  0  0
   47.3760   30.2370   40.1090 H   0  0  0  0  0  0  0  0  0  0  0  0
   45.1130   29.6470   39.5700 H   0  0  0  0  0  0  0  0  0  0  0  0
   45.8290   33.0820   45.1150 C   0  0  0  0  0  0  0  0  0  0  0  0
   45.3830   33.9280   46.1290 C   0  0  0  0  0  0  0  0  0  0  0  0
   45.2000   33.5070   47.4500 C   0  0  0  0  0  0  0  0  0  0  0  0
   45.4600   32.2140   47.8070 C   0  0  0  0  0  0  0  0  0  0  0  0
   45.9040   31.3330   46.8020 C   0  0  0  0  0  0  0  0  0  0  0  0
   46.0980   30.0430   47.1860 C   0  0  0  0  0  0  0  0  0  0  0  0
   46.4670   29.1290   46.1980 C   0  0  0  0  0  0  0  0  0  0  0  0
   46.6110   29.5980   44.8410 C   0  0  0  0  0  0  0  0  0  0  0  0
   46.3780   30.9350   44.6180 C   0  0  0  0  0  0  0  0  0  0  0  0
   46.0480   31.8520   45.5130 C   0  0  0  0  0  0  0  0  0  0  0  0
   45.1710   34.9750   45.8520 H   0  0  0  0  0  0  0  0  0  0  0  0
   44.8480   34.2720   48.1400 H   0  0  0  0  0  0  0  0  0  0  0  0
   45.3220   31.9040   48.8250 H   0  0  0  0  0  0  0  0  0  0  0  0
   45.9710   29.7430   48.2150 H   0  0  0  0  0  0  0  0  0  0  0  0
   46.6080   28.1270   46.5740 H   0  0  0  0  0  0  0  0  0  0  0  0
   46.8930   28.6960   44.3200 H   0  0  0  0  0  0  0  0  0  0  0  0
   46.2230   34.4760   41.6760 C   0  0  0  0  0  0  0  0  0  0  0  0
   47.6050   34.7790   41.6960 C   0  0  0  0  0  0  0  0  0  0  0  0
   48.2810   34.4620   42.8520 C   0  0  0  0  0  0  0  0  0  0  0  0
   47.5420   33.9110   43.8120 N   0  0  0  0  0  0  0  0  0  0  0  0
   46.2470   33.6150   43.8290 C   0  0  0  0  0  0  0  0  0  0  0  0
   45.6220   33.9150   42.7300 N   0  0  0  0  0  0  0  0  0  0  0  0
   45.6930   34.7160   40.7880 H   0  0  0  0  0  0  0  0  0  0  0  0
   48.1130   35.2300   40.8660 H   0  0  0  0  0  0  0  0  0  0  0  0
   49.6790   34.6530   42.9900 N   0  0  0  0  0  0  0  0  0  0  0  0
   49.7120   35.4850   43.6340 H   0  0  0  0  0  0  0  0  0  0  0  0
   50.4570   34.1030   42.5610 H   0  0  0  0  0  0  0  0  0  0  0  0
   43.8120   30.4090   43.8240 O   0  0  0  0  0  0  0  0  0  0  0  0
   43.1690   31.1780   43.7480 H   0  0  0  0  0  0  0  0  0  0  0  0
   43.1080   29.6670   41.3630 O   0  0  0  0  0  0  0  0  0  0  0  0
   42.5560   30.1460   40.1550 C   0  0  0  0  0  2  0  0  0  0  0  0
   41.8670   31.4490   40.3430 C   0  0  0  0  0  0  0  0  0  0  0  0
   41.7640   32.4030   39.4400 C   0  0  0  0  0  0  0  0  0  0  0  0
   41.0940   33.6370   39.6610 N   0  0  0  0  0  0  0  0  0  0  0  0
   41.1710   35.0700   39.4990 C   0  0  0  0  0  0  0  0  0  0  0  0
   41.7890   35.8080   38.6870 O   0  0  0  0  0  0  0  0  0  0  0  0
   40.2330   35.1970   40.6710 C   0  0  0  0  0  3  0  0  0  0  0  0
   40.7090   35.2730   41.6530 H   0  0  0  0  0  0  0  0  0  0  0  0
   39.7750   33.8120   40.2960 C   0  0  2  0  0  3  0  0  0  0  0  0
   39.7300   32.6030   41.6430 S   0  0  0  0  0  0  0  0  0  0  0  0
   41.2630   31.6420   41.6870 C   0  0  0  0  0  3  0  0  0  0  0  0
   42.0050   32.2900   42.2370 H   0  0  0  0  0  0  0  0  0  0  0  0
   42.3530   32.2530   38.0880 C   0  0  0  0  0  0  0  0  0  0  0  0
   42.3390   31.5060   37.1070 O   0  0  0  0  0  0  0  0  0  0  0  0
   43.2410   33.1210   37.5350 O   0  0  0  0  0  0  0  0  0  0  0  0
   43.0800   33.7880   36.8080 H   0  0  0  0  0  0  0  0  0  0  0  0
  1  2  1  0  0  0  0
  1 37  1  0  0  0  0
  2 18  1  0  0  0  0
  3  7  1  0  0  0  0
  3  2  2  0  0  0  0
  4  3  1  0  0  0  0
  5  4  2  0  0  0  0
  5  6  1  0  0  0  0
  6  1  2  0  0  0  0
  8  4  1  0  0  0  0
  9  5  1  0  0  0  0
 10 19  2  0  0  0  0
 10 11  1  0  0  0  0
 11 12  2  0  0  0  0
 12 13  1  0  0  0  0
 12 21  1  0  0  0  0
 13 22  1  0  0  0  0
 14 15  1  0  0  0  0
 14 13  2  0  0  0  0
 15 23  1  0  0  0  0
 16 24  1  0  0  0  0
 16 15  2  0  0  0  0
 17 16  1  0  0  0  0
 18 17  2  0  0  0  0
 18 19  1  0  0  0  0
 19 14  1  0  0  0  0
 20 11  1  0  0  0  0
 25 17  1  0  0  0  0
 26 27  2  0  0  0  0
 26 31  1  0  0  0  0
 27 28  1  0  0  0  0
 28 34  1  0  0  0  0
 28 29  2  0  0  0  0
 29 30  1  0  0  0  0
 30 10  1  0  0  0  0
 31 30  2  0  0  0  0
 32 26  1  0  0  0  0
 33 27  1  0  0  0  0
 34 35  1  0  0  0  0
 36 34  1  0  0  0  0
 38 37  1  0  0  0  0
 39  6  1  0  0  0  0
 40 41  1  0  0  0  0
 40 39  1  0  0  0  0
 41 50  1  0  0  0  0
 42 43  1  0  0  0  0
 42 41  2  0  0  0  0
 43 48  1  0  0  0  0
 44 43  1  0  0  0  0
 44 46  1  0  0  0  0
 45 44  2  0  0  0  0
 46 47  1  0  0  0  0
 48 46  1  1  0  0  0
 48 49  1  0  0  0  0
 49 50  1  0  0  0  0
 50 51  1  0  0  0  0
 52 42  1  0  0  0  0
 53 52  2  0  0  0  0
 54 52  1  0  0  0  0
 55 54  1  0  0  0  0
M  END
>  <minimizedAffinity>
-6.62020588

>  <minimizedRMSD>
2.22861552

$$$$
