
 OpenBabel03242521573D

 55 60  0  0  1  0  0  0  0  0999 V2000
   38.4310   29.9590   40.0230 C   0  0  0  0  0  0  0  0  0  0  0  0
   37.0390   29.9020   40.4190 C   0  0  0  0  0  0  0  0  0  0  0  0
   36.4010   31.0030   40.0310 C   0  0  0  0  0  0  0  0  0  0  0  0
   36.9570   32.0660   39.3510 C   0  0  0  0  0  0  0  0  0  0  0  0
   38.2750   32.0970   38.9930 C   0  0  0  0  0  0  0  0  0  0  0  0
   39.0280   31.0040   39.3450 C   0  0  0  0  0  0  0  0  0  0  0  0
   35.3590   30.8700   40.3670 H   0  0  0  0  0  0  0  0  0  0  0  0
   36.2220   32.8460   39.1500 H   0  0  0  0  0  0  0  0  0  0  0  0
   38.5190   33.0090   38.4750 H   0  0  0  0  0  0  0  0  0  0  0  0
   36.5420   26.9240   39.8880 C   0  0  0  0  0  0  0  0  0  0  0  0
   36.6270   25.5350   39.8140 C   0  0  0  0  0  0  0  0  0  0  0  0
   36.9680   24.7320   40.9080 C   0  0  0  0  0  0  0  0  0  0  0  0
   37.2350   25.2950   42.1240 C   0  0  0  0  0  0  0  0  0  0  0  0
   37.1650   26.6970   42.2270 C   0  0  0  0  0  0  0  0  0  0  0  0
   37.4920   27.2210   43.4380 C   0  0  0  0  0  0  0  0  0  0  0  0
   37.5040   28.6120   43.5530 C   0  0  0  0  0  0  0  0  0  0  0  0
   37.1810   29.4040   42.3920 C   0  0  0  0  0  0  0  0  0  0  0  0
   36.8720   28.7200   41.2400 C   0  0  0  0  0  0  0  0  0  0  0  0
   36.8230   27.4080   41.0740 C   0  0  0  0  0  0  0  0  0  0  0  0
   36.4130   25.0700   38.8380 H   0  0  0  0  0  0  0  0  0  0  0  0
   36.9970   23.6620   40.7110 H   0  0  0  0  0  0  0  0  0  0  0  0
   37.4890   24.6670   42.9570 H   0  0  0  0  0  0  0  0  0  0  0  0
   37.7320   26.5820   44.2750 H   0  0  0  0  0  0  0  0  0  0  0  0
   37.7670   28.9570   44.5420 H   0  0  0  0  0  0  0  0  0  0  0  0
   37.2710   30.4090   42.7730 H   0  0  0  0  0  0  0  0  0  0  0  0
   34.4740   28.9810   37.5600 C   0  0  0  0  0  0  0  0  0  0  0  0
   35.4240   29.2140   36.5360 C   0  0  0  0  0  0  0  0  0  0  0  0
   36.6610   28.6360   36.7110 C   0  0  0  0  0  0  0  0  0  0  0  0
   36.8080   27.9310   37.8300 N   0  0  0  0  0  0  0  0  0  0  0  0
   35.9430   27.6930   38.8100 C   0  0  0  0  0  0  0  0  0  0  0  0
   34.7770   28.2400   38.6300 N   0  0  0  0  0  0  0  0  0  0  0  0
   33.5170   29.4210   37.4330 H   0  0  0  0  0  0  0  0  0  0  0  0
   35.2090   29.8040   35.6670 H   0  0  0  0  0  0  0  0  0  0  0  0
   37.6880   28.7340   35.7390 N   0  0  0  0  0  0  0  0  0  0  0  0
   38.3470   29.4130   36.2020 H   0  0  0  0  0  0  0  0  0  0  0  0
   37.7580   28.2520   34.8150 H   0  0  0  0  0  0  0  0  0  0  0  0
   39.4160   28.9600   40.2570 O   0  0  0  0  0  0  0  0  0  0  0  0
   39.6770   28.3980   39.4660 H   0  0  0  0  0  0  0  0  0  0  0  0
   40.3460   31.0950   38.9610 O   0  0  0  0  0  0  0  0  0  0  0  0
   40.6340   31.5220   37.6460 C   0  0  0  0  0  2  0  0  0  0  0  0
   41.9910   31.0980   37.2150 C   0  0  0  0  0  0  0  0  0  0  0  0
   43.0510   31.8750   37.1370 C   0  0  0  0  0  0  0  0  0  0  0  0
   44.3350   31.4290   36.7190 N   0  0  0  0  0  0  0  0  0  0  0  0
   45.4770   31.7230   35.8850 C   0  0  0  0  0  0  0  0  0  0  0  0
   45.9490   32.7970   35.4290 O   0  0  0  0  0  0  0  0  0  0  0  0
   45.7650   30.2440   35.8560 C   0  0  0  0  0  3  0  0  0  0  0  0
   45.3000   29.6870   35.0380 H   0  0  0  0  0  0  0  0  0  0  0  0
   45.0150   30.1970   37.1610 C   0  0  2  0  0  3  0  0  0  0  0  0
   43.7120   28.9470   37.2780 S   0  0  0  0  0  0  0  0  0  0  0  0
   42.1050   29.6620   36.8510 C   0  0  0  0  0  3  0  0  0  0  0  0
   42.0680   29.6550   35.7240 H   0  0  0  0  0  0  0  0  0  0  0  0
   42.9820   33.3130   37.4880 C   0  0  0  0  0  0  0  0  0  0  0  0
   43.0160   34.0720   38.4610 O   0  0  0  0  0  0  0  0  0  0  0  0
   42.8330   34.3200   36.5860 O   0  0  0  0  0  0  0  0  0  0  0  0
   43.5200   34.9760   36.2750 H   0  0  0  0  0  0  0  0  0  0  0  0
  1 37  1  0  0  0  0
  1  2  1  0  0  0  0
  2 18  1  0  0  0  0
  3  7  1  0  0  0  0
  3  2  2  0  0  0  0
  4  3  1  0  0  0  0
  5  6  1  0  0  0  0
  5  4  2  0  0  0  0
  6  1  2  0  0  0  0
  8  4  1  0  0  0  0
  9  5  1  0  0  0  0
 10 19  1  0  0  0  0
 11 10  2  0  0  0  0
 11 12  1  0  0  0  0
 12 13  2  0  0  0  0
 13 14  1  0  0  0  0
 13 22  1  0  0  0  0
 14 15  1  0  0  0  0
 15 16  2  0  0  0  0
 15 23  1  0  0  0  0
 16 24  1  0  0  0  0
 17 25  1  0  0  0  0
 17 16  1  0  0  0  0
 18 17  2  0  0  0  0
 19 18  1  0  0  0  0
 19 14  2  0  0  0  0
 20 11  1  0  0  0  0
 21 12  1  0  0  0  0
 26 31  1  0  0  0  0
 27 28  1  0  0  0  0
 27 26  2  0  0  0  0
 28 29  2  0  0  0  0
 29 30  1  0  0  0  0
 30 10  1  0  0  0  0
 31 30  2  0  0  0  0
 32 26  1  0  0  0  0
 33 27  1  0  0  0  0
 34 35  1  0  0  0  0
 34 28  1  0  0  0  0
 36 34  1  0  0  0  0
 38 37  1  0  0  0  0
 39  6  1  0  0  0  0
 40 39  1  0  0  0  0
 41 40  1  0  0  0  0
 42 41  2  0  0  0  0
 42 52  1  0  0  0  0
 43 42  1  0  0  0  0
 43 48  1  0  0  0  0
 44 43  1  0  0  0  0
 45 44  2  0  0  0  0
 46 44  1  0  0  0  0
 47 46  1  0  0  0  0
 48 46  1  6  0  0  0
 48 49  1  0  0  0  0
 50 41  1  0  0  0  0
 50 49  1  0  0  0  0
 51 50  1  0  0  0  0
 52 53  2  0  0  0  0
 54 52  1  0  0  0  0
 55 54  1  0  0  0  0
M  END
>  <minimizedAffinity>
-8.05704594

$$$$

 OpenBabel03242521573D

 55 60  0  0  1  0  0  0  0  0999 V2000
   38.4770   29.9460   41.1050 C   0  0  0  0  0  0  0  0  0  0  0  0
   37.0510   29.7150   41.0030 C   0  0  0  0  0  0  0  0  0  0  0  0
   36.4270   30.8240   40.6140 C   0  0  0  0  0  0  0  0  0  0  0  0
   37.0240   32.0370   40.3450 C   0  0  0  0  0  0  0  0  0  0  0  0
   38.3720   32.2310   40.4530 C   0  0  0  0  0  0  0  0  0  0  0  0
   39.1130   31.1440   40.8470 C   0  0  0  0  0  0  0  0  0  0  0  0
   35.3590   30.5540   40.5600 H   0  0  0  0  0  0  0  0  0  0  0  0
   36.2930   32.7890   40.0450 H   0  0  0  0  0  0  0  0  0  0  0  0
   38.6440   33.2420   40.2050 H   0  0  0  0  0  0  0  0  0  0  0  0
   36.9050   26.9010   39.7970 C   0  0  0  0  0  0  0  0  0  0  0  0
   37.1060   25.5600   39.4730 C   0  0  0  0  0  0  0  0  0  0  0  0
   37.2520   24.5560   40.4360 C   0  0  0  0  0  0  0  0  0  0  0  0
   37.1990   24.8600   41.7670 C   0  0  0  0  0  0  0  0  0  0  0  0
   37.0050   26.2080   42.1240 C   0  0  0  0  0  0  0  0  0  0  0  0
   37.0130   26.4760   43.4570 C   0  0  0  0  0  0  0  0  0  0  0  0
   36.8970   27.8130   43.8420 C   0  0  0  0  0  0  0  0  0  0  0  0
   36.7840   28.8210   42.8170 C   0  0  0  0  0  0  0  0  0  0  0  0
   36.7920   28.3840   41.5130 C   0  0  0  0  0  0  0  0  0  0  0  0
   36.8770   27.1340   41.0860 C   0  0  0  0  0  0  0  0  0  0  0  0
   37.1500   25.3030   38.4010 H   0  0  0  0  0  0  0  0  0  0  0  0
   37.4030   23.5510   40.0450 H   0  0  0  0  0  0  0  0  0  0  0  0
   37.3050   24.0800   42.4970 H   0  0  0  0  0  0  0  0  0  0  0  0
   37.1060   25.6840   44.1850 H   0  0  0  0  0  0  0  0  0  0  0  0
   36.9060   27.9520   44.9130 H   0  0  0  0  0  0  0  0  0  0  0  0
   36.7130   29.7270   43.3980 H   0  0  0  0  0  0  0  0  0  0  0  0
   36.5540   29.3620   37.0130 C   0  0  0  0  0  0  0  0  0  0  0  0
   35.1430   29.4380   36.9350 C   0  0  0  0  0  0  0  0  0  0  0  0
   34.4410   28.6750   37.8420 C   0  0  0  0  0  0  0  0  0  0  0  0
   35.1850   27.9570   38.6790 N   0  0  0  0  0  0  0  0  0  0  0  0
   36.5070   27.8610   38.7800 C   0  0  0  0  0  0  0  0  0  0  0  0
   37.1570   28.5890   37.9220 N   0  0  0  0  0  0  0  0  0  0  0  0
   37.1030   29.9470   36.3190 H   0  0  0  0  0  0  0  0  0  0  0  0
   34.6320   30.0480   36.2160 H   0  0  0  0  0  0  0  0  0  0  0  0
   33.0260   28.7000   37.9190 N   0  0  0  0  0  0  0  0  0  0  0  0
   32.7800   27.7660   37.4990 H   0  0  0  0  0  0  0  0  0  0  0  0
   32.4070   29.4520   38.2970 H   0  0  0  0  0  0  0  0  0  0  0  0
   39.4610   28.9910   41.4830 O   0  0  0  0  0  0  0  0  0  0  0  0
   40.0270   28.6180   40.7400 H   0  0  0  0  0  0  0  0  0  0  0  0
   40.4620   31.4010   40.9420 O   0  0  0  0  0  0  0  0  0  0  0  0
   40.9610   32.5870   40.3580 C   0  0  0  0  0  2  0  0  0  0  0  0
   42.0900   32.3100   39.4340 C   0  0  0  0  0  0  0  0  0  0  0  0
   41.9800   31.9160   38.1820 C   0  0  0  0  0  0  0  0  0  0  0  0
   43.0890   31.6620   37.3280 N   0  0  0  0  0  0  0  0  0  0  0  0
   43.6560   30.7470   36.3650 C   0  0  0  0  0  0  0  0  0  0  0  0
   43.1450   29.9060   35.5790 O   0  0  0  0  0  0  0  0  0  0  0  0
   45.0150   31.2710   36.7530 C   0  0  0  0  0  3  0  0  0  0  0  0
   45.5130   30.7370   37.5670 H   0  0  0  0  0  0  0  0  0  0  0  0
   44.2800   32.5170   37.1690 C   0  0  2  0  0  3  0  0  0  0  0  0
   44.6500   33.1340   38.8300 S   0  0  0  0  0  0  0  0  0  0  0  0
   43.4390   32.5130   40.0240 C   0  0  0  0  0  3  0  0  0  0  0  0
   43.7880   31.4740   40.2860 H   0  0  0  0  0  0  0  0  0  0  0  0
   40.6550   31.7000   37.5540 C   0  0  0  0  0  0  0  0  0  0  0  0
   39.7420   30.8730   37.4880 O   0  0  0  0  0  0  0  0  0  0  0  0
   40.0390   32.5880   36.7290 O   0  0  0  0  0  0  0  0  0  0  0  0
   39.2550   33.1750   36.9290 H   0  0  0  0  0  0  0  0  0  0  0  0
  1 37  1  0  0  0  0
  2  1  1  0  0  0  0
  2 18  1  0  0  0  0
  3  2  2  0  0  0  0
  4  5  2  0  0  0  0
  4  3  1  0  0  0  0
  5  6  1  0  0  0  0
  6 39  1  0  0  0  0
  6  1  2  0  0  0  0
  7  3  1  0  0  0  0
  8  4  1  0  0  0  0
  9  5  1  0  0  0  0
 10 19  1  0  0  0  0
 11 10  2  0  0  0  0
 11 12  1  0  0  0  0
 12 13  2  0  0  0  0
 13 14  1  0  0  0  0
 13 22  1  0  0  0  0
 14 15  1  0  0  0  0
 15 16  2  0  0  0  0
 15 23  1  0  0  0  0
 16 24  1  0  0  0  0
 17 25  1  0  0  0  0
 17 16  1  0  0  0  0
 18 17  2  0  0  0  0
 19 18  1  0  0  0  0
 19 14  2  0  0  0  0
 20 11  1  0  0  0  0
 21 12  1  0  0  0  0
 26 31  1  0  0  0  0
 27 26  2  0  0  0  0
 27 28  1  0  0  0  0
 28 34  1  0  0  0  0
 28 29  2  0  0  0  0
 29 30  1  0  0  0  0
 30 10  1  0  0  0  0
 31 30  2  0  0  0  0
 32 26  1  0  0  0  0
 33 27  1  0  0  0  0
 34 36  1  0  0  0  0
 35 34  1  0  0  0  0
 38 37  1  0  0  0  0
 40 39  1  0  0  0  0
 41 50  1  0  0  0  0
 41 40  1  0  0  0  0
 42 41  2  0  0  0  0
 43 42  1  0  0  0  0
 44 46  1  0  0  0  0
 44 43  1  0  0  0  0
 45 44  2  0  0  0  0
 46 47  1  0  0  0  0
 48 46  1  1  0  0  0
 48 43  1  0  0  0  0
 48 49  1  0  0  0  0
 49 50  1  0  0  0  0
 50 51  1  0  0  0  0
 52 42  1  0  0  0  0
 53 52  2  0  0  0  0
 54 55  1  0  0  0  0
 54 52  1  0  0  0  0
M  END
>  <minimizedAffinity>
-7.76943111

$$$$

 OpenBabel03242521573D

 55 60  0  0  1  0  0  0  0  0999 V2000
   38.2770   29.7790   40.4000 C   0  0  0  0  0  0  0  0  0  0  0  0
   36.8750   29.4170   40.4390 C   0  0  0  0  0  0  0  0  0  0  0  0
   36.1310   30.3800   39.9010 C   0  0  0  0  0  0  0  0  0  0  0  0
   36.5980   31.5670   39.3760 C   0  0  0  0  0  0  0  0  0  0  0  0
   37.9260   31.8870   39.3550 C   0  0  0  0  0  0  0  0  0  0  0  0
   38.7850   30.9570   39.8870 C   0  0  0  0  0  0  0  0  0  0  0  0
   35.0920   30.0190   39.9700 H   0  0  0  0  0  0  0  0  0  0  0  0
   35.7850   32.1880   38.9960 H   0  0  0  0  0  0  0  0  0  0  0  0
   38.0890   32.8540   38.9100 H   0  0  0  0  0  0  0  0  0  0  0  0
   36.8710   26.4270   39.7670 C   0  0  0  0  0  0  0  0  0  0  0  0
   37.1580   25.0660   39.6680 C   0  0  0  0  0  0  0  0  0  0  0  0
   37.4610   24.2670   40.7750 C   0  0  0  0  0  0  0  0  0  0  0  0
   37.4860   24.8060   42.0320 C   0  0  0  0  0  0  0  0  0  0  0  0
   37.2080   26.1800   42.1610 C   0  0  0  0  0  0  0  0  0  0  0  0
   37.2980   26.6880   43.4190 C   0  0  0  0  0  0  0  0  0  0  0  0
   37.1010   28.0610   43.5720 C   0  0  0  0  0  0  0  0  0  0  0  0
   36.8250   28.8540   42.3990 C   0  0  0  0  0  0  0  0  0  0  0  0
   36.7680   28.1880   41.1980 C   0  0  0  0  0  0  0  0  0  0  0  0
   36.9240   26.8900   40.9920 C   0  0  0  0  0  0  0  0  0  0  0  0
   37.1400   24.6210   38.6590 H   0  0  0  0  0  0  0  0  0  0  0  0
   37.6650   23.2210   40.5560 H   0  0  0  0  0  0  0  0  0  0  0  0
   37.7130   24.1810   42.8740 H   0  0  0  0  0  0  0  0  0  0  0  0
   37.5120   26.0500   44.2640 H   0  0  0  0  0  0  0  0  0  0  0  0
   37.1810   28.3940   44.5960 H   0  0  0  0  0  0  0  0  0  0  0  0
   36.7240   29.8440   42.8160 H   0  0  0  0  0  0  0  0  0  0  0  0
   34.8560   28.2740   37.2270 C   0  0  0  0  0  0  0  0  0  0  0  0
   35.8920   28.7090   36.3660 C   0  0  0  0  0  0  0  0  0  0  0  0
   37.1680   28.3190   36.7050 C   0  0  0  0  0  0  0  0  0  0  0  0
   37.2640   27.5800   37.8080 N   0  0  0  0  0  0  0  0  0  0  0  0
   36.3170   27.1560   38.6370 C   0  0  0  0  0  0  0  0  0  0  0  0
   35.1170   27.5280   38.3040 N   0  0  0  0  0  0  0  0  0  0  0  0
   33.8680   28.5680   36.9720 H   0  0  0  0  0  0  0  0  0  0  0  0
   35.7120   29.3090   35.4960 H   0  0  0  0  0  0  0  0  0  0  0  0
   38.2940   28.6290   35.9030 N   0  0  0  0  0  0  0  0  0  0  0  0
   38.7630   29.3730   36.4830 H   0  0  0  0  0  0  0  0  0  0  0  0
   38.5730   28.2180   34.9830 H   0  0  0  0  0  0  0  0  0  0  0  0
   39.3640   28.9950   40.8750 O   0  0  0  0  0  0  0  0  0  0  0  0
   39.9230   28.5380   40.1750 H   0  0  0  0  0  0  0  0  0  0  0  0
   40.1060   31.3370   39.8410 O   0  0  0  0  0  0  0  0  0  0  0  0
   40.4120   32.7140   39.9170 C   0  0  0  0  0  2  0  0  0  0  0  0
   41.8720   32.9460   40.0610 C   0  0  0  0  0  0  0  0  0  0  0  0
   42.7190   33.1520   39.0740 C   0  0  0  0  0  0  0  0  0  0  0  0
   44.1120   33.3710   39.2550 N   0  0  0  0  0  0  0  0  0  0  0  0
   45.4350   33.0210   38.7920 C   0  0  0  0  0  0  0  0  0  0  0  0
   45.8720   32.5980   37.6900 O   0  0  0  0  0  0  0  0  0  0  0  0
   45.9490   33.3860   40.1620 C   0  0  0  0  0  3  0  0  0  0  0  0
   45.9770   32.5710   40.8900 H   0  0  0  0  0  0  0  0  0  0  0  0
   44.7310   34.2690   40.2470 C   0  0  2  0  0  3  0  0  0  0  0  0
   43.7300   34.0910   41.7430 S   0  0  0  0  0  0  0  0  0  0  0  0
   42.3670   32.9330   41.4620 C   0  0  0  0  0  3  0  0  0  0  0  0
   42.8170   31.9080   41.5910 H   0  0  0  0  0  0  0  0  0  0  0  0
   42.2690   33.1700   37.6620 C   0  0  0  0  0  0  0  0  0  0  0  0
   41.6560   32.4900   36.8350 O   0  0  0  0  0  0  0  0  0  0  0  0
   42.5010   34.1900   36.7920 O   0  0  0  0  0  0  0  0  0  0  0  0
   41.8520   34.8690   36.4510 H   0  0  0  0  0  0  0  0  0  0  0  0
  1  2  1  0  0  0  0
  1 37  1  0  0  0  0
  2 18  1  0  0  0  0
  3  7  1  0  0  0  0
  3  2  2  0  0  0  0
  4  3  1  0  0  0  0
  5  4  2  0  0  0  0
  5  6  1  0  0  0  0
  6  1  2  0  0  0  0
  8  4  1  0  0  0  0
  9  5  1  0  0  0  0
 10 19  1  0  0  0  0
 11 10  2  0  0  0  0
 11 12  1  0  0  0  0
 12 13  2  0  0  0  0
 13 14  1  0  0  0  0
 13 22  1  0  0  0  0
 14 15  1  0  0  0  0
 15 16  2  0  0  0  0
 15 23  1  0  0  0  0
 16 24  1  0  0  0  0
 17 25  1  0  0  0  0
 17 16  1  0  0  0  0
 18 17  2  0  0  0  0
 19 18  1  0  0  0  0
 19 14  2  0  0  0  0
 20 11  1  0  0  0  0
 21 12  1  0  0  0  0
 26 31  1  0  0  0  0
 27 28  1  0  0  0  0
 27 26  2  0  0  0  0
 28 29  2  0  0  0  0
 29 30  1  0  0  0  0
 30 10  1  0  0  0  0
 31 30  2  0  0  0  0
 32 26  1  0  0  0  0
 33 27  1  0  0  0  0
 34 35  1  0  0  0  0
 34 28  1  0  0  0  0
 36 34  1  0  0  0  0
 38 37  1  0  0  0  0
 39  6  1  0  0  0  0
 39 40  1  0  0  0  0
 40 41  1  0  0  0  0
 41 50  1  0  0  0  0
 42 43  1  0  0  0  0
 42 41  2  0  0  0  0
 43 48  1  0  0  0  0
 44 43  1  0  0  0  0
 44 46  1  0  0  0  0
 45 44  2  0  0  0  0
 46 47  1  0  0  0  0
 48 46  1  1  0  0  0
 48 49  1  0  0  0  0
 50 51  1  0  0  0  0
 50 49  1  0  0  0  0
 52 42  1  0  0  0  0
 53 52  2  0  0  0  0
 54 52  1  0  0  0  0
 55 54  1  0  0  0  0
M  END
>  <minimizedAffinity>
-7.64499378

$$$$

 OpenBabel03242521573D

 55 60  0  0  1  0  0  0  0  0999 V2000
   38.2180   27.9110   41.5500 C   0  0  0  0  0  0  0  0  0  0  0  0
   37.0280   27.0860   41.5230 C   0  0  0  0  0  0  0  0  0  0  0  0
   36.4720   27.0330   42.7310 C   0  0  0  0  0  0  0  0  0  0  0  0
   36.9400   27.6590   43.8670 C   0  0  0  0  0  0  0  0  0  0  0  0
   38.0680   28.4290   43.8670 C   0  0  0  0  0  0  0  0  0  0  0  0
   38.7210   28.5520   42.6660 C   0  0  0  0  0  0  0  0  0  0  0  0
   35.5810   26.3940   42.6130 H   0  0  0  0  0  0  0  0  0  0  0  0
   36.3040   27.4570   44.7300 H   0  0  0  0  0  0  0  0  0  0  0  0
   38.2710   28.8270   44.8470 H   0  0  0  0  0  0  0  0  0  0  0  0
   37.8650   24.4040   40.2990 C   0  0  0  0  0  0  0  0  0  0  0  0
   37.8970   23.1560   39.6780 C   0  0  0  0  0  0  0  0  0  0  0  0
   37.2270   22.8800   38.4820 C   0  0  0  0  0  0  0  0  0  0  0  0
   36.4970   23.8530   37.8570 C   0  0  0  0  0  0  0  0  0  0  0  0
   36.4390   25.1210   38.4650 C   0  0  0  0  0  0  0  0  0  0  0  0
   35.6580   26.0430   37.8420 C   0  0  0  0  0  0  0  0  0  0  0  0
   35.5200   27.2880   38.4590 C   0  0  0  0  0  0  0  0  0  0  0  0
   36.2000   27.5190   39.7100 C   0  0  0  0  0  0  0  0  0  0  0  0
   36.9520   26.4810   40.2090 C   0  0  0  0  0  0  0  0  0  0  0  0
   37.1380   25.2900   39.6630 C   0  0  0  0  0  0  0  0  0  0  0  0
   38.4840   22.3640   40.1730 H   0  0  0  0  0  0  0  0  0  0  0  0
   37.3370   21.8640   38.1070 H   0  0  0  0  0  0  0  0  0  0  0  0
   35.9930   23.6310   36.9360 H   0  0  0  0  0  0  0  0  0  0  0  0
   35.1660   25.8170   36.9080 H   0  0  0  0  0  0  0  0  0  0  0  0
   34.8920   27.9710   37.9070 H   0  0  0  0  0  0  0  0  0  0  0  0
   35.9150   28.5340   39.9370 H   0  0  0  0  0  0  0  0  0  0  0  0
   39.7330   24.8680   43.4960 C   0  0  0  0  0  0  0  0  0  0  0  0
   40.9480   25.3890   42.9910 C   0  0  0  0  0  0  0  0  0  0  0  0
   41.0170   25.5610   41.6270 C   0  0  0  0  0  0  0  0  0  0  0  0
   39.9250   25.2090   40.9530 N   0  0  0  0  0  0  0  0  0  0  0  0
   38.7720   24.7170   41.3910 C   0  0  0  0  0  0  0  0  0  0  0  0
   38.7190   24.5640   42.6810 N   0  0  0  0  0  0  0  0  0  0  0  0
   39.6700   24.7330   44.5460 H   0  0  0  0  0  0  0  0  0  0  0  0
   41.7790   25.6410   43.6210 H   0  0  0  0  0  0  0  0  0  0  0  0
   42.1480   26.1310   40.9900 N   0  0  0  0  0  0  0  0  0  0  0  0
   42.5780   25.2840   40.5360 H   0  0  0  0  0  0  0  0  0  0  0  0
   42.4570   27.1290   40.9820 H   0  0  0  0  0  0  0  0  0  0  0  0
   39.0660   28.2040   40.4470 O   0  0  0  0  0  0  0  0  0  0  0  0
   38.9800   29.1240   40.0510 H   0  0  0  0  0  0  0  0  0  0  0  0
   39.8510   29.3350   42.7300 O   0  0  0  0  0  0  0  0  0  0  0  0
   39.7070   30.7340   42.5960 C   0  0  0  0  0  2  0  0  0  0  0  0
   40.0350   31.1910   41.2210 C   0  0  0  0  0  0  0  0  0  0  0  0
   39.1690   31.6130   40.3230 C   0  0  0  0  0  0  0  0  0  0  0  0
   39.5250   32.0440   39.0160 N   0  0  0  0  0  0  0  0  0  0  0  0
   39.2010   31.9550   37.6110 C   0  0  0  0  0  0  0  0  0  0  0  0
   38.1340   31.7000   36.9940 O   0  0  0  0  0  0  0  0  0  0  0  0
   40.6410   32.2880   37.3160 C   0  0  0  0  0  3  0  0  0  0  0  0
   41.3160   31.4330   37.2240 H   0  0  0  0  0  0  0  0  0  0  0  0
   40.6360   32.9490   38.6690 C   0  0  2  0  0  3  0  0  0  0  0  0
   41.9910   32.4870   39.7770 S   0  0  0  0  0  0  0  0  0  0  0  0
   41.4810   31.1470   40.8820 C   0  0  0  0  0  3  0  0  0  0  0  0
   41.5980   30.2030   40.2770 H   0  0  0  0  0  0  0  0  0  0  0  0
   37.7170   31.6710   40.6180 C   0  0  0  0  0  0  0  0  0  0  0  0
   36.7820   30.9650   41.0030 O   0  0  0  0  0  0  0  0  0  0  0  0
   36.9490   32.7860   40.4920 O   0  0  0  0  0  0  0  0  0  0  0  0
   36.5780   33.3650   41.2180 H   0  0  0  0  0  0  0  0  0  0  0  0
  1  6  1  0  0  0  0
  2  1  2  0  0  0  0
  2  3  1  0  0  0  0
  3  4  2  0  0  0  0
  4  8  1  0  0  0  0
  5  4  1  0  0  0  0
  5  9  1  0  0  0  0
  6 39  1  0  0  0  0
  6  5  2  0  0  0  0
  7  3  1  0  0  0  0
 10 30  1  0  0  0  0
 11 20  1  0  0  0  0
 11 10  1  0  0  0  0
 12 11  2  0  0  0  0
 13 14  2  0  0  0  0
 13 12  1  0  0  0  0
 14 19  1  0  0  0  0
 15 16  2  0  0  0  0
 15 14  1  0  0  0  0
 16 17  1  0  0  0  0
 17 25  1  0  0  0  0
 17 18  2  0  0  0  0
 18  2  1  0  0  0  0
 19 18  1  0  0  0  0
 19 10  2  0  0  0  0
 21 12  1  0  0  0  0
 22 13  1  0  0  0  0
 23 15  1  0  0  0  0
 24 16  1  0  0  0  0
 26 32  1  0  0  0  0
 27 26  1  0  0  0  0
 27 33  1  0  0  0  0
 28 27  2  0  0  0  0
 29 30  2  0  0  0  0
 29 28  1  0  0  0  0
 30 31  1  0  0  0  0
 31 26  2  0  0  0  0
 34 28  1  0  0  0  0
 35 34  1  0  0  0  0
 36 34  1  0  0  0  0
 37  1  1  0  0  0  0
 38 37  1  0  0  0  0
 40 39  1  0  0  0  0
 41 40  1  0  0  0  0
 42 52  1  0  0  0  0
 42 41  2  0  0  0  0
 43 42  1  0  0  0  0
 44 43  1  0  0  0  0
 45 44  2  0  0  0  0
 46 44  1  0  0  0  0
 47 46  1  0  0  0  0
 48 46  1  6  0  0  0
 48 43  1  0  0  0  0
 48 49  1  0  0  0  0
 49 50  1  0  0  0  0
 50 41  1  0  0  0  0
 51 50  1  0  0  0  0
 52 53  2  0  0  0  0
 54 52  1  0  0  0  0
 54 55  1  0  0  0  0
M  END
>  <minimizedAffinity>
-7.52121973

$$$$

 OpenBabel03242521573D

 55 60  0  0  1  0  0  0  0  0999 V2000
   38.5240   29.8530   39.4390 C   0  0  0  0  0  0  0  0  0  0  0  0
   37.1770   29.9790   39.9580 C   0  0  0  0  0  0  0  0  0  0  0  0
   36.6250   31.1170   39.5440 C   0  0  0  0  0  0  0  0  0  0  0  0
   37.2240   32.0630   38.7410 C   0  0  0  0  0  0  0  0  0  0  0  0
   38.4980   31.9230   38.2670 C   0  0  0  0  0  0  0  0  0  0  0  0
   39.1600   30.7770   38.6340 C   0  0  0  0  0  0  0  0  0  0  0  0
   35.6120   31.1240   39.9800 H   0  0  0  0  0  0  0  0  0  0  0  0
   36.5600   32.9060   38.5460 H   0  0  0  0  0  0  0  0  0  0  0  0
   38.7870   32.7650   37.6630 H   0  0  0  0  0  0  0  0  0  0  0  0
   36.5340   26.9940   39.6860 C   0  0  0  0  0  0  0  0  0  0  0  0
   36.5530   25.6010   39.7300 C   0  0  0  0  0  0  0  0  0  0  0  0
   36.8690   24.8780   40.8840 C   0  0  0  0  0  0  0  0  0  0  0  0
   37.1770   25.5280   42.0460 C   0  0  0  0  0  0  0  0  0  0  0  0
   37.1740   26.9350   42.0300 C   0  0  0  0  0  0  0  0  0  0  0  0
   37.5400   27.5430   43.1900 C   0  0  0  0  0  0  0  0  0  0  0  0
   37.6190   28.9370   43.1860 C   0  0  0  0  0  0  0  0  0  0  0  0
   37.3190   29.6430   41.9650 C   0  0  0  0  0  0  0  0  0  0  0  0
   36.9650   28.8800   40.8770 C   0  0  0  0  0  0  0  0  0  0  0  0
   36.8520   27.5620   40.8240 C   0  0  0  0  0  0  0  0  0  0  0  0
   36.3050   25.0660   38.7980 H   0  0  0  0  0  0  0  0  0  0  0  0
   36.8450   23.7950   40.7790 H   0  0  0  0  0  0  0  0  0  0  0  0
   37.4110   24.9620   42.9280 H   0  0  0  0  0  0  0  0  0  0  0  0
   37.7600   26.9670   44.0760 H   0  0  0  0  0  0  0  0  0  0  0  0
   37.9100   29.3520   44.1400 H   0  0  0  0  0  0  0  0  0  0  0  0
   37.4610   30.6710   42.2590 H   0  0  0  0  0  0  0  0  0  0  0  0
   34.5260   28.9230   37.2010 C   0  0  0  0  0  0  0  0  0  0  0  0
   35.4880   29.0640   36.1720 C   0  0  0  0  0  0  0  0  0  0  0  0
   36.7120   28.4770   36.3980 C   0  0  0  0  0  0  0  0  0  0  0  0
   36.8360   27.8490   37.5650 N   0  0  0  0  0  0  0  0  0  0  0  0
   35.9580   27.6970   38.5510 C   0  0  0  0  0  0  0  0  0  0  0  0
   34.8060   28.2530   38.3230 N   0  0  0  0  0  0  0  0  0  0  0  0
   33.5780   29.3710   37.0350 H   0  0  0  0  0  0  0  0  0  0  0  0
   35.2910   29.5970   35.2620 H   0  0  0  0  0  0  0  0  0  0  0  0
   37.7480   28.4860   35.4310 N   0  0  0  0  0  0  0  0  0  0  0  0
   38.4160   29.1830   35.8510 H   0  0  0  0  0  0  0  0  0  0  0  0
   37.8150   27.9390   34.5430 H   0  0  0  0  0  0  0  0  0  0  0  0
   39.4150   28.7680   39.6620 O   0  0  0  0  0  0  0  0  0  0  0  0
   39.5390   28.1290   38.8960 H   0  0  0  0  0  0  0  0  0  0  0  0
   40.4390   30.6950   38.1320 O   0  0  0  0  0  0  0  0  0  0  0  0
   41.1930   31.8840   38.0180 C   0  0  0  0  0  2  0  0  0  0  0  0
   42.2550   31.9620   39.0540 C   0  0  0  0  0  0  0  0  0  0  0  0
   42.1480   32.5660   40.2200 C   0  0  0  0  0  0  0  0  0  0  0  0
   43.1900   32.6180   41.1860 N   0  0  0  0  0  0  0  0  0  0  0  0
   43.9130   33.4690   42.1020 C   0  0  0  0  0  0  0  0  0  0  0  0
   43.6110   34.5360   42.6980 O   0  0  0  0  0  0  0  0  0  0  0  0
   45.0760   32.5180   41.9780 C   0  0  0  0  0  3  0  0  0  0  0  0
   45.7930   32.7470   41.1850 H   0  0  0  0  0  0  0  0  0  0  0  0
   44.0370   31.4900   41.6160 C   0  0  2  0  0  3  0  0  0  0  0  0
   44.3610   30.5370   40.1120 S   0  0  0  0  0  0  0  0  0  0  0  0
   43.5260   31.2850   38.6910 C   0  0  0  0  0  3  0  0  0  0  0  0
   44.2030   32.1220   38.3570 H   0  0  0  0  0  0  0  0  0  0  0  0
   40.8990   33.2560   40.6210 C   0  0  0  0  0  0  0  0  0  0  0  0
   40.2880   34.3160   40.4630 O   0  0  0  0  0  0  0  0  0  0  0  0
   39.9530   32.7220   41.4400 O   0  0  0  0  0  0  0  0  0  0  0  0
   39.0500   32.3710   41.1930 H   0  0  0  0  0  0  0  0  0  0  0  0
  1 37  1  0  0  0  0
  1  2  1  0  0  0  0
  2 18  1  0  0  0  0
  3  2  2  0  0  0  0
  3  7  1  0  0  0  0
  4  3  1  0  0  0  0
  5  6  1  0  0  0  0
  5  4  2  0  0  0  0
  6  1  2  0  0  0  0
  8  4  1  0  0  0  0
  9  5  1  0  0  0  0
 10 11  2  0  0  0  0
 10 19  1  0  0  0  0
 11 12  1  0  0  0  0
 12 13  2  0  0  0  0
 13 22  1  0  0  0  0
 14 13  1  0  0  0  0
 14 15  1  0  0  0  0
 15 23  1  0  0  0  0
 16 15  2  0  0  0  0
 16 24  1  0  0  0  0
 17 25  1  0  0  0  0
 17 16  1  0  0  0  0
 18 17  2  0  0  0  0
 19 18  1  0  0  0  0
 19 14  2  0  0  0  0
 20 11  1  0  0  0  0
 21 12  1  0  0  0  0
 26 31  1  0  0  0  0
 27 28  1  0  0  0  0
 27 26  2  0  0  0  0
 28 29  2  0  0  0  0
 29 30  1  0  0  0  0
 30 10  1  0  0  0  0
 31 30  2  0  0  0  0
 32 26  1  0  0  0  0
 33 27  1  0  0  0  0
 34 35  1  0  0  0  0
 34 28  1  0  0  0  0
 36 34  1  0  0  0  0
 38 37  1  0  0  0  0
 39  6  1  0  0  0  0
 40 39  1  0  0  0  0
 40 41  1  0  0  0  0
 41 42  2  0  0  0  0
 42 52  1  0  0  0  0
 42 43  1  0  0  0  0
 43 48  1  0  0  0  0
 43 44  1  0  0  0  0
 44 45  2  0  0  0  0
 46 44  1  0  0  0  0
 47 46  1  0  0  0  0
 48 49  1  6  0  0  0
 48 46  1  0  0  0  0
 50 41  1  0  0  0  0
 50 49  1  0  0  0  0
 51 50  1  0  0  0  0
 52 54  1  0  0  0  0
 53 52  2  0  0  0  0
 55 54  1  0  0  0  0
M  END
>  <minimizedAffinity>
-7.43908739

$$$$

 OpenBabel03242521573D

 55 60  0  0  1  0  0  0  0  0999 V2000
   37.7010   28.8910   39.9710 C   0  0  0  0  0  0  0  0  0  0  0  0
   36.6710   27.9360   39.6160 C   0  0  0  0  0  0  0  0  0  0  0  0
   35.4670   28.4200   39.9100 C   0  0  0  0  0  0  0  0  0  0  0  0
   35.2040   29.6500   40.4760 C   0  0  0  0  0  0  0  0  0  0  0  0
   36.1940   30.5320   40.8050 C   0  0  0  0  0  0  0  0  0  0  0  0
   37.4800   30.1300   40.5410 C   0  0  0  0  0  0  0  0  0  0  0  0
   34.7550   27.6350   39.6050 H   0  0  0  0  0  0  0  0  0  0  0  0
   34.1340   29.8090   40.6160 H   0  0  0  0  0  0  0  0  0  0  0  0
   35.7890   31.4310   41.2370 H   0  0  0  0  0  0  0  0  0  0  0  0
   37.4430   25.2990   40.9760 C   0  0  0  0  0  0  0  0  0  0  0  0
   37.5790   23.9630   41.3470 C   0  0  0  0  0  0  0  0  0  0  0  0
   37.8200   22.9360   40.4280 C   0  0  0  0  0  0  0  0  0  0  0  0
   37.9360   23.2130   39.0940 C   0  0  0  0  0  0  0  0  0  0  0  0
   37.7940   24.5540   38.6890 C   0  0  0  0  0  0  0  0  0  0  0  0
   37.8600   24.7800   37.3500 C   0  0  0  0  0  0  0  0  0  0  0  0
   37.6500   26.0880   36.9090 C   0  0  0  0  0  0  0  0  0  0  0  0
   37.3710   27.1100   37.8870 C   0  0  0  0  0  0  0  0  0  0  0  0
   37.3380   26.7170   39.2040 C   0  0  0  0  0  0  0  0  0  0  0  0
   37.5480   25.5020   39.6850 C   0  0  0  0  0  0  0  0  0  0  0  0
   37.4880   23.7280   42.4200 H   0  0  0  0  0  0  0  0  0  0  0  0
   37.9050   21.9380   40.8530 H   0  0  0  0  0  0  0  0  0  0  0  0
   38.1270   22.4180   38.3990 H   0  0  0  0  0  0  0  0  0  0  0  0
   38.0680   23.9770   36.6590 H   0  0  0  0  0  0  0  0  0  0  0  0
   37.7230   26.1940   35.8370 H   0  0  0  0  0  0  0  0  0  0  0  0
   37.2570   27.9870   37.2690 H   0  0  0  0  0  0  0  0  0  0  0  0
   36.7980   27.8260   43.6450 C   0  0  0  0  0  0  0  0  0  0  0  0
   38.1190   28.2850   43.8670 C   0  0  0  0  0  0  0  0  0  0  0  0
   39.0990   27.7210   43.0810 C   0  0  0  0  0  0  0  0  0  0  0  0
   38.6760   26.8090   42.2100 N   0  0  0  0  0  0  0  0  0  0  0  0
   37.4490   26.3550   41.9760 C   0  0  0  0  0  0  0  0  0  0  0  0
   36.5340   26.8980   42.7210 N   0  0  0  0  0  0  0  0  0  0  0  0
   36.0360   28.2560   44.2460 H   0  0  0  0  0  0  0  0  0  0  0  0
   38.3610   29.0270   44.6020 H   0  0  0  0  0  0  0  0  0  0  0  0
   40.4550   28.1280   43.1510 N   0  0  0  0  0  0  0  0  0  0  0  0
   40.8920   27.3060   43.6440 H   0  0  0  0  0  0  0  0  0  0  0  0
   40.8890   29.0110   42.8000 H   0  0  0  0  0  0  0  0  0  0  0  0
   39.1020   28.7250   39.7960 O   0  0  0  0  0  0  0  0  0  0  0  0
   39.5190   29.2340   39.0350 H   0  0  0  0  0  0  0  0  0  0  0  0
   38.4310   31.0570   40.8980 O   0  0  0  0  0  0  0  0  0  0  0  0
   38.4200   32.3140   40.2530 C   0  0  0  0  0  2  0  0  0  0  0  0
   39.7310   32.6230   39.6270 C   0  0  0  0  0  0  0  0  0  0  0  0
   40.0980   32.2880   38.4070 C   0  0  0  0  0  0  0  0  0  0  0  0
   41.3650   32.6040   37.8440 N   0  0  0  0  0  0  0  0  0  0  0  0
   42.4850   32.0940   37.0880 C   0  0  0  0  0  0  0  0  0  0  0  0
   42.5990   31.1560   36.2550 O   0  0  0  0  0  0  0  0  0  0  0  0
   43.3370   33.1490   37.7460 C   0  0  0  0  0  3  0  0  0  0  0  0
   43.8210   32.8520   38.6800 H   0  0  0  0  0  0  0  0  0  0  0  0
   42.0480   33.9090   37.9130 C   0  0  2  0  0  3  0  0  0  0  0  0
   41.7130   34.5360   39.5770 S   0  0  0  0  0  0  0  0  0  0  0  0
   40.6710   33.3750   40.4970 C   0  0  0  0  0  3  0  0  0  0  0  0
   41.3780   32.5900   40.8890 H   0  0  0  0  0  0  0  0  0  0  0  0
   39.1930   31.5360   37.5060 C   0  0  0  0  0  0  0  0  0  0  0  0
   38.8170   30.3870   37.2550 O   0  0  0  0  0  0  0  0  0  0  0  0
   38.4100   32.1040   36.5510 O   0  0  0  0  0  0  0  0  0  0  0  0
   37.4180   32.2350   36.5640 H   0  0  0  0  0  0  0  0  0  0  0  0
  1  6  1  0  0  0  0
  2  3  1  0  0  0  0
  2  1  2  0  0  0  0
  3  4  2  0  0  0  0
  4  8  1  0  0  0  0
  4  5  1  0  0  0  0
  5  9  1  0  0  0  0
  6  5  2  0  0  0  0
  6 39  1  0  0  0  0
  7  3  1  0  0  0  0
 10 11  1  0  0  0  0
 10 30  1  0  0  0  0
 11 20  1  0  0  0  0
 12 21  1  0  0  0  0
 12 11  2  0  0  0  0
 13 12  1  0  0  0  0
 14 13  2  0  0  0  0
 14 19  1  0  0  0  0
 15 14  1  0  0  0  0
 16 15  2  0  0  0  0
 16 17  1  0  0  0  0
 17 18  2  0  0  0  0
 18  2  1  0  0  0  0
 18 19  1  0  0  0  0
 19 10  2  0  0  0  0
 22 13  1  0  0  0  0
 23 15  1  0  0  0  0
 24 16  1  0  0  0  0
 25 17  1  0  0  0  0
 26 27  1  0  0  0  0
 26 32  1  0  0  0  0
 27 33  1  0  0  0  0
 28 34  1  0  0  0  0
 28 27  2  0  0  0  0
 29 28  1  0  0  0  0
 30 29  2  0  0  0  0
 30 31  1  0  0  0  0
 31 26  2  0  0  0  0
 34 35  1  0  0  0  0
 36 34  1  0  0  0  0
 37  1  1  0  0  0  0
 38 37  1  0  0  0  0
 40 39  1  0  0  0  0
 41 40  1  0  0  0  0
 41 50  1  0  0  0  0
 42 41  2  0  0  0  0
 43 48  1  0  0  0  0
 43 42  1  0  0  0  0
 44 46  1  0  0  0  0
 44 43  1  0  0  0  0
 45 44  2  0  0  0  0
 46 47  1  0  0  0  0
 48 46  1  1  0  0  0
 48 49  1  0  0  0  0
 49 50  1  0  0  0  0
 50 51  1  0  0  0  0
 52 42  1  0  0  0  0
 53 52  2  0  0  0  0
 54 55  1  0  0  0  0
 54 52  1  0  0  0  0
M  END
>  <minimizedAffinity>
-7.36235523

$$$$

 OpenBabel03242521573D

 55 60  0  0  1  0  0  0  0  0999 V2000
   38.0420   29.3090   40.7800 C   0  0  0  0  0  0  0  0  0  0  0  0
   36.6670   28.8920   40.6030 C   0  0  0  0  0  0  0  0  0  0  0  0
   35.8820   29.9490   40.4060 C   0  0  0  0  0  0  0  0  0  0  0  0
   36.2900   31.2660   40.3750 C   0  0  0  0  0  0  0  0  0  0  0  0
   37.5940   31.6330   40.5490 C   0  0  0  0  0  0  0  0  0  0  0  0
   38.4910   30.6150   40.7580 C   0  0  0  0  0  0  0  0  0  0  0  0
   34.8670   29.5380   40.2780 H   0  0  0  0  0  0  0  0  0  0  0  0
   35.4530   31.9430   40.1980 H   0  0  0  0  0  0  0  0  0  0  0  0
   37.7100   32.7020   40.4950 H   0  0  0  0  0  0  0  0  0  0  0  0
   36.9530   26.3550   38.9070 C   0  0  0  0  0  0  0  0  0  0  0  0
   37.3570   25.1400   38.3540 C   0  0  0  0  0  0  0  0  0  0  0  0
   37.6510   24.0110   39.1250 C   0  0  0  0  0  0  0  0  0  0  0  0
   37.5490   24.0560   40.4870 C   0  0  0  0  0  0  0  0  0  0  0  0
   37.1520   25.2720   41.0740 C   0  0  0  0  0  0  0  0  0  0  0  0
   37.1160   25.2920   42.4330 C   0  0  0  0  0  0  0  0  0  0  0  0
   36.7970   26.5040   43.0490 C   0  0  0  0  0  0  0  0  0  0  0  0
   36.5340   27.6530   42.2180 C   0  0  0  0  0  0  0  0  0  0  0  0
   36.6120   27.4660   40.8580 C   0  0  0  0  0  0  0  0  0  0  0  0
   36.8880   26.3420   40.2160 C   0  0  0  0  0  0  0  0  0  0  0  0
   37.4420   25.0920   37.2560 H   0  0  0  0  0  0  0  0  0  0  0  0
   37.9550   23.1280   38.5650 H   0  0  0  0  0  0  0  0  0  0  0  0
   37.7710   23.1810   41.0670 H   0  0  0  0  0  0  0  0  0  0  0  0
   37.3260   24.4030   43.0090 H   0  0  0  0  0  0  0  0  0  0  0  0
   36.7820   26.4440   44.1270 H   0  0  0  0  0  0  0  0  0  0  0  0
   36.3250   28.4170   42.9500 H   0  0  0  0  0  0  0  0  0  0  0  0
   36.2400   29.2130   36.6160 C   0  0  0  0  0  0  0  0  0  0  0  0
   34.8380   29.0700   36.4820 C   0  0  0  0  0  0  0  0  0  0  0  0
   34.2610   28.0440   37.1940 C   0  0  0  0  0  0  0  0  0  0  0  0
   35.1000   27.3100   37.9200 N   0  0  0  0  0  0  0  0  0  0  0  0
   36.4160   27.4140   38.0680 C   0  0  0  0  0  0  0  0  0  0  0  0
   36.9490   28.3890   37.3940 N   0  0  0  0  0  0  0  0  0  0  0  0
   36.6950   30.0020   36.0720 H   0  0  0  0  0  0  0  0  0  0  0  0
   34.2450   29.7150   35.8640 H   0  0  0  0  0  0  0  0  0  0  0  0
   32.8610   27.8210   37.2030 N   0  0  0  0  0  0  0  0  0  0  0  0
   32.7850   26.9580   36.6040 H   0  0  0  0  0  0  0  0  0  0  0  0
   32.1160   28.3750   37.6830 H   0  0  0  0  0  0  0  0  0  0  0  0
   39.1590   28.4580   41.0030 O   0  0  0  0  0  0  0  0  0  0  0  0
   39.7730   28.3140   40.2190 H   0  0  0  0  0  0  0  0  0  0  0  0
   39.7860   31.0470   40.9310 O   0  0  0  0  0  0  0  0  0  0  0  0
   40.0540   32.4290   40.8080 C   0  0  0  0  0  2  0  0  0  0  0  0
   41.2260   32.6850   39.9320 C   0  0  0  0  0  0  0  0  0  0  0  0
   42.4700   32.8390   40.3370 C   0  0  0  0  0  0  0  0  0  0  0  0
   43.5650   33.0840   39.4640 N   0  0  0  0  0  0  0  0  0  0  0  0
   44.7470   33.8840   39.2430 C   0  0  0  0  0  0  0  0  0  0  0  0
   45.5190   34.5020   40.0210 O   0  0  0  0  0  0  0  0  0  0  0  0
   44.5830   33.6170   37.7680 C   0  0  0  0  0  3  0  0  0  0  0  0
   43.9780   34.3430   37.2200 H   0  0  0  0  0  0  0  0  0  0  0  0
   43.8470   32.3760   38.2010 C   0  0  2  0  0  3  0  0  0  0  0  0
   42.2310   32.1100   37.4320 S   0  0  0  0  0  0  0  0  0  0  0  0
   40.9100   32.7650   38.4820 C   0  0  0  0  0  3  0  0  0  0  0  0
   40.8790   33.8700   38.2640 H   0  0  0  0  0  0  0  0  0  0  0  0
   42.8290   32.7700   41.7730 C   0  0  0  0  0  0  0  0  0  0  0  0
   43.0350   31.9570   42.6780 O   0  0  0  0  0  0  0  0  0  0  0  0
   43.0570   33.8520   42.5640 O   0  0  0  0  0  0  0  0  0  0  0  0
   43.9330   34.1910   42.9090 H   0  0  0  0  0  0  0  0  0  0  0  0
  1 37  1  0  0  0  0
  2  1  2  0  0  0  0
  2 18  1  0  0  0  0
  3  2  1  0  0  0  0
  4  3  2  0  0  0  0
  4  5  1  0  0  0  0
  5  6  2  0  0  0  0
  6  1  1  0  0  0  0
  6 39  1  0  0  0  0
  7  3  1  0  0  0  0
  8  4  1  0  0  0  0
  9  5  1  0  0  0  0
 10 19  1  0  0  0  0
 11 10  2  0  0  0  0
 11 12  1  0  0  0  0
 12 13  2  0  0  0  0
 13 22  1  0  0  0  0
 13 14  1  0  0  0  0
 14 15  1  0  0  0  0
 15 23  1  0  0  0  0
 15 16  2  0  0  0  0
 16 24  1  0  0  0  0
 17 25  1  0  0  0  0
 17 16  1  0  0  0  0
 18 17  2  0  0  0  0
 19 18  1  0  0  0  0
 19 14  2  0  0  0  0
 20 11  1  0  0  0  0
 21 12  1  0  0  0  0
 26 31  1  0  0  0  0
 27 26  2  0  0  0  0
 27 28  1  0  0  0  0
 28 34  1  0  0  0  0
 28 29  2  0  0  0  0
 29 30  1  0  0  0  0
 30 10  1  0  0  0  0
 31 30  2  0  0  0  0
 32 26  1  0  0  0  0
 33 27  1  0  0  0  0
 34 36  1  0  0  0  0
 35 34  1  0  0  0  0
 38 37  1  0  0  0  0
 40 39  1  0  0  0  0
 41 42  2  0  0  0  0
 41 40  1  0  0  0  0
 42 52  1  0  0  0  0
 43 42  1  0  0  0  0
 44 43  1  0  0  0  0
 44 45  2  0  0  0  0
 46 48  1  0  0  0  0
 46 44  1  0  0  0  0
 47 46  1  0  0  0  0
 48 49  1  6  0  0  0
 48 43  1  0  0  0  0
 49 50  1  0  0  0  0
 50 41  1  0  0  0  0
 51 50  1  0  0  0  0
 52 54  1  0  0  0  0
 52 53  2  0  0  0  0
 54 55  1  0  0  0  0
M  END
>  <minimizedAffinity>
-7.3466959

$$$$

 OpenBabel03242521573D

 55 60  0  0  1  0  0  0  0  0999 V2000
   37.6180   29.4230   39.3940 C   0  0  0  0  0  0  0  0  0  0  0  0
   36.3980   28.7660   39.8180 C   0  0  0  0  0  0  0  0  0  0  0  0
   35.6500   29.5960   40.5390 C   0  0  0  0  0  0  0  0  0  0  0  0
   35.9640   30.9000   40.8600 C   0  0  0  0  0  0  0  0  0  0  0  0
   37.1230   31.4960   40.4510 C   0  0  0  0  0  0  0  0  0  0  0  0
   37.9700   30.7250   39.6950 C   0  0  0  0  0  0  0  0  0  0  0  0
   34.7510   29.0170   40.8110 H   0  0  0  0  0  0  0  0  0  0  0  0
   35.1830   31.3670   41.4620 H   0  0  0  0  0  0  0  0  0  0  0  0
   37.1870   32.5110   40.8030 H   0  0  0  0  0  0  0  0  0  0  0  0
   37.2180   26.1610   41.2100 C   0  0  0  0  0  0  0  0  0  0  0  0
   37.2570   24.8830   41.7640 C   0  0  0  0  0  0  0  0  0  0  0  0
   36.7830   23.7480   41.1000 C   0  0  0  0  0  0  0  0  0  0  0  0
   36.2490   23.8520   39.8450 C   0  0  0  0  0  0  0  0  0  0  0  0
   36.1880   25.1320   39.2640 C   0  0  0  0  0  0  0  0  0  0  0  0
   35.6000   25.2010   38.0390 C   0  0  0  0  0  0  0  0  0  0  0  0
   35.4580   26.4660   37.4670 C   0  0  0  0  0  0  0  0  0  0  0  0
   35.9300   27.6140   38.2010 C   0  0  0  0  0  0  0  0  0  0  0  0
   36.5010   27.3740   39.4280 C   0  0  0  0  0  0  0  0  0  0  0  0
   36.6830   26.2010   40.0140 C   0  0  0  0  0  0  0  0  0  0  0  0
   37.6870   24.7870   42.7760 H   0  0  0  0  0  0  0  0  0  0  0  0
   36.8740   22.8120   41.6480 H   0  0  0  0  0  0  0  0  0  0  0  0
   35.8940   22.9720   39.3430 H   0  0  0  0  0  0  0  0  0  0  0  0
   35.2590   24.3100   37.5340 H   0  0  0  0  0  0  0  0  0  0  0  0
   34.9890   26.4450   36.4940 H   0  0  0  0  0  0  0  0  0  0  0  0
   35.6910   28.4240   37.5290 H   0  0  0  0  0  0  0  0  0  0  0  0
   38.5450   29.0210   43.2060 C   0  0  0  0  0  0  0  0  0  0  0  0
   39.8630   29.0810   42.6950 C   0  0  0  0  0  0  0  0  0  0  0  0
   40.1750   28.1730   41.7090 C   0  0  0  0  0  0  0  0  0  0  0  0
   39.1910   27.3470   41.3630 N   0  0  0  0  0  0  0  0  0  0  0  0
   37.9470   27.2620   41.8200 C   0  0  0  0  0  0  0  0  0  0  0  0
   37.6640   28.1280   42.7470 N   0  0  0  0  0  0  0  0  0  0  0  0
   38.2940   29.7190   43.9660 H   0  0  0  0  0  0  0  0  0  0  0  0
   40.5910   29.7870   43.0450 H   0  0  0  0  0  0  0  0  0  0  0  0
   41.4370   28.1570   41.0640 N   0  0  0  0  0  0  0  0  0  0  0  0
   41.8740   27.2960   41.4840 H   0  0  0  0  0  0  0  0  0  0  0  0
   41.8160   28.8290   40.3580 H   0  0  0  0  0  0  0  0  0  0  0  0
   38.6520   28.8530   38.6020 O   0  0  0  0  0  0  0  0  0  0  0  0
   38.6890   29.1460   37.6410 H   0  0  0  0  0  0  0  0  0  0  0  0
   39.1220   31.3770   39.3170 O   0  0  0  0  0  0  0  0  0  0  0  0
   39.9620   31.8950   40.3280 C   0  0  0  0  0  2  0  0  0  0  0  0
   41.2130   32.4640   39.7650 C   0  0  0  0  0  0  0  0  0  0  0  0
   42.4010   32.4210   40.3320 C   0  0  0  0  0  0  0  0  0  0  0  0
   43.5760   32.9800   39.7590 N   0  0  0  0  0  0  0  0  0  0  0  0
   44.7510   33.7810   40.0110 C   0  0  0  0  0  0  0  0  0  0  0  0
   45.4160   34.0200   41.0530 O   0  0  0  0  0  0  0  0  0  0  0  0
   44.7540   34.1360   38.5460 C   0  0  0  0  0  3  0  0  0  0  0  0
   44.1900   35.0310   38.2740 H   0  0  0  0  0  0  0  0  0  0  0  0
   44.0130   32.8380   38.3580 C   0  0  2  0  0  3  0  0  0  0  0  0
   42.4970   32.9320   37.3730 S   0  0  0  0  0  0  0  0  0  0  0  0
   41.0520   33.1280   38.4460 C   0  0  0  0  0  3  0  0  0  0  0  0
   41.0120   34.2280   38.6900 H   0  0  0  0  0  0  0  0  0  0  0  0
   42.6050   31.7710   41.6490 C   0  0  0  0  0  0  0  0  0  0  0  0
   42.8890   30.6820   42.1530 O   0  0  0  0  0  0  0  0  0  0  0  0
   42.4930   32.4050   42.8470 O   0  0  0  0  0  0  0  0  0  0  0  0
   43.2250   32.6840   43.4680 H   0  0  0  0  0  0  0  0  0  0  0  0
  1  6  2  0  0  0  0
  1  2  1  0  0  0  0
  2  3  2  0  0  0  0
  3  7  1  0  0  0  0
  3  4  1  0  0  0  0
  4  8  1  0  0  0  0
  5  9  1  0  0  0  0
  5  4  2  0  0  0  0
  6  5  1  0  0  0  0
 10 11  1  0  0  0  0
 10 30  1  0  0  0  0
 11 20  1  0  0  0  0
 12 21  1  0  0  0  0
 12 11  2  0  0  0  0
 13 12  1  0  0  0  0
 14 13  2  0  0  0  0
 14 19  1  0  0  0  0
 15 14  1  0  0  0  0
 16 15  2  0  0  0  0
 16 17  1  0  0  0  0
 17 18  2  0  0  0  0
 18  2  1  0  0  0  0
 18 19  1  0  0  0  0
 19 10  2  0  0  0  0
 22 13  1  0  0  0  0
 23 15  1  0  0  0  0
 24 16  1  0  0  0  0
 25 17  1  0  0  0  0
 26 32  1  0  0  0  0
 27 33  1  0  0  0  0
 27 26  2  0  0  0  0
 28 27  1  0  0  0  0
 29 28  2  0  0  0  0
 29 30  1  0  0  0  0
 30 31  2  0  0  0  0
 31 26  1  0  0  0  0
 34 35  1  0  0  0  0
 34 28  1  0  0  0  0
 36 34  1  0  0  0  0
 37  1  1  0  0  0  0
 38 37  1  0  0  0  0
 39  6  1  0  0  0  0
 39 40  1  0  0  0  0
 41 40  1  0  0  0  0
 41 42  2  0  0  0  0
 42 52  1  0  0  0  0
 43 44  1  0  0  0  0
 43 42  1  0  0  0  0
 44 45  2  0  0  0  0
 46 44  1  0  0  0  0
 47 46  1  0  0  0  0
 48 49  1  6  0  0  0
 48 46  1  0  0  0  0
 48 43  1  0  0  0  0
 49 50  1  0  0  0  0
 50 51  1  0  0  0  0
 50 41  1  0  0  0  0
 52 53  2  0  0  0  0
 52 54  1  0  0  0  0
 54 55  1  0  0  0  0
M  END
>  <minimizedAffinity>
-7.24966097

$$$$

 OpenBabel03242521573D

 55 60  0  0  1  0  0  0  0  0999 V2000
   38.4400   28.0210   41.0620 C   0  0  0  0  0  0  0  0  0  0  0  0
   37.2510   27.2390   41.3320 C   0  0  0  0  0  0  0  0  0  0  0  0
   36.7700   27.5280   42.5390 C   0  0  0  0  0  0  0  0  0  0  0  0
   37.3060   28.4330   43.4300 C   0  0  0  0  0  0  0  0  0  0  0  0
   38.4320   29.1550   43.1520 C   0  0  0  0  0  0  0  0  0  0  0  0
   39.0100   28.9350   41.9270 C   0  0  0  0  0  0  0  0  0  0  0  0
   35.8730   26.8960   42.6530 H   0  0  0  0  0  0  0  0  0  0  0  0
   36.7240   28.4860   44.3510 H   0  0  0  0  0  0  0  0  0  0  0  0
   38.6940   29.8030   43.9720 H   0  0  0  0  0  0  0  0  0  0  0  0
   37.9920   24.3040   40.8520 C   0  0  0  0  0  0  0  0  0  0  0  0
   37.9780   22.9340   40.5980 C   0  0  0  0  0  0  0  0  0  0  0  0
   37.2390   22.3570   39.5600 C   0  0  0  0  0  0  0  0  0  0  0  0
   36.4830   23.1390   38.7310 C   0  0  0  0  0  0  0  0  0  0  0  0
   36.4720   24.5260   38.9680 C   0  0  0  0  0  0  0  0  0  0  0  0
   35.6650   25.2610   38.1570 C   0  0  0  0  0  0  0  0  0  0  0  0
   35.5740   26.6300   38.4130 C   0  0  0  0  0  0  0  0  0  0  0  0
   36.3260   27.1790   39.5150 C   0  0  0  0  0  0  0  0  0  0  0  0
   37.0950   26.2990   40.2400 C   0  0  0  0  0  0  0  0  0  0  0  0
   37.2390   25.0000   40.0350 C   0  0  0  0  0  0  0  0  0  0  0  0
   38.5840   22.2940   41.2610 H   0  0  0  0  0  0  0  0  0  0  0  0
   37.3180   21.2750   39.4740 H   0  0  0  0  0  0  0  0  0  0  0  0
   35.9260   22.6850   37.9330 H   0  0  0  0  0  0  0  0  0  0  0  0
   35.1190   24.7990   37.3480 H   0  0  0  0  0  0  0  0  0  0  0  0
   34.9220   27.1510   37.7280 H   0  0  0  0  0  0  0  0  0  0  0  0
   36.0640   28.2240   39.4680 H   0  0  0  0  0  0  0  0  0  0  0  0
   40.0340   25.5980   43.6950 C   0  0  0  0  0  0  0  0  0  0  0  0
   41.2360   25.8990   43.0110 C   0  0  0  0  0  0  0  0  0  0  0  0
   41.2400   25.6630   41.6550 C   0  0  0  0  0  0  0  0  0  0  0  0
   40.1060   25.1770   41.1570 N   0  0  0  0  0  0  0  0  0  0  0  0
   38.9620   24.8830   41.7670 C   0  0  0  0  0  0  0  0  0  0  0  0
   38.9710   25.1140   43.0460 N   0  0  0  0  0  0  0  0  0  0  0  0
   40.0210   25.7780   44.7410 H   0  0  0  0  0  0  0  0  0  0  0  0
   42.1050   26.2870   43.5050 H   0  0  0  0  0  0  0  0  0  0  0  0
   42.3530   25.9740   40.8340 N   0  0  0  0  0  0  0  0  0  0  0  0
   42.7340   25.0140   40.6300 H   0  0  0  0  0  0  0  0  0  0  0  0
   42.6900   26.9130   40.5220 H   0  0  0  0  0  0  0  0  0  0  0  0
   39.2190   27.9870   39.8730 O   0  0  0  0  0  0  0  0  0  0  0  0
   39.1080   28.7650   39.2450 H   0  0  0  0  0  0  0  0  0  0  0  0
   40.1410   29.6860   41.7070 O   0  0  0  0  0  0  0  0  0  0  0  0
   40.2170   30.9710   42.2900 C   0  0  0  0  0  2  0  0  0  0  0  0
   41.2840   31.7950   41.6670 C   0  0  0  0  0  0  0  0  0  0  0  0
   41.0970   32.7700   40.8020 C   0  0  0  0  0  0  0  0  0  0  0  0
   42.1480   33.5370   40.2280 N   0  0  0  0  0  0  0  0  0  0  0  0
   42.6750   34.0950   39.0050 C   0  0  0  0  0  0  0  0  0  0  0  0
   42.1370   34.4330   37.9180 O   0  0  0  0  0  0  0  0  0  0  0  0
   44.0400   34.0600   39.6430 C   0  0  0  0  0  3  0  0  0  0  0  0
   44.6140   33.1440   39.4830 H   0  0  0  0  0  0  0  0  0  0  0  0
   43.2940   34.1210   40.9500 C   0  0  2  0  0  3  0  0  0  0  0  0
   43.7630   32.8830   42.1830 S   0  0  0  0  0  0  0  0  0  0  0  0
   42.6640   31.4460   42.0930 C   0  0  0  0  0  3  0  0  0  0  0  0
   43.0670   30.8180   41.2480 H   0  0  0  0  0  0  0  0  0  0  0  0
   39.7380   33.1500   40.3480 C   0  0  0  0  0  0  0  0  0  0  0  0
   38.6300   33.4750   40.7840 O   0  0  0  0  0  0  0  0  0  0  0  0
   39.3560   33.2340   39.0460 O   0  0  0  0  0  0  0  0  0  0  0  0
   39.1880   34.0580   38.5040 H   0  0  0  0  0  0  0  0  0  0  0  0
  1  2  2  0  0  0  0
  1  6  1  0  0  0  0
  2  3  1  0  0  0  0
  3  7  1  0  0  0  0
  3  4  2  0  0  0  0
  4  8  1  0  0  0  0
  5  4  1  0  0  0  0
  5  9  1  0  0  0  0
  6  5  2  0  0  0  0
 10 30  1  0  0  0  0
 11 10  1  0  0  0  0
 11 20  1  0  0  0  0
 12 11  2  0  0  0  0
 13 14  2  0  0  0  0
 13 12  1  0  0  0  0
 14 19  1  0  0  0  0
 15 16  2  0  0  0  0
 15 14  1  0  0  0  0
 16 17  1  0  0  0  0
 17 18  2  0  0  0  0
 18  2  1  0  0  0  0
 19 18  1  0  0  0  0
 19 10  2  0  0  0  0
 21 12  1  0  0  0  0
 22 13  1  0  0  0  0
 23 15  1  0  0  0  0
 24 16  1  0  0  0  0
 25 17  1  0  0  0  0
 26 32  1  0  0  0  0
 27 33  1  0  0  0  0
 27 26  2  0  0  0  0
 28 27  1  0  0  0  0
 29 28  2  0  0  0  0
 29 30  1  0  0  0  0
 30 31  2  0  0  0  0
 31 26  1  0  0  0  0
 34 28  1  0  0  0  0
 35 34  1  0  0  0  0
 36 34  1  0  0  0  0
 37  1  1  0  0  0  0
 38 37  1  0  0  0  0
 39  6  1  0  0  0  0
 39 40  1  0  0  0  0
 41 50  1  0  0  0  0
 41 40  1  0  0  0  0
 42 41  2  0  0  0  0
 43 42  1  0  0  0  0
 43 48  1  0  0  0  0
 44 46  1  0  0  0  0
 44 43  1  0  0  0  0
 45 44  2  0  0  0  0
 47 46  1  0  0  0  0
 48 46  1  6  0  0  0
 48 49  1  0  0  0  0
 50 49  1  0  0  0  0
 51 50  1  0  0  0  0
 52 53  2  0  0  0  0
 52 42  1  0  0  0  0
 54 52  1  0  0  0  0
 55 54  1  0  0  0  0
M  END
>  <minimizedAffinity>
-7.22810125

$$$$
