
 OpenBabel03242523553D

 46 49  0  0  1  0  0  0  0  0999 V2000
   42.8040   34.3050   39.0120 C   0  0  1  0  0  0  0  0  0  0  0  0
   43.0540   35.1840   40.2290 C   0  0  1  0  0  0  0  0  0  0  0  0
   41.8100   35.6750   40.6760 O   0  0  0  0  0  0  0  0  0  0  0  0
   40.9380   35.9630   39.6220 C   0  0  0  0  0  0  0  0  0  0  0  0
   40.4590   34.7070   38.9240 C   0  0  2  0  0  0  0  0  0  0  0  0
   41.5120   33.5930   39.2610 C   0  0  1  0  0  0  0  0  0  0  0  0
   43.6390   33.5750   38.8850 H   0  0  0  0  0  0  0  0  0  0  0  0
   43.7700   35.9900   40.0520 H   0  0  0  0  0  0  0  0  0  0  0  0
   41.3630   36.7080   38.9070 H   0  0  0  0  0  0  0  0  0  0  0  0
   40.0850   36.4880   40.0980 H   0  0  0  0  0  0  0  0  0  0  0  0
   39.4660   34.3780   39.2720 H   0  0  0  0  0  0  0  0  0  0  0  0
   41.2550   33.5440   40.3670 H   0  0  0  0  0  0  0  0  0  0  0  0
   42.7260   35.0810   37.8470 O   0  0  0  0  0  0  0  0  0  0  0  0
   43.0200   34.5650   37.0590 H   0  0  0  0  0  0  0  0  0  0  0  0
   40.5280   34.8830   37.5510 O   0  0  0  0  0  0  0  0  0  0  0  0
   40.4810   34.0230   37.0600 H   0  0  0  0  0  0  0  0  0  0  0  0
   43.4410   34.2860   41.2460 O   0  0  0  0  0  0  0  0  0  0  0  0
   44.5960   34.3530   41.9160 C   0  0  0  0  0  0  0  0  0  0  0  0
   45.8190   34.4970   41.2430 C   0  0  0  0  0  0  0  0  0  0  0  0
   46.9810   34.5620   41.9910 C   0  0  0  0  0  0  0  0  0  0  0  0
   46.9080   34.4840   43.3720 N   0  0  0  0  0  0  0  0  0  0  0  0
   45.7110   34.3440   43.9850 C   0  0  0  0  0  0  0  0  0  0  0  0
   44.5640   34.2780   43.2640 N   0  0  0  0  0  0  0  0  0  0  0  0
   45.8630   34.5570   40.1740 H   0  0  0  0  0  0  0  0  0  0  0  0
   45.6720   34.2830   45.0660 H   0  0  0  0  0  0  0  0  0  0  0  0
   48.3230   34.6950   41.3420 C   0  0  0  0  0  0  0  0  0  0  0  0
   49.0530   36.0250   41.5370 C   0  0  0  0  0  0  0  0  0  0  0  0
   49.5220   34.6790   42.1190 C   0  0  0  0  0  0  0  0  0  0  0  0
   48.3150   34.2960   40.2950 H   0  0  0  0  0  0  0  0  0  0  0  0
   48.5280   36.7380   42.1880 H   0  0  0  0  0  0  0  0  0  0  0  0
   49.5570   36.4060   40.6510 H   0  0  0  0  0  0  0  0  0  0  0  0
   50.4510   34.3240   41.6750 H   0  0  0  0  0  0  0  0  0  0  0  0
   49.4330   34.6710   43.2370 H   0  0  0  0  0  0  0  0  0  0  0  0
   41.2440   32.5350   38.4750 O   0  0  0  0  0  0  0  0  0  0  0  0
   40.2370   31.6440   38.5560 C   0  0  0  0  0  0  0  0  0  0  0  0
   39.7010   31.1040   37.4920 O   0  0  0  0  0  0  0  0  0  0  0  0
   39.2830   30.8410   39.3630 C   0  0  0  0  0  3  0  0  0  0  0  0
   38.4250   31.6810   40.2630 C   0  0  0  0  0  3  0  0  0  0  0  0
   37.6540   32.2450   39.6980 H   0  0  0  0  0  0  0  0  0  0  0  0
   37.7130   30.6870   41.1600 C   0  0  0  0  0  3  0  0  0  0  0  0
   38.5420   30.1330   41.6870 H   0  0  0  0  0  0  0  0  0  0  0  0
   36.9130   29.8530   40.4140 O   0  0  0  0  0  0  0  0  0  0  0  0
   37.6140   29.1030   39.4840 C   0  0  0  0  0  3  0  0  0  0  0  0
   38.4370   28.5640   40.0240 H   0  0  0  0  0  0  0  0  0  0  0  0
   38.3420   30.0230   38.5090 C   0  0  0  0  0  3  0  0  0  0  0  0
   37.6300   30.6630   37.9540 H   0  0  0  0  0  0  0  0  0  0  0  0
  1  7  1  6  0  0  0
  1  6  1  0  0  0  0
  1  2  1  0  0  0  0
  2  8  1  6  0  0  0
  2  3  1  0  0  0  0
  2 17  1  0  0  0  0
  4 10  1  0  0  0  0
  4  3  1  0  0  0  0
  5  6  1  0  0  0  0
  5 11  1  1  0  0  0
  5  4  1  0  0  0  0
  6 12  1  1  0  0  0
  9  4  1  0  0  0  0
 13  1  1  0  0  0  0
 14 13  1  0  0  0  0
 15  5  1  0  0  0  0
 16 15  1  0  0  0  0
 17 18  1  0  0  0  0
 18 23  1  0  0  0  0
 19 18  2  0  0  0  0
 19 20  1  0  0  0  0
 20 21  2  0  0  0  0
 21 22  1  0  0  0  0
 22 25  1  0  0  0  0
 23 22  2  0  0  0  0
 24 19  1  0  0  0  0
 26 27  1  0  0  0  0
 26 20  1  0  0  0  0
 26 28  1  0  0  0  0
 27 28  1  0  0  0  0
 27 30  1  0  0  0  0
 28 33  1  0  0  0  0
 29 26  1  0  0  0  0
 31 27  1  0  0  0  0
 32 28  1  0  0  0  0
 34 35  1  0  0  0  0
 34  6  1  0  0  0  0
 35 37  1  0  0  0  0
 36 35  2  0  0  0  0
 37 38  1  0  0  0  0
 38 40  1  0  0  0  0
 39 38  1  0  0  0  0
 40 41  1  0  0  0  0
 42 40  1  0  0  0  0
 43 44  1  0  0  0  0
 43 42  1  0  0  0  0
 45 37  1  0  0  0  0
 45 43  1  0  0  0  0
 46 45  1  0  0  0  0
M  END
>  <minimizedAffinity>
-6.40552473

>  <minimizedRMSD>
1.59645343

$$$$
