
 OpenBabel03242522393D

 41 43  0  0  0  0  0  0  0  0999 V2000
   47.3350   32.3190   47.8100 C   0  0  0  0  0  0  0  0  0  0  0  0
   47.1770   31.3460   46.7750 C   0  0  0  0  0  0  0  0  0  0  0  0
   47.8570   30.1340   46.9060 C   0  0  0  0  0  0  0  0  0  0  0  0
   48.6340   29.9510   48.0190 N   0  0  0  0  0  0  0  0  0  0  0  0
   48.7490   30.8810   48.9510 C   0  0  0  0  0  0  0  0  0  0  0  0
   48.1210   32.0480   48.8680 N   0  0  0  0  0  0  0  0  0  0  0  0
   46.8340   33.2760   47.7650 H   0  0  0  0  0  0  0  0  0  0  0  0
   47.7590   29.3770   46.1400 H   0  0  0  0  0  0  0  0  0  0  0  0
   46.3200   31.6450   45.6230 C   0  0  0  0  0  0  0  0  0  0  0  0
   46.1970   30.6720   45.0630 H   0  0  0  0  0  0  0  0  0  0  0  0
   45.3060   31.9250   45.9160 H   0  0  0  0  0  0  0  0  0  0  0  0
   47.0410   32.6590   44.7710 C   0  0  0  0  0  0  0  0  0  0  0  0
   48.0520   32.9310   45.1990 H   0  0  0  0  0  0  0  0  0  0  0  0
   47.3240   32.1480   43.8030 H   0  0  0  0  0  0  0  0  0  0  0  0
   46.5380   34.5190   43.2450 C   0  0  0  0  0  0  0  0  0  0  0  0
   46.2790   33.8580   44.4320 C   0  0  0  0  0  0  0  0  0  0  0  0
   45.3290   34.2700   45.3160 C   0  0  0  0  0  0  0  0  0  0  0  0
   44.5860   35.3960   45.0240 C   0  0  0  0  0  0  0  0  0  0  0  0
   44.7840   36.1050   43.8700 C   0  0  0  0  0  0  0  0  0  0  0  0
   45.7720   35.6290   43.0070 C   0  0  0  0  0  0  0  0  0  0  0  0
   45.0460   33.8400   46.2630 H   0  0  0  0  0  0  0  0  0  0  0  0
   43.8050   35.8080   45.6610 H   0  0  0  0  0  0  0  0  0  0  0  0
   44.2500   36.9960   43.5610 H   0  0  0  0  0  0  0  0  0  0  0  0
   45.9550   36.1670   42.0850 H   0  0  0  0  0  0  0  0  0  0  0  0
   47.7480   34.0240   42.0920 S   0  0  0  0  0  0  0  0  0  0  0  0
   49.1240   34.5900   42.4200 O   0  0  0  0  0  0  0  0  0  0  0  0
   47.4130   34.6410   40.7440 O   0  0  0  0  0  0  0  0  0  0  0  0
   47.7850   32.6800   41.9180 H   0  0  0  0  0  0  0  0  0  0  0  0
   49.6010   30.5800   50.1560 C   0  0  0  0  0  0  0  0  0  0  0  0
   50.0700   29.5930   50.0920 H   0  0  0  0  0  0  0  0  0  0  0  0
   48.9190   30.5450   51.0420 H   0  0  0  0  0  0  0  0  0  0  0  0
   50.5830   31.6980   50.4350 C   0  0  0  0  0  0  0  0  0  0  0  0
   51.1080   31.7360   51.8190 C   0  0  0  0  0  0  0  0  0  0  0  0
   50.6140   32.5440   52.4390 H   0  0  0  0  0  0  0  0  0  0  0  0
   52.5690   31.9590   51.9540 C   0  0  0  0  0  0  0  0  0  0  0  0
   52.8120   32.4640   52.9150 H   0  0  0  0  0  0  0  0  0  0  0  0
   52.9790   32.8070   50.9220 O   0  0  0  0  0  0  0  0  0  0  0  0
   53.0210   31.9560   49.8000 C   0  0  0  0  0  0  0  0  0  0  0  0
   53.5170   30.9840   50.0300 H   0  0  0  0  0  0  0  0  0  0  0  0
   51.6130   31.7300   49.3490 C   0  0  0  0  0  0  0  0  0  0  0  0
   51.4000   32.4720   48.5510 H   0  0  0  0  0  0  0  0  0  0  0  0
  1  6  1  0  0  0  0
  2  3  1  0  0  0  0
  2  1  2  0  0  0  0
  3  4  2  0  0  0  0
  4  5  1  0  0  0  0
  5 29  1  0  0  0  0
  6  5  2  0  0  0  0
  7  1  1  0  0  0  0
  8  3  1  0  0  0  0
  9 11  1  0  0  0  0
  9  2  1  0  0  0  0
 10  9  1  0  0  0  0
 12 13  1  0  0  0  0
 12  9  1  0  0  0  0
 14 12  1  0  0  0  0
 15 16  1  0  0  0  0
 16 12  1  0  0  0  0
 16 17  2  0  0  0  0
 17 21  1  0  0  0  0
 18 17  1  0  0  0  0
 18 22  1  0  0  0  0
 19 18  2  0  0  0  0
 20 15  2  0  0  0  0
 20 19  1  0  0  0  0
 23 19  1  0  0  0  0
 24 20  1  0  0  0  0
 25 26  2  0  0  0  0
 25 15  1  0  0  0  0
 27 25  2  0  0  0  0
 28 25  1  0  0  0  0
 29 32  1  0  0  0  0
 29 31  1  0  0  0  0
 30 29  1  0  0  0  0
 32 33  1  0  0  0  0
 33 35  1  0  0  0  0
 33 34  1  0  0  0  0
 35 36  1  0  0  0  0
 37 35  1  0  0  0  0
 38 39  1  0  0  0  0
 38 37  1  0  0  0  0
 40 38  1  0  0  0  0
 40 32  1  0  0  0  0
 41 40  1  0  0  0  0
M  END
>  <minimizedAffinity>
-5.75106859

>  <minimizedRMSD>
2.72175288

$$$$
