REMARK  Name = 
REMARK  1 active torsions:
REMARK  status: ('A' for Active; 'I' for Inactive)
REMARK    1  A    between atoms: C_7  and  C_14
REMARK                            x       y       z     vdW  Elec       q    Type
REMARK                         _______ _______ _______ _____ _____    ______ ____
ROOT
ATOM      1  C   UNL     1      44.668  36.076  44.286  0.00  0.00    +0.000 A 
ATOM      2  C   UNL     1      45.480  35.584  43.236  0.00  0.00    +0.000 A 
ATOM      3  C   UNL     1      46.178  34.383  43.471  0.00  0.00    +0.000 A 
ATOM      4  N   UNL     1      46.036  33.770  44.678  0.00  0.00    +0.000 NA
ATOM      5  C   UNL     1      45.259  34.267  45.646  0.00  0.00    +0.000 A 
ATOM      6  N   UNL     1      44.568  35.427  45.455  0.00  0.00    +0.000 NA
ATOM      7  C   UNL     1      46.162  32.583  47.128  0.00  0.00    +0.000 C 
ATOM      8  O   UNL     1      47.106  32.290  46.363  0.00  0.00    +0.000 OA
ATOM      9  N   UNL     1      45.171  33.561  46.874  0.00  0.00    +0.000 N 
ATOM     10  H   UNL     1      44.155  36.998  44.057  0.00  0.00    +0.000 HD
ATOM     11  H   UNL     1      45.591  36.067  42.282  0.00  0.00    +0.000 HD
ATOM     12  H   UNL     1      46.825  33.917  42.737  0.00  0.00    +0.000 HD
ATOM     13  H   UNL     1      44.418  33.741  47.569  0.00  0.00    +0.000 HD
ENDROOT
BRANCH   7  14
ATOM     14  C   UNL     1      46.074  31.831  48.427  0.00  0.00    +0.000 C 
ATOM     15  C   UNL     1      46.828  32.494  49.538  0.00  0.00    +0.000 C 
ATOM     16  H   UNL     1      46.440  33.522  49.628  0.00  0.00    +0.000 HD
ATOM     17  C   UNL     1      46.483  31.736  50.803  0.00  0.00    +0.000 C 
ATOM     18  H   UNL     1      47.435  31.463  51.320  0.00  0.00    +0.000 HD
ATOM     19  O   UNL     1      45.836  30.531  50.569  0.00  0.00    +0.000 OA
ATOM     20  C   UNL     1      46.557  29.780  49.638  0.00  0.00    +0.000 C 
ATOM     21  H   UNL     1      46.128  28.775  49.615  0.00  0.00    +0.000 HD
ATOM     22  C   UNL     1      46.468  30.386  48.252  0.00  0.00    +0.000 C 
ATOM     23  H   UNL     1      47.467  30.386  47.749  0.00  0.00    +0.000 HD
ENDBRANCH   7  14
TORSDOF 1
