REMARK  Name = 
REMARK  2 active torsions:
REMARK  status: ('A' for Active; 'I' for Inactive)
REMARK    1  A    between atoms: C_5  and  C_7
REMARK    2  A    between atoms: N_10  and  C_17
REMARK                            x       y       z     vdW  Elec       q    Type
REMARK                         _______ _______ _______ _____ _____    ______ ____
ROOT
ATOM      1  C   UNL     1      45.727  33.302  46.748  0.00  0.00    +0.000 A 
ATOM      2  C   UNL     1      46.852  32.535  47.061  0.00  0.00    +0.000 A 
ATOM      3  C   UNL     1      46.629  31.938  48.261  0.00  0.00    +0.000 A 
ATOM      4  N   UNL     1      45.395  32.325  48.683  0.00  0.00    +0.000 N 
ATOM      5  N   UNL     1      44.869  33.149  47.754  0.00  0.00    +0.000 NA
ATOM      6  H   UNL     1      47.725  32.468  46.413  0.00  0.00    +0.000 HD
ATOM      7  H   UNL     1      47.323  31.268  48.784  0.00  0.00    +0.000 HD
ENDROOT
BRANCH   4   8
ATOM      8  C   UNL     1      44.736  31.940  49.907  0.00  0.00    +0.000 C 
ATOM      9  C   UNL     1      43.221  32.028  49.821  0.00  0.00    +0.000 C 
ATOM     10  H   UNL     1      42.770  31.071  49.514  0.00  0.00    +0.000 HD
ATOM     11  C   UNL     1      42.626  32.426  51.142  0.00  0.00    +0.000 C 
ATOM     12  H   UNL     1      41.598  32.012  51.195  0.00  0.00    +0.000 HD
ATOM     13  O   UNL     1      43.308  31.923  52.234  0.00  0.00    +0.000 OA
ATOM     14  C   UNL     1      44.620  32.329  52.331  0.00  0.00    +0.000 C 
ATOM     15  H   UNL     1      44.781  33.114  53.093  0.00  0.00    +0.000 HD
ATOM     16  C   UNL     1      45.152  32.877  51.016  0.00  0.00    +0.000 C 
ATOM     17  H   UNL     1      46.230  33.000  51.121  0.00  0.00    +0.000 HD
ENDBRANCH   4   8
BRANCH   1  22
ATOM     18  C   UNL     1      44.548  35.864  44.403  0.00  0.00    +0.000 A 
ATOM     19  C   UNL     1      45.304  35.596  43.236  0.00  0.00    +0.000 A 
ATOM     20  C   UNL     1      46.212  34.526  43.289  0.00  0.00    +0.000 A 
ATOM     21  N   UNL     1      46.314  33.814  44.444  0.00  0.00    +0.000 NA
ATOM     22  C   UNL     1      45.576  34.101  45.534  0.00  0.00    +0.000 A 
ATOM     23  N   UNL     1      44.687  35.123  45.534  0.00  0.00    +0.000 NA
ATOM     24  H   UNL     1      43.837  36.686  44.394  0.00  0.00    +0.000 HD
ATOM     25  H   UNL     1      45.170  36.206  42.351  0.00  0.00    +0.000 HD
ATOM     26  H   UNL     1      46.806  34.293  42.413  0.00  0.00    +0.000 HD
ENDBRANCH   1  22
TORSDOF 2
