
 OpenBabel03252503343D

 23 24  0  0  0  0  0  0  0  0999 V2000
   47.6850   32.6980   42.1210 C   0  0  0  0  0  0  0  0  0  0  0  0
   46.4830   32.2990   41.9370 O   0  0  0  0  0  0  0  0  0  0  0  0
   47.7800   33.7980   43.0100 N   0  0  0  0  0  0  0  0  0  0  0  0
   48.7180   34.1830   43.2270 H   0  0  0  0  0  0  0  0  0  0  0  0
   48.8260   32.0560   41.4600 C   0  0  0  0  0  3  0  0  0  0  0  0
   50.1300   32.8120   41.6490 C   0  0  0  0  0  3  0  0  0  0  0  0
   50.1400   33.6440   40.9440 H   0  0  0  0  0  0  0  0  0  0  0  0
   51.2360   31.8320   41.2710 C   0  0  0  0  0  3  0  0  0  0  0  0
   51.4440   31.1150   42.1070 H   0  0  0  0  0  0  0  0  0  0  0  0
   50.9150   31.0560   40.1750 O   0  0  0  0  0  0  0  0  0  0  0  0
   50.0140   31.7150   39.3590 C   0  0  0  0  0  3  0  0  0  0  0  0
   49.8890   31.2110   38.3830 H   0  0  0  0  0  0  0  0  0  0  0  0
   48.6370   31.8380   39.9860 C   0  0  0  0  0  3  0  0  0  0  0  0
   48.1510   32.6990   39.4830 H   0  0  0  0  0  0  0  0  0  0  0  0
   44.8380   35.9730   43.6880 C   0  0  0  0  0  0  0  0  0  0  0  0
   45.9510   35.4470   43.0100 C   0  0  0  0  0  0  0  0  0  0  0  0
   46.6500   34.3940   43.6120 C   0  0  0  0  0  0  0  0  0  0  0  0
   46.2320   33.9280   44.8110 N   0  0  0  0  0  0  0  0  0  0  0  0
   45.1470   34.4580   45.4500 C   0  0  0  0  0  0  0  0  0  0  0  0
   44.4670   35.4700   44.8820 N   0  0  0  0  0  0  0  0  0  0  0  0
   44.3010   36.7950   43.2080 H   0  0  0  0  0  0  0  0  0  0  0  0
   46.2740   35.8270   42.0540 H   0  0  0  0  0  0  0  0  0  0  0  0
   44.7950   34.1030   46.4080 H   0  0  0  0  0  0  0  0  0  0  0  0
  1  3  1  0  0  0  0
  2  1  2  0  0  0  0
  3  4  1  0  0  0  0
  3 17  1  0  0  0  0
  5  6  1  0  0  0  0
  5  1  1  0  0  0  0
  7  6  1  0  0  0  0
  8  6  1  0  0  0  0
  8  9  1  0  0  0  0
 10  8  1  0  0  0  0
 11 13  1  0  0  0  0
 11 10  1  0  0  0  0
 12 11  1  0  0  0  0
 13  5  1  0  0  0  0
 14 13  1  0  0  0  0
 15 20  1  0  0  0  0
 16 17  1  0  0  0  0
 16 15  2  0  0  0  0
 17 18  2  0  0  0  0
 18 19  1  0  0  0  0
 19 23  1  0  0  0  0
 20 19  2  0  0  0  0
 21 15  1  0  0  0  0
 22 16  1  0  0  0  0
M  END
>  <minimizedAffinity>
-3.74047709

>  <minimizedRMSD>
2.94950247

$$$$
