
 OpenBabel03242521173D

 39 41  0  0  0  0  0  0  0  0999 V2000
   46.5810   32.8050   46.5190 C   0  0  0  0  0  0  0  0  0  0  0  0
   47.0330   31.9610   45.9880 H   0  0  0  0  0  0  0  0  0  0  0  0
   47.4230   33.3360   47.0450 H   0  0  0  0  0  0  0  0  0  0  0  0
   44.5680   35.5110   44.8980 C   0  0  0  0  0  0  0  0  0  0  0  0
   45.1460   35.5180   43.6180 C   0  0  0  0  0  0  0  0  0  0  0  0
   46.1710   34.6130   43.3890 C   0  0  0  0  0  0  0  0  0  0  0  0
   46.5680   33.7660   44.4050 N   0  0  0  0  0  0  0  0  0  0  0  0
   45.9770   33.8080   45.6040 C   0  0  0  0  0  0  0  0  0  0  0  0
   44.9650   34.6800   45.8810 N   0  0  0  0  0  0  0  0  0  0  0  0
   43.7570   36.2070   45.1220 H   0  0  0  0  0  0  0  0  0  0  0  0
   44.7960   36.1980   42.8660 H   0  0  0  0  0  0  0  0  0  0  0  0
   46.7780   34.5970   42.0950 N   0  0  0  0  0  0  0  0  0  0  0  0
   47.9550   35.2160   41.9320 C   0  0  0  0  0  0  0  0  0  0  0  0
   48.5560   35.2090   40.6860 C   0  0  0  0  0  0  0  0  0  0  0  0
   47.9150   34.5650   39.6730 C   0  0  0  0  0  0  0  0  0  0  0  0
   48.4730   34.5620   38.5210 O   0  0  0  0  0  0  0  0  0  0  0  0
   46.7280   33.9340   39.8120 N   0  0  0  0  0  0  0  0  0  0  0  0
   46.2030   33.9810   41.0500 C   0  0  0  0  0  0  0  0  0  0  0  0
   45.1000   33.4250   41.2970 O   0  0  0  0  0  0  0  0  0  0  0  0
   48.4760   35.7340   42.7360 H   0  0  0  0  0  0  0  0  0  0  0  0
   49.5060   35.7000   40.5140 H   0  0  0  0  0  0  0  0  0  0  0  0
   46.2460   33.4420   39.0260 H   0  0  0  0  0  0  0  0  0  0  0  0
   45.6030   32.3850   47.5860 C   0  0  0  0  0  0  0  0  0  0  0  0
   44.8450   33.1800   47.6900 H   0  0  0  0  0  0  0  0  0  0  0  0
   46.0820   32.2580   48.5730 H   0  0  0  0  0  0  0  0  0  0  0  0
   45.3980   29.9370   47.5170 C   0  0  0  0  0  0  0  0  0  0  0  0
   46.4160   29.9380   48.2610 O   0  0  0  0  0  0  0  0  0  0  0  0
   44.9090   31.1880   47.1340 N   0  0  0  0  0  0  0  0  0  0  0  0
   44.0680   31.2930   46.5390 H   0  0  0  0  0  0  0  0  0  0  0  0
   44.7630   28.6650   47.0780 C   0  0  0  0  0  3  0  0  0  0  0  0
   45.2610   28.2240   45.7170 C   0  0  0  0  0  3  0  0  0  0  0  0
   46.3010   27.8230   45.8380 H   0  0  0  0  0  0  0  0  0  0  0  0
   44.4090   27.0280   45.3150 C   0  0  0  0  0  3  0  0  0  0  0  0
   44.6040   26.7030   44.2870 H   0  0  0  0  0  0  0  0  0  0  0  0
   44.7480   26.0060   46.2250 O   0  0  0  0  0  0  0  0  0  0  0  0
   44.2800   26.3240   47.4820 C   0  0  0  0  0  3  0  0  0  0  0  0
   44.5220   25.4730   48.1570 H   0  0  0  0  0  0  0  0  0  0  0  0
   44.9430   27.5450   48.0660 C   0  0  0  0  0  3  0  0  0  0  0  0
   45.9690   27.3390   48.3640 H   0  0  0  0  0  0  0  0  0  0  0  0
  1  3  1  0  0  0  0
  1 23  1  0  0  0  0
  2  1  1  0  0  0  0
  4 10  1  0  0  0  0
  4  9  1  0  0  0  0
  5  4  2  0  0  0  0
  6  5  1  0  0  0  0
  6  7  2  0  0  0  0
  7  8  1  0  0  0  0
  8  9  2  0  0  0  0
  8  1  1  0  0  0  0
 11  5  1  0  0  0  0
 12  6  1  0  0  0  0
 13 12  1  0  0  0  0
 13 20  1  0  0  0  0
 14 13  2  0  0  0  0
 15 17  1  0  0  0  0
 15 14  1  0  0  0  0
 16 15  2  0  0  0  0
 17 18  1  0  0  0  0
 18 19  2  0  0  0  0
 18 12  1  0  0  0  0
 21 14  1  0  0  0  0
 22 17  1  0  0  0  0
 23 24  1  0  0  0  0
 23 25  1  0  0  0  0
 26 27  2  0  0  0  0
 28 26  1  0  0  0  0
 28 23  1  0  0  0  0
 29 28  1  0  0  0  0
 30 26  1  0  0  0  0
 30 38  1  0  0  0  0
 31 32  1  0  0  0  0
 31 30  1  0  0  0  0
 33 31  1  0  0  0  0
 33 35  1  0  0  0  0
 34 33  1  0  0  0  0
 35 36  1  0  0  0  0
 36 38  1  0  0  0  0
 36 37  1  0  0  0  0
 38 39  1  0  0  0  0
M  END
>  <minimizedAffinity>
-6.16430759

>  <minimizedRMSD>
1.60422325

$$$$
