
     RDKit          3D

 43 45  0  0  0  0  0  0  0  0999 V2000
   46.3309   34.9977   41.9083 C   0  0  0  0  0  0  0  0  0  0  0  0
   44.8534   34.9451   41.6988 C   0  0  0  0  0  0  0  0  0  0  0  0
   43.9683   35.4286   42.7077 C   0  0  0  0  0  0  0  0  0  0  0  0
   42.3125   35.1414   41.9757 S   0  0  0  0  0  0  0  0  0  0  0  0
   43.1006   34.4067   40.4088 C   0  0  0  0  0  0  0  0  0  0  0  0
   44.2145   34.4855   40.6497 N   0  0  0  0  0  0  0  0  0  0  0  0
   42.3502   33.9395   39.3355 O   0  0  0  0  0  0  0  0  0  0  0  0
   40.4162   34.3926   37.5936 O   0  0  0  0  0  0  0  0  0  0  0  0
   41.4943   35.0835   38.4198 P   0  0  0  0  0  0  0  0  0  0  0  0
   40.7727   36.1748   39.4967 O   0  0  0  0  0  0  0  0  0  0  0  0
   42.5545   35.9438   37.4268 O   0  0  0  0  0  0  0  0  0  0  0  0
   47.1173   34.3177   40.8435 C   0  0  0  0  0  0  0  0  0  0  0  0
   48.4618   33.9024   41.2878 C   0  0  0  0  0  0  0  0  0  0  0  0
   48.9354   32.6918   40.7876 C   0  0  0  0  0  0  0  0  0  0  0  0
   50.1883   32.2399   41.1575 C   0  0  0  0  0  0  0  0  0  0  0  0
   50.9246   33.0062   42.0100 N   0  0  0  0  0  0  0  0  0  0  0  0
   50.4322   34.1786   42.4773 C   0  0  0  0  0  0  0  0  0  0  0  0
   49.2336   34.5925   42.1119 N   0  0  0  0  0  0  0  0  0  0  0  0
   47.9188   31.7204   39.6608 S   0  0  0  0  0  0  0  0  0  0  0  0
   46.5262   34.4784   42.8752 H   0  0  0  0  0  0  0  0  0  0  0  0
   46.6525   36.0407   41.9934 H   0  0  0  0  0  0  0  0  0  0  0  0
   44.2485   35.8544   43.6604 H   0  0  0  0  0  0  0  0  0  0  0  0
   40.1378   35.7171   40.0880 H   0  0  0  0  0  0  0  0  0  0  0  0
   42.1922   35.9369   36.4924 H   0  0  0  0  0  0  0  0  0  0  0  0
   46.5379   33.4732   40.4333 H   0  0  0  0  0  0  0  0  0  0  0  0
   47.2697   35.0403   40.0006 H   0  0  0  0  0  0  0  0  0  0  0  0
   50.5637   31.2880   40.7656 H   0  0  0  0  0  0  0  0  0  0  0  0
   51.0766   34.7353   43.1534 H   0  0  0  0  0  0  0  0  0  0  0  0
   46.8782   30.5372   40.5734 C   0  0  0  0  0  0  0  0  0  0  0  0
   47.7890   29.5204   41.2097 C   0  0  1  0  0  0  0  0  0  0  0  0
   48.7954   29.5545   40.7423 H   0  0  0  0  0  0  0  0  0  0  0  0
   47.2533   28.1412   40.9718 C   0  0  1  0  0  0  0  0  0  0  0  0
   47.4449   27.8724   39.9159 H   0  0  0  0  0  0  0  0  0  0  0  0
   45.8917   28.1807   41.2701 O   0  0  0  0  0  0  0  0  0  0  0  0
   45.1858   28.7849   40.2466 C   0  0  2  0  0  0  0  0  0  0  0  0
   44.2617   29.2571   40.6428 H   0  0  0  0  0  0  0  0  0  0  0  0
   45.9862   29.8607   39.5587 C   0  0  1  0  0  0  0  0  0  0  0  0
   45.3138   30.6685   39.1681 H   0  0  0  0  0  0  0  0  0  0  0  0
   46.2336   31.0585   41.3276 H   0  0  0  0  0  0  0  0  0  0  0  0
   47.8940   29.7150   42.2935 H   0  0  0  0  0  0  0  0  0  0  0  0
   47.7164   27.4094   41.6639 H   0  0  0  0  0  0  0  0  0  0  0  0
   44.8793   28.0520   39.4702 H   0  0  0  0  0  0  0  0  0  0  0  0
   46.5869   29.4874   38.7137 H   0  0  0  0  0  0  0  0  0  0  0  0
  2  1  1  0
  2  3  2  0
  4  3  1  0
  5  6  2  0
  5  4  1  0
  6  2  1  0
  7  5  1  0
  8  9  2  0
  9  7  1  0
  9 10  1  0
 11  9  1  0
 12 13  1  0
 12  1  1  0
 13 18  2  0
 14 15  2  0
 14 13  1  0
 15 16  1  0
 16 17  2  0
 18 17  1  0
 19 14  1  0
  1 20  1  0
  1 21  1  0
  3 22  1  0
 10 23  1  0
 11 24  1  0
 12 25  1  0
 12 26  1  0
 15 27  1  0
 17 28  1  0
 29 30  1  0
 30 31  1  6
 30 32  1  0
 32 33  1  6
 32 34  1  0
 34 35  1  0
 35 36  1  1
 35 37  1  0
 37 38  1  6
 37 29  1  0
 29 39  1  0
 30 40  1  0
 32 41  1  0
 35 42  1  0
 37 43  1  0
 19 29  1  0
M  ISO  8  20   8  21   8  22  14  23   3  24   3  25   8  26   8  27  14
M  ISO  5  28  14  31  15  33  15  36  15  38  15
M  END
>  <DihAtoms>  (1) 
13,18,28,29

>  <DihDeg>  (1) 
-66.74301606232194

$$$$
