
 OpenBabel03242516533D

 46 49  0  0  1  0  0  0  0  0999 V2000
   47.8420   32.9010   41.8200 C   0  0  1  0  0  0  0  0  0  0  0  0
   47.5380   32.2960   40.5240 C   0  0  0  0  0  0  0  0  0  0  0  0
   48.5750   32.8440   39.5490 C   0  0  0  0  0  0  0  0  0  0  0  0
   48.2590   34.3180   39.3540 C   0  0  0  0  0  0  0  0  0  0  0  0
   48.1790   35.1030   40.6270 C   0  0  0  0  0  0  0  0  0  0  0  0
   47.6570   34.4230   41.8130 C   0  0  1  0  0  0  0  0  0  0  0  0
   48.9550   32.8010   42.0090 H   0  0  0  0  0  0  0  0  0  0  0  0
   46.5080   32.5520   40.1800 H   0  0  0  0  0  0  0  0  0  0  0  0
   47.5890   31.2090   40.5840 H   0  0  0  0  0  0  0  0  0  0  0  0
   49.5680   32.7010   40.0070 H   0  0  0  0  0  0  0  0  0  0  0  0
   48.4400   32.3580   38.5720 H   0  0  0  0  0  0  0  0  0  0  0  0
   47.3130   34.3820   38.7820 H   0  0  0  0  0  0  0  0  0  0  0  0
   49.0500   34.7290   38.6930 H   0  0  0  0  0  0  0  0  0  0  0  0
   49.2090   35.5090   40.8110 H   0  0  0  0  0  0  0  0  0  0  0  0
   47.5650   36.0110   40.4160 H   0  0  0  0  0  0  0  0  0  0  0  0
   48.2420   34.7750   42.7150 H   0  0  0  0  0  0  0  0  0  0  0  0
   45.3850   30.8980   43.8850 C   0  0  0  0  0  0  0  0  0  0  0  0
   46.0880   31.4810   42.8230 C   0  0  0  0  0  0  0  0  0  0  0  0
   47.1800   32.3380   42.9790 C   0  0  0  0  0  0  0  0  0  0  0  0
   47.5360   32.5840   44.2410 N   0  0  0  0  0  0  0  0  0  0  0  0
   46.8660   32.0270   45.2850 C   0  0  0  0  0  0  0  0  0  0  0  0
   45.8230   31.2090   45.1250 N   0  0  0  0  0  0  0  0  0  0  0  0
   44.5620   30.2550   43.6220 H   0  0  0  0  0  0  0  0  0  0  0  0
   45.7860   31.2690   41.8050 H   0  0  0  0  0  0  0  0  0  0  0  0
   47.2220   32.2800   46.2880 H   0  0  0  0  0  0  0  0  0  0  0  0
   46.2720   34.7950   42.1180 C   0  0  0  0  0  0  0  0  0  0  0  0
   45.8160   35.3920   43.3010 C   0  0  0  0  0  0  0  0  0  0  0  0
   44.4500   35.6700   43.3610 C   0  0  0  0  0  0  0  0  0  0  0  0
   43.6740   35.3400   42.2710 C   0  0  0  0  0  0  0  0  0  0  0  0
   44.1380   34.7490   41.1070 C   0  0  0  0  0  0  0  0  0  0  0  0
   45.4750   34.4830   41.0640 N   0  0  0  0  0  0  0  0  0  0  0  0
   46.5390   35.5800   44.0390 H   0  0  0  0  0  0  0  0  0  0  0  0
   44.0860   36.1230   44.2500 H   0  0  0  0  0  0  0  0  0  0  0  0
   42.6060   35.5610   42.3290 H   0  0  0  0  0  0  0  0  0  0  0  0
   43.2380   34.4420   40.0020 C   0  0  0  0  0  0  0  0  0  0  0  0
   42.4060   35.3250   39.6510 O   0  0  0  0  0  0  0  0  0  0  0  0
   43.2810   33.1200   39.2900 C   0  0  0  0  0  3  0  0  0  0  0  0
   42.0880   32.9770   38.3670 C   0  0  0  0  0  3  0  0  0  0  0  0
   42.3980   32.7650   37.3230 H   0  0  0  0  0  0  0  0  0  0  0  0
   41.1680   31.8510   38.7900 C   0  0  0  0  0  3  0  0  0  0  0  0
   40.3840   31.8050   37.9830 H   0  0  0  0  0  0  0  0  0  0  0  0
   41.8070   30.6260   38.8960 O   0  0  0  0  0  0  0  0  0  0  0  0
   43.0790   30.7220   39.4400 C   0  0  0  0  0  3  0  0  0  0  0  0
   43.4040   29.8160   39.9560 H   0  0  0  0  0  0  0  0  0  0  0  0
   43.1710   31.9760   40.2840 C   0  0  0  0  0  3  0  0  0  0  0  0
   44.0160   31.9120   40.9720 H   0  0  0  0  0  0  0  0  0  0  0  0
  1  7  1  1  0  0  0
  1 19  1  0  0  0  0
  2  9  1  0  0  0  0
  2  1  1  0  0  0  0
  3 10  1  0  0  0  0
  3  2  1  0  0  0  0
  4  3  1  0  0  0  0
  4  5  1  0  0  0  0
  5 14  1  0  0  0  0
  5  6  1  0  0  0  0
  6  1  1  0  0  0  0
  6 26  1  0  0  0  0
  6 16  1  1  0  0  0
  8  2  1  0  0  0  0
 11  3  1  0  0  0  0
 12  4  1  0  0  0  0
 13  4  1  0  0  0  0
 15  5  1  0  0  0  0
 17 22  1  0  0  0  0
 18 19  1  0  0  0  0
 18 17  2  0  0  0  0
 19 20  2  0  0  0  0
 20 21  1  0  0  0  0
 21 25  1  0  0  0  0
 22 21  2  0  0  0  0
 23 17  1  0  0  0  0
 24 18  1  0  0  0  0
 26 27  1  0  0  0  0
 27 28  2  0  0  0  0
 27 32  1  0  0  0  0
 28 33  1  0  0  0  0
 29 34  1  0  0  0  0
 29 28  1  0  0  0  0
 30 29  2  0  0  0  0
 31 30  1  0  0  0  0
 31 26  2  0  0  0  0
 35 30  1  0  0  0  0
 36 35  2  0  0  0  0
 37 35  1  0  0  0  0
 37 45  1  0  0  0  0
 38 40  1  0  0  0  0
 38 37  1  0  0  0  0
 39 38  1  0  0  0  0
 40 42  1  0  0  0  0
 41 40  1  0  0  0  0
 42 43  1  0  0  0  0
 43 44  1  0  0  0  0
 43 45  1  0  0  0  0
 45 46  1  0  0  0  0
M  END
>  <minimizedAffinity>
-5.2203474

>  <minimizedRMSD>
0.284415066

$$$$
