
     RDKit          3D

 32 33  0  0  0  0  0  0  0  0999 V2000
   46.1299   35.2606   42.7009 C   0  0  0  0  0  0  0  0  0  0  0  0
   46.6912   34.1710   43.3525 C   0  0  0  0  0  0  0  0  0  0  0  0
   46.2109   33.8440   44.6175 C   0  0  0  0  0  0  0  0  0  0  0  0
   45.2220   34.6042   45.1479 N   0  0  0  0  0  0  0  0  0  0  0  0
   44.6996   35.6556   44.4877 C   0  0  0  0  0  0  0  0  0  0  0  0
   45.1497   35.9801   43.2757 N   0  0  0  0  0  0  0  0  0  0  0  0
   47.7058   33.4682   42.6967 O   0  0  0  0  0  0  0  0  0  0  0  0
   49.5462   35.3677   42.7801 O   0  0  0  0  0  0  0  0  0  0  0  0
   48.9766   34.3120   41.9073 P   0  0  1  0  0  0  0  0  0  0  0  0
   50.2198   33.2441   41.5180 O   0  0  0  0  0  0  0  0  0  0  0  0
   48.4027   35.0256   40.5092 O   0  0  0  0  0  0  0  0  0  0  0  0
   48.0656   34.3772   39.3667 C   0  0  0  0  0  0  0  0  0  0  0  0
   46.9470   33.7788   39.4900 O   0  0  0  0  0  0  0  0  0  0  0  0
   46.4617   35.5707   41.7051 H   0  0  0  0  0  0  0  0  0  0  0  0
   46.6609   32.9906   45.1107 H   0  0  0  0  0  0  0  0  0  0  0  0
   43.9135   36.2420   44.9350 H   0  0  0  0  0  0  0  0  0  0  0  0
   50.1207   32.4055   42.0340 H   0  0  0  0  0  0  0  0  0  0  0  0
   47.7723   33.6984   38.0835 C   0  0  0  0  0  0  0  0  0  0  0  0
   48.5594   32.4660   37.8084 C   0  0  2  0  0  0  0  0  0  0  0  0
   48.1051   32.0546   36.8570 H   0  0  0  0  0  0  0  0  0  0  0  0
   50.0045   32.6672   37.4913 C   0  0  1  0  0  0  0  0  0  0  0  0
   50.6125   32.2342   38.3065 H   0  0  0  0  0  0  0  0  0  0  0  0
   50.3109   33.9985   37.2254 O   0  0  0  0  0  0  0  0  0  0  0  0
   49.3740   34.4623   36.2953 C   0  0  2  0  0  0  0  0  0  0  0  0
   49.2449   33.6932   35.5113 H   0  0  0  0  0  0  0  0  0  0  0  0
   48.0687   34.7126   36.9947 C   0  0  2  0  0  0  0  0  0  0  0  0
   48.1261   35.7595   37.3979 H   0  0  0  0  0  0  0  0  0  0  0  0
   46.6979   33.4184   37.9969 H   0  0  0  0  0  0  0  0  0  0  0  0
   48.3583   31.6443   38.5454 H   0  0  0  0  0  0  0  0  0  0  0  0
   50.3329   32.1127   36.5633 H   0  0  0  0  0  0  0  0  0  0  0  0
   49.7543   35.4065   35.8529 H   0  0  0  0  0  0  0  0  0  0  0  0
   47.2156   34.7636   36.2637 H   0  0  0  0  0  0  0  0  0  0  0  0
  1  6  2  0
  1  2  1  0
  2  3  2  0
  3  4  1  0
  5  4  2  0
  6  5  1  0
  7  2  1  0
  9  7  1  1
  9  8  2  0
 10  9  1  0
 11  9  1  0
 12 13  2  0
 12 11  1  0
  1 14  1  0
  3 15  1  0
  5 16  1  0
 10 17  1  0
 18 19  1  0
 19 20  1  6
 19 21  1  0
 21 22  1  1
 21 23  1  0
 23 24  1  0
 24 25  1  6
 24 26  1  0
 26 27  1  1
 26 18  1  0
 18 28  1  0
 19 29  1  0
 21 30  1  0
 24 31  1  0
 26 32  1  0
 12 18  1  0
M  ISO  8  14  14  15  14  16  14  17   3  20  15  22  15  25  15  27  15
M  END
>  <DihAtoms>  (1) 
12,11,17,18

>  <DihDeg>  (1) 
-0.2848241532250145

$$$$
