
 OpenBabel03242521173D

 39 41  0  0  0  0  0  0  0  0999 V2000
   46.4370   32.9730   46.4970 C   0  0  0  0  0  0  0  0  0  0  0  0
   46.8840   32.1090   45.9940 H   0  0  0  0  0  0  0  0  0  0  0  0
   47.2780   33.5010   47.0290 H   0  0  0  0  0  0  0  0  0  0  0  0
   44.5090   35.6820   44.7790 C   0  0  0  0  0  0  0  0  0  0  0  0
   45.1090   35.6460   43.5080 C   0  0  0  0  0  0  0  0  0  0  0  0
   46.1180   34.7140   43.3190 C   0  0  0  0  0  0  0  0  0  0  0  0
   46.4800   33.8840   44.3620 N   0  0  0  0  0  0  0  0  0  0  0  0
   45.8700   33.9660   45.5490 C   0  0  0  0  0  0  0  0  0  0  0  0
   44.8730   34.8660   45.7870 N   0  0  0  0  0  0  0  0  0  0  0  0
   43.7100   36.4000   44.9720 H   0  0  0  0  0  0  0  0  0  0  0  0
   44.7870   36.3150   42.7350 H   0  0  0  0  0  0  0  0  0  0  0  0
   46.7470   34.6550   42.0360 N   0  0  0  0  0  0  0  0  0  0  0  0
   47.9440   35.2370   41.8820 C   0  0  0  0  0  0  0  0  0  0  0  0
   48.5650   35.1870   40.6470 C   0  0  0  0  0  0  0  0  0  0  0  0
   47.9230   34.5410   39.6360 C   0  0  0  0  0  0  0  0  0  0  0  0
   48.5000   34.4990   38.4950 O   0  0  0  0  0  0  0  0  0  0  0  0
   46.7160   33.9470   39.7670 N   0  0  0  0  0  0  0  0  0  0  0  0
   46.1710   34.0350   40.9940 C   0  0  0  0  0  0  0  0  0  0  0  0
   45.0490   33.5160   41.2320 O   0  0  0  0  0  0  0  0  0  0  0  0
   48.4660   35.7550   42.6850 H   0  0  0  0  0  0  0  0  0  0  0  0
   49.5330   35.6460   40.4830 H   0  0  0  0  0  0  0  0  0  0  0  0
   46.2340   33.4550   38.9810 H   0  0  0  0  0  0  0  0  0  0  0  0
   45.4300   32.5940   47.5530 C   0  0  0  0  0  0  0  0  0  0  0  0
   44.5860   33.3030   47.4930 H   0  0  0  0  0  0  0  0  0  0  0  0
   45.8430   32.6620   48.5750 H   0  0  0  0  0  0  0  0  0  0  0  0
   45.4770   30.1550   47.8460 C   0  0  0  0  0  0  0  0  0  0  0  0
   46.4170   30.3780   48.6570 O   0  0  0  0  0  0  0  0  0  0  0  0
   44.9030   31.2740   47.2390 N   0  0  0  0  0  0  0  0  0  0  0  0
   44.1150   31.1970   46.5720 H   0  0  0  0  0  0  0  0  0  0  0  0
   45.0150   28.7690   47.5610 C   0  0  0  0  0  3  0  0  0  0  0  0
   44.1740   28.7010   46.3030 C   0  0  0  0  0  3  0  0  0  0  0  0
   44.8580   28.8010   45.4200 H   0  0  0  0  0  0  0  0  0  0  0  0
   43.6240   27.2820   46.2310 C   0  0  0  0  0  3  0  0  0  0  0  0
   42.8980   27.1570   45.4200 H   0  0  0  0  0  0  0  0  0  0  0  0
   44.7470   26.4570   46.0190 O   0  0  0  0  0  0  0  0  0  0  0  0
   45.5350   26.4370   47.1500 C   0  0  0  0  0  3  0  0  0  0  0  0
   46.3790   25.7380   46.9600 H   0  0  0  0  0  0  0  0  0  0  0  0
   46.1420   27.7800   47.4670 C   0  0  0  0  0  3  0  0  0  0  0  0
   46.9360   28.0340   46.7670 H   0  0  0  0  0  0  0  0  0  0  0  0
  1  3  1  0  0  0  0
  1 23  1  0  0  0  0
  2  1  1  0  0  0  0
  4 10  1  0  0  0  0
  4  9  1  0  0  0  0
  5  4  2  0  0  0  0
  6  5  1  0  0  0  0
  6  7  2  0  0  0  0
  7  8  1  0  0  0  0
  8  9  2  0  0  0  0
  8  1  1  0  0  0  0
 11  5  1  0  0  0  0
 12  6  1  0  0  0  0
 13 12  1  0  0  0  0
 13 20  1  0  0  0  0
 14 13  2  0  0  0  0
 15 17  1  0  0  0  0
 15 14  1  0  0  0  0
 16 15  2  0  0  0  0
 17 18  1  0  0  0  0
 18 19  2  0  0  0  0
 18 12  1  0  0  0  0
 21 14  1  0  0  0  0
 22 17  1  0  0  0  0
 23 25  1  0  0  0  0
 24 23  1  0  0  0  0
 26 27  2  0  0  0  0
 28 23  1  0  0  0  0
 28 26  1  0  0  0  0
 29 28  1  0  0  0  0
 30 26  1  0  0  0  0
 31 30  1  0  0  0  0
 32 31  1  0  0  0  0
 33 31  1  0  0  0  0
 34 33  1  0  0  0  0
 35 33  1  0  0  0  0
 35 36  1  0  0  0  0
 36 38  1  0  0  0  0
 37 36  1  0  0  0  0
 38 30  1  0  0  0  0
 39 38  1  0  0  0  0
M  END
>  <minimizedAffinity>
-6.41128397

>  <minimizedRMSD>
1.11662567

$$$$
