REMARK  Name = 
REMARK  4 active torsions:
REMARK  status: ('A' for Active; 'I' for Inactive)
REMARK    1  A    between atoms: C_1  and  C_4
REMARK    2  A    between atoms: C_1  and  C_11
REMARK    3  A    between atoms: C_12  and  C_17
REMARK    4  A    between atoms: C_17  and  C_35
REMARK                            x       y       z     vdW  Elec       q    Type
REMARK                         _______ _______ _______ _____ _____    ______ ____
ROOT
ATOM      1  C   UNL     1      48.060  34.547  41.730  0.00  0.00    +0.000 C 
ATOM      2  C   UNL     1      48.820  35.836  41.390  0.00  0.00    +0.000 C 
ATOM      3  C   UNL     1      49.454  34.709  42.072  0.00  0.00    +0.000 C 
ATOM      4  H   UNL     1      48.524  36.742  41.957  0.00  0.00    +0.000 HD
ATOM      5  H   UNL     1      49.043  36.066  40.335  0.00  0.00    +0.000 HD
ATOM      6  H   UNL     1      50.212  34.181  41.454  0.00  0.00    +0.000 HD
ATOM      7  H   UNL     1      49.874  34.965  43.053  0.00  0.00    +0.000 HD
ENDROOT
BRANCH   1   8
ATOM      8  C   UNL     1      47.671  33.763  40.530  0.00  0.00    +0.000 C 
ATOM      9  C   UNL     1      48.132  34.347  39.206  0.00  0.00    +0.000 C 
ATOM     10  C   UNL     1      47.749  33.284  38.161  0.00  0.00    +0.000 C 
ATOM     11  O   UNL     1      46.364  33.403  37.981  0.00  0.00    +0.000 OA
ATOM     12  C   UNL     1      45.843  32.816  39.166  0.00  0.00    +0.000 C 
ATOM     13  C   UNL     1      46.131  33.733  40.350  0.00  0.00    +0.000 C 
ATOM     14  H   UNL     1      47.952  32.702  40.551  0.00  0.00    +0.000 HD
ATOM     15  H   UNL     1      49.227  34.433  39.121  0.00  0.00    +0.000 HD
ATOM     16  H   UNL     1      47.570  35.267  38.984  0.00  0.00    +0.000 HD
ATOM     17  H   UNL     1      48.058  32.285  38.483  0.00  0.00    +0.000 HD
ATOM     18  H   UNL     1      48.298  33.533  37.233  0.00  0.00    +0.000 HD
ATOM     19  H   UNL     1      44.773  32.615  39.103  0.00  0.00    +0.000 HD
ATOM     20  H   UNL     1      46.376  31.863  39.348  0.00  0.00    +0.000 HD
ATOM     21  H   UNL     1      45.632  33.313  41.223  0.00  0.00    +0.000 HD
ATOM     22  H   UNL     1      45.856  34.775  40.117  0.00  0.00    +0.000 HD
ENDBRANCH   1   8
BRANCH   1  24
ATOM     23  C   UNL     1      46.146  35.801  42.804  0.00  0.00    +0.000 A 
ATOM     24  C   UNL     1      47.003  34.714  42.790  0.00  0.00    +0.000 A 
ATOM     25  C   UNL     1      46.857  33.786  43.814  0.00  0.00    +0.000 A 
ATOM     26  N   UNL     1      45.902  33.963  44.779  0.00  0.00    +0.000 NA
ATOM     27  C   UNL     1      45.116  35.038  44.722  0.00  0.00    +0.000 A 
ATOM     28  N   UNL     1      45.219  35.939  43.772  0.00  0.00    +0.000 NA
ATOM     29  N   UNL     1      44.105  35.275  45.701  0.00  0.00    +0.000 N 
ATOM     30  H   UNL     1      46.241  36.533  42.020  0.00  0.00    +0.000 HD
ATOM     31  H   UNL     1      44.445  35.927  46.450  0.00  0.00    +0.000 HD
ATOM     32  H   UNL     1      43.210  34.778  45.530  0.00  0.00    +0.000 HD
BRANCH  25  33
ATOM     33  C   UNL     1      47.742  32.649  43.970  0.00  0.00    +0.000 C 
ATOM     34  O   UNL     1      47.493  31.480  44.345  0.00  0.00    +0.000 OA
BRANCH  33  35
ATOM     35  C   UNL     1      49.029  31.917  43.940  0.00  0.00    +0.000 C 
ATOM     36  C   UNL     1      48.852  30.401  44.004  0.00  0.00    +0.000 C 
ATOM     37  H   UNL     1      47.883  30.168  44.480  0.00  0.00    +0.000 HD
ATOM     38  C   UNL     1      48.954  29.708  42.694  0.00  0.00    +0.000 C 
ATOM     39  H   UNL     1      48.903  28.603  42.922  0.00  0.00    +0.000 HD
ATOM     40  O   UNL     1      50.202  29.881  42.087  0.00  0.00    +0.000 OA
ATOM     41  C   UNL     1      50.839  31.014  42.604  0.00  0.00    +0.000 C 
ATOM     42  H   UNL     1      51.745  31.278  42.067  0.00  0.00    +0.000 HD
ATOM     43  C   UNL     1      49.844  32.166  42.682  0.00  0.00    +0.000 C 
ATOM     44  H   UNL     1      50.436  33.067  42.752  0.00  0.00    +0.000 HD
ENDBRANCH  33  35
ENDBRANCH  25  33
ENDBRANCH   1  24
TORSDOF 4
