
     RDKit          3D

 44 46  0  0  0  0  0  0  0  0999 V2000
   44.5198   35.8232   44.8556 C   0  0  0  0  0  0  0  0  0  0  0  0
   45.1318   35.7710   43.5915 C   0  0  0  0  0  0  0  0  0  0  0  0
   46.0109   34.7226   43.3655 C   0  0  0  0  0  0  0  0  0  0  0  0
   46.2398   33.8003   44.3672 N   0  0  0  0  0  0  0  0  0  0  0  0
   45.6264   33.9044   45.5499 C   0  0  0  0  0  0  0  0  0  0  0  0
   44.7530   34.9155   45.8243 N   0  0  0  0  0  0  0  0  0  0  0  0
   46.6487   34.6436   42.0882 N   0  0  0  0  0  0  0  0  0  0  0  0
   47.8820   35.1522   41.9546 C   0  0  0  0  0  0  0  0  0  0  0  0
   48.5118   35.0834   40.7257 C   0  0  0  0  0  0  0  0  0  0  0  0
   47.8417   34.4955   39.6976 C   0  0  0  0  0  0  0  0  0  0  0  0
   48.4285   34.4339   38.5615 O   0  0  0  0  0  0  0  0  0  0  0  0
   46.5995   33.9760   39.8069 N   0  0  0  0  0  0  0  0  0  0  0  0
   46.0475   34.0776   41.0296 C   0  0  0  0  0  0  0  0  0  0  0  0
   44.8919   33.6275   41.2485 O   0  0  0  0  0  0  0  0  0  0  0  0
   46.0382   32.7967   46.4512 C   0  0  0  0  0  0  0  0  0  0  0  0
   45.2673   32.8349   47.7461 C   0  0  0  0  0  0  0  0  0  0  0  0
   45.1386   30.6388   48.8422 C   0  0  0  0  0  0  0  0  0  0  0  0
   46.1664   31.0131   49.4710 O   0  0  0  0  0  0  0  0  0  0  0  0
   44.6045   31.5506   47.9288 N   0  0  0  0  0  0  0  0  0  0  0  0
   43.8204   36.6312   45.0780 H   0  0  0  0  0  0  0  0  0  0  0  0
   44.9162   36.5154   42.8510 H   0  0  0  0  0  0  0  0  0  0  0  0
   48.4257   35.6245   42.7719 H   0  0  0  0  0  0  0  0  0  0  0  0
   49.5078   35.4831   40.5786 H   0  0  0  0  0  0  0  0  0  0  0  0
   46.0954   33.5268   39.0090 H   0  0  0  0  0  0  0  0  0  0  0  0
   46.0170   31.8177   45.9622 H   0  0  0  0  0  0  0  0  0  0  0  0
   47.1153   32.9985   46.7122 H   0  0  0  0  0  0  0  0  0  0  0  0
   44.4750   33.5976   47.6518 H   0  0  0  0  0  0  0  0  0  0  0  0
   45.8975   33.1214   48.6058 H   0  0  0  0  0  0  0  0  0  0  0  0
   43.7538   31.3449   47.3772 H   0  0  0  0  0  0  0  0  0  0  0  0
   44.5389   29.2971   49.0710 C   0  0  1  0  0  0  0  0  0  0  0  0
   44.4386   28.9661   50.5462 C   0  0  2  0  0  0  0  0  0  0  0  0
   43.5987   29.5682   50.9824 H   0  0  0  0  0  0  0  0  0  0  0  0
   43.9850   27.5148   50.6314 C   0  0  2  0  0  0  0  0  0  0  0  0
   43.9973   27.1338   51.6580 H   0  0  0  0  0  0  0  0  0  0  0  0
   42.6713   27.5040   50.1184 O   0  0  0  0  0  0  0  0  0  0  0  0
   42.6954   27.7529   48.7628 C   0  0  2  0  0  0  0  0  0  0  0  0
   41.6496   27.6850   48.3897 H   0  0  0  0  0  0  0  0  0  0  0  0
   43.1901   29.1371   48.4272 C   0  0  1  0  0  0  0  0  0  0  0  0
   42.4531   29.8965   48.6802 H   0  0  0  0  0  0  0  0  0  0  0  0
   45.1935   28.5193   48.5981 H   0  0  0  0  0  0  0  0  0  0  0  0
   45.3788   29.1372   51.0796 H   0  0  0  0  0  0  0  0  0  0  0  0
   44.6431   26.9466   49.9247 H   0  0  0  0  0  0  0  0  0  0  0  0
   43.2607   26.9687   48.2131 H   0  0  0  0  0  0  0  0  0  0  0  0
   43.3766   29.1201   47.3180 H   0  0  0  0  0  0  0  0  0  0  0  0
  1  6  2  0
  2  1  1  0
  3  2  2  0
  3  4  1  0
  4  5  2  0
  5  6  1  0
  5 15  1  0
  7  3  1  0
  8  7  1  0
  9  8  2  0
 10 12  1  0
 10  9  1  0
 11 10  2  0
 12 13  1  0
 13 14  2  0
 13  7  1  0
 15 16  1  0
 16 19  1  0
 17 18  2  0
 19 17  1  0
  1 20  1  0
  2 21  1  0
  8 22  1  0
  9 23  1  0
 12 24  1  0
 15 25  1  0
 15 26  1  0
 16 27  1  0
 16 28  1  0
 19 29  1  0
 30 31  1  0
 31 32  1  1
 31 33  1  0
 33 34  1  1
 33 35  1  0
 35 36  1  0
 36 37  1  6
 36 38  1  0
 38 39  1  6
 38 30  1  0
 30 40  1  6
 31 41  1  0
 33 42  1  0
 36 43  1  0
 38 44  1  0
 17 30  1  0
M  ISO  8  20  14  21  14  22  14  23  14  24   9  25   8  26   8  27   8
M  ISO  5  28   8  32  15  34  15  37  15  39  15
M  END
>  <DihAtoms>  (1) 
17,16,29,30

>  <DihDeg>  (1) 
119.99985295397816

$$$$
