
 OpenBabel03252507463D

 38 40  0  0  0  0  0  0  0  0999 V2000
   47.5690   34.5750   40.8550 C   0  0  0  0  0  0  0  0  0  0  0  0
   46.9350   34.0140   40.1470 H   0  0  0  0  0  0  0  0  0  0  0  0
   47.8990   35.5030   40.3230 H   0  0  0  0  0  0  0  0  0  0  0  0
   48.7980   33.8330   41.2030 C   0  0  0  0  0  0  0  0  0  0  0  0
   49.0100   32.6330   40.5310 C   0  0  0  0  0  0  0  0  0  0  0  0
   50.1410   31.8860   40.8020 C   0  0  0  0  0  0  0  0  0  0  0  0
   51.0190   32.3580   41.7310 N   0  0  0  0  0  0  0  0  0  0  0  0
   50.7790   33.5310   42.3660 C   0  0  0  0  0  0  0  0  0  0  0  0
   49.6940   34.2290   42.0930 N   0  0  0  0  0  0  0  0  0  0  0  0
   50.3130   30.9410   40.2750 H   0  0  0  0  0  0  0  0  0  0  0  0
   51.5240   33.8430   43.0940 H   0  0  0  0  0  0  0  0  0  0  0  0
   47.8170   32.0570   39.3100 S   0  0  0  0  0  0  0  0  0  0  0  0
   46.4100   31.2240   40.1110 C   0  0  0  0  0  3  0  0  0  0  0  0
   46.8320   29.8140   40.4290 C   0  0  0  0  0  3  0  0  0  0  0  0
   47.7410   29.5420   39.8530 H   0  0  0  0  0  0  0  0  0  0  0  0
   45.7580   28.8570   40.0100 C   0  0  0  0  0  3  0  0  0  0  0  0
   45.7790   28.7740   38.9070 H   0  0  0  0  0  0  0  0  0  0  0  0
   44.5510   29.3760   40.4790 O   0  0  0  0  0  0  0  0  0  0  0  0
   44.1270   30.4220   39.6820 C   0  0  0  0  0  3  0  0  0  0  0  0
   43.5030   31.1270   40.2710 H   0  0  0  0  0  0  0  0  0  0  0  0
   45.2800   31.2060   39.1100 C   0  0  0  0  0  3  0  0  0  0  0  0
   44.9960   32.2810   38.9620 H   0  0  0  0  0  0  0  0  0  0  0  0
   46.7670   34.9730   42.0440 C   0  0  0  0  0  0  0  0  0  0  0  0
   46.9660   34.2430   42.8630 H   0  0  0  0  0  0  0  0  0  0  0  0
   47.0720   35.9710   42.3750 H   0  0  0  0  0  0  0  0  0  0  0  0
   45.2910   34.9490   41.8160 C   0  0  0  0  0  0  0  0  0  0  0  0
   44.4130   35.6000   42.7330 C   0  0  0  0  0  0  0  0  0  0  0  0
   42.7570   35.2790   42.0160 S   0  0  0  0  0  0  0  0  0  0  0  0
   43.5370   34.3090   40.5780 C   0  0  0  0  0  0  0  0  0  0  0  0
   44.6490   34.3770   40.8270 N   0  0  0  0  0  0  0  0  0  0  0  0
   44.6980   36.1390   43.6240 H   0  0  0  0  0  0  0  0  0  0  0  0
   42.7820   33.7290   39.5640 O   0  0  0  0  0  0  0  0  0  0  0  0
   40.8110   33.9490   37.8180 O   0  0  0  0  0  0  0  0  0  0  0  0
   41.8330   34.7600   38.6050 P   0  0  0  0  0  0  0  0  0  0  0  0
   41.0310   35.8360   39.6380 O   0  0  0  0  0  0  0  0  0  0  0  0
   40.4370   35.3560   40.2530 H   0  0  0  0  0  0  0  0  0  0  0  0
   42.8170   35.6570   37.5670 O   0  0  0  0  0  0  0  0  0  0  0  0
   42.4530   35.5790   36.6360 H   0  0  0  0  0  0  0  0  0  0  0  0
  1  4  1  0  0  0  0
  1 23  1  0  0  0  0
  2  1  1  0  0  0  0
  3  1  1  0  0  0  0
  4  9  1  0  0  0  0
  5  6  1  0  0  0  0
  5  4  2  0  0  0  0
  6  7  2  0  0  0  0
  7  8  1  0  0  0  0
  8 11  1  0  0  0  0
  9  8  2  0  0  0  0
 10  6  1  0  0  0  0
 12 13  1  0  0  0  0
 12  5  1  0  0  0  0
 13 14  1  0  0  0  0
 15 14  1  0  0  0  0
 16 14  1  0  0  0  0
 16 18  1  0  0  0  0
 17 16  1  0  0  0  0
 19 20  1  0  0  0  0
 19 18  1  0  0  0  0
 21 19  1  0  0  0  0
 21 13  1  0  0  0  0
 22 21  1  0  0  0  0
 23 25  1  0  0  0  0
 23 24  1  0  0  0  0
 26 23  1  0  0  0  0
 26 27  2  0  0  0  0
 27 31  1  0  0  0  0
 28 27  1  0  0  0  0
 29 30  2  0  0  0  0
 29 28  1  0  0  0  0
 30 26  1  0  0  0  0
 32 29  1  0  0  0  0
 33 34  2  0  0  0  0
 34 32  1  0  0  0  0
 34 35  1  0  0  0  0
 35 36  1  0  0  0  0
 37 34  1  0  0  0  0
 38 37  1  0  0  0  0
M  END
>  <minimizedAffinity>
-4.34472179

>  <minimizedRMSD>
0.825569212

$$$$
