
 OpenBabel03242519123D

 48 51  0  0  1  0  0  0  0  0999 V2000
   40.3190   33.7540   40.6670 C   0  0  0  0  0  0  0  0  0  0  0  0
   38.9220   33.8560   40.4850 C   0  0  0  0  0  0  0  0  0  0  0  0
   38.5180   35.1260   40.1380 C   0  0  0  0  0  0  0  0  0  0  0  0
   39.3250   36.2190   39.9710 C   0  0  0  0  0  0  0  0  0  0  0  0
   40.6740   36.0690   40.1590 C   0  0  0  0  0  0  0  0  0  0  0  0
   41.1550   34.8250   40.5070 C   0  0  0  0  0  0  0  0  0  0  0  0
   37.4440   35.2460   39.9900 H   0  0  0  0  0  0  0  0  0  0  0  0
   38.8560   37.1650   39.6950 H   0  0  0  0  0  0  0  0  0  0  0  0
   41.3070   36.9310   40.0260 H   0  0  0  0  0  0  0  0  0  0  0  0
   43.1730   35.4090   41.7550 C   0  0  0  0  0  0  0  0  0  0  0  0
   42.4680   36.1250   42.5550 O   0  0  0  0  0  0  0  0  0  0  0  0
   42.5630   34.7010   40.6950 N   0  0  0  0  0  0  0  0  0  0  0  0
   43.1080   34.0880   40.0400 H   0  0  0  0  0  0  0  0  0  0  0  0
   44.6270   35.3160   41.9340 C   0  0  0  0  0  3  0  0  0  0  0  0
   45.1350   36.1350   43.0820 C   0  0  0  0  0  3  0  0  0  0  0  0
   44.4100   36.9860   43.2450 H   0  0  0  0  0  0  0  0  0  0  0  0
   45.1350   35.3810   44.3940 C   0  0  0  0  0  3  0  0  0  0  0  0
   45.8070   35.9520   45.0860 H   0  0  0  0  0  0  0  0  0  0  0  0
   45.6400   34.1030   44.3040 O   0  0  0  0  0  0  0  0  0  0  0  0
   44.8590   33.3410   43.4080 C   0  0  0  0  0  3  0  0  0  0  0  0
   43.8180   33.4250   43.7330 H   0  0  0  0  0  0  0  0  0  0  0  0
   45.1280   33.9090   42.0400 C   0  0  0  0  0  3  0  0  0  0  0  0
   46.2490   33.9700   41.9530 H   0  0  0  0  0  0  0  0  0  0  0  0
   38.0160   32.7870   40.6350 N   0  0  0  0  0  0  0  0  0  0  0  0
   37.8770   32.6290   41.6680 H   0  0  0  0  0  0  0  0  0  0  0  0
   37.0660   30.0170   38.6140 N   0  0  0  0  0  0  0  0  0  0  0  0
   37.4920   30.4980   39.9210 C   0  0  0  0  0  0  0  0  0  0  0  0
   37.3300   31.9700   39.6860 C   0  0  2  0  0  0  0  0  0  0  0  0
   38.0410   32.1540   38.3500 C   0  0  0  0  0  0  0  0  0  0  0  0
   37.7190   30.8630   37.6410 C   0  0  0  0  0  0  0  0  0  0  0  0
   36.8600   30.1210   40.7480 H   0  0  0  0  0  0  0  0  0  0  0  0
   38.5690   30.2760   40.0270 H   0  0  0  0  0  0  0  0  0  0  0  0
   36.2620   32.2660   39.6290 H   0  0  0  0  0  0  0  0  0  0  0  0
   39.1370   32.1810   38.5940 H   0  0  0  0  0  0  0  0  0  0  0  0
   37.7140   33.0550   37.8270 H   0  0  0  0  0  0  0  0  0  0  0  0
   38.6700   30.3530   37.3480 H   0  0  0  0  0  0  0  0  0  0  0  0
   37.1140   31.0890   36.7520 H   0  0  0  0  0  0  0  0  0  0  0  0
   34.1290   28.0060   37.5100 C   0  0  0  0  0  0  0  0  0  0  0  0
   34.8850   29.1350   37.8320 C   0  0  0  0  0  0  0  0  0  0  0  0
   36.2090   28.9660   38.2620 C   0  0  0  0  0  0  0  0  0  0  0  0
   36.6590   27.6960   38.3320 N   0  0  0  0  0  0  0  0  0  0  0  0
   35.9420   26.6120   38.0250 C   0  0  0  0  0  0  0  0  0  0  0  0
   34.6570   26.7810   37.6080 N   0  0  0  0  0  0  0  0  0  0  0  0
   33.1450   28.2950   37.2010 H   0  0  0  0  0  0  0  0  0  0  0  0
   34.5340   30.1670   37.7810 H   0  0  0  0  0  0  0  0  0  0  0  0
   36.3210   25.6050   38.0870 H   0  0  0  0  0  0  0  0  0  0  0  0
   41.2420   31.4080   41.3210 N   0  0  0  0  0  0  0  0  0  0  0  0
   40.8270   32.4430   41.0340 C   0  0  0  0  0  0  0  0  0  0  0  0
  1 48  1  0  0  0  0
  2 24  1  0  0  0  0
  2  1  2  0  0  0  0
  3  2  1  0  0  0  0
  4  3  2  0  0  0  0
  4  5  1  0  0  0  0
  5  6  2  0  0  0  0
  6  1  1  0  0  0  0
  6 12  1  0  0  0  0
  7  3  1  0  0  0  0
  8  4  1  0  0  0  0
  9  5  1  0  0  0  0
 10 14  1  0  0  0  0
 10 11  2  0  0  0  0
 12 10  1  0  0  0  0
 13 12  1  0  0  0  0
 14 22  1  0  0  0  0
 14 15  1  0  0  0  0
 15 16  1  0  0  0  0
 15 17  1  0  0  0  0
 17 18  1  0  0  0  0
 19 17  1  0  0  0  0
 20 21  1  0  0  0  0
 20 19  1  0  0  0  0
 22 20  1  0  0  0  0
 23 22  1  0  0  0  0
 24 25  1  0  0  0  0
 26 27  1  0  0  0  0
 27 32  1  0  0  0  0
 27 31  1  0  0  0  0
 28 33  1  6  0  0  0
 28 27  1  0  0  0  0
 28 24  1  0  0  0  0
 29 34  1  0  0  0  0
 29 28  1  0  0  0  0
 30 29  1  0  0  0  0
 30 26  1  0  0  0  0
 35 29  1  0  0  0  0
 36 30  1  0  0  0  0
 37 30  1  0  0  0  0
 38 43  2  0  0  0  0
 38 39  1  0  0  0  0
 39 40  2  0  0  0  0
 40 41  1  0  0  0  0
 40 26  1  0  0  0  0
 42 46  1  0  0  0  0
 42 41  2  0  0  0  0
 43 42  1  0  0  0  0
 44 38  1  0  0  0  0
 45 39  1  0  0  0  0
 48 47  3  0  0  0  0
M  END
>  <minimizedAffinity>
-6.28424311

$$$$

 OpenBabel03242519123D

 48 51  0  0  1  0  0  0  0  0999 V2000
   39.1310   30.6370   40.1210 C   0  0  0  0  0  0  0  0  0  0  0  0
   39.2550   31.9260   39.5580 C   0  0  0  0  0  0  0  0  0  0  0  0
   38.0820   32.6460   39.6040 C   0  0  0  0  0  0  0  0  0  0  0  0
   36.8880   32.2240   40.1230 C   0  0  0  0  0  0  0  0  0  0  0  0
   36.8190   30.9640   40.6590 C   0  0  0  0  0  0  0  0  0  0  0  0
   37.9530   30.1820   40.6490 C   0  0  0  0  0  0  0  0  0  0  0  0
   38.1380   33.6490   39.1770 H   0  0  0  0  0  0  0  0  0  0  0  0
   36.0420   32.9120   40.0870 H   0  0  0  0  0  0  0  0  0  0  0  0
   35.8770   30.6350   41.0660 H   0  0  0  0  0  0  0  0  0  0  0  0
   38.1450   28.7030   42.5840 C   0  0  0  0  0  0  0  0  0  0  0  0
   38.4720   29.7070   43.3160 O   0  0  0  0  0  0  0  0  0  0  0  0
   37.8490   28.8770   41.2140 N   0  0  0  0  0  0  0  0  0  0  0  0
   37.5540   28.0810   40.5960 H   0  0  0  0  0  0  0  0  0  0  0  0
   38.0760   27.3570   43.1660 C   0  0  0  0  0  3  0  0  0  0  0  0
   37.5020   26.3360   42.2310 C   0  0  0  0  0  3  0  0  0  0  0  0
   36.8260   26.8760   41.5050 H   0  0  0  0  0  0  0  0  0  0  0  0
   38.5480   25.6780   41.3590 C   0  0  0  0  0  3  0  0  0  0  0  0
   38.0770   24.7460   40.9500 H   0  0  0  0  0  0  0  0  0  0  0  0
   39.6810   25.2920   42.0390 O   0  0  0  0  0  0  0  0  0  0  0  0
   40.3010   26.4220   42.6160 C   0  0  0  0  0  3  0  0  0  0  0  0
   40.4450   27.1570   41.8180 H   0  0  0  0  0  0  0  0  0  0  0  0
   39.3830   26.8770   43.7190 C   0  0  0  0  0  3  0  0  0  0  0  0
   39.1480   25.9520   44.3180 H   0  0  0  0  0  0  0  0  0  0  0  0
   40.4420   32.4440   39.0020 N   0  0  0  0  0  0  0  0  0  0  0  0
   40.5630   32.0120   38.0490 H   0  0  0  0  0  0  0  0  0  0  0  0
   42.3680   34.4800   41.1940 N   0  0  0  0  0  0  0  0  0  0  0  0
   41.7510   33.1850   40.9410 C   0  0  0  0  0  0  0  0  0  0  0  0
   41.4050   33.3760   39.4940 C   0  0  2  0  0  0  0  0  0  0  0  0
   40.7280   34.7430   39.5120 C   0  0  0  0  0  0  0  0  0  0  0  0
   41.5040   35.4650   40.5840 C   0  0  0  0  0  0  0  0  0  0  0  0
   42.4400   32.3360   41.1120 H   0  0  0  0  0  0  0  0  0  0  0  0
   40.8120   33.1410   41.5230 H   0  0  0  0  0  0  0  0  0  0  0  0
   42.3070   33.3700   38.8480 H   0  0  0  0  0  0  0  0  0  0  0  0
   39.6810   34.5550   39.8720 H   0  0  0  0  0  0  0  0  0  0  0  0
   40.7460   35.2250   38.5320 H   0  0  0  0  0  0  0  0  0  0  0  0
   40.7980   35.8190   41.3760 H   0  0  0  0  0  0  0  0  0  0  0  0
   42.0290   36.3150   40.1280 H   0  0  0  0  0  0  0  0  0  0  0  0
   45.8870   34.5940   42.4170 C   0  0  0  0  0  0  0  0  0  0  0  0
   44.7800   34.1700   41.6780 C   0  0  0  0  0  0  0  0  0  0  0  0
   43.5490   34.8130   41.8720 C   0  0  0  0  0  0  0  0  0  0  0  0
   43.5290   35.8130   42.7770 N   0  0  0  0  0  0  0  0  0  0  0  0
   44.5840   36.2230   43.4870 C   0  0  0  0  0  0  0  0  0  0  0  0
   45.7780   35.5960   43.2950 N   0  0  0  0  0  0  0  0  0  0  0  0
   46.7480   34.0110   42.1600 H   0  0  0  0  0  0  0  0  0  0  0  0
   44.7800   33.3640   40.9440 H   0  0  0  0  0  0  0  0  0  0  0  0
   44.5480   37.0250   44.2050 H   0  0  0  0  0  0  0  0  0  0  0  0
   41.2800   29.1660   40.1000 N   0  0  0  0  0  0  0  0  0  0  0  0
   40.3270   29.8100   40.1120 C   0  0  0  0  0  0  0  0  0  0  0  0
  1  6  1  0  0  0  0
  2  3  1  0  0  0  0
  2  1  2  0  0  0  0
  3  4  2  0  0  0  0
  4  5  1  0  0  0  0
  5  9  1  0  0  0  0
  6  5  2  0  0  0  0
  6 12  1  0  0  0  0
  7  3  1  0  0  0  0
  8  4  1  0  0  0  0
 10 14  1  0  0  0  0
 10 11  2  0  0  0  0
 12 10  1  0  0  0  0
 13 12  1  0  0  0  0
 14 22  1  0  0  0  0
 15 14  1  0  0  0  0
 16 15  1  0  0  0  0
 17 19  1  0  0  0  0
 17 15  1  0  0  0  0
 18 17  1  0  0  0  0
 19 20  1  0  0  0  0
 20 22  1  0  0  0  0
 21 20  1  0  0  0  0
 22 23  1  0  0  0  0
 24 28  1  0  0  0  0
 24  2  1  0  0  0  0
 25 24  1  0  0  0  0
 26 40  1  0  0  0  0
 27 31  1  0  0  0  0
 27 26  1  0  0  0  0
 27 32  1  0  0  0  0
 28 33  1  6  0  0  0
 28 29  1  0  0  0  0
 28 27  1  0  0  0  0
 29 34  1  0  0  0  0
 29 30  1  0  0  0  0
 30 26  1  0  0  0  0
 30 36  1  0  0  0  0
 35 29  1  0  0  0  0
 37 30  1  0  0  0  0
 38 43  1  0  0  0  0
 39 40  1  0  0  0  0
 39 38  2  0  0  0  0
 40 41  2  0  0  0  0
 41 42  1  0  0  0  0
 42 46  1  0  0  0  0
 43 42  2  0  0  0  0
 44 38  1  0  0  0  0
 45 39  1  0  0  0  0
 47 48  3  0  0  0  0
 48  1  1  0  0  0  0
M  END
>  <minimizedAffinity>
-6.14737701

$$$$

 OpenBabel03242519123D

 48 51  0  0  1  0  0  0  0  0999 V2000
   39.0730   31.2750   41.6270 C   0  0  0  0  0  0  0  0  0  0  0  0
   38.1910   30.1790   41.7470 C   0  0  0  0  0  0  0  0  0  0  0  0
   36.9870   30.3880   41.1100 C   0  0  0  0  0  0  0  0  0  0  0  0
   36.6170   31.5090   40.4190 C   0  0  0  0  0  0  0  0  0  0  0  0
   37.5090   32.5460   40.3310 C   0  0  0  0  0  0  0  0  0  0  0  0
   38.7360   32.4110   40.9420 C   0  0  0  0  0  0  0  0  0  0  0  0
   36.2770   29.5630   41.1810 H   0  0  0  0  0  0  0  0  0  0  0  0
   35.6240   31.5280   39.9660 H   0  0  0  0  0  0  0  0  0  0  0  0
   37.2140   33.4270   39.7850 H   0  0  0  0  0  0  0  0  0  0  0  0
   40.4000   33.6470   39.6490 C   0  0  0  0  0  0  0  0  0  0  0  0
   40.2520   32.8210   38.6760 O   0  0  0  0  0  0  0  0  0  0  0  0
   39.6420   33.5070   40.8330 N   0  0  0  0  0  0  0  0  0  0  0  0
   39.7210   34.1800   41.6350 H   0  0  0  0  0  0  0  0  0  0  0  0
   41.3620   34.7500   39.5400 C   0  0  0  0  0  3  0  0  0  0  0  0
   41.7600   35.3220   40.8680 C   0  0  0  0  0  3  0  0  0  0  0  0
   40.9140   35.1300   41.5920 H   0  0  0  0  0  0  0  0  0  0  0  0
   42.9510   34.6200   41.4810 C   0  0  0  0  0  3  0  0  0  0  0  0
   43.3460   35.3050   42.2770 H   0  0  0  0  0  0  0  0  0  0  0  0
   43.9820   34.3920   40.5970 O   0  0  0  0  0  0  0  0  0  0  0  0
   43.5360   33.5660   39.5430 C   0  0  0  0  0  3  0  0  0  0  0  0
   43.0840   32.6780   39.9950 H   0  0  0  0  0  0  0  0  0  0  0  0
   42.5790   34.4060   38.7390 C   0  0  0  0  0  3  0  0  0  0  0  0
   43.1150   35.3780   38.5500 H   0  0  0  0  0  0  0  0  0  0  0  0
   38.4860   28.9870   42.4380 N   0  0  0  0  0  0  0  0  0  0  0  0
   38.5730   29.2250   43.4610 H   0  0  0  0  0  0  0  0  0  0  0  0
   38.0060   25.4970   41.9390 N   0  0  0  0  0  0  0  0  0  0  0  0
   37.4080   26.8230   42.0150 C   0  0  0  0  0  0  0  0  0  0  0  0
   38.6650   27.6410   41.9970 C   0  0  2  0  0  0  0  0  0  0  0  0
   39.5100   26.9390   43.0550 C   0  0  0  0  0  0  0  0  0  0  0  0
   39.1080   25.4970   42.8740 C   0  0  0  0  0  0  0  0  0  0  0  0
   36.7370   27.0460   41.1640 H   0  0  0  0  0  0  0  0  0  0  0  0
   36.9390   26.9240   43.0110 H   0  0  0  0  0  0  0  0  0  0  0  0
   39.1540   27.6270   41.0020 H   0  0  0  0  0  0  0  0  0  0  0  0
   39.1270   27.3110   44.0420 H   0  0  0  0  0  0  0  0  0  0  0  0
   40.5770   27.1340   42.9280 H   0  0  0  0  0  0  0  0  0  0  0  0
   38.7170   25.0970   43.8430 H   0  0  0  0  0  0  0  0  0  0  0  0
   39.9850   24.9230   42.5460 H   0  0  0  0  0  0  0  0  0  0  0  0
   36.1950   23.0490   39.7910 C   0  0  0  0  0  0  0  0  0  0  0  0
   36.4160   24.2030   40.5450 C   0  0  0  0  0  0  0  0  0  0  0  0
   37.6630   24.3840   41.1590 C   0  0  0  0  0  0  0  0  0  0  0  0
   38.5740   23.4080   40.9680 N   0  0  0  0  0  0  0  0  0  0  0  0
   38.3700   22.3010   40.2480 C   0  0  0  0  0  0  0  0  0  0  0  0
   37.1570   22.1290   39.6540 N   0  0  0  0  0  0  0  0  0  0  0  0
   35.2030   23.0530   39.3880 H   0  0  0  0  0  0  0  0  0  0  0  0
   35.6900   25.0010   40.7070 H   0  0  0  0  0  0  0  0  0  0  0  0
   39.1110   21.5330   40.1080 H   0  0  0  0  0  0  0  0  0  0  0  0
   41.3890   31.0130   42.7890 N   0  0  0  0  0  0  0  0  0  0  0  0
   40.3680   31.1350   42.2720 C   0  0  0  0  0  0  0  0  0  0  0  0
  1  2  1  0  0  0  0
  1 48  1  0  0  0  0
  2 24  1  0  0  0  0
  3  7  1  0  0  0  0
  3  2  2  0  0  0  0
  4  3  1  0  0  0  0
  5  4  2  0  0  0  0
  5  6  1  0  0  0  0
  6  1  2  0  0  0  0
  8  4  1  0  0  0  0
  9  5  1  0  0  0  0
 10 12  1  0  0  0  0
 11 10  2  0  0  0  0
 12  6  1  0  0  0  0
 12 13  1  0  0  0  0
 14 10  1  0  0  0  0
 14 15  1  0  0  0  0
 15 17  1  0  0  0  0
 15 16  1  0  0  0  0
 17 18  1  0  0  0  0
 19 17  1  0  0  0  0
 20 21  1  0  0  0  0
 20 19  1  0  0  0  0
 22 14  1  0  0  0  0
 22 20  1  0  0  0  0
 23 22  1  0  0  0  0
 24 25  1  0  0  0  0
 26 27  1  0  0  0  0
 26 30  1  0  0  0  0
 27 32  1  0  0  0  0
 28 33  1  6  0  0  0
 28 27  1  0  0  0  0
 28 24  1  0  0  0  0
 28 29  1  0  0  0  0
 29 34  1  0  0  0  0
 30 29  1  0  0  0  0
 30 36  1  0  0  0  0
 31 27  1  0  0  0  0
 35 29  1  0  0  0  0
 37 30  1  0  0  0  0
 38 39  1  0  0  0  0
 39 45  1  0  0  0  0
 39 40  2  0  0  0  0
 40 26  1  0  0  0  0
 41 40  1  0  0  0  0
 42 41  2  0  0  0  0
 43 38  2  0  0  0  0
 43 42  1  0  0  0  0
 44 38  1  0  0  0  0
 46 42  1  0  0  0  0
 48 47  3  0  0  0  0
M  END
>  <minimizedAffinity>
-6.08631039

$$$$

 OpenBabel03242519123D

 48 51  0  0  1  0  0  0  0  0999 V2000
   38.9600   31.6120   41.1000 C   0  0  0  0  0  0  0  0  0  0  0  0
   39.2880   32.6630   40.2160 C   0  0  0  0  0  0  0  0  0  0  0  0
   38.2530   32.9940   39.3700 C   0  0  0  0  0  0  0  0  0  0  0  0
   37.0150   32.4130   39.3310 C   0  0  0  0  0  0  0  0  0  0  0  0
   36.7450   31.3960   40.2100 C   0  0  0  0  0  0  0  0  0  0  0  0
   37.7320   31.0080   41.0900 C   0  0  0  0  0  0  0  0  0  0  0  0
   38.4690   33.8030   38.6690 H   0  0  0  0  0  0  0  0  0  0  0  0
   36.2960   32.7850   38.6000 H   0  0  0  0  0  0  0  0  0  0  0  0
   35.7690   30.9400   40.1780 H   0  0  0  0  0  0  0  0  0  0  0  0
   37.4420   28.6200   41.5140 C   0  0  0  0  0  0  0  0  0  0  0  0
   37.7680   28.3670   40.2970 O   0  0  0  0  0  0  0  0  0  0  0  0
   37.4200   29.9490   41.9920 N   0  0  0  0  0  0  0  0  0  0  0  0
   37.1820   30.1850   42.9870 H   0  0  0  0  0  0  0  0  0  0  0  0
   37.0860   27.5240   42.4240 C   0  0  0  0  0  3  0  0  0  0  0  0
   37.2690   26.1660   41.8170 C   0  0  0  0  0  3  0  0  0  0  0  0
   37.1700   26.2740   40.6970 H   0  0  0  0  0  0  0  0  0  0  0  0
   38.6600   25.6070   42.0230 C   0  0  0  0  0  3  0  0  0  0  0  0
   38.5900   24.5060   41.8230 H   0  0  0  0  0  0  0  0  0  0  0  0
   39.1370   25.7550   43.3060 O   0  0  0  0  0  0  0  0  0  0  0  0
   39.2080   27.1270   43.6350 C   0  0  0  0  0  3  0  0  0  0  0  0
   39.7840   27.6200   42.8470 H   0  0  0  0  0  0  0  0  0  0  0  0
   37.7830   27.5980   43.7480 C   0  0  0  0  0  3  0  0  0  0  0  0
   37.2690   26.8490   44.4140 H   0  0  0  0  0  0  0  0  0  0  0  0
   40.5340   33.3200   40.1840 N   0  0  0  0  0  0  0  0  0  0  0  0
   40.5610   33.9960   40.9920 H   0  0  0  0  0  0  0  0  0  0  0  0
   43.3440   32.0280   38.4230 N   0  0  0  0  0  0  0  0  0  0  0  0
   41.9940   31.8020   38.9240 C   0  0  0  0  0  0  0  0  0  0  0  0
   41.6530   33.2120   39.3030 C   0  0  2  0  0  0  0  0  0  0  0  0
   42.8850   33.6290   40.1010 C   0  0  0  0  0  0  0  0  0  0  0  0
   43.9890   32.8970   39.3800 C   0  0  0  0  0  0  0  0  0  0  0  0
   41.3120   31.3840   38.1590 H   0  0  0  0  0  0  0  0  0  0  0  0
   42.0750   31.2010   39.8470 H   0  0  0  0  0  0  0  0  0  0  0  0
   41.5010   33.8560   38.4120 H   0  0  0  0  0  0  0  0  0  0  0  0
   42.7460   33.1820   41.1220 H   0  0  0  0  0  0  0  0  0  0  0  0
   43.0050   34.7130   40.1390 H   0  0  0  0  0  0  0  0  0  0  0  0
   44.5330   32.2410   40.1050 H   0  0  0  0  0  0  0  0  0  0  0  0
   44.6730   33.6350   38.9400 H   0  0  0  0  0  0  0  0  0  0  0  0
   45.8120   31.3530   35.7140 C   0  0  0  0  0  0  0  0  0  0  0  0
   45.2870   31.8940   36.8890 C   0  0  0  0  0  0  0  0  0  0  0  0
   43.9810   31.5520   37.2690 C   0  0  0  0  0  0  0  0  0  0  0  0
   43.3190   30.7080   36.4510 N   0  0  0  0  0  0  0  0  0  0  0  0
   43.8150   30.1870   35.3260 C   0  0  0  0  0  0  0  0  0  0  0  0
   45.0840   30.5220   34.9610 N   0  0  0  0  0  0  0  0  0  0  0  0
   46.8110   31.7050   35.5590 H   0  0  0  0  0  0  0  0  0  0  0  0
   45.8100   32.5770   37.5600 H   0  0  0  0  0  0  0  0  0  0  0  0
   43.2710   29.5130   34.6860 H   0  0  0  0  0  0  0  0  0  0  0  0
   40.8220   30.8880   42.7700 N   0  0  0  0  0  0  0  0  0  0  0  0
   39.9990   31.2020   42.0290 C   0  0  0  0  0  0  0  0  0  0  0  0
  1 48  1  0  0  0  0
  2  1  2  0  0  0  0
  3  2  1  0  0  0  0
  4  3  2  0  0  0  0
  4  5  1  0  0  0  0
  5  6  2  0  0  0  0
  6  1  1  0  0  0  0
  6 12  1  0  0  0  0
  7  3  1  0  0  0  0
  8  4  1  0  0  0  0
  9  5  1  0  0  0  0
 10 12  1  0  0  0  0
 10 14  1  0  0  0  0
 11 10  2  0  0  0  0
 12 13  1  0  0  0  0
 14 22  1  0  0  0  0
 15 17  1  0  0  0  0
 15 14  1  0  0  0  0
 16 15  1  0  0  0  0
 17 19  1  0  0  0  0
 18 17  1  0  0  0  0
 19 20  1  0  0  0  0
 20 22  1  0  0  0  0
 21 20  1  0  0  0  0
 22 23  1  0  0  0  0
 24  2  1  0  0  0  0
 24 25  1  0  0  0  0
 26 27  1  0  0  0  0
 26 30  1  0  0  0  0
 27 28  1  0  0  0  0
 27 32  1  0  0  0  0
 28 33  1  6  0  0  0
 28 29  1  0  0  0  0
 28 24  1  0  0  0  0
 29 35  1  0  0  0  0
 29 34  1  0  0  0  0
 30 29  1  0  0  0  0
 30 36  1  0  0  0  0
 31 27  1  0  0  0  0
 37 30  1  0  0  0  0
 38 39  1  0  0  0  0
 39 40  2  0  0  0  0
 39 45  1  0  0  0  0
 40 26  1  0  0  0  0
 41 40  1  0  0  0  0
 42 41  2  0  0  0  0
 43 42  1  0  0  0  0
 43 38  2  0  0  0  0
 44 38  1  0  0  0  0
 46 42  1  0  0  0  0
 48 47  3  0  0  0  0
M  END
>  <minimizedAffinity>
-6.07415342

$$$$

 OpenBabel03242519123D

 48 51  0  0  1  0  0  0  0  0999 V2000
   38.7980   27.0930   42.0500 C   0  0  0  0  0  0  0  0  0  0  0  0
   38.9990   28.4120   42.5100 C   0  0  0  0  0  0  0  0  0  0  0  0
   38.0070   28.8390   43.3640 C   0  0  0  0  0  0  0  0  0  0  0  0
   36.9150   28.1190   43.7680 C   0  0  0  0  0  0  0  0  0  0  0  0
   36.7650   26.8420   43.2940 C   0  0  0  0  0  0  0  0  0  0  0  0
   37.7180   26.3440   42.4330 C   0  0  0  0  0  0  0  0  0  0  0  0
   38.1260   29.8570   43.7410 H   0  0  0  0  0  0  0  0  0  0  0  0
   36.2100   28.5960   44.4520 H   0  0  0  0  0  0  0  0  0  0  0  0
   35.9040   26.2780   43.6130 H   0  0  0  0  0  0  0  0  0  0  0  0
   36.8500   24.8150   40.7370 C   0  0  0  0  0  0  0  0  0  0  0  0
   36.4300   25.8170   40.0520 O   0  0  0  0  0  0  0  0  0  0  0  0
   37.5340   25.0120   41.9580 N   0  0  0  0  0  0  0  0  0  0  0  0
   37.9100   24.2150   42.5270 H   0  0  0  0  0  0  0  0  0  0  0  0
   36.6230   23.4460   40.2570 C   0  0  0  0  0  3  0  0  0  0  0  0
   36.0840   23.3900   38.8590 C   0  0  0  0  0  3  0  0  0  0  0  0
   35.5330   24.3560   38.6650 H   0  0  0  0  0  0  0  0  0  0  0  0
   37.1720   23.3560   37.8080 C   0  0  0  0  0  3  0  0  0  0  0  0
   36.6840   23.0020   36.8620 H   0  0  0  0  0  0  0  0  0  0  0  0
   38.1930   22.4760   38.0880 O   0  0  0  0  0  0  0  0  0  0  0  0
   38.8230   22.8440   39.2970 C   0  0  0  0  0  3  0  0  0  0  0  0
   39.1050   23.8980   39.2090 H   0  0  0  0  0  0  0  0  0  0  0  0
   37.8230   22.5600   40.3860 C   0  0  0  0  0  3  0  0  0  0  0  0
   37.4590   21.5110   40.1970 H   0  0  0  0  0  0  0  0  0  0  0  0
   40.0910   29.2270   42.1490 N   0  0  0  0  0  0  0  0  0  0  0  0
   40.9340   28.8850   42.6800 H   0  0  0  0  0  0  0  0  0  0  0  0
   39.5130   32.3420   40.5280 N   0  0  0  0  0  0  0  0  0  0  0  0
   39.6010   31.6040   41.7810 C   0  0  0  0  0  0  0  0  0  0  0  0
   40.2060   30.3360   41.2560 C   0  0  2  0  0  0  0  0  0  0  0  0
   39.3110   30.0340   40.0590 C   0  0  0  0  0  0  0  0  0  0  0  0
   38.9870   31.4160   39.5500 C   0  0  0  0  0  0  0  0  0  0  0  0
   40.2370   32.1050   42.5350 H   0  0  0  0  0  0  0  0  0  0  0  0
   38.5710   31.3880   42.1170 H   0  0  0  0  0  0  0  0  0  0  0  0
   41.2650   30.4750   40.9550 H   0  0  0  0  0  0  0  0  0  0  0  0
   38.3830   29.5680   40.4870 H   0  0  0  0  0  0  0  0  0  0  0  0
   39.7990   29.3830   39.3310 H   0  0  0  0  0  0  0  0  0  0  0  0
   37.8770   31.5530   39.5320 H   0  0  0  0  0  0  0  0  0  0  0  0
   39.4070   31.5290   38.5420 H   0  0  0  0  0  0  0  0  0  0  0  0
   39.4620   36.0490   40.1540 C   0  0  0  0  0  0  0  0  0  0  0  0
   39.0220   34.7720   40.5060 C   0  0  0  0  0  0  0  0  0  0  0  0
   39.8420   33.6700   40.2250 C   0  0  0  0  0  0  0  0  0  0  0  0
   41.0200   33.9360   39.6230 N   0  0  0  0  0  0  0  0  0  0  0  0
   41.4470   35.1550   39.2840 C   0  0  0  0  0  0  0  0  0  0  0  0
   40.6470   36.2230   39.5590 N   0  0  0  0  0  0  0  0  0  0  0  0
   38.7320   36.7820   40.4310 H   0  0  0  0  0  0  0  0  0  0  0  0
   38.0740   34.5410   40.9930 H   0  0  0  0  0  0  0  0  0  0  0  0
   42.3920   35.3470   38.8040 H   0  0  0  0  0  0  0  0  0  0  0  0
   40.6070   26.1550   40.4290 N   0  0  0  0  0  0  0  0  0  0  0  0
   39.8030   26.5650   41.1420 C   0  0  0  0  0  0  0  0  0  0  0  0
  1  6  2  0  0  0  0
  1  2  1  0  0  0  0
  2  3  2  0  0  0  0
  3  7  1  0  0  0  0
  3  4  1  0  0  0  0
  4  8  1  0  0  0  0
  5  9  1  0  0  0  0
  5  4  2  0  0  0  0
  6  5  1  0  0  0  0
 10 12  1  0  0  0  0
 11 10  2  0  0  0  0
 12  6  1  0  0  0  0
 12 13  1  0  0  0  0
 14 22  1  0  0  0  0
 14 10  1  0  0  0  0
 15 14  1  0  0  0  0
 16 15  1  0  0  0  0
 17 19  1  0  0  0  0
 17 15  1  0  0  0  0
 18 17  1  0  0  0  0
 19 20  1  0  0  0  0
 20 22  1  0  0  0  0
 21 20  1  0  0  0  0
 23 22  1  0  0  0  0
 24  2  1  0  0  0  0
 24 25  1  0  0  0  0
 26 27  1  0  0  0  0
 27 32  1  0  0  0  0
 27 31  1  0  0  0  0
 28 33  1  6  0  0  0
 28 27  1  0  0  0  0
 28 24  1  0  0  0  0
 29 34  1  0  0  0  0
 29 28  1  0  0  0  0
 30 29  1  0  0  0  0
 30 26  1  0  0  0  0
 35 29  1  0  0  0  0
 36 30  1  0  0  0  0
 37 30  1  0  0  0  0
 38 44  1  0  0  0  0
 38 39  1  0  0  0  0
 39 45  1  0  0  0  0
 40 39  2  0  0  0  0
 40 26  1  0  0  0  0
 41 40  1  0  0  0  0
 42 43  1  0  0  0  0
 42 41  2  0  0  0  0
 43 38  2  0  0  0  0
 46 42  1  0  0  0  0
 47 48  3  0  0  0  0
 48  1  1  0  0  0  0
M  END
>  <minimizedAffinity>
-6.07239771

$$$$

 OpenBabel03242519123D

 48 51  0  0  1  0  0  0  0  0999 V2000
   39.1030   29.8450   39.0980 C   0  0  0  0  0  0  0  0  0  0  0  0
   39.4930   30.9060   38.2520 C   0  0  0  0  0  0  0  0  0  0  0  0
   38.4220   31.6150   37.7550 C   0  0  0  0  0  0  0  0  0  0  0  0
   37.0990   31.3760   38.0080 C   0  0  0  0  0  0  0  0  0  0  0  0
   36.7720   30.3340   38.8360 C   0  0  0  0  0  0  0  0  0  0  0  0
   37.7900   29.5770   39.3740 C   0  0  0  0  0  0  0  0  0  0  0  0
   38.6820   32.4450   37.0950 H   0  0  0  0  0  0  0  0  0  0  0  0
   36.3600   32.0270   37.5380 H   0  0  0  0  0  0  0  0  0  0  0  0
   35.7290   30.1470   39.0340 H   0  0  0  0  0  0  0  0  0  0  0  0
   37.2380   28.7590   41.6090 C   0  0  0  0  0  0  0  0  0  0  0  0
   37.3760   29.9480   42.0760 O   0  0  0  0  0  0  0  0  0  0  0  0
   37.4170   28.5000   40.2320 N   0  0  0  0  0  0  0  0  0  0  0  0
   37.2870   27.5450   39.8170 H   0  0  0  0  0  0  0  0  0  0  0  0
   36.8900   27.6500   42.5070 C   0  0  0  0  0  3  0  0  0  0  0  0
   37.0570   26.3010   41.8740 C   0  0  0  0  0  3  0  0  0  0  0  0
   36.9430   26.4290   40.7580 H   0  0  0  0  0  0  0  0  0  0  0  0
   38.4480   25.7330   42.0510 C   0  0  0  0  0  3  0  0  0  0  0  0
   38.3700   24.6350   41.8340 H   0  0  0  0  0  0  0  0  0  0  0  0
   38.9440   25.8570   43.3290 O   0  0  0  0  0  0  0  0  0  0  0  0
   39.0270   27.2220   43.6800 C   0  0  0  0  0  3  0  0  0  0  0  0
   39.5940   27.7260   42.8920 H   0  0  0  0  0  0  0  0  0  0  0  0
   37.6060   27.6980   43.8210 C   0  0  0  0  0  3  0  0  0  0  0  0
   37.0970   26.9410   44.4820 H   0  0  0  0  0  0  0  0  0  0  0  0
   40.8280   31.2260   37.9350 N   0  0  0  0  0  0  0  0  0  0  0  0
   41.1370   30.5780   37.1640 H   0  0  0  0  0  0  0  0  0  0  0  0
   42.1280   34.0510   39.6660 N   0  0  0  0  0  0  0  0  0  0  0  0
   41.2230   32.9090   39.6770 C   0  0  0  0  0  0  0  0  0  0  0  0
   41.7290   32.2040   38.4550 C   0  0  2  0  0  0  0  0  0  0  0  0
   41.7830   33.3400   37.4380 C   0  0  0  0  0  0  0  0  0  0  0  0
   42.1750   34.5150   38.2980 C   0  0  0  0  0  0  0  0  0  0  0  0
   41.3080   32.2970   40.5950 H   0  0  0  0  0  0  0  0  0  0  0  0
   40.2050   33.2860   39.4680 H   0  0  0  0  0  0  0  0  0  0  0  0
   42.7290   31.7520   38.6210 H   0  0  0  0  0  0  0  0  0  0  0  0
   40.7270   33.4740   37.0820 H   0  0  0  0  0  0  0  0  0  0  0  0
   42.4700   33.1270   36.6160 H   0  0  0  0  0  0  0  0  0  0  0  0
   41.4040   35.3200   38.1980 H   0  0  0  0  0  0  0  0  0  0  0  0
   43.1580   34.8790   37.9720 H   0  0  0  0  0  0  0  0  0  0  0  0
   44.8020   35.0270   42.0700 C   0  0  0  0  0  0  0  0  0  0  0  0
   44.1890   34.3590   41.0090 C   0  0  0  0  0  0  0  0  0  0  0  0
   42.8520   34.6520   40.7040 C   0  0  0  0  0  0  0  0  0  0  0  0
   42.2490   35.5780   41.4780 N   0  0  0  0  0  0  0  0  0  0  0  0
   42.8300   36.2210   42.4940 C   0  0  0  0  0  0  0  0  0  0  0  0
   44.1290   35.9330   42.7860 N   0  0  0  0  0  0  0  0  0  0  0  0
   45.8160   34.6980   42.1790 H   0  0  0  0  0  0  0  0  0  0  0  0
   44.6630   33.6090   40.3750 H   0  0  0  0  0  0  0  0  0  0  0  0
   42.3310   36.9580   43.1000 H   0  0  0  0  0  0  0  0  0  0  0  0
   41.0340   28.4190   40.1100 N   0  0  0  0  0  0  0  0  0  0  0  0
   40.1760   29.0450   39.6660 C   0  0  0  0  0  0  0  0  0  0  0  0
  1  6  1  0  0  0  0
  1 48  1  0  0  0  0
  2  1  2  0  0  0  0
  3  4  2  0  0  0  0
  3  2  1  0  0  0  0
  4  5  1  0  0  0  0
  5  9  1  0  0  0  0
  5  6  2  0  0  0  0
  6 12  1  0  0  0  0
  7  3  1  0  0  0  0
  8  4  1  0  0  0  0
 10 11  2  0  0  0  0
 10 14  1  0  0  0  0
 12 10  1  0  0  0  0
 13 12  1  0  0  0  0
 14 22  1  0  0  0  0
 15 17  1  0  0  0  0
 15 14  1  0  0  0  0
 16 15  1  0  0  0  0
 17 19  1  0  0  0  0
 18 17  1  0  0  0  0
 19 20  1  0  0  0  0
 20 22  1  0  0  0  0
 21 20  1  0  0  0  0
 22 23  1  0  0  0  0
 24  2  1  0  0  0  0
 24 28  1  0  0  0  0
 25 24  1  0  0  0  0
 26 27  1  0  0  0  0
 26 40  1  0  0  0  0
 27 31  1  0  0  0  0
 28 33  1  1  0  0  0
 28 27  1  0  0  0  0
 29 30  1  0  0  0  0
 29 28  1  0  0  0  0
 30 26  1  0  0  0  0
 32 27  1  0  0  0  0
 34 29  1  0  0  0  0
 35 29  1  0  0  0  0
 36 30  1  0  0  0  0
 37 30  1  0  0  0  0
 38 44  1  0  0  0  0
 38 43  1  0  0  0  0
 39 38  2  0  0  0  0
 40 39  1  0  0  0  0
 40 41  2  0  0  0  0
 41 42  1  0  0  0  0
 42 43  2  0  0  0  0
 42 46  1  0  0  0  0
 45 39  1  0  0  0  0
 48 47  3  0  0  0  0
M  END
>  <minimizedAffinity>
-6.06571484

$$$$

 OpenBabel03242519123D

 48 51  0  0  1  0  0  0  0  0999 V2000
   40.4680   33.7420   40.3750 C   0  0  0  0  0  0  0  0  0  0  0  0
   39.0720   33.8670   40.5440 C   0  0  0  0  0  0  0  0  0  0  0  0
   38.6140   35.1440   40.3040 C   0  0  0  0  0  0  0  0  0  0  0  0
   39.3720   36.2230   39.9380 C   0  0  0  0  0  0  0  0  0  0  0  0
   40.7230   36.0510   39.7870 C   0  0  0  0  0  0  0  0  0  0  0  0
   41.2560   34.8000   40.0090 C   0  0  0  0  0  0  0  0  0  0  0  0
   37.5390   35.2810   40.4250 H   0  0  0  0  0  0  0  0  0  0  0  0
   38.8640   37.1770   39.7830 H   0  0  0  0  0  0  0  0  0  0  0  0
   41.3170   36.9030   39.4990 H   0  0  0  0  0  0  0  0  0  0  0  0
   43.1660   34.3130   38.5680 C   0  0  0  0  0  0  0  0  0  0  0  0
   42.3720   34.1700   37.5680 O   0  0  0  0  0  0  0  0  0  0  0  0
   42.6640   34.6530   39.8430 N   0  0  0  0  0  0  0  0  0  0  0  0
   43.2890   34.8010   40.6730 H   0  0  0  0  0  0  0  0  0  0  0  0
   44.6120   34.1230   38.3950 C   0  0  0  0  0  3  0  0  0  0  0  0
   45.3440   33.9360   39.6890 C   0  0  0  0  0  3  0  0  0  0  0  0
   44.7440   34.4440   40.5000 H   0  0  0  0  0  0  0  0  0  0  0  0
   45.4170   32.4880   40.1230 C   0  0  0  0  0  3  0  0  0  0  0  0
   46.2280   32.4310   40.8960 H   0  0  0  0  0  0  0  0  0  0  0  0
   45.7610   31.6180   39.1130 O   0  0  0  0  0  0  0  0  0  0  0  0
   44.7960   31.6740   38.0830 C   0  0  0  0  0  3  0  0  0  0  0  0
   43.8180   31.5130   38.5460 H   0  0  0  0  0  0  0  0  0  0  0  0
   44.9600   33.0250   37.4380 C   0  0  0  0  0  3  0  0  0  0  0  0
   46.0630   33.1290   37.2310 H   0  0  0  0  0  0  0  0  0  0  0  0
   38.2140   32.8120   40.9170 N   0  0  0  0  0  0  0  0  0  0  0  0
   37.8400   33.0300   41.8780 H   0  0  0  0  0  0  0  0  0  0  0  0
   36.5890   30.5500   38.7040 N   0  0  0  0  0  0  0  0  0  0  0  0
   37.2370   31.8420   38.8860 C   0  0  0  0  0  0  0  0  0  0  0  0
   37.8190   31.6140   40.2490 C   0  0  2  0  0  0  0  0  0  0  0  0
   36.6220   31.0570   41.0120 C   0  0  0  0  0  0  0  0  0  0  0  0
   35.9130   30.2580   39.9480 C   0  0  0  0  0  0  0  0  0  0  0  0
   38.0050   32.0530   38.1180 H   0  0  0  0  0  0  0  0  0  0  0  0
   36.4440   32.6070   38.9670 H   0  0  0  0  0  0  0  0  0  0  0  0
   38.6640   30.8940   40.2250 H   0  0  0  0  0  0  0  0  0  0  0  0
   35.9980   31.9500   41.2850 H   0  0  0  0  0  0  0  0  0  0  0  0
   36.9220   30.4820   41.8900 H   0  0  0  0  0  0  0  0  0  0  0  0
   34.8620   30.6280   39.8450 H   0  0  0  0  0  0  0  0  0  0  0  0
   35.9230   29.1980   40.2360 H   0  0  0  0  0  0  0  0  0  0  0  0
   35.4970   28.4170   35.8490 C   0  0  0  0  0  0  0  0  0  0  0  0
   35.3930   29.2800   36.9420 C   0  0  0  0  0  0  0  0  0  0  0  0
   36.5630   29.6890   37.5980 C   0  0  0  0  0  0  0  0  0  0  0  0
   37.7240   29.2070   37.1110 N   0  0  0  0  0  0  0  0  0  0  0  0
   37.8320   28.3820   36.0660 C   0  0  0  0  0  0  0  0  0  0  0  0
   36.6930   27.9870   35.4320 N   0  0  0  0  0  0  0  0  0  0  0  0
   34.5260   28.1960   35.4570 H   0  0  0  0  0  0  0  0  0  0  0  0
   34.4610   29.6780   37.3470 H   0  0  0  0  0  0  0  0  0  0  0  0
   38.7700   28.0080   35.6920 H   0  0  0  0  0  0  0  0  0  0  0  0
   41.4690   31.3770   40.8050 N   0  0  0  0  0  0  0  0  0  0  0  0
   41.0310   32.4230   40.6090 C   0  0  0  0  0  0  0  0  0  0  0  0
  1  2  1  0  0  0  0
  1 48  1  0  0  0  0
  2 24  1  0  0  0  0
  3  7  1  0  0  0  0
  3  2  2  0  0  0  0
  4  3  1  0  0  0  0
  5  4  2  0  0  0  0
  5  6  1  0  0  0  0
  6  1  2  0  0  0  0
  8  4  1  0  0  0  0
  9  5  1  0  0  0  0
 10 12  1  0  0  0  0
 11 10  2  0  0  0  0
 12  6  1  0  0  0  0
 12 13  1  0  0  0  0
 14 10  1  0  0  0  0
 14 15  1  0  0  0  0
 15 17  1  0  0  0  0
 15 16  1  0  0  0  0
 17 18  1  0  0  0  0
 19 17  1  0  0  0  0
 20 21  1  0  0  0  0
 20 19  1  0  0  0  0
 22 20  1  0  0  0  0
 22 14  1  0  0  0  0
 23 22  1  0  0  0  0
 24 25  1  0  0  0  0
 26 27  1  0  0  0  0
 26 30  1  0  0  0  0
 27 32  1  0  0  0  0
 27 28  1  0  0  0  0
 28 33  1  6  0  0  0
 28 24  1  0  0  0  0
 28 29  1  0  0  0  0
 29 34  1  0  0  0  0
 29 35  1  0  0  0  0
 30 37  1  0  0  0  0
 30 29  1  0  0  0  0
 31 27  1  0  0  0  0
 36 30  1  0  0  0  0
 38 39  1  0  0  0  0
 39 45  1  0  0  0  0
 39 40  2  0  0  0  0
 40 26  1  0  0  0  0
 41 40  1  0  0  0  0
 42 41  2  0  0  0  0
 43 38  2  0  0  0  0
 43 42  1  0  0  0  0
 44 38  1  0  0  0  0
 46 42  1  0  0  0  0
 48 47  3  0  0  0  0
M  END
>  <minimizedAffinity>
-6.04939032

$$$$

 OpenBabel03242519123D

 48 51  0  0  1  0  0  0  0  0999 V2000
   40.5910   34.0040   39.2050 C   0  0  0  0  0  0  0  0  0  0  0  0
   39.2550   34.1250   39.6460 C   0  0  0  0  0  0  0  0  0  0  0  0
   39.0900   35.1150   40.5900 C   0  0  0  0  0  0  0  0  0  0  0  0
   40.0670   35.9320   41.0920 C   0  0  0  0  0  0  0  0  0  0  0  0
   41.3480   35.7750   40.6310 C   0  0  0  0  0  0  0  0  0  0  0  0
   41.5930   34.8040   39.6850 C   0  0  0  0  0  0  0  0  0  0  0  0
   38.0700   35.2390   40.9570 H   0  0  0  0  0  0  0  0  0  0  0  0
   39.7810   36.6740   41.8390 H   0  0  0  0  0  0  0  0  0  0  0  0
   42.1150   36.4200   41.0280 H   0  0  0  0  0  0  0  0  0  0  0  0
   43.8190   33.8340   39.9480 C   0  0  0  0  0  0  0  0  0  0  0  0
   43.4130   33.1870   40.9810 O   0  0  0  0  0  0  0  0  0  0  0  0
   42.9350   34.6660   39.2260 N   0  0  0  0  0  0  0  0  0  0  0  0
   43.2310   35.1870   38.3630 H   0  0  0  0  0  0  0  0  0  0  0  0
   45.2130   33.7140   39.5040 C   0  0  0  0  0  3  0  0  0  0  0  0
   45.9170   32.5210   40.0780 C   0  0  0  0  0  3  0  0  0  0  0  0
   45.4150   32.2640   41.0560 H   0  0  0  0  0  0  0  0  0  0  0  0
   45.7600   31.2770   39.2310 C   0  0  0  0  0  3  0  0  0  0  0  0
   46.5570   30.5640   39.5660 H   0  0  0  0  0  0  0  0  0  0  0  0
   45.9490   31.4900   37.8840 O   0  0  0  0  0  0  0  0  0  0  0  0
   44.9970   32.4170   37.4060 C   0  0  0  0  0  3  0  0  0  0  0  0
   44.0100   32.0490   37.7020 H   0  0  0  0  0  0  0  0  0  0  0  0
   45.3710   33.7430   38.0150 C   0  0  0  0  0  3  0  0  0  0  0  0
   46.4740   33.8640   37.8200 H   0  0  0  0  0  0  0  0  0  0  0  0
   38.1860   33.3300   39.1870 N   0  0  0  0  0  0  0  0  0  0  0  0
   37.8210   33.7670   38.3010 H   0  0  0  0  0  0  0  0  0  0  0  0
   37.7510   30.0090   40.3890 N   0  0  0  0  0  0  0  0  0  0  0  0
   38.5530   31.2250   40.3950 C   0  0  0  0  0  0  0  0  0  0  0  0
   37.5890   32.1380   39.6970 C   0  0  2  0  0  0  0  0  0  0  0  0
   37.1800   31.2980   38.4910 C   0  0  0  0  0  0  0  0  0  0  0  0
   37.1900   29.9020   39.0610 C   0  0  0  0  0  0  0  0  0  0  0  0
   38.8120   31.5690   41.4140 H   0  0  0  0  0  0  0  0  0  0  0  0
   39.4210   31.0580   39.7310 H   0  0  0  0  0  0  0  0  0  0  0  0
   36.7190   32.3910   40.3380 H   0  0  0  0  0  0  0  0  0  0  0  0
   38.0180   31.4050   37.7520 H   0  0  0  0  0  0  0  0  0  0  0  0
   36.2210   31.6130   38.0740 H   0  0  0  0  0  0  0  0  0  0  0  0
   37.8860   29.2630   38.4610 H   0  0  0  0  0  0  0  0  0  0  0  0
   36.1700   29.4980   39.0270 H   0  0  0  0  0  0  0  0  0  0  0  0
   36.8400   26.9240   42.2700 C   0  0  0  0  0  0  0  0  0  0  0  0
   37.0460   27.7660   41.1760 C   0  0  0  0  0  0  0  0  0  0  0  0
   37.5060   29.0710   41.4010 C   0  0  0  0  0  0  0  0  0  0  0  0
   37.7190   29.4190   42.6870 N   0  0  0  0  0  0  0  0  0  0  0  0
   37.5240   28.6190   43.7380 C   0  0  0  0  0  0  0  0  0  0  0  0
   37.0770   27.3520   43.5140 N   0  0  0  0  0  0  0  0  0  0  0  0
   36.4910   25.9670   41.9400 H   0  0  0  0  0  0  0  0  0  0  0  0
   36.8790   27.4990   40.1320 H   0  0  0  0  0  0  0  0  0  0  0  0
   37.7000   28.9160   44.7590 H   0  0  0  0  0  0  0  0  0  0  0  0
   41.0440   32.1650   37.4180 N   0  0  0  0  0  0  0  0  0  0  0  0
   40.8510   32.9800   38.2070 C   0  0  0  0  0  0  0  0  0  0  0  0
  1  2  2  0  0  0  0
  1  6  1  0  0  0  0
  2  3  1  0  0  0  0
  3  7  1  0  0  0  0
  3  4  2  0  0  0  0
  4  8  1  0  0  0  0
  5  9  1  0  0  0  0
  5  4  1  0  0  0  0
  6  5  2  0  0  0  0
 10 11  2  0  0  0  0
 12  6  1  0  0  0  0
 12 10  1  0  0  0  0
 13 12  1  0  0  0  0
 14 10  1  0  0  0  0
 14 15  1  0  0  0  0
 15 16  1  0  0  0  0
 17 18  1  0  0  0  0
 17 15  1  0  0  0  0
 19 17  1  0  0  0  0
 20 21  1  0  0  0  0
 20 19  1  0  0  0  0
 20 22  1  0  0  0  0
 22 14  1  0  0  0  0
 23 22  1  0  0  0  0
 24  2  1  0  0  0  0
 24 28  1  0  0  0  0
 25 24  1  0  0  0  0
 26 27  1  0  0  0  0
 26 40  1  0  0  0  0
 27 31  1  0  0  0  0
 28 33  1  1  0  0  0
 28 27  1  0  0  0  0
 29 30  1  0  0  0  0
 29 28  1  0  0  0  0
 30 26  1  0  0  0  0
 32 27  1  0  0  0  0
 34 29  1  0  0  0  0
 35 29  1  0  0  0  0
 36 30  1  0  0  0  0
 37 30  1  0  0  0  0
 38 43  1  0  0  0  0
 39 40  1  0  0  0  0
 39 38  2  0  0  0  0
 40 41  2  0  0  0  0
 41 42  1  0  0  0  0
 42 46  1  0  0  0  0
 43 42  2  0  0  0  0
 44 38  1  0  0  0  0
 45 39  1  0  0  0  0
 47 48  3  0  0  0  0
 48  1  1  0  0  0  0
M  END
>  <minimizedAffinity>
-5.95671606

$$$$

 OpenBabel03242519123D

 48 51  0  0  1  0  0  0  0  0999 V2000
   37.4970   29.8560   40.8490 C   0  0  0  0  0  0  0  0  0  0  0  0
   37.3740   31.0660   40.1320 C   0  0  0  0  0  0  0  0  0  0  0  0
   36.6280   30.9340   38.9810 C   0  0  0  0  0  0  0  0  0  0  0  0
   36.0390   29.7870   38.5210 C   0  0  0  0  0  0  0  0  0  0  0  0
   36.1870   28.6390   39.2540 C   0  0  0  0  0  0  0  0  0  0  0  0
   36.9210   28.6910   40.4190 C   0  0  0  0  0  0  0  0  0  0  0  0
   36.5120   31.8480   38.3970 H   0  0  0  0  0  0  0  0  0  0  0  0
   35.4770   29.8390   37.5870 H   0  0  0  0  0  0  0  0  0  0  0  0
   35.7220   27.7370   38.8890 H   0  0  0  0  0  0  0  0  0  0  0  0
   38.1710   26.6500   40.9070 C   0  0  0  0  0  0  0  0  0  0  0  0
   39.0640   26.9950   40.0510 O   0  0  0  0  0  0  0  0  0  0  0  0
   37.0560   27.4810   41.1590 N   0  0  0  0  0  0  0  0  0  0  0  0
   36.3230   27.2380   41.8710 H   0  0  0  0  0  0  0  0  0  0  0  0
   38.3000   25.3830   41.6380 C   0  0  0  0  0  3  0  0  0  0  0  0
   36.9800   24.7550   41.9720 C   0  0  0  0  0  3  0  0  0  0  0  0
   36.2110   25.5800   42.0280 H   0  0  0  0  0  0  0  0  0  0  0  0
   36.4700   23.8350   40.8840 C   0  0  0  0  0  3  0  0  0  0  0  0
   35.6770   23.1980   41.3560 H   0  0  0  0  0  0  0  0  0  0  0  0
   37.4260   22.9820   40.3800 O   0  0  0  0  0  0  0  0  0  0  0  0
   38.4800   23.7270   39.8070 C   0  0  0  0  0  3  0  0  0  0  0  0
   38.0320   24.4250   39.0930 H   0  0  0  0  0  0  0  0  0  0  0  0
   39.1900   24.3890   40.9580 C   0  0  0  0  0  3  0  0  0  0  0  0
   39.3760   23.5710   41.7100 H   0  0  0  0  0  0  0  0  0  0  0  0
   37.9450   32.2920   40.5280 N   0  0  0  0  0  0  0  0  0  0  0  0
   37.3710   32.6680   41.3280 H   0  0  0  0  0  0  0  0  0  0  0  0
   41.1260   33.8790   40.3620 N   0  0  0  0  0  0  0  0  0  0  0  0
   40.3480   32.7210   40.7830 C   0  0  0  0  0  0  0  0  0  0  0  0
   39.0750   33.0230   40.0510 C   0  0  2  0  0  0  0  0  0  0  0  0
   38.8420   34.4850   40.4190 C   0  0  0  0  0  0  0  0  0  0  0  0
   40.2490   35.0210   40.4890 C   0  0  0  0  0  0  0  0  0  0  0  0
   40.8030   31.7600   40.4780 H   0  0  0  0  0  0  0  0  0  0  0  0
   40.1610   32.8190   41.8670 H   0  0  0  0  0  0  0  0  0  0  0  0
   39.1840   32.8860   38.9550 H   0  0  0  0  0  0  0  0  0  0  0  0
   38.3980   34.4680   41.4500 H   0  0  0  0  0  0  0  0  0  0  0  0
   38.1950   34.9940   39.7010 H   0  0  0  0  0  0  0  0  0  0  0  0
   40.4280   35.4620   41.5010 H   0  0  0  0  0  0  0  0  0  0  0  0
   40.3760   35.7840   39.7090 H   0  0  0  0  0  0  0  0  0  0  0  0
   44.1850   34.0360   38.2390 C   0  0  0  0  0  0  0  0  0  0  0  0
   42.8310   33.9290   38.5630 C   0  0  0  0  0  0  0  0  0  0  0  0
   42.4490   33.9750   39.9110 C   0  0  0  0  0  0  0  0  0  0  0  0
   43.4430   34.1240   40.8110 N   0  0  0  0  0  0  0  0  0  0  0  0
   44.7400   34.2270   40.5090 C   0  0  0  0  0  0  0  0  0  0  0  0
   45.1060   34.1810   39.1980 N   0  0  0  0  0  0  0  0  0  0  0  0
   44.3170   33.9840   37.1780 H   0  0  0  0  0  0  0  0  0  0  0  0
   42.0170   33.8090   37.8460 H   0  0  0  0  0  0  0  0  0  0  0  0
   45.5190   34.3450   41.2430 H   0  0  0  0  0  0  0  0  0  0  0  0
   38.8940   29.9510   43.0450 N   0  0  0  0  0  0  0  0  0  0  0  0
   38.2710   29.9100   42.0780 C   0  0  0  0  0  0  0  0  0  0  0  0
  1 48  1  0  0  0  0
  2 24  1  0  0  0  0
  2  1  2  0  0  0  0
  3  2  1  0  0  0  0
  4  3  2  0  0  0  0
  4  5  1  0  0  0  0
  5  6  2  0  0  0  0
  6  1  1  0  0  0  0
  6 12  1  0  0  0  0
  7  3  1  0  0  0  0
  8  4  1  0  0  0  0
  9  5  1  0  0  0  0
 10 12  1  0  0  0  0
 10 14  1  0  0  0  0
 11 10  2  0  0  0  0
 12 13  1  0  0  0  0
 14 15  1  0  0  0  0
 15 16  1  0  0  0  0
 17 18  1  0  0  0  0
 17 15  1  0  0  0  0
 19 17  1  0  0  0  0
 20 19  1  0  0  0  0
 20 22  1  0  0  0  0
 21 20  1  0  0  0  0
 22 14  1  0  0  0  0
 22 23  1  0  0  0  0
 24 25  1  0  0  0  0
 26 30  1  0  0  0  0
 26 27  1  0  0  0  0
 27 32  1  0  0  0  0
 28 33  1  6  0  0  0
 28 29  1  0  0  0  0
 28 24  1  0  0  0  0
 28 27  1  0  0  0  0
 29 30  1  0  0  0  0
 29 34  1  0  0  0  0
 30 36  1  0  0  0  0
 31 27  1  0  0  0  0
 35 29  1  0  0  0  0
 37 30  1  0  0  0  0
 38 39  2  0  0  0  0
 38 43  1  0  0  0  0
 39 40  1  0  0  0  0
 40 26  1  0  0  0  0
 40 41  2  0  0  0  0
 42 41  1  0  0  0  0
 42 46  1  0  0  0  0
 43 42  2  0  0  0  0
 44 38  1  0  0  0  0
 45 39  1  0  0  0  0
 48 47  3  0  0  0  0
M  END
>  <minimizedAffinity>
-5.8929286

$$$$
