
     RDKit          3D

 28 29  0  0  0  0  0  0  0  0999 V2000
   44.6682   36.0759   44.2863 C   0  0  0  0  0  0  0  0  0  0  0  0
   45.4796   35.5835   43.2355 C   0  0  0  0  0  0  0  0  0  0  0  0
   46.1775   34.3829   43.4709 C   0  0  0  0  0  0  0  0  0  0  0  0
   46.0359   33.7700   44.6784 N   0  0  0  0  0  0  0  0  0  0  0  0
   45.2593   34.2675   45.6457 C   0  0  0  0  0  0  0  0  0  0  0  0
   44.5681   35.4274   45.4554 N   0  0  0  0  0  0  0  0  0  0  0  0
   46.1619   32.5826   47.1283 C   0  0  0  0  0  0  0  0  0  0  0  0
   47.1056   32.2899   46.3627 O   0  0  0  0  0  0  0  0  0  0  0  0
   45.1709   33.5614   46.8738 N   0  0  0  0  0  0  0  0  0  0  0  0
   44.1547   36.9976   44.0569 H   0  0  0  0  0  0  0  0  0  0  0  0
   45.5912   36.0674   42.2825 H   0  0  0  0  0  0  0  0  0  0  0  0
   46.8255   33.9175   42.7375 H   0  0  0  0  0  0  0  0  0  0  0  0
   44.4179   33.7412   47.5693 H   0  0  0  0  0  0  0  0  0  0  0  0
   46.0742   31.8311   48.4270 C   0  0  0  0  0  0  0  0  0  0  0  0
   44.6689   31.6815   48.9218 C   0  0  2  0  0  0  0  0  0  0  0  0
   44.0910   31.1916   48.1215 H   0  0  0  0  0  0  0  0  0  0  0  0
   44.7297   30.7470   50.1124 C   0  0  1  0  0  0  0  0  0  0  0  0
   44.1885   31.2263   50.9636 H   0  0  0  0  0  0  0  0  0  0  0  0
   46.0186   30.5248   50.5773 O   0  0  0  0  0  0  0  0  0  0  0  0
   46.6650   31.7465   50.7831 C   0  0  2  0  0  0  0  0  0  0  0  0
   47.5964   31.5463   51.3176 H   0  0  0  0  0  0  0  0  0  0  0  0
   46.9858   32.4283   49.4690 C   0  0  2  0  0  0  0  0  0  0  0  0
   46.7484   33.5196   49.5142 H   0  0  0  0  0  0  0  0  0  0  0  0
   46.4390   30.8003   48.1854 H   0  0  0  0  0  0  0  0  0  0  0  0
   44.2257   32.6704   49.1789 H   0  0  0  0  0  0  0  0  0  0  0  0
   44.2739   29.7603   49.8767 H   0  0  0  0  0  0  0  0  0  0  0  0
   46.0144   32.3611   51.4310 H   0  0  0  0  0  0  0  0  0  0  0  0
   48.0328   32.2684   49.1357 H   0  0  0  0  0  0  0  0  0  0  0  0
  1  6  2  0
  2  3  2  0
  2  1  1  0
  3  4  1  0
  4  5  2  0
  5  9  1  0
  6  5  1  0
  8  7  2  0
  9  7  1  0
  1 10  1  0
  2 11  1  0
  3 12  1  0
  9 13  1  0
 14 15  1  0
 15 16  1  6
 15 17  1  0
 17 18  1  1
 17 19  1  0
 19 20  1  0
 20 21  1  1
 20 22  1  0
 22 23  1  1
 22 14  1  0
 14 24  1  0
 15 25  1  0
 17 26  1  0
 20 27  1  0
 22 28  1  0
  7 14  1  0
M  ISO  7  10  14  11  14  12  14  16  15  18  15  21  15  23  15
M  END
>  <DihAtoms>  (1) 
7,6,13,14

>  <DihDeg>  (1) 
119.99986636687001

$$$$
