
 OpenBabel03242521193D

 39 41  0  0  0  0  0  0  0  0999 V2000
   37.5580   25.9590   40.5030 C   0  0  0  0  0  0  0  0  0  0  0  0
   36.5600   25.5960   40.2370 H   0  0  0  0  0  0  0  0  0  0  0  0
   37.9560   26.4880   39.5910 H   0  0  0  0  0  0  0  0  0  0  0  0
   37.3850   27.8360   43.7350 C   0  0  0  0  0  0  0  0  0  0  0  0
   37.5600   29.1500   43.2690 C   0  0  0  0  0  0  0  0  0  0  0  0
   37.7230   29.3120   41.9020 C   0  0  0  0  0  0  0  0  0  0  0  0
   37.7070   28.2020   41.0800 N   0  0  0  0  0  0  0  0  0  0  0  0
   37.5360   26.9760   41.5850 C   0  0  0  0  0  0  0  0  0  0  0  0
   37.3720   26.7620   42.9220 N   0  0  0  0  0  0  0  0  0  0  0  0
   37.2520   27.6610   44.8050 H   0  0  0  0  0  0  0  0  0  0  0  0
   37.5630   29.9750   43.9540 H   0  0  0  0  0  0  0  0  0  0  0  0
   37.9030   30.6380   41.3980 N   0  0  0  0  0  0  0  0  0  0  0  0
   39.1180   31.1970   41.4840 C   0  0  0  0  0  0  0  0  0  0  0  0
   39.3080   32.4790   41.0010 C   0  0  0  0  0  0  0  0  0  0  0  0
   38.2390   33.1190   40.4550 C   0  0  0  0  0  0  0  0  0  0  0  0
   38.4180   34.3060   40.0100 O   0  0  0  0  0  0  0  0  0  0  0  0
   37.0040   32.5770   40.3570 N   0  0  0  0  0  0  0  0  0  0  0  0
   36.8930   31.3290   40.8470 C   0  0  0  0  0  0  0  0  0  0  0  0
   35.7890   30.7250   40.8070 O   0  0  0  0  0  0  0  0  0  0  0  0
   39.9790   30.6920   41.9190 H   0  0  0  0  0  0  0  0  0  0  0  0
   40.2750   32.9640   41.0530 H   0  0  0  0  0  0  0  0  0  0  0  0
   36.1910   33.0810   39.9350 H   0  0  0  0  0  0  0  0  0  0  0  0
   38.5320   24.8520   40.8170 C   0  0  0  0  0  0  0  0  0  0  0  0
   38.8810   24.4200   39.8630 H   0  0  0  0  0  0  0  0  0  0  0  0
   38.0700   24.0340   41.3980 H   0  0  0  0  0  0  0  0  0  0  0  0
   40.1550   24.8550   42.6630 C   0  0  0  0  0  0  0  0  0  0  0  0
   39.5290   23.8400   43.0720 O   0  0  0  0  0  0  0  0  0  0  0  0
   39.6940   25.4310   41.4770 N   0  0  0  0  0  0  0  0  0  0  0  0
   40.1510   26.2560   41.0500 H   0  0  0  0  0  0  0  0  0  0  0  0
   41.3190   25.3990   43.4120 C   0  0  0  0  0  3  0  0  0  0  0  0
   42.5600   25.4810   42.5470 C   0  0  0  0  0  3  0  0  0  0  0  0
   42.4370   26.3430   41.8400 H   0  0  0  0  0  0  0  0  0  0  0  0
   43.7040   25.8740   43.4720 C   0  0  0  0  0  3  0  0  0  0  0  0
   44.6760   25.8430   42.9690 H   0  0  0  0  0  0  0  0  0  0  0  0
   43.4090   27.1880   43.8920 O   0  0  0  0  0  0  0  0  0  0  0  0
   42.3110   27.1790   44.7250 C   0  0  0  0  0  3  0  0  0  0  0  0
   42.1440   28.2230   45.0730 H   0  0  0  0  0  0  0  0  0  0  0  0
   41.0470   26.7430   44.0290 C   0  0  0  0  0  3  0  0  0  0  0  0
   40.6810   27.5090   43.3500 H   0  0  0  0  0  0  0  0  0  0  0  0
  1 23  1  0  0  0  0
  1  8  1  0  0  0  0
  2  1  1  0  0  0  0
  3  1  1  0  0  0  0
  4 10  1  0  0  0  0
  5  4  1  0  0  0  0
  5 11  1  0  0  0  0
  6  5  2  0  0  0  0
  7  8  2  0  0  0  0
  7  6  1  0  0  0  0
  8  9  1  0  0  0  0
  9  4  2  0  0  0  0
 12 13  1  0  0  0  0
 12  6  1  0  0  0  0
 13 20  1  0  0  0  0
 14 21  1  0  0  0  0
 14 13  2  0  0  0  0
 15 14  1  0  0  0  0
 16 15  2  0  0  0  0
 17 15  1  0  0  0  0
 17 18  1  0  0  0  0
 18 12  1  0  0  0  0
 19 18  2  0  0  0  0
 22 17  1  0  0  0  0
 23 25  1  0  0  0  0
 23 28  1  0  0  0  0
 24 23  1  0  0  0  0
 26 27  2  0  0  0  0
 26 30  1  0  0  0  0
 28 26  1  0  0  0  0
 29 28  1  0  0  0  0
 30 38  1  0  0  0  0
 31 30  1  0  0  0  0
 31 33  1  0  0  0  0
 32 31  1  0  0  0  0
 33 35  1  0  0  0  0
 34 33  1  0  0  0  0
 35 36  1  0  0  0  0
 36 37  1  0  0  0  0
 38 36  1  0  0  0  0
 39 38  1  0  0  0  0
M  END
>  <minimizedAffinity>
-5.99809456

$$$$

 OpenBabel03242521193D

 39 41  0  0  0  0  0  0  0  0999 V2000
   36.7830   31.8890   40.3190 C   0  0  0  0  0  0  0  0  0  0  0  0
   36.6880   32.7760   40.9540 H   0  0  0  0  0  0  0  0  0  0  0  0
   36.0160   32.0000   39.5020 H   0  0  0  0  0  0  0  0  0  0  0  0
   39.6640   31.1710   38.0420 C   0  0  0  0  0  0  0  0  0  0  0  0
   40.6740   31.9140   38.6770 C   0  0  0  0  0  0  0  0  0  0  0  0
   40.3150   32.6040   39.8250 C   0  0  0  0  0  0  0  0  0  0  0  0
   39.0130   32.5310   40.2820 N   0  0  0  0  0  0  0  0  0  0  0  0
   38.0970   31.8050   39.6320 C   0  0  0  0  0  0  0  0  0  0  0  0
   38.3990   31.1090   38.4990 N   0  0  0  0  0  0  0  0  0  0  0  0
   39.9030   30.6110   37.1350 H   0  0  0  0  0  0  0  0  0  0  0  0
   41.6690   31.9340   38.2780 H   0  0  0  0  0  0  0  0  0  0  0  0
   41.3210   33.3700   40.4920 N   0  0  0  0  0  0  0  0  0  0  0  0
   42.2040   32.7280   41.2700 C   0  0  0  0  0  0  0  0  0  0  0  0
   43.1830   33.4550   41.9220 C   0  0  0  0  0  0  0  0  0  0  0  0
   43.2030   34.8040   41.7400 C   0  0  0  0  0  0  0  0  0  0  0  0
   44.1100   35.4730   42.3460 O   0  0  0  0  0  0  0  0  0  0  0  0
   42.3250   35.4730   40.9620 N   0  0  0  0  0  0  0  0  0  0  0  0
   41.4000   34.7030   40.3590 C   0  0  0  0  0  0  0  0  0  0  0  0
   40.5310   35.2200   39.6080 O   0  0  0  0  0  0  0  0  0  0  0  0
   42.1950   31.6500   41.4210 H   0  0  0  0  0  0  0  0  0  0  0  0
   43.9140   32.9730   42.5600 H   0  0  0  0  0  0  0  0  0  0  0  0
   42.3510   36.5100   40.8310 H   0  0  0  0  0  0  0  0  0  0  0  0
   36.4620   30.6030   41.0380 C   0  0  0  0  0  0  0  0  0  0  0  0
   35.9260   29.9410   40.3350 H   0  0  0  0  0  0  0  0  0  0  0  0
   35.8030   30.7580   41.9100 H   0  0  0  0  0  0  0  0  0  0  0  0
   37.6670   28.6820   41.9870 C   0  0  0  0  0  0  0  0  0  0  0  0
   36.5200   28.1930   42.1750 O   0  0  0  0  0  0  0  0  0  0  0  0
   37.7120   29.9400   41.3810 N   0  0  0  0  0  0  0  0  0  0  0  0
   38.6060   30.4180   41.1680 H   0  0  0  0  0  0  0  0  0  0  0  0
   38.8960   27.9480   42.3910 C   0  0  0  0  0  3  0  0  0  0  0  0
   40.0870   28.8730   42.5330 C   0  0  0  0  0  3  0  0  0  0  0  0
   39.9610   29.4620   43.4790 H   0  0  0  0  0  0  0  0  0  0  0  0
   41.2990   27.9810   42.7670 C   0  0  0  0  0  3  0  0  0  0  0  0
   42.2380   28.5450   42.7630 H   0  0  0  0  0  0  0  0  0  0  0  0
   41.0860   27.3890   44.0300 O   0  0  0  0  0  0  0  0  0  0  0  0
   40.0400   26.4950   43.9590 C   0  0  0  0  0  3  0  0  0  0  0  0
   39.9390   26.0150   44.9580 H   0  0  0  0  0  0  0  0  0  0  0  0
   38.7200   27.1580   43.6580 C   0  0  0  0  0  3  0  0  0  0  0  0
   38.3490   27.7160   44.5150 H   0  0  0  0  0  0  0  0  0  0  0  0
  1  2  1  0  0  0  0
  1 23  1  0  0  0  0
  3  1  1  0  0  0  0
  4  9  2  0  0  0  0
  4  5  1  0  0  0  0
  5  6  2  0  0  0  0
  6  7  1  0  0  0  0
  6 12  1  0  0  0  0
  8  7  2  0  0  0  0
  8  1  1  0  0  0  0
  9  8  1  0  0  0  0
 10  4  1  0  0  0  0
 11  5  1  0  0  0  0
 12 13  1  0  0  0  0
 13 20  1  0  0  0  0
 13 14  2  0  0  0  0
 14 21  1  0  0  0  0
 15 14  1  0  0  0  0
 15 16  2  0  0  0  0
 17 15  1  0  0  0  0
 18 12  1  0  0  0  0
 18 17  1  0  0  0  0
 19 18  2  0  0  0  0
 22 17  1  0  0  0  0
 23 28  1  0  0  0  0
 23 25  1  0  0  0  0
 24 23  1  0  0  0  0
 26 27  2  0  0  0  0
 26 30  1  0  0  0  0
 28 26  1  0  0  0  0
 29 28  1  0  0  0  0
 30 31  1  0  0  0  0
 30 38  1  0  0  0  0
 31 33  1  0  0  0  0
 31 32  1  0  0  0  0
 33 35  1  0  0  0  0
 34 33  1  0  0  0  0
 36 35  1  0  0  0  0
 36 37  1  0  0  0  0
 38 36  1  0  0  0  0
 38 39  1  0  0  0  0
M  END
>  <minimizedAffinity>
-5.85722542

$$$$

 OpenBabel03242521193D

 39 41  0  0  0  0  0  0  0  0999 V2000
   36.2010   30.8180   41.0610 C   0  0  0  0  0  0  0  0  0  0  0  0
   36.3450   31.3450   42.0090 H   0  0  0  0  0  0  0  0  0  0  0  0
   35.1970   31.1430   40.6670 H   0  0  0  0  0  0  0  0  0  0  0  0
   38.1760   31.3540   37.9270 C   0  0  0  0  0  0  0  0  0  0  0  0
   39.2220   32.1490   38.4260 C   0  0  0  0  0  0  0  0  0  0  0  0
   39.1900   32.4480   39.7790 C   0  0  0  0  0  0  0  0  0  0  0  0
   38.1570   31.9640   40.5580 N   0  0  0  0  0  0  0  0  0  0  0  0
   37.1890   31.2110   40.0230 C   0  0  0  0  0  0  0  0  0  0  0  0
   37.1740   30.8890   38.6980 N   0  0  0  0  0  0  0  0  0  0  0  0
   38.1620   31.0930   36.8670 H   0  0  0  0  0  0  0  0  0  0  0  0
   40.0000   32.4970   37.7750 H   0  0  0  0  0  0  0  0  0  0  0  0
   40.2410   33.2550   40.3150 N   0  0  0  0  0  0  0  0  0  0  0  0
   41.4200   32.6770   40.5850 C   0  0  0  0  0  0  0  0  0  0  0  0
   42.4460   33.4440   41.1030 C   0  0  0  0  0  0  0  0  0  0  0  0
   42.2080   34.7670   41.3180 C   0  0  0  0  0  0  0  0  0  0  0  0
   43.1600   35.4740   41.7990 O   0  0  0  0  0  0  0  0  0  0  0  0
   41.0290   35.3730   41.0550 N   0  0  0  0  0  0  0  0  0  0  0  0
   40.0770   34.5660   40.5520 C   0  0  0  0  0  0  0  0  0  0  0  0
   38.9390   35.0240   40.2680 O   0  0  0  0  0  0  0  0  0  0  0  0
   41.6200   31.6190   40.4160 H   0  0  0  0  0  0  0  0  0  0  0  0
   43.4130   33.0130   41.3350 H   0  0  0  0  0  0  0  0  0  0  0  0
   40.8590   36.3900   41.2240 H   0  0  0  0  0  0  0  0  0  0  0  0
   36.1400   29.3200   41.2130 C   0  0  0  0  0  0  0  0  0  0  0  0
   35.6930   28.8990   40.2950 H   0  0  0  0  0  0  0  0  0  0  0  0
   35.5050   29.0060   42.0600 H   0  0  0  0  0  0  0  0  0  0  0  0
   37.9850   28.3870   42.5410 C   0  0  0  0  0  0  0  0  0  0  0  0
   37.1830   28.4640   43.5110 O   0  0  0  0  0  0  0  0  0  0  0  0
   37.5000   28.8070   41.3010 N   0  0  0  0  0  0  0  0  0  0  0  0
   38.0750   28.7670   40.4410 H   0  0  0  0  0  0  0  0  0  0  0  0
   39.3700   27.8740   42.7220 C   0  0  0  0  0  3  0  0  0  0  0  0
   40.3690   28.9960   42.9150 C   0  0  0  0  0  3  0  0  0  0  0  0
   40.2370   29.4070   43.9500 H   0  0  0  0  0  0  0  0  0  0  0  0
   41.7480   28.3510   42.9050 C   0  0  0  0  0  3  0  0  0  0  0  0
   42.5540   29.0920   42.9160 H   0  0  0  0  0  0  0  0  0  0  0  0
   41.7950   27.5550   44.0690 O   0  0  0  0  0  0  0  0  0  0  0  0
   40.9390   26.4830   43.9390 C   0  0  0  0  0  3  0  0  0  0  0  0
   41.0440   25.8560   44.8520 H   0  0  0  0  0  0  0  0  0  0  0  0
   39.4910   26.8930   43.8550 C   0  0  0  0  0  3  0  0  0  0  0  0
   39.1170   27.2350   44.8180 H   0  0  0  0  0  0  0  0  0  0  0  0
  1 23  1  0  0  0  0
  1  2  1  0  0  0  0
  3  1  1  0  0  0  0
  4  5  2  0  0  0  0
  4  9  1  0  0  0  0
  5  6  1  0  0  0  0
  6 12  1  0  0  0  0
  6  7  2  0  0  0  0
  8  7  1  0  0  0  0
  8  1  1  0  0  0  0
  9  8  2  0  0  0  0
 10  4  1  0  0  0  0
 11  5  1  0  0  0  0
 12 18  1  0  0  0  0
 12 13  1  0  0  0  0
 13 14  2  0  0  0  0
 14 15  1  0  0  0  0
 14 21  1  0  0  0  0
 15 16  2  0  0  0  0
 17 22  1  0  0  0  0
 17 15  1  0  0  0  0
 18 17  1  0  0  0  0
 19 18  2  0  0  0  0
 20 13  1  0  0  0  0
 23 28  1  0  0  0  0
 23 25  1  0  0  0  0
 24 23  1  0  0  0  0
 26 30  1  0  0  0  0
 26 27  2  0  0  0  0
 28 26  1  0  0  0  0
 29 28  1  0  0  0  0
 30 31  1  0  0  0  0
 30 38  1  0  0  0  0
 31 32  1  0  0  0  0
 33 31  1  0  0  0  0
 33 34  1  0  0  0  0
 33 35  1  0  0  0  0
 36 35  1  0  0  0  0
 36 37  1  0  0  0  0
 38 36  1  0  0  0  0
 38 39  1  0  0  0  0
M  END
>  <minimizedAffinity>
-5.81915951

$$$$

 OpenBabel03242521193D

 39 41  0  0  0  0  0  0  0  0999 V2000
   36.6990   27.2750   40.1740 C   0  0  0  0  0  0  0  0  0  0  0  0
   37.4230   26.8140   39.4940 H   0  0  0  0  0  0  0  0  0  0  0  0
   35.8130   26.5820   40.2120 H   0  0  0  0  0  0  0  0  0  0  0  0
   37.1580   27.8200   43.8480 C   0  0  0  0  0  0  0  0  0  0  0  0
   38.4910   27.4000   43.9960 C   0  0  0  0  0  0  0  0  0  0  0  0
   39.1410   26.9640   42.8520 C   0  0  0  0  0  0  0  0  0  0  0  0
   38.4660   26.9620   41.6470 N   0  0  0  0  0  0  0  0  0  0  0  0
   37.1970   27.3740   41.5700 C   0  0  0  0  0  0  0  0  0  0  0  0
   36.5120   27.8120   42.6660 N   0  0  0  0  0  0  0  0  0  0  0  0
   36.6080   28.1720   44.7230 H   0  0  0  0  0  0  0  0  0  0  0  0
   38.9660   27.4240   44.9570 H   0  0  0  0  0  0  0  0  0  0  0  0
   40.4990   26.5310   42.9720 N   0  0  0  0  0  0  0  0  0  0  0  0
   41.4650   27.4580   43.0200 C   0  0  0  0  0  0  0  0  0  0  0  0
   42.7830   27.0540   43.1360 C   0  0  0  0  0  0  0  0  0  0  0  0
   43.0380   25.7190   43.1980 C   0  0  0  0  0  0  0  0  0  0  0  0
   44.2580   25.3490   43.3050 O   0  0  0  0  0  0  0  0  0  0  0  0
   42.0810   24.7660   43.1520 N   0  0  0  0  0  0  0  0  0  0  0  0
   40.8230   25.2300   43.0390 C   0  0  0  0  0  0  0  0  0  0  0  0
   39.8510   24.4320   42.9880 O   0  0  0  0  0  0  0  0  0  0  0  0
   41.2710   28.5280   42.9710 H   0  0  0  0  0  0  0  0  0  0  0  0
   43.5920   27.7730   43.1770 H   0  0  0  0  0  0  0  0  0  0  0  0
   42.2900   23.7430   43.2010 H   0  0  0  0  0  0  0  0  0  0  0  0
   36.1840   28.6050   39.6850 C   0  0  0  0  0  0  0  0  0  0  0  0
   35.1460   28.7230   40.0400 H   0  0  0  0  0  0  0  0  0  0  0  0
   36.1640   28.6720   38.5830 H   0  0  0  0  0  0  0  0  0  0  0  0
   37.1470   30.8660   39.6160 C   0  0  0  0  0  0  0  0  0  0  0  0
   36.5780   30.9570   38.4940 O   0  0  0  0  0  0  0  0  0  0  0  0
   36.9720   29.6630   40.3040 N   0  0  0  0  0  0  0  0  0  0  0  0
   37.3830   29.4970   41.2390 H   0  0  0  0  0  0  0  0  0  0  0  0
   37.9560   31.9870   40.1660 C   0  0  0  0  0  3  0  0  0  0  0  0
   39.4380   31.7890   39.9190 C   0  0  0  0  0  3  0  0  0  0  0  0
   39.6410   31.9910   38.8350 H   0  0  0  0  0  0  0  0  0  0  0  0
   40.1520   32.8980   40.6800 C   0  0  0  0  0  3  0  0  0  0  0  0
   41.2400   32.7760   40.6690 H   0  0  0  0  0  0  0  0  0  0  0  0
   39.7830   34.0940   40.0290 O   0  0  0  0  0  0  0  0  0  0  0  0
   38.4500   34.3580   40.2550 C   0  0  0  0  0  3  0  0  0  0  0  0
   38.2130   35.3310   39.7700 H   0  0  0  0  0  0  0  0  0  0  0  0
   37.5340   33.3310   39.6400 C   0  0  0  0  0  3  0  0  0  0  0  0
   37.4980   33.4240   38.5580 H   0  0  0  0  0  0  0  0  0  0  0  0
  1  3  1  0  0  0  0
  1  8  1  0  0  0  0
  2  1  1  0  0  0  0
  4  5  1  0  0  0  0
  4 10  1  0  0  0  0
  5 11  1  0  0  0  0
  6 12  1  0  0  0  0
  6  5  2  0  0  0  0
  7  6  1  0  0  0  0
  8  7  2  0  0  0  0
  8  9  1  0  0  0  0
  9  4  2  0  0  0  0
 12 13  1  0  0  0  0
 12 18  1  0  0  0  0
 13 14  2  0  0  0  0
 14 21  1  0  0  0  0
 14 15  1  0  0  0  0
 15 16  2  0  0  0  0
 17 15  1  0  0  0  0
 17 22  1  0  0  0  0
 18 17  1  0  0  0  0
 19 18  2  0  0  0  0
 20 13  1  0  0  0  0
 23 24  1  0  0  0  0
 23  1  1  0  0  0  0
 23 28  1  0  0  0  0
 25 23  1  0  0  0  0
 26 30  1  0  0  0  0
 26 28  1  0  0  0  0
 27 26  2  0  0  0  0
 28 29  1  0  0  0  0
 31 30  1  0  0  0  0
 31 33  1  0  0  0  0
 32 31  1  0  0  0  0
 34 33  1  0  0  0  0
 35 36  1  0  0  0  0
 35 33  1  0  0  0  0
 37 36  1  0  0  0  0
 38 30  1  0  0  0  0
 38 36  1  0  0  0  0
 39 38  1  0  0  0  0
M  END
>  <minimizedAffinity>
-5.73435879

$$$$

 OpenBabel03242521193D

 39 41  0  0  0  0  0  0  0  0999 V2000
   37.9620   34.2790   39.8430 C   0  0  0  0  0  0  0  0  0  0  0  0
   37.4580   34.6500   38.9450 H   0  0  0  0  0  0  0  0  0  0  0  0
   37.1690   34.1870   40.6370 H   0  0  0  0  0  0  0  0  0  0  0  0
   39.8300   31.2150   38.7800 C   0  0  0  0  0  0  0  0  0  0  0  0
   39.3000   30.2760   39.6810 C   0  0  0  0  0  0  0  0  0  0  0  0
   38.3520   30.7380   40.5820 C   0  0  0  0  0  0  0  0  0  0  0  0
   37.9810   32.0690   40.5540 N   0  0  0  0  0  0  0  0  0  0  0  0
   38.5230   32.9140   39.6710 C   0  0  0  0  0  0  0  0  0  0  0  0
   39.4590   32.5100   38.7640 N   0  0  0  0  0  0  0  0  0  0  0  0
   40.5780   30.8940   38.0530 H   0  0  0  0  0  0  0  0  0  0  0  0
   39.6240   29.2540   39.6580 H   0  0  0  0  0  0  0  0  0  0  0  0
   37.7950   29.8060   41.5110 N   0  0  0  0  0  0  0  0  0  0  0  0
   38.4440   29.5830   42.6630 C   0  0  0  0  0  0  0  0  0  0  0  0
   37.9170   28.6840   43.5720 C   0  0  0  0  0  0  0  0  0  0  0  0
   36.7510   28.0610   43.2500 C   0  0  0  0  0  0  0  0  0  0  0  0
   36.2680   27.2280   44.0930 O   0  0  0  0  0  0  0  0  0  0  0  0
   36.0790   28.2680   42.0960 N   0  0  0  0  0  0  0  0  0  0  0  0
   36.6480   29.1550   41.2590 C   0  0  0  0  0  0  0  0  0  0  0  0
   36.1080   29.4280   40.1550 O   0  0  0  0  0  0  0  0  0  0  0  0
   39.3770   30.0770   42.9290 H   0  0  0  0  0  0  0  0  0  0  0  0
   38.4130   28.4760   44.5120 H   0  0  0  0  0  0  0  0  0  0  0  0
   35.1840   27.7830   41.8610 H   0  0  0  0  0  0  0  0  0  0  0  0
   39.0010   35.2290   40.3810 C   0  0  0  0  0  0  0  0  0  0  0  0
   38.5390   35.8220   41.1900 H   0  0  0  0  0  0  0  0  0  0  0  0
   39.3600   35.9410   39.6160 H   0  0  0  0  0  0  0  0  0  0  0  0
   41.3780   34.6180   40.5050 C   0  0  0  0  0  0  0  0  0  0  0  0
   41.5340   35.4670   39.5860 O   0  0  0  0  0  0  0  0  0  0  0  0
   40.0760   34.4500   40.9800 N   0  0  0  0  0  0  0  0  0  0  0  0
   39.8470   33.7910   41.7440 H   0  0  0  0  0  0  0  0  0  0  0  0
   42.5290   33.8440   41.0450 C   0  0  0  0  0  3  0  0  0  0  0  0
   43.2690   34.6090   42.1230 C   0  0  0  0  0  3  0  0  0  0  0  0
   42.6450   34.5950   43.0540 H   0  0  0  0  0  0  0  0  0  0  0  0
   44.5120   33.7930   42.4530 C   0  0  0  0  0  3  0  0  0  0  0  0
   45.1850   34.3180   43.1380 H   0  0  0  0  0  0  0  0  0  0  0  0
   44.0300   32.6080   43.0490 O   0  0  0  0  0  0  0  0  0  0  0  0
   43.3830   31.8390   42.1060 C   0  0  0  0  0  3  0  0  0  0  0  0
   43.0650   30.8950   42.6020 H   0  0  0  0  0  0  0  0  0  0  0  0
   42.1340   32.4920   41.5700 C   0  0  0  0  0  3  0  0  0  0  0  0
   41.3340   32.4860   42.3070 H   0  0  0  0  0  0  0  0  0  0  0  0
  1 23  1  0  0  0  0
  1  3  1  0  0  0  0
  2  1  1  0  0  0  0
  4  5  1  0  0  0  0
  5  6  2  0  0  0  0
  6 12  1  0  0  0  0
  7  6  1  0  0  0  0
  8  1  1  0  0  0  0
  8  7  2  0  0  0  0
  9  4  2  0  0  0  0
  9  8  1  0  0  0  0
 10  4  1  0  0  0  0
 11  5  1  0  0  0  0
 12 13  1  0  0  0  0
 13 20  1  0  0  0  0
 13 14  2  0  0  0  0
 14 21  1  0  0  0  0
 15 14  1  0  0  0  0
 15 16  2  0  0  0  0
 17 15  1  0  0  0  0
 18 12  1  0  0  0  0
 18 17  1  0  0  0  0
 19 18  2  0  0  0  0
 22 17  1  0  0  0  0
 23 28  1  0  0  0  0
 23 24  1  0  0  0  0
 25 23  1  0  0  0  0
 26 28  1  0  0  0  0
 26 30  1  0  0  0  0
 27 26  2  0  0  0  0
 28 29  1  0  0  0  0
 30 38  1  0  0  0  0
 30 31  1  0  0  0  0
 31 33  1  0  0  0  0
 31 32  1  0  0  0  0
 33 35  1  0  0  0  0
 33 34  1  0  0  0  0
 36 37  1  0  0  0  0
 36 35  1  0  0  0  0
 38 36  1  0  0  0  0
 38 39  1  0  0  0  0
M  END
>  <minimizedAffinity>
-5.72306824

$$$$

 OpenBabel03242521193D

 39 41  0  0  0  0  0  0  0  0999 V2000
   37.2280   26.0400   40.3850 C   0  0  0  0  0  0  0  0  0  0  0  0
   37.7230   25.0780   40.5540 H   0  0  0  0  0  0  0  0  0  0  0  0
   36.1210   25.8320   40.3900 H   0  0  0  0  0  0  0  0  0  0  0  0
   37.7810   27.7870   43.6480 C   0  0  0  0  0  0  0  0  0  0  0  0
   37.9030   29.1140   43.2010 C   0  0  0  0  0  0  0  0  0  0  0  0
   37.7910   29.3280   41.8360 C   0  0  0  0  0  0  0  0  0  0  0  0
   37.5690   28.2530   40.9970 N   0  0  0  0  0  0  0  0  0  0  0  0
   37.4620   27.0120   41.4830 C   0  0  0  0  0  0  0  0  0  0  0  0
   37.5660   26.7490   42.8180 N   0  0  0  0  0  0  0  0  0  0  0  0
   37.8620   27.5730   44.7150 H   0  0  0  0  0  0  0  0  0  0  0  0
   38.0740   29.9100   43.8990 H   0  0  0  0  0  0  0  0  0  0  0  0
   37.9100   30.6680   41.3520 N   0  0  0  0  0  0  0  0  0  0  0  0
   39.1020   31.2760   41.4370 C   0  0  0  0  0  0  0  0  0  0  0  0
   39.2330   32.5720   40.9730 C   0  0  0  0  0  0  0  0  0  0  0  0
   38.1340   33.1750   40.4460 C   0  0  0  0  0  0  0  0  0  0  0  0
   38.2590   34.3750   40.0180 O   0  0  0  0  0  0  0  0  0  0  0  0
   36.9220   32.5830   40.3490 N   0  0  0  0  0  0  0  0  0  0  0  0
   36.8670   31.3240   40.8200 C   0  0  0  0  0  0  0  0  0  0  0  0
   35.7890   30.6740   40.7790 O   0  0  0  0  0  0  0  0  0  0  0  0
   39.9870   30.8010   41.8580 H   0  0  0  0  0  0  0  0  0  0  0  0
   40.1790   33.0970   41.0260 H   0  0  0  0  0  0  0  0  0  0  0  0
   36.0850   33.0580   39.9420 H   0  0  0  0  0  0  0  0  0  0  0  0
   37.5460   26.6480   39.0430 C   0  0  0  0  0  0  0  0  0  0  0  0
   37.9450   25.8520   38.3910 H   0  0  0  0  0  0  0  0  0  0  0  0
   38.3160   27.4370   39.1080 H   0  0  0  0  0  0  0  0  0  0  0  0
   36.3020   28.3290   37.7510 C   0  0  0  0  0  0  0  0  0  0  0  0
   37.4060   28.9360   37.6830 O   0  0  0  0  0  0  0  0  0  0  0  0
   36.3050   27.1140   38.4400 N   0  0  0  0  0  0  0  0  0  0  0  0
   35.4540   26.5320   38.5360 H   0  0  0  0  0  0  0  0  0  0  0  0
   35.0730   28.8880   37.1270 C   0  0  0  0  0  3  0  0  0  0  0  0
   34.8750   28.3800   35.7140 C   0  0  0  0  0  3  0  0  0  0  0  0
   34.5280   27.3160   35.7710 H   0  0  0  0  0  0  0  0  0  0  0  0
   33.7010   29.1610   35.1370 C   0  0  0  0  0  3  0  0  0  0  0  0
   33.5490   28.9570   34.0720 H   0  0  0  0  0  0  0  0  0  0  0  0
   32.5770   28.7480   35.8830 O   0  0  0  0  0  0  0  0  0  0  0  0
   32.6720   29.2200   37.1740 C   0  0  0  0  0  3  0  0  0  0  0  0
   31.7470   28.9170   37.7120 H   0  0  0  0  0  0  0  0  0  0  0  0
   33.8320   28.6270   37.9340 C   0  0  0  0  0  3  0  0  0  0  0  0
   33.6480   27.5880   38.1950 H   0  0  0  0  0  0  0  0  0  0  0  0
  1  3  1  0  0  0  0
  1  2  1  0  0  0  0
  1  8  1  0  0  0  0
  4 10  1  0  0  0  0
  5  4  1  0  0  0  0
  5 11  1  0  0  0  0
  6  5  2  0  0  0  0
  7  8  2  0  0  0  0
  7  6  1  0  0  0  0
  8  9  1  0  0  0  0
  9  4  2  0  0  0  0
 12 13  1  0  0  0  0
 12  6  1  0  0  0  0
 13 20  1  0  0  0  0
 14 21  1  0  0  0  0
 14 13  2  0  0  0  0
 15 14  1  0  0  0  0
 16 15  2  0  0  0  0
 17 15  1  0  0  0  0
 17 18  1  0  0  0  0
 18 12  1  0  0  0  0
 19 18  2  0  0  0  0
 22 17  1  0  0  0  0
 23 25  1  0  0  0  0
 23  1  1  0  0  0  0
 24 23  1  0  0  0  0
 26 28  1  0  0  0  0
 27 26  2  0  0  0  0
 28 29  1  0  0  0  0
 28 23  1  0  0  0  0
 30 26  1  0  0  0  0
 30 38  1  0  0  0  0
 31 32  1  0  0  0  0
 31 30  1  0  0  0  0
 33 31  1  0  0  0  0
 33 35  1  0  0  0  0
 34 33  1  0  0  0  0
 35 36  1  0  0  0  0
 36 37  1  0  0  0  0
 36 38  1  0  0  0  0
 38 39  1  0  0  0  0
M  END
>  <minimizedAffinity>
-5.72084951

$$$$

 OpenBabel03242521193D

 39 41  0  0  0  0  0  0  0  0999 V2000
   35.9180   29.0940   40.6270 C   0  0  0  0  0  0  0  0  0  0  0  0
   34.8250   29.1570   40.6390 H   0  0  0  0  0  0  0  0  0  0  0  0
   36.1710   28.0120   40.4430 H   0  0  0  0  0  0  0  0  0  0  0  0
   36.9860   30.4660   37.3130 C   0  0  0  0  0  0  0  0  0  0  0  0
   37.8680   31.4760   37.7350 C   0  0  0  0  0  0  0  0  0  0  0  0
   38.0410   31.6240   39.1020 C   0  0  0  0  0  0  0  0  0  0  0  0
   37.3560   30.7930   39.9680 N   0  0  0  0  0  0  0  0  0  0  0  0
   36.5300   29.8500   39.5040 C   0  0  0  0  0  0  0  0  0  0  0  0
   36.3240   29.6630   38.1680 N   0  0  0  0  0  0  0  0  0  0  0  0
   36.8200   30.3140   36.2450 H   0  0  0  0  0  0  0  0  0  0  0  0
   38.3740   32.0920   37.0180 H   0  0  0  0  0  0  0  0  0  0  0  0
   38.9330   32.6430   39.5610 N   0  0  0  0  0  0  0  0  0  0  0  0
   38.4140   33.7960   40.0060 C   0  0  0  0  0  0  0  0  0  0  0  0
   39.2630   34.7910   40.4530 C   0  0  0  0  0  0  0  0  0  0  0  0
   40.6020   34.5500   40.4210 C   0  0  0  0  0  0  0  0  0  0  0  0
   41.3850   35.4730   40.8340 O   0  0  0  0  0  0  0  0  0  0  0  0
   41.1490   33.3960   39.9770 N   0  0  0  0  0  0  0  0  0  0  0  0
   40.2640   32.4730   39.5580 C   0  0  0  0  0  0  0  0  0  0  0  0
   40.6610   31.3590   39.1250 O   0  0  0  0  0  0  0  0  0  0  0  0
   37.3440   33.9990   40.0350 H   0  0  0  0  0  0  0  0  0  0  0  0
   38.8820   35.7370   40.8180 H   0  0  0  0  0  0  0  0  0  0  0  0
   42.1800   33.2230   39.9580 H   0  0  0  0  0  0  0  0  0  0  0  0
   36.5530   29.4670   41.9430 C   0  0  0  0  0  0  0  0  0  0  0  0
   35.8240   29.2640   42.7460 H   0  0  0  0  0  0  0  0  0  0  0  0
   36.8120   30.5390   41.9990 H   0  0  0  0  0  0  0  0  0  0  0  0
   37.6120   27.6160   43.1640 C   0  0  0  0  0  0  0  0  0  0  0  0
   36.5190   27.5460   43.7900 O   0  0  0  0  0  0  0  0  0  0  0  0
   37.6950   28.5940   42.1700 N   0  0  0  0  0  0  0  0  0  0  0  0
   38.5430   28.7190   41.5900 H   0  0  0  0  0  0  0  0  0  0  0  0
   38.7410   26.7000   43.4770 C   0  0  0  0  0  3  0  0  0  0  0  0
   38.7550   25.4870   42.5680 C   0  0  0  0  0  3  0  0  0  0  0  0
   39.1170   25.8120   41.5580 H   0  0  0  0  0  0  0  0  0  0  0  0
   39.8340   24.5570   43.1080 C   0  0  0  0  0  3  0  0  0  0  0  0
   39.8450   23.5910   42.5940 H   0  0  0  0  0  0  0  0  0  0  0  0
   41.0510   25.2400   42.9000 O   0  0  0  0  0  0  0  0  0  0  0  0
   41.1240   26.3340   43.7350 C   0  0  0  0  0  3  0  0  0  0  0  0
   42.1160   26.8120   43.5780 H   0  0  0  0  0  0  0  0  0  0  0  0
   40.0820   27.3790   43.4290 C   0  0  0  0  0  3  0  0  0  0  0  0
   40.3090   27.9100   42.5070 H   0  0  0  0  0  0  0  0  0  0  0  0
  1  2  1  0  0  0  0
  1 23  1  0  0  0  0
  3  1  1  0  0  0  0
  4  5  2  0  0  0  0
  4  9  1  0  0  0  0
  5  6  1  0  0  0  0
  6 12  1  0  0  0  0
  6  7  2  0  0  0  0
  8  7  1  0  0  0  0
  8  1  1  0  0  0  0
  9  8  2  0  0  0  0
 10  4  1  0  0  0  0
 11  5  1  0  0  0  0
 12 13  1  0  0  0  0
 13 20  1  0  0  0  0
 13 14  2  0  0  0  0
 14 21  1  0  0  0  0
 15 14  1  0  0  0  0
 15 16  2  0  0  0  0
 17 15  1  0  0  0  0
 18 12  1  0  0  0  0
 18 17  1  0  0  0  0
 19 18  2  0  0  0  0
 22 17  1  0  0  0  0
 23 25  1  0  0  0  0
 23 28  1  0  0  0  0
 23 24  1  0  0  0  0
 26 30  1  0  0  0  0
 26 27  2  0  0  0  0
 28 26  1  0  0  0  0
 29 28  1  0  0  0  0
 31 33  1  0  0  0  0
 31 30  1  0  0  0  0
 32 31  1  0  0  0  0
 34 33  1  0  0  0  0
 35 33  1  0  0  0  0
 35 36  1  0  0  0  0
 37 36  1  0  0  0  0
 38 30  1  0  0  0  0
 38 36  1  0  0  0  0
 39 38  1  0  0  0  0
M  END
>  <minimizedAffinity>
-5.71449375

$$$$

 OpenBabel03242521193D

 39 41  0  0  0  0  0  0  0  0999 V2000
   35.4150   29.1230   37.3460 C   0  0  0  0  0  0  0  0  0  0  0  0
   35.2100   29.9510   36.6600 H   0  0  0  0  0  0  0  0  0  0  0  0
   36.3020   28.5730   36.9240 H   0  0  0  0  0  0  0  0  0  0  0  0
   35.8400   29.7250   41.0150 C   0  0  0  0  0  0  0  0  0  0  0  0
   36.8760   30.6740   40.9930 C   0  0  0  0  0  0  0  0  0  0  0  0
   37.3590   31.0440   39.7470 C   0  0  0  0  0  0  0  0  0  0  0  0
   36.8120   30.4780   38.6110 N   0  0  0  0  0  0  0  0  0  0  0  0
   35.8260   29.5790   38.6990 C   0  0  0  0  0  0  0  0  0  0  0  0
   35.3170   29.1800   39.9000 N   0  0  0  0  0  0  0  0  0  0  0  0
   35.4290   29.4050   41.9750 H   0  0  0  0  0  0  0  0  0  0  0  0
   37.2620   31.0810   41.9060 H   0  0  0  0  0  0  0  0  0  0  0  0
   38.4130   32.0080   39.6920 N   0  0  0  0  0  0  0  0  0  0  0  0
   39.6800   31.5750   39.7490 C   0  0  0  0  0  0  0  0  0  0  0  0
   40.7110   32.4950   39.6970 C   0  0  0  0  0  0  0  0  0  0  0  0
   40.3860   33.8120   39.5900 C   0  0  0  0  0  0  0  0  0  0  0  0
   41.3430   34.6610   39.5430 O   0  0  0  0  0  0  0  0  0  0  0  0
   39.1170   34.2730   39.5310 N   0  0  0  0  0  0  0  0  0  0  0  0
   38.1660   33.3230   39.5870 C   0  0  0  0  0  0  0  0  0  0  0  0
   36.9470   33.6370   39.5390 O   0  0  0  0  0  0  0  0  0  0  0  0
   39.9500   30.5230   39.8350 H   0  0  0  0  0  0  0  0  0  0  0  0
   41.7480   32.1840   39.7410 H   0  0  0  0  0  0  0  0  0  0  0  0
   38.8810   35.2880   39.4490 H   0  0  0  0  0  0  0  0  0  0  0  0
   34.2890   28.1230   37.4290 C   0  0  0  0  0  0  0  0  0  0  0  0
   34.5060   27.4290   38.2600 H   0  0  0  0  0  0  0  0  0  0  0  0
   34.1930   27.5170   36.5110 H   0  0  0  0  0  0  0  0  0  0  0  0
   32.1600   29.1510   36.7570 C   0  0  0  0  0  0  0  0  0  0  0  0
   32.4680   28.7730   35.5940 O   0  0  0  0  0  0  0  0  0  0  0  0
   33.0640   28.8320   37.7730 N   0  0  0  0  0  0  0  0  0  0  0  0
   32.8940   29.0830   38.7620 H   0  0  0  0  0  0  0  0  0  0  0  0
   30.8980   29.8950   37.0190 C   0  0  0  0  0  3  0  0  0  0  0  0
   30.6350   30.0590   38.5020 C   0  0  0  0  0  3  0  0  0  0  0  0
   31.3380   30.8380   38.8970 H   0  0  0  0  0  0  0  0  0  0  0  0
   29.2440   30.6650   38.6270 C   0  0  0  0  0  3  0  0  0  0  0  0
   28.9030   30.7150   39.6660 H   0  0  0  0  0  0  0  0  0  0  0  0
   29.3530   31.9630   38.0830 O   0  0  0  0  0  0  0  0  0  0  0  0
   29.5470   31.8850   36.7210 C   0  0  0  0  0  3  0  0  0  0  0  0
   29.5760   32.9250   36.3250 H   0  0  0  0  0  0  0  0  0  0  0  0
   30.8580   31.2400   36.3490 C   0  0  0  0  0  3  0  0  0  0  0  0
   31.6990   31.8970   36.5570 H   0  0  0  0  0  0  0  0  0  0  0  0
  1 23  1  0  0  0  0
  1  8  1  0  0  0  0
  2  1  1  0  0  0  0
  3  1  1  0  0  0  0
  4 10  1  0  0  0  0
  5  4  1  0  0  0  0
  5 11  1  0  0  0  0
  6  5  2  0  0  0  0
  7  8  2  0  0  0  0
  7  6  1  0  0  0  0
  8  9  1  0  0  0  0
  9  4  2  0  0  0  0
 12  6  1  0  0  0  0
 12 13  1  0  0  0  0
 13 20  1  0  0  0  0
 14 21  1  0  0  0  0
 14 13  2  0  0  0  0
 15 14  1  0  0  0  0
 16 15  2  0  0  0  0
 17 18  1  0  0  0  0
 17 15  1  0  0  0  0
 18 12  1  0  0  0  0
 19 18  2  0  0  0  0
 22 17  1  0  0  0  0
 23 28  1  0  0  0  0
 23 24  1  0  0  0  0
 25 23  1  0  0  0  0
 26 30  1  0  0  0  0
 26 28  1  0  0  0  0
 27 26  2  0  0  0  0
 28 29  1  0  0  0  0
 30 31  1  0  0  0  0
 31 33  1  0  0  0  0
 31 32  1  0  0  0  0
 33 34  1  0  0  0  0
 35 33  1  0  0  0  0
 36 35  1  0  0  0  0
 37 36  1  0  0  0  0
 38 39  1  0  0  0  0
 38 36  1  0  0  0  0
 38 30  1  0  0  0  0
M  END
>  <minimizedAffinity>
-5.68943882

$$$$

 OpenBabel03242521193D

 39 41  0  0  0  0  0  0  0  0999 V2000
   38.6530   28.0870   42.2170 C   0  0  0  0  0  0  0  0  0  0  0  0
   39.2810   27.5380   41.5090 H   0  0  0  0  0  0  0  0  0  0  0  0
   39.3570   28.6050   42.9290 H   0  0  0  0  0  0  0  0  0  0  0  0
   35.9950   30.2720   40.7460 C   0  0  0  0  0  0  0  0  0  0  0  0
   36.7720   31.3720   40.3460 C   0  0  0  0  0  0  0  0  0  0  0  0
   38.1330   31.3020   40.5980 C   0  0  0  0  0  0  0  0  0  0  0  0
   38.6520   30.1820   41.2160 N   0  0  0  0  0  0  0  0  0  0  0  0
   37.8600   29.1660   41.5740 C   0  0  0  0  0  0  0  0  0  0  0  0
   36.5150   29.1850   41.3490 N   0  0  0  0  0  0  0  0  0  0  0  0
   34.9180   30.2840   40.5670 H   0  0  0  0  0  0  0  0  0  0  0  0
   36.3150   32.2160   39.8680 H   0  0  0  0  0  0  0  0  0  0  0  0
   38.9490   32.4070   40.2010 N   0  0  0  0  0  0  0  0  0  0  0  0
   38.9520   33.5090   40.9650 C   0  0  0  0  0  0  0  0  0  0  0  0
   39.7360   34.5860   40.5940 C   0  0  0  0  0  0  0  0  0  0  0  0
   40.4760   34.4740   39.4580 C   0  0  0  0  0  0  0  0  0  0  0  0
   41.2000   35.4740   39.1180 O   0  0  0  0  0  0  0  0  0  0  0  0
   40.4900   33.3760   38.6710 N   0  0  0  0  0  0  0  0  0  0  0  0
   39.7040   32.3670   39.0920 C   0  0  0  0  0  0  0  0  0  0  0  0
   39.6400   31.2940   38.4380 O   0  0  0  0  0  0  0  0  0  0  0  0
   38.3630   33.6060   41.8760 H   0  0  0  0  0  0  0  0  0  0  0  0
   39.7650   35.4930   41.1850 H   0  0  0  0  0  0  0  0  0  0  0  0
   41.0630   33.3030   37.8000 H   0  0  0  0  0  0  0  0  0  0  0  0
   37.7750   27.1930   43.0560 C   0  0  0  0  0  0  0  0  0  0  0  0
   36.9740   27.8120   43.4950 H   0  0  0  0  0  0  0  0  0  0  0  0
   38.3240   26.7240   43.8920 H   0  0  0  0  0  0  0  0  0  0  0  0
   37.6860   24.9430   42.0700 C   0  0  0  0  0  0  0  0  0  0  0  0
   38.7100   24.7130   42.7700 O   0  0  0  0  0  0  0  0  0  0  0  0
   37.1340   26.2210   42.1810 N   0  0  0  0  0  0  0  0  0  0  0  0
   36.2840   26.5020   41.6610 H   0  0  0  0  0  0  0  0  0  0  0  0
   37.1080   23.9000   41.1810 C   0  0  0  0  0  3  0  0  0  0  0  0
   36.3260   24.5050   40.0330 C   0  0  0  0  0  3  0  0  0  0  0  0
   37.0570   24.9250   39.2950 H   0  0  0  0  0  0  0  0  0  0  0  0
   35.6460   23.3450   39.3180 C   0  0  0  0  0  3  0  0  0  0  0  0
   34.9530   23.6840   38.5400 H   0  0  0  0  0  0  0  0  0  0  0  0
   36.6950   22.5930   38.7480 O   0  0  0  0  0  0  0  0  0  0  0  0
   37.4210   21.9740   39.7420 C   0  0  0  0  0  3  0  0  0  0  0  0
   38.2030   21.3530   39.2510 H   0  0  0  0  0  0  0  0  0  0  0  0
   38.1390   22.9490   40.6400 C   0  0  0  0  0  3  0  0  0  0  0  0
   38.9860   23.4080   40.1350 H   0  0  0  0  0  0  0  0  0  0  0  0
  1  3  1  0  0  0  0
  1 23  1  0  0  0  0
  2  1  1  0  0  0  0
  4  9  1  0  0  0  0
  5  6  1  0  0  0  0
  5  4  2  0  0  0  0
  6  7  2  0  0  0  0
  7  8  1  0  0  0  0
  8  1  1  0  0  0  0
  9  8  2  0  0  0  0
 10  4  1  0  0  0  0
 11  5  1  0  0  0  0
 12  6  1  0  0  0  0
 12 13  1  0  0  0  0
 13 20  1  0  0  0  0
 14 13  2  0  0  0  0
 14 21  1  0  0  0  0
 15 14  1  0  0  0  0
 16 15  2  0  0  0  0
 17 18  1  0  0  0  0
 17 15  1  0  0  0  0
 18 12  1  0  0  0  0
 19 18  2  0  0  0  0
 22 17  1  0  0  0  0
 23 24  1  0  0  0  0
 23 25  1  0  0  0  0
 26 28  1  0  0  0  0
 26 27  2  0  0  0  0
 28 23  1  0  0  0  0
 29 28  1  0  0  0  0
 30 26  1  0  0  0  0
 31 30  1  0  0  0  0
 32 31  1  0  0  0  0
 33 31  1  0  0  0  0
 34 33  1  0  0  0  0
 35 33  1  0  0  0  0
 35 36  1  0  0  0  0
 36 38  1  0  0  0  0
 37 36  1  0  0  0  0
 38 30  1  0  0  0  0
 39 38  1  0  0  0  0
M  END
>  <minimizedAffinity>
-5.68074036

$$$$
