
 OpenBabel03252502293D

 36 38  0  0  0  0  0  0  0  0999 V2000
   37.4800   31.5850   39.9690 C   0  0  0  0  0  0  0  0  0  0  0  0
   37.2690   32.9060   39.5790 C   0  0  0  0  0  0  0  0  0  0  0  0
   38.1640   33.8760   40.0190 C   0  0  0  0  0  0  0  0  0  0  0  0
   39.2230   33.5220   40.8190 C   0  0  0  0  0  0  0  0  0  0  0  0
   39.4420   32.2260   41.2100 C   0  0  0  0  0  0  0  0  0  0  0  0
   38.5360   31.2600   40.7610 C   0  0  0  0  0  0  0  0  0  0  0  0
   36.4400   33.1950   38.9510 H   0  0  0  0  0  0  0  0  0  0  0  0
   38.0780   34.9250   39.7660 H   0  0  0  0  0  0  0  0  0  0  0  0
   39.9240   34.2730   41.1650 H   0  0  0  0  0  0  0  0  0  0  0  0
   40.2650   31.9060   41.8390 H   0  0  0  0  0  0  0  0  0  0  0  0
   35.4010   29.2950   37.8090 C   0  0  0  0  0  0  0  0  0  0  0  0
   36.3760   30.2360   38.1670 C   0  0  0  0  0  0  0  0  0  0  0  0
   36.5170   30.6270   39.4760 C   0  0  0  0  0  0  0  0  0  0  0  0
   35.6670   30.0490   40.3610 N   0  0  0  0  0  0  0  0  0  0  0  0
   34.7270   29.1430   40.0210 C   0  0  0  0  0  0  0  0  0  0  0  0
   34.5910   28.7600   38.7290 N   0  0  0  0  0  0  0  0  0  0  0  0
   37.0410   30.6800   37.4380 H   0  0  0  0  0  0  0  0  0  0  0  0
   34.1330   28.7780   40.8340 H   0  0  0  0  0  0  0  0  0  0  0  0
   35.2540   28.8780   36.3960 C   0  0  0  0  0  0  0  0  0  0  0  0
   36.1530   29.6370   35.6400 F   0  0  0  0  0  0  0  0  0  0  0  0
   33.9930   29.3180   35.9800 F   0  0  0  0  0  0  0  0  0  0  0  0
   35.4360   27.5470   36.1890 F   0  0  0  0  0  0  0  0  0  0  0  0
   38.5650   29.1470   42.2770 C   0  0  0  0  0  0  0  0  0  0  0  0
   38.3330   29.5890   43.3930 O   0  0  0  0  0  0  0  0  0  0  0  0
   38.6510   29.8930   41.0830 N   0  0  0  0  0  0  0  0  0  0  0  0
   38.8470   29.3970   40.1590 H   0  0  0  0  0  0  0  0  0  0  0  0
   38.7780   27.6590   42.1580 C   0  0  0  0  0  3  0  0  0  0  0  0
   37.5220   26.9610   42.5270 C   0  0  0  0  0  3  0  0  0  0  0  0
   36.6280   27.3470   42.0170 H   0  0  0  0  0  0  0  0  0  0  0  0
   37.7410   25.4760   42.2080 C   0  0  0  0  0  3  0  0  0  0  0  0
   37.0260   24.8230   42.7230 H   0  0  0  0  0  0  0  0  0  0  0  0
   39.0640   25.1280   42.4170 O   0  0  0  0  0  0  0  0  0  0  0  0
   39.6600   25.8180   43.4690 C   0  0  0  0  0  3  0  0  0  0  0  0
   39.0540   25.8010   44.3950 H   0  0  0  0  0  0  0  0  0  0  0  0
   39.8760   27.2770   43.1280 C   0  0  0  0  0  3  0  0  0  0  0  0
   39.7850   27.9540   44.0030 H   0  0  0  0  0  0  0  0  0  0  0  0
  1  6  1  0  0  0  0
  2  1  2  0  0  0  0
  2  3  1  0  0  0  0
  3  4  2  0  0  0  0
  4  9  1  0  0  0  0
  4  5  1  0  0  0  0
  5 10  1  0  0  0  0
  6 25  1  0  0  0  0
  6  5  2  0  0  0  0
  7  2  1  0  0  0  0
  8  3  1  0  0  0  0
 11 12  2  0  0  0  0
 11 16  1  0  0  0  0
 12 13  1  0  0  0  0
 13  1  1  0  0  0  0
 13 14  2  0  0  0  0
 15 14  1  0  0  0  0
 15 18  1  0  0  0  0
 16 15  2  0  0  0  0
 17 12  1  0  0  0  0
 19 11  1  0  0  0  0
 20 19  1  0  0  0  0
 21 19  1  0  0  0  0
 22 19  1  0  0  0  0
 23 24  2  0  0  0  0
 25 23  1  0  0  0  0
 26 25  1  0  0  0  0
 27 23  1  0  0  0  0
 27 28  1  0  0  0  0
 27 35  1  0  0  0  0
 29 28  1  0  0  0  0
 30 32  1  0  0  0  0
 30 28  1  0  0  0  0
 30 31  1  0  0  0  0
 32 33  1  0  0  0  0
 33 34  1  0  0  0  0
 35 33  1  0  0  0  0
 35 36  1  0  0  0  0
M  END
>  <minimizedAffinity>
-6.01603508

$$$$

 OpenBabel03252502293D

 36 38  0  0  0  0  0  0  0  0999 V2000
   35.4970   27.8260   38.5750 C   0  0  0  0  0  0  0  0  0  0  0  0
   34.4660   28.0160   37.6600 C   0  0  0  0  0  0  0  0  0  0  0  0
   33.9990   26.9140   36.9500 C   0  0  0  0  0  0  0  0  0  0  0  0
   34.5560   25.6760   37.1600 C   0  0  0  0  0  0  0  0  0  0  0  0
   35.5730   25.4750   38.0580 C   0  0  0  0  0  0  0  0  0  0  0  0
   36.0310   26.5900   38.7650 C   0  0  0  0  0  0  0  0  0  0  0  0
   34.0210   28.9850   37.4870 H   0  0  0  0  0  0  0  0  0  0  0  0
   33.2020   26.9690   36.2190 H   0  0  0  0  0  0  0  0  0  0  0  0
   34.1980   24.8130   36.6110 H   0  0  0  0  0  0  0  0  0  0  0  0
   36.0380   24.5150   38.2530 H   0  0  0  0  0  0  0  0  0  0  0  0
   36.8570   31.2230   39.4930 C   0  0  0  0  0  0  0  0  0  0  0  0
   36.4700   30.1340   38.7010 C   0  0  0  0  0  0  0  0  0  0  0  0
   35.9330   29.0100   39.2800 C   0  0  0  0  0  0  0  0  0  0  0  0
   35.8110   29.0410   40.6320 N   0  0  0  0  0  0  0  0  0  0  0  0
   36.1820   30.0870   41.3970 C   0  0  0  0  0  0  0  0  0  0  0  0
   36.7120   31.1940   40.8220 N   0  0  0  0  0  0  0  0  0  0  0  0
   36.5790   30.1380   37.6250 H   0  0  0  0  0  0  0  0  0  0  0  0
   36.0220   29.9600   42.4490 H   0  0  0  0  0  0  0  0  0  0  0  0
   37.4360   32.4310   38.8630 C   0  0  0  0  0  0  0  0  0  0  0  0
   37.2850   32.2950   37.4790 F   0  0  0  0  0  0  0  0  0  0  0  0
   38.8180   32.3640   39.0690 F   0  0  0  0  0  0  0  0  0  0  0  0
   36.8980   33.5990   39.3060 F   0  0  0  0  0  0  0  0  0  0  0  0
   37.3350   25.6870   40.8280 C   0  0  0  0  0  0  0  0  0  0  0  0
   36.6550   24.7450   41.2100 O   0  0  0  0  0  0  0  0  0  0  0  0
   37.0640   26.5200   39.7220 N   0  0  0  0  0  0  0  0  0  0  0  0
   37.7390   27.3090   39.4720 H   0  0  0  0  0  0  0  0  0  0  0  0
   38.5870   25.9920   41.6100 C   0  0  0  0  0  3  0  0  0  0  0  0
   38.9390   24.8100   42.4360 C   0  0  0  0  0  3  0  0  0  0  0  0
   38.9550   23.8620   41.8780 H   0  0  0  0  0  0  0  0  0  0  0  0
   40.3100   25.1080   43.0570 C   0  0  0  0  0  3  0  0  0  0  0  0
   40.5290   24.4720   43.9230 H   0  0  0  0  0  0  0  0  0  0  0  0
   40.4390   26.4620   43.3140 O   0  0  0  0  0  0  0  0  0  0  0  0
   39.2430   27.0740   43.6800 C   0  0  0  0  0  3  0  0  0  0  0  0
   38.7060   26.5290   44.4790 H   0  0  0  0  0  0  0  0  0  0  0  0
   38.2860   27.1710   42.5120 C   0  0  0  0  0  3  0  0  0  0  0  0
   37.2190   27.0890   42.8060 H   0  0  0  0  0  0  0  0  0  0  0  0
  1  6  1  0  0  0  0
  1 13  1  0  0  0  0
  2  1  2  0  0  0  0
  3  4  2  0  0  0  0
  3  2  1  0  0  0  0
  4  5  1  0  0  0  0
  5 10  1  0  0  0  0
  5  6  2  0  0  0  0
  6 25  1  0  0  0  0
  7  2  1  0  0  0  0
  8  3  1  0  0  0  0
  9  4  1  0  0  0  0
 11 16  1  0  0  0  0
 12 13  1  0  0  0  0
 12 11  2  0  0  0  0
 13 14  2  0  0  0  0
 14 15  1  0  0  0  0
 15 18  1  0  0  0  0
 16 15  2  0  0  0  0
 17 12  1  0  0  0  0
 19 21  1  0  0  0  0
 19 22  1  0  0  0  0
 19 11  1  0  0  0  0
 20 19  1  0  0  0  0
 23 24  2  0  0  0  0
 23 27  1  0  0  0  0
 25 23  1  0  0  0  0
 26 25  1  0  0  0  0
 27 28  1  0  0  0  0
 27 35  1  0  0  0  0
 28 30  1  0  0  0  0
 29 28  1  0  0  0  0
 30 32  1  0  0  0  0
 30 31  1  0  0  0  0
 32 33  1  0  0  0  0
 33 34  1  0  0  0  0
 35 36  1  0  0  0  0
 35 33  1  0  0  0  0
M  END
>  <minimizedAffinity>
-5.75263882

$$$$

 OpenBabel03252502293D

 36 38  0  0  0  0  0  0  0  0999 V2000
   35.4560   29.1430   38.3440 C   0  0  0  0  0  0  0  0  0  0  0  0
   34.1140   28.7910   38.2190 C   0  0  0  0  0  0  0  0  0  0  0  0
   33.5730   28.6900   36.9410 C   0  0  0  0  0  0  0  0  0  0  0  0
   34.3590   28.9350   35.8410 C   0  0  0  0  0  0  0  0  0  0  0  0
   35.6800   29.2830   35.9500 C   0  0  0  0  0  0  0  0  0  0  0  0
   36.2120   29.3800   37.2390 C   0  0  0  0  0  0  0  0  0  0  0  0
   33.4880   28.5960   39.0770 H   0  0  0  0  0  0  0  0  0  0  0  0
   32.5420   28.4230   36.7500 H   0  0  0  0  0  0  0  0  0  0  0  0
   33.9440   28.8580   34.8430 H   0  0  0  0  0  0  0  0  0  0  0  0
   36.3340   29.4840   35.1080 H   0  0  0  0  0  0  0  0  0  0  0  0
   36.6440   28.3740   41.8410 C   0  0  0  0  0  0  0  0  0  0  0  0
   36.1520   28.1650   40.5460 C   0  0  0  0  0  0  0  0  0  0  0  0
   35.9560   29.2280   39.6970 C   0  0  0  0  0  0  0  0  0  0  0  0
   36.2660   30.4500   40.1980 N   0  0  0  0  0  0  0  0  0  0  0  0
   36.7390   30.6550   41.4440 C   0  0  0  0  0  0  0  0  0  0  0  0
   36.9310   29.6050   42.2770 N   0  0  0  0  0  0  0  0  0  0  0  0
   35.9130   27.1780   40.1740 H   0  0  0  0  0  0  0  0  0  0  0  0
   36.9380   31.6790   41.6920 H   0  0  0  0  0  0  0  0  0  0  0  0
   36.8520   27.2260   42.7510 C   0  0  0  0  0  0  0  0  0  0  0  0
   35.8050   27.2320   43.6800 F   0  0  0  0  0  0  0  0  0  0  0  0
   37.9890   27.5200   43.5100 F   0  0  0  0  0  0  0  0  0  0  0  0
   36.9430   26.0260   42.1190 F   0  0  0  0  0  0  0  0  0  0  0  0
   38.3130   30.9060   37.3890 C   0  0  0  0  0  0  0  0  0  0  0  0
   37.9010   32.0020   37.0370 O   0  0  0  0  0  0  0  0  0  0  0  0
   37.5570   29.7200   37.4900 N   0  0  0  0  0  0  0  0  0  0  0  0
   38.0220   28.8190   37.8230 H   0  0  0  0  0  0  0  0  0  0  0  0
   39.7730   30.8080   37.7540 C   0  0  0  0  0  3  0  0  0  0  0  0
   39.8870   30.4230   39.1830 C   0  0  0  0  0  3  0  0  0  0  0  0
   39.2750   29.5530   39.4630 H   0  0  0  0  0  0  0  0  0  0  0  0
   41.3760   30.1560   39.4430 C   0  0  0  0  0  3  0  0  0  0  0  0
   41.6290   30.1780   40.5090 H   0  0  0  0  0  0  0  0  0  0  0  0
   42.1580   30.9930   38.6660 O   0  0  0  0  0  0  0  0  0  0  0  0
   41.5920   32.2480   38.4600 C   0  0  0  0  0  3  0  0  0  0  0  0
   41.2440   32.7240   39.3970 H   0  0  0  0  0  0  0  0  0  0  0  0
   40.3890   32.1750   37.5460 C   0  0  0  0  0  3  0  0  0  0  0  0
   39.6050   32.9230   37.7850 H   0  0  0  0  0  0  0  0  0  0  0  0
  1 13  1  0  0  0  0
  2  1  1  0  0  0  0
  2  7  1  0  0  0  0
  3  2  2  0  0  0  0
  4  5  2  0  0  0  0
  4  3  1  0  0  0  0
  5  6  1  0  0  0  0
  6 25  1  0  0  0  0
  6  1  2  0  0  0  0
  8  3  1  0  0  0  0
  9  4  1  0  0  0  0
 10  5  1  0  0  0  0
 11 16  1  0  0  0  0
 11 19  1  0  0  0  0
 12 11  2  0  0  0  0
 13 14  2  0  0  0  0
 13 12  1  0  0  0  0
 14 15  1  0  0  0  0
 15 18  1  0  0  0  0
 15 16  2  0  0  0  0
 17 12  1  0  0  0  0
 19 21  1  0  0  0  0
 19 20  1  0  0  0  0
 22 19  1  0  0  0  0
 23 25  1  0  0  0  0
 23 27  1  0  0  0  0
 24 23  2  0  0  0  0
 25 26  1  0  0  0  0
 27 28  1  0  0  0  0
 28 30  1  0  0  0  0
 28 29  1  0  0  0  0
 30 31  1  0  0  0  0
 32 30  1  0  0  0  0
 33 32  1  0  0  0  0
 33 34  1  0  0  0  0
 35 27  1  0  0  0  0
 35 36  1  0  0  0  0
 35 33  1  0  0  0  0
M  END
>  <minimizedAffinity>
-5.72843552

$$$$

 OpenBabel03252502293D

 36 38  0  0  0  0  0  0  0  0999 V2000
   36.5110   29.3480   37.1180 C   0  0  0  0  0  0  0  0  0  0  0  0
   36.2400   29.6280   35.7810 C   0  0  0  0  0  0  0  0  0  0  0  0
   35.2860   28.8570   35.1230 C   0  0  0  0  0  0  0  0  0  0  0  0
   34.6390   27.8470   35.7930 C   0  0  0  0  0  0  0  0  0  0  0  0
   34.8970   27.5600   37.1080 C   0  0  0  0  0  0  0  0  0  0  0  0
   35.8560   28.3430   37.7580 C   0  0  0  0  0  0  0  0  0  0  0  0
   36.7430   30.4210   35.2460 H   0  0  0  0  0  0  0  0  0  0  0  0
   35.0130   29.0040   34.0870 H   0  0  0  0  0  0  0  0  0  0  0  0
   33.8960   27.2430   35.2870 H   0  0  0  0  0  0  0  0  0  0  0  0
   34.4080   26.7730   37.6720 H   0  0  0  0  0  0  0  0  0  0  0  0
   38.3130   32.0840   38.9890 C   0  0  0  0  0  0  0  0  0  0  0  0
   37.2590   31.3530   38.4250 C   0  0  0  0  0  0  0  0  0  0  0  0
   37.5080   30.1870   37.7420 C   0  0  0  0  0  0  0  0  0  0  0  0
   38.8110   29.8140   37.6630 N   0  0  0  0  0  0  0  0  0  0  0  0
   39.8280   30.5140   38.2050 C   0  0  0  0  0  0  0  0  0  0  0  0
   39.5780   31.6640   38.8770 N   0  0  0  0  0  0  0  0  0  0  0  0
   36.2300   31.6760   38.5040 H   0  0  0  0  0  0  0  0  0  0  0  0
   40.8010   30.0890   38.0580 H   0  0  0  0  0  0  0  0  0  0  0  0
   38.0390   33.3400   39.7220 C   0  0  0  0  0  0  0  0  0  0  0  0
   39.1640   34.1600   39.5820 F   0  0  0  0  0  0  0  0  0  0  0  0
   38.0180   33.0110   41.0820 F   0  0  0  0  0  0  0  0  0  0  0  0
   36.9090   33.9800   39.3220 F   0  0  0  0  0  0  0  0  0  0  0  0
   35.6640   28.5760   40.3420 C   0  0  0  0  0  0  0  0  0  0  0  0
   34.6540   29.2470   40.4980 O   0  0  0  0  0  0  0  0  0  0  0  0
   36.2090   28.1580   39.1100 N   0  0  0  0  0  0  0  0  0  0  0  0
   37.0930   27.5610   39.0950 H   0  0  0  0  0  0  0  0  0  0  0  0
   36.4020   28.1490   41.5850 C   0  0  0  0  0  3  0  0  0  0  0  0
   37.3080   29.2460   42.0090 C   0  0  0  0  0  3  0  0  0  0  0  0
   36.8220   30.2310   42.0680 H   0  0  0  0  0  0  0  0  0  0  0  0
   37.8840   28.8320   43.3690 C   0  0  0  0  0  3  0  0  0  0  0  0
   38.7910   29.3890   43.6310 H   0  0  0  0  0  0  0  0  0  0  0  0
   38.0370   27.4570   43.4300 O   0  0  0  0  0  0  0  0  0  0  0  0
   38.3750   26.8820   42.2070 C   0  0  0  0  0  3  0  0  0  0  0  0
   39.2210   27.3930   41.7090 H   0  0  0  0  0  0  0  0  0  0  0  0
   37.2180   26.9230   41.2330 C   0  0  0  0  0  3  0  0  0  0  0  0
   37.5340   27.0380   40.1750 H   0  0  0  0  0  0  0  0  0  0  0  0
  1 13  1  0  0  0  0
  1  6  1  0  0  0  0
  2  1  2  0  0  0  0
  3  2  1  0  0  0  0
  3  4  2  0  0  0  0
  4  5  1  0  0  0  0
  5 10  1  0  0  0  0
  5  6  2  0  0  0  0
  6 25  1  0  0  0  0
  7  2  1  0  0  0  0
  8  3  1  0  0  0  0
  9  4  1  0  0  0  0
 11 19  1  0  0  0  0
 12 17  1  0  0  0  0
 12 11  2  0  0  0  0
 13 12  1  0  0  0  0
 14 13  2  0  0  0  0
 14 15  1  0  0  0  0
 15 16  2  0  0  0  0
 16 11  1  0  0  0  0
 18 15  1  0  0  0  0
 19 21  1  0  0  0  0
 20 19  1  0  0  0  0
 22 19  1  0  0  0  0
 23 24  2  0  0  0  0
 23 27  1  0  0  0  0
 25 23  1  0  0  0  0
 26 25  1  0  0  0  0
 27 28  1  0  0  0  0
 28 29  1  0  0  0  0
 28 30  1  0  0  0  0
 30 32  1  0  0  0  0
 30 31  1  0  0  0  0
 33 32  1  0  0  0  0
 34 33  1  0  0  0  0
 35 27  1  0  0  0  0
 35 33  1  0  0  0  0
 36 35  1  0  0  0  0
M  END
>  <minimizedAffinity>
-5.72336912

$$$$

 OpenBabel03252502293D

 36 38  0  0  0  0  0  0  0  0999 V2000
   36.1640   27.9170   38.3730 C   0  0  0  0  0  0  0  0  0  0  0  0
   35.3860   26.7940   38.1030 C   0  0  0  0  0  0  0  0  0  0  0  0
   34.4160   26.8830   37.1090 C   0  0  0  0  0  0  0  0  0  0  0  0
   34.2440   28.0610   36.4220 C   0  0  0  0  0  0  0  0  0  0  0  0
   35.0020   29.1740   36.6790 C   0  0  0  0  0  0  0  0  0  0  0  0
   35.9740   29.0700   37.6780 C   0  0  0  0  0  0  0  0  0  0  0  0
   35.5140   25.8630   38.6370 H   0  0  0  0  0  0  0  0  0  0  0  0
   33.7670   26.0620   36.8330 H   0  0  0  0  0  0  0  0  0  0  0  0
   33.4910   28.1370   35.6470 H   0  0  0  0  0  0  0  0  0  0  0  0
   34.8980   30.1200   36.1590 H   0  0  0  0  0  0  0  0  0  0  0  0
   37.9390   27.4970   41.6750 C   0  0  0  0  0  0  0  0  0  0  0  0
   36.8910   27.6500   40.7580 C   0  0  0  0  0  0  0  0  0  0  0  0
   37.1530   27.7560   39.4130 C   0  0  0  0  0  0  0  0  0  0  0  0
   38.4630   27.7000   39.0590 N   0  0  0  0  0  0  0  0  0  0  0  0
   39.4740   27.5530   39.9390 C   0  0  0  0  0  0  0  0  0  0  0  0
   39.2110   27.4500   41.2640 N   0  0  0  0  0  0  0  0  0  0  0  0
   35.8560   27.6910   41.0700 H   0  0  0  0  0  0  0  0  0  0  0  0
   40.4530   27.5260   39.5050 H   0  0  0  0  0  0  0  0  0  0  0  0
   37.6510   27.3850   43.1220 C   0  0  0  0  0  0  0  0  0  0  0  0
   37.8080   28.6580   43.6800 F   0  0  0  0  0  0  0  0  0  0  0  0
   38.6910   26.6330   43.6790 F   0  0  0  0  0  0  0  0  0  0  0  0
   36.4250   26.8700   43.4050 F   0  0  0  0  0  0  0  0  0  0  0  0
   36.8730   31.0470   39.1100 C   0  0  0  0  0  0  0  0  0  0  0  0
   36.1080   31.0860   40.0630 O   0  0  0  0  0  0  0  0  0  0  0  0
   36.8240   30.1360   38.0340 N   0  0  0  0  0  0  0  0  0  0  0  0
   37.5560   30.1880   37.2590 H   0  0  0  0  0  0  0  0  0  0  0  0
   37.9810   32.0680   39.0780 C   0  0  0  0  0  3  0  0  0  0  0  0
   39.1400   31.5470   39.8440 C   0  0  0  0  0  3  0  0  0  0  0  0
   39.4380   30.5250   39.5670 H   0  0  0  0  0  0  0  0  0  0  0  0
   40.2910   32.5370   39.6180 C   0  0  0  0  0  3  0  0  0  0  0  0
   41.0830   32.4430   40.3700 H   0  0  0  0  0  0  0  0  0  0  0  0
   39.8000   33.8240   39.4850 O   0  0  0  0  0  0  0  0  0  0  0  0
   38.6710   34.0710   40.2610 C   0  0  0  0  0  3  0  0  0  0  0  0
   38.7960   33.7600   41.3170 H   0  0  0  0  0  0  0  0  0  0  0  0
   37.4610   33.3280   39.7380 C   0  0  0  0  0  3  0  0  0  0  0  0
   36.7590   33.0080   40.5360 H   0  0  0  0  0  0  0  0  0  0  0  0
  1 13  1  0  0  0  0
  2  1  1  0  0  0  0
  2  7  1  0  0  0  0
  3  2  2  0  0  0  0
  4  5  2  0  0  0  0
  4  3  1  0  0  0  0
  5  6  1  0  0  0  0
  6 25  1  0  0  0  0
  6  1  2  0  0  0  0
  8  3  1  0  0  0  0
  9  4  1  0  0  0  0
 10  5  1  0  0  0  0
 11 19  1  0  0  0  0
 12 17  1  0  0  0  0
 12 11  2  0  0  0  0
 13 12  1  0  0  0  0
 14 13  2  0  0  0  0
 14 15  1  0  0  0  0
 15 16  2  0  0  0  0
 16 11  1  0  0  0  0
 18 15  1  0  0  0  0
 19 22  1  0  0  0  0
 19 21  1  0  0  0  0
 19 20  1  0  0  0  0
 23 24  2  0  0  0  0
 25 23  1  0  0  0  0
 26 25  1  0  0  0  0
 27 23  1  0  0  0  0
 27 35  1  0  0  0  0
 27 28  1  0  0  0  0
 29 28  1  0  0  0  0
 30 28  1  0  0  0  0
 30 31  1  0  0  0  0
 32 30  1  0  0  0  0
 32 33  1  0  0  0  0
 33 34  1  0  0  0  0
 35 33  1  0  0  0  0
 35 36  1  0  0  0  0
M  END
>  <minimizedAffinity>
-5.71903133

$$$$

 OpenBabel03252502293D

 36 38  0  0  0  0  0  0  0  0999 V2000
   37.7220   29.5460   41.6640 C   0  0  0  0  0  0  0  0  0  0  0  0
   38.2610   29.4040   42.9400 C   0  0  0  0  0  0  0  0  0  0  0  0
   37.9610   28.2530   43.6620 C   0  0  0  0  0  0  0  0  0  0  0  0
   37.1490   27.2910   43.1130 C   0  0  0  0  0  0  0  0  0  0  0  0
   36.6110   27.4180   41.8580 C   0  0  0  0  0  0  0  0  0  0  0  0
   36.9220   28.5780   41.1430 C   0  0  0  0  0  0  0  0  0  0  0  0
   38.9010   30.1550   43.3810 H   0  0  0  0  0  0  0  0  0  0  0  0
   38.3350   28.0600   44.6590 H   0  0  0  0  0  0  0  0  0  0  0  0
   36.9110   26.3920   43.6690 H   0  0  0  0  0  0  0  0  0  0  0  0
   35.9680   26.6810   41.3880 H   0  0  0  0  0  0  0  0  0  0  0  0
   39.5600   32.3260   39.8960 C   0  0  0  0  0  0  0  0  0  0  0  0
   39.3410   31.1150   40.5660 C   0  0  0  0  0  0  0  0  0  0  0  0
   38.0760   30.7620   40.9680 C   0  0  0  0  0  0  0  0  0  0  0  0
   37.0920   31.6490   40.6730 N   0  0  0  0  0  0  0  0  0  0  0  0
   37.2990   32.8150   40.0290 C   0  0  0  0  0  0  0  0  0  0  0  0
   38.5480   33.1600   39.6340 N   0  0  0  0  0  0  0  0  0  0  0  0
   40.1460   30.4270   40.7870 H   0  0  0  0  0  0  0  0  0  0  0  0
   36.4200   33.4080   39.8690 H   0  0  0  0  0  0  0  0  0  0  0  0
   40.9260   32.7010   39.4660 C   0  0  0  0  0  0  0  0  0  0  0  0
   41.8200   31.8500   40.1230 F   0  0  0  0  0  0  0  0  0  0  0  0
   41.1830   33.9630   40.0130 F   0  0  0  0  0  0  0  0  0  0  0  0
   41.1120   32.6680   38.1200 F   0  0  0  0  0  0  0  0  0  0  0  0
   35.1710   29.0880   39.2880 C   0  0  0  0  0  0  0  0  0  0  0  0
   34.1160   29.1710   39.9010 O   0  0  0  0  0  0  0  0  0  0  0  0
   36.4420   28.8280   39.8420 N   0  0  0  0  0  0  0  0  0  0  0  0
   37.3000   28.7900   39.2080 H   0  0  0  0  0  0  0  0  0  0  0  0
   35.1140   29.2840   37.7940 C   0  0  0  0  0  3  0  0  0  0  0  0
   34.8080   27.9840   37.1490 C   0  0  0  0  0  3  0  0  0  0  0  0
   33.9450   27.4590   37.5850 H   0  0  0  0  0  0  0  0  0  0  0  0
   34.5770   28.2810   35.6610 C   0  0  0  0  0  3  0  0  0  0  0  0
   34.6610   27.3860   35.0330 H   0  0  0  0  0  0  0  0  0  0  0  0
   35.3830   29.3290   35.2480 O   0  0  0  0  0  0  0  0  0  0  0  0
   36.6170   29.3660   35.8920 C   0  0  0  0  0  3  0  0  0  0  0  0
   37.1370   28.3890   35.8870 H   0  0  0  0  0  0  0  0  0  0  0  0
   36.4770   29.7670   37.3450 C   0  0  0  0  0  3  0  0  0  0  0  0
   37.2250   29.2880   38.0100 H   0  0  0  0  0  0  0  0  0  0  0  0
  1  2  1  0  0  0  0
  2  7  1  0  0  0  0
  2  3  2  0  0  0  0
  3  8  1  0  0  0  0
  4  3  1  0  0  0  0
  4  9  1  0  0  0  0
  5  4  2  0  0  0  0
  6  1  2  0  0  0  0
  6  5  1  0  0  0  0
 10  5  1  0  0  0  0
 11 12  1  0  0  0  0
 12 17  1  0  0  0  0
 12 13  2  0  0  0  0
 13  1  1  0  0  0  0
 14 13  1  0  0  0  0
 15 14  2  0  0  0  0
 16 11  2  0  0  0  0
 16 15  1  0  0  0  0
 18 15  1  0  0  0  0
 19 11  1  0  0  0  0
 19 21  1  0  0  0  0
 19 20  1  0  0  0  0
 22 19  1  0  0  0  0
 23 25  1  0  0  0  0
 23 24  2  0  0  0  0
 25  6  1  0  0  0  0
 26 25  1  0  0  0  0
 27 23  1  0  0  0  0
 28 29  1  0  0  0  0
 28 27  1  0  0  0  0
 30 28  1  0  0  0  0
 31 30  1  0  0  0  0
 32 30  1  0  0  0  0
 32 33  1  0  0  0  0
 33 35  1  0  0  0  0
 34 33  1  0  0  0  0
 35 27  1  0  0  0  0
 35 36  1  0  0  0  0
M  END
>  <minimizedAffinity>
-5.70448971

$$$$

 OpenBabel03252502293D

 36 38  0  0  0  0  0  0  0  0999 V2000
   38.3900   28.6330   41.4290 C   0  0  0  0  0  0  0  0  0  0  0  0
   39.1510   28.5860   42.5940 C   0  0  0  0  0  0  0  0  0  0  0  0
   38.8680   27.5980   43.5320 C   0  0  0  0  0  0  0  0  0  0  0  0
   37.8560   26.6990   43.2960 C   0  0  0  0  0  0  0  0  0  0  0  0
   37.0980   26.7340   42.1540 C   0  0  0  0  0  0  0  0  0  0  0  0
   37.3950   27.7310   41.2200 C   0  0  0  0  0  0  0  0  0  0  0  0
   39.9490   29.2890   42.7890 H   0  0  0  0  0  0  0  0  0  0  0  0
   39.4060   27.4870   44.4630 H   0  0  0  0  0  0  0  0  0  0  0  0
   37.6290   25.9260   44.0220 H   0  0  0  0  0  0  0  0  0  0  0  0
   36.2930   26.0430   41.9300 H   0  0  0  0  0  0  0  0  0  0  0  0
   38.9860   31.9540   39.7420 C   0  0  0  0  0  0  0  0  0  0  0  0
   38.6140   31.0300   40.7270 C   0  0  0  0  0  0  0  0  0  0  0  0
   38.7380   29.6810   40.4970 C   0  0  0  0  0  0  0  0  0  0  0  0
   39.2340   29.3300   39.2830 N   0  0  0  0  0  0  0  0  0  0  0  0
   39.5930   30.2170   38.3330 C   0  0  0  0  0  0  0  0  0  0  0  0
   39.4680   31.5460   38.5630 N   0  0  0  0  0  0  0  0  0  0  0  0
   38.2220   31.3390   41.6860 H   0  0  0  0  0  0  0  0  0  0  0  0
   39.9670   29.7840   37.4270 H   0  0  0  0  0  0  0  0  0  0  0  0
   38.8490   33.4060   39.9940 C   0  0  0  0  0  0  0  0  0  0  0  0
   38.7800   33.5850   41.3800 F   0  0  0  0  0  0  0  0  0  0  0  0
   37.5790   33.7720   39.5340 F   0  0  0  0  0  0  0  0  0  0  0  0
   39.8390   34.1600   39.4480 F   0  0  0  0  0  0  0  0  0  0  0  0
   35.5240   28.5460   39.6060 C   0  0  0  0  0  0  0  0  0  0  0  0
   34.8040   29.2300   40.3190 O   0  0  0  0  0  0  0  0  0  0  0  0
   36.6980   27.8730   40.0030 N   0  0  0  0  0  0  0  0  0  0  0  0
   37.2580   27.3110   39.2870 H   0  0  0  0  0  0  0  0  0  0  0  0
   35.1240   28.4060   38.1590 C   0  0  0  0  0  3  0  0  0  0  0  0
   35.9090   29.3680   37.3470 C   0  0  0  0  0  3  0  0  0  0  0  0
   36.9920   29.3360   37.5380 H   0  0  0  0  0  0  0  0  0  0  0  0
   35.5990   29.0510   35.8780 C   0  0  0  0  0  3  0  0  0  0  0  0
   35.8560   29.8760   35.2040 H   0  0  0  0  0  0  0  0  0  0  0  0
   34.2940   28.6090   35.7450 O   0  0  0  0  0  0  0  0  0  0  0  0
   33.4120   29.2100   36.6400 C   0  0  0  0  0  3  0  0  0  0  0  0
   33.4990   30.3130   36.6570 H   0  0  0  0  0  0  0  0  0  0  0  0
   33.6510   28.7410   38.0590 C   0  0  0  0  0  3  0  0  0  0  0  0
   33.4430   29.5190   38.8230 H   0  0  0  0  0  0  0  0  0  0  0  0
  1  2  1  0  0  0  0
  2  7  1  0  0  0  0
  2  3  2  0  0  0  0
  3  8  1  0  0  0  0
  4  3  1  0  0  0  0
  4  9  1  0  0  0  0
  5  4  2  0  0  0  0
  6  1  2  0  0  0  0
  6  5  1  0  0  0  0
 10  5  1  0  0  0  0
 11 19  1  0  0  0  0
 11 12  1  0  0  0  0
 12 17  1  0  0  0  0
 13 12  2  0  0  0  0
 13  1  1  0  0  0  0
 14 13  1  0  0  0  0
 15 16  1  0  0  0  0
 15 14  2  0  0  0  0
 16 11  2  0  0  0  0
 18 15  1  0  0  0  0
 19 20  1  0  0  0  0
 21 19  1  0  0  0  0
 22 19  1  0  0  0  0
 23 25  1  0  0  0  0
 23 24  2  0  0  0  0
 25  6  1  0  0  0  0
 26 25  1  0  0  0  0
 27 23  1  0  0  0  0
 28 29  1  0  0  0  0
 28 27  1  0  0  0  0
 30 28  1  0  0  0  0
 31 30  1  0  0  0  0
 32 30  1  0  0  0  0
 32 33  1  0  0  0  0
 33 34  1  0  0  0  0
 33 35  1  0  0  0  0
 35 27  1  0  0  0  0
 35 36  1  0  0  0  0
M  END
>  <minimizedAffinity>
-5.62203836

$$$$

 OpenBabel03252502293D

 36 38  0  0  0  0  0  0  0  0999 V2000
   36.8080   28.6570   39.8870 C   0  0  0  0  0  0  0  0  0  0  0  0
   35.8030   27.9620   39.2190 C   0  0  0  0  0  0  0  0  0  0  0  0
   35.3170   28.4860   38.0250 C   0  0  0  0  0  0  0  0  0  0  0  0
   35.8280   29.6620   37.5330 C   0  0  0  0  0  0  0  0  0  0  0  0
   36.8170   30.3570   38.1800 C   0  0  0  0  0  0  0  0  0  0  0  0
   37.2970   29.8190   39.3780 C   0  0  0  0  0  0  0  0  0  0  0  0
   35.3940   27.0370   39.5980 H   0  0  0  0  0  0  0  0  0  0  0  0
   34.5380   28.0140   37.4410 H   0  0  0  0  0  0  0  0  0  0  0  0
   35.4540   30.0760   36.6030 H   0  0  0  0  0  0  0  0  0  0  0  0
   37.2470   31.2870   37.8250 H   0  0  0  0  0  0  0  0  0  0  0  0
   38.3280   26.3780   42.4800 C   0  0  0  0  0  0  0  0  0  0  0  0
   37.9280   26.8570   41.2260 C   0  0  0  0  0  0  0  0  0  0  0  0
   37.2700   28.0580   41.1180 C   0  0  0  0  0  0  0  0  0  0  0  0
   37.0470   28.7180   42.2830 N   0  0  0  0  0  0  0  0  0  0  0  0
   37.4300   28.2600   43.4920 C   0  0  0  0  0  0  0  0  0  0  0  0
   38.0790   27.0750   43.5940 N   0  0  0  0  0  0  0  0  0  0  0  0
   38.1200   26.3090   40.3130 H   0  0  0  0  0  0  0  0  0  0  0  0
   37.1820   28.8960   44.3180 H   0  0  0  0  0  0  0  0  0  0  0  0
   39.0360   25.0830   42.5910 C   0  0  0  0  0  0  0  0  0  0  0  0
   39.7570   24.8990   41.4060 F   0  0  0  0  0  0  0  0  0  0  0  0
   38.0550   24.0870   42.5570 F   0  0  0  0  0  0  0  0  0  0  0  0
   39.8440   24.9840   43.6800 F   0  0  0  0  0  0  0  0  0  0  0  0
   38.4940   31.7030   40.7140 C   0  0  0  0  0  0  0  0  0  0  0  0
   37.7010   32.6320   40.6780 O   0  0  0  0  0  0  0  0  0  0  0  0
   38.3170   30.4280   40.1370 N   0  0  0  0  0  0  0  0  0  0  0  0
   39.0760   29.6850   40.2430 H   0  0  0  0  0  0  0  0  0  0  0  0
   39.7900   31.9350   41.4490 C   0  0  0  0  0  3  0  0  0  0  0  0
   40.9040   31.9490   40.4690 C   0  0  0  0  0  3  0  0  0  0  0  0
   40.7330   32.6060   39.6040 H   0  0  0  0  0  0  0  0  0  0  0  0
   42.1590   32.3730   41.2440 C   0  0  0  0  0  3  0  0  0  0  0  0
   43.0870   32.1150   40.7200 H   0  0  0  0  0  0  0  0  0  0  0  0
   42.1040   31.9030   42.5450 O   0  0  0  0  0  0  0  0  0  0  0  0
   41.4670   30.6710   42.6630 C   0  0  0  0  0  3  0  0  0  0  0  0
   41.8450   29.9180   41.9440 H   0  0  0  0  0  0  0  0  0  0  0  0
   39.9790   30.7860   42.4170 C   0  0  0  0  0  3  0  0  0  0  0  0
   39.5380   29.8860   41.9400 H   0  0  0  0  0  0  0  0  0  0  0  0
  1 13  1  0  0  0  0
  2  7  1  0  0  0  0
  2  1  2  0  0  0  0
  3  2  1  0  0  0  0
  4  3  2  0  0  0  0
  4  5  1  0  0  0  0
  5  6  2  0  0  0  0
  6  1  1  0  0  0  0
  6 25  1  0  0  0  0
  8  3  1  0  0  0  0
  9  4  1  0  0  0  0
 10  5  1  0  0  0  0
 11 19  1  0  0  0  0
 11 16  1  0  0  0  0
 12 11  2  0  0  0  0
 13 12  1  0  0  0  0
 13 14  2  0  0  0  0
 14 15  1  0  0  0  0
 15 16  2  0  0  0  0
 15 18  1  0  0  0  0
 17 12  1  0  0  0  0
 19 22  1  0  0  0  0
 20 19  1  0  0  0  0
 21 19  1  0  0  0  0
 23 27  1  0  0  0  0
 24 23  2  0  0  0  0
 25 26  1  0  0  0  0
 25 23  1  0  0  0  0
 27 35  1  0  0  0  0
 28 30  1  0  0  0  0
 28 27  1  0  0  0  0
 29 28  1  0  0  0  0
 30 32  1  0  0  0  0
 31 30  1  0  0  0  0
 32 33  1  0  0  0  0
 34 33  1  0  0  0  0
 35 33  1  0  0  0  0
 36 35  1  0  0  0  0
M  END
>  <minimizedAffinity>
-5.60842657

$$$$

 OpenBabel03252502293D

 36 38  0  0  0  0  0  0  0  0999 V2000
   36.9410   26.5020   39.8520 C   0  0  0  0  0  0  0  0  0  0  0  0
   36.7630   25.1260   39.7370 C   0  0  0  0  0  0  0  0  0  0  0  0
   36.7490   24.3610   40.9000 C   0  0  0  0  0  0  0  0  0  0  0  0
   36.9090   24.9670   42.1220 C   0  0  0  0  0  0  0  0  0  0  0  0
   37.0850   26.3210   42.2490 C   0  0  0  0  0  0  0  0  0  0  0  0
   37.0960   27.0780   41.0740 C   0  0  0  0  0  0  0  0  0  0  0  0
   36.6370   24.6400   38.7810 H   0  0  0  0  0  0  0  0  0  0  0  0
   36.6180   23.2870   40.9050 H   0  0  0  0  0  0  0  0  0  0  0  0
   36.8990   24.3780   43.0310 H   0  0  0  0  0  0  0  0  0  0  0  0
   37.2140   26.8370   43.1940 H   0  0  0  0  0  0  0  0  0  0  0  0
   35.9600   28.2870   36.6770 C   0  0  0  0  0  0  0  0  0  0  0  0
   35.8310   27.5690   37.8720 C   0  0  0  0  0  0  0  0  0  0  0  0
   36.9430   27.2370   38.6080 C   0  0  0  0  0  0  0  0  0  0  0  0
   38.1330   27.6480   38.1000 N   0  0  0  0  0  0  0  0  0  0  0  0
   38.2610   28.3400   36.9490 C   0  0  0  0  0  0  0  0  0  0  0  0
   37.1620   28.6640   36.2270 N   0  0  0  0  0  0  0  0  0  0  0  0
   34.8690   27.2540   38.2530 H   0  0  0  0  0  0  0  0  0  0  0  0
   39.2670   28.5930   36.6810 H   0  0  0  0  0  0  0  0  0  0  0  0
   34.7590   28.6410   35.8880 C   0  0  0  0  0  0  0  0  0  0  0  0
   33.8870   29.3280   36.7390 F   0  0  0  0  0  0  0  0  0  0  0  0
   34.0960   27.4400   35.6100 F   0  0  0  0  0  0  0  0  0  0  0  0
   35.0240   29.3620   34.7670 F   0  0  0  0  0  0  0  0  0  0  0  0
   36.3890   29.5760   40.9170 C   0  0  0  0  0  0  0  0  0  0  0  0
   35.1770   29.5250   40.7630 O   0  0  0  0  0  0  0  0  0  0  0  0
   37.2610   28.4770   41.0650 N   0  0  0  0  0  0  0  0  0  0  0  0
   38.3060   28.6430   41.2070 H   0  0  0  0  0  0  0  0  0  0  0  0
   37.0180   30.9460   40.9540 C   0  0  0  0  0  3  0  0  0  0  0  0
   36.9470   31.5470   39.6000 C   0  0  0  0  0  3  0  0  0  0  0  0
   35.9470   31.5040   39.1420 H   0  0  0  0  0  0  0  0  0  0  0  0
   37.4260   32.9970   39.7420 C   0  0  0  0  0  3  0  0  0  0  0  0
   37.7220   33.4410   38.7840 H   0  0  0  0  0  0  0  0  0  0  0  0
   38.3990   33.0900   40.7230 O   0  0  0  0  0  0  0  0  0  0  0  0
   39.2150   31.9640   40.8020 C   0  0  0  0  0  3  0  0  0  0  0  0
   39.6160   31.6510   39.8190 H   0  0  0  0  0  0  0  0  0  0  0  0
   38.4670   30.7710   41.3570 C   0  0  0  0  0  3  0  0  0  0  0  0
   38.8060   29.8020   40.9360 H   0  0  0  0  0  0  0  0  0  0  0  0
  1  6  1  0  0  0  0
  2  1  2  0  0  0  0
  2  3  1  0  0  0  0
  3  8  1  0  0  0  0
  3  4  2  0  0  0  0
  4  5  1  0  0  0  0
  4  9  1  0  0  0  0
  5 10  1  0  0  0  0
  6  5  2  0  0  0  0
  7  2  1  0  0  0  0
 11 12  1  0  0  0  0
 12 17  1  0  0  0  0
 12 13  2  0  0  0  0
 13  1  1  0  0  0  0
 14 13  1  0  0  0  0
 15 14  2  0  0  0  0
 16 11  2  0  0  0  0
 16 15  1  0  0  0  0
 18 15  1  0  0  0  0
 19 11  1  0  0  0  0
 19 20  1  0  0  0  0
 21 19  1  0  0  0  0
 22 19  1  0  0  0  0
 23 27  1  0  0  0  0
 23 25  1  0  0  0  0
 24 23  2  0  0  0  0
 25  6  1  0  0  0  0
 25 26  1  0  0  0  0
 27 35  1  0  0  0  0
 28 30  1  0  0  0  0
 28 27  1  0  0  0  0
 29 28  1  0  0  0  0
 30 32  1  0  0  0  0
 31 30  1  0  0  0  0
 32 33  1  0  0  0  0
 33 35  1  0  0  0  0
 34 33  1  0  0  0  0
 36 35  1  0  0  0  0
M  END
>  <minimizedAffinity>
-5.46586132

$$$$
