
 OpenBabel03242523543D

 46 49  0  0  1  0  0  0  0  0999 V2000
   42.8000   34.3630   38.9160 C   0  0  1  0  0  0  0  0  0  0  0  0
   43.0430   35.1900   40.1710 C   0  0  1  0  0  0  0  0  0  0  0  0
   41.7910   35.6230   40.6570 O   0  0  0  0  0  0  0  0  0  0  0  0
   40.8980   35.9350   39.6280 C   0  0  0  0  0  0  0  0  0  0  0  0
   40.4450   34.7000   38.8780 C   0  0  2  0  0  0  0  0  0  0  0  0
   41.5330   33.6030   39.1480 C   0  0  1  0  0  0  0  0  0  0  0  0
   43.6540   33.6640   38.7440 H   0  0  0  0  0  0  0  0  0  0  0  0
   43.7330   36.0240   40.0230 H   0  0  0  0  0  0  0  0  0  0  0  0
   41.2910   36.7250   38.9440 H   0  0  0  0  0  0  0  0  0  0  0  0
   40.0360   36.4120   40.1390 H   0  0  0  0  0  0  0  0  0  0  0  0
   39.4660   34.3260   39.2220 H   0  0  0  0  0  0  0  0  0  0  0  0
   41.2930   33.4940   40.2530 H   0  0  0  0  0  0  0  0  0  0  0  0
   42.6840   35.1900   37.7910 O   0  0  0  0  0  0  0  0  0  0  0  0
   42.9820   34.7210   36.9760 H   0  0  0  0  0  0  0  0  0  0  0  0
   40.4890   34.9420   37.5140 O   0  0  0  0  0  0  0  0  0  0  0  0
   40.4600   34.1060   36.9820 H   0  0  0  0  0  0  0  0  0  0  0  0
   43.4690   34.2560   41.1390 O   0  0  0  0  0  0  0  0  0  0  0  0
   44.6060   34.3540   41.8350 C   0  0  0  0  0  0  0  0  0  0  0  0
   45.8450   34.4820   41.1890 C   0  0  0  0  0  0  0  0  0  0  0  0
   46.9880   34.5800   41.9630 C   0  0  0  0  0  0  0  0  0  0  0  0
   46.8800   34.5490   43.3440 N   0  0  0  0  0  0  0  0  0  0  0  0
   45.6680   34.4240   43.9300 C   0  0  0  0  0  0  0  0  0  0  0  0
   44.5410   34.3260   43.1840 N   0  0  0  0  0  0  0  0  0  0  0  0
   45.9160   34.5050   40.1200 H   0  0  0  0  0  0  0  0  0  0  0  0
   45.6020   34.4000   45.0120 H   0  0  0  0  0  0  0  0  0  0  0  0
   48.3450   34.6980   41.3440 C   0  0  0  0  0  0  0  0  0  0  0  0
   49.0690   36.0330   41.5240 C   0  0  0  0  0  0  0  0  0  0  0  0
   49.5240   34.7020   42.1500 C   0  0  0  0  0  0  0  0  0  0  0  0
   48.3630   34.2730   40.3070 H   0  0  0  0  0  0  0  0  0  0  0  0
   48.5280   36.7610   42.1440 H   0  0  0  0  0  0  0  0  0  0  0  0
   49.5950   36.3920   40.6410 H   0  0  0  0  0  0  0  0  0  0  0  0
   50.4640   34.3380   41.7380 H   0  0  0  0  0  0  0  0  0  0  0  0
   49.4080   34.7220   43.2650 H   0  0  0  0  0  0  0  0  0  0  0  0
   41.2840   32.5750   38.3160 O   0  0  0  0  0  0  0  0  0  0  0  0
   40.3770   31.5860   38.4270 C   0  0  0  0  0  0  0  0  0  0  0  0
   39.8410   31.0140   37.3800 O   0  0  0  0  0  0  0  0  0  0  0  0
   39.5520   30.6760   39.2630 C   0  0  0  0  0  3  0  0  0  0  0  0
   40.3660   29.8940   40.2520 C   0  0  0  0  0  3  0  0  0  0  0  0
   40.7270   30.5260   41.0890 H   0  0  0  0  0  0  0  0  0  0  0  0
   39.4030   28.8690   40.8230 C   0  0  0  0  0  3  0  0  0  0  0  0
   39.0560   28.2760   39.9300 H   0  0  0  0  0  0  0  0  0  0  0  0
   38.3670   29.4950   41.4750 O   0  0  0  0  0  0  0  0  0  0  0  0
   37.6150   30.3180   40.6550 C   0  0  0  0  0  3  0  0  0  0  0  0
   37.2820   29.7150   39.7700 H   0  0  0  0  0  0  0  0  0  0  0  0
   38.4970   31.4100   40.0560 C   0  0  0  0  0  3  0  0  0  0  0  0
   38.9420   32.0430   40.8470 H   0  0  0  0  0  0  0  0  0  0  0  0
  1  7  1  6  0  0  0
  1  6  1  0  0  0  0
  1  2  1  0  0  0  0
  2  8  1  6  0  0  0
  2  3  1  0  0  0  0
  2 17  1  0  0  0  0
  4 10  1  0  0  0  0
  4  3  1  0  0  0  0
  5  6  1  0  0  0  0
  5 11  1  1  0  0  0
  5  4  1  0  0  0  0
  6 12  1  1  0  0  0
  9  4  1  0  0  0  0
 13  1  1  0  0  0  0
 14 13  1  0  0  0  0
 15  5  1  0  0  0  0
 16 15  1  0  0  0  0
 17 18  1  0  0  0  0
 18 23  1  0  0  0  0
 19 18  2  0  0  0  0
 19 20  1  0  0  0  0
 20 21  2  0  0  0  0
 21 22  1  0  0  0  0
 22 25  1  0  0  0  0
 23 22  2  0  0  0  0
 24 19  1  0  0  0  0
 26 27  1  0  0  0  0
 26 20  1  0  0  0  0
 26 28  1  0  0  0  0
 27 30  1  0  0  0  0
 27 28  1  0  0  0  0
 28 33  1  0  0  0  0
 29 26  1  0  0  0  0
 31 27  1  0  0  0  0
 32 28  1  0  0  0  0
 34 35  1  0  0  0  0
 34  6  1  0  0  0  0
 35 37  1  0  0  0  0
 36 35  2  0  0  0  0
 37 45  1  0  0  0  0
 37 38  1  0  0  0  0
 38 40  1  0  0  0  0
 38 39  1  0  0  0  0
 40 42  1  0  0  0  0
 41 40  1  0  0  0  0
 43 42  1  0  0  0  0
 44 43  1  0  0  0  0
 45 43  1  0  0  0  0
 45 46  1  0  0  0  0
M  END
>  <minimizedAffinity>
-6.16696978

>  <minimizedRMSD>
1.73053193

$$$$
