REMARK  Name = 
REMARK  3 active torsions:
REMARK  status: ('A' for Active; 'I' for Inactive)
REMARK    1  A    between atoms: C_1  and  C_9
REMARK    2  A    between atoms: C_6  and  N_15
REMARK    3  A    between atoms: C_13  and  C_24
REMARK                            x       y       z     vdW  Elec       q    Type
REMARK                         _______ _______ _______ _____ _____    ______ ____
ROOT
ATOM      1  C   UNL     1      46.689  34.762  41.973  0.00  0.00    +0.000 A 
ATOM      2  C   UNL     1      47.930  35.356  41.888  0.00  0.00    +0.000 A 
ATOM      3  C   UNL     1      48.665  35.206  40.732  0.00  0.00    +0.000 A 
ATOM      4  C   UNL     1      48.152  34.473  39.692  0.00  0.00    +0.000 A 
ATOM      5  C   UNL     1      46.921  33.868  39.739  0.00  0.00    +0.000 A 
ATOM      6  C   UNL     1      46.197  34.039  40.931  0.00  0.00    +0.000 A 
ATOM      7  H   UNL     1      48.336  35.936  42.711  0.00  0.00    +0.000 HD
ATOM      8  H   UNL     1      49.630  35.684  40.703  0.00  0.00    +0.000 HD
ATOM      9  H   UNL     1      48.764  34.382  38.804  0.00  0.00    +0.000 HD
ATOM     10  H   UNL     1      46.497  33.290  38.941  0.00  0.00    +0.000 HD
ENDROOT
BRANCH   1  13
ATOM     11  C   UNL     1      44.509  36.115  44.752  0.00  0.00    +0.000 A 
ATOM     12  C   UNL     1      45.163  36.043  43.506  0.00  0.00    +0.000 A 
ATOM     13  C   UNL     1      45.959  34.956  43.223  0.00  0.00    +0.000 A 
ATOM     14  N   UNL     1      46.068  33.991  44.193  0.00  0.00    +0.000 NA
ATOM     15  C   UNL     1      45.433  34.077  45.383  0.00  0.00    +0.000 A 
ATOM     16  N   UNL     1      44.648  35.149  45.661  0.00  0.00    +0.000 NA
ATOM     17  H   UNL     1      43.918  37.025  44.833  0.00  0.00    +0.000 HD
ATOM     18  H   UNL     1      45.087  36.789  42.739  0.00  0.00    +0.000 HD
ATOM     19  H   UNL     1      45.536  33.309  46.119  0.00  0.00    +0.000 HD
ENDBRANCH   1  13
BRANCH   6  22
ATOM     20  C   UNL     1      43.597  33.861  40.794  0.00  0.00    +0.000 C 
ATOM     21  O   UNL     1      43.238  34.889  40.218  0.00  0.00    +0.000 OA
ATOM     22  N   UNL     1      44.919  33.464  41.112  0.00  0.00    +0.000 N 
ATOM     23  H   UNL     1      45.175  32.564  41.592  0.00  0.00    +0.000 HD
BRANCH  20  24
ATOM     24  C   UNL     1      42.571  32.854  41.246  0.00  0.00    +0.000 C 
ATOM     25  C   UNL     1      41.553  32.639  40.120  0.00  0.00    +0.000 C 
ATOM     26  H   UNL     1      41.062  33.615  39.961  0.00  0.00    +0.000 HD
ATOM     27  C   UNL     1      40.594  31.586  40.631  0.00  0.00    +0.000 C 
ATOM     28  H   UNL     1      39.598  32.089  40.743  0.00  0.00    +0.000 HD
ATOM     29  O   UNL     1      40.908  31.085  41.870  0.00  0.00    +0.000 OA
ATOM     30  C   UNL     1      42.182  30.526  41.925  0.00  0.00    +0.000 C 
ATOM     31  H   UNL     1      42.396  30.338  43.004  0.00  0.00    +0.000 HD
ATOM     32  C   UNL     1      43.235  31.503  41.435  0.00  0.00    +0.000 C 
ATOM     33  H   UNL     1      43.610  31.095  40.470  0.00  0.00    +0.000 HD
ENDBRANCH  20  24
ENDBRANCH   6  22
TORSDOF 3
