
 OpenBabel03242521173D

 39 41  0  0  0  0  0  0  0  0999 V2000
   46.4360   32.9730   46.4980 C   0  0  0  0  0  0  0  0  0  0  0  0
   46.8830   32.1100   45.9960 H   0  0  0  0  0  0  0  0  0  0  0  0
   47.2760   33.5000   47.0310 H   0  0  0  0  0  0  0  0  0  0  0  0
   44.5090   35.6820   44.7800 C   0  0  0  0  0  0  0  0  0  0  0  0
   45.1090   35.6460   43.5100 C   0  0  0  0  0  0  0  0  0  0  0  0
   46.1180   34.7140   43.3200 C   0  0  0  0  0  0  0  0  0  0  0  0
   46.4790   33.8840   44.3630 N   0  0  0  0  0  0  0  0  0  0  0  0
   45.8690   33.9660   45.5500 C   0  0  0  0  0  0  0  0  0  0  0  0
   44.8720   34.8660   45.7880 N   0  0  0  0  0  0  0  0  0  0  0  0
   43.7090   36.4000   44.9730 H   0  0  0  0  0  0  0  0  0  0  0  0
   44.7870   36.3150   42.7360 H   0  0  0  0  0  0  0  0  0  0  0  0
   46.7470   34.6540   42.0380 N   0  0  0  0  0  0  0  0  0  0  0  0
   47.9440   35.2370   41.8830 C   0  0  0  0  0  0  0  0  0  0  0  0
   48.5650   35.1870   40.6490 C   0  0  0  0  0  0  0  0  0  0  0  0
   47.9230   34.5410   39.6380 C   0  0  0  0  0  0  0  0  0  0  0  0
   48.5010   34.4980   38.4970 O   0  0  0  0  0  0  0  0  0  0  0  0
   46.7170   33.9470   39.7680 N   0  0  0  0  0  0  0  0  0  0  0  0
   46.1720   34.0340   40.9960 C   0  0  0  0  0  0  0  0  0  0  0  0
   45.0500   33.5150   41.2330 O   0  0  0  0  0  0  0  0  0  0  0  0
   48.4650   35.7550   42.6870 H   0  0  0  0  0  0  0  0  0  0  0  0
   49.5320   35.6460   40.4850 H   0  0  0  0  0  0  0  0  0  0  0  0
   46.2340   33.4540   38.9830 H   0  0  0  0  0  0  0  0  0  0  0  0
   45.4280   32.5940   47.5540 C   0  0  0  0  0  0  0  0  0  0  0  0
   44.5840   33.3020   47.4930 H   0  0  0  0  0  0  0  0  0  0  0  0
   45.8410   32.6620   48.5760 H   0  0  0  0  0  0  0  0  0  0  0  0
   45.4770   30.1540   47.8470 C   0  0  0  0  0  0  0  0  0  0  0  0
   46.4160   30.3780   48.6580 O   0  0  0  0  0  0  0  0  0  0  0  0
   44.9020   31.2730   47.2400 N   0  0  0  0  0  0  0  0  0  0  0  0
   44.1140   31.1950   46.5730 H   0  0  0  0  0  0  0  0  0  0  0  0
   45.0160   28.7690   47.5620 C   0  0  0  0  0  0  0  0  0  0  0  0
   44.1740   28.6990   46.3050 C   0  0  0  0  0  0  0  0  0  0  0  0
   44.8570   28.8010   45.4210 H   0  0  0  0  0  0  0  0  0  0  0  0
   43.6240   27.2810   46.2330 C   0  0  0  0  0  0  0  0  0  0  0  0
   42.9000   27.1560   45.4220 H   0  0  0  0  0  0  0  0  0  0  0  0
   44.7490   26.4560   46.0200 O   0  0  0  0  0  0  0  0  0  0  0  0
   45.5380   26.4380   47.1500 C   0  0  0  0  0  0  0  0  0  0  0  0
   46.3820   25.7390   46.9590 H   0  0  0  0  0  0  0  0  0  0  0  0
   46.1450   27.7800   47.4660 C   0  0  0  0  0  0  0  0  0  0  0  0
   46.9370   28.0350   46.7660 H   0  0  0  0  0  0  0  0  0  0  0  0
  1  3  1  0  0  0  0
  1 23  1  0  0  0  0
  2  1  1  0  0  0  0
  4 10  1  0  0  0  0
  4  9  1  0  0  0  0
  5  4  2  0  0  0  0
  6  5  1  0  0  0  0
  6  7  2  0  0  0  0
  7  8  1  0  0  0  0
  8  9  2  0  0  0  0
  8  1  1  0  0  0  0
 11  5  1  0  0  0  0
 12  6  1  0  0  0  0
 13 12  1  0  0  0  0
 13 20  1  0  0  0  0
 14 13  2  0  0  0  0
 15 17  1  0  0  0  0
 15 14  1  0  0  0  0
 16 15  2  0  0  0  0
 17 18  1  0  0  0  0
 18 19  2  0  0  0  0
 18 12  1  0  0  0  0
 21 14  1  0  0  0  0
 22 17  1  0  0  0  0
 23 25  1  0  0  0  0
 24 23  1  0  0  0  0
 26 27  2  0  0  0  0
 28 23  1  0  0  0  0
 28 26  1  0  0  0  0
 29 28  1  0  0  0  0
 30 26  1  0  0  0  0
 31 30  1  0  0  0  0
 32 31  1  0  0  0  0
 33 31  1  0  0  0  0
 34 33  1  0  0  0  0
 35 33  1  0  0  0  0
 35 36  1  0  0  0  0
 36 38  1  0  0  0  0
 37 36  1  0  0  0  0
 38 30  1  0  0  0  0
 39 38  1  0  0  0  0
M  END
>  <minimizedAffinity>
-6.41328382

>  <minimizedRMSD>
1.20818877

$$$$
