
     RDKit          3D

 56 59  0  0  0  0  0  0  0  0999 V2000
   46.3727   32.4601   46.8990 C   0  0  2  0  0  0  0  0  0  0  0  0
   47.0708   32.5485   45.6171 C   0  0  1  0  0  0  0  0  0  0  0  0
   46.8447   31.2066   45.0218 O   0  0  0  0  0  0  0  0  0  0  0  0
   47.3510   30.4629   46.0805 C   0  0  0  0  0  0  0  0  0  0  0  0
   46.3606   31.0131   47.2573 C   0  0  2  0  0  0  0  0  0  0  0  0
   44.9268   35.1488   44.2268 C   0  0  0  0  0  0  0  0  0  0  0  0
   45.5725   35.5160   43.0464 C   0  0  0  0  0  0  0  0  0  0  0  0
   46.7631   34.8575   42.7030 C   0  0  0  0  0  0  0  0  0  0  0  0
   47.2427   33.8955   43.5219 N   0  0  0  0  0  0  0  0  0  0  0  0
   46.6023   33.5522   44.6643 C   0  0  0  0  0  0  0  0  0  0  0  0
   45.4429   34.1734   45.0252 N   0  0  0  0  0  0  0  0  0  0  0  0
   43.7396   35.7697   44.6181 O   0  0  0  0  0  0  0  0  0  0  0  0
   44.9845   32.8511   46.6877 O   0  0  0  0  0  0  0  0  0  0  0  0
   45.2154   30.3819   46.9830 O   0  0  0  0  0  0  0  0  0  0  0  0
   44.9717   29.1058   47.2925 C   0  0  0  0  0  0  0  0  0  0  0  0
   44.8003   28.2132   46.0557 C   0  0  0  0  0  0  0  0  0  0  0  0
   42.4474   28.0730   45.4663 C   0  0  0  0  0  0  0  0  0  0  0  0
   43.5283   27.4932   46.1480 C   0  0  0  0  0  0  0  0  0  0  0  0
   43.2088   26.3375   46.8227 C   0  0  0  0  0  0  0  0  0  0  0  0
   41.9715   25.7638   46.8608 C   0  0  0  0  0  0  0  0  0  0  0  0
   40.9194   26.3567   46.1801 C   0  0  0  0  0  0  0  0  0  0  0  0
   41.1667   27.5476   45.4616 C   0  0  0  0  0  0  0  0  0  0  0  0
   42.4768   29.2250   44.7080 O   0  0  0  0  0  0  0  0  0  0  0  0
   40.0833   28.0260   44.8480 O   0  0  0  0  0  0  0  0  0  0  0  0
   46.8081   33.0933   47.6963 H   0  0  0  0  0  0  0  0  0  0  0  0
   48.1843   32.5619   45.7213 H   0  0  0  0  0  0  0  0  0  0  0  0
   47.1758   29.3904   46.0061 H   0  0  0  0  0  0  0  0  0  0  0  0
   48.3560   30.7850   46.3474 H   0  0  0  0  0  0  0  0  0  0  0  0
   46.9548   30.6453   48.1097 H   0  0  0  0  0  0  0  0  0  0  0  0
   45.1270   36.2947   42.4442 H   0  0  0  0  0  0  0  0  0  0  0  0
   47.2548   35.1474   41.7891 H   0  0  0  0  0  0  0  0  0  0  0  0
   42.9884   35.8424   43.9506 H   0  0  0  0  0  0  0  0  0  0  0  0
   44.6690   33.0465   47.6258 H   0  0  0  0  0  0  0  0  0  0  0  0
   45.2328   28.7049   48.2294 H   0  0  0  0  0  0  0  0  0  0  0  0
   43.7619   29.2460   47.5776 H   0  0  0  0  0  0  0  0  0  0  0  0
   44.8765   28.7755   45.1348 H   0  0  0  0  0  0  0  0  0  0  0  0
   45.6252   27.4722   46.0973 H   0  0  0  0  0  0  0  0  0  0  0  0
   44.0652   25.9186   47.3350 H   0  0  0  0  0  0  0  0  0  0  0  0
   41.8921   24.8507   47.4415 H   0  0  0  0  0  0  0  0  0  0  0  0
   39.9609   25.8715   46.2370 H   0  0  0  0  0  0  0  0  0  0  0  0
   42.9396   30.0427   45.0606 H   0  0  0  0  0  0  0  0  0  0  0  0
   39.6841   29.0450   44.0657 C   0  0  2  0  0  0  0  0  0  0  0  0
   39.8095   28.8140   42.5726 C   0  0  1  0  0  0  0  0  0  0  0  0
   39.4413   27.8467   42.2508 H   0  0  0  0  0  0  0  0  0  0  0  0
   41.2288   28.9659   42.0862 C   0  0  1  0  0  0  0  0  0  0  0  0
   41.9447   28.3414   42.6336 H   0  0  0  0  0  0  0  0  0  0  0  0
   41.5227   30.3366   42.2637 O   0  0  0  0  0  0  0  0  0  0  0  0
   41.7116   30.4908   43.6271 C   0  0  1  0  0  0  0  0  0  0  0  0
   42.5498   29.8681   43.9544 H   0  0  0  0  0  0  0  0  0  0  0  0
   40.4583   30.2970   44.4383 C   0  0  2  0  0  0  0  0  0  0  0  0
   40.7627   30.2511   45.5045 H   0  0  0  0  0  0  0  0  0  0  0  0
   38.6240   29.3091   44.2264 H   0  0  0  0  0  0  0  0  0  0  0  0
   39.2112   29.6013   42.0691 H   0  0  0  0  0  0  0  0  0  0  0  0
   41.2201   28.7421   41.0080 H   0  0  0  0  0  0  0  0  0  0  0  0
   42.0031   31.5622   43.7797 H   0  0  0  0  0  0  0  0  0  0  0  0
   39.8352   31.2082   44.3264 H   0  0  0  0  0  0  0  0  0  0  0  0
  1  5  1  0
  2  1  1  0
  3  2  1  0
  3  4  1  0
  4  5  1  0
  6 12  1  0
  6 11  2  0
  7  6  1  0
  8  7  2  0
  8  9  1  0
  9 10  2  0
 10 11  1  0
 10  2  1  0
 13  1  1  0
 14  5  1  0
 14 15  1  0
 16 18  1  0
 16 15  1  0
 17 22  2  0
 17 18  1  0
 18 19  2  0
 19 20  1  0
 21 20  2  0
 22 21  1  0
 23 17  1  0
 24 22  1  0
  1 25  1  1
  2 26  1  1
  4 27  1  0
  4 28  1  0
  5 29  1  1
  7 30  1  0
  8 31  1  0
 12 32  1  0
 13 33  1  0
 15 34  1  0
 15 35  1  0
 16 36  1  0
 16 37  1  0
 19 38  1  0
 20 39  1  0
 21 40  1  0
 23 41  1  0
 42 43  1  0
 43 44  1  1
 43 45  1  0
 45 46  1  1
 45 47  1  0
 47 48  1  0
 48 49  1  1
 48 50  1  0
 50 51  1  1
 50 42  1  0
 42 52  1  6
 43 53  1  0
 45 54  1  0
 48 55  1  0
 50 56  1  0
 24 42  1  0
M  ISO  8  25  13  26  13  27  13  28  13  29  13  30  14  31  14  32   3
M  ISO  8  33   3  34   8  35   8  36   8  37   8  38  14  39  14  40  14
M  ISO  5  41   3  44  15  46  15  49  15  51  15
M  END
>  <DihAtoms>  (1) 
21,23,41,42

>  <DihDeg>  (1) 
-120.65454045477956

$$$$
