
 OpenBabel03242520133D

 35 37  0  0  0  0  0  0  0  0999 V2000
   39.8960   30.3190   41.9880 C   0  0  0  0  0  0  0  0  0  0  0  0
   41.0710   29.6610   42.1090 C   0  0  0  0  0  0  0  0  0  0  0  0
   41.0630   28.4390   42.7780 C   0  0  0  0  0  0  0  0  0  0  0  0
   39.9040   27.9110   43.3020 C   0  0  0  0  0  0  0  0  0  0  0  0
   38.7150   28.6400   43.1460 C   0  0  0  0  0  0  0  0  0  0  0  0
   38.7570   29.7780   42.5160 N   0  0  0  0  0  0  0  0  0  0  0  0
   41.9670   30.0740   41.7010 H   0  0  0  0  0  0  0  0  0  0  0  0
   41.9770   27.8650   42.9050 H   0  0  0  0  0  0  0  0  0  0  0  0
   39.8600   26.9710   43.8250 H   0  0  0  0  0  0  0  0  0  0  0  0
   38.3590   33.1870   40.3330 C   0  0  0  0  0  0  0  0  0  0  0  0
   39.4750   33.9990   40.0620 C   0  0  0  0  0  0  0  0  0  0  0  0
   40.7680   33.5640   40.4490 C   0  0  0  0  0  0  0  0  0  0  0  0
   40.8060   32.3700   41.0610 N   0  0  0  0  0  0  0  0  0  0  0  0
   39.7490   31.6110   41.3110 C   0  0  0  0  0  0  0  0  0  0  0  0
   38.5330   32.0220   40.9460 N   0  0  0  0  0  0  0  0  0  0  0  0
   37.0860   33.6600   39.9290 N   0  0  0  0  0  0  0  0  0  0  0  0
   39.3560   34.9470   39.5650 H   0  0  0  0  0  0  0  0  0  0  0  0
   41.6430   34.1630   40.2570 H   0  0  0  0  0  0  0  0  0  0  0  0
   36.5900   33.1110   39.1960 H   0  0  0  0  0  0  0  0  0  0  0  0
   36.5520   34.5000   40.2630 H   0  0  0  0  0  0  0  0  0  0  0  0
   37.4520   28.1350   43.6800 C   0  0  0  0  0  3  0  0  0  0  0  0
   36.6720   27.3020   43.0220 C   0  0  0  0  0  3  0  0  0  0  0  0
   37.0180   26.8080   41.6800 C   0  0  0  0  0  0  0  0  0  0  0  0
   38.1230   26.5860   41.6600 H   0  0  0  0  0  0  0  0  0  0  0  0
   36.5350   25.8290   41.5040 H   0  0  0  0  0  0  0  0  0  0  0  0
   36.7680   27.7860   40.5660 C   0  0  0  0  0  3  0  0  0  0  0  0
   35.6080   28.7290   40.9060 C   0  0  0  0  0  3  0  0  0  0  0  0
   34.6600   28.1830   40.6810 H   0  0  0  0  0  0  0  0  0  0  0  0
   35.6750   29.8600   39.9000 C   0  0  0  0  0  3  0  0  0  0  0  0
   36.2500   30.6840   40.4070 H   0  0  0  0  0  0  0  0  0  0  0  0
   36.3980   29.4910   38.7940 O   0  0  0  0  0  0  0  0  0  0  0  0
   36.1120   28.2410   38.2860 C   0  0  0  0  0  3  0  0  0  0  0  0
   35.0810   28.2330   37.8920 H   0  0  0  0  0  0  0  0  0  0  0  0
   36.3600   27.1140   39.2830 C   0  0  0  0  0  3  0  0  0  0  0  0
   37.0640   26.3670   38.9150 H   0  0  0  0  0  0  0  0  0  0  0  0
  1  2  2  0  0  0  0
  1  6  1  0  0  0  0
  2  3  1  0  0  0  0
  3  8  1  0  0  0  0
  3  4  2  0  0  0  0
  4  9  1  0  0  0  0
  5  4  1  0  0  0  0
  5 21  1  0  0  0  0
  6  5  2  0  0  0  0
  7  2  1  0  0  0  0
 10 15  1  0  0  0  0
 11 10  2  0  0  0  0
 11 12  1  0  0  0  0
 12 13  2  0  0  0  0
 13 14  1  0  0  0  0
 14  1  1  0  0  0  0
 15 14  2  0  0  0  0
 16 20  1  0  0  0  0
 16 10  1  0  0  0  0
 17 11  1  0  0  0  0
 18 12  1  0  0  0  0
 19 16  1  0  0  0  0
 22 21  2  0  0  0  0
 23 22  1  0  0  0  0
 24 23  1  0  0  0  0
 25 23  1  0  0  0  0
 26 27  1  0  0  0  0
 26 23  1  0  0  0  0
 28 27  1  0  0  0  0
 29 30  1  0  0  0  0
 29 27  1  0  0  0  0
 31 29  1  0  0  0  0
 32 31  1  0  0  0  0
 32 34  1  0  0  0  0
 33 32  1  0  0  0  0
 34 26  1  0  0  0  0
 35 34  1  0  0  0  0
M  END
>  <minimizedAffinity>
-6.11327219

$$$$

 OpenBabel03242520133D

 35 37  0  0  0  0  0  0  0  0999 V2000
   39.8200   30.2330   41.9860 C   0  0  0  0  0  0  0  0  0  0  0  0
   41.0110   29.6070   42.1150 C   0  0  0  0  0  0  0  0  0  0  0  0
   41.0340   28.3890   42.7910 C   0  0  0  0  0  0  0  0  0  0  0  0
   39.8870   27.8340   43.3140 C   0  0  0  0  0  0  0  0  0  0  0  0
   38.6790   28.5290   43.1490 C   0  0  0  0  0  0  0  0  0  0  0  0
   38.6940   29.6640   42.5120 N   0  0  0  0  0  0  0  0  0  0  0  0
   41.8980   30.0420   41.7080 H   0  0  0  0  0  0  0  0  0  0  0  0
   41.9620   27.8410   42.9250 H   0  0  0  0  0  0  0  0  0  0  0  0
   39.8660   26.8950   43.8410 H   0  0  0  0  0  0  0  0  0  0  0  0
   38.2130   33.0490   40.3090 C   0  0  0  0  0  0  0  0  0  0  0  0
   39.3090   33.8890   40.0370 C   0  0  0  0  0  0  0  0  0  0  0  0
   40.6120   33.4900   40.4290 C   0  0  0  0  0  0  0  0  0  0  0  0
   40.6790   32.3010   41.0480 N   0  0  0  0  0  0  0  0  0  0  0  0
   39.6410   31.5170   41.3010 C   0  0  0  0  0  0  0  0  0  0  0  0
   38.4160   31.8930   40.9300 N   0  0  0  0  0  0  0  0  0  0  0  0
   36.9290   33.4870   39.8990 N   0  0  0  0  0  0  0  0  0  0  0  0
   39.1660   34.8310   39.5330 H   0  0  0  0  0  0  0  0  0  0  0  0
   41.4710   34.1100   40.2350 H   0  0  0  0  0  0  0  0  0  0  0  0
   36.4500   32.9210   39.1690 H   0  0  0  0  0  0  0  0  0  0  0  0
   36.3730   34.3150   40.2270 H   0  0  0  0  0  0  0  0  0  0  0  0
   37.4280   27.9940   43.6800 C   0  0  0  0  0  3  0  0  0  0  0  0
   36.6060   27.2450   42.9740 C   0  0  0  0  0  3  0  0  0  0  0  0
   36.8890   26.8850   41.5750 C   0  0  0  0  0  0  0  0  0  0  0  0
   35.9070   26.7930   41.0300 H   0  0  0  0  0  0  0  0  0  0  0  0
   37.4090   27.7200   41.0700 H   0  0  0  0  0  0  0  0  0  0  0  0
   37.5930   25.5700   41.3940 C   0  0  0  0  0  3  0  0  0  0  0  0
   38.6710   25.6640   40.3070 C   0  0  0  0  0  3  0  0  0  0  0  0
   38.1590   25.5600   39.3210 H   0  0  0  0  0  0  0  0  0  0  0  0
   39.5270   24.4220   40.4550 C   0  0  0  0  0  3  0  0  0  0  0  0
   40.4030   24.7300   41.0900 H   0  0  0  0  0  0  0  0  0  0  0  0
   38.8580   23.4440   41.1450 O   0  0  0  0  0  0  0  0  0  0  0  0
   37.5480   23.2380   40.7650 C   0  0  0  0  0  3  0  0  0  0  0  0
   37.5230   22.8430   39.7350 H   0  0  0  0  0  0  0  0  0  0  0  0
   36.6720   24.4750   40.9330 C   0  0  0  0  0  3  0  0  0  0  0  0
   35.8100   24.3020   41.5790 H   0  0  0  0  0  0  0  0  0  0  0  0
  1  2  2  0  0  0  0
  1  6  1  0  0  0  0
  2  3  1  0  0  0  0
  3  8  1  0  0  0  0
  3  4  2  0  0  0  0
  4  9  1  0  0  0  0
  5  4  1  0  0  0  0
  5 21  1  0  0  0  0
  6  5  2  0  0  0  0
  7  2  1  0  0  0  0
 10 15  1  0  0  0  0
 11 10  2  0  0  0  0
 11 12  1  0  0  0  0
 12 13  2  0  0  0  0
 13 14  1  0  0  0  0
 14  1  1  0  0  0  0
 15 14  2  0  0  0  0
 16 20  1  0  0  0  0
 16 10  1  0  0  0  0
 17 11  1  0  0  0  0
 18 12  1  0  0  0  0
 19 16  1  0  0  0  0
 22 21  2  0  0  0  0
 23 22  1  0  0  0  0
 24 23  1  0  0  0  0
 25 23  1  0  0  0  0
 26 23  1  0  0  0  0
 27 29  1  0  0  0  0
 27 26  1  0  0  0  0
 28 27  1  0  0  0  0
 29 30  1  0  0  0  0
 29 31  1  0  0  0  0
 32 34  1  0  0  0  0
 32 31  1  0  0  0  0
 33 32  1  0  0  0  0
 34 26  1  0  0  0  0
 34 35  1  0  0  0  0
M  END
>  <minimizedAffinity>
-6.08162022

$$$$

 OpenBabel03242520133D

 35 37  0  0  0  0  0  0  0  0999 V2000
   38.4690   30.6650   39.5870 C   0  0  0  0  0  0  0  0  0  0  0  0
   37.2120   31.0240   39.2430 C   0  0  0  0  0  0  0  0  0  0  0  0
   36.2030   30.8350   40.1850 C   0  0  0  0  0  0  0  0  0  0  0  0
   36.4670   30.3000   41.4260 C   0  0  0  0  0  0  0  0  0  0  0  0
   37.7920   29.9450   41.7260 C   0  0  0  0  0  0  0  0  0  0  0  0
   38.7090   30.1350   40.8230 N   0  0  0  0  0  0  0  0  0  0  0  0
   37.0120   31.4390   38.2790 H   0  0  0  0  0  0  0  0  0  0  0  0
   35.1740   31.1050   39.9650 H   0  0  0  0  0  0  0  0  0  0  0  0
   35.7140   30.1390   42.1790 H   0  0  0  0  0  0  0  0  0  0  0  0
   41.0700   32.1930   37.5320 C   0  0  0  0  0  0  0  0  0  0  0  0
   41.7750   31.0670   37.0690 C   0  0  0  0  0  0  0  0  0  0  0  0
   41.3580   29.7700   37.4620 C   0  0  0  0  0  0  0  0  0  0  0  0
   40.2880   29.7390   38.2710 N   0  0  0  0  0  0  0  0  0  0  0  0
   39.6300   30.8050   38.7020 C   0  0  0  0  0  0  0  0  0  0  0  0
   40.0230   32.0250   38.3300 N   0  0  0  0  0  0  0  0  0  0  0  0
   41.5210   33.4710   37.1130 N   0  0  0  0  0  0  0  0  0  0  0  0
   42.6270   31.1820   36.4200 H   0  0  0  0  0  0  0  0  0  0  0  0
   41.8770   28.8880   37.1260 H   0  0  0  0  0  0  0  0  0  0  0  0
   40.8750   34.0240   36.5140 H   0  0  0  0  0  0  0  0  0  0  0  0
   42.4280   33.9560   37.3210 H   0  0  0  0  0  0  0  0  0  0  0  0
   38.1380   29.3720   43.0250 C   0  0  0  0  0  3  0  0  0  0  0  0
   37.8120   28.1480   43.3830 C   0  0  0  0  0  3  0  0  0  0  0  0
   37.0630   27.2490   42.4910 C   0  0  0  0  0  0  0  0  0  0  0  0
   36.1660   26.8620   43.0520 H   0  0  0  0  0  0  0  0  0  0  0  0
   36.6370   27.8250   41.6480 H   0  0  0  0  0  0  0  0  0  0  0  0
   37.8260   26.0360   42.0350 C   0  0  0  0  0  3  0  0  0  0  0  0
   36.9590   24.7730   42.1190 C   0  0  0  0  0  3  0  0  0  0  0  0
   36.9800   24.4260   43.1800 H   0  0  0  0  0  0  0  0  0  0  0  0
   37.6900   23.7080   41.3270 C   0  0  0  0  0  3  0  0  0  0  0  0
   37.2340   23.7290   40.2980 H   0  0  0  0  0  0  0  0  0  0  0  0
   39.0160   24.0260   41.1820 O   0  0  0  0  0  0  0  0  0  0  0  0
   39.6470   24.4760   42.3230 C   0  0  0  0  0  3  0  0  0  0  0  0
   39.6920   23.6590   43.0630 H   0  0  0  0  0  0  0  0  0  0  0  0
   39.0230   25.7430   42.8970 C   0  0  0  0  0  3  0  0  0  0  0  0
   39.7340   26.5670   42.9850 H   0  0  0  0  0  0  0  0  0  0  0  0
  1  6  1  0  0  0  0
  2  1  2  0  0  0  0
  2  3  1  0  0  0  0
  3  4  2  0  0  0  0
  4  5  1  0  0  0  0
  4  9  1  0  0  0  0
  5 21  1  0  0  0  0
  6  5  2  0  0  0  0
  7  2  1  0  0  0  0
  8  3  1  0  0  0  0
 10 15  1  0  0  0  0
 11 12  1  0  0  0  0
 11 10  2  0  0  0  0
 12 13  2  0  0  0  0
 13 14  1  0  0  0  0
 14  1  1  0  0  0  0
 15 14  2  0  0  0  0
 16 20  1  0  0  0  0
 16 10  1  0  0  0  0
 17 11  1  0  0  0  0
 18 12  1  0  0  0  0
 19 16  1  0  0  0  0
 21 22  2  0  0  0  0
 23 24  1  0  0  0  0
 23 22  1  0  0  0  0
 25 23  1  0  0  0  0
 26 27  1  0  0  0  0
 26 23  1  0  0  0  0
 26 34  1  0  0  0  0
 27 28  1  0  0  0  0
 29 27  1  0  0  0  0
 30 29  1  0  0  0  0
 31 29  1  0  0  0  0
 31 32  1  0  0  0  0
 32 34  1  0  0  0  0
 32 33  1  0  0  0  0
 34 35  1  0  0  0  0
M  END
>  <minimizedAffinity>
-5.84358597

$$$$

 OpenBabel03242520133D

 35 37  0  0  0  0  0  0  0  0999 V2000
   37.2070   30.5580   40.9720 C   0  0  0  0  0  0  0  0  0  0  0  0
   36.1560   30.0810   40.2690 C   0  0  0  0  0  0  0  0  0  0  0  0
   35.6090   28.8630   40.6660 C   0  0  0  0  0  0  0  0  0  0  0  0
   36.1160   28.1600   41.7360 C   0  0  0  0  0  0  0  0  0  0  0  0
   37.2090   28.7040   42.4280 C   0  0  0  0  0  0  0  0  0  0  0  0
   37.6950   29.8450   42.0310 N   0  0  0  0  0  0  0  0  0  0  0  0
   35.7660   30.6300   39.4390 H   0  0  0  0  0  0  0  0  0  0  0  0
   34.7630   28.4300   40.1380 H   0  0  0  0  0  0  0  0  0  0  0  0
   35.7200   27.2170   42.0710 H   0  0  0  0  0  0  0  0  0  0  0  0
   39.8070   33.1130   40.7760 C   0  0  0  0  0  0  0  0  0  0  0  0
   39.1360   34.1610   40.1210 C   0  0  0  0  0  0  0  0  0  0  0  0
   37.7800   33.9950   39.7410 C   0  0  0  0  0  0  0  0  0  0  0  0
   37.2430   32.8060   40.0550 N   0  0  0  0  0  0  0  0  0  0  0  0
   37.8840   31.8240   40.6730 C   0  0  0  0  0  0  0  0  0  0  0  0
   39.1590   31.9820   41.0310 N   0  0  0  0  0  0  0  0  0  0  0  0
   41.1620   33.3210   41.1380 N   0  0  0  0  0  0  0  0  0  0  0  0
   39.6440   35.0870   39.9050 H   0  0  0  0  0  0  0  0  0  0  0  0
   37.2380   34.7790   39.2370 H   0  0  0  0  0  0  0  0  0  0  0  0
   41.3800   33.3330   42.1560 H   0  0  0  0  0  0  0  0  0  0  0  0
   41.9990   33.4680   40.5230 H   0  0  0  0  0  0  0  0  0  0  0  0
   37.7930   28.0090   43.5720 C   0  0  0  0  0  3  0  0  0  0  0  0
   38.8480   27.2260   43.4790 C   0  0  0  0  0  3  0  0  0  0  0  0
   39.5290   26.9890   42.1970 C   0  0  0  0  0  0  0  0  0  0  0  0
   39.2220   27.8010   41.4780 H   0  0  0  0  0  0  0  0  0  0  0  0
   40.6200   27.1250   42.3200 H   0  0  0  0  0  0  0  0  0  0  0  0
   39.1810   25.6880   41.5300 C   0  0  0  0  0  3  0  0  0  0  0  0
   38.6380   25.9180   40.1140 C   0  0  0  0  0  3  0  0  0  0  0  0
   37.5600   26.1920   40.2120 H   0  0  0  0  0  0  0  0  0  0  0  0
   38.6540   24.5660   39.4320 C   0  0  0  0  0  3  0  0  0  0  0  0
   39.6200   24.5270   38.8550 H   0  0  0  0  0  0  0  0  0  0  0  0
   38.6990   23.5510   40.3530 O   0  0  0  0  0  0  0  0  0  0  0  0
   37.8390   23.6810   41.4230 C   0  0  0  0  0  3  0  0  0  0  0  0
   36.7970   23.6140   41.0670 H   0  0  0  0  0  0  0  0  0  0  0  0
   38.0900   24.9400   42.2470 C   0  0  0  0  0  3  0  0  0  0  0  0
   38.2960   24.7290   43.2970 H   0  0  0  0  0  0  0  0  0  0  0  0
  1  6  1  0  0  0  0
  2  3  1  0  0  0  0
  2  1  2  0  0  0  0
  3  4  2  0  0  0  0
  4  9  1  0  0  0  0
  4  5  1  0  0  0  0
  5 21  1  0  0  0  0
  6  5  2  0  0  0  0
  7  2  1  0  0  0  0
  8  3  1  0  0  0  0
 10 15  1  0  0  0  0
 10 16  1  0  0  0  0
 11 10  2  0  0  0  0
 12 13  2  0  0  0  0
 12 11  1  0  0  0  0
 13 14  1  0  0  0  0
 14  1  1  0  0  0  0
 14 15  2  0  0  0  0
 16 19  1  0  0  0  0
 17 11  1  0  0  0  0
 18 12  1  0  0  0  0
 20 16  1  0  0  0  0
 22 21  2  0  0  0  0
 23 25  1  0  0  0  0
 23 22  1  0  0  0  0
 24 23  1  0  0  0  0
 26 23  1  0  0  0  0
 26 34  1  0  0  0  0
 27 28  1  0  0  0  0
 27 26  1  0  0  0  0
 29 27  1  0  0  0  0
 29 31  1  0  0  0  0
 30 29  1  0  0  0  0
 31 32  1  0  0  0  0
 32 34  1  0  0  0  0
 33 32  1  0  0  0  0
 34 35  1  0  0  0  0
M  END
>  <minimizedAffinity>
-5.79163742

$$$$

 OpenBabel03242520133D

 35 37  0  0  0  0  0  0  0  0999 V2000
   37.6410   30.6990   40.3860 C   0  0  0  0  0  0  0  0  0  0  0  0
   36.4740   30.5230   39.7280 C   0  0  0  0  0  0  0  0  0  0  0  0
   35.5640   29.6080   40.2550 C   0  0  0  0  0  0  0  0  0  0  0  0
   35.8370   28.9010   41.4050 C   0  0  0  0  0  0  0  0  0  0  0  0
   37.0670   29.1260   42.0440 C   0  0  0  0  0  0  0  0  0  0  0  0
   37.8930   29.9880   41.5260 N   0  0  0  0  0  0  0  0  0  0  0  0
   36.2660   31.0740   38.8370 H   0  0  0  0  0  0  0  0  0  0  0  0
   34.6100   29.4260   39.7700 H   0  0  0  0  0  0  0  0  0  0  0  0
   35.1600   28.1870   41.8410 H   0  0  0  0  0  0  0  0  0  0  0  0
   40.0150   32.4580   38.2420 C   0  0  0  0  0  0  0  0  0  0  0  0
   40.6300   33.3390   39.1500 C   0  0  0  0  0  0  0  0  0  0  0  0
   40.2310   33.3330   40.5110 C   0  0  0  0  0  0  0  0  0  0  0  0
   39.2650   32.4520   40.8160 N   0  0  0  0  0  0  0  0  0  0  0  0
   38.6920   31.6260   39.9530 C   0  0  0  0  0  0  0  0  0  0  0  0
   39.0690   31.6330   38.6730 N   0  0  0  0  0  0  0  0  0  0  0  0
   40.4450   32.4970   36.8920 N   0  0  0  0  0  0  0  0  0  0  0  0
   41.4010   34.0170   38.8210 H   0  0  0  0  0  0  0  0  0  0  0  0
   40.6820   33.9950   41.2320 H   0  0  0  0  0  0  0  0  0  0  0  0
   40.9120   31.6430   36.5220 H   0  0  0  0  0  0  0  0  0  0  0  0
   40.3630   33.2740   36.1910 H   0  0  0  0  0  0  0  0  0  0  0  0
   37.4170   28.4080   43.2680 C   0  0  0  0  0  3  0  0  0  0  0  0
   38.1460   27.3110   43.2770 C   0  0  0  0  0  3  0  0  0  0  0  0
   38.6710   26.7150   42.0380 C   0  0  0  0  0  0  0  0  0  0  0  0
   38.7240   27.5220   41.2540 H   0  0  0  0  0  0  0  0  0  0  0  0
   39.7220   26.4040   42.1870 H   0  0  0  0  0  0  0  0  0  0  0  0
   37.8200   25.6210   41.4560 C   0  0  0  0  0  3  0  0  0  0  0  0
   38.6320   24.3360   41.2560 C   0  0  0  0  0  3  0  0  0  0  0  0
   39.1990   24.4450   40.3010 H   0  0  0  0  0  0  0  0  0  0  0  0
   37.6220   23.2340   41.0070 C   0  0  0  0  0  3  0  0  0  0  0  0
   37.4470   22.7490   42.0070 H   0  0  0  0  0  0  0  0  0  0  0  0
   36.4190   23.7540   40.6000 O   0  0  0  0  0  0  0  0  0  0  0  0
   36.4920   24.7410   39.6400 C   0  0  0  0  0  3  0  0  0  0  0  0
   36.8790   24.3110   38.7010 H   0  0  0  0  0  0  0  0  0  0  0  0
   37.2890   25.9610   40.0910 C   0  0  0  0  0  3  0  0  0  0  0  0
   36.7150   26.8870   40.0420 H   0  0  0  0  0  0  0  0  0  0  0  0
  1  6  1  0  0  0  0
  2  3  1  0  0  0  0
  2  1  2  0  0  0  0
  3  4  2  0  0  0  0
  4  9  1  0  0  0  0
  4  5  1  0  0  0  0
  5 21  1  0  0  0  0
  6  5  2  0  0  0  0
  7  2  1  0  0  0  0
  8  3  1  0  0  0  0
 10 15  2  0  0  0  0
 10 11  1  0  0  0  0
 11 12  2  0  0  0  0
 12 13  1  0  0  0  0
 12 18  1  0  0  0  0
 14  1  1  0  0  0  0
 14 13  2  0  0  0  0
 15 14  1  0  0  0  0
 16 10  1  0  0  0  0
 17 11  1  0  0  0  0
 19 16  1  0  0  0  0
 20 16  1  0  0  0  0
 21 22  2  0  0  0  0
 23 25  1  0  0  0  0
 23 22  1  0  0  0  0
 24 23  1  0  0  0  0
 26 23  1  0  0  0  0
 27 26  1  0  0  0  0
 28 27  1  0  0  0  0
 29 27  1  0  0  0  0
 29 30  1  0  0  0  0
 31 29  1  0  0  0  0
 32 34  1  0  0  0  0
 32 31  1  0  0  0  0
 33 32  1  0  0  0  0
 34 26  1  0  0  0  0
 35 34  1  0  0  0  0
M  END
>  <minimizedAffinity>
-5.7610774

$$$$

 OpenBabel03242520133D

 35 37  0  0  0  0  0  0  0  0999 V2000
   38.8900   26.9660   42.1810 C   0  0  0  0  0  0  0  0  0  0  0  0
   38.4810   27.1140   43.4610 C   0  0  0  0  0  0  0  0  0  0  0  0
   37.2100   27.6430   43.6780 C   0  0  0  0  0  0  0  0  0  0  0  0
   36.3920   28.0060   42.6310 C   0  0  0  0  0  0  0  0  0  0  0  0
   36.8710   27.8300   41.3240 C   0  0  0  0  0  0  0  0  0  0  0  0
   38.0620   27.3330   41.1570 N   0  0  0  0  0  0  0  0  0  0  0  0
   39.1190   26.8310   44.2690 H   0  0  0  0  0  0  0  0  0  0  0  0
   36.8280   27.7850   44.6850 H   0  0  0  0  0  0  0  0  0  0  0  0
   35.4050   28.4170   42.7610 H   0  0  0  0  0  0  0  0  0  0  0  0
   42.1700   25.3830   42.4280 C   0  0  0  0  0  0  0  0  0  0  0  0
   42.6120   25.4210   41.0940 C   0  0  0  0  0  0  0  0  0  0  0  0
   41.7830   25.9930   40.0960 C   0  0  0  0  0  0  0  0  0  0  0  0
   40.6060   26.4640   40.5380 N   0  0  0  0  0  0  0  0  0  0  0  0
   40.1970   26.4240   41.7980 C   0  0  0  0  0  0  0  0  0  0  0  0
   40.9790   25.8850   42.7350 N   0  0  0  0  0  0  0  0  0  0  0  0
   43.0310   24.8020   43.3930 N   0  0  0  0  0  0  0  0  0  0  0  0
   43.5750   25.0180   40.8240 H   0  0  0  0  0  0  0  0  0  0  0  0
   42.0930   26.0370   39.0650 H   0  0  0  0  0  0  0  0  0  0  0  0
   43.4010   25.4320   44.1340 H   0  0  0  0  0  0  0  0  0  0  0  0
   43.3600   23.8090   43.4760 H   0  0  0  0  0  0  0  0  0  0  0  0
   36.0520   28.1950   40.1700 C   0  0  0  0  0  3  0  0  0  0  0  0
   35.7440   29.4390   39.8700 C   0  0  0  0  0  3  0  0  0  0  0  0
   36.2070   30.5740   40.6840 C   0  0  0  0  0  0  0  0  0  0  0  0
   35.4360   31.3930   40.6190 H   0  0  0  0  0  0  0  0  0  0  0  0
   36.2190   30.2900   41.7530 H   0  0  0  0  0  0  0  0  0  0  0  0
   37.5040   31.1840   40.2330 C   0  0  0  0  0  3  0  0  0  0  0  0
   38.6010   30.9990   41.2890 C   0  0  0  0  0  3  0  0  0  0  0  0
   38.4590   31.7940   42.0590 H   0  0  0  0  0  0  0  0  0  0  0  0
   39.9090   31.3270   40.6000 C   0  0  0  0  0  3  0  0  0  0  0  0
   40.3290   30.3410   40.2580 H   0  0  0  0  0  0  0  0  0  0  0  0
   39.6960   32.0820   39.4740 O   0  0  0  0  0  0  0  0  0  0  0  0
   38.8050   33.1250   39.6180 C   0  0  0  0  0  3  0  0  0  0  0  0
   39.2250   33.8730   40.3120 H   0  0  0  0  0  0  0  0  0  0  0  0
   37.4080   32.6720   40.0310 C   0  0  0  0  0  3  0  0  0  0  0  0
   36.6330   32.9880   39.3310 H   0  0  0  0  0  0  0  0  0  0  0  0
  1  2  1  0  0  0  0
  2  3  2  0  0  0  0
  2  7  1  0  0  0  0
  3  8  1  0  0  0  0
  4  9  1  0  0  0  0
  4  3  1  0  0  0  0
  5  4  2  0  0  0  0
  6  5  1  0  0  0  0
  6  1  2  0  0  0  0
 10 15  1  0  0  0  0
 10 16  1  0  0  0  0
 11 10  2  0  0  0  0
 12 13  2  0  0  0  0
 12 11  1  0  0  0  0
 13 14  1  0  0  0  0
 14  1  1  0  0  0  0
 14 15  2  0  0  0  0
 16 20  1  0  0  0  0
 16 19  1  0  0  0  0
 17 11  1  0  0  0  0
 18 12  1  0  0  0  0
 21  5  1  0  0  0  0
 22 21  2  0  0  0  0
 22 23  1  0  0  0  0
 23 25  1  0  0  0  0
 24 23  1  0  0  0  0
 26 23  1  0  0  0  0
 26 27  1  0  0  0  0
 27 28  1  0  0  0  0
 29 27  1  0  0  0  0
 30 29  1  0  0  0  0
 31 32  1  0  0  0  0
 31 29  1  0  0  0  0
 32 34  1  0  0  0  0
 32 33  1  0  0  0  0
 34 26  1  0  0  0  0
 35 34  1  0  0  0  0
M  END
>  <minimizedAffinity>
-5.64089489

$$$$

 OpenBabel03242520133D

 35 37  0  0  0  0  0  0  0  0999 V2000
   38.9910   31.4020   38.6690 C   0  0  0  0  0  0  0  0  0  0  0  0
   38.5270   32.3130   39.5550 C   0  0  0  0  0  0  0  0  0  0  0  0
   37.2640   32.0990   40.1020 C   0  0  0  0  0  0  0  0  0  0  0  0
   36.5050   31.0020   39.7580 C   0  0  0  0  0  0  0  0  0  0  0  0
   37.0390   30.0910   38.8330 C   0  0  0  0  0  0  0  0  0  0  0  0
   38.2220   30.3210   38.3420 N   0  0  0  0  0  0  0  0  0  0  0  0
   39.1180   33.1620   39.8180 H   0  0  0  0  0  0  0  0  0  0  0  0
   36.8390   32.7960   40.8190 H   0  0  0  0  0  0  0  0  0  0  0  0
   35.5260   30.8040   40.1600 H   0  0  0  0  0  0  0  0  0  0  0  0
   41.9760   32.8190   37.1180 C   0  0  0  0  0  0  0  0  0  0  0  0
   42.7160   31.6650   36.8040 C   0  0  0  0  0  0  0  0  0  0  0  0
   42.1920   30.3870   37.1250 C   0  0  0  0  0  0  0  0  0  0  0  0
   40.9900   30.4010   37.7220 N   0  0  0  0  0  0  0  0  0  0  0  0
   40.2990   31.4940   38.0140 C   0  0  0  0  0  0  0  0  0  0  0  0
   40.7940   32.6950   37.7100 N   0  0  0  0  0  0  0  0  0  0  0  0
   42.5380   34.0750   36.7780 N   0  0  0  0  0  0  0  0  0  0  0  0
   43.6780   31.7430   36.3230 H   0  0  0  0  0  0  0  0  0  0  0  0
   42.7340   29.4840   36.8990 H   0  0  0  0  0  0  0  0  0  0  0  0
   42.0330   34.6390   36.0640 H   0  0  0  0  0  0  0  0  0  0  0  0
   43.4070   34.5350   37.1460 H   0  0  0  0  0  0  0  0  0  0  0  0
   36.2860   28.9070   38.4270 C   0  0  0  0  0  3  0  0  0  0  0  0
   36.5660   27.6930   38.8510 C   0  0  0  0  0  3  0  0  0  0  0  0
   37.6760   27.4300   39.7810 C   0  0  0  0  0  0  0  0  0  0  0  0
   37.8330   26.3160   39.8370 H   0  0  0  0  0  0  0  0  0  0  0  0
   38.6200   27.8220   39.3590 H   0  0  0  0  0  0  0  0  0  0  0  0
   37.4380   27.8910   41.1910 C   0  0  0  0  0  3  0  0  0  0  0  0
   38.6690   28.6110   41.7550 C   0  0  0  0  0  3  0  0  0  0  0  0
   39.3850   27.8270   42.0990 H   0  0  0  0  0  0  0  0  0  0  0  0
   38.2050   29.3190   43.0110 C   0  0  0  0  0  3  0  0  0  0  0  0
   37.9630   30.3720   42.6950 H   0  0  0  0  0  0  0  0  0  0  0  0
   37.0420   28.7680   43.4850 O   0  0  0  0  0  0  0  0  0  0  0  0
   37.0070   27.3890   43.5150 C   0  0  0  0  0  3  0  0  0  0  0  0
   37.7450   27.0200   44.2480 H   0  0  0  0  0  0  0  0  0  0  0  0
   37.1870   26.7520   42.1410 C   0  0  0  0  0  3  0  0  0  0  0  0
   36.3580   26.0990   41.8620 H   0  0  0  0  0  0  0  0  0  0  0  0
  1  2  1  0  0  0  0
  2  7  1  0  0  0  0
  2  3  2  0  0  0  0
  3  8  1  0  0  0  0
  4  3  1  0  0  0  0
  4  9  1  0  0  0  0
  5  4  2  0  0  0  0
  6  1  2  0  0  0  0
  6  5  1  0  0  0  0
 10 15  1  0  0  0  0
 11 10  2  0  0  0  0
 11 12  1  0  0  0  0
 12 13  2  0  0  0  0
 13 14  1  0  0  0  0
 14  1  1  0  0  0  0
 15 14  2  0  0  0  0
 16 10  1  0  0  0  0
 16 20  1  0  0  0  0
 17 11  1  0  0  0  0
 18 12  1  0  0  0  0
 19 16  1  0  0  0  0
 21  5  1  0  0  0  0
 21 22  2  0  0  0  0
 22 23  1  0  0  0  0
 23 24  1  0  0  0  0
 23 26  1  0  0  0  0
 25 23  1  0  0  0  0
 26 27  1  0  0  0  0
 26 34  1  0  0  0  0
 27 28  1  0  0  0  0
 27 29  1  0  0  0  0
 29 31  1  0  0  0  0
 30 29  1  0  0  0  0
 31 32  1  0  0  0  0
 32 33  1  0  0  0  0
 34 32  1  0  0  0  0
 35 34  1  0  0  0  0
M  END
>  <minimizedAffinity>
-5.58680296

$$$$

 OpenBabel03242520133D

 35 37  0  0  0  0  0  0  0  0999 V2000
   38.0850   29.9220   40.7200 C   0  0  0  0  0  0  0  0  0  0  0  0
   39.0110   30.5390   41.4890 C   0  0  0  0  0  0  0  0  0  0  0  0
   39.1400   30.1170   42.8110 C   0  0  0  0  0  0  0  0  0  0  0  0
   38.3560   29.1080   43.3260 C   0  0  0  0  0  0  0  0  0  0  0  0
   37.4120   28.5050   42.4800 C   0  0  0  0  0  0  0  0  0  0  0  0
   37.3180   28.9240   41.2510 N   0  0  0  0  0  0  0  0  0  0  0  0
   39.6160   31.3200   41.0850 H   0  0  0  0  0  0  0  0  0  0  0  0
   39.8670   30.5750   43.4760 H   0  0  0  0  0  0  0  0  0  0  0  0
   38.4280   28.7570   44.3400 H   0  0  0  0  0  0  0  0  0  0  0  0
   38.4660   31.4310   37.4180 C   0  0  0  0  0  0  0  0  0  0  0  0
   37.3800   30.8750   36.7170 C   0  0  0  0  0  0  0  0  0  0  0  0
   36.5070   29.9750   37.3780 C   0  0  0  0  0  0  0  0  0  0  0  0
   36.8110   29.7280   38.6620 N   0  0  0  0  0  0  0  0  0  0  0  0
   37.8370   30.2570   39.3150 C   0  0  0  0  0  0  0  0  0  0  0  0
   38.6570   31.1040   38.6910 N   0  0  0  0  0  0  0  0  0  0  0  0
   39.3130   32.3270   36.7190 N   0  0  0  0  0  0  0  0  0  0  0  0
   37.2070   31.1280   35.6840 H   0  0  0  0  0  0  0  0  0  0  0  0
   35.6670   29.5310   36.8700 H   0  0  0  0  0  0  0  0  0  0  0  0
   39.3320   33.3130   37.0510 H   0  0  0  0  0  0  0  0  0  0  0  0
   39.9400   32.1440   35.8970 H   0  0  0  0  0  0  0  0  0  0  0  0
   36.5500   27.4300   42.9650 C   0  0  0  0  0  3  0  0  0  0  0  0
   36.8890   26.1590   42.9210 C   0  0  0  0  0  3  0  0  0  0  0  0
   38.1810   25.7160   42.3730 C   0  0  0  0  0  0  0  0  0  0  0  0
   38.6070   26.5550   41.7530 H   0  0  0  0  0  0  0  0  0  0  0  0
   38.9100   25.5790   43.1930 H   0  0  0  0  0  0  0  0  0  0  0  0
   38.1020   24.5220   41.4630 C   0  0  0  0  0  3  0  0  0  0  0  0
   38.9250   24.7430   40.1880 C   0  0  0  0  0  3  0  0  0  0  0  0
   38.3020   25.3530   39.4920 H   0  0  0  0  0  0  0  0  0  0  0  0
   39.0570   23.3830   39.5320 C   0  0  0  0  0  3  0  0  0  0  0  0
   40.0460   22.9730   39.8780 H   0  0  0  0  0  0  0  0  0  0  0  0
   38.0890   22.5230   39.9840 O   0  0  0  0  0  0  0  0  0  0  0  0
   36.8140   23.0460   40.0500 C   0  0  0  0  0  3  0  0  0  0  0  0
   36.4570   23.2700   39.0300 H   0  0  0  0  0  0  0  0  0  0  0  0
   36.7040   24.2500   40.9800 C   0  0  0  0  0  3  0  0  0  0  0  0
   35.9670   24.1100   41.7720 H   0  0  0  0  0  0  0  0  0  0  0  0
  1  6  2  0  0  0  0
  1  2  1  0  0  0  0
  2  3  2  0  0  0  0
  3  4  1  0  0  0  0
  3  8  1  0  0  0  0
  4  9  1  0  0  0  0
  5 21  1  0  0  0  0
  5  4  2  0  0  0  0
  6  5  1  0  0  0  0
  7  2  1  0  0  0  0
 10 15  1  0  0  0  0
 11 12  1  0  0  0  0
 11 10  2  0  0  0  0
 12 13  2  0  0  0  0
 13 14  1  0  0  0  0
 14  1  1  0  0  0  0
 15 14  2  0  0  0  0
 16 19  1  0  0  0  0
 16 10  1  0  0  0  0
 17 11  1  0  0  0  0
 18 12  1  0  0  0  0
 20 16  1  0  0  0  0
 22 21  2  0  0  0  0
 23 22  1  0  0  0  0
 23 25  1  0  0  0  0
 24 23  1  0  0  0  0
 26 23  1  0  0  0  0
 27 26  1  0  0  0  0
 28 27  1  0  0  0  0
 29 30  1  0  0  0  0
 29 31  1  0  0  0  0
 29 27  1  0  0  0  0
 31 32  1  0  0  0  0
 32 34  1  0  0  0  0
 33 32  1  0  0  0  0
 34 26  1  0  0  0  0
 34 35  1  0  0  0  0
M  END
>  <minimizedAffinity>
-5.58406019

$$$$

 OpenBabel03242520133D

 35 37  0  0  0  0  0  0  0  0999 V2000
   37.2930   29.7890   39.9940 C   0  0  0  0  0  0  0  0  0  0  0  0
   37.2880   29.3390   38.7200 C   0  0  0  0  0  0  0  0  0  0  0  0
   37.2970   30.2870   37.6980 C   0  0  0  0  0  0  0  0  0  0  0  0
   37.3090   31.6370   37.9670 C   0  0  0  0  0  0  0  0  0  0  0  0
   37.3140   32.0450   39.3100 C   0  0  0  0  0  0  0  0  0  0  0  0
   37.3060   31.1340   40.2400 N   0  0  0  0  0  0  0  0  0  0  0  0
   37.2780   28.2910   38.5150 H   0  0  0  0  0  0  0  0  0  0  0  0
   37.2930   29.9840   36.6540 H   0  0  0  0  0  0  0  0  0  0  0  0
   37.3160   32.3970   37.2050 H   0  0  0  0  0  0  0  0  0  0  0  0
   37.1420   26.7700   42.0410 C   0  0  0  0  0  0  0  0  0  0  0  0
   37.2740   27.2930   43.3400 C   0  0  0  0  0  0  0  0  0  0  0  0
   37.4170   28.6920   43.5220 C   0  0  0  0  0  0  0  0  0  0  0  0
   37.4110   29.4140   42.3900 N   0  0  0  0  0  0  0  0  0  0  0  0
   37.2860   28.9130   41.1700 C   0  0  0  0  0  0  0  0  0  0  0  0
   37.1510   27.5970   41.0020 N   0  0  0  0  0  0  0  0  0  0  0  0
   37.0010   25.3660   41.9060 N   0  0  0  0  0  0  0  0  0  0  0  0
   37.2680   26.6390   44.1970 H   0  0  0  0  0  0  0  0  0  0  0  0
   37.5210   29.1230   44.5030 H   0  0  0  0  0  0  0  0  0  0  0  0
   36.0980   25.0190   41.5210 H   0  0  0  0  0  0  0  0  0  0  0  0
   37.6840   24.6050   42.1400 H   0  0  0  0  0  0  0  0  0  0  0  0
   37.3270   33.4630   39.6630 C   0  0  0  0  0  3  0  0  0  0  0  0
   38.3980   34.0850   40.1090 C   0  0  0  0  0  3  0  0  0  0  0  0
   39.6830   33.3910   40.2900 C   0  0  0  0  0  0  0  0  0  0  0  0
   40.2910   33.9650   41.0440 H   0  0  0  0  0  0  0  0  0  0  0  0
   39.5140   32.4050   40.7620 H   0  0  0  0  0  0  0  0  0  0  0  0
   40.5290   33.3010   39.0510 C   0  0  0  0  0  3  0  0  0  0  0  0
   41.0500   31.8750   38.8370 C   0  0  0  0  0  3  0  0  0  0  0  0
   41.9430   31.7450   39.4940 H   0  0  0  0  0  0  0  0  0  0  0  0
   41.5780   31.8270   37.4180 C   0  0  0  0  0  3  0  0  0  0  0  0
   40.7360   31.4150   36.7940 H   0  0  0  0  0  0  0  0  0  0  0  0
   41.8410   33.0890   36.9490 O   0  0  0  0  0  0  0  0  0  0  0  0
   42.5150   33.9180   37.8210 C   0  0  0  0  0  3  0  0  0  0  0  0
   43.5320   33.5250   37.9880 H   0  0  0  0  0  0  0  0  0  0  0  0
   41.7640   34.1580   39.1260 C   0  0  0  0  0  3  0  0  0  0  0  0
   41.5750   35.2140   39.3220 H   0  0  0  0  0  0  0  0  0  0  0  0
  1  6  1  0  0  0  0
  1 14  1  0  0  0  0
  2  1  2  0  0  0  0
  3  4  2  0  0  0  0
  3  2  1  0  0  0  0
  4  5  1  0  0  0  0
  5 21  1  0  0  0  0
  5  6  2  0  0  0  0
  7  2  1  0  0  0  0
  8  3  1  0  0  0  0
  9  4  1  0  0  0  0
 10 11  1  0  0  0  0
 11 12  2  0  0  0  0
 11 17  1  0  0  0  0
 12 18  1  0  0  0  0
 13 12  1  0  0  0  0
 14 13  2  0  0  0  0
 15 14  1  0  0  0  0
 15 10  2  0  0  0  0
 16 10  1  0  0  0  0
 16 20  1  0  0  0  0
 19 16  1  0  0  0  0
 21 22  2  0  0  0  0
 22 23  1  0  0  0  0
 23 25  1  0  0  0  0
 23 24  1  0  0  0  0
 26 34  1  0  0  0  0
 26 23  1  0  0  0  0
 27 26  1  0  0  0  0
 27 28  1  0  0  0  0
 29 27  1  0  0  0  0
 30 29  1  0  0  0  0
 31 29  1  0  0  0  0
 31 32  1  0  0  0  0
 32 33  1  0  0  0  0
 32 34  1  0  0  0  0
 34 35  1  0  0  0  0
M  END
>  <minimizedAffinity>
-5.50367212

$$$$
