
 OpenBabel03242516533D

 46 49  0  0  1  0  0  0  0  0999 V2000
   47.8220   32.8980   41.8030 C   0  0  1  0  0  0  0  0  0  0  0  0
   47.5070   32.2430   40.5350 C   0  0  0  0  0  0  0  0  0  0  0  0
   48.5180   32.7740   39.5230 C   0  0  0  0  0  0  0  0  0  0  0  0
   48.1720   34.2340   39.2820 C   0  0  0  0  0  0  0  0  0  0  0  0
   48.1000   35.0620   40.5280 C   0  0  0  0  0  0  0  0  0  0  0  0
   47.6100   34.4160   41.7460 C   0  0  1  0  0  0  0  0  0  0  0  0
   48.9390   32.8240   41.9770 H   0  0  0  0  0  0  0  0  0  0  0  0
   46.4670   32.4690   40.2000 H   0  0  0  0  0  0  0  0  0  0  0  0
   47.5780   31.1600   40.6330 H   0  0  0  0  0  0  0  0  0  0  0  0
   49.5210   32.6640   39.9690 H   0  0  0  0  0  0  0  0  0  0  0  0
   48.3750   32.2510   38.5670 H   0  0  0  0  0  0  0  0  0  0  0  0
   47.2160   34.2620   38.7250 H   0  0  0  0  0  0  0  0  0  0  0  0
   48.9450   34.6350   38.5940 H   0  0  0  0  0  0  0  0  0  0  0  0
   49.1250   35.4920   40.6800 H   0  0  0  0  0  0  0  0  0  0  0  0
   47.4670   35.9520   40.2960 H   0  0  0  0  0  0  0  0  0  0  0  0
   48.2040   34.8100   42.6250 H   0  0  0  0  0  0  0  0  0  0  0  0
   45.4220   30.9460   43.9800 C   0  0  0  0  0  0  0  0  0  0  0  0
   46.0980   31.5020   42.8860 C   0  0  0  0  0  0  0  0  0  0  0  0
   47.1900   32.3660   42.9930 C   0  0  0  0  0  0  0  0  0  0  0  0
   47.5750   32.6470   44.2390 N   0  0  0  0  0  0  0  0  0  0  0  0
   46.9310   32.1180   45.3130 C   0  0  0  0  0  0  0  0  0  0  0  0
   45.8880   31.2920   45.2010 N   0  0  0  0  0  0  0  0  0  0  0  0
   44.5950   30.2940   43.7550 H   0  0  0  0  0  0  0  0  0  0  0  0
   45.7720   31.2610   41.8830 H   0  0  0  0  0  0  0  0  0  0  0  0
   47.3100   32.4000   46.3010 H   0  0  0  0  0  0  0  0  0  0  0  0
   46.2240   34.7750   42.0620 C   0  0  0  0  0  0  0  0  0  0  0  0
   45.7730   35.3760   43.2450 C   0  0  0  0  0  0  0  0  0  0  0  0
   44.4050   35.6390   43.3160 C   0  0  0  0  0  0  0  0  0  0  0  0
   43.6220   35.2920   42.2370 C   0  0  0  0  0  0  0  0  0  0  0  0
   44.0810   34.6980   41.0730 C   0  0  0  0  0  0  0  0  0  0  0  0
   45.4200   34.4470   41.0180 N   0  0  0  0  0  0  0  0  0  0  0  0
   46.5020   35.5760   43.9750 H   0  0  0  0  0  0  0  0  0  0  0  0
   44.0450   36.0950   44.2060 H   0  0  0  0  0  0  0  0  0  0  0  0
   42.5520   35.5020   42.3040 H   0  0  0  0  0  0  0  0  0  0  0  0
   43.1740   34.3740   39.9790 C   0  0  0  0  0  0  0  0  0  0  0  0
   42.8080   35.3090   39.2130 O   0  0  0  0  0  0  0  0  0  0  0  0
   42.6750   32.9740   39.7540 C   0  0  0  0  0  3  0  0  0  0  0  0
   43.8370   32.0030   39.6940 C   0  0  0  0  0  3  0  0  0  0  0  0
   43.7250   31.1820   40.4320 H   0  0  0  0  0  0  0  0  0  0  0  0
   43.9710   31.3540   38.3300 C   0  0  0  0  0  3  0  0  0  0  0  0
   44.8070   30.6080   38.4510 H   0  0  0  0  0  0  0  0  0  0  0  0
   42.8200   30.7090   37.9100 O   0  0  0  0  0  0  0  0  0  0  0  0
   41.6610   31.3960   38.2370 C   0  0  0  0  0  3  0  0  0  0  0  0
   40.8280   31.1990   37.5600 H   0  0  0  0  0  0  0  0  0  0  0  0
   41.9810   32.8680   38.4080 C   0  0  0  0  0  3  0  0  0  0  0  0
   41.0710   33.4660   38.3350 H   0  0  0  0  0  0  0  0  0  0  0  0
  1  7  1  1  0  0  0
  1 19  1  0  0  0  0
  2  9  1  0  0  0  0
  2  1  1  0  0  0  0
  3 10  1  0  0  0  0
  3  2  1  0  0  0  0
  4  3  1  0  0  0  0
  4  5  1  0  0  0  0
  5 14  1  0  0  0  0
  5  6  1  0  0  0  0
  6  1  1  0  0  0  0
  6 26  1  0  0  0  0
  6 16  1  1  0  0  0
  8  2  1  0  0  0  0
 11  3  1  0  0  0  0
 12  4  1  0  0  0  0
 13  4  1  0  0  0  0
 15  5  1  0  0  0  0
 17 22  1  0  0  0  0
 18 19  1  0  0  0  0
 18 17  2  0  0  0  0
 19 20  2  0  0  0  0
 20 21  1  0  0  0  0
 21 25  1  0  0  0  0
 22 21  2  0  0  0  0
 23 17  1  0  0  0  0
 24 18  1  0  0  0  0
 26 27  1  0  0  0  0
 27 28  2  0  0  0  0
 27 32  1  0  0  0  0
 28 33  1  0  0  0  0
 29 34  1  0  0  0  0
 29 28  1  0  0  0  0
 30 29  2  0  0  0  0
 31 30  1  0  0  0  0
 31 26  2  0  0  0  0
 35 30  1  0  0  0  0
 36 35  2  0  0  0  0
 37 35  1  0  0  0  0
 38 37  1  0  0  0  0
 38 39  1  0  0  0  0
 40 41  1  0  0  0  0
 40 38  1  0  0  0  0
 42 43  1  0  0  0  0
 42 40  1  0  0  0  0
 43 45  1  0  0  0  0
 44 43  1  0  0  0  0
 45 37  1  0  0  0  0
 46 45  1  0  0  0  0
M  END
>  <minimizedAffinity>
-5.16785049

>  <minimizedRMSD>
0.834927201

$$$$
