REMARK  Name = 
REMARK  8 active torsions:
REMARK  status: ('A' for Active; 'I' for Inactive)
REMARK    1  A    between atoms: C_1  and  O_7
REMARK    2  A    between atoms: C_2  and  O_9
REMARK    3  A    between atoms: C_5  and  O_8
REMARK    4  A    between atoms: C_6  and  O_19
REMARK    5  A    between atoms: O_9  and  C_10
REMARK    6  A    between atoms: C_12  and  C_16
REMARK    7  A    between atoms: O_19  and  C_20
REMARK    8  A    between atoms: C_20  and  C_37
REMARK                            x       y       z     vdW  Elec       q    Type
REMARK                         _______ _______ _______ _____ _____    ______ ____
ROOT
ATOM      1  C   UNL     1      42.829  34.479  38.779  0.00  0.00    +0.000 C 
ATOM      2  C   UNL     1      42.957  35.166  40.131  0.00  0.00    +0.000 C 
ATOM      3  O   UNL     1      41.658  35.377  40.639  0.00  0.00    +0.000 OA
ATOM      4  C   UNL     1      40.739  35.702  39.637  0.00  0.00    +0.000 C 
ATOM      5  C   UNL     1      40.450  34.524  38.730  0.00  0.00    +0.000 C 
ATOM      6  C   UNL     1      41.666  33.545  38.887  0.00  0.00    +0.000 C 
ATOM      7  H   UNL     1      43.765  33.919  38.541  0.00  0.00    +0.000 HD
ATOM      8  H   UNL     1      43.538  36.091  40.103  0.00  0.00    +0.000 HD
ATOM      9  H   UNL     1      41.034  36.614  39.065  0.00  0.00    +0.000 HD
ATOM     10  H   UNL     1      39.821  36.001  40.184  0.00  0.00    +0.000 HD
ATOM     11  H   UNL     1      39.524  33.992  39.004  0.00  0.00    +0.000 HD
ATOM     12  H   UNL     1      41.434  33.270  39.965  0.00  0.00    +0.000 HD
ENDROOT
BRANCH   1  13
ATOM     13  O   UNL     1      42.617  35.420  37.762  0.00  0.00    +0.000 OA
ATOM     14  H   UNL     1      42.977  35.097  36.902  0.00  0.00    +0.000 HD
ENDBRANCH   1  13
BRANCH   5  15
ATOM     15  O   UNL     1      40.472  34.939  37.408  0.00  0.00    +0.000 OA
ATOM     16  H   UNL     1      40.552  34.179  36.777  0.00  0.00    +0.000 HD
ENDBRANCH   5  15
BRANCH   2  17
ATOM     17  O   UNL     1      43.491  34.179  40.986  0.00  0.00    +0.000 OA
BRANCH  17  18
ATOM     18  C   UNL     1      44.602  34.329  41.714  0.00  0.00    +0.000 A 
ATOM     19  C   UNL     1      45.860  34.448  41.104  0.00  0.00    +0.000 A 
ATOM     20  C   UNL     1      46.974  34.602  41.910  0.00  0.00    +0.000 A 
ATOM     21  N   UNL     1      46.820  34.634  43.287  0.00  0.00    +0.000 NA
ATOM     22  C   UNL     1      45.591  34.515  43.838  0.00  0.00    +0.000 A 
ATOM     23  N   UNL     1      44.491  34.363  43.060  0.00  0.00    +0.000 NA
ATOM     24  H   UNL     1      45.967  34.422  40.038  0.00  0.00    +0.000 HD
ATOM     25  H   UNL     1      45.488  34.541  44.917  0.00  0.00    +0.000 HD
BRANCH  20  26
ATOM     26  C   UNL     1      48.350  34.715  41.332  0.00  0.00    +0.000 C 
ATOM     27  C   UNL     1      49.062  36.056  41.508  0.00  0.00    +0.000 C 
ATOM     28  C   UNL     1      49.503  34.740  42.174  0.00  0.00    +0.000 C 
ATOM     29  H   UNL     1      48.402  34.270  40.305  0.00  0.00    +0.000 HD
ATOM     30  H   UNL     1      48.499  36.794  42.097  0.00  0.00    +0.000 HD
ATOM     31  H   UNL     1      49.614  36.401  40.636  0.00  0.00    +0.000 HD
ATOM     32  H   UNL     1      50.457  34.372  41.799  0.00  0.00    +0.000 HD
ATOM     33  H   UNL     1      49.352  34.781  43.285  0.00  0.00    +0.000 HD
ENDBRANCH  20  26
ENDBRANCH  17  18
ENDBRANCH   2  17
BRANCH   6  34
ATOM     34  O   UNL     1      41.553  32.607  37.929  0.00  0.00    +0.000 OA
BRANCH  34  35
ATOM     35  C   UNL     1      40.916  31.421  37.965  0.00  0.00    +0.000 C 
ATOM     36  O   UNL     1      39.664  31.294  37.609  0.00  0.00    +0.000 OA
BRANCH  35  37
ATOM     37  C   UNL     1      40.915  29.962  38.245  0.00  0.00    +0.000 C 
ATOM     38  C   UNL     1      39.590  29.314  37.965  0.00  0.00    +0.000 C 
ATOM     39  H   UNL     1      39.390  29.225  36.878  0.00  0.00    +0.000 HD
ATOM     40  C   UNL     1      39.716  27.913  38.534  0.00  0.00    +0.000 C 
ATOM     41  H   UNL     1      39.939  28.068  39.628  0.00  0.00    +0.000 HD
ATOM     42  O   UNL     1      40.711  27.219  37.886  0.00  0.00    +0.000 OA
ATOM     43  C   UNL     1      41.960  27.801  38.009  0.00  0.00    +0.000 C 
ATOM     44  H   UNL     1      42.165  27.952  39.102  0.00  0.00    +0.000 HD
ATOM     45  C   UNL     1      41.943  29.212  37.430  0.00  0.00    +0.000 C 
ATOM     46  H   UNL     1      41.685  29.200  36.354  0.00  0.00    +0.000 HD
ENDBRANCH  35  37
ENDBRANCH  34  35
ENDBRANCH   6  34
TORSDOF 8
