
 OpenBabel03242519343D

 41 43  0  0  0  0  0  0  0  0999 V2000
   46.2370   33.2930   44.8930 C   0  0  0  0  0  0  0  0  0  0  0  0
   46.7140   33.1760   43.5990 C   0  0  0  0  0  0  0  0  0  0  0  0
   46.2690   34.0340   42.6100 C   0  0  0  0  0  0  0  0  0  0  0  0
   45.3440   34.9750   42.9950 N   0  0  0  0  0  0  0  0  0  0  0  0
   44.8820   35.0700   44.2750 C   0  0  0  0  0  0  0  0  0  0  0  0
   45.3240   34.2420   45.2110 N   0  0  0  0  0  0  0  0  0  0  0  0
   43.8910   36.0610   44.5470 N   0  0  0  0  0  0  0  0  0  0  0  0
   48.0690   33.3420   41.2930 C   0  0  0  0  0  0  0  0  0  0  0  0
   48.5880   32.9730   42.3670 O   0  0  0  0  0  0  0  0  0  0  0  0
   46.7580   33.9650   41.2870 N   0  0  0  0  0  0  0  0  0  0  0  0
   47.3700   32.3260   43.5670 H   0  0  0  0  0  0  0  0  0  0  0  0
   44.0730   36.9020   45.1090 H   0  0  0  0  0  0  0  0  0  0  0  0
   42.9450   35.8670   44.1210 H   0  0  0  0  0  0  0  0  0  0  0  0
   46.1950   34.3240   40.5130 H   0  0  0  0  0  0  0  0  0  0  0  0
   46.8280   32.4010   45.9370 C   0  0  0  0  0  0  0  0  0  0  0  0
   46.7690   30.9820   45.5220 C   0  0  0  0  0  0  0  0  0  0  0  0
   45.7840   30.2180   46.3580 C   0  0  0  0  0  0  0  0  0  0  0  0
   46.1170   30.3010   47.8340 C   0  0  0  0  0  0  0  0  0  0  0  0
   46.4530   31.6770   48.2890 C   0  0  0  0  0  0  0  0  0  0  0  0
   46.1710   32.7200   47.2370 C   0  0  0  0  0  0  0  0  0  0  0  0
   47.9080   32.7270   45.9870 H   0  0  0  0  0  0  0  0  0  0  0  0
   46.4990   30.7860   44.4770 H   0  0  0  0  0  0  0  0  0  0  0  0
   47.7530   30.5040   45.7060 H   0  0  0  0  0  0  0  0  0  0  0  0
   45.7990   29.1670   46.0460 H   0  0  0  0  0  0  0  0  0  0  0  0
   44.7710   30.6690   46.1790 H   0  0  0  0  0  0  0  0  0  0  0  0
   45.3610   29.7760   48.4180 H   0  0  0  0  0  0  0  0  0  0  0  0
   47.0490   29.6730   47.9440 H   0  0  0  0  0  0  0  0  0  0  0  0
   45.8270   31.9130   49.1710 H   0  0  0  0  0  0  0  0  0  0  0  0
   47.5190   31.7890   48.6090 H   0  0  0  0  0  0  0  0  0  0  0  0
   46.5020   33.7090   47.5990 H   0  0  0  0  0  0  0  0  0  0  0  0
   45.0640   32.7420   47.1220 H   0  0  0  0  0  0  0  0  0  0  0  0
   48.6730   33.2210   39.8690 C   0  0  0  0  0  3  0  0  0  0  0  0
   48.1660   31.9660   39.2350 C   0  0  0  0  0  3  0  0  0  0  0  0
   47.6320   31.3320   39.9450 H   0  0  0  0  0  0  0  0  0  0  0  0
   47.3070   32.3540   38.0380 C   0  0  0  0  0  3  0  0  0  0  0  0
   47.0440   31.4340   37.4680 H   0  0  0  0  0  0  0  0  0  0  0  0
   48.0930   33.1160   37.1730 O   0  0  0  0  0  0  0  0  0  0  0  0
   48.4850   34.3250   37.7040 C   0  0  0  0  0  3  0  0  0  0  0  0
   48.0600   35.1380   37.1050 H   0  0  0  0  0  0  0  0  0  0  0  0
   48.1250   34.4620   39.1610 C   0  0  0  0  0  3  0  0  0  0  0  0
   48.6930   35.3270   39.5840 H   0  0  0  0  0  0  0  0  0  0  0  0
  1  6  1  0  0  0  0
  1 15  1  0  0  0  0
  2  1  2  0  0  0  0
  3  4  2  0  0  0  0
  3  2  1  0  0  0  0
  4  5  1  0  0  0  0
  5  7  1  0  0  0  0
  5  6  2  0  0  0  0
  7 12  1  0  0  0  0
  8  9  2  0  0  0  0
 10  8  1  0  0  0  0
 10  3  1  0  0  0  0
 11  2  1  0  0  0  0
 13  7  1  0  0  0  0
 14 10  1  0  0  0  0
 15 21  1  0  0  0  0
 15 20  1  0  0  0  0
 16 23  1  0  0  0  0
 16 15  1  0  0  0  0
 16 17  1  0  0  0  0
 17 18  1  0  0  0  0
 18 27  1  0  0  0  0
 18 19  1  0  0  0  0
 18 26  1  0  0  0  0
 19 29  1  0  0  0  0
 19 28  1  0  0  0  0
 20 30  1  0  0  0  0
 20 19  1  0  0  0  0
 22 16  1  0  0  0  0
 24 17  1  0  0  0  0
 25 17  1  0  0  0  0
 31 20  1  0  0  0  0
 32  8  1  0  0  0  0
 33 32  1  0  0  0  0
 33 34  1  0  0  0  0
 35 33  1  0  0  0  0
 36 35  1  0  0  0  0
 37 38  1  0  0  0  0
 37 35  1  0  0  0  0
 38 40  1  0  0  0  0
 39 38  1  0  0  0  0
 40 41  1  0  0  0  0
 40 32  1  0  0  0  0
M  END
>  <minimizedAffinity>
-5.7442255

>  <minimizedRMSD>
1.48076868

$$$$
