
 OpenBabel03242516533D

 46 49  0  0  1  0  0  0  0  0999 V2000
   47.8600   32.8710   41.8500 C   0  0  1  0  0  0  0  0  0  0  0  0
   47.5730   32.1520   40.6100 C   0  0  0  0  0  0  0  0  0  0  0  0
   48.5790   32.6600   39.5840 C   0  0  0  0  0  0  0  0  0  0  0  0
   48.2010   34.0990   39.2740 C   0  0  0  0  0  0  0  0  0  0  0  0
   48.0960   34.9810   40.4800 C   0  0  0  0  0  0  0  0  0  0  0  0
   47.6110   34.3790   41.7220 C   0  0  1  0  0  0  0  0  0  0  0  0
   48.9770   32.8330   42.0360 H   0  0  0  0  0  0  0  0  0  0  0  0
   46.5310   32.3360   40.2570 H   0  0  0  0  0  0  0  0  0  0  0  0
   47.6690   31.0760   40.7590 H   0  0  0  0  0  0  0  0  0  0  0  0
   49.5810   32.5960   40.0420 H   0  0  0  0  0  0  0  0  0  0  0  0
   48.4590   32.0910   38.6520 H   0  0  0  0  0  0  0  0  0  0  0  0
   47.2490   34.0770   38.7080 H   0  0  0  0  0  0  0  0  0  0  0  0
   48.9700   34.4870   38.5740 H   0  0  0  0  0  0  0  0  0  0  0  0
   49.1100   35.4430   40.6190 H   0  0  0  0  0  0  0  0  0  0  0  0
   47.4440   35.8430   40.2020 H   0  0  0  0  0  0  0  0  0  0  0  0
   48.1870   34.8270   42.5870 H   0  0  0  0  0  0  0  0  0  0  0  0
   45.4760   30.9770   44.0940 C   0  0  0  0  0  0  0  0  0  0  0  0
   46.1480   31.4970   42.9820 C   0  0  0  0  0  0  0  0  0  0  0  0
   47.2300   32.3780   43.0580 C   0  0  0  0  0  0  0  0  0  0  0  0
   47.6070   32.7120   44.2930 N   0  0  0  0  0  0  0  0  0  0  0  0
   46.9660   32.2170   45.3850 C   0  0  0  0  0  0  0  0  0  0  0  0
   45.9330   31.3760   45.3020 N   0  0  0  0  0  0  0  0  0  0  0  0
   44.6570   30.3060   43.8920 H   0  0  0  0  0  0  0  0  0  0  0  0
   45.8290   31.2140   41.9870 H   0  0  0  0  0  0  0  0  0  0  0  0
   47.3380   32.5420   46.3620 H   0  0  0  0  0  0  0  0  0  0  0  0
   46.2140   34.7170   42.0090 C   0  0  0  0  0  0  0  0  0  0  0  0
   45.7180   35.2300   43.2160 C   0  0  0  0  0  0  0  0  0  0  0  0
   44.3480   35.4910   43.2530 C   0  0  0  0  0  0  0  0  0  0  0  0
   43.6070   35.2270   42.1210 C   0  0  0  0  0  0  0  0  0  0  0  0
   44.1110   34.7200   40.9350 C   0  0  0  0  0  0  0  0  0  0  0  0
   45.4520   34.4700   40.9140 N   0  0  0  0  0  0  0  0  0  0  0  0
   46.4170   35.3740   43.9860 H   0  0  0  0  0  0  0  0  0  0  0  0
   43.9530   35.8810   44.1600 H   0  0  0  0  0  0  0  0  0  0  0  0
   42.5360   35.4350   42.1620 H   0  0  0  0  0  0  0  0  0  0  0  0
   43.2470   34.4790   39.7860 C   0  0  0  0  0  0  0  0  0  0  0  0
   42.4870   35.4150   39.4080 O   0  0  0  0  0  0  0  0  0  0  0  0
   43.2430   33.1630   39.0600 C   0  0  0  0  0  3  0  0  0  0  0  0
   42.9600   32.0290   40.0240 C   0  0  0  0  0  3  0  0  0  0  0  0
   42.0900   31.4210   39.7000 H   0  0  0  0  0  0  0  0  0  0  0  0
   44.1360   31.0810   40.1540 C   0  0  0  0  0  3  0  0  0  0  0  0
   43.7630   30.2560   40.8230 H   0  0  0  0  0  0  0  0  0  0  0  0
   44.5560   30.5530   38.9440 O   0  0  0  0  0  0  0  0  0  0  0  0
   44.5210   31.4740   37.9080 C   0  0  0  0  0  3  0  0  0  0  0  0
   45.2410   31.2670   37.1140 H   0  0  0  0  0  0  0  0  0  0  0  0
   44.6150   32.8740   38.4770 C   0  0  0  0  0  3  0  0  0  0  0  0
   44.9200   33.5810   37.7010 H   0  0  0  0  0  0  0  0  0  0  0  0
  1  7  1  1  0  0  0
  1 19  1  0  0  0  0
  2  9  1  0  0  0  0
  2  1  1  0  0  0  0
  3 10  1  0  0  0  0
  3  2  1  0  0  0  0
  4  3  1  0  0  0  0
  4  5  1  0  0  0  0
  5 14  1  0  0  0  0
  5  6  1  0  0  0  0
  6  1  1  0  0  0  0
  6 26  1  0  0  0  0
  6 16  1  1  0  0  0
  8  2  1  0  0  0  0
 11  3  1  0  0  0  0
 12  4  1  0  0  0  0
 13  4  1  0  0  0  0
 15  5  1  0  0  0  0
 17 22  1  0  0  0  0
 18 19  1  0  0  0  0
 18 17  2  0  0  0  0
 19 20  2  0  0  0  0
 20 21  1  0  0  0  0
 21 25  1  0  0  0  0
 22 21  2  0  0  0  0
 23 17  1  0  0  0  0
 24 18  1  0  0  0  0
 26 27  1  0  0  0  0
 27 28  2  0  0  0  0
 27 32  1  0  0  0  0
 28 33  1  0  0  0  0
 29 34  1  0  0  0  0
 29 28  1  0  0  0  0
 30 29  2  0  0  0  0
 31 30  1  0  0  0  0
 31 26  2  0  0  0  0
 35 30  1  0  0  0  0
 36 35  2  0  0  0  0
 37 35  1  0  0  0  0
 37 38  1  0  0  0  0
 38 40  1  0  0  0  0
 39 38  1  0  0  0  0
 40 41  1  0  0  0  0
 42 40  1  0  0  0  0
 43 45  1  0  0  0  0
 43 42  1  0  0  0  0
 44 43  1  0  0  0  0
 45 37  1  0  0  0  0
 46 45  1  0  0  0  0
M  END
>  <minimizedAffinity>
-5.01612806

>  <minimizedRMSD>
0.312948972

$$$$
