
 OpenBabel03242523543D

 46 49  0  0  1  0  0  0  0  0999 V2000
   42.8070   34.5090   38.7310 C   0  0  1  0  0  0  0  0  0  0  0  0
   42.9740   35.1800   40.0870 C   0  0  1  0  0  0  0  0  0  0  0  0
   41.6890   35.4190   40.6180 O   0  0  0  0  0  0  0  0  0  0  0  0
   40.7630   35.7770   39.6340 C   0  0  0  0  0  0  0  0  0  0  0  0
   40.4290   34.6150   38.7210 C   0  0  2  0  0  0  0  0  0  0  0  0
   41.6220   33.6040   38.8500 C   0  0  1  0  0  0  0  0  0  0  0  0
   43.7250   33.9280   38.4730 H   0  0  0  0  0  0  0  0  0  0  0  0
   43.5780   36.0900   40.0580 H   0  0  0  0  0  0  0  0  0  0  0  0
   41.0710   36.6860   39.0660 H   0  0  0  0  0  0  0  0  0  0  0  0
   39.8610   36.0940   40.1980 H   0  0  0  0  0  0  0  0  0  0  0  0
   39.4950   34.1040   39.0050 H   0  0  0  0  0  0  0  0  0  0  0  0
   41.4010   33.3250   39.9290 H   0  0  0  0  0  0  0  0  0  0  0  0
   42.6030   35.4650   37.7270 O   0  0  0  0  0  0  0  0  0  0  0  0
   42.9410   35.1410   36.8580 H   0  0  0  0  0  0  0  0  0  0  0  0
   40.4410   35.0410   37.4030 O   0  0  0  0  0  0  0  0  0  0  0  0
   40.4910   34.2860   36.7640 H   0  0  0  0  0  0  0  0  0  0  0  0
   43.4960   34.1720   40.9250 O   0  0  0  0  0  0  0  0  0  0  0  0
   44.5980   34.3030   41.6700 C   0  0  0  0  0  0  0  0  0  0  0  0
   45.8650   34.4220   41.0800 C   0  0  0  0  0  0  0  0  0  0  0  0
   46.9690   34.5560   41.9030 C   0  0  0  0  0  0  0  0  0  0  0  0
   46.7960   34.5680   43.2780 N   0  0  0  0  0  0  0  0  0  0  0  0
   45.5580   34.4500   43.8100 C   0  0  0  0  0  0  0  0  0  0  0  0
   44.4680   34.3180   43.0150 N   0  0  0  0  0  0  0  0  0  0  0  0
   45.9870   34.4110   40.0150 H   0  0  0  0  0  0  0  0  0  0  0  0
   45.4400   34.4610   44.8880 H   0  0  0  0  0  0  0  0  0  0  0  0
   48.3540   34.6670   41.3460 C   0  0  0  0  0  0  0  0  0  0  0  0
   49.0580   36.0130   41.5170 C   0  0  0  0  0  0  0  0  0  0  0  0
   49.4930   34.7070   42.2060 C   0  0  0  0  0  0  0  0  0  0  0  0
   48.4240   34.2090   40.3260 H   0  0  0  0  0  0  0  0  0  0  0  0
   48.4820   36.7560   42.0880 H   0  0  0  0  0  0  0  0  0  0  0  0
   49.6220   36.3490   40.6500 H   0  0  0  0  0  0  0  0  0  0  0  0
   50.4540   34.3380   41.8510 H   0  0  0  0  0  0  0  0  0  0  0  0
   49.3240   34.7610   43.3140 H   0  0  0  0  0  0  0  0  0  0  0  0
   41.4700   32.6780   37.8850 O   0  0  0  0  0  0  0  0  0  0  0  0
   40.7380   31.5480   37.8930 C   0  0  0  0  0  0  0  0  0  0  0  0
   39.5030   31.5170   37.4640 O   0  0  0  0  0  0  0  0  0  0  0  0
   40.6020   30.0980   38.1860 C   0  0  0  0  0  3  0  0  0  0  0  0
   40.2020   29.2940   36.9820 C   0  0  0  0  0  3  0  0  0  0  0  0
   41.0320   29.1900   36.2550 H   0  0  0  0  0  0  0  0  0  0  0  0
   39.8810   27.9150   37.5260 C   0  0  0  0  0  3  0  0  0  0  0  0
   39.0520   28.0870   38.2700 H   0  0  0  0  0  0  0  0  0  0  0  0
   40.9970   27.3540   38.1020 O   0  0  0  0  0  0  0  0  0  0  0  0
   41.4960   28.0830   39.1670 C   0  0  0  0  0  3  0  0  0  0  0  0
   40.6580   28.2490   39.8950 H   0  0  0  0  0  0  0  0  0  0  0  0
   41.8810   29.4870   38.7070 C   0  0  0  0  0  3  0  0  0  0  0  0
   42.6670   29.4510   37.9300 H   0  0  0  0  0  0  0  0  0  0  0  0
  1  7  1  6  0  0  0
  1  6  1  0  0  0  0
  1  2  1  0  0  0  0
  2  8  1  6  0  0  0
  2  3  1  0  0  0  0
  2 17  1  0  0  0  0
  4 10  1  0  0  0  0
  4  3  1  0  0  0  0
  5  6  1  0  0  0  0
  5 11  1  1  0  0  0
  5  4  1  0  0  0  0
  6 12  1  1  0  0  0
  9  4  1  0  0  0  0
 13  1  1  0  0  0  0
 14 13  1  0  0  0  0
 15  5  1  0  0  0  0
 16 15  1  0  0  0  0
 17 18  1  0  0  0  0
 18 23  1  0  0  0  0
 19 18  2  0  0  0  0
 19 20  1  0  0  0  0
 20 21  2  0  0  0  0
 21 22  1  0  0  0  0
 22 25  1  0  0  0  0
 23 22  2  0  0  0  0
 24 19  1  0  0  0  0
 26 27  1  0  0  0  0
 26 20  1  0  0  0  0
 26 28  1  0  0  0  0
 27 30  1  0  0  0  0
 27 28  1  0  0  0  0
 28 33  1  0  0  0  0
 29 26  1  0  0  0  0
 31 27  1  0  0  0  0
 32 28  1  0  0  0  0
 34 35  1  0  0  0  0
 34  6  1  0  0  0  0
 35 37  1  0  0  0  0
 36 35  2  0  0  0  0
 37 45  1  0  0  0  0
 38 40  1  0  0  0  0
 38 37  1  0  0  0  0
 39 38  1  0  0  0  0
 40 42  1  0  0  0  0
 40 41  1  0  0  0  0
 42 43  1  0  0  0  0
 43 44  1  0  0  0  0
 45 43  1  0  0  0  0
 46 45  1  0  0  0  0
M  END
>  <minimizedAffinity>
-5.67799473

>  <minimizedRMSD>
0.230841398

$$$$
