
 OpenBabel03252507463D

 38 40  0  0  0  0  0  0  0  0999 V2000
   47.3800   34.6080   40.9430 C   0  0  0  0  0  0  0  0  0  0  0  0
   46.7850   33.9630   40.2740 H   0  0  0  0  0  0  0  0  0  0  0  0
   47.6560   35.5160   40.3490 H   0  0  0  0  0  0  0  0  0  0  0  0
   48.6490   33.9680   41.3440 C   0  0  0  0  0  0  0  0  0  0  0  0
   48.8860   32.6910   40.8410 C   0  0  0  0  0  0  0  0  0  0  0  0
   50.0550   32.0310   41.1690 C   0  0  0  0  0  0  0  0  0  0  0  0
   50.9450   32.6620   41.9860 N   0  0  0  0  0  0  0  0  0  0  0  0
   50.6800   33.9050   42.4570 C   0  0  0  0  0  0  0  0  0  0  0  0
   49.5590   34.5190   42.1310 N   0  0  0  0  0  0  0  0  0  0  0  0
   50.2460   31.0260   40.7760 H   0  0  0  0  0  0  0  0  0  0  0  0
   51.4370   34.3440   43.1030 H   0  0  0  0  0  0  0  0  0  0  0  0
   47.6750   31.9040   39.7630 S   0  0  0  0  0  0  0  0  0  0  0  0
   46.2240   31.3430   40.7080 C   0  0  0  0  0  3  0  0  0  0  0  0
   46.7020   30.9160   42.0710 C   0  0  0  0  0  3  0  0  0  0  0  0
   47.8020   30.7640   42.0670 H   0  0  0  0  0  0  0  0  0  0  0  0
   46.0890   29.5970   42.4320 C   0  0  0  0  0  3  0  0  0  0  0  0
   46.5940   28.8080   41.8440 H   0  0  0  0  0  0  0  0  0  0  0  0
   44.7290   29.6900   42.1380 O   0  0  0  0  0  0  0  0  0  0  0  0
   44.5170   29.5760   40.7770 C   0  0  0  0  0  3  0  0  0  0  0  0
   43.5900   30.1160   40.4860 H   0  0  0  0  0  0  0  0  0  0  0  0
   45.6520   30.1540   39.9710 C   0  0  0  0  0  3  0  0  0  0  0  0
   45.2800   30.5600   38.9950 H   0  0  0  0  0  0  0  0  0  0  0  0
   46.5490   35.0380   42.1000 C   0  0  0  0  0  0  0  0  0  0  0  0
   46.7440   34.3430   42.9500 H   0  0  0  0  0  0  0  0  0  0  0  0
   46.8300   36.0530   42.3980 H   0  0  0  0  0  0  0  0  0  0  0  0
   45.0780   34.9790   41.8460 C   0  0  0  0  0  0  0  0  0  0  0  0
   44.1640   35.5290   42.7930 C   0  0  0  0  0  0  0  0  0  0  0  0
   42.5310   35.2050   42.0250 S   0  0  0  0  0  0  0  0  0  0  0  0
   43.3660   34.3720   40.5330 C   0  0  0  0  0  0  0  0  0  0  0  0
   44.4720   34.4600   40.8060 N   0  0  0  0  0  0  0  0  0  0  0  0
   44.4150   36.0110   43.7260 H   0  0  0  0  0  0  0  0  0  0  0  0
   42.6470   33.8430   39.4670 O   0  0  0  0  0  0  0  0  0  0  0  0
   40.6720   34.1520   37.7390 O   0  0  0  0  0  0  0  0  0  0  0  0
   41.7230   34.9180   38.5330 P   0  0  0  0  0  0  0  0  0  0  0  0
   40.9600   35.9990   39.5910 O   0  0  0  0  0  0  0  0  0  0  0  0
   40.3560   35.5250   40.2020 H   0  0  0  0  0  0  0  0  0  0  0  0
   42.7260   35.8050   37.5050 O   0  0  0  0  0  0  0  0  0  0  0  0
   42.3540   35.7550   36.5750 H   0  0  0  0  0  0  0  0  0  0  0  0
  1  4  1  0  0  0  0
  1 23  1  0  0  0  0
  2  1  1  0  0  0  0
  3  1  1  0  0  0  0
  4  9  1  0  0  0  0
  5  6  1  0  0  0  0
  5  4  2  0  0  0  0
  6  7  2  0  0  0  0
  7  8  1  0  0  0  0
  8 11  1  0  0  0  0
  9  8  2  0  0  0  0
 10  6  1  0  0  0  0
 12 13  1  0  0  0  0
 12  5  1  0  0  0  0
 13 14  1  0  0  0  0
 14 16  1  0  0  0  0
 15 14  1  0  0  0  0
 17 16  1  0  0  0  0
 18 16  1  0  0  0  0
 19 18  1  0  0  0  0
 20 19  1  0  0  0  0
 21 13  1  0  0  0  0
 21 19  1  0  0  0  0
 22 21  1  0  0  0  0
 23 25  1  0  0  0  0
 23 24  1  0  0  0  0
 26 23  1  0  0  0  0
 26 27  2  0  0  0  0
 27 31  1  0  0  0  0
 28 27  1  0  0  0  0
 29 30  2  0  0  0  0
 29 28  1  0  0  0  0
 30 26  1  0  0  0  0
 32 29  1  0  0  0  0
 33 34  2  0  0  0  0
 34 32  1  0  0  0  0
 34 35  1  0  0  0  0
 35 36  1  0  0  0  0
 37 34  1  0  0  0  0
 38 37  1  0  0  0  0
M  END
>  <minimizedAffinity>
-4.31771469

>  <minimizedRMSD>
0.8430444

$$$$
