
 OpenBabel03252503353D

 23 24  0  0  0  0  0  0  0  0999 V2000
   46.0570   33.5720   40.7940 C   0  0  0  0  0  0  0  0  0  0  0  0
   44.8530   33.2290   41.0640 O   0  0  0  0  0  0  0  0  0  0  0  0
   46.6630   34.3370   41.8220 N   0  0  0  0  0  0  0  0  0  0  0  0
   47.6430   34.6510   41.6950 H   0  0  0  0  0  0  0  0  0  0  0  0
   46.7090   33.1940   39.5360 C   0  0  0  0  0  3  0  0  0  0  0  0
   47.8460   34.1230   39.1510 C   0  0  0  0  0  3  0  0  0  0  0  0
   47.4120   35.0160   38.7010 H   0  0  0  0  0  0  0  0  0  0  0  0
   48.6480   33.3780   38.0880 C   0  0  0  0  0  3  0  0  0  0  0  0
   49.3270   32.6160   38.5530 H   0  0  0  0  0  0  0  0  0  0  0  0
   47.8490   32.6830   37.2010 O   0  0  0  0  0  0  0  0  0  0  0  0
   46.6040   33.2740   37.1020 C   0  0  0  0  0  3  0  0  0  0  0  0
   46.0130   32.8640   36.2620 H   0  0  0  0  0  0  0  0  0  0  0  0
   45.7750   33.1080   38.3620 C   0  0  0  0  0  3  0  0  0  0  0  0
   45.0300   33.9300   38.3460 H   0  0  0  0  0  0  0  0  0  0  0  0
   44.6370   36.1480   44.3630 C   0  0  0  0  0  0  0  0  0  0  0  0
   45.2750   35.8860   43.1380 C   0  0  0  0  0  0  0  0  0  0  0  0
   45.9890   34.6890   43.0120 C   0  0  0  0  0  0  0  0  0  0  0  0
   46.0390   33.8400   44.0630 N   0  0  0  0  0  0  0  0  0  0  0  0
   45.4110   34.1180   45.2430 C   0  0  0  0  0  0  0  0  0  0  0  0
   44.7210   35.2650   45.3770 N   0  0  0  0  0  0  0  0  0  0  0  0
   44.0820   37.0860   44.4490 H   0  0  0  0  0  0  0  0  0  0  0  0
   45.2270   36.5720   42.3070 H   0  0  0  0  0  0  0  0  0  0  0  0
   45.4360   33.4550   46.0960 H   0  0  0  0  0  0  0  0  0  0  0  0
  1  2  2  0  0  0  0
  1  3  1  0  0  0  0
  3 17  1  0  0  0  0
  4  3  1  0  0  0  0
  5  1  1  0  0  0  0
  6  5  1  0  0  0  0
  7  6  1  0  0  0  0
  8  9  1  0  0  0  0
  8  6  1  0  0  0  0
 10  8  1  0  0  0  0
 11 10  1  0  0  0  0
 11 13  1  0  0  0  0
 12 11  1  0  0  0  0
 13  5  1  0  0  0  0
 14 13  1  0  0  0  0
 15 21  1  0  0  0  0
 15 20  1  0  0  0  0
 16 15  2  0  0  0  0
 17 16  1  0  0  0  0
 17 18  2  0  0  0  0
 18 19  1  0  0  0  0
 19 20  2  0  0  0  0
 19 23  1  0  0  0  0
 22 16  1  0  0  0  0
M  END
>  <minimizedAffinity>
-4.06213093

>  <minimizedRMSD>
0.869645298

$$$$
