
 OpenBabel03242521173D

 39 41  0  0  0  0  0  0  0  0999 V2000
   46.6780   32.7990   46.5220 C   0  0  0  0  0  0  0  0  0  0  0  0
   47.0460   31.9080   46.0030 H   0  0  0  0  0  0  0  0  0  0  0  0
   47.5850   33.3170   46.9440 H   0  0  0  0  0  0  0  0  0  0  0  0
   44.5730   35.4370   44.9050 C   0  0  0  0  0  0  0  0  0  0  0  0
   45.1470   35.4610   43.6230 C   0  0  0  0  0  0  0  0  0  0  0  0
   46.2000   34.5900   43.3920 C   0  0  0  0  0  0  0  0  0  0  0  0
   46.6280   33.7570   44.4080 N   0  0  0  0  0  0  0  0  0  0  0  0
   46.0400   33.7810   45.6090 C   0  0  0  0  0  0  0  0  0  0  0  0
   45.0000   34.6200   45.8870 N   0  0  0  0  0  0  0  0  0  0  0  0
   43.7400   36.1060   45.1310 H   0  0  0  0  0  0  0  0  0  0  0  0
   44.7740   36.1280   42.8710 H   0  0  0  0  0  0  0  0  0  0  0  0
   46.8050   34.5920   42.0960 N   0  0  0  0  0  0  0  0  0  0  0  0
   47.9760   35.2230   41.9360 C   0  0  0  0  0  0  0  0  0  0  0  0
   48.5730   35.2330   40.6890 C   0  0  0  0  0  0  0  0  0  0  0  0
   47.9350   34.5950   39.6710 C   0  0  0  0  0  0  0  0  0  0  0  0
   48.4900   34.6080   38.5180 O   0  0  0  0  0  0  0  0  0  0  0  0
   46.7530   33.9520   39.8070 N   0  0  0  0  0  0  0  0  0  0  0  0
   46.2310   33.9820   41.0470 C   0  0  0  0  0  0  0  0  0  0  0  0
   45.1340   33.4150   41.2900 O   0  0  0  0  0  0  0  0  0  0  0  0
   48.4950   35.7360   42.7450 H   0  0  0  0  0  0  0  0  0  0  0  0
   49.5190   35.7330   40.5200 H   0  0  0  0  0  0  0  0  0  0  0  0
   46.2730   33.4660   39.0170 H   0  0  0  0  0  0  0  0  0  0  0  0
   45.7810   32.4810   47.6910 C   0  0  0  0  0  0  0  0  0  0  0  0
   45.1440   33.3620   47.8850 H   0  0  0  0  0  0  0  0  0  0  0  0
   46.3480   32.2770   48.6170 H   0  0  0  0  0  0  0  0  0  0  0  0
   45.2800   30.0770   47.6040 C   0  0  0  0  0  0  0  0  0  0  0  0
   46.3790   29.9360   48.2060 O   0  0  0  0  0  0  0  0  0  0  0  0
   44.8970   31.3880   47.3130 N   0  0  0  0  0  0  0  0  0  0  0  0
   44.0040   31.6100   46.8370 H   0  0  0  0  0  0  0  0  0  0  0  0
   44.4470   28.9020   47.2300 C   0  0  0  0  0  3  0  0  0  0  0  0
   44.2870   28.7760   45.7280 C   0  0  0  0  0  3  0  0  0  0  0  0
   45.2550   28.3990   45.3050 H   0  0  0  0  0  0  0  0  0  0  0  0
   43.2790   27.6590   45.4960 C   0  0  0  0  0  3  0  0  0  0  0  0
   42.9960   27.5660   44.4420 H   0  0  0  0  0  0  0  0  0  0  0  0
   43.9160   26.4830   45.9400 O   0  0  0  0  0  0  0  0  0  0  0  0
   44.0510   26.5120   47.3120 C   0  0  0  0  0  3  0  0  0  0  0  0
   44.5100   25.5480   47.6260 H   0  0  0  0  0  0  0  0  0  0  0  0
   44.9680   27.6080   47.7900 C   0  0  0  0  0  3  0  0  0  0  0  0
   46.0090   27.3830   47.5680 H   0  0  0  0  0  0  0  0  0  0  0  0
  1  3  1  0  0  0  0
  1 23  1  0  0  0  0
  2  1  1  0  0  0  0
  4 10  1  0  0  0  0
  4  9  1  0  0  0  0
  5  4  2  0  0  0  0
  6  5  1  0  0  0  0
  6  7  2  0  0  0  0
  7  8  1  0  0  0  0
  8  9  2  0  0  0  0
  8  1  1  0  0  0  0
 11  5  1  0  0  0  0
 12  6  1  0  0  0  0
 13 12  1  0  0  0  0
 13 20  1  0  0  0  0
 14 13  2  0  0  0  0
 15 17  1  0  0  0  0
 15 14  1  0  0  0  0
 16 15  2  0  0  0  0
 17 18  1  0  0  0  0
 18 19  2  0  0  0  0
 18 12  1  0  0  0  0
 21 14  1  0  0  0  0
 22 17  1  0  0  0  0
 23 24  1  0  0  0  0
 23 25  1  0  0  0  0
 26 27  2  0  0  0  0
 28 26  1  0  0  0  0
 28 23  1  0  0  0  0
 29 28  1  0  0  0  0
 30 26  1  0  0  0  0
 30 38  1  0  0  0  0
 31 30  1  0  0  0  0
 32 31  1  0  0  0  0
 33 31  1  0  0  0  0
 33 35  1  0  0  0  0
 34 33  1  0  0  0  0
 35 36  1  0  0  0  0
 36 37  1  0  0  0  0
 36 38  1  0  0  0  0
 39 38  1  0  0  0  0
M  END
>  <minimizedAffinity>
-6.23290205

>  <minimizedRMSD>
1.48143601

$$$$
