
 OpenBabel03242510523D

 23 24  0  0  0  0  0  0  0  0999 V2000
   37.2870   33.3170   39.2250 C   0  0  0  0  0  0  0  0  0  0  0  0
   38.1780   34.1610   39.9300 C   0  0  0  0  0  0  0  0  0  0  0  0
   39.0070   33.5580   40.8960 C   0  0  0  0  0  0  0  0  0  0  0  0
   38.9080   32.2150   41.0960 N   0  0  0  0  0  0  0  0  0  0  0  0
   38.0520   31.4510   40.4100 C   0  0  0  0  0  0  0  0  0  0  0  0
   37.2340   31.9990   39.4670 N   0  0  0  0  0  0  0  0  0  0  0  0
   38.6190   29.6240   41.8890 C   0  0  0  0  0  0  0  0  0  0  0  0
   39.1800   30.3620   42.7280 O   0  0  0  0  0  0  0  0  0  0  0  0
   38.0160   30.0590   40.6850 N   0  0  0  0  0  0  0  0  0  0  0  0
   36.6730   33.8260   38.4970 H   0  0  0  0  0  0  0  0  0  0  0  0
   38.2580   35.2210   39.7700 H   0  0  0  0  0  0  0  0  0  0  0  0
   39.7260   34.1090   41.4910 H   0  0  0  0  0  0  0  0  0  0  0  0
   37.5700   29.3740   40.0420 H   0  0  0  0  0  0  0  0  0  0  0  0
   38.5850   28.1510   42.1870 C   0  0  0  0  0  3  0  0  0  0  0  0
   37.2050   27.6450   42.4740 C   0  0  0  0  0  3  0  0  0  0  0  0
   36.5740   27.9060   41.6090 H   0  0  0  0  0  0  0  0  0  0  0  0
   37.3100   26.1350   42.5550 C   0  0  0  0  0  3  0  0  0  0  0  0
   36.8260   25.8000   43.5040 H   0  0  0  0  0  0  0  0  0  0  0  0
   38.6160   25.6730   42.6270 O   0  0  0  0  0  0  0  0  0  0  0  0
   39.2990   26.3430   43.6460 C   0  0  0  0  0  3  0  0  0  0  0  0
   40.2530   25.8340   43.8000 H   0  0  0  0  0  0  0  0  0  0  0  0
   39.5640   27.7870   43.2740 C   0  0  0  0  0  3  0  0  0  0  0  0
   39.3530   28.4700   44.1350 H   0  0  0  0  0  0  0  0  0  0  0  0
  1  6  2  0  0  0  0
  1  2  1  0  0  0  0
  2  3  2  0  0  0  0
  3  4  1  0  0  0  0
  3 12  1  0  0  0  0
  5  9  1  0  0  0  0
  5  4  2  0  0  0  0
  6  5  1  0  0  0  0
  7 14  1  0  0  0  0
  7  8  2  0  0  0  0
  9  7  1  0  0  0  0
 10  1  1  0  0  0  0
 11  2  1  0  0  0  0
 13  9  1  0  0  0  0
 14 15  1  0  0  0  0
 14 22  1  0  0  0  0
 15 17  1  0  0  0  0
 16 15  1  0  0  0  0
 17 19  1  0  0  0  0
 17 18  1  0  0  0  0
 19 20  1  0  0  0  0
 20 21  1  0  0  0  0
 22 20  1  0  0  0  0
 22 23  1  0  0  0  0
M  END
>  <minimizedAffinity>
-4.39776278

$$$$

 OpenBabel03242510523D

 23 24  0  0  0  0  0  0  0  0999 V2000
   36.9680   25.3900   40.3100 C   0  0  0  0  0  0  0  0  0  0  0  0
   37.0020   25.0880   41.6930 C   0  0  0  0  0  0  0  0  0  0  0  0
   37.0990   26.1720   42.5860 C   0  0  0  0  0  0  0  0  0  0  0  0
   37.1540   27.4340   42.0790 N   0  0  0  0  0  0  0  0  0  0  0  0
   37.1190   27.6800   40.7650 C   0  0  0  0  0  0  0  0  0  0  0  0
   37.0260   26.6550   39.8700 N   0  0  0  0  0  0  0  0  0  0  0  0
   37.6250   29.9910   41.2630 C   0  0  0  0  0  0  0  0  0  0  0  0
   37.9640   29.7550   42.4420 O   0  0  0  0  0  0  0  0  0  0  0  0
   37.1830   29.0270   40.3250 N   0  0  0  0  0  0  0  0  0  0  0  0
   36.8940   24.5260   39.6670 H   0  0  0  0  0  0  0  0  0  0  0  0
   36.9570   24.0910   42.0940 H   0  0  0  0  0  0  0  0  0  0  0  0
   37.1300   26.0550   43.6630 H   0  0  0  0  0  0  0  0  0  0  0  0
   36.9200   29.3130   39.3600 H   0  0  0  0  0  0  0  0  0  0  0  0
   37.6940   31.4210   40.8030 C   0  0  0  0  0  3  0  0  0  0  0  0
   37.2170   31.6070   39.3960 C   0  0  0  0  0  3  0  0  0  0  0  0
   36.1920   31.2050   39.3420 H   0  0  0  0  0  0  0  0  0  0  0  0
   37.1610   33.1020   39.1550 C   0  0  0  0  0  3  0  0  0  0  0  0
   37.7110   33.3260   38.2100 H   0  0  0  0  0  0  0  0  0  0  0  0
   37.8000   33.8450   40.1360 O   0  0  0  0  0  0  0  0  0  0  0  0
   39.0930   33.3530   40.3360 C   0  0  0  0  0  3  0  0  0  0  0  0
   39.6280   34.0640   40.9690 H   0  0  0  0  0  0  0  0  0  0  0  0
   39.0680   32.0030   41.0210 C   0  0  0  0  0  3  0  0  0  0  0  0
   39.7930   31.2960   40.5460 H   0  0  0  0  0  0  0  0  0  0  0  0
  1  2  1  0  0  0  0
  2 11  1  0  0  0  0
  2  3  2  0  0  0  0
  3 12  1  0  0  0  0
  4  3  1  0  0  0  0
  5  4  2  0  0  0  0
  6  1  2  0  0  0  0
  6  5  1  0  0  0  0
  7  8  2  0  0  0  0
  9  5  1  0  0  0  0
  9  7  1  0  0  0  0
 10  1  1  0  0  0  0
 13  9  1  0  0  0  0
 14 22  1  0  0  0  0
 14  7  1  0  0  0  0
 15 14  1  0  0  0  0
 16 15  1  0  0  0  0
 17 15  1  0  0  0  0
 17 19  1  0  0  0  0
 18 17  1  0  0  0  0
 19 20  1  0  0  0  0
 20 21  1  0  0  0  0
 20 22  1  0  0  0  0
 23 22  1  0  0  0  0
M  END
>  <minimizedAffinity>
-4.22613525

$$$$

 OpenBabel03242510523D

 23 24  0  0  0  0  0  0  0  0999 V2000
   36.9220   24.7050   42.1560 C   0  0  0  0  0  0  0  0  0  0  0  0
   36.5500   24.0780   40.9430 C   0  0  0  0  0  0  0  0  0  0  0  0
   36.4320   24.8990   39.8040 C   0  0  0  0  0  0  0  0  0  0  0  0
   36.6790   26.2320   39.9300 N   0  0  0  0  0  0  0  0  0  0  0  0
   37.0290   26.7870   41.0950 C   0  0  0  0  0  0  0  0  0  0  0  0
   37.1530   26.0250   42.2190 N   0  0  0  0  0  0  0  0  0  0  0  0
   36.7870   28.9520   40.0450 C   0  0  0  0  0  0  0  0  0  0  0  0
   36.1740   28.5010   39.0540 O   0  0  0  0  0  0  0  0  0  0  0  0
   37.2660   28.1860   41.1350 N   0  0  0  0  0  0  0  0  0  0  0  0
   36.9980   24.0340   42.9990 H   0  0  0  0  0  0  0  0  0  0  0  0
   36.3560   23.0260   40.8420 H   0  0  0  0  0  0  0  0  0  0  0  0
   36.1550   24.5240   38.8260 H   0  0  0  0  0  0  0  0  0  0  0  0
   37.7690   28.6450   41.9210 H   0  0  0  0  0  0  0  0  0  0  0  0
   37.0370   30.4350   40.0810 C   0  0  0  0  0  3  0  0  0  0  0  0
   37.1570   31.0400   38.7170 C   0  0  0  0  0  3  0  0  0  0  0  0
   36.2360   30.7900   38.1660 H   0  0  0  0  0  0  0  0  0  0  0  0
   37.2050   32.5410   38.9160 C   0  0  0  0  0  3  0  0  0  0  0  0
   38.0850   32.9420   38.3580 H   0  0  0  0  0  0  0  0  0  0  0  0
   37.4060   32.9190   40.2360 O   0  0  0  0  0  0  0  0  0  0  0  0
   38.5120   32.2430   40.7580 C   0  0  0  0  0  3  0  0  0  0  0  0
   38.7550   32.6940   41.7230 H   0  0  0  0  0  0  0  0  0  0  0  0
   38.2130   30.7730   40.9610 C   0  0  0  0  0  3  0  0  0  0  0  0
   39.0660   30.1370   40.6130 H   0  0  0  0  0  0  0  0  0  0  0  0
  1  6  1  0  0  0  0
  1 10  1  0  0  0  0
  2  1  2  0  0  0  0
  3  4  2  0  0  0  0
  3  2  1  0  0  0  0
  4  5  1  0  0  0  0
  5  9  1  0  0  0  0
  5  6  2  0  0  0  0
  7 14  1  0  0  0  0
  7  9  1  0  0  0  0
  8  7  2  0  0  0  0
  9 13  1  0  0  0  0
 11  2  1  0  0  0  0
 12  3  1  0  0  0  0
 14 22  1  0  0  0  0
 15 17  1  0  0  0  0
 15 14  1  0  0  0  0
 16 15  1  0  0  0  0
 17 19  1  0  0  0  0
 18 17  1  0  0  0  0
 19 20  1  0  0  0  0
 20 22  1  0  0  0  0
 20 21  1  0  0  0  0
 23 22  1  0  0  0  0
M  END
>  <minimizedAffinity>
-4.08509684

$$$$

 OpenBabel03242510523D

 23 24  0  0  0  0  0  0  0  0999 V2000
   39.8430   34.1610   40.3880 C   0  0  0  0  0  0  0  0  0  0  0  0
   41.2460   34.0840   40.5590 C   0  0  0  0  0  0  0  0  0  0  0  0
   41.7760   32.8470   40.9760 C   0  0  0  0  0  0  0  0  0  0  0  0
   40.9230   31.8090   41.1890 N   0  0  0  0  0  0  0  0  0  0  0  0
   39.6020   31.9210   41.0170 C   0  0  0  0  0  0  0  0  0  0  0  0
   39.0520   33.1020   40.6140 N   0  0  0  0  0  0  0  0  0  0  0  0
   39.3650   29.7250   42.0010 C   0  0  0  0  0  0  0  0  0  0  0  0
   40.5300   29.7050   42.4520 O   0  0  0  0  0  0  0  0  0  0  0  0
   38.7870   30.7860   41.2630 N   0  0  0  0  0  0  0  0  0  0  0  0
   39.4860   35.1290   40.0680 H   0  0  0  0  0  0  0  0  0  0  0  0
   41.9200   34.9040   40.3890 H   0  0  0  0  0  0  0  0  0  0  0  0
   42.8350   32.6770   41.1350 H   0  0  0  0  0  0  0  0  0  0  0  0
   37.8050   30.7180   40.9250 H   0  0  0  0  0  0  0  0  0  0  0  0
   38.5070   28.5190   42.2650 C   0  0  0  0  0  3  0  0  0  0  0  0
   37.6920   28.1100   41.0770 C   0  0  0  0  0  3  0  0  0  0  0  0
   38.3920   27.9440   40.2420 H   0  0  0  0  0  0  0  0  0  0  0  0
   37.0470   26.7860   41.4350 C   0  0  0  0  0  3  0  0  0  0  0  0
   35.9530   26.8610   41.2250 H   0  0  0  0  0  0  0  0  0  0  0  0
   37.1410   26.4700   42.7820 O   0  0  0  0  0  0  0  0  0  0  0  0
   36.6910   27.5450   43.5530 C   0  0  0  0  0  3  0  0  0  0  0  0
   36.6020   27.2020   44.5870 H   0  0  0  0  0  0  0  0  0  0  0  0
   37.6630   28.7050   43.5000 C   0  0  0  0  0  3  0  0  0  0  0  0
   37.1230   29.6770   43.3730 H   0  0  0  0  0  0  0  0  0  0  0  0
  1  2  2  0  0  0  0
  1  6  1  0  0  0  0
  2  3  1  0  0  0  0
  3 12  1  0  0  0  0
  3  4  2  0  0  0  0
  5  4  1  0  0  0  0
  5  9  1  0  0  0  0
  6  5  2  0  0  0  0
  7 14  1  0  0  0  0
  7  8  2  0  0  0  0
  9  7  1  0  0  0  0
 10  1  1  0  0  0  0
 11  2  1  0  0  0  0
 13  9  1  0  0  0  0
 14 22  1  0  0  0  0
 15 17  1  0  0  0  0
 15 14  1  0  0  0  0
 16 15  1  0  0  0  0
 17 19  1  0  0  0  0
 18 17  1  0  0  0  0
 19 20  1  0  0  0  0
 20 21  1  0  0  0  0
 22 20  1  0  0  0  0
 23 22  1  0  0  0  0
M  END
>  <minimizedAffinity>
-4.07862949

$$$$

 OpenBabel03242510523D

 23 24  0  0  0  0  0  0  0  0999 V2000
   37.3240   32.9340   39.1850 C   0  0  0  0  0  0  0  0  0  0  0  0
   38.1900   33.4810   40.1620 C   0  0  0  0  0  0  0  0  0  0  0  0
   38.8100   32.5800   41.0500 C   0  0  0  0  0  0  0  0  0  0  0  0
   38.5450   31.2510   40.9220 N   0  0  0  0  0  0  0  0  0  0  0  0
   37.7190   30.7720   39.9860 C   0  0  0  0  0  0  0  0  0  0  0  0
   37.1020   31.6140   39.1080 N   0  0  0  0  0  0  0  0  0  0  0  0
   37.8810   28.6110   41.0580 C   0  0  0  0  0  0  0  0  0  0  0  0
   38.3930   29.0690   42.1020 O   0  0  0  0  0  0  0  0  0  0  0  0
   37.5000   29.3710   39.9260 N   0  0  0  0  0  0  0  0  0  0  0  0
   36.8750   33.6650   38.5300 H   0  0  0  0  0  0  0  0  0  0  0  0
   38.4010   34.5310   40.2620 H   0  0  0  0  0  0  0  0  0  0  0  0
   39.4910   32.8890   41.8330 H   0  0  0  0  0  0  0  0  0  0  0  0
   37.0800   28.9060   39.0960 H   0  0  0  0  0  0  0  0  0  0  0  0
   37.6530   27.1260   41.0010 C   0  0  0  0  0  3  0  0  0  0  0  0
   36.6070   26.7330   40.0040 C   0  0  0  0  0  3  0  0  0  0  0  0
   36.9160   27.1400   39.0280 H   0  0  0  0  0  0  0  0  0  0  0  0
   36.6360   25.2200   39.9250 C   0  0  0  0  0  3  0  0  0  0  0  0
   35.5940   24.8410   40.0540 H   0  0  0  0  0  0  0  0  0  0  0  0
   37.3700   24.6260   40.9410 O   0  0  0  0  0  0  0  0  0  0  0  0
   36.9500   25.1200   42.1800 C   0  0  0  0  0  3  0  0  0  0  0  0
   37.4080   24.5060   42.9580 H   0  0  0  0  0  0  0  0  0  0  0  0
   37.3760   26.5600   42.3710 C   0  0  0  0  0  3  0  0  0  0  0  0
   36.5470   27.1710   42.8070 H   0  0  0  0  0  0  0  0  0  0  0  0
  1  2  1  0  0  0  0
  2 11  1  0  0  0  0
  2  3  2  0  0  0  0
  3 12  1  0  0  0  0
  4  3  1  0  0  0  0
  5  4  2  0  0  0  0
  6  1  2  0  0  0  0
  6  5  1  0  0  0  0
  7  8  2  0  0  0  0
  9  5  1  0  0  0  0
  9  7  1  0  0  0  0
 10  1  1  0  0  0  0
 13  9  1  0  0  0  0
 14  7  1  0  0  0  0
 14 22  1  0  0  0  0
 15 14  1  0  0  0  0
 16 15  1  0  0  0  0
 17 15  1  0  0  0  0
 17 18  1  0  0  0  0
 17 19  1  0  0  0  0
 19 20  1  0  0  0  0
 20 22  1  0  0  0  0
 20 21  1  0  0  0  0
 22 23  1  0  0  0  0
M  END
>  <minimizedAffinity>
-4.04429197

$$$$

 OpenBabel03242510523D

 23 24  0  0  0  0  0  0  0  0999 V2000
   37.6980   25.0450   40.6580 C   0  0  0  0  0  0  0  0  0  0  0  0
   37.1380   24.9470   41.9540 C   0  0  0  0  0  0  0  0  0  0  0  0
   36.9020   26.1520   42.6460 C   0  0  0  0  0  0  0  0  0  0  0  0
   37.2210   27.3270   42.0390 N   0  0  0  0  0  0  0  0  0  0  0  0
   37.7500   27.3790   40.8120 C   0  0  0  0  0  0  0  0  0  0  0  0
   37.9920   26.2340   40.1110 N   0  0  0  0  0  0  0  0  0  0  0  0
   38.1070   29.7470   41.1490 C   0  0  0  0  0  0  0  0  0  0  0  0
   37.9110   29.6900   42.3820 O   0  0  0  0  0  0  0  0  0  0  0  0
   38.0530   28.6490   40.2570 N   0  0  0  0  0  0  0  0  0  0  0  0
   37.8600   24.0960   40.1700 H   0  0  0  0  0  0  0  0  0  0  0  0
   36.8840   24.0190   42.4330 H   0  0  0  0  0  0  0  0  0  0  0  0
   36.4760   26.1930   43.6410 H   0  0  0  0  0  0  0  0  0  0  0  0
   38.2300   28.7870   39.2410 H   0  0  0  0  0  0  0  0  0  0  0  0
   38.4270   31.0960   40.5680 C   0  0  0  0  0  3  0  0  0  0  0  0
   39.3870   31.8810   41.4050 C   0  0  0  0  0  3  0  0  0  0  0  0
   40.2900   31.2620   41.5340 H   0  0  0  0  0  0  0  0  0  0  0  0
   39.7560   33.1090   40.5990 C   0  0  0  0  0  3  0  0  0  0  0  0
   39.6130   34.0090   41.2440 H   0  0  0  0  0  0  0  0  0  0  0  0
   38.9380   33.3150   39.4970 O   0  0  0  0  0  0  0  0  0  0  0  0
   37.5970   33.2770   39.8900 C   0  0  0  0  0  3  0  0  0  0  0  0
   36.9920   33.6230   39.0490 H   0  0  0  0  0  0  0  0  0  0  0  0
   37.1710   31.8720   40.2600 C   0  0  0  0  0  3  0  0  0  0  0  0
   36.5570   31.8710   41.1950 H   0  0  0  0  0  0  0  0  0  0  0  0
  1  2  1  0  0  0  0
  2 11  1  0  0  0  0
  2  3  2  0  0  0  0
  3 12  1  0  0  0  0
  4  3  1  0  0  0  0
  5  4  2  0  0  0  0
  6  1  2  0  0  0  0
  6  5  1  0  0  0  0
  7  8  2  0  0  0  0
  9  5  1  0  0  0  0
  9  7  1  0  0  0  0
 10  1  1  0  0  0  0
 13  9  1  0  0  0  0
 14  7  1  0  0  0  0
 14 15  1  0  0  0  0
 15 16  1  0  0  0  0
 17 18  1  0  0  0  0
 17 15  1  0  0  0  0
 19 20  1  0  0  0  0
 19 17  1  0  0  0  0
 20 22  1  0  0  0  0
 21 20  1  0  0  0  0
 22 14  1  0  0  0  0
 22 23  1  0  0  0  0
M  END
>  <minimizedAffinity>
-4.02395105

$$$$

 OpenBabel03242510523D

 23 24  0  0  0  0  0  0  0  0999 V2000
   39.3240   24.6370   41.8420 C   0  0  0  0  0  0  0  0  0  0  0  0
   38.0530   24.0240   41.9620 C   0  0  0  0  0  0  0  0  0  0  0  0
   36.9240   24.8420   41.7590 C   0  0  0  0  0  0  0  0  0  0  0  0
   37.1130   26.1570   41.4640 N   0  0  0  0  0  0  0  0  0  0  0  0
   38.3310   26.6990   41.3600 C   0  0  0  0  0  0  0  0  0  0  0  0
   39.4480   25.9390   41.5500 N   0  0  0  0  0  0  0  0  0  0  0  0
   37.2690   28.8660   41.2120 C   0  0  0  0  0  0  0  0  0  0  0  0
   36.1590   28.4470   41.6060 O   0  0  0  0  0  0  0  0  0  0  0  0
   38.4340   28.0800   41.0500 N   0  0  0  0  0  0  0  0  0  0  0  0
   40.1570   23.9690   42.0070 H   0  0  0  0  0  0  0  0  0  0  0  0
   37.9030   22.9850   42.1930 H   0  0  0  0  0  0  0  0  0  0  0  0
   35.9050   24.4770   41.8240 H   0  0  0  0  0  0  0  0  0  0  0  0
   39.3190   28.5130   40.7160 H   0  0  0  0  0  0  0  0  0  0  0  0
   37.3710   30.3300   40.8850 C   0  0  0  0  0  3  0  0  0  0  0  0
   37.1140   30.6250   39.4400 C   0  0  0  0  0  3  0  0  0  0  0  0
   36.1200   30.2150   39.1940 H   0  0  0  0  0  0  0  0  0  0  0  0
   37.0570   32.1340   39.3120 C   0  0  0  0  0  3  0  0  0  0  0  0
   37.7410   32.4420   38.4860 H   0  0  0  0  0  0  0  0  0  0  0  0
   37.5180   32.8020   40.4380 O   0  0  0  0  0  0  0  0  0  0  0  0
   38.7760   32.3110   40.7980 C   0  0  0  0  0  3  0  0  0  0  0  0
   39.1880   32.9740   41.5620 H   0  0  0  0  0  0  0  0  0  0  0  0
   38.6790   30.9090   41.3610 C   0  0  0  0  0  3  0  0  0  0  0  0
   39.4870   30.2530   40.9500 H   0  0  0  0  0  0  0  0  0  0  0  0
  1  2  1  0  0  0  0
  1 10  1  0  0  0  0
  2 11  1  0  0  0  0
  3 12  1  0  0  0  0
  3  2  2  0  0  0  0
  4  3  1  0  0  0  0
  5  4  2  0  0  0  0
  5  6  1  0  0  0  0
  6  1  2  0  0  0  0
  7  8  2  0  0  0  0
  9  7  1  0  0  0  0
  9  5  1  0  0  0  0
 13  9  1  0  0  0  0
 14  7  1  0  0  0  0
 14 22  1  0  0  0  0
 15 14  1  0  0  0  0
 16 15  1  0  0  0  0
 17 15  1  0  0  0  0
 17 19  1  0  0  0  0
 18 17  1  0  0  0  0
 19 20  1  0  0  0  0
 20 22  1  0  0  0  0
 20 21  1  0  0  0  0
 23 22  1  0  0  0  0
M  END
>  <minimizedAffinity>
-4.00434208

$$$$

 OpenBabel03242510523D

 23 24  0  0  0  0  0  0  0  0999 V2000
   37.0920   27.0370   41.8770 C   0  0  0  0  0  0  0  0  0  0  0  0
   36.9790   27.3420   43.2540 C   0  0  0  0  0  0  0  0  0  0  0  0
   37.4670   28.5950   43.6780 C   0  0  0  0  0  0  0  0  0  0  0  0
   38.0120   29.4310   42.7520 N   0  0  0  0  0  0  0  0  0  0  0  0
   38.1010   29.1060   41.4590 C   0  0  0  0  0  0  0  0  0  0  0  0
   37.6400   27.9030   41.0110 N   0  0  0  0  0  0  0  0  0  0  0  0
   39.4440   31.0900   41.1330 C   0  0  0  0  0  0  0  0  0  0  0  0
   39.6430   31.2630   42.3550 O   0  0  0  0  0  0  0  0  0  0  0  0
   38.6850   30.0390   40.5640 N   0  0  0  0  0  0  0  0  0  0  0  0
   36.7050   26.0670   41.6030 H   0  0  0  0  0  0  0  0  0  0  0  0
   36.5470   26.6830   43.9850 H   0  0  0  0  0  0  0  0  0  0  0  0
   37.4290   28.9310   44.7070 H   0  0  0  0  0  0  0  0  0  0  0  0
   38.5710   29.9710   39.5320 H   0  0  0  0  0  0  0  0  0  0  0  0
   40.0660   32.0830   40.1900 C   0  0  0  0  0  3  0  0  0  0  0  0
   40.3740   31.4990   38.8470 C   0  0  0  0  0  3  0  0  0  0  0  0
   39.4350   31.0830   38.4470 H   0  0  0  0  0  0  0  0  0  0  0  0
   40.8020   32.6550   37.9640 C   0  0  0  0  0  3  0  0  0  0  0  0
   41.7700   32.3860   37.4780 H   0  0  0  0  0  0  0  0  0  0  0  0
   41.0580   33.8230   38.6670 O   0  0  0  0  0  0  0  0  0  0  0  0
   41.9390   33.5590   39.7200 C   0  0  0  0  0  3  0  0  0  0  0  0
   42.2630   34.5160   40.1330 H   0  0  0  0  0  0  0  0  0  0  0  0
   41.2660   32.7520   40.8110 C   0  0  0  0  0  3  0  0  0  0  0  0
   41.9350   31.9330   41.1770 H   0  0  0  0  0  0  0  0  0  0  0  0
  1  2  1  0  0  0  0
  2  3  2  0  0  0  0
  2 11  1  0  0  0  0
  3 12  1  0  0  0  0
  4  3  1  0  0  0  0
  5  4  2  0  0  0  0
  6  5  1  0  0  0  0
  6  1  2  0  0  0  0
  7  8  2  0  0  0  0
  9  7  1  0  0  0  0
  9  5  1  0  0  0  0
 10  1  1  0  0  0  0
 13  9  1  0  0  0  0
 14 22  1  0  0  0  0
 14  7  1  0  0  0  0
 15 14  1  0  0  0  0
 16 15  1  0  0  0  0
 17 19  1  0  0  0  0
 17 15  1  0  0  0  0
 18 17  1  0  0  0  0
 19 20  1  0  0  0  0
 20 21  1  0  0  0  0
 20 22  1  0  0  0  0
 22 23  1  0  0  0  0
M  END
>  <minimizedAffinity>
-3.93192172

$$$$

 OpenBabel03242510523D

 23 24  0  0  0  0  0  0  0  0999 V2000
   44.7030   30.3870   35.3570 C   0  0  0  0  0  0  0  0  0  0  0  0
   45.4710   31.3640   36.0350 C   0  0  0  0  0  0  0  0  0  0  0  0
   44.8050   32.1560   36.9920 C   0  0  0  0  0  0  0  0  0  0  0  0
   43.4780   31.9420   37.2080 N   0  0  0  0  0  0  0  0  0  0  0  0
   42.7860   31.0090   36.5460 C   0  0  0  0  0  0  0  0  0  0  0  0
   43.3970   30.2230   35.6130 N   0  0  0  0  0  0  0  0  0  0  0  0
   40.7730   31.9110   37.5350 C   0  0  0  0  0  0  0  0  0  0  0  0
   41.3270   32.9630   37.9180 O   0  0  0  0  0  0  0  0  0  0  0  0
   41.4060   30.8560   36.8350 N   0  0  0  0  0  0  0  0  0  0  0  0
   45.2580   29.8070   34.6350 H   0  0  0  0  0  0  0  0  0  0  0  0
   46.5190   31.5320   35.8660 H   0  0  0  0  0  0  0  0  0  0  0  0
   45.2960   32.9300   37.5690 H   0  0  0  0  0  0  0  0  0  0  0  0
   40.8660   30.0120   36.5530 H   0  0  0  0  0  0  0  0  0  0  0  0
   39.3100   31.7550   37.8450 C   0  0  0  0  0  3  0  0  0  0  0  0
   38.8950   32.4800   39.0870 C   0  0  0  0  0  3  0  0  0  0  0  0
   39.1790   33.5370   38.9590 H   0  0  0  0  0  0  0  0  0  0  0  0
   37.3840   32.3930   39.1520 C   0  0  0  0  0  3  0  0  0  0  0  0
   37.0960   32.0230   40.1650 H   0  0  0  0  0  0  0  0  0  0  0  0
   36.8440   31.4770   38.2610 O   0  0  0  0  0  0  0  0  0  0  0  0
   37.4880   30.2440   38.4000 C   0  0  0  0  0  3  0  0  0  0  0  0
   36.9240   29.5050   37.8270 H   0  0  0  0  0  0  0  0  0  0  0  0
   38.9060   30.3020   37.8710 C   0  0  0  0  0  3  0  0  0  0  0  0
   39.6160   29.7860   38.5650 H   0  0  0  0  0  0  0  0  0  0  0  0
  1  6  2  0  0  0  0
  1  2  1  0  0  0  0
  2  3  2  0  0  0  0
  3  4  1  0  0  0  0
  3 12  1  0  0  0  0
  5  9  1  0  0  0  0
  5  4  2  0  0  0  0
  6  5  1  0  0  0  0
  7 14  1  0  0  0  0
  7  8  2  0  0  0  0
  9  7  1  0  0  0  0
 10  1  1  0  0  0  0
 11  2  1  0  0  0  0
 13  9  1  0  0  0  0
 14 22  1  0  0  0  0
 14 15  1  0  0  0  0
 15 17  1  0  0  0  0
 16 15  1  0  0  0  0
 17 18  1  0  0  0  0
 19 20  1  0  0  0  0
 19 17  1  0  0  0  0
 21 20  1  0  0  0  0
 22 20  1  0  0  0  0
 22 23  1  0  0  0  0
M  END
>  <minimizedAffinity>
-3.9296484

$$$$
