
     RDKit          3D

 47 50  0  0  0  0  0  0  0  0999 V2000
   47.0758   34.5427   42.1200 C   0  0  0  0  0  0  0  0  0  0  0  0
   48.1758   35.3035   41.7824 C   0  0  0  0  0  0  0  0  0  0  0  0
   48.6416   35.3263   40.4810 C   0  0  0  0  0  0  0  0  0  0  0  0
   48.0214   34.5863   39.4674 C   0  0  0  0  0  0  0  0  0  0  0  0
   48.5427   34.6726   38.2443 N   0  0  0  0  0  0  0  0  0  0  0  0
   47.9502   33.9553   37.2344 C   0  0  0  0  0  0  0  0  0  0  0  0
   46.8565   33.1964   37.5606 C   0  0  0  0  0  0  0  0  0  0  0  0
   46.3086   33.0987   38.8188 C   0  0  0  0  0  0  0  0  0  0  0  0
   46.9134   33.8238   39.8223 C   0  0  0  0  0  0  0  0  0  0  0  0
   46.4452   33.7989   41.1229 C   0  0  0  0  0  0  0  0  0  0  0  0
   45.3920   35.2348   43.8486 C   0  0  0  0  0  0  0  0  0  0  0  0
   46.4566   34.4014   43.4197 C   0  0  0  0  0  0  0  0  0  0  0  0
   46.9301   33.3991   44.2896 C   0  0  0  0  0  0  0  0  0  0  0  0
   46.3315   33.2882   45.5042 N   0  0  0  0  0  0  0  0  0  0  0  0
   45.3222   34.0902   45.8911 C   0  0  0  0  0  0  0  0  0  0  0  0
   44.8653   35.0482   45.0670 N   0  0  0  0  0  0  0  0  0  0  0  0
   44.9184   36.2321   42.9869 N   0  0  0  0  0  0  0  0  0  0  0  0
   44.7304   33.8861   47.2538 C   0  0  0  0  0  0  0  0  0  0  0  0
   45.3480   32.6381   47.8728 C   0  0  0  0  0  0  0  0  0  0  0  0
   48.6159   35.8531   42.5964 H   0  0  0  0  0  0  0  0  0  0  0  0
   49.5147   35.9440   40.2666 H   0  0  0  0  0  0  0  0  0  0  0  0
   48.3007   33.9654   36.2264 H   0  0  0  0  0  0  0  0  0  0  0  0
   46.3775   32.6218   36.7649 H   0  0  0  0  0  0  0  0  0  0  0  0
   45.4410   32.4828   39.0240 H   0  0  0  0  0  0  0  0  0  0  0  0
   45.5897   33.1804   41.2817 H   0  0  0  0  0  0  0  0  0  0  0  0
   47.7407   32.7455   43.9949 H   0  0  0  0  0  0  0  0  0  0  0  0
   44.6980   35.8894   42.0149 H   0  0  0  0  0  0  0  0  0  0  0  0
   44.8352   37.2026   43.3982 H   0  0  0  0  0  0  0  0  0  0  0  0
   43.6395   33.8372   47.2267 H   0  0  0  0  0  0  0  0  0  0  0  0
   45.0955   34.7803   47.8394 H   0  0  0  0  0  0  0  0  0  0  0  0
   45.1855   31.7626   47.2470 H   0  0  0  0  0  0  0  0  0  0  0  0
   46.4267   32.8582   48.0188 H   0  0  0  0  0  0  0  0  0  0  0  0
   44.7212   32.4628   49.2572 C   0  0  0  0  0  0  0  0  0  0  0  0
   43.7081   31.3286   49.2271 C   0  0  1  0  0  0  0  0  0  0  0  0
   42.8603   31.5769   49.8871 H   0  0  0  0  0  0  0  0  0  0  0  0
   44.3346   30.0471   49.7698 C   0  0  2  0  0  0  0  0  0  0  0  0
   43.7191   29.2109   49.4029 H   0  0  0  0  0  0  0  0  0  0  0  0
   45.6343   29.8862   49.2828 O   0  0  0  0  0  0  0  0  0  0  0  0
   46.5050   30.8273   49.8282 C   0  0  1  0  0  0  0  0  0  0  0  0
   46.9669   30.3940   50.7324 H   0  0  0  0  0  0  0  0  0  0  0  0
   45.7759   32.0735   50.2671 C   0  0  1  0  0  0  0  0  0  0  0  0
   46.5106   32.8568   50.4488 H   0  0  0  0  0  0  0  0  0  0  0  0
   44.2426   33.4075   49.5889 H   0  0  0  0  0  0  0  0  0  0  0  0
   43.3827   31.0820   48.1912 H   0  0  0  0  0  0  0  0  0  0  0  0
   44.3464   30.0314   50.8779 H   0  0  0  0  0  0  0  0  0  0  0  0
   47.2511   31.0854   49.0781 H   0  0  0  0  0  0  0  0  0  0  0  0
   45.2551   31.8840   51.2288 H   0  0  0  0  0  0  0  0  0  0  0  0
  1 12  1  0
  2  1  2  0
  3  2  1  0
  4  9  1  0
  4  3  2  0
  5  4  1  0
  6  7  1  0
  6  5  2  0
  7  8  2  0
  8  9  1  0
  9 10  2  0
 10  1  1  0
 11 16  2  0
 12 11  1  0
 12 13  2  0
 13 14  1  0
 14 15  2  0
 15 18  1  0
 16 15  1  0
 17 11  1  0
 18 19  1  0
  2 20  1  0
  3 21  1  0
  6 22  1  0
  7 23  1  0
  8 24  1  0
 10 25  1  0
 13 26  1  0
 17 27  1  0
 17 28  1  0
 18 29  1  0
 18 30  1  0
 19 31  1  0
 19 32  1  0
 33 34  1  0
 34 35  1  1
 34 36  1  0
 36 37  1  6
 36 38  1  0
 38 39  1  0
 39 40  1  1
 39 41  1  0
 41 42  1  1
 41 33  1  0
 33 43  1  0
 34 44  1  0
 36 45  1  0
 39 46  1  0
 41 47  1  0
 19 33  1  0
M  ISO  8  20  14  21  14  22  14  23  14  24  14  25  14  26  14  29   8
M  ISO  7  30   8  31   8  32   8  35  15  37  15  40  15  42  15
M  END
>  <DihAtoms>  (1) 
17,18,32,33

>  <DihDeg>  (1) 
179.9768602724484

$$$$
