
 OpenBabel03242522473D

 42 45  0  0  0  0  0  0  0  0999 V2000
   45.8960   34.5660   43.9970 C   0  0  0  0  0  0  0  0  0  0  0  0
   46.9620   33.8660   43.3740 C   0  0  0  0  0  0  0  0  0  0  0  0
   47.5670   32.7960   44.0620 C   0  0  0  0  0  0  0  0  0  0  0  0
   47.0880   32.4920   45.2960 N   0  0  0  0  0  0  0  0  0  0  0  0
   46.0760   33.1690   45.8680 C   0  0  0  0  0  0  0  0  0  0  0  0
   45.4930   34.1910   45.2190 N   0  0  0  0  0  0  0  0  0  0  0  0
   45.2900   35.6300   43.3170 N   0  0  0  0  0  0  0  0  0  0  0  0
   48.3830   32.2400   43.6170 H   0  0  0  0  0  0  0  0  0  0  0  0
   45.0020   35.3990   42.3300 H   0  0  0  0  0  0  0  0  0  0  0  0
   45.1910   36.5330   43.8580 H   0  0  0  0  0  0  0  0  0  0  0  0
   47.4510   34.2130   42.0580 C   0  0  0  0  0  0  0  0  0  0  0  0
   48.3890   35.1660   41.7250 C   0  0  0  0  0  0  0  0  0  0  0  0
   48.7460   35.3710   40.4050 C   0  0  0  0  0  0  0  0  0  0  0  0
   48.1740   34.6260   39.3670 C   0  0  0  0  0  0  0  0  0  0  0  0
   48.5820   34.8970   38.1270 N   0  0  0  0  0  0  0  0  0  0  0  0
   48.0330   34.1770   37.0940 C   0  0  0  0  0  0  0  0  0  0  0  0
   47.1000   33.2260   37.4150 C   0  0  0  0  0  0  0  0  0  0  0  0
   46.6710   32.9390   38.6900 C   0  0  0  0  0  0  0  0  0  0  0  0
   47.2290   33.6670   39.7170 C   0  0  0  0  0  0  0  0  0  0  0  0
   46.8700   33.4600   41.0360 C   0  0  0  0  0  0  0  0  0  0  0  0
   48.7980   35.7120   42.5580 H   0  0  0  0  0  0  0  0  0  0  0  0
   49.4930   36.1380   40.1960 H   0  0  0  0  0  0  0  0  0  0  0  0
   48.3010   34.3260   36.0710 H   0  0  0  0  0  0  0  0  0  0  0  0
   46.6570   32.6490   36.6000 H   0  0  0  0  0  0  0  0  0  0  0  0
   45.9280   32.1750   38.8900 H   0  0  0  0  0  0  0  0  0  0  0  0
   46.1370   32.7000   41.1900 H   0  0  0  0  0  0  0  0  0  0  0  0
   45.6230   32.7550   47.2370 C   0  0  0  0  0  0  0  0  0  0  0  0
   44.8980   33.4530   47.6610 H   0  0  0  0  0  0  0  0  0  0  0  0
   46.5800   32.7270   47.8360 H   0  0  0  0  0  0  0  0  0  0  0  0
   45.0780   31.3340   47.1620 C   0  0  0  0  0  0  0  0  0  0  0  0
   43.9910   31.3230   47.2170 H   0  0  0  0  0  0  0  0  0  0  0  0
   45.4570   30.8990   46.2120 H   0  0  0  0  0  0  0  0  0  0  0  0
   45.7060   30.5470   48.3130 C   0  0  0  0  0  3  0  0  0  0  0  0
   44.9380   29.2530   48.5370 C   0  0  0  0  0  3  0  0  0  0  0  0
   44.9070   29.0260   49.6160 H   0  0  0  0  0  0  0  0  0  0  0  0
   45.6550   28.0900   47.8570 C   0  0  0  0  0  3  0  0  0  0  0  0
   44.9130   27.2860   47.7340 H   0  0  0  0  0  0  0  0  0  0  0  0
   46.1160   28.4630   46.5920 O   0  0  0  0  0  0  0  0  0  0  0  0
   47.1670   29.3730   46.6790 C   0  0  0  0  0  3  0  0  0  0  0  0
   48.1170   28.8120   46.6780 H   0  0  0  0  0  0  0  0  0  0  0  0
   47.1240   30.1540   47.9690 C   0  0  0  0  0  3  0  0  0  0  0  0
   47.7990   31.0040   47.8810 H   0  0  0  0  0  0  0  0  0  0  0  0
  1  6  1  0  0  0  0
  2  1  2  0  0  0  0
  2  3  1  0  0  0  0
  3  4  2  0  0  0  0
  4  5  1  0  0  0  0
  5 27  1  0  0  0  0
  6  5  2  0  0  0  0
  7 10  1  0  0  0  0
  7  1  1  0  0  0  0
  8  3  1  0  0  0  0
  9  7  1  0  0  0  0
 11  2  1  0  0  0  0
 12 11  1  0  0  0  0
 12 21  1  0  0  0  0
 13 12  2  0  0  0  0
 14 19  1  0  0  0  0
 14 13  1  0  0  0  0
 15 14  2  0  0  0  0
 16 17  2  0  0  0  0
 16 15  1  0  0  0  0
 17 18  1  0  0  0  0
 18 25  1  0  0  0  0
 18 19  2  0  0  0  0
 19 20  1  0  0  0  0
 20 26  1  0  0  0  0
 20 11  2  0  0  0  0
 22 13  1  0  0  0  0
 23 16  1  0  0  0  0
 24 17  1  0  0  0  0
 27 28  1  0  0  0  0
 27 29  1  0  0  0  0
 30 31  1  0  0  0  0
 30 27  1  0  0  0  0
 30 33  1  0  0  0  0
 32 30  1  0  0  0  0
 33 34  1  0  0  0  0
 34 35  1  0  0  0  0
 36 34  1  0  0  0  0
 37 36  1  0  0  0  0
 38 39  1  0  0  0  0
 38 36  1  0  0  0  0
 39 41  1  0  0  0  0
 40 39  1  0  0  0  0
 41 33  1  0  0  0  0
 42 41  1  0  0  0  0
M  END
>  <minimizedAffinity>
-5.67575216

>  <minimizedRMSD>
2.46398902

$$$$
