
     RDKit          3D

 38 40  0  0  0  0  0  0  0  0999 V2000
   46.6888   34.7619   41.9730 C   0  0  0  0  0  0  0  0  0  0  0  0
   47.9302   35.3558   41.8882 C   0  0  0  0  0  0  0  0  0  0  0  0
   48.6648   35.2058   40.7319 C   0  0  0  0  0  0  0  0  0  0  0  0
   48.1524   34.4733   39.6919 C   0  0  0  0  0  0  0  0  0  0  0  0
   46.9209   33.8676   39.7395 C   0  0  0  0  0  0  0  0  0  0  0  0
   46.1967   34.0389   40.9312 C   0  0  0  0  0  0  0  0  0  0  0  0
   44.5087   36.1149   44.7517 C   0  0  0  0  0  0  0  0  0  0  0  0
   45.1628   36.0428   43.5064 C   0  0  0  0  0  0  0  0  0  0  0  0
   45.9593   34.9558   43.2234 C   0  0  0  0  0  0  0  0  0  0  0  0
   46.0679   33.9912   44.1928 N   0  0  0  0  0  0  0  0  0  0  0  0
   45.4326   34.0767   45.3832 C   0  0  0  0  0  0  0  0  0  0  0  0
   44.6477   35.1489   45.6607 N   0  0  0  0  0  0  0  0  0  0  0  0
   43.5972   33.8611   40.7937 C   0  0  0  0  0  0  0  0  0  0  0  0
   43.2384   34.8895   40.2178 O   0  0  0  0  0  0  0  0  0  0  0  0
   44.9187   33.4637   41.1118 N   0  0  0  0  0  0  0  0  0  0  0  0
   48.3361   35.9358   42.7110 H   0  0  0  0  0  0  0  0  0  0  0  0
   49.6296   35.6842   40.7032 H   0  0  0  0  0  0  0  0  0  0  0  0
   48.7637   34.3823   38.8043 H   0  0  0  0  0  0  0  0  0  0  0  0
   46.4970   33.2900   38.9414 H   0  0  0  0  0  0  0  0  0  0  0  0
   43.9178   37.0251   44.8333 H   0  0  0  0  0  0  0  0  0  0  0  0
   45.0874   36.7888   42.7391 H   0  0  0  0  0  0  0  0  0  0  0  0
   45.5365   33.3090   46.1192 H   0  0  0  0  0  0  0  0  0  0  0  0
   45.1746   32.5636   41.5915 H   0  0  0  0  0  0  0  0  0  0  0  0
   42.5714   32.8540   41.2464 C   0  0  1  0  0  0  0  0  0  0  0  0
   43.2904   31.6789   41.9207 C   0  0  1  0  0  0  0  0  0  0  0  0
   43.9300   31.2251   41.1443 H   0  0  0  0  0  0  0  0  0  0  0  0
   42.1963   30.7437   42.3872 C   0  0  1  0  0  0  0  0  0  0  0  0
   42.3044   29.8016   41.7873 H   0  0  0  0  0  0  0  0  0  0  0  0
   40.9224   31.1978   42.1534 O   0  0  0  0  0  0  0  0  0  0  0  0
   40.6679   32.4349   42.7413 C   0  0  1  0  0  0  0  0  0  0  0  0
   39.6937   32.7857   42.3250 H   0  0  0  0  0  0  0  0  0  0  0  0
   41.7098   33.4622   42.3377 C   0  0  1  0  0  0  0  0  0  0  0  0
   42.3037   33.6761   43.2532 H   0  0  0  0  0  0  0  0  0  0  0  0
   41.9315   32.4940   40.4433 H   0  0  0  0  0  0  0  0  0  0  0  0
   43.9051   32.0625   42.7612 H   0  0  0  0  0  0  0  0  0  0  0  0
   42.3563   30.4225   43.4364 H   0  0  0  0  0  0  0  0  0  0  0  0
   40.5235   32.3795   43.8336 H   0  0  0  0  0  0  0  0  0  0  0  0
   41.2450   34.4118   42.0069 H   0  0  0  0  0  0  0  0  0  0  0  0
  1  9  1  0
  2  1  2  0
  3  2  1  0
  4  5  1  0
  4  3  2  0
  5  6  2  0
  6 15  1  0
  6  1  1  0
  7 12  2  0
  8  7  1  0
  9  8  2  0
  9 10  1  0
 10 11  2  0
 11 12  1  0
 13 15  1  0
 14 13  2  0
  2 16  1  0
  3 17  1  0
  4 18  1  0
  5 19  1  0
  7 20  1  0
  8 21  1  0
 11 22  1  0
 15 23  1  0
 24 25  1  0
 25 26  1  6
 25 27  1  0
 27 28  1  6
 27 29  1  0
 29 30  1  0
 30 31  1  6
 30 32  1  0
 32 33  1  1
 32 24  1  0
 24 34  1  6
 25 35  1  0
 27 36  1  0
 30 37  1  0
 32 38  1  0
 13 24  1  0
M  ISO  8  16  14  17  14  18  14  19  14  20  14  21  14  22  14  26  15
M  ISO  3  28  15  31  15  33  15
M  END
>  <DihAtoms>  (1) 
14,12,23,24

>  <DihDeg>  (1) 
59.69800612487544

$$$$
