
     RDKit          3D

 28 29  0  0  0  0  0  0  0  0999 V2000
   44.6682   36.0759   44.2863 C   0  0  0  0  0  0  0  0  0  0  0  0
   45.4796   35.5835   43.2355 C   0  0  0  0  0  0  0  0  0  0  0  0
   46.1775   34.3829   43.4709 C   0  0  0  0  0  0  0  0  0  0  0  0
   46.0359   33.7700   44.6784 N   0  0  0  0  0  0  0  0  0  0  0  0
   45.2593   34.2675   45.6457 C   0  0  0  0  0  0  0  0  0  0  0  0
   44.5681   35.4274   45.4554 N   0  0  0  0  0  0  0  0  0  0  0  0
   46.1619   32.5826   47.1283 C   0  0  0  0  0  0  0  0  0  0  0  0
   47.1056   32.2899   46.3627 O   0  0  0  0  0  0  0  0  0  0  0  0
   45.1709   33.5614   46.8738 N   0  0  0  0  0  0  0  0  0  0  0  0
   44.1547   36.9976   44.0569 H   0  0  0  0  0  0  0  0  0  0  0  0
   45.5912   36.0674   42.2825 H   0  0  0  0  0  0  0  0  0  0  0  0
   46.8255   33.9175   42.7375 H   0  0  0  0  0  0  0  0  0  0  0  0
   44.4179   33.7412   47.5693 H   0  0  0  0  0  0  0  0  0  0  0  0
   46.0742   31.8311   48.4270 C   0  0  0  0  0  0  0  0  0  0  0  0
   45.4568   32.6369   49.5278 C   0  0  2  0  0  0  0  0  0  0  0  0
   44.4668   32.9680   49.1747 H   0  0  0  0  0  0  0  0  0  0  0  0
   45.2599   31.6908   50.6944 C   0  0  1  0  0  0  0  0  0  0  0  0
   45.7012   32.1606   51.6064 H   0  0  0  0  0  0  0  0  0  0  0  0
   45.9266   30.4823   50.5465 O   0  0  0  0  0  0  0  0  0  0  0  0
   47.2669   30.7168   50.2278 C   0  0  2  0  0  0  0  0  0  0  0  0
   47.7994   29.7658   50.3010 H   0  0  0  0  0  0  0  0  0  0  0  0
   47.4120   31.2578   48.8205 C   0  0  2  0  0  0  0  0  0  0  0  0
   48.1439   32.1020   48.7881 H   0  0  0  0  0  0  0  0  0  0  0  0
   45.3723   30.9836   48.2194 H   0  0  0  0  0  0  0  0  0  0  0  0
   46.0938   33.5115   49.7918 H   0  0  0  0  0  0  0  0  0  0  0  0
   44.1824   31.4713   50.8606 H   0  0  0  0  0  0  0  0  0  0  0  0
   47.6736   31.4055   50.9901 H   0  0  0  0  0  0  0  0  0  0  0  0
   47.6795   30.4785   48.0761 H   0  0  0  0  0  0  0  0  0  0  0  0
  1  6  2  0
  2  3  2  0
  2  1  1  0
  3  4  1  0
  4  5  2  0
  5  9  1  0
  6  5  1  0
  8  7  2  0
  9  7  1  0
  1 10  1  0
  2 11  1  0
  3 12  1  0
  9 13  1  0
 14 15  1  0
 15 16  1  6
 15 17  1  0
 17 18  1  1
 17 19  1  0
 19 20  1  0
 20 21  1  6
 20 22  1  0
 22 23  1  1
 22 14  1  0
 14 24  1  0
 15 25  1  0
 17 26  1  0
 20 27  1  0
 22 28  1  0
  7 14  1  0
M  ISO  7  10  14  11  14  12  14  16  15  18  15  21  15  23  15
M  END
>  <DihAtoms>  (1) 
7,6,13,14

>  <DihDeg>  (1) 
119.99986636687001

$$$$
