
 OpenBabel03252502283D

 36 38  0  0  0  0  0  0  0  0999 V2000
   45.1260   34.4110   41.1640 C   0  0  0  0  0  0  0  0  0  0  0  0
   45.5410   35.0170   42.3480 C   0  0  0  0  0  0  0  0  0  0  0  0
   46.9010   35.2450   42.5330 C   0  0  0  0  0  0  0  0  0  0  0  0
   47.7980   34.8730   41.5610 C   0  0  0  0  0  0  0  0  0  0  0  0
   47.4030   34.2760   40.3920 C   0  0  0  0  0  0  0  0  0  0  0  0
   46.0330   34.0540   40.2180 C   0  0  0  0  0  0  0  0  0  0  0  0
   44.8430   35.3120   43.1180 H   0  0  0  0  0  0  0  0  0  0  0  0
   47.3120   35.7080   43.4200 H   0  0  0  0  0  0  0  0  0  0  0  0
   48.8580   35.0480   41.6990 H   0  0  0  0  0  0  0  0  0  0  0  0
   48.0780   33.9690   39.6010 H   0  0  0  0  0  0  0  0  0  0  0  0
   41.4270   34.8370   40.5570 C   0  0  0  0  0  0  0  0  0  0  0  0
   42.7880   35.1560   40.6470 C   0  0  0  0  0  0  0  0  0  0  0  0
   43.7010   34.2060   41.0340 C   0  0  0  0  0  0  0  0  0  0  0  0
   43.1950   32.9770   41.3110 N   0  0  0  0  0  0  0  0  0  0  0  0
   41.8860   32.6660   41.2260 C   0  0  0  0  0  0  0  0  0  0  0  0
   40.9890   33.6060   40.8440 N   0  0  0  0  0  0  0  0  0  0  0  0
   43.1620   36.1450   40.4200 H   0  0  0  0  0  0  0  0  0  0  0  0
   41.6430   31.6520   41.4760 H   0  0  0  0  0  0  0  0  0  0  0  0
   40.4470   35.8650   40.1410 C   0  0  0  0  0  0  0  0  0  0  0  0
   39.2290   35.2150   39.9140 F   0  0  0  0  0  0  0  0  0  0  0  0
   40.8450   36.3060   38.8750 F   0  0  0  0  0  0  0  0  0  0  0  0
   40.3040   36.8850   41.0280 F   0  0  0  0  0  0  0  0  0  0  0  0
   45.6430   32.2010   38.4340 C   0  0  0  0  0  0  0  0  0  0  0  0
   46.3360   31.2720   38.8240 O   0  0  0  0  0  0  0  0  0  0  0  0
   45.4950   33.4560   39.0600 N   0  0  0  0  0  0  0  0  0  0  0  0
   44.8490   34.1910   38.6330 H   0  0  0  0  0  0  0  0  0  0  0  0
   44.8660   31.9890   37.1590 C   0  0  0  0  0  3  0  0  0  0  0  0
   44.1280   30.7040   37.2520 C   0  0  0  0  0  3  0  0  0  0  0  0
   43.5470   30.5870   38.1790 H   0  0  0  0  0  0  0  0  0  0  0  0
   43.2170   30.6370   36.0190 C   0  0  0  0  0  3  0  0  0  0  0  0
   42.8690   29.6200   35.8060 H   0  0  0  0  0  0  0  0  0  0  0  0
   43.8220   31.2570   34.9390 O   0  0  0  0  0  0  0  0  0  0  0  0
   45.2060   31.1160   34.9220 C   0  0  0  0  0  3  0  0  0  0  0  0
   45.5350   30.0680   35.0620 H   0  0  0  0  0  0  0  0  0  0  0  0
   45.8630   31.9200   36.0220 C   0  0  0  0  0  3  0  0  0  0  0  0
   46.7830   31.4480   36.4270 H   0  0  0  0  0  0  0  0  0  0  0  0
  1  2  1  0  0  0  0
  2  3  2  0  0  0  0
  2  7  1  0  0  0  0
  3  8  1  0  0  0  0
  4  9  1  0  0  0  0
  4  3  1  0  0  0  0
  5  4  2  0  0  0  0
  6  5  1  0  0  0  0
  6  1  2  0  0  0  0
 10  5  1  0  0  0  0
 11 12  2  0  0  0  0
 11 16  1  0  0  0  0
 12 13  1  0  0  0  0
 13  1  1  0  0  0  0
 13 14  2  0  0  0  0
 15 14  1  0  0  0  0
 15 18  1  0  0  0  0
 16 15  2  0  0  0  0
 17 12  1  0  0  0  0
 19 11  1  0  0  0  0
 19 22  1  0  0  0  0
 20 19  1  0  0  0  0
 21 19  1  0  0  0  0
 23 24  2  0  0  0  0
 23 25  1  0  0  0  0
 25  6  1  0  0  0  0
 26 25  1  0  0  0  0
 27 28  1  0  0  0  0
 27 23  1  0  0  0  0
 28 29  1  0  0  0  0
 30 28  1  0  0  0  0
 31 30  1  0  0  0  0
 32 30  1  0  0  0  0
 33 32  1  0  0  0  0
 33 34  1  0  0  0  0
 33 35  1  0  0  0  0
 35 36  1  0  0  0  0
 35 27  1  0  0  0  0
M  END
>  <minimizedAffinity>
-5.97121429

>  <minimizedRMSD>
0.896251976

$$$$
