
 OpenBabel03242516163D

 44 48  0  0  1  0  0  0  0  0999 V2000
   48.0190   34.4530   41.6010 C   0  0  0  0  0  0  0  0  0  0  0  0
   48.8750   35.6920   41.3100 C   0  0  0  0  0  0  0  0  0  0  0  0
   49.4010   34.5240   42.0150 C   0  0  0  0  0  0  0  0  0  0  0  0
   48.6090   36.6130   41.8680 H   0  0  0  0  0  0  0  0  0  0  0  0
   49.1660   35.9120   40.2690 H   0  0  0  0  0  0  0  0  0  0  0  0
   50.1540   33.9510   41.4320 H   0  0  0  0  0  0  0  0  0  0  0  0
   49.7860   34.7480   43.0170 H   0  0  0  0  0  0  0  0  0  0  0  0
   47.6420   33.7010   40.3770 C   0  0  0  0  0  0  0  0  0  0  0  0
   48.1230   34.3150   39.0740 C   0  0  0  0  0  0  0  0  0  0  0  0
   47.7490   33.2800   37.9980 C   0  0  0  0  0  0  0  0  0  0  0  0
   46.3670   33.4100   37.8030 O   0  0  0  0  0  0  0  0  0  0  0  0
   45.8280   32.7970   38.9660 C   0  0  0  0  0  0  0  0  0  0  0  0
   46.1040   33.6830   40.1760 C   0  0  0  0  0  0  0  0  0  0  0  0
   47.9180   32.6380   40.3760 H   0  0  0  0  0  0  0  0  0  0  0  0
   49.2200   34.3980   39.0060 H   0  0  0  0  0  0  0  0  0  0  0  0
   47.5690   35.2430   38.8680 H   0  0  0  0  0  0  0  0  0  0  0  0
   48.0490   32.2720   38.3000 H   0  0  0  0  0  0  0  0  0  0  0  0
   48.3120   33.5490   37.0840 H   0  0  0  0  0  0  0  0  0  0  0  0
   44.7580   32.6030   38.8840 H   0  0  0  0  0  0  0  0  0  0  0  0
   46.3540   31.8370   39.1320 H   0  0  0  0  0  0  0  0  0  0  0  0
   45.5920   33.2440   41.0320 H   0  0  0  0  0  0  0  0  0  0  0  0
   45.8370   34.7320   39.9650 H   0  0  0  0  0  0  0  0  0  0  0  0
   46.2150   35.8720   42.6620 C   0  0  0  0  0  0  0  0  0  0  0  0
   46.9220   34.6830   42.6080 C   0  0  0  0  0  0  0  0  0  0  0  0
   46.5850   33.7090   43.5410 C   0  0  0  0  0  0  0  0  0  0  0  0
   45.5970   33.9420   44.4600 N   0  0  0  0  0  0  0  0  0  0  0  0
   44.9640   35.1150   44.4460 C   0  0  0  0  0  0  0  0  0  0  0  0
   45.2500   36.0620   43.5820 N   0  0  0  0  0  0  0  0  0  0  0  0
   43.9280   35.4140   45.3810 N   0  0  0  0  0  0  0  0  0  0  0  0
   46.4590   36.6410   41.9480 H   0  0  0  0  0  0  0  0  0  0  0  0
   44.2980   35.9560   46.2000 H   0  0  0  0  0  0  0  0  0  0  0  0
   42.9890   35.0570   45.1170 H   0  0  0  0  0  0  0  0  0  0  0  0
   47.3010   32.4540   43.6540 C   0  0  2  0  0  3  0  0  0  0  0  0
   48.1100   32.0640   44.5270 O   0  0  0  0  0  0  0  0  0  0  0  0
   47.7190   31.0900   43.2570 C   0  0  0  0  0  0  0  0  0  0  0  0
   47.5410   30.0650   44.3750 C   0  0  0  0  0  3  0  0  0  0  0  0
   47.5530   30.5850   45.3490 H   0  0  0  0  0  0  0  0  0  0  0  0
   46.3190   29.2270   44.2610 C   0  0  0  0  0  3  0  0  0  0  0  0
   46.3860   28.4660   45.0930 H   0  0  0  0  0  0  0  0  0  0  0  0
   46.2950   28.4630   43.0910 O   0  0  0  0  0  0  0  0  0  0  0  0
   47.1460   29.0210   42.1320 C   0  0  0  0  0  3  0  0  0  0  0  0
   47.0560   28.5520   41.1550 H   0  0  0  0  0  0  0  0  0  0  0  0
   46.9360   30.5300   42.0810 C   0  0  0  0  0  3  0  0  0  0  0  0
   47.3380   30.8550   41.1310 H   0  0  0  0  0  0  0  0  0  0  0  0
  1  3  1  0  0  0  0
  1 24  1  0  0  0  0
  2  1  1  0  0  0  0
  2  4  1  0  0  0  0
  2  3  1  0  0  0  0
  3  7  1  0  0  0  0
  5  2  1  0  0  0  0
  6  3  1  0  0  0  0
  8  1  1  0  0  0  0
  9  8  1  0  0  0  0
 10 17  1  0  0  0  0
 10  9  1  0  0  0  0
 11 10  1  0  0  0  0
 11 12  1  0  0  0  0
 12 20  1  0  0  0  0
 12 13  1  0  0  0  0
 13  8  1  0  0  0  0
 13 21  1  0  0  0  0
 14  8  1  0  0  0  0
 15  9  1  0  0  0  0
 16  9  1  0  0  0  0
 18 10  1  0  0  0  0
 19 12  1  0  0  0  0
 22 13  1  0  0  0  0
 23 28  1  0  0  0  0
 24 23  2  0  0  0  0
 24 25  1  0  0  0  0
 25 26  2  0  0  0  0
 27 26  1  0  0  0  0
 27 29  1  0  0  0  0
 28 27  2  0  0  0  0
 29 31  1  0  0  0  0
 30 23  1  0  0  0  0
 32 29  1  0  0  0  0
 33 25  1  6  0  0  0
 33 34  1  0  0  0  0
 35 33  1  0  0  0  0
 35 36  1  0  0  0  0
 35 34  1  0  0  0  0
 36 37  1  0  0  0  0
 38 36  1  0  0  0  0
 38 39  1  0  0  0  0
 40 38  1  0  0  0  0
 41 40  1  0  0  0  0
 42 41  1  0  0  0  0
 43 41  1  0  0  0  0
 43 35  1  0  0  0  0
 44 43  1  0  0  0  0
M  END
>  <minimizedAffinity>
-4.99324369

>  <minimizedRMSD>
1.42115736

$$$$
