
 OpenBabel03242519343D

 41 43  0  0  0  0  0  0  0  0999 V2000
   46.0650   33.3760   45.4870 C   0  0  0  0  0  0  0  0  0  0  0  0
   46.8150   33.1970   44.3370 C   0  0  0  0  0  0  0  0  0  0  0  0
   46.5950   33.9950   43.2290 C   0  0  0  0  0  0  0  0  0  0  0  0
   45.6060   34.9410   43.3500 N   0  0  0  0  0  0  0  0  0  0  0  0
   44.8740   35.0970   44.4900 C   0  0  0  0  0  0  0  0  0  0  0  0
   45.1020   34.3260   45.5450 N   0  0  0  0  0  0  0  0  0  0  0  0
   43.8450   36.0870   44.4840 N   0  0  0  0  0  0  0  0  0  0  0  0
   48.6420   33.2610   42.3770 C   0  0  0  0  0  0  0  0  0  0  0  0
   48.9130   32.9560   43.5580 O   0  0  0  0  0  0  0  0  0  0  0  0
   47.3620   33.8630   42.0500 N   0  0  0  0  0  0  0  0  0  0  0  0
   47.4640   32.3560   44.4960 H   0  0  0  0  0  0  0  0  0  0  0  0
   43.8980   36.9590   45.0270 H   0  0  0  0  0  0  0  0  0  0  0  0
   43.0160   35.8570   43.8740 H   0  0  0  0  0  0  0  0  0  0  0  0
   46.9820   34.1720   41.1540 H   0  0  0  0  0  0  0  0  0  0  0  0
   46.4150   32.5480   46.6820 C   0  0  0  0  0  0  0  0  0  0  0  0
   46.6380   31.1340   46.3060 C   0  0  0  0  0  0  0  0  0  0  0  0
   45.5400   30.2580   46.8340 C   0  0  0  0  0  0  0  0  0  0  0  0
   45.4100   30.3680   48.3400 C   0  0  0  0  0  0  0  0  0  0  0  0
   45.4430   31.7700   48.8370 C   0  0  0  0  0  0  0  0  0  0  0  0
   45.3720   32.7810   47.7220 C   0  0  0  0  0  0  0  0  0  0  0  0
   47.3900   32.9940   47.0390 H   0  0  0  0  0  0  0  0  0  0  0  0
   46.7130   30.9170   45.2330 H   0  0  0  0  0  0  0  0  0  0  0  0
   47.5700   30.7690   46.7850 H   0  0  0  0  0  0  0  0  0  0  0  0
   45.7620   29.2180   46.5690 H   0  0  0  0  0  0  0  0  0  0  0  0
   44.5820   30.5930   46.3530 H   0  0  0  0  0  0  0  0  0  0  0  0
   44.5770   29.7560   48.6890 H   0  0  0  0  0  0  0  0  0  0  0  0
   46.3310   29.8490   48.7370 H   0  0  0  0  0  0  0  0  0  0  0  0
   44.5620   31.9270   49.4890 H   0  0  0  0  0  0  0  0  0  0  0  0
   46.3470   31.9990   49.4540 H   0  0  0  0  0  0  0  0  0  0  0  0
   45.4700   33.7990   48.1380 H   0  0  0  0  0  0  0  0  0  0  0  0
   44.3530   32.6790   47.2850 H   0  0  0  0  0  0  0  0  0  0  0  0
   49.5430   33.0730   41.1290 C   0  0  0  0  0  3  0  0  0  0  0  0
   50.7980   32.3750   41.5390 C   0  0  0  0  0  3  0  0  0  0  0  0
   50.8910   32.2980   42.6250 H   0  0  0  0  0  0  0  0  0  0  0  0
   50.8290   31.0140   40.8540 C   0  0  0  0  0  3  0  0  0  0  0  0
   51.8220   30.5430   41.0290 H   0  0  0  0  0  0  0  0  0  0  0  0
   50.7540   31.2250   39.4770 O   0  0  0  0  0  0  0  0  0  0  0  0
   49.5610   31.7760   39.0650 C   0  0  0  0  0  3  0  0  0  0  0  0
   49.0470   31.0720   38.4020 H   0  0  0  0  0  0  0  0  0  0  0  0
   48.6850   32.1890   40.2210 C   0  0  0  0  0  3  0  0  0  0  0  0
   47.8760   32.8530   39.8290 H   0  0  0  0  0  0  0  0  0  0  0  0
  1  6  1  0  0  0  0
  1 15  1  0  0  0  0
  2 11  1  0  0  0  0
  2  1  2  0  0  0  0
  3  4  2  0  0  0  0
  3  2  1  0  0  0  0
  4  5  1  0  0  0  0
  5  6  2  0  0  0  0
  7  5  1  0  0  0  0
  7 12  1  0  0  0  0
  8  9  2  0  0  0  0
 10  8  1  0  0  0  0
 10  3  1  0  0  0  0
 13  7  1  0  0  0  0
 14 10  1  0  0  0  0
 15 21  1  0  0  0  0
 15 20  1  0  0  0  0
 16 15  1  0  0  0  0
 16 23  1  0  0  0  0
 16 17  1  0  0  0  0
 17 18  1  0  0  0  0
 18 26  1  0  0  0  0
 18 27  1  0  0  0  0
 18 19  1  0  0  0  0
 19 29  1  0  0  0  0
 19 28  1  0  0  0  0
 20 30  1  0  0  0  0
 20 19  1  0  0  0  0
 22 16  1  0  0  0  0
 24 17  1  0  0  0  0
 25 17  1  0  0  0  0
 31 20  1  0  0  0  0
 32 33  1  0  0  0  0
 32  8  1  0  0  0  0
 33 34  1  0  0  0  0
 35 36  1  0  0  0  0
 35 33  1  0  0  0  0
 37 35  1  0  0  0  0
 38 37  1  0  0  0  0
 38 40  1  0  0  0  0
 39 38  1  0  0  0  0
 40 32  1  0  0  0  0
 41 40  1  0  0  0  0
M  END
>  <minimizedAffinity>
-5.99432278

>  <minimizedRMSD>
1.43392456

$$$$
