
 OpenBabel03242516533D

 46 49  0  0  1  0  0  0  0  0999 V2000
   47.7260   32.7220   41.5170 C   0  0  1  0  0  0  0  0  0  0  0  0
   47.2540   31.9960   40.3380 C   0  0  0  0  0  0  0  0  0  0  0  0
   48.2170   32.3520   39.2100 C   0  0  0  0  0  0  0  0  0  0  0  0
   47.9710   33.8130   38.8690 C   0  0  0  0  0  0  0  0  0  0  0  0
   48.0700   34.7430   40.0390 C   0  0  0  0  0  0  0  0  0  0  0  0
   47.6320   34.2420   41.3420 C   0  0  1  0  0  0  0  0  0  0  0  0
   48.8440   32.5640   41.6110 H   0  0  0  0  0  0  0  0  0  0  0  0
   46.2120   32.2840   40.0640 H   0  0  0  0  0  0  0  0  0  0  0  0
   47.2450   30.9230   40.5250 H   0  0  0  0  0  0  0  0  0  0  0  0
   49.2410   32.1920   39.5860 H   0  0  0  0  0  0  0  0  0  0  0  0
   47.9540   31.7690   38.3170 H   0  0  0  0  0  0  0  0  0  0  0  0
   46.9770   33.8790   38.3850 H   0  0  0  0  0  0  0  0  0  0  0  0
   48.7140   34.0870   38.0910 H   0  0  0  0  0  0  0  0  0  0  0  0
   49.1360   35.0920   40.0740 H   0  0  0  0  0  0  0  0  0  0  0  0
   47.4930   35.6620   39.7780 H   0  0  0  0  0  0  0  0  0  0  0  0
   48.3270   34.6530   42.1360 H   0  0  0  0  0  0  0  0  0  0  0  0
   45.4160   31.0960   44.0330 C   0  0  0  0  0  0  0  0  0  0  0  0
   46.0380   31.5050   42.8470 C   0  0  0  0  0  0  0  0  0  0  0  0
   47.1530   32.3450   42.7930 C   0  0  0  0  0  0  0  0  0  0  0  0
   47.6170   32.7530   43.9750 N   0  0  0  0  0  0  0  0  0  0  0  0
   47.0270   32.3660   45.1370 C   0  0  0  0  0  0  0  0  0  0  0  0
   45.9610   31.5640   45.1790 N   0  0  0  0  0  0  0  0  0  0  0  0
   44.5630   30.4460   43.9310 H   0  0  0  0  0  0  0  0  0  0  0  0
   45.6480   31.1620   41.8970 H   0  0  0  0  0  0  0  0  0  0  0  0
   47.4700   32.7470   46.0630 H   0  0  0  0  0  0  0  0  0  0  0  0
   46.3110   34.7450   41.7300 C   0  0  0  0  0  0  0  0  0  0  0  0
   46.0260   35.5590   42.8350 C   0  0  0  0  0  0  0  0  0  0  0  0
   44.6900   35.9270   42.9960 C   0  0  0  0  0  0  0  0  0  0  0  0
   43.7750   35.4690   42.0730 C   0  0  0  0  0  0  0  0  0  0  0  0
   44.0710   34.6640   40.9860 C   0  0  0  0  0  0  0  0  0  0  0  0
   45.3810   34.3120   40.8410 N   0  0  0  0  0  0  0  0  0  0  0  0
   46.8390   35.8220   43.4440 H   0  0  0  0  0  0  0  0  0  0  0  0
   44.4550   36.5450   43.8290 H   0  0  0  0  0  0  0  0  0  0  0  0
   42.7320   35.7620   42.2100 H   0  0  0  0  0  0  0  0  0  0  0  0
   43.0330   34.2330   40.0570 C   0  0  0  0  0  0  0  0  0  0  0  0
   42.8290   34.9340   39.0270 O   0  0  0  0  0  0  0  0  0  0  0  0
   42.2170   32.9950   40.3020 C   0  0  0  0  0  0  0  0  0  0  0  0
   40.7430   33.3390   40.3710 C   0  0  0  0  0  0  0  0  0  0  0  0
   40.1490   32.7490   39.6430 H   0  0  0  0  0  0  0  0  0  0  0  0
   40.1550   33.0690   41.7410 C   0  0  0  0  0  0  0  0  0  0  0  0
   39.0560   33.2850   41.6270 H   0  0  0  0  0  0  0  0  0  0  0  0
   40.3370   31.7650   42.1720 O   0  0  0  0  0  0  0  0  0  0  0  0
   41.5800   31.2500   41.8400 C   0  0  0  0  0  0  0  0  0  0  0  0
   41.9300   30.4730   42.5220 H   0  0  0  0  0  0  0  0  0  0  0  0
   42.5610   32.3890   41.6510 C   0  0  0  0  0  0  0  0  0  0  0  0
   43.5880   32.0230   41.7190 H   0  0  0  0  0  0  0  0  0  0  0  0
  1  7  1  1  0  0  0
  1 19  1  0  0  0  0
  2  9  1  0  0  0  0
  2  1  1  0  0  0  0
  3 10  1  0  0  0  0
  3  2  1  0  0  0  0
  4  3  1  0  0  0  0
  4  5  1  0  0  0  0
  5 14  1  0  0  0  0
  5  6  1  0  0  0  0
  6  1  1  0  0  0  0
  6 26  1  0  0  0  0
  6 16  1  1  0  0  0
  8  2  1  0  0  0  0
 11  3  1  0  0  0  0
 12  4  1  0  0  0  0
 13  4  1  0  0  0  0
 15  5  1  0  0  0  0
 17 22  1  0  0  0  0
 18 17  2  0  0  0  0
 19 18  1  0  0  0  0
 19 20  2  0  0  0  0
 20 21  1  0  0  0  0
 21 22  2  0  0  0  0
 21 25  1  0  0  0  0
 23 17  1  0  0  0  0
 24 18  1  0  0  0  0
 26 27  1  0  0  0  0
 27 28  2  0  0  0  0
 27 32  1  0  0  0  0
 28 33  1  0  0  0  0
 29 34  1  0  0  0  0
 29 28  1  0  0  0  0
 30 29  2  0  0  0  0
 31 30  1  0  0  0  0
 31 26  2  0  0  0  0
 35 37  1  0  0  0  0
 35 30  1  0  0  0  0
 36 35  2  0  0  0  0
 37 38  1  0  0  0  0
 37 45  1  0  0  0  0
 38 40  1  0  0  0  0
 39 38  1  0  0  0  0
 40 42  1  0  0  0  0
 41 40  1  0  0  0  0
 43 42  1  0  0  0  0
 43 44  1  0  0  0  0
 45 46  1  0  0  0  0
 45 43  1  0  0  0  0
M  END
>  <minimizedAffinity>
-5.60125732

>  <minimizedRMSD>
1.60571849

$$$$
