
 OpenBabel03242521173D

 39 41  0  0  0  0  0  0  0  0999 V2000
   46.4120   32.9590   46.4990 C   0  0  0  0  0  0  0  0  0  0  0  0
   46.9430   32.1450   45.9950 H   0  0  0  0  0  0  0  0  0  0  0  0
   47.1810   33.5090   47.1100 H   0  0  0  0  0  0  0  0  0  0  0  0
   44.5080   35.6880   44.7870 C   0  0  0  0  0  0  0  0  0  0  0  0
   45.1100   35.6520   43.5170 C   0  0  0  0  0  0  0  0  0  0  0  0
   46.1120   34.7140   43.3260 C   0  0  0  0  0  0  0  0  0  0  0  0
   46.4660   33.8770   44.3670 N   0  0  0  0  0  0  0  0  0  0  0  0
   45.8550   33.9600   45.5530 C   0  0  0  0  0  0  0  0  0  0  0  0
   44.8630   34.8660   45.7930 N   0  0  0  0  0  0  0  0  0  0  0  0
   43.7140   36.4120   44.9810 H   0  0  0  0  0  0  0  0  0  0  0  0
   44.7940   36.3260   42.7460 H   0  0  0  0  0  0  0  0  0  0  0  0
   46.7430   34.6530   42.0450 N   0  0  0  0  0  0  0  0  0  0  0  0
   47.9430   35.2310   41.8930 C   0  0  0  0  0  0  0  0  0  0  0  0
   48.5650   35.1810   40.6590 C   0  0  0  0  0  0  0  0  0  0  0  0
   47.9220   34.5400   39.6460 C   0  0  0  0  0  0  0  0  0  0  0  0
   48.5010   34.4970   38.5060 O   0  0  0  0  0  0  0  0  0  0  0  0
   46.7130   33.9500   39.7740 N   0  0  0  0  0  0  0  0  0  0  0  0
   46.1670   34.0370   41.0010 C   0  0  0  0  0  0  0  0  0  0  0  0
   45.0420   33.5220   41.2360 O   0  0  0  0  0  0  0  0  0  0  0  0
   48.4650   35.7470   42.6980 H   0  0  0  0  0  0  0  0  0  0  0  0
   49.5350   35.6370   40.4980 H   0  0  0  0  0  0  0  0  0  0  0  0
   46.2300   33.4600   38.9870 H   0  0  0  0  0  0  0  0  0  0  0  0
   45.3580   32.4780   47.4640 C   0  0  0  0  0  0  0  0  0  0  0  0
   44.4640   33.1130   47.3410 H   0  0  0  0  0  0  0  0  0  0  0  0
   45.6790   32.5630   48.5180 H   0  0  0  0  0  0  0  0  0  0  0  0
   45.5590   30.0480   47.7670 C   0  0  0  0  0  0  0  0  0  0  0  0
   46.3780   30.3380   48.6810 O   0  0  0  0  0  0  0  0  0  0  0  0
   44.9750   31.1230   47.0950 N   0  0  0  0  0  0  0  0  0  0  0  0
   44.2780   30.9890   46.3410 H   0  0  0  0  0  0  0  0  0  0  0  0
   45.2420   28.6330   47.4350 C   0  0  0  0  0  3  0  0  0  0  0  0
   46.4530   27.8890   46.9100 C   0  0  0  0  0  3  0  0  0  0  0  0
   47.1340   27.6770   47.7760 H   0  0  0  0  0  0  0  0  0  0  0  0
   45.9530   26.5280   46.4440 C   0  0  0  0  0  3  0  0  0  0  0  0
   46.7310   25.9510   45.9320 H   0  0  0  0  0  0  0  0  0  0  0  0
   45.5390   25.8610   47.6160 O   0  0  0  0  0  0  0  0  0  0  0  0
   44.4060   26.4630   48.1210 C   0  0  0  0  0  3  0  0  0  0  0  0
   44.0830   25.8780   49.0110 H   0  0  0  0  0  0  0  0  0  0  0  0
   44.6480   27.8750   48.5890 C   0  0  0  0  0  3  0  0  0  0  0  0
   45.2230   27.8960   49.5130 H   0  0  0  0  0  0  0  0  0  0  0  0
  1  3  1  0  0  0  0
  1 23  1  0  0  0  0
  2  1  1  0  0  0  0
  4 10  1  0  0  0  0
  4  9  1  0  0  0  0
  5  4  2  0  0  0  0
  6  5  1  0  0  0  0
  6  7  2  0  0  0  0
  7  8  1  0  0  0  0
  8  9  2  0  0  0  0
  8  1  1  0  0  0  0
 11  5  1  0  0  0  0
 12  6  1  0  0  0  0
 13 12  1  0  0  0  0
 13 20  1  0  0  0  0
 14 13  2  0  0  0  0
 15 17  1  0  0  0  0
 15 14  1  0  0  0  0
 16 15  2  0  0  0  0
 17 18  1  0  0  0  0
 18 19  2  0  0  0  0
 18 12  1  0  0  0  0
 21 14  1  0  0  0  0
 22 17  1  0  0  0  0
 23 25  1  0  0  0  0
 24 23  1  0  0  0  0
 26 27  2  0  0  0  0
 28 23  1  0  0  0  0
 28 26  1  0  0  0  0
 29 28  1  0  0  0  0
 30 26  1  0  0  0  0
 30 38  1  0  0  0  0
 31 30  1  0  0  0  0
 31 32  1  0  0  0  0
 33 31  1  0  0  0  0
 33 35  1  0  0  0  0
 34 33  1  0  0  0  0
 35 36  1  0  0  0  0
 36 38  1  0  0  0  0
 36 37  1  0  0  0  0
 38 39  1  0  0  0  0
M  END
>  <minimizedAffinity>
-6.08215761

>  <minimizedRMSD>
1.4595958

$$$$
