REMARK  Name = 
REMARK  10 active torsions:
REMARK  status: ('A' for Active; 'I' for Inactive)
REMARK    1  A    between atoms: C_1  and  O_13
REMARK    2  A    between atoms: C_2  and  C_10
REMARK    3  A    between atoms: C_5  and  O_14
REMARK    4  A    between atoms: C_6  and  O_12
REMARK    5  A    between atoms: O_14  and  C_15
REMARK    6  A    between atoms: C_15  and  C_16
REMARK    7  A    between atoms: C_16  and  C_18
REMARK    8  A    between atoms: C_17  and  O_23
REMARK    9  A    between atoms: C_22  and  O_24
REMARK   10  A    between atoms: O_24  and  C_42
REMARK                            x       y       z     vdW  Elec       q    Type
REMARK                         _______ _______ _______ _____ _____    ______ ____
ROOT
ATOM      1  C   UNL     1      44.972  29.106  47.292  0.00  0.00    +0.000 C 
ATOM      2  H   UNL     1      45.233  28.705  48.229  0.00  0.00    +0.000 HD
ATOM      3  H   UNL     1      43.762  29.246  47.578  0.00  0.00    +0.000 HD
ENDROOT
BRANCH   1   4
ATOM      4  C   UNL     1      44.800  28.213  46.056  0.00  0.00    +0.000 C 
ATOM      5  H   UNL     1      44.877  28.776  45.135  0.00  0.00    +0.000 HD
ATOM      6  H   UNL     1      45.625  27.472  46.097  0.00  0.00    +0.000 HD
BRANCH   4   8
ATOM      7  C   UNL     1      42.447  28.073  45.466  0.00  0.00    +0.000 A 
ATOM      8  C   UNL     1      43.528  27.493  46.148  0.00  0.00    +0.000 A 
ATOM      9  C   UNL     1      43.209  26.337  46.823  0.00  0.00    +0.000 A 
ATOM     10  C   UNL     1      41.971  25.764  46.861  0.00  0.00    +0.000 A 
ATOM     11  C   UNL     1      40.919  26.357  46.180  0.00  0.00    +0.000 A 
ATOM     12  C   UNL     1      41.167  27.548  45.462  0.00  0.00    +0.000 A 
ATOM     13  H   UNL     1      44.065  25.919  47.335  0.00  0.00    +0.000 HD
ATOM     14  H   UNL     1      41.892  24.851  47.441  0.00  0.00    +0.000 HD
ATOM     15  H   UNL     1      39.961  25.872  46.237  0.00  0.00    +0.000 HD
BRANCH   7  16
ATOM     16  O   UNL     1      42.477  29.225  44.708  0.00  0.00    +0.000 OA
ATOM     17  H   UNL     1      42.940  30.043  45.061  0.00  0.00    +0.000 HD
ENDBRANCH   7  16
BRANCH  12  18
ATOM     18  O   UNL     1      40.083  28.026  44.848  0.00  0.00    +0.000 OA
BRANCH  18  19
ATOM     19  C   UNL     1      39.684  29.045  44.066  0.00  0.00    +0.000 C 
ATOM     20  C   UNL     1      39.471  28.705  42.604  0.00  0.00    +0.000 C 
ATOM     21  H   UNL     1      38.911  27.790  42.448  0.00  0.00    +0.000 HD
ATOM     22  C   UNL     1      40.770  28.600  41.844  0.00  0.00    +0.000 C 
ATOM     23  H   UNL     1      41.485  27.906  42.301  0.00  0.00    +0.000 HD
ATOM     24  O   UNL     1      41.286  29.916  41.836  0.00  0.00    +0.000 OA
ATOM     25  C   UNL     1      41.767  30.122  43.119  0.00  0.00    +0.000 C 
ATOM     26  H   UNL     1      42.556  29.396  43.336  0.00  0.00    +0.000 HD
ATOM     27  C   UNL     1      40.688  30.179  44.168  0.00  0.00    +0.000 C 
ATOM     28  H   UNL     1      41.192  30.152  45.156  0.00  0.00    +0.000 HD
ENDBRANCH  18  19
ENDBRANCH  12  18
ENDBRANCH   4   8
ENDBRANCH   1   4
BRANCH   1  29
ATOM     29  O   UNL     1      45.215  30.382  46.983  0.00  0.00    +0.000 OA
BRANCH  29  34
ATOM     30  C   UNL     1      46.373  32.460  46.899  0.00  0.00    +0.000 C 
ATOM     31  C   UNL     1      47.071  32.548  45.617  0.00  0.00    +0.000 C 
ATOM     32  O   UNL     1      46.845  31.207  45.022  0.00  0.00    +0.000 OA
ATOM     33  C   UNL     1      47.351  30.463  46.081  0.00  0.00    +0.000 C 
ATOM     34  C   UNL     1      46.361  31.013  47.257  0.00  0.00    +0.000 C 
ATOM     35  H   UNL     1      46.808  33.093  47.696  0.00  0.00    +0.000 HD
ATOM     36  H   UNL     1      48.184  32.562  45.721  0.00  0.00    +0.000 HD
ATOM     37  H   UNL     1      47.176  29.390  46.006  0.00  0.00    +0.000 HD
ATOM     38  H   UNL     1      48.356  30.785  46.347  0.00  0.00    +0.000 HD
ATOM     39  H   UNL     1      46.955  30.645  48.110  0.00  0.00    +0.000 HD
BRANCH  31  44
ATOM     40  C   UNL     1      44.927  35.149  44.227  0.00  0.00    +0.000 A 
ATOM     41  C   UNL     1      45.572  35.516  43.046  0.00  0.00    +0.000 A 
ATOM     42  C   UNL     1      46.763  34.858  42.703  0.00  0.00    +0.000 A 
ATOM     43  N   UNL     1      47.243  33.895  43.522  0.00  0.00    +0.000 NA
ATOM     44  C   UNL     1      46.602  33.552  44.664  0.00  0.00    +0.000 A 
ATOM     45  N   UNL     1      45.443  34.173  45.025  0.00  0.00    +0.000 NA
ATOM     46  H   UNL     1      45.127  36.295  42.444  0.00  0.00    +0.000 HD
ATOM     47  H   UNL     1      47.255  35.147  41.789  0.00  0.00    +0.000 HD
BRANCH  40  48
ATOM     48  O   UNL     1      43.740  35.770  44.618  0.00  0.00    +0.000 OA
ATOM     49  H   UNL     1      42.988  35.842  43.951  0.00  0.00    +0.000 HD
ENDBRANCH  40  48
ENDBRANCH  31  44
BRANCH  30  50
ATOM     50  O   UNL     1      44.984  32.851  46.688  0.00  0.00    +0.000 OA
ATOM     51  H   UNL     1      44.669  33.047  47.626  0.00  0.00    +0.000 HD
ENDBRANCH  30  50
ENDBRANCH  29  34
ENDBRANCH   1  29
TORSDOF 10
