
 OpenBabel03242516533D

 46 49  0  0  1  0  0  0  0  0999 V2000
   47.8590   32.9350   41.8030 C   0  0  1  0  0  0  0  0  0  0  0  0
   47.5440   32.1910   40.5840 C   0  0  0  0  0  0  0  0  0  0  0  0
   48.5570   32.6460   39.5390 C   0  0  0  0  0  0  0  0  0  0  0  0
   48.2140   34.0860   39.1930 C   0  0  0  0  0  0  0  0  0  0  0  0
   48.1410   35.0020   40.3760 C   0  0  0  0  0  0  0  0  0  0  0  0
   47.6480   34.4450   41.6360 C   0  0  1  0  0  0  0  0  0  0  0  0
   48.9750   32.8720   41.9830 H   0  0  0  0  0  0  0  0  0  0  0  0
   46.5050   32.3940   40.2330 H   0  0  0  0  0  0  0  0  0  0  0  0
   47.6130   31.1180   40.7600 H   0  0  0  0  0  0  0  0  0  0  0  0
   49.5590   32.5680   39.9930 H   0  0  0  0  0  0  0  0  0  0  0  0
   48.4150   32.0560   38.6220 H   0  0  0  0  0  0  0  0  0  0  0  0
   47.2580   34.0740   38.6330 H   0  0  0  0  0  0  0  0  0  0  0  0
   48.9880   34.4350   38.4790 H   0  0  0  0  0  0  0  0  0  0  0  0
   49.1670   35.4400   40.4970 H   0  0  0  0  0  0  0  0  0  0  0  0
   47.5090   35.8730   40.0790 H   0  0  0  0  0  0  0  0  0  0  0  0
   48.2420   34.9010   42.4860 H   0  0  0  0  0  0  0  0  0  0  0  0
   45.5230   31.0660   44.1180 C   0  0  0  0  0  0  0  0  0  0  0  0
   46.1960   31.5460   42.9870 C   0  0  0  0  0  0  0  0  0  0  0  0
   47.2240   32.4910   43.0270 C   0  0  0  0  0  0  0  0  0  0  0  0
   47.5470   32.9310   44.2440 N   0  0  0  0  0  0  0  0  0  0  0  0
   46.9050   32.4760   45.3530 C   0  0  0  0  0  0  0  0  0  0  0  0
   45.9240   31.5730   45.3050 N   0  0  0  0  0  0  0  0  0  0  0  0
   44.7490   30.3370   43.9440 H   0  0  0  0  0  0  0  0  0  0  0  0
   45.9200   31.1770   42.0080 H   0  0  0  0  0  0  0  0  0  0  0  0
   47.2320   32.8880   46.3130 H   0  0  0  0  0  0  0  0  0  0  0  0
   46.2630   34.8280   41.9230 C   0  0  0  0  0  0  0  0  0  0  0  0
   45.8210   35.5730   43.0250 C   0  0  0  0  0  0  0  0  0  0  0  0
   44.4500   35.8290   43.0820 C   0  0  0  0  0  0  0  0  0  0  0  0
   43.6570   35.3370   42.0680 C   0  0  0  0  0  0  0  0  0  0  0  0
   44.1080   34.6010   40.9850 C   0  0  0  0  0  0  0  0  0  0  0  0
   45.4490   34.3590   40.9430 N   0  0  0  0  0  0  0  0  0  0  0  0
   46.5560   35.8740   43.7120 H   0  0  0  0  0  0  0  0  0  0  0  0
   44.0960   36.3930   43.9110 H   0  0  0  0  0  0  0  0  0  0  0  0
   42.5860   35.5430   42.1230 H   0  0  0  0  0  0  0  0  0  0  0  0
   43.1900   34.1280   39.9560 C   0  0  0  0  0  0  0  0  0  0  0  0
   42.8170   34.9470   39.0700 O   0  0  0  0  0  0  0  0  0  0  0  0
   42.6890   32.7110   39.9330 C   0  0  0  0  0  3  0  0  0  0  0  0
   41.8140   32.4410   41.1400 C   0  0  0  0  0  3  0  0  0  0  0  0
   40.8110   32.0670   40.8460 H   0  0  0  0  0  0  0  0  0  0  0  0
   42.4170   31.4010   42.0630 C   0  0  0  0  0  3  0  0  0  0  0  0
   41.6370   31.2410   42.8590 H   0  0  0  0  0  0  0  0  0  0  0  0
   42.7030   30.2010   41.4330 O   0  0  0  0  0  0  0  0  0  0  0  0
   43.2090   30.3660   40.1540 C   0  0  0  0  0  3  0  0  0  0  0  0
   43.8530   29.5480   39.8280 H   0  0  0  0  0  0  0  0  0  0  0  0
   43.8480   31.7360   40.0390 C   0  0  0  0  0  3  0  0  0  0  0  0
   44.5280   31.7690   39.1850 H   0  0  0  0  0  0  0  0  0  0  0  0
  1  7  1  1  0  0  0
  1 19  1  0  0  0  0
  2  9  1  0  0  0  0
  2  1  1  0  0  0  0
  3 10  1  0  0  0  0
  3  2  1  0  0  0  0
  4  3  1  0  0  0  0
  4  5  1  0  0  0  0
  5 14  1  0  0  0  0
  5  6  1  0  0  0  0
  6  1  1  0  0  0  0
  6 26  1  0  0  0  0
  6 16  1  1  0  0  0
  8  2  1  0  0  0  0
 11  3  1  0  0  0  0
 12  4  1  0  0  0  0
 13  4  1  0  0  0  0
 15  5  1  0  0  0  0
 17 22  1  0  0  0  0
 18 19  1  0  0  0  0
 18 17  2  0  0  0  0
 19 20  2  0  0  0  0
 20 21  1  0  0  0  0
 21 25  1  0  0  0  0
 22 21  2  0  0  0  0
 23 17  1  0  0  0  0
 24 18  1  0  0  0  0
 26 27  1  0  0  0  0
 27 28  2  0  0  0  0
 27 32  1  0  0  0  0
 28 33  1  0  0  0  0
 29 34  1  0  0  0  0
 29 28  1  0  0  0  0
 30 29  2  0  0  0  0
 31 30  1  0  0  0  0
 31 26  2  0  0  0  0
 35 30  1  0  0  0  0
 36 35  2  0  0  0  0
 37 35  1  0  0  0  0
 37 45  1  0  0  0  0
 37 38  1  0  0  0  0
 38 40  1  0  0  0  0
 39 38  1  0  0  0  0
 40 41  1  0  0  0  0
 42 40  1  0  0  0  0
 43 42  1  0  0  0  0
 44 43  1  0  0  0  0
 45 43  1  0  0  0  0
 46 45  1  0  0  0  0
M  END
>  <minimizedAffinity>
-5.19592762

>  <minimizedRMSD>
0.830692649

$$$$
