
 OpenBabel03242519343D

 41 43  0  0  0  0  0  0  0  0999 V2000
   46.0830   33.4630   45.4650 C   0  0  0  0  0  0  0  0  0  0  0  0
   46.8190   33.2700   44.3090 C   0  0  0  0  0  0  0  0  0  0  0  0
   46.5620   34.0300   43.1820 C   0  0  0  0  0  0  0  0  0  0  0  0
   45.5510   34.9540   43.2930 N   0  0  0  0  0  0  0  0  0  0  0  0
   44.8330   35.1250   44.4400 C   0  0  0  0  0  0  0  0  0  0  0  0
   45.0970   34.3910   45.5120 N   0  0  0  0  0  0  0  0  0  0  0  0
   43.7800   36.0890   44.4220 N   0  0  0  0  0  0  0  0  0  0  0  0
   48.6130   33.3230   42.3190 C   0  0  0  0  0  0  0  0  0  0  0  0
   48.9110   33.0600   43.5030 O   0  0  0  0  0  0  0  0  0  0  0  0
   47.3140   33.8830   41.9950 N   0  0  0  0  0  0  0  0  0  0  0  0
   47.4920   32.4520   44.4810 H   0  0  0  0  0  0  0  0  0  0  0  0
   43.8180   36.9760   44.9380 H   0  0  0  0  0  0  0  0  0  0  0  0
   42.9470   35.8200   43.8320 H   0  0  0  0  0  0  0  0  0  0  0  0
   46.9120   34.1570   41.0970 H   0  0  0  0  0  0  0  0  0  0  0  0
   46.4730   32.6800   46.6780 C   0  0  0  0  0  0  0  0  0  0  0  0
   46.8500   31.2940   46.3200 C   0  0  0  0  0  0  0  0  0  0  0  0
   45.8270   30.3140   46.8170 C   0  0  0  0  0  0  0  0  0  0  0  0
   45.6340   30.4160   48.3170 C   0  0  0  0  0  0  0  0  0  0  0  0
   45.5100   31.8160   48.8040 C   0  0  0  0  0  0  0  0  0  0  0  0
   45.3770   32.8110   47.6800 C   0  0  0  0  0  0  0  0  0  0  0  0
   47.3850   33.2230   47.0640 H   0  0  0  0  0  0  0  0  0  0  0  0
   46.9820   31.0810   45.2520 H   0  0  0  0  0  0  0  0  0  0  0  0
   47.7960   31.0270   46.8330 H   0  0  0  0  0  0  0  0  0  0  0  0
   46.1610   29.3010   46.5670 H   0  0  0  0  0  0  0  0  0  0  0  0
   44.8570   30.5500   46.3010 H   0  0  0  0  0  0  0  0  0  0  0  0
   44.8560   29.7260   48.6420 H   0  0  0  0  0  0  0  0  0  0  0  0
   46.5890   29.9940   48.7480 H   0  0  0  0  0  0  0  0  0  0  0  0
   44.5960   31.8870   49.4240 H   0  0  0  0  0  0  0  0  0  0  0  0
   46.3650   32.1380   49.4500 H   0  0  0  0  0  0  0  0  0  0  0  0
   45.3580   33.8350   48.0920 H   0  0  0  0  0  0  0  0  0  0  0  0
   44.3890   32.6060   47.2100 H   0  0  0  0  0  0  0  0  0  0  0  0
   49.4990   33.1220   41.0610 C   0  0  0  0  0  3  0  0  0  0  0  0
   50.6760   32.2780   41.4290 C   0  0  0  0  0  3  0  0  0  0  0  0
   50.7540   32.1260   42.5070 H   0  0  0  0  0  0  0  0  0  0  0  0
   50.5750   30.9650   40.6620 C   0  0  0  0  0  3  0  0  0  0  0  0
   51.5140   30.3880   40.8090 H   0  0  0  0  0  0  0  0  0  0  0  0
   50.5310   31.2660   39.3010 O   0  0  0  0  0  0  0  0  0  0  0  0
   49.4020   31.9570   38.9230 C   0  0  0  0  0  3  0  0  0  0  0  0
   48.8230   31.3490   38.2180 H   0  0  0  0  0  0  0  0  0  0  0  0
   48.5630   32.3860   40.1010 C   0  0  0  0  0  3  0  0  0  0  0  0
   47.8270   33.1490   39.7500 H   0  0  0  0  0  0  0  0  0  0  0  0
  1  6  1  0  0  0  0
  1 15  1  0  0  0  0
  2 11  1  0  0  0  0
  2  1  2  0  0  0  0
  3  4  2  0  0  0  0
  3  2  1  0  0  0  0
  4  5  1  0  0  0  0
  5  6  2  0  0  0  0
  7  5  1  0  0  0  0
  7 12  1  0  0  0  0
  8  9  2  0  0  0  0
 10  8  1  0  0  0  0
 10  3  1  0  0  0  0
 13  7  1  0  0  0  0
 14 10  1  0  0  0  0
 15 21  1  0  0  0  0
 15 20  1  0  0  0  0
 16 15  1  0  0  0  0
 16 17  1  0  0  0  0
 16 23  1  0  0  0  0
 17 18  1  0  0  0  0
 18 26  1  0  0  0  0
 18 27  1  0  0  0  0
 18 19  1  0  0  0  0
 19 28  1  0  0  0  0
 19 29  1  0  0  0  0
 20 30  1  0  0  0  0
 20 19  1  0  0  0  0
 22 16  1  0  0  0  0
 24 17  1  0  0  0  0
 25 17  1  0  0  0  0
 31 20  1  0  0  0  0
 32 33  1  0  0  0  0
 32  8  1  0  0  0  0
 33 34  1  0  0  0  0
 35 36  1  0  0  0  0
 35 33  1  0  0  0  0
 37 35  1  0  0  0  0
 38 37  1  0  0  0  0
 38 40  1  0  0  0  0
 39 38  1  0  0  0  0
 40 32  1  0  0  0  0
 41 40  1  0  0  0  0
M  END
>  <minimizedAffinity>
-5.96751833

>  <minimizedRMSD>
1.35370231

$$$$
