
     RDKit          3D

 49 52  0  0  0  0  0  0  0  0999 V2000
   48.0599   34.5473   41.7299 C   0  0  0  0  0  0  0  0  0  0  0  0
   48.8200   35.8357   41.3902 C   0  0  0  0  0  0  0  0  0  0  0  0
   49.4540   34.7095   42.0723 C   0  0  0  0  0  0  0  0  0  0  0  0
   47.6707   33.7630   40.5300 C   0  0  0  0  0  0  0  0  0  0  0  0
   48.1323   34.3472   39.2055 C   0  0  0  0  0  0  0  0  0  0  0  0
   47.7489   33.2842   38.1614 C   0  0  0  0  0  0  0  0  0  0  0  0
   46.3639   33.4026   37.9809 O   0  0  0  0  0  0  0  0  0  0  0  0
   45.8434   32.8160   39.1657 C   0  0  0  0  0  0  0  0  0  0  0  0
   46.1307   33.7326   40.3498 C   0  0  0  0  0  0  0  0  0  0  0  0
   46.1461   35.8009   42.8044 C   0  0  0  0  0  0  0  0  0  0  0  0
   47.0031   34.7135   42.7904 C   0  0  0  0  0  0  0  0  0  0  0  0
   46.8567   33.7863   43.8139 C   0  0  0  0  0  0  0  0  0  0  0  0
   45.9021   33.9634   44.7787 N   0  0  0  0  0  0  0  0  0  0  0  0
   45.1159   35.0375   44.7222 C   0  0  0  0  0  0  0  0  0  0  0  0
   45.2195   35.9393   43.7721 N   0  0  0  0  0  0  0  0  0  0  0  0
   44.1055   35.2747   45.7013 N   0  0  0  0  0  0  0  0  0  0  0  0
   47.7421   32.6488   43.9696 C   0  0  0  0  0  0  0  0  0  0  0  0
   47.4931   31.4805   44.3447 O   0  0  0  0  0  0  0  0  0  0  0  0
   48.5243   36.7421   41.9573 H   0  0  0  0  0  0  0  0  0  0  0  0
   49.0433   36.0664   40.3353 H   0  0  0  0  0  0  0  0  0  0  0  0
   50.2125   34.1806   41.4544 H   0  0  0  0  0  0  0  0  0  0  0  0
   49.8745   34.9649   43.0527 H   0  0  0  0  0  0  0  0  0  0  0  0
   47.9524   32.7023   40.5509 H   0  0  0  0  0  0  0  0  0  0  0  0
   49.2275   34.4329   39.1208 H   0  0  0  0  0  0  0  0  0  0  0  0
   47.5702   35.2672   38.9836 H   0  0  0  0  0  0  0  0  0  0  0  0
   48.0578   32.2851   38.4835 H   0  0  0  0  0  0  0  0  0  0  0  0
   48.2981   33.5333   37.2335 H   0  0  0  0  0  0  0  0  0  0  0  0
   44.7734   32.6147   39.1028 H   0  0  0  0  0  0  0  0  0  0  0  0
   46.3760   31.8625   39.3480 H   0  0  0  0  0  0  0  0  0  0  0  0
   45.6321   33.3135   41.2228 H   0  0  0  0  0  0  0  0  0  0  0  0
   45.8564   34.7750   40.1168 H   0  0  0  0  0  0  0  0  0  0  0  0
   46.2410   36.5331   42.0197 H   0  0  0  0  0  0  0  0  0  0  0  0
   44.4449   35.9274   46.4495 H   0  0  0  0  0  0  0  0  0  0  0  0
   43.2097   34.7782   45.5302 H   0  0  0  0  0  0  0  0  0  0  0  0
   49.0293   31.9166   43.9397 C   0  0  0  0  0  0  0  0  0  0  0  0
   48.8920   30.4561   44.3649 C   0  0  2  0  0  0  0  0  0  0  0  0
   47.9964   30.3455   45.0017 H   0  0  0  0  0  0  0  0  0  0  0  0
   48.8400   29.4846   43.2419 C   0  0  1  0  0  0  0  0  0  0  0  0
   48.8397   28.4605   43.7168 H   0  0  0  0  0  0  0  0  0  0  0  0
   49.9964   29.5051   42.4560 O   0  0  0  0  0  0  0  0  0  0  0  0
   50.6713   30.7190   42.6202 C   0  0  2  0  0  0  0  0  0  0  0  0
   51.4964   30.8468   41.9248 H   0  0  0  0  0  0  0  0  0  0  0  0
   49.6717   31.8685   42.5637 C   0  0  2  0  0  0  0  0  0  0  0  0
   50.2504   32.7567   42.3529 H   0  0  0  0  0  0  0  0  0  0  0  0
   49.7985   32.3344   44.6100 H   0  0  0  0  0  0  0  0  0  0  0  0
   49.7348   30.1858   45.0700 H   0  0  0  0  0  0  0  0  0  0  0  0
   47.9473   29.5655   42.6440 H   0  0  0  0  0  0  0  0  0  0  0  0
   51.0901   30.7191   43.6445 H   0  0  0  0  0  0  0  0  0  0  0  0
   48.9114   31.6301   41.7704 H   0  0  0  0  0  0  0  0  0  0  0  0
  1  3  1  0
  1 11  1  0
  2  1  1  0
  2  3  1  0
  4  1  1  0
  5  4  1  0
  6  5  1  0
  7  6  1  0
  7  8  1  0
  8  9  1  0
  9  4  1  0
 10 11  2  0
 10 15  1  0
 11 12  1  0
 12 17  1  0
 12 13  2  0
 14 13  1  0
 14 16  1  0
 15 14  2  0
 17 18  2  0
  2 19  1  0
  2 20  1  0
  3 21  1  0
  3 22  1  0
  4 23  1  0
  5 24  1  0
  5 25  1  0
  6 26  1  0
  6 27  1  0
  8 28  1  0
  8 29  1  0
  9 30  1  0
  9 31  1  0
 10 32  1  0
 16 33  1  0
 16 34  1  0
 35 36  1  0
 36 37  1  1
 36 38  1  0
 38 39  1  1
 38 40  1  0
 40 41  1  0
 41 42  1  6
 41 43  1  0
 43 44  1  6
 43 35  1  0
 35 45  1  0
 36 46  1  0
 38 47  1  0
 41 48  1  0
 43 49  1  0
 17 35  1  0
M  ISO  8  19  13  20  13  21  13  22  13  23  13  24  13  25  13  26  13
M  ISO  8  27  13  28  13  29  13  30  13  31  13  32  14  37  15  39  15
M  ISO  2  42  15  44  15
M  END
>  <DihAtoms>  (1) 
11,16,34,35

>  <DihDeg>  (1) 
150.22732801820987

$$$$
