
     RDKit          3D

 41 43  0  0  0  0  0  0  0  0999 V2000
   45.1303   34.4127   41.1865 C   0  0  0  0  0  0  0  0  0  0  0  0
   45.5494   35.0182   42.3689 C   0  0  0  0  0  0  0  0  0  0  0  0
   46.9103   35.2438   42.5515 C   0  0  0  0  0  0  0  0  0  0  0  0
   47.8040   34.8710   41.5766 C   0  0  0  0  0  0  0  0  0  0  0  0
   47.4054   34.2744   40.4086 C   0  0  0  0  0  0  0  0  0  0  0  0
   46.0353   34.0537   40.2383 C   0  0  0  0  0  0  0  0  0  0  0  0
   41.4305   34.8430   40.5832 C   0  0  0  0  0  0  0  0  0  0  0  0
   42.7932   35.1597   40.6693 C   0  0  0  0  0  0  0  0  0  0  0  0
   43.7051   34.2102   41.0597 C   0  0  0  0  0  0  0  0  0  0  0  0
   43.1972   32.9844   41.3449 N   0  0  0  0  0  0  0  0  0  0  0  0
   41.8869   32.6750   41.2635 C   0  0  0  0  0  0  0  0  0  0  0  0
   40.9907   33.6152   40.8778 N   0  0  0  0  0  0  0  0  0  0  0  0
   40.4529   35.8713   40.1617 C   0  0  0  0  0  0  0  0  0  0  0  0
   39.2298   35.2243   39.9534 F   0  0  0  0  0  0  0  0  0  0  0  0
   40.8425   36.2943   38.8867 F   0  0  0  0  0  0  0  0  0  0  0  0
   40.3223   36.9026   41.0366 F   0  0  0  0  0  0  0  0  0  0  0  0
   45.4596   32.1444   38.5684 C   0  0  0  0  0  0  0  0  0  0  0  0
   45.9384   31.1477   39.0920 O   0  0  0  0  0  0  0  0  0  0  0  0
   45.4934   33.4570   39.0816 N   0  0  0  0  0  0  0  0  0  0  0  0
   44.8538   35.3147   43.1411 H   0  0  0  0  0  0  0  0  0  0  0  0
   47.3240   35.7072   43.4367 H   0  0  0  0  0  0  0  0  0  0  0  0
   48.8654   35.0435   41.7117 H   0  0  0  0  0  0  0  0  0  0  0  0
   48.0778   33.9660   39.6163 H   0  0  0  0  0  0  0  0  0  0  0  0
   43.1691   36.1474   40.4352 H   0  0  0  0  0  0  0  0  0  0  0  0
   41.6424   31.6637   41.5214 H   0  0  0  0  0  0  0  0  0  0  0  0
   45.0286   34.2522   38.5408 H   0  0  0  0  0  0  0  0  0  0  0  0
   44.7641   31.9564   37.2443 C   0  0  2  0  0  0  0  0  0  0  0  0
   43.3491   32.3828   37.3775 C   0  0  2  0  0  0  0  0  0  0  0  0
   43.2215   33.3746   37.8372 H   0  0  0  0  0  0  0  0  0  0  0  0
   42.7498   32.3486   35.9657 C   0  0  1  0  0  0  0  0  0  0  0  0
   41.6534   32.3287   35.9721 H   0  0  0  0  0  0  0  0  0  0  0  0
   43.3206   31.3277   35.2247 O   0  0  0  0  0  0  0  0  0  0  0  0
   43.6494   30.2081   35.9848 C   0  0  1  0  0  0  0  0  0  0  0  0
   42.8186   29.8648   36.6303 H   0  0  0  0  0  0  0  0  0  0  0  0
   44.8191   30.4818   36.9036 C   0  0  2  0  0  0  0  0  0  0  0  0
   44.7674   29.9259   37.8634 H   0  0  0  0  0  0  0  0  0  0  0  0
   45.2684   32.5719   36.4685 H   0  0  0  0  0  0  0  0  0  0  0  0
   42.7637   31.6110   37.9511 H   0  0  0  0  0  0  0  0  0  0  0  0
   43.0264   33.3215   35.4917 H   0  0  0  0  0  0  0  0  0  0  0  0
   43.9190   29.3988   35.2871 H   0  0  0  0  0  0  0  0  0  0  0  0
   45.7956   30.2777   36.4236 H   0  0  0  0  0  0  0  0  0  0  0  0
  1  2  2  0
  2  3  1  0
  4  3  2  0
  5  4  1  0
  6  5  2  0
  6  1  1  0
  7  8  2  0
  7 12  1  0
  8  9  1  0
  9  1  1  0
  9 10  2  0
 11 10  1  0
 12 11  2  0
 13  7  1  0
 13 16  1  0
 14 13  1  0
 15 13  1  0
 17 18  2  0
 17 19  1  0
 19  6  1  0
  2 20  1  0
  3 21  1  0
  4 22  1  0
  5 23  1  0
  8 24  1  0
 11 25  1  0
 19 26  1  0
 27 28  1  0
 28 29  1  1
 28 30  1  0
 30 31  1  1
 30 32  1  0
 32 33  1  0
 33 34  1  1
 33 35  1  0
 35 36  1  1
 35 27  1  0
 27 37  1  6
 28 38  1  0
 30 39  1  0
 33 40  1  0
 35 41  1  0
 17 27  1  0
M  ISO  8  20  14  21  14  22  14  23  14  24  14  25  14  29  15  31  15
M  ISO  2  34  15  36  15
M  END
>  <DihAtoms>  (1) 
17,16,26,27

>  <DihDeg>  (1) 
-0.010397214582563815

$$$$
