
 OpenBabel03242521173D

 39 41  0  0  0  0  0  0  0  0999 V2000
   46.4360   32.9720   46.4980 C   0  0  0  0  0  0  0  0  0  0  0  0
   46.8830   32.1090   45.9960 H   0  0  0  0  0  0  0  0  0  0  0  0
   47.2770   33.5000   47.0300 H   0  0  0  0  0  0  0  0  0  0  0  0
   44.5090   35.6810   44.7800 C   0  0  0  0  0  0  0  0  0  0  0  0
   45.1090   35.6460   43.5100 C   0  0  0  0  0  0  0  0  0  0  0  0
   46.1180   34.7140   43.3210 C   0  0  0  0  0  0  0  0  0  0  0  0
   46.4790   33.8830   44.3630 N   0  0  0  0  0  0  0  0  0  0  0  0
   45.8700   33.9660   45.5500 C   0  0  0  0  0  0  0  0  0  0  0  0
   44.8720   34.8650   45.7890 N   0  0  0  0  0  0  0  0  0  0  0  0
   43.7090   36.3990   44.9740 H   0  0  0  0  0  0  0  0  0  0  0  0
   44.7870   36.3150   42.7370 H   0  0  0  0  0  0  0  0  0  0  0  0
   46.7470   34.6540   42.0380 N   0  0  0  0  0  0  0  0  0  0  0  0
   47.9440   35.2360   41.8840 C   0  0  0  0  0  0  0  0  0  0  0  0
   48.5650   35.1870   40.6490 C   0  0  0  0  0  0  0  0  0  0  0  0
   47.9230   34.5410   39.6380 C   0  0  0  0  0  0  0  0  0  0  0  0
   48.5010   34.4980   38.4970 O   0  0  0  0  0  0  0  0  0  0  0  0
   46.7170   33.9470   39.7690 N   0  0  0  0  0  0  0  0  0  0  0  0
   46.1710   34.0340   40.9960 C   0  0  0  0  0  0  0  0  0  0  0  0
   45.0490   33.5150   41.2330 O   0  0  0  0  0  0  0  0  0  0  0  0
   48.4650   35.7550   42.6870 H   0  0  0  0  0  0  0  0  0  0  0  0
   49.5320   35.6460   40.4850 H   0  0  0  0  0  0  0  0  0  0  0  0
   46.2340   33.4540   38.9830 H   0  0  0  0  0  0  0  0  0  0  0  0
   45.4290   32.5940   47.5550 C   0  0  0  0  0  0  0  0  0  0  0  0
   44.5850   33.3030   47.4950 H   0  0  0  0  0  0  0  0  0  0  0  0
   45.8420   32.6610   48.5770 H   0  0  0  0  0  0  0  0  0  0  0  0
   45.4760   30.1540   47.8460 C   0  0  0  0  0  0  0  0  0  0  0  0
   46.4170   30.3770   48.6560 O   0  0  0  0  0  0  0  0  0  0  0  0
   44.9020   31.2730   47.2400 N   0  0  0  0  0  0  0  0  0  0  0  0
   44.1130   31.1970   46.5740 H   0  0  0  0  0  0  0  0  0  0  0  0
   45.0140   28.7690   47.5610 C   0  0  0  0  0  3  0  0  0  0  0  0
   44.1730   28.7000   46.3020 C   0  0  0  0  0  3  0  0  0  0  0  0
   44.8580   28.8000   45.4200 H   0  0  0  0  0  0  0  0  0  0  0  0
   43.6230   27.2820   46.2300 C   0  0  0  0  0  3  0  0  0  0  0  0
   42.8990   27.1570   45.4180 H   0  0  0  0  0  0  0  0  0  0  0  0
   44.7460   26.4560   46.0180 O   0  0  0  0  0  0  0  0  0  0  0  0
   45.5330   26.4370   47.1500 C   0  0  0  0  0  3  0  0  0  0  0  0
   46.3770   25.7370   46.9600 H   0  0  0  0  0  0  0  0  0  0  0  0
   46.1410   27.7790   47.4680 C   0  0  0  0  0  3  0  0  0  0  0  0
   46.9360   28.0330   46.7680 H   0  0  0  0  0  0  0  0  0  0  0  0
  1  3  1  0  0  0  0
  1 23  1  0  0  0  0
  2  1  1  0  0  0  0
  4 10  1  0  0  0  0
  4  9  1  0  0  0  0
  5  4  2  0  0  0  0
  6  5  1  0  0  0  0
  6  7  2  0  0  0  0
  7  8  1  0  0  0  0
  8  9  2  0  0  0  0
  8  1  1  0  0  0  0
 11  5  1  0  0  0  0
 12  6  1  0  0  0  0
 13 12  1  0  0  0  0
 13 20  1  0  0  0  0
 14 13  2  0  0  0  0
 15 17  1  0  0  0  0
 15 14  1  0  0  0  0
 16 15  2  0  0  0  0
 17 18  1  0  0  0  0
 18 19  2  0  0  0  0
 18 12  1  0  0  0  0
 21 14  1  0  0  0  0
 22 17  1  0  0  0  0
 23 25  1  0  0  0  0
 24 23  1  0  0  0  0
 26 27  2  0  0  0  0
 28 23  1  0  0  0  0
 28 26  1  0  0  0  0
 29 28  1  0  0  0  0
 30 26  1  0  0  0  0
 31 30  1  0  0  0  0
 32 31  1  0  0  0  0
 33 31  1  0  0  0  0
 34 33  1  0  0  0  0
 35 33  1  0  0  0  0
 35 36  1  0  0  0  0
 36 38  1  0  0  0  0
 37 36  1  0  0  0  0
 38 30  1  0  0  0  0
 39 38  1  0  0  0  0
M  END
>  <minimizedAffinity>
-6.41121817

>  <minimizedRMSD>
1.14530194

$$$$
