
 OpenBabel03242521173D

 39 41  0  0  0  0  0  0  0  0999 V2000
   46.5330   32.8480   46.5000 C   0  0  0  0  0  0  0  0  0  0  0  0
   47.0770   32.0550   45.9780 H   0  0  0  0  0  0  0  0  0  0  0  0
   47.2950   33.4040   47.1150 H   0  0  0  0  0  0  0  0  0  0  0  0
   44.5580   35.5670   44.8540 C   0  0  0  0  0  0  0  0  0  0  0  0
   45.1440   35.5610   43.5770 C   0  0  0  0  0  0  0  0  0  0  0  0
   46.1600   34.6440   43.3590 C   0  0  0  0  0  0  0  0  0  0  0  0
   46.5420   33.7980   44.3820 N   0  0  0  0  0  0  0  0  0  0  0  0
   45.9450   33.8520   45.5770 C   0  0  0  0  0  0  0  0  0  0  0  0
   44.9410   34.7360   45.8430 N   0  0  0  0  0  0  0  0  0  0  0  0
   43.7530   36.2720   45.0700 H   0  0  0  0  0  0  0  0  0  0  0  0
   44.8060   36.2400   42.8190 H   0  0  0  0  0  0  0  0  0  0  0  0
   46.7760   34.6150   42.0690 N   0  0  0  0  0  0  0  0  0  0  0  0
   47.9570   35.2260   41.9080 C   0  0  0  0  0  0  0  0  0  0  0  0
   48.5650   35.2060   40.6660 C   0  0  0  0  0  0  0  0  0  0  0  0
   47.9260   34.5590   39.6540 C   0  0  0  0  0  0  0  0  0  0  0  0
   48.4910   34.5440   38.5060 O   0  0  0  0  0  0  0  0  0  0  0  0
   46.7350   33.9360   39.7910 N   0  0  0  0  0  0  0  0  0  0  0  0
   46.2020   33.9950   41.0250 C   0  0  0  0  0  0  0  0  0  0  0  0
   45.0950   33.4480   41.2690 O   0  0  0  0  0  0  0  0  0  0  0  0
   48.4760   35.7460   42.7120 H   0  0  0  0  0  0  0  0  0  0  0  0
   49.5190   35.6900   40.4970 H   0  0  0  0  0  0  0  0  0  0  0  0
   46.2540   33.4420   39.0050 H   0  0  0  0  0  0  0  0  0  0  0  0
   45.4990   32.3270   47.4660 C   0  0  0  0  0  0  0  0  0  0  0  0
   44.6530   33.0350   47.4790 H   0  0  0  0  0  0  0  0  0  0  0  0
   45.8830   32.2550   48.4990 H   0  0  0  0  0  0  0  0  0  0  0  0
   45.5070   29.8690   47.4720 C   0  0  0  0  0  0  0  0  0  0  0  0
   46.3830   29.9810   48.3720 O   0  0  0  0  0  0  0  0  0  0  0  0
   44.9890   31.0600   46.9590 N   0  0  0  0  0  0  0  0  0  0  0  0
   44.2540   31.0740   46.2310 H   0  0  0  0  0  0  0  0  0  0  0  0
   45.0590   28.5340   46.9930 C   0  0  0  0  0  3  0  0  0  0  0  0
   44.7600   27.5920   48.1410 C   0  0  0  0  0  3  0  0  0  0  0  0
   43.7870   27.9050   48.6040 H   0  0  0  0  0  0  0  0  0  0  0  0
   44.4930   26.2270   47.5190 C   0  0  0  0  0  3  0  0  0  0  0  0
   44.3840   25.4400   48.2720 H   0  0  0  0  0  0  0  0  0  0  0  0
   43.2950   26.3780   46.7890 O   0  0  0  0  0  0  0  0  0  0  0  0
   43.5110   27.1910   45.6960 C   0  0  0  0  0  3  0  0  0  0  0  0
   42.5600   27.2420   45.1230 H   0  0  0  0  0  0  0  0  0  0  0  0
   43.8690   28.6050   46.0780 C   0  0  0  0  0  3  0  0  0  0  0  0
   43.0070   29.1440   46.4650 H   0  0  0  0  0  0  0  0  0  0  0  0
  1  3  1  0  0  0  0
  1 23  1  0  0  0  0
  2  1  1  0  0  0  0
  4 10  1  0  0  0  0
  4  9  1  0  0  0  0
  5  4  2  0  0  0  0
  6  5  1  0  0  0  0
  6  7  2  0  0  0  0
  7  8  1  0  0  0  0
  8  9  2  0  0  0  0
  8  1  1  0  0  0  0
 11  5  1  0  0  0  0
 12  6  1  0  0  0  0
 13 12  1  0  0  0  0
 13 20  1  0  0  0  0
 14 13  2  0  0  0  0
 15 17  1  0  0  0  0
 15 14  1  0  0  0  0
 16 15  2  0  0  0  0
 17 18  1  0  0  0  0
 18 19  2  0  0  0  0
 18 12  1  0  0  0  0
 21 14  1  0  0  0  0
 22 17  1  0  0  0  0
 23 24  1  0  0  0  0
 23 25  1  0  0  0  0
 26 27  2  0  0  0  0
 28 23  1  0  0  0  0
 28 26  1  0  0  0  0
 29 28  1  0  0  0  0
 30 26  1  0  0  0  0
 30 31  1  0  0  0  0
 31 32  1  0  0  0  0
 33 31  1  0  0  0  0
 33 34  1  0  0  0  0
 35 33  1  0  0  0  0
 36 38  1  0  0  0  0
 36 35  1  0  0  0  0
 37 36  1  0  0  0  0
 38 39  1  0  0  0  0
 38 30  1  0  0  0  0
M  END
>  <minimizedAffinity>
-6.31428051

>  <minimizedRMSD>
1.47982991

$$$$
