
 OpenBabel03252508393D

 42 45  0  0  0  0  0  0  0  0999 V2000
   45.1180   33.9470   40.7240 C   0  0  0  0  0  0  0  0  0  0  0  0
   44.0670   33.6330   39.9030 C   0  0  0  0  0  0  0  0  0  0  0  0
   44.3680   33.1360   38.6680 C   0  0  0  0  0  0  0  0  0  0  0  0
   45.6550   32.9350   38.2110 C   0  0  0  0  0  0  0  0  0  0  0  0
   46.6790   33.2620   39.0650 C   0  0  0  0  0  0  0  0  0  0  0  0
   46.4380   33.7640   40.3160 C   0  0  0  0  0  0  0  0  0  0  0  0
   43.5500   32.8840   38.0070 H   0  0  0  0  0  0  0  0  0  0  0  0
   45.8190   32.5330   37.2130 H   0  0  0  0  0  0  0  0  0  0  0  0
   47.6870   33.0960   38.6870 H   0  0  0  0  0  0  0  0  0  0  0  0
   40.7960   35.2910   40.7870 C   0  0  0  0  0  0  0  0  0  0  0  0
   42.0940   35.1050   40.2800 C   0  0  0  0  0  0  0  0  0  0  0  0
   42.7320   33.8570   40.4130 C   0  0  0  0  0  0  0  0  0  0  0  0
   42.0160   32.9050   41.0420 N   0  0  0  0  0  0  0  0  0  0  0  0
   40.7860   33.0930   41.5180 C   0  0  0  0  0  0  0  0  0  0  0  0
   40.1780   34.2850   41.3910 N   0  0  0  0  0  0  0  0  0  0  0  0
   40.1980   36.5490   40.6350 N   0  0  0  0  0  0  0  0  0  0  0  0
   42.6230   35.9210   39.7790 H   0  0  0  0  0  0  0  0  0  0  0  0
   40.2290   32.3070   42.0220 H   0  0  0  0  0  0  0  0  0  0  0  0
   39.3850   36.7320   39.9960 H   0  0  0  0  0  0  0  0  0  0  0  0
   40.7470   37.1610   41.2770 H   0  0  0  0  0  0  0  0  0  0  0  0
   47.5960   34.0790   41.1450 C   0  0  0  0  0  0  0  0  0  0  0  0
   48.1280   35.3430   40.9500 C   0  0  0  0  0  0  0  0  0  0  0  0
   49.2340   35.8250   41.6490 C   0  0  0  0  0  0  0  0  0  0  0  0
   49.8160   34.9930   42.5720 C   0  0  0  0  0  0  0  0  0  0  0  0
   49.2890   33.7240   42.7720 C   0  0  0  0  0  0  0  0  0  0  0  0
   48.1950   33.2580   42.0770 C   0  0  0  0  0  0  0  0  0  0  0  0
   47.7150   36.0540   40.2340 H   0  0  0  0  0  0  0  0  0  0  0  0
   49.6280   36.8160   41.4780 H   0  0  0  0  0  0  0  0  0  0  0  0
   50.6820   35.3500   43.1300 H   0  0  0  0  0  0  0  0  0  0  0  0
   49.7500   33.0950   43.4890 H   0  0  0  0  0  0  0  0  0  0  0  0
   47.5980   31.9220   42.2500 C   0  0  0  0  0  3  0  0  0  0  0  0
   48.6130   30.7940   42.2350 C   0  0  0  0  0  3  0  0  0  0  0  0
   49.4520   30.9900   42.9390 H   0  0  0  0  0  0  0  0  0  0  0  0
   47.8530   29.5870   42.7980 C   0  0  0  0  0  3  0  0  0  0  0  0
   46.7740   29.6260   42.5300 H   0  0  0  0  0  0  0  0  0  0  0  0
   47.8990   29.7250   44.1960 O   0  0  0  0  0  0  0  0  0  0  0  0
   47.6140   31.0060   44.5990 C   0  0  0  0  0  3  0  0  0  0  0  0
   48.5060   31.4960   45.0280 H   0  0  0  0  0  0  0  0  0  0  0  0
   46.8730   31.8210   43.5790 C   0  0  0  0  0  3  0  0  0  0  0  0
   46.7120   32.8310   44.0070 H   0  0  0  0  0  0  0  0  0  0  0  0
   44.7070   34.9150   43.1150 N   0  0  0  0  0  0  0  0  0  0  0  0
   44.8900   34.4760   42.0390 C   0  0  0  0  0  0  0  0  0  0  0  0
  1 42  1  0  0  0  0
  2 12  1  0  0  0  0
  2  1  2  0  0  0  0
  3  2  1  0  0  0  0
  4  3  2  0  0  0  0
  4  5  1  0  0  0  0
  5  6  2  0  0  0  0
  6  1  1  0  0  0  0
  6 21  1  0  0  0  0
  7  3  1  0  0  0  0
  8  4  1  0  0  0  0
  9  5  1  0  0  0  0
 10 15  1  0  0  0  0
 11 12  1  0  0  0  0
 11 10  2  0  0  0  0
 12 13  2  0  0  0  0
 13 14  1  0  0  0  0
 14 18  1  0  0  0  0
 15 14  2  0  0  0  0
 16 10  1  0  0  0  0
 16 20  1  0  0  0  0
 17 11  1  0  0  0  0
 19 16  1  0  0  0  0
 21 26  1  0  0  0  0
 22 21  2  0  0  0  0
 22 23  1  0  0  0  0
 23 24  2  0  0  0  0
 24 25  1  0  0  0  0
 24 29  1  0  0  0  0
 25 30  1  0  0  0  0
 26 31  1  0  0  0  0
 26 25  2  0  0  0  0
 27 22  1  0  0  0  0
 28 23  1  0  0  0  0
 31 39  1  0  0  0  0
 32 31  1  0  0  0  0
 32 34  1  0  0  0  0
 32 33  1  0  0  0  0
 34 36  1  0  0  0  0
 35 34  1  0  0  0  0
 36 37  1  0  0  0  0
 37 38  1  0  0  0  0
 39 40  1  0  0  0  0
 39 37  1  0  0  0  0
 42 41  3  0  0  0  0
M  END
>  <minimizedAffinity>
-6.1371026

>  <minimizedRMSD>
1.37989581

$$$$
