
     RDKit          3D

 37 39  0  0  0  0  0  0  0  0999 V2000
   44.6028   35.9977   44.4525 C   0  0  0  0  0  0  0  0  0  0  0  0
   45.4091   35.5312   43.3940 C   0  0  0  0  0  0  0  0  0  0  0  0
   46.1359   34.3897   43.6053 C   0  0  0  0  0  0  0  0  0  0  0  0
   46.0506   33.7574   44.8094 N   0  0  0  0  0  0  0  0  0  0  0  0
   45.2883   34.2076   45.7924 C   0  0  0  0  0  0  0  0  0  0  0  0
   44.5658   35.3203   45.6249 N   0  0  0  0  0  0  0  0  0  0  0  0
   47.0497   33.8973   42.5367 C   0  0  0  0  0  0  0  0  0  0  0  0
   47.3443   35.0447   41.5933 C   0  0  0  0  0  0  0  0  0  0  0  0
   48.8208   35.0145   41.3548 C   0  0  1  0  0  0  0  0  0  0  0  0
   49.7110   35.0862   42.5483 C   0  0  0  0  0  0  0  0  0  0  0  0
   49.5437   33.8074   41.7956 C   0  0  2  0  0  0  0  0  0  0  0  0
   43.9896   36.8783   44.4121 H   0  0  0  0  0  0  0  0  0  0  0  0
   45.3107   36.1728   42.5367 H   0  0  0  0  0  0  0  0  0  0  0  0
   45.2756   33.6475   46.7183 H   0  0  0  0  0  0  0  0  0  0  0  0
   47.9536   33.8397   43.2239 H   0  0  0  0  0  0  0  0  0  0  0  0
   46.7722   32.9652   42.0739 H   0  0  0  0  0  0  0  0  0  0  0  0
   47.1733   36.0230   42.1453 H   0  0  0  0  0  0  0  0  0  0  0  0
   46.7385   35.0744   40.6932 H   0  0  0  0  0  0  0  0  0  0  0  0
   49.0831   35.5551   40.4060 H   0  0  0  0  0  0  0  0  0  0  0  0
   50.5819   35.7462   42.3636 H   0  0  0  0  0  0  0  0  0  0  0  0
   49.3506   35.2512   43.5716 H   0  0  0  0  0  0  0  0  0  0  0  0
   49.1521   32.8698   42.1433 H   0  0  0  0  0  0  0  0  0  0  0  0
   50.7127   33.4880   40.8869 C   0  0  1  0  0  0  0  0  0  0  0  0
   51.6495   32.4842   41.4918 C   0  0  2  0  0  0  0  0  0  0  0  0
   51.1981   31.4753   41.6433 H   0  0  0  0  0  0  0  0  0  0  0  0
   52.7675   32.2015   40.4841 C   0  0  2  0  0  0  0  0  0  0  0  0
   53.3756   31.3998   40.9540 H   0  0  0  0  0  0  0  0  0  0  0  0
   52.2250   31.6336   39.3379 O   0  0  0  0  0  0  0  0  0  0  0  0
   51.3708   32.4840   38.6903 C   0  0  2  0  0  0  0  0  0  0  0  0
   50.8743   31.8776   37.8759 H   0  0  0  0  0  0  0  0  0  0  0  0
   50.2979   33.1078   39.4810 C   0  0  1  0  0  0  0  0  0  0  0  0
   49.4382   32.3894   39.5810 H   0  0  0  0  0  0  0  0  0  0  0  0
   51.3133   34.4226   40.7527 H   0  0  0  0  0  0  0  0  0  0  0  0
   52.1441   32.9136   42.3699 H   0  0  0  0  0  0  0  0  0  0  0  0
   53.4093   33.0649   40.3230 H   0  0  0  0  0  0  0  0  0  0  0  0
   51.9502   33.2514   38.0975 H   0  0  0  0  0  0  0  0  0  0  0  0
   49.9136   34.0038   38.9978 H   0  0  0  0  0  0  0  0  0  0  0  0
  1  6  2  0
  2  3  2  0
  2  1  1  0
  3  4  1  0
  4  5  2  0
  6  5  1  0
  7  3  1  0
  8  7  1  0
  9  8  1  0
  9 11  1  0
  9 10  1  0
 11 10  1  0
  1 12  1  0
  2 13  1  0
  5 14  1  0
  7 15  1  0
  7 16  1  0
  8 17  1  0
  8 18  1  0
  9 19  1  6
 10 20  1  0
 10 21  1  0
 11 22  1  1
 23 24  1  0
 24 25  1  1
 24 26  1  0
 26 27  1  1
 26 28  1  0
 28 29  1  0
 29 30  1  6
 29 31  1  0
 31 32  1  1
 31 23  1  0
 23 33  1  6
 24 34  1  0
 26 35  1  0
 29 36  1  0
 31 37  1  0
 11 23  1  0
M  ISO  8  12  14  13  14  14  14  15   8  16   8  17   8  18   8  19  13
M  ISO  7  20  13  21  13  22  13  25  15  27  15  30  15  32  15
M  END
>  <DihAtoms>  (1) 
8,10,22,23

>  <DihDeg>  (1) 
60.98096624129409

$$$$
