
 OpenBabel03252507343D

 50 53  0  0  1  0  0  0  0  0999 V2000
   38.0050   31.2860   41.0170 C   0  0  0  0  0  0  0  0  0  0  0  0
   36.7000   31.2710   40.5450 C   0  0  0  0  0  0  0  0  0  0  0  0
   35.9340   30.0860   40.6480 C   0  0  0  0  0  0  0  0  0  0  0  0
   36.5630   28.9890   41.2300 N   0  0  0  0  0  0  0  0  0  0  0  0
   37.8230   29.0700   41.6620 C   0  0  0  0  0  0  0  0  0  0  0  0
   38.5330   30.1940   41.5590 N   0  0  0  0  0  0  0  0  0  0  0  0
   36.0480   31.9570   40.0470 H   0  0  0  0  0  0  0  0  0  0  0  0
   34.9410   29.8880   40.3520 H   0  0  0  0  0  0  0  0  0  0  0  0
   38.7400   32.5300   40.9090 C   0  0  2  0  0  0  0  0  0  0  0  0
   37.9200   33.6110   40.1410 C   0  0  0  0  0  0  0  0  0  0  0  0
   38.6440   34.9110   40.1880 C   0  0  0  0  0  0  0  0  0  0  0  0
   40.1130   34.8540   39.9380 C   0  0  0  0  0  0  0  0  0  0  0  0
   40.7710   33.6960   40.4930 C   0  0  0  0  0  0  0  0  0  0  0  0
   40.0170   32.3720   40.2430 C   0  0  2  0  0  0  0  0  0  0  0  0
   38.8090   32.9730   41.9310 H   0  0  0  0  0  0  0  0  0  0  0  0
   37.6460   33.2800   39.1400 H   0  0  0  0  0  0  0  0  0  0  0  0
   36.9710   33.6740   40.7110 H   0  0  0  0  0  0  0  0  0  0  0  0
   38.3160   35.4220   41.1130 H   0  0  0  0  0  0  0  0  0  0  0  0
   38.2120   35.5390   39.3570 H   0  0  0  0  0  0  0  0  0  0  0  0
   40.4600   35.6510   40.7120 H   0  0  0  0  0  0  0  0  0  0  0  0
   40.5150   35.4170   39.0940 H   0  0  0  0  0  0  0  0  0  0  0  0
   41.7600   33.5440   39.9910 H   0  0  0  0  0  0  0  0  0  0  0  0
   40.9870   33.6760   41.5900 H   0  0  0  0  0  0  0  0  0  0  0  0
   40.7110   31.6510   40.6790 H   0  0  0  0  0  0  0  0  0  0  0  0
   39.8150   32.2170   38.8010 N   0  0  0  0  0  0  0  0  0  0  0  0
   40.7000   31.8770   37.7620 C   0  0  0  0  0  0  0  0  0  0  0  0
   41.0930   30.6730   37.5460 O   0  0  0  0  0  0  0  0  0  0  0  0
   41.1250   32.9750   36.9540 N   0  0  0  0  0  0  0  0  0  0  0  0
   38.8580   32.4410   38.3300 H   0  0  0  0  0  0  0  0  0  0  0  0
   41.9980   33.4690   36.6350 H   0  0  0  0  0  0  0  0  0  0  0  0
   40.5850   33.6740   36.3910 H   0  0  0  0  0  0  0  0  0  0  0  0
   38.4380   27.8720   42.2500 C   0  0  0  0  0  0  0  0  0  0  0  0
   39.4640   27.9740   43.1600 C   0  0  0  0  0  0  0  0  0  0  0  0
   40.0950   26.9050   43.7610 C   0  0  0  0  0  0  0  0  0  0  0  0
   39.6160   25.6770   43.3800 C   0  0  0  0  0  0  0  0  0  0  0  0
   38.5760   25.5450   42.4600 C   0  0  0  0  0  0  0  0  0  0  0  0
   37.9960   26.6510   41.9030 N   0  0  0  0  0  0  0  0  0  0  0  0
   39.7790   28.9970   43.4020 H   0  0  0  0  0  0  0  0  0  0  0  0
   40.8950   27.0100   44.4690 H   0  0  0  0  0  0  0  0  0  0  0  0
   40.0190   24.7510   43.7740 H   0  0  0  0  0  0  0  0  0  0  0  0
   38.0180   24.2320   42.0130 C   0  0  0  0  0  3  0  0  0  0  0  0
   36.5810   24.3050   41.6020 C   0  0  0  0  0  3  0  0  0  0  0  0
   35.8810   23.7290   42.2200 H   0  0  0  0  0  0  0  0  0  0  0  0
   36.3990   24.0350   40.1070 C   0  0  0  0  0  3  0  0  0  0  0  0
   35.2880   24.0710   39.9280 H   0  0  0  0  0  0  0  0  0  0  0  0
   36.8520   22.7700   39.7450 O   0  0  0  0  0  0  0  0  0  0  0  0
   38.0610   22.4470   40.3680 C   0  0  0  0  0  3  0  0  0  0  0  0
   37.8780   21.8600   41.3110 H   0  0  0  0  0  0  0  0  0  0  0  0
   38.8110   23.7020   40.8120 C   0  0  0  0  0  3  0  0  0  0  0  0
   38.8090   24.4410   39.9980 H   0  0  0  0  0  0  0  0  0  0  0  0
  1  6  1  0  0  0  0
  2  3  1  0  0  0  0
  2  1  2  0  0  0  0
  3  4  2  0  0  0  0
  4  5  1  0  0  0  0
  5 32  1  0  0  0  0
  6  5  2  0  0  0  0
  7  2  1  0  0  0  0
  8  3  1  0  0  0  0
  9  1  1  0  0  0  0
  9 15  1  1  0  0  0
 10 11  1  0  0  0  0
 10 17  1  0  0  0  0
 10  9  1  0  0  0  0
 11 18  1  0  0  0  0
 12 11  1  0  0  0  0
 12 13  1  0  0  0  0
 12 20  1  0  0  0  0
 13 23  1  0  0  0  0
 14 13  1  0  0  0  0
 14 24  1  1  0  0  0
 14  9  1  0  0  0  0
 16 10  1  0  0  0  0
 19 11  1  0  0  0  0
 21 12  1  0  0  0  0
 22 13  1  0  0  0  0
 25 14  1  0  0  0  0
 26 25  1  0  0  0  0
 27 26  2  0  0  0  0
 28 26  1  0  0  0  0
 29 25  1  0  0  0  0
 30 28  1  0  0  0  0
 31 28  1  0  0  0  0
 32 33  1  0  0  0  0
 33 38  1  0  0  0  0
 33 34  2  0  0  0  0
 34 39  1  0  0  0  0
 35 34  1  0  0  0  0
 35 40  1  0  0  0  0
 36 35  2  0  0  0  0
 37 32  2  0  0  0  0
 37 36  1  0  0  0  0
 41 36  1  0  0  0  0
 42 41  1  0  0  0  0
 42 43  1  0  0  0  0
 44 42  1  0  0  0  0
 45 44  1  0  0  0  0
 46 44  1  0  0  0  0
 46 47  1  0  0  0  0
 47 49  1  0  0  0  0
 47 48  1  0  0  0  0
 49 41  1  0  0  0  0
 50 49  1  0  0  0  0
M  END
>  <minimizedAffinity>
-7.51240206

$$$$

 OpenBabel03252507343D

 50 53  0  0  1  0  0  0  0  0999 V2000
   39.2820   32.1250   40.5830 C   0  0  0  0  0  0  0  0  0  0  0  0
   38.2770   32.7960   39.8990 C   0  0  0  0  0  0  0  0  0  0  0  0
   36.9810   32.2320   39.8340 C   0  0  0  0  0  0  0  0  0  0  0  0
   36.8020   31.0110   40.4770 N   0  0  0  0  0  0  0  0  0  0  0  0
   37.8120   30.4170   41.1150 C   0  0  0  0  0  0  0  0  0  0  0  0
   39.0290   30.9600   41.1700 N   0  0  0  0  0  0  0  0  0  0  0  0
   38.1990   33.6930   39.3230 H   0  0  0  0  0  0  0  0  0  0  0  0
   36.1040   32.5920   39.3700 H   0  0  0  0  0  0  0  0  0  0  0  0
   40.5860   32.7530   40.6410 C   0  0  2  0  0  0  0  0  0  0  0  0
   40.4950   34.2800   40.3420 C   0  0  0  0  0  0  0  0  0  0  0  0
   41.8260   34.9100   40.5630 C   0  0  0  0  0  0  0  0  0  0  0  0
   43.0010   34.1710   40.0200 C   0  0  0  0  0  0  0  0  0  0  0  0
   42.9090   32.7350   40.1290 C   0  0  0  0  0  0  0  0  0  0  0  0
   41.5340   32.1660   39.7160 C   0  0  2  0  0  0  0  0  0  0  0  0
   40.9200   32.7440   41.7060 H   0  0  0  0  0  0  0  0  0  0  0  0
   40.0550   34.4790   39.3650 H   0  0  0  0  0  0  0  0  0  0  0  0
   39.7620   34.6510   41.0870 H   0  0  0  0  0  0  0  0  0  0  0  0
   41.8670   35.1950   41.6310 H   0  0  0  0  0  0  0  0  0  0  0  0
   41.7990   35.8960   40.0150 H   0  0  0  0  0  0  0  0  0  0  0  0
   43.7570   34.3730   40.8810 H   0  0  0  0  0  0  0  0  0  0  0  0
   43.6270   34.6690   39.2770 H   0  0  0  0  0  0  0  0  0  0  0  0
   43.6260   32.2520   39.4200 H   0  0  0  0  0  0  0  0  0  0  0  0
   43.1060   32.2590   41.1230 H   0  0  0  0  0  0  0  0  0  0  0  0
   41.7150   31.0940   39.8150 H   0  0  0  0  0  0  0  0  0  0  0  0
   41.2400   32.6040   38.3510 N   0  0  0  0  0  0  0  0  0  0  0  0
   42.0100   32.5790   37.1730 C   0  0  0  0  0  0  0  0  0  0  0  0
   42.1950   31.5120   36.4840 O   0  0  0  0  0  0  0  0  0  0  0  0
   42.5640   33.8390   36.7930 N   0  0  0  0  0  0  0  0  0  0  0  0
   40.3100   33.1130   38.1010 H   0  0  0  0  0  0  0  0  0  0  0  0
   43.4870   34.3010   36.5910 H   0  0  0  0  0  0  0  0  0  0  0  0
   42.1160   34.7640   36.5920 H   0  0  0  0  0  0  0  0  0  0  0  0
   37.5640   29.1190   41.7570 C   0  0  0  0  0  0  0  0  0  0  0  0
   37.5190   29.0010   43.1270 C   0  0  0  0  0  0  0  0  0  0  0  0
   37.2910   27.8250   43.8110 C   0  0  0  0  0  0  0  0  0  0  0  0
   37.1020   26.7290   43.0070 C   0  0  0  0  0  0  0  0  0  0  0  0
   37.1420   26.8210   41.6160 C   0  0  0  0  0  0  0  0  0  0  0  0
   37.3740   28.0220   41.0050 N   0  0  0  0  0  0  0  0  0  0  0  0
   37.6810   29.9320   43.6860 H   0  0  0  0  0  0  0  0  0  0  0  0
   37.2590   27.7580   44.8820 H   0  0  0  0  0  0  0  0  0  0  0  0
   36.9120   25.7420   43.4100 H   0  0  0  0  0  0  0  0  0  0  0  0
   36.9420   25.6590   40.6960 C   0  0  0  0  0  3  0  0  0  0  0  0
   36.6150   26.0600   39.2920 C   0  0  0  0  0  3  0  0  0  0  0  0
   35.6210   25.7650   38.9340 H   0  0  0  0  0  0  0  0  0  0  0  0
   37.7260   25.6770   38.3130 C   0  0  0  0  0  3  0  0  0  0  0  0
   37.3510   25.9840   37.2970 H   0  0  0  0  0  0  0  0  0  0  0  0
   37.9530   24.3050   38.2910 O   0  0  0  0  0  0  0  0  0  0  0  0
   37.9340   23.7480   39.5730 C   0  0  0  0  0  3  0  0  0  0  0  0
   36.9110   23.3440   39.8160 H   0  0  0  0  0  0  0  0  0  0  0  0
   38.2140   24.8030   40.6420 C   0  0  0  0  0  3  0  0  0  0  0  0
   39.0750   25.4180   40.3380 H   0  0  0  0  0  0  0  0  0  0  0  0
  1  9  1  0  0  0  0
  1  6  1  0  0  0  0
  2  1  2  0  0  0  0
  3  2  1  0  0  0  0
  3  4  2  0  0  0  0
  4  5  1  0  0  0  0
  5  6  2  0  0  0  0
  5 32  1  0  0  0  0
  7  2  1  0  0  0  0
  8  3  1  0  0  0  0
  9 15  1  1  0  0  0
 10 11  1  0  0  0  0
 10  9  1  0  0  0  0
 10 17  1  0  0  0  0
 11 18  1  0  0  0  0
 12 13  1  0  0  0  0
 12 11  1  0  0  0  0
 12 20  1  0  0  0  0
 13 23  1  0  0  0  0
 14 24  1  1  0  0  0
 14 13  1  0  0  0  0
 14  9  1  0  0  0  0
 16 10  1  0  0  0  0
 19 11  1  0  0  0  0
 21 12  1  0  0  0  0
 22 13  1  0  0  0  0
 25 14  1  0  0  0  0
 26 25  1  0  0  0  0
 27 26  2  0  0  0  0
 28 26  1  0  0  0  0
 29 25  1  0  0  0  0
 30 28  1  0  0  0  0
 31 28  1  0  0  0  0
 32 33  1  0  0  0  0
 33 38  1  0  0  0  0
 33 34  2  0  0  0  0
 34 39  1  0  0  0  0
 35 40  1  0  0  0  0
 35 34  1  0  0  0  0
 36 35  2  0  0  0  0
 37 36  1  0  0  0  0
 37 32  2  0  0  0  0
 41 36  1  0  0  0  0
 42 41  1  0  0  0  0
 43 42  1  0  0  0  0
 44 42  1  0  0  0  0
 45 44  1  0  0  0  0
 46 44  1  0  0  0  0
 46 47  1  0  0  0  0
 47 48  1  0  0  0  0
 47 49  1  0  0  0  0
 49 41  1  0  0  0  0
 50 49  1  0  0  0  0
M  END
>  <minimizedAffinity>
-6.75408649

$$$$

 OpenBabel03252507343D

 50 53  0  0  1  0  0  0  0  0999 V2000
   37.8450   27.0440   41.6190 C   0  0  0  0  0  0  0  0  0  0  0  0
   37.4150   27.0230   42.9390 C   0  0  0  0  0  0  0  0  0  0  0  0
   37.2240   28.2440   43.6300 C   0  0  0  0  0  0  0  0  0  0  0  0
   37.4910   29.4080   42.9170 N   0  0  0  0  0  0  0  0  0  0  0  0
   37.9040   29.3580   41.6500 C   0  0  0  0  0  0  0  0  0  0  0  0
   38.0790   28.2010   41.0100 N   0  0  0  0  0  0  0  0  0  0  0  0
   37.1920   26.2750   43.6700 H   0  0  0  0  0  0  0  0  0  0  0  0
   36.9040   28.4230   44.6190 H   0  0  0  0  0  0  0  0  0  0  0  0
   38.0040   25.7700   40.9480 C   0  0  2  0  0  0  0  0  0  0  0  0
   37.2380   24.6350   41.6940 C   0  0  0  0  0  0  0  0  0  0  0  0
   37.3000   23.3830   40.8910 C   0  0  0  0  0  0  0  0  0  0  0  0
   38.6270   23.0460   40.3010 C   0  0  0  0  0  0  0  0  0  0  0  0
   39.3820   24.1830   39.8340 C   0  0  0  0  0  0  0  0  0  0  0  0
   39.3910   25.3720   40.8200 C   0  0  2  0  0  0  0  0  0  0  0  0
   37.4520   25.8250   39.9800 H   0  0  0  0  0  0  0  0  0  0  0  0
   37.5710   24.5290   42.7270 H   0  0  0  0  0  0  0  0  0  0  0  0
   36.1970   25.0120   41.7470 H   0  0  0  0  0  0  0  0  0  0  0  0
   36.4380   23.4100   40.1980 H   0  0  0  0  0  0  0  0  0  0  0  0
   37.0550   22.5430   41.6040 H   0  0  0  0  0  0  0  0  0  0  0  0
   38.2690   22.6290   39.2760 H   0  0  0  0  0  0  0  0  0  0  0  0
   39.0940   22.1010   40.5850 H   0  0  0  0  0  0  0  0  0  0  0  0
   40.4610   23.9080   39.7310 H   0  0  0  0  0  0  0  0  0  0  0  0
   39.0990   24.6500   38.8570 H   0  0  0  0  0  0  0  0  0  0  0  0
   40.0540   26.0670   40.3010 H   0  0  0  0  0  0  0  0  0  0  0  0
   39.9000   24.9020   42.1100 N   0  0  0  0  0  0  0  0  0  0  0  0
   40.8850   25.4180   42.9720 C   0  0  0  0  0  0  0  0  0  0  0  0
   40.6770   26.4230   43.7440 O   0  0  0  0  0  0  0  0  0  0  0  0
   42.1350   24.7300   42.9320 N   0  0  0  0  0  0  0  0  0  0  0  0
   39.5720   23.9590   42.5450 H   0  0  0  0  0  0  0  0  0  0  0  0
   43.1580   24.8990   42.7510 H   0  0  0  0  0  0  0  0  0  0  0  0
   42.3830   23.7270   43.0990 H   0  0  0  0  0  0  0  0  0  0  0  0
   38.1890   30.6220   40.9580 C   0  0  0  0  0  0  0  0  0  0  0  0
   37.1720   31.4670   40.5740 C   0  0  0  0  0  0  0  0  0  0  0  0
   37.3490   32.6700   39.9240 C   0  0  0  0  0  0  0  0  0  0  0  0
   38.6590   32.9920   39.6720 C   0  0  0  0  0  0  0  0  0  0  0  0
   39.7080   32.1540   40.0510 C   0  0  0  0  0  0  0  0  0  0  0  0
   39.4580   30.9740   40.6920 N   0  0  0  0  0  0  0  0  0  0  0  0
   36.1580   31.1250   40.8190 H   0  0  0  0  0  0  0  0  0  0  0  0
   36.5390   33.3130   39.6350 H   0  0  0  0  0  0  0  0  0  0  0  0
   38.9430   33.9080   39.1690 H   0  0  0  0  0  0  0  0  0  0  0  0
   41.1510   32.4580   39.7990 C   0  0  0  0  0  3  0  0  0  0  0  0
   41.5510   32.3000   38.3660 C   0  0  0  0  0  3  0  0  0  0  0  0
   42.2860   31.5100   38.1640 H   0  0  0  0  0  0  0  0  0  0  0  0
   41.9380   33.6350   37.7280 C   0  0  0  0  0  3  0  0  0  0  0  0
   42.2600   33.3860   36.6790 H   0  0  0  0  0  0  0  0  0  0  0  0
   43.0140   34.2330   38.3770 O   0  0  0  0  0  0  0  0  0  0  0  0
   42.9110   34.1300   39.7680 C   0  0  0  0  0  3  0  0  0  0  0  0
   43.4780   33.2320   40.1430 H   0  0  0  0  0  0  0  0  0  0  0  0
   41.4650   33.9040   40.2040 C   0  0  0  0  0  3  0  0  0  0  0  0
   40.8040   34.6020   39.6690 H   0  0  0  0  0  0  0  0  0  0  0  0
  1  2  1  0  0  0  0
  2  3  2  0  0  0  0
  2  7  1  0  0  0  0
  3  8  1  0  0  0  0
  4  3  1  0  0  0  0
  5  4  2  0  0  0  0
  6  1  2  0  0  0  0
  6  5  1  0  0  0  0
  9 15  1  6  0  0  0
  9  1  1  0  0  0  0
  9 10  1  0  0  0  0
 10 17  1  0  0  0  0
 10 16  1  0  0  0  0
 11 19  1  0  0  0  0
 11 10  1  0  0  0  0
 12 21  1  0  0  0  0
 12 11  1  0  0  0  0
 13 12  1  0  0  0  0
 13 14  1  0  0  0  0
 14 24  1  6  0  0  0
 14  9  1  0  0  0  0
 14 25  1  0  0  0  0
 18 11  1  0  0  0  0
 20 12  1  0  0  0  0
 22 13  1  0  0  0  0
 23 13  1  0  0  0  0
 25 29  1  0  0  0  0
 25 26  1  0  0  0  0
 26 27  2  0  0  0  0
 28 26  1  0  0  0  0
 28 31  1  0  0  0  0
 30 28  1  0  0  0  0
 32  5  1  0  0  0  0
 33 38  1  0  0  0  0
 33 32  2  0  0  0  0
 34 33  1  0  0  0  0
 35 34  2  0  0  0  0
 35 36  1  0  0  0  0
 36 37  2  0  0  0  0
 37 32  1  0  0  0  0
 39 34  1  0  0  0  0
 40 35  1  0  0  0  0
 41 36  1  0  0  0  0
 41 49  1  0  0  0  0
 42 41  1  0  0  0  0
 43 42  1  0  0  0  0
 44 42  1  0  0  0  0
 44 46  1  0  0  0  0
 45 44  1  0  0  0  0
 46 47  1  0  0  0  0
 47 48  1  0  0  0  0
 47 49  1  0  0  0  0
 50 49  1  0  0  0  0
M  END
>  <minimizedAffinity>
-6.75241995

$$$$

 OpenBabel03252507343D

 50 53  0  0  1  0  0  0  0  0999 V2000
   38.4260   31.0550   40.2630 C   0  0  0  0  0  0  0  0  0  0  0  0
   37.0840   31.3810   40.4070 C   0  0  0  0  0  0  0  0  0  0  0  0
   36.2440   30.5500   41.1860 C   0  0  0  0  0  0  0  0  0  0  0  0
   36.8400   29.4350   41.7660 N   0  0  0  0  0  0  0  0  0  0  0  0
   38.1370   29.1780   41.5860 C   0  0  0  0  0  0  0  0  0  0  0  0
   38.9170   29.9700   40.8500 N   0  0  0  0  0  0  0  0  0  0  0  0
   36.4260   32.1390   40.0370 H   0  0  0  0  0  0  0  0  0  0  0  0
   35.2160   30.6370   41.4080 H   0  0  0  0  0  0  0  0  0  0  0  0
   39.2490   31.9490   39.4740 C   0  0  2  0  0  0  0  0  0  0  0  0
   40.1990   31.1580   38.5230 C   0  0  0  0  0  0  0  0  0  0  0  0
   40.9110   32.1100   37.6270 C   0  0  0  0  0  0  0  0  0  0  0  0
   41.4520   33.3400   38.2730 C   0  0  0  0  0  0  0  0  0  0  0  0
   40.6130   33.8910   39.3100 C   0  0  0  0  0  0  0  0  0  0  0  0
   40.0580   32.8330   40.2890 C   0  0  2  0  0  0  0  0  0  0  0  0
   38.5820   32.4760   38.7510 H   0  0  0  0  0  0  0  0  0  0  0  0
   40.8500   30.4760   39.0710 H   0  0  0  0  0  0  0  0  0  0  0  0
   39.5090   30.5160   37.9390 H   0  0  0  0  0  0  0  0  0  0  0  0
   40.2630   32.2550   36.7420 H   0  0  0  0  0  0  0  0  0  0  0  0
   41.8050   31.5510   37.2260 H   0  0  0  0  0  0  0  0  0  0  0  0
   41.2230   34.1050   37.4260 H   0  0  0  0  0  0  0  0  0  0  0  0
   42.5270   33.5210   38.2220 H   0  0  0  0  0  0  0  0  0  0  0  0
   41.2130   34.5740   39.9620 H   0  0  0  0  0  0  0  0  0  0  0  0
   39.7090   34.4790   39.0140 H   0  0  0  0  0  0  0  0  0  0  0  0
   39.5260   33.4670   41.0000 H   0  0  0  0  0  0  0  0  0  0  0  0
   41.1840   32.0950   40.8650 N   0  0  0  0  0  0  0  0  0  0  0  0
   41.6310   31.9530   42.1910 C   0  0  0  0  0  0  0  0  0  0  0  0
   41.0600   31.1770   43.0400 O   0  0  0  0  0  0  0  0  0  0  0  0
   42.7800   32.7340   42.5220 N   0  0  0  0  0  0  0  0  0  0  0  0
   41.9080   31.5770   40.2370 H   0  0  0  0  0  0  0  0  0  0  0  0
   43.1020   33.4730   43.1990 H   0  0  0  0  0  0  0  0  0  0  0  0
   43.7390   32.7710   42.1040 H   0  0  0  0  0  0  0  0  0  0  0  0
   38.7030   27.9740   42.2090 C   0  0  0  0  0  0  0  0  0  0  0  0
   39.7320   28.0610   43.1180 C   0  0  0  0  0  0  0  0  0  0  0  0
   40.3200   26.9850   43.7500 C   0  0  0  0  0  0  0  0  0  0  0  0
   39.7920   25.7660   43.4050 C   0  0  0  0  0  0  0  0  0  0  0  0
   38.7480   25.6500   42.4870 C   0  0  0  0  0  0  0  0  0  0  0  0
   38.2130   26.7620   41.8980 N   0  0  0  0  0  0  0  0  0  0  0  0
   40.0890   29.0770   43.3310 H   0  0  0  0  0  0  0  0  0  0  0  0
   41.1230   27.0780   44.4560 H   0  0  0  0  0  0  0  0  0  0  0  0
   40.1570   24.8380   43.8260 H   0  0  0  0  0  0  0  0  0  0  0  0
   38.1380   24.3480   42.0780 C   0  0  0  0  0  3  0  0  0  0  0  0
   36.6790   24.4480   41.7590 C   0  0  0  0  0  3  0  0  0  0  0  0
   36.0090   23.8850   42.4210 H   0  0  0  0  0  0  0  0  0  0  0  0
   36.3970   24.1820   40.2790 C   0  0  0  0  0  3  0  0  0  0  0  0
   35.2780   24.2400   40.1710 H   0  0  0  0  0  0  0  0  0  0  0  0
   36.8020   22.9100   39.8900 O   0  0  0  0  0  0  0  0  0  0  0  0
   38.0420   22.5630   40.4350 C   0  0  0  0  0  3  0  0  0  0  0  0
   37.9090   21.9800   41.3880 H   0  0  0  0  0  0  0  0  0  0  0  0
   38.8420   23.8030   40.8290 C   0  0  0  0  0  3  0  0  0  0  0  0
   38.8020   24.5430   40.0160 H   0  0  0  0  0  0  0  0  0  0  0  0
  1  2  2  0  0  0  0
  1  6  1  0  0  0  0
  2  3  1  0  0  0  0
  3  8  1  0  0  0  0
  3  4  2  0  0  0  0
  5  4  1  0  0  0  0
  5 32  1  0  0  0  0
  6  5  2  0  0  0  0
  7  2  1  0  0  0  0
  9 15  1  6  0  0  0
  9  1  1  0  0  0  0
  9 14  1  0  0  0  0
 10 16  1  0  0  0  0
 10  9  1  0  0  0  0
 11 12  1  0  0  0  0
 11 10  1  0  0  0  0
 12 13  1  0  0  0  0
 13 22  1  0  0  0  0
 13 14  1  0  0  0  0
 14 25  1  0  0  0  0
 14 24  1  1  0  0  0
 17 10  1  0  0  0  0
 18 11  1  0  0  0  0
 19 11  1  0  0  0  0
 20 12  1  0  0  0  0
 21 12  1  0  0  0  0
 23 13  1  0  0  0  0
 25 26  1  0  0  0  0
 26 28  1  0  0  0  0
 26 27  2  0  0  0  0
 28 30  1  0  0  0  0
 29 25  1  0  0  0  0
 31 28  1  0  0  0  0
 32 33  1  0  0  0  0
 33 38  1  0  0  0  0
 33 34  2  0  0  0  0
 34 39  1  0  0  0  0
 35 34  1  0  0  0  0
 35 40  1  0  0  0  0
 36 35  2  0  0  0  0
 37 32  2  0  0  0  0
 37 36  1  0  0  0  0
 41 36  1  0  0  0  0
 42 41  1  0  0  0  0
 42 43  1  0  0  0  0
 44 42  1  0  0  0  0
 45 44  1  0  0  0  0
 46 44  1  0  0  0  0
 46 47  1  0  0  0  0
 47 49  1  0  0  0  0
 47 48  1  0  0  0  0
 49 41  1  0  0  0  0
 50 49  1  0  0  0  0
M  END
>  <minimizedAffinity>
-6.67403221

$$$$

 OpenBabel03252507343D

 50 53  0  0  1  0  0  0  0  0999 V2000
   40.7650   30.9630   41.8350 C   0  0  0  0  0  0  0  0  0  0  0  0
   42.0400   30.4650   42.0690 C   0  0  0  0  0  0  0  0  0  0  0  0
   42.1950   29.1540   42.5780 C   0  0  0  0  0  0  0  0  0  0  0  0
   41.0250   28.4380   42.8150 N   0  0  0  0  0  0  0  0  0  0  0  0
   39.8300   28.9770   42.5700 C   0  0  0  0  0  0  0  0  0  0  0  0
   39.6980   30.2130   42.0900 N   0  0  0  0  0  0  0  0  0  0  0  0
   43.0410   30.8350   41.9980 H   0  0  0  0  0  0  0  0  0  0  0  0
   43.0700   28.6130   42.8130 H   0  0  0  0  0  0  0  0  0  0  0  0
   40.6590   32.3020   41.2920 C   0  0  2  0  0  0  0  0  0  0  0  0
   39.1710   32.7130   41.0790 C   0  0  0  0  0  0  0  0  0  0  0  0
   39.1040   34.1430   40.6690 C   0  0  0  0  0  0  0  0  0  0  0  0
   40.0930   34.5780   39.6410 C   0  0  0  0  0  0  0  0  0  0  0  0
   41.3970   33.9750   39.7710 C   0  0  0  0  0  0  0  0  0  0  0  0
   41.3560   32.4530   40.0310 C   0  0  2  0  0  0  0  0  0  0  0  0
   40.9870   33.0160   42.0850 H   0  0  0  0  0  0  0  0  0  0  0  0
   38.6480   32.0250   40.4140 H   0  0  0  0  0  0  0  0  0  0  0  0
   38.7140   32.5750   42.0800 H   0  0  0  0  0  0  0  0  0  0  0  0
   39.0590   34.7370   41.6010 H   0  0  0  0  0  0  0  0  0  0  0  0
   38.0870   34.2860   40.2010 H   0  0  0  0  0  0  0  0  0  0  0  0
   40.3370   35.6350   40.0610 H   0  0  0  0  0  0  0  0  0  0  0  0
   39.7160   34.9780   38.6980 H   0  0  0  0  0  0  0  0  0  0  0  0
   41.9580   34.0700   38.8080 H   0  0  0  0  0  0  0  0  0  0  0  0
   42.0900   34.3600   40.5590 H   0  0  0  0  0  0  0  0  0  0  0  0
   42.4210   32.2130   40.0280 H   0  0  0  0  0  0  0  0  0  0  0  0
   40.5920   31.8180   38.9560 N   0  0  0  0  0  0  0  0  0  0  0  0
   40.9050   31.5640   37.6080 C   0  0  0  0  0  0  0  0  0  0  0  0
   41.6740   30.6040   37.2400 O   0  0  0  0  0  0  0  0  0  0  0  0
   40.2920   32.4530   36.6740 N   0  0  0  0  0  0  0  0  0  0  0  0
   39.5590   31.5020   39.0980 H   0  0  0  0  0  0  0  0  0  0  0  0
   40.5350   33.1320   35.9070 H   0  0  0  0  0  0  0  0  0  0  0  0
   39.2880   32.6880   36.4930 H   0  0  0  0  0  0  0  0  0  0  0  0
   38.6320   28.1770   42.8610 C   0  0  0  0  0  0  0  0  0  0  0  0
   37.7840   28.5150   43.8900 C   0  0  0  0  0  0  0  0  0  0  0  0
   36.6400   27.8240   44.2300 C   0  0  0  0  0  0  0  0  0  0  0  0
   36.3830   26.7300   43.4430 C   0  0  0  0  0  0  0  0  0  0  0  0
   37.2260   26.3660   42.3920 C   0  0  0  0  0  0  0  0  0  0  0  0
   38.3450   27.0980   42.1120 N   0  0  0  0  0  0  0  0  0  0  0  0
   38.0710   29.4060   44.4640 H   0  0  0  0  0  0  0  0  0  0  0  0
   35.9940   28.1080   45.0390 H   0  0  0  0  0  0  0  0  0  0  0  0
   35.5180   26.0970   43.5960 H   0  0  0  0  0  0  0  0  0  0  0  0
   36.9910   25.1840   41.5060 C   0  0  0  0  0  3  0  0  0  0  0  0
   37.0040   25.5220   40.0470 C   0  0  0  0  0  3  0  0  0  0  0  0
   36.0550   25.3710   39.5180 H   0  0  0  0  0  0  0  0  0  0  0  0
   38.1870   24.8800   39.3210 C   0  0  0  0  0  3  0  0  0  0  0  0
   38.0670   25.1640   38.2390 H   0  0  0  0  0  0  0  0  0  0  0  0
   38.1640   23.4920   39.4070 O   0  0  0  0  0  0  0  0  0  0  0  0
   37.8090   23.0510   40.6860 C   0  0  0  0  0  3  0  0  0  0  0  0
   36.7040   22.8450   40.7440 H   0  0  0  0  0  0  0  0  0  0  0  0
   38.0760   24.1250   41.7390 C   0  0  0  0  0  3  0  0  0  0  0  0
   39.0740   24.5600   41.5800 H   0  0  0  0  0  0  0  0  0  0  0  0
  1  2  2  0  0  0  0
  1  6  1  0  0  0  0
  2  3  1  0  0  0  0
  3  8  1  0  0  0  0
  3  4  2  0  0  0  0
  5  4  1  0  0  0  0
  5 32  1  0  0  0  0
  6  5  2  0  0  0  0
  7  2  1  0  0  0  0
  9  1  1  0  0  0  0
  9 15  1  1  0  0  0
 10  9  1  0  0  0  0
 10 17  1  0  0  0  0
 11 10  1  0  0  0  0
 11 18  1  0  0  0  0
 12 13  1  0  0  0  0
 12 20  1  0  0  0  0
 12 11  1  0  0  0  0
 13 14  1  0  0  0  0
 13 23  1  0  0  0  0
 14 24  1  1  0  0  0
 14  9  1  0  0  0  0
 16 10  1  0  0  0  0
 19 11  1  0  0  0  0
 21 12  1  0  0  0  0
 22 13  1  0  0  0  0
 25 29  1  0  0  0  0
 25 14  1  0  0  0  0
 26 25  1  0  0  0  0
 27 26  2  0  0  0  0
 28 26  1  0  0  0  0
 30 28  1  0  0  0  0
 31 28  1  0  0  0  0
 32 33  1  0  0  0  0
 33 34  2  0  0  0  0
 33 38  1  0  0  0  0
 34 39  1  0  0  0  0
 35 40  1  0  0  0  0
 35 34  1  0  0  0  0
 36 35  2  0  0  0  0
 37 36  1  0  0  0  0
 37 32  2  0  0  0  0
 41 49  1  0  0  0  0
 41 36  1  0  0  0  0
 42 41  1  0  0  0  0
 43 42  1  0  0  0  0
 44 46  1  0  0  0  0
 44 42  1  0  0  0  0
 45 44  1  0  0  0  0
 46 47  1  0  0  0  0
 47 48  1  0  0  0  0
 47 49  1  0  0  0  0
 50 49  1  0  0  0  0
M  END
>  <minimizedAffinity>
-6.65593863

$$$$

 OpenBabel03252507343D

 50 53  0  0  1  0  0  0  0  0999 V2000
   37.4140   30.4760   40.2990 C   0  0  0  0  0  0  0  0  0  0  0  0
   36.2640   30.5060   39.5210 C   0  0  0  0  0  0  0  0  0  0  0  0
   35.5200   29.3180   39.3300 C   0  0  0  0  0  0  0  0  0  0  0  0
   36.0080   28.1730   39.9510 N   0  0  0  0  0  0  0  0  0  0  0  0
   37.1220   28.2120   40.6840 C   0  0  0  0  0  0  0  0  0  0  0  0
   37.8140   29.3390   40.8570 N   0  0  0  0  0  0  0  0  0  0  0  0
   35.7410   31.2360   38.9400 H   0  0  0  0  0  0  0  0  0  0  0  0
   34.6330   29.1500   38.7820 H   0  0  0  0  0  0  0  0  0  0  0  0
   38.1290   31.7220   40.4850 C   0  0  2  0  0  0  0  0  0  0  0  0
   37.4230   32.8980   39.7430 C   0  0  0  0  0  0  0  0  0  0  0  0
   38.1000   34.1790   40.0850 C   0  0  0  0  0  0  0  0  0  0  0  0
   39.5910   34.1570   40.0780 C   0  0  0  0  0  0  0  0  0  0  0  0
   40.1740   32.9330   40.5740 C   0  0  0  0  0  0  0  0  0  0  0  0
   39.5010   31.6560   40.0250 C   0  0  2  0  0  0  0  0  0  0  0  0
   38.0180   32.0210   41.5540 H   0  0  0  0  0  0  0  0  0  0  0  0
   37.3260   32.7080   38.6740 H   0  0  0  0  0  0  0  0  0  0  0  0
   36.3910   32.8840   40.1500 H   0  0  0  0  0  0  0  0  0  0  0  0
   37.6110   34.5590   41.0020 H   0  0  0  0  0  0  0  0  0  0  0  0
   37.7970   34.9160   39.2860 H   0  0  0  0  0  0  0  0  0  0  0  0
   39.7870   34.8400   40.9990 H   0  0  0  0  0  0  0  0  0  0  0  0
   40.1140   34.8290   39.3970 H   0  0  0  0  0  0  0  0  0  0  0  0
   41.2350   32.8500   40.2280 H   0  0  0  0  0  0  0  0  0  0  0  0
   40.2060   32.7630   41.6790 H   0  0  0  0  0  0  0  0  0  0  0  0
   40.1300   30.8830   40.4700 H   0  0  0  0  0  0  0  0  0  0  0  0
   39.5440   31.6990   38.5620 N   0  0  0  0  0  0  0  0  0  0  0  0
   40.6160   31.6380   37.6540 C   0  0  0  0  0  0  0  0  0  0  0  0
   41.2130   30.5410   37.3530 O   0  0  0  0  0  0  0  0  0  0  0  0
   40.9880   32.8920   37.0810 N   0  0  0  0  0  0  0  0  0  0  0  0
   38.6460   31.8700   37.9690 H   0  0  0  0  0  0  0  0  0  0  0  0
   41.8150   33.5350   36.9820 H   0  0  0  0  0  0  0  0  0  0  0  0
   40.4410   33.5940   36.5310 H   0  0  0  0  0  0  0  0  0  0  0  0
   37.5970   26.9640   41.2980 C   0  0  0  0  0  0  0  0  0  0  0  0
   36.9150   25.7830   41.1270 C   0  0  0  0  0  0  0  0  0  0  0  0
   37.2900   24.5690   41.6630 C   0  0  0  0  0  0  0  0  0  0  0  0
   38.4390   24.6110   42.4110 C   0  0  0  0  0  0  0  0  0  0  0  0
   39.1520   25.7950   42.6000 C   0  0  0  0  0  0  0  0  0  0  0  0
   38.7190   26.9640   42.0380 N   0  0  0  0  0  0  0  0  0  0  0  0
   36.0070   25.8470   40.5120 H   0  0  0  0  0  0  0  0  0  0  0  0
   36.7400   23.6590   41.5150 H   0  0  0  0  0  0  0  0  0  0  0  0
   38.8500   23.7300   42.8900 H   0  0  0  0  0  0  0  0  0  0  0  0
   40.4080   25.8940   43.4050 C   0  0  0  0  0  3  0  0  0  0  0  0
   41.5560   25.1380   42.8120 C   0  0  0  0  0  3  0  0  0  0  0  0
   41.9310   24.2990   43.4120 H   0  0  0  0  0  0  0  0  0  0  0  0
   42.6760   26.0700   42.3470 C   0  0  0  0  0  3  0  0  0  0  0  0
   43.4910   25.3940   41.9670 H   0  0  0  0  0  0  0  0  0  0  0  0
   43.1960   26.8260   43.3920 O   0  0  0  0  0  0  0  0  0  0  0  0
   42.1950   27.3110   44.2390 C   0  0  0  0  0  3  0  0  0  0  0  0
   42.0460   26.6210   45.1160 H   0  0  0  0  0  0  0  0  0  0  0  0
   40.8420   27.3600   43.5300 C   0  0  0  0  0  3  0  0  0  0  0  0
   40.9630   27.8080   42.5320 H   0  0  0  0  0  0  0  0  0  0  0  0
  1  9  1  0  0  0  0
  1  6  1  0  0  0  0
  2  1  2  0  0  0  0
  3  2  1  0  0  0  0
  3  4  2  0  0  0  0
  4  5  1  0  0  0  0
  5  6  2  0  0  0  0
  5 32  1  0  0  0  0
  7  2  1  0  0  0  0
  8  3  1  0  0  0  0
  9 15  1  1  0  0  0
 10 11  1  0  0  0  0
 10 17  1  0  0  0  0
 10  9  1  0  0  0  0
 11 18  1  0  0  0  0
 12 11  1  0  0  0  0
 12 13  1  0  0  0  0
 12 20  1  0  0  0  0
 13 23  1  0  0  0  0
 14 24  1  1  0  0  0
 14  9  1  0  0  0  0
 14 13  1  0  0  0  0
 16 10  1  0  0  0  0
 19 11  1  0  0  0  0
 21 12  1  0  0  0  0
 22 13  1  0  0  0  0
 25 14  1  0  0  0  0
 26 25  1  0  0  0  0
 27 26  2  0  0  0  0
 28 26  1  0  0  0  0
 29 25  1  0  0  0  0
 30 28  1  0  0  0  0
 31 28  1  0  0  0  0
 32 37  1  0  0  0  0
 33 32  2  0  0  0  0
 33 34  1  0  0  0  0
 34 35  2  0  0  0  0
 35 36  1  0  0  0  0
 35 40  1  0  0  0  0
 36 41  1  0  0  0  0
 37 36  2  0  0  0  0
 38 33  1  0  0  0  0
 39 34  1  0  0  0  0
 41 49  1  0  0  0  0
 42 41  1  0  0  0  0
 42 43  1  0  0  0  0
 44 42  1  0  0  0  0
 44 46  1  0  0  0  0
 45 44  1  0  0  0  0
 46 47  1  0  0  0  0
 47 48  1  0  0  0  0
 49 47  1  0  0  0  0
 50 49  1  0  0  0  0
M  END
>  <minimizedAffinity>
-6.65223312

$$$$

 OpenBabel03252507343D

 50 53  0  0  1  0  0  0  0  0999 V2000
   40.3900   33.3180   40.7500 C   0  0  0  0  0  0  0  0  0  0  0  0
   39.7670   34.4870   40.3340 C   0  0  0  0  0  0  0  0  0  0  0  0
   38.3780   34.4790   40.0620 C   0  0  0  0  0  0  0  0  0  0  0  0
   37.7190   33.2660   40.2350 N   0  0  0  0  0  0  0  0  0  0  0  0
   38.3790   32.1780   40.6360 C   0  0  0  0  0  0  0  0  0  0  0  0
   39.6880   32.2000   40.8900 N   0  0  0  0  0  0  0  0  0  0  0  0
   40.0690   35.4880   40.1060 H   0  0  0  0  0  0  0  0  0  0  0  0
   37.7420   35.2580   39.7440 H   0  0  0  0  0  0  0  0  0  0  0  0
   41.8090   33.3830   41.0380 C   0  0  2  0  0  0  0  0  0  0  0  0
   42.3010   34.8590   41.1400 C   0  0  0  0  0  0  0  0  0  0  0  0
   43.7220   34.8790   41.5860 C   0  0  0  0  0  0  0  0  0  0  0  0
   44.6300   33.8930   40.9330 C   0  0  0  0  0  0  0  0  0  0  0  0
   44.0270   32.6110   40.6620 C   0  0  0  0  0  0  0  0  0  0  0  0
   42.6140   32.7040   40.0440 C   0  0  2  0  0  0  0  0  0  0  0  0
   41.9610   33.0140   42.0800 H   0  0  0  0  0  0  0  0  0  0  0  0
   42.1050   35.4190   40.2260 H   0  0  0  0  0  0  0  0  0  0  0  0
   41.6440   35.3020   41.9150 H   0  0  0  0  0  0  0  0  0  0  0  0
   43.7050   34.8830   42.6920 H   0  0  0  0  0  0  0  0  0  0  0  0
   44.1210   35.8980   41.3120 H   0  0  0  0  0  0  0  0  0  0  0  0
   45.2750   33.6010   41.8550 H   0  0  0  0  0  0  0  0  0  0  0  0
   45.4910   34.2710   40.3790 H   0  0  0  0  0  0  0  0  0  0  0  0
   44.6250   32.0640   39.8910 H   0  0  0  0  0  0  0  0  0  0  0  0
   43.8990   31.8880   41.5070 H   0  0  0  0  0  0  0  0  0  0  0  0
   42.3930   31.6500   39.8700 H   0  0  0  0  0  0  0  0  0  0  0  0
   42.6930   33.5110   38.8250 N   0  0  0  0  0  0  0  0  0  0  0  0
   43.0450   33.1810   37.5030 C   0  0  0  0  0  0  0  0  0  0  0  0
   42.2490   32.5680   36.7030 O   0  0  0  0  0  0  0  0  0  0  0  0
   44.3560   33.5880   37.1120 N   0  0  0  0  0  0  0  0  0  0  0  0
   42.5310   34.5890   38.8400 H   0  0  0  0  0  0  0  0  0  0  0  0
   45.2600   33.1960   36.7410 H   0  0  0  0  0  0  0  0  0  0  0  0
   44.8170   34.5280   37.0980 H   0  0  0  0  0  0  0  0  0  0  0  0
   37.6300   30.9220   40.7810 C   0  0  0  0  0  0  0  0  0  0  0  0
   36.3140   30.8300   40.3930 C   0  0  0  0  0  0  0  0  0  0  0  0
   35.5390   29.6930   40.4910 C   0  0  0  0  0  0  0  0  0  0  0  0
   36.1900   28.6080   41.0210 C   0  0  0  0  0  0  0  0  0  0  0  0
   37.5240   28.6730   41.4220 C   0  0  0  0  0  0  0  0  0  0  0  0
   38.2320   29.8360   41.2960 N   0  0  0  0  0  0  0  0  0  0  0  0
   35.8790   31.7500   39.9800 H   0  0  0  0  0  0  0  0  0  0  0  0
   34.5120   29.6460   40.1810 H   0  0  0  0  0  0  0  0  0  0  0  0
   35.7020   27.6490   41.1540 H   0  0  0  0  0  0  0  0  0  0  0  0
   38.2780   27.5200   42.0040 C   0  0  0  0  0  3  0  0  0  0  0  0
   39.5010   27.1530   41.2220 C   0  0  0  0  0  3  0  0  0  0  0  0
   39.4870   26.1560   40.7630 H   0  0  0  0  0  0  0  0  0  0  0  0
   40.7850   27.4150   42.0100 C   0  0  0  0  0  3  0  0  0  0  0  0
   41.6220   27.0620   41.3470 H   0  0  0  0  0  0  0  0  0  0  0  0
   40.8330   26.6820   43.1910 O   0  0  0  0  0  0  0  0  0  0  0  0
   39.6020   26.6690   43.8530 C   0  0  0  0  0  3  0  0  0  0  0  0
   39.0110   25.7520   43.5760 H   0  0  0  0  0  0  0  0  0  0  0  0
   38.7320   27.8520   43.4320 C   0  0  0  0  0  3  0  0  0  0  0  0
   39.3320   28.7740   43.4360 H   0  0  0  0  0  0  0  0  0  0  0  0
  1  6  1  0  0  0  0
  1  9  1  0  0  0  0
  2  1  2  0  0  0  0
  3  4  2  0  0  0  0
  3  2  1  0  0  0  0
  4  5  1  0  0  0  0
  5 32  1  0  0  0  0
  5  6  2  0  0  0  0
  7  2  1  0  0  0  0
  8  3  1  0  0  0  0
  9 10  1  0  0  0  0
  9 15  1  1  0  0  0
 10 11  1  0  0  0  0
 10 17  1  0  0  0  0
 11 18  1  0  0  0  0
 12 11  1  0  0  0  0
 12 20  1  0  0  0  0
 13 12  1  0  0  0  0
 13 23  1  0  0  0  0
 14 24  1  6  0  0  0
 14 13  1  0  0  0  0
 14  9  1  0  0  0  0
 16 10  1  0  0  0  0
 19 11  1  0  0  0  0
 21 12  1  0  0  0  0
 22 13  1  0  0  0  0
 25 29  1  0  0  0  0
 25 14  1  0  0  0  0
 26 25  1  0  0  0  0
 27 26  2  0  0  0  0
 28 26  1  0  0  0  0
 30 28  1  0  0  0  0
 31 28  1  0  0  0  0
 32 37  1  0  0  0  0
 33 34  1  0  0  0  0
 33 32  2  0  0  0  0
 34 35  2  0  0  0  0
 35 40  1  0  0  0  0
 35 36  1  0  0  0  0
 36 41  1  0  0  0  0
 37 36  2  0  0  0  0
 38 33  1  0  0  0  0
 39 34  1  0  0  0  0
 41 49  1  0  0  0  0
 42 41  1  0  0  0  0
 42 44  1  0  0  0  0
 43 42  1  0  0  0  0
 44 46  1  0  0  0  0
 45 44  1  0  0  0  0
 46 47  1  0  0  0  0
 48 47  1  0  0  0  0
 49 50  1  0  0  0  0
 49 47  1  0  0  0  0
M  END
>  <minimizedAffinity>
-6.49707794

$$$$

 OpenBabel03252507343D

 50 53  0  0  1  0  0  0  0  0999 V2000
   38.0910   27.3250   38.9750 C   0  0  0  0  0  0  0  0  0  0  0  0
   38.1560   27.0360   37.6180 C   0  0  0  0  0  0  0  0  0  0  0  0
   38.2770   28.0920   36.6840 C   0  0  0  0  0  0  0  0  0  0  0  0
   38.3200   29.3810   37.2070 N   0  0  0  0  0  0  0  0  0  0  0  0
   38.2510   29.5900   38.5230 C   0  0  0  0  0  0  0  0  0  0  0  0
   38.1380   28.5850   39.3920 N   0  0  0  0  0  0  0  0  0  0  0  0
   38.1070   26.1570   37.0110 H   0  0  0  0  0  0  0  0  0  0  0  0
   38.3420   28.0660   35.6310 H   0  0  0  0  0  0  0  0  0  0  0  0
   37.9920   26.2090   39.8930 C   0  0  2  0  0  0  0  0  0  0  0  0
   36.5880   25.5340   39.8170 C   0  0  0  0  0  0  0  0  0  0  0  0
   36.5820   24.3050   40.6570 C   0  0  0  0  0  0  0  0  0  0  0  0
   37.2170   24.4240   42.0010 C   0  0  0  0  0  0  0  0  0  0  0  0
   38.3940   25.2580   42.0350 C   0  0  0  0  0  0  0  0  0  0  0  0
   38.2380   26.5890   41.2680 C   0  0  2  0  0  0  0  0  0  0  0  0
   38.6600   25.3990   39.5150 H   0  0  0  0  0  0  0  0  0  0  0  0
   35.7850   26.2370   40.0350 H   0  0  0  0  0  0  0  0  0  0  0  0
   36.4800   25.2720   38.7450 H   0  0  0  0  0  0  0  0  0  0  0  0
   36.9340   23.4790   40.0110 H   0  0  0  0  0  0  0  0  0  0  0  0
   35.4960   24.0630   40.8480 H   0  0  0  0  0  0  0  0  0  0  0  0
   37.7290   23.3810   42.0530 H   0  0  0  0  0  0  0  0  0  0  0  0
   36.6030   24.2300   42.8820 H   0  0  0  0  0  0  0  0  0  0  0  0
   38.6070   25.5740   43.0870 H   0  0  0  0  0  0  0  0  0  0  0  0
   39.3580   24.8410   41.6490 H   0  0  0  0  0  0  0  0  0  0  0  0
   39.1960   27.0660   41.4810 H   0  0  0  0  0  0  0  0  0  0  0  0
   37.0780   27.3030   41.8080 N   0  0  0  0  0  0  0  0  0  0  0  0
   36.9680   28.3040   42.7900 C   0  0  0  0  0  0  0  0  0  0  0  0
   37.2600   29.5340   42.5670 O   0  0  0  0  0  0  0  0  0  0  0  0
   36.4930   27.8480   44.0570 N   0  0  0  0  0  0  0  0  0  0  0  0
   36.0610   27.0490   41.5100 H   0  0  0  0  0  0  0  0  0  0  0  0
   36.7680   27.8180   45.0730 H   0  0  0  0  0  0  0  0  0  0  0  0
   35.6150   27.3500   44.3330 H   0  0  0  0  0  0  0  0  0  0  0  0
   38.2820   30.9760   39.0110 C   0  0  0  0  0  0  0  0  0  0  0  0
   37.1970   31.8080   38.8580 C   0  0  0  0  0  0  0  0  0  0  0  0
   37.1400   33.1170   39.2870 C   0  0  0  0  0  0  0  0  0  0  0  0
   38.2810   33.5610   39.9070 C   0  0  0  0  0  0  0  0  0  0  0  0
   39.3940   32.7380   40.0770 C   0  0  0  0  0  0  0  0  0  0  0  0
   39.3800   31.4480   39.6250 N   0  0  0  0  0  0  0  0  0  0  0  0
   36.3310   31.3640   38.3500 H   0  0  0  0  0  0  0  0  0  0  0  0
   36.2810   33.7480   39.1550 H   0  0  0  0  0  0  0  0  0  0  0  0
   38.3740   34.5690   40.2950 H   0  0  0  0  0  0  0  0  0  0  0  0
   40.6590   33.1730   40.7450 C   0  0  0  0  0  3  0  0  0  0  0  0
   41.8530   32.3650   40.3420 C   0  0  0  0  0  3  0  0  0  0  0  0
   42.3200   31.7770   41.1430 H   0  0  0  0  0  0  0  0  0  0  0  0
   42.8690   33.1970   39.5580 C   0  0  0  0  0  3  0  0  0  0  0  0
   43.7310   32.5030   39.3530 H   0  0  0  0  0  0  0  0  0  0  0  0
   43.3490   34.2710   40.3000 O   0  0  0  0  0  0  0  0  0  0  0  0
   42.3330   34.9100   41.0180 C   0  0  0  0  0  3  0  0  0  0  0  0
   42.2740   34.5070   42.0680 H   0  0  0  0  0  0  0  0  0  0  0  0
   40.9620   34.6370   40.4030 C   0  0  0  0  0  3  0  0  0  0  0  0
   41.0120   34.7710   39.3120 H   0  0  0  0  0  0  0  0  0  0  0  0
  1  6  1  0  0  0  0
  1  9  1  0  0  0  0
  2  1  2  0  0  0  0
  3  4  2  0  0  0  0
  3  2  1  0  0  0  0
  4  5  1  0  0  0  0
  5 32  1  0  0  0  0
  5  6  2  0  0  0  0
  7  2  1  0  0  0  0
  8  3  1  0  0  0  0
  9 15  1  6  0  0  0
  9 14  1  0  0  0  0
 10  9  1  0  0  0  0
 10 16  1  0  0  0  0
 10 11  1  0  0  0  0
 11 19  1  0  0  0  0
 11 12  1  0  0  0  0
 12 13  1  0  0  0  0
 12 20  1  0  0  0  0
 12 21  1  0  0  0  0
 13 22  1  0  0  0  0
 14 24  1  1  0  0  0
 14 25  1  0  0  0  0
 14 13  1  0  0  0  0
 17 10  1  0  0  0  0
 18 11  1  0  0  0  0
 23 13  1  0  0  0  0
 25 26  1  0  0  0  0
 26 28  1  0  0  0  0
 27 26  2  0  0  0  0
 28 31  1  0  0  0  0
 28 30  1  0  0  0  0
 29 25  1  0  0  0  0
 32 37  1  0  0  0  0
 33 32  2  0  0  0  0
 33 34  1  0  0  0  0
 34 35  2  0  0  0  0
 35 36  1  0  0  0  0
 35 40  1  0  0  0  0
 36 41  1  0  0  0  0
 37 36  2  0  0  0  0
 38 33  1  0  0  0  0
 39 34  1  0  0  0  0
 42 41  1  0  0  0  0
 42 43  1  0  0  0  0
 44 46  1  0  0  0  0
 44 42  1  0  0  0  0
 45 44  1  0  0  0  0
 46 47  1  0  0  0  0
 47 48  1  0  0  0  0
 49 41  1  0  0  0  0
 49 47  1  0  0  0  0
 50 49  1  0  0  0  0
M  END
>  <minimizedAffinity>
-6.47018528

$$$$

 OpenBabel03252507343D

 50 53  0  0  1  0  0  0  0  0999 V2000
   39.1510   30.7240   40.6200 C   0  0  0  0  0  0  0  0  0  0  0  0
   37.8600   31.1940   40.8250 C   0  0  0  0  0  0  0  0  0  0  0  0
   36.9080   30.3630   41.4630 C   0  0  0  0  0  0  0  0  0  0  0  0
   37.3460   29.0990   41.8470 N   0  0  0  0  0  0  0  0  0  0  0  0
   38.6010   28.7080   41.6180 C   0  0  0  0  0  0  0  0  0  0  0  0
   39.4880   29.5020   41.0170 N   0  0  0  0  0  0  0  0  0  0  0  0
   37.3120   32.0810   40.5900 H   0  0  0  0  0  0  0  0  0  0  0  0
   35.8970   30.5450   41.7030 H   0  0  0  0  0  0  0  0  0  0  0  0
   40.0950   31.6200   39.9840 C   0  0  2  0  0  0  0  0  0  0  0  0
   39.8310   33.1030   40.3860 C   0  0  0  0  0  0  0  0  0  0  0  0
   40.9120   33.9670   39.8360 C   0  0  0  0  0  0  0  0  0  0  0  0
   41.3160   33.6960   38.4270 C   0  0  0  0  0  0  0  0  0  0  0  0
   41.3170   32.3010   38.0610 C   0  0  0  0  0  0  0  0  0  0  0  0
   40.0670   31.5300   38.5390 C   0  0  2  0  0  0  0  0  0  0  0  0
   41.0980   31.4310   40.4350 H   0  0  0  0  0  0  0  0  0  0  0  0
   38.8200   33.4220   40.1290 H   0  0  0  0  0  0  0  0  0  0  0  0
   39.8720   33.0860   41.4940 H   0  0  0  0  0  0  0  0  0  0  0  0
   41.7190   33.9810   40.5920 H   0  0  0  0  0  0  0  0  0  0  0  0
   40.5050   35.0190   39.8470 H   0  0  0  0  0  0  0  0  0  0  0  0
   42.4630   33.8600   38.5320 H   0  0  0  0  0  0  0  0  0  0  0  0
   41.2120   34.5000   37.6960 H   0  0  0  0  0  0  0  0  0  0  0  0
   41.2890   32.1990   36.9470 H   0  0  0  0  0  0  0  0  0  0  0  0
   42.1700   31.6590   38.3970 H   0  0  0  0  0  0  0  0  0  0  0  0
   40.2510   30.5460   38.1050 H   0  0  0  0  0  0  0  0  0  0  0  0
   38.8770   32.2050   38.0160 N   0  0  0  0  0  0  0  0  0  0  0  0
   37.8950   31.7940   37.0970 C   0  0  0  0  0  0  0  0  0  0  0  0
   36.9480   30.9830   37.4040 O   0  0  0  0  0  0  0  0  0  0  0  0
   38.0240   32.3580   35.7910 N   0  0  0  0  0  0  0  0  0  0  0  0
   38.6480   33.2390   38.2710 H   0  0  0  0  0  0  0  0  0  0  0  0
   38.1320   32.0750   34.7830 H   0  0  0  0  0  0  0  0  0  0  0  0
   38.0490   33.3520   35.4620 H   0  0  0  0  0  0  0  0  0  0  0  0
   38.9960   27.3550   42.0300 C   0  0  0  0  0  0  0  0  0  0  0  0
   39.5370   27.1190   43.2730 C   0  0  0  0  0  0  0  0  0  0  0  0
   39.9320   25.8840   43.7400 C   0  0  0  0  0  0  0  0  0  0  0  0
   39.7450   24.8540   42.8520 C   0  0  0  0  0  0  0  0  0  0  0  0
   39.1990   25.0650   41.5860 C   0  0  0  0  0  0  0  0  0  0  0  0
   38.8290   26.3200   41.1890 N   0  0  0  0  0  0  0  0  0  0  0  0
   39.6480   28.0040   43.9140 H   0  0  0  0  0  0  0  0  0  0  0  0
   40.3520   25.7250   44.7160 H   0  0  0  0  0  0  0  0  0  0  0  0
   40.0110   23.8310   43.0890 H   0  0  0  0  0  0  0  0  0  0  0  0
   38.9740   23.9790   40.5830 C   0  0  0  0  0  3  0  0  0  0  0  0
   37.8170   23.0910   40.9170 C   0  0  0  0  0  3  0  0  0  0  0  0
   38.0690   22.0430   41.1260 H   0  0  0  0  0  0  0  0  0  0  0  0
   36.6790   23.2270   39.9040 C   0  0  0  0  0  3  0  0  0  0  0  0
   35.8960   22.4870   40.2290 H   0  0  0  0  0  0  0  0  0  0  0  0
   37.0820   22.8880   38.6160 O   0  0  0  0  0  0  0  0  0  0  0  0
   38.3490   23.3940   38.3110 C   0  0  0  0  0  3  0  0  0  0  0  0
   39.1450   22.6240   38.5160 H   0  0  0  0  0  0  0  0  0  0  0  0
   38.7010   24.5850   39.2000 C   0  0  0  0  0  3  0  0  0  0  0  0
   37.8460   25.2760   39.2490 H   0  0  0  0  0  0  0  0  0  0  0  0
  1  2  2  0  0  0  0
  1  6  1  0  0  0  0
  2  3  1  0  0  0  0
  3  8  1  0  0  0  0
  3  4  2  0  0  0  0
  5  4  1  0  0  0  0
  5 32  1  0  0  0  0
  6  5  2  0  0  0  0
  7  2  1  0  0  0  0
  9 10  1  0  0  0  0
  9 15  1  1  0  0  0
  9  1  1  0  0  0  0
 10 17  1  0  0  0  0
 11 19  1  0  0  0  0
 11 10  1  0  0  0  0
 11 18  1  0  0  0  0
 12 20  1  0  0  0  0
 12 11  1  0  0  0  0
 13 23  1  0  0  0  0
 13 12  1  0  0  0  0
 13 14  1  0  0  0  0
 14 24  1  6  0  0  0
 14  9  1  0  0  0  0
 16 10  1  0  0  0  0
 21 12  1  0  0  0  0
 22 13  1  0  0  0  0
 25 29  1  0  0  0  0
 25 14  1  0  0  0  0
 26 27  2  0  0  0  0
 26 25  1  0  0  0  0
 28 26  1  0  0  0  0
 30 28  1  0  0  0  0
 31 28  1  0  0  0  0
 32 33  1  0  0  0  0
 33 34  2  0  0  0  0
 33 38  1  0  0  0  0
 34 39  1  0  0  0  0
 35 40  1  0  0  0  0
 35 34  1  0  0  0  0
 36 35  2  0  0  0  0
 37 36  1  0  0  0  0
 37 32  2  0  0  0  0
 41 42  1  0  0  0  0
 41 36  1  0  0  0  0
 42 43  1  0  0  0  0
 44 45  1  0  0  0  0
 44 42  1  0  0  0  0
 46 44  1  0  0  0  0
 47 48  1  0  0  0  0
 47 46  1  0  0  0  0
 47 49  1  0  0  0  0
 49 50  1  0  0  0  0
 49 41  1  0  0  0  0
M  END
>  <minimizedAffinity>
-6.37539387

$$$$
