
 OpenBabel03252509043D

 49 51  0  0  1  0  0  0  0  0999 V2000
   46.8050   34.3510   43.5030 N   0  0  0  0  0  0  0  0  0  0  0  0
   46.5070   34.9580   42.2640 C   0  0  0  0  0  0  0  0  0  0  0  0
   45.0350   34.9960   41.9040 C   0  0  0  0  0  0  0  0  0  0  0  0
   44.1190   35.1420   43.0870 C   0  0  0  0  0  0  0  0  0  0  0  0
   44.8880   35.3180   44.3770 C   0  0  0  0  0  0  0  0  0  0  0  0
   45.8210   34.0470   44.4220 C   0  0  2  0  0  0  0  0  0  0  0  0
   47.0210   34.5630   41.3800 H   0  0  0  0  0  0  0  0  0  0  0  0
   46.8310   36.0330   42.3330 H   0  0  0  0  0  0  0  0  0  0  0  0
   44.8070   34.0980   41.2970 H   0  0  0  0  0  0  0  0  0  0  0  0
   44.8590   35.8770   41.2460 H   0  0  0  0  0  0  0  0  0  0  0  0
   43.4200   36.0050   42.9800 H   0  0  0  0  0  0  0  0  0  0  0  0
   43.4870   34.2520   43.2060 H   0  0  0  0  0  0  0  0  0  0  0  0
   44.1960   35.2200   45.2180 H   0  0  0  0  0  0  0  0  0  0  0  0
   45.5200   36.2290   44.3960 H   0  0  0  0  0  0  0  0  0  0  0  0
   45.1240   33.2150   44.1940 H   0  0  0  0  0  0  0  0  0  0  0  0
   47.9950   33.5440   43.4870 C   0  0  0  0  0  0  0  0  0  0  0  0
   48.2260   33.2470   44.5330 H   0  0  0  0  0  0  0  0  0  0  0  0
   48.8040   34.1640   43.0620 H   0  0  0  0  0  0  0  0  0  0  0  0
   47.7510   32.3210   42.6860 C   0  0  0  0  0  0  0  0  0  0  0  0
   47.5350   31.4140   43.2790 H   0  0  0  0  0  0  0  0  0  0  0  0
   46.8550   32.4440   42.0180 H   0  0  0  0  0  0  0  0  0  0  0  0
   51.2500   32.1090   41.3400 C   0  0  0  0  0  0  0  0  0  0  0  0
   50.1570   32.3300   42.1970 C   0  0  0  0  0  0  0  0  0  0  0  0
   48.8860   32.0810   41.7630 C   0  0  0  0  0  0  0  0  0  0  0  0
   48.7400   31.6290   40.5140 N   0  0  0  0  0  0  0  0  0  0  0  0
   49.7640   31.4120   39.6850 C   0  0  0  0  0  0  0  0  0  0  0  0
   51.0290   31.6460   40.0780 N   0  0  0  0  0  0  0  0  0  0  0  0
   52.2720   32.3050   41.6770 H   0  0  0  0  0  0  0  0  0  0  0  0
   50.3770   32.6990   43.1970 H   0  0  0  0  0  0  0  0  0  0  0  0
   49.4690   31.0410   38.6990 H   0  0  0  0  0  0  0  0  0  0  0  0
   46.2840   34.0760   45.7190 O   0  0  0  0  0  0  0  0  0  0  0  0
   45.5780   31.5260   45.5710 O   0  0  0  0  0  0  0  0  0  0  0  0
   46.0540   32.6130   46.5310 P   0  0  2  0  0  0  0  0  0  0  0  0
   44.7720   32.8800   47.6160 O   0  0  0  0  0  0  0  0  0  0  0  0
   44.9770   32.5780   48.5320 H   0  0  0  0  0  0  0  0  0  0  0  0
   47.4040   32.1570   47.4060 O   0  0  0  0  0  0  0  0  0  0  0  0
   47.6050   30.7910   47.1960 C   0  0  0  0  0  0  0  0  0  0  0  0
   46.6890   30.2630   47.5690 H   0  0  0  0  0  0  0  0  0  0  0  0
   47.7950   30.5560   46.1480 H   0  0  0  0  0  0  0  0  0  0  0  0
   48.7560   30.3930   48.0960 C   0  0  0  0  0  3  0  0  0  0  0  0
   48.9630   28.8970   48.1600 C   0  0  0  0  0  3  0  0  0  0  0  0
   48.1180   28.4350   48.7110 H   0  0  0  0  0  0  0  0  0  0  0  0
   50.2040   28.7020   49.0340 C   0  0  0  0  0  3  0  0  0  0  0  0
   50.4360   27.6280   49.1850 H   0  0  0  0  0  0  0  0  0  0  0  0
   49.9850   29.2440   50.2800 O   0  0  0  0  0  0  0  0  0  0  0  0
   49.7610   30.6020   50.2970 C   0  0  0  0  0  3  0  0  0  0  0  0
   49.5990   30.8880   51.3530 H   0  0  0  0  0  0  0  0  0  0  0  0
   48.5190   30.9400   49.4820 C   0  0  0  0  0  3  0  0  0  0  0  0
   47.6560   30.4010   49.9130 H   0  0  0  0  0  0  0  0  0  0  0  0
  1  6  1  0  0  0  0
  2  8  1  0  0  0  0
  2  1  1  0  0  0  0
  3  2  1  0  0  0  0
  3  4  1  0  0  0  0
  4 12  1  0  0  0  0
  4  5  1  0  0  0  0
  5 14  1  0  0  0  0
  5  6  1  0  0  0  0
  5 13  1  0  0  0  0
  6 15  1  6  0  0  0
  6 31  1  0  0  0  0
  7  2  1  0  0  0  0
  9  3  1  0  0  0  0
 10  3  1  0  0  0  0
 11  4  1  0  0  0  0
 16  1  1  0  0  0  0
 16 17  1  0  0  0  0
 18 16  1  0  0  0  0
 19 20  1  0  0  0  0
 19 16  1  0  0  0  0
 21 19  1  0  0  0  0
 22 28  1  0  0  0  0
 22 23  1  0  0  0  0
 23 29  1  0  0  0  0
 24 23  2  0  0  0  0
 24 19  1  0  0  0  0
 25 24  1  0  0  0  0
 26 27  1  0  0  0  0
 26 25  2  0  0  0  0
 27 22  2  0  0  0  0
 30 26  1  0  0  0  0
 31 33  1  0  0  0  0
 33 32  2  6  0  0  0
 33 36  1  0  0  0  0
 33 34  1  0  0  0  0
 34 35  1  0  0  0  0
 37 36  1  0  0  0  0
 37 38  1  0  0  0  0
 37 40  1  0  0  0  0
 39 37  1  0  0  0  0
 40 41  1  0  0  0  0
 40 48  1  0  0  0  0
 41 42  1  0  0  0  0
 41 43  1  0  0  0  0
 43 44  1  0  0  0  0
 43 45  1  0  0  0  0
 45 46  1  0  0  0  0
 46 47  1  0  0  0  0
 48 49  1  0  0  0  0
 48 46  1  0  0  0  0
M  END
>  <minimizedAffinity>
-4.99065781

>  <minimizedRMSD>
2.81145906

$$$$
