
 OpenBabel03252502403D

 47 50  0  0  1  0  0  0  0  0999 V2000
   37.1940   30.1170   40.0470 C   0  0  1  0  0  0  0  0  0  0  0  0
   38.0930   29.4820   39.7910 H   0  0  0  0  0  0  0  0  0  0  0  0
   36.2050   29.7980   39.0520 N   0  0  0  0  0  0  0  0  0  0  0  0
   36.6770   28.9020   38.0650 C   0  0  0  0  0  0  0  0  0  0  0  0
   35.6630   29.0060   36.9090 C   0  0  0  0  0  0  0  0  0  0  0  0
   34.5050   28.3260   37.4300 N   0  0  0  0  0  0  0  0  0  0  0  0
   33.9750   28.9330   38.5840 C   0  0  0  0  0  0  0  0  0  0  0  0
   34.9920   29.3840   39.6220 C   0  0  0  0  0  0  0  0  0  0  0  0
   37.7000   29.1570   37.7220 H   0  0  0  0  0  0  0  0  0  0  0  0
   36.6290   27.8550   38.4360 H   0  0  0  0  0  0  0  0  0  0  0  0
   35.4610   30.0720   36.7010 H   0  0  0  0  0  0  0  0  0  0  0  0
   36.0580   28.4510   36.0530 H   0  0  0  0  0  0  0  0  0  0  0  0
   34.7460   27.3280   37.5750 H   0  0  0  0  0  0  0  0  0  0  0  0
   33.3760   29.8260   38.2600 H   0  0  0  0  0  0  0  0  0  0  0  0
   33.2160   28.2530   39.0280 H   0  0  0  0  0  0  0  0  0  0  0  0
   35.2280   28.3570   40.0500 H   0  0  0  0  0  0  0  0  0  0  0  0
   34.4160   29.9940   40.2770 H   0  0  0  0  0  0  0  0  0  0  0  0
   36.9900   32.5360   39.4920 C   0  0  0  0  0  0  0  0  0  0  0  0
   37.6080   31.4820   40.1290 C   0  0  0  0  0  0  0  0  0  0  0  0
   38.7300   31.8180   40.9130 C   0  0  0  0  0  0  0  0  0  0  0  0
   39.1320   33.1230   40.9990 N   0  0  0  0  0  0  0  0  0  0  0  0
   38.4680   34.1070   40.3380 C   0  0  0  0  0  0  0  0  0  0  0  0
   37.3950   33.8080   39.5840 N   0  0  0  0  0  0  0  0  0  0  0  0
   36.1260   32.3550   38.8760 H   0  0  0  0  0  0  0  0  0  0  0  0
   39.3050   31.0900   41.4650 H   0  0  0  0  0  0  0  0  0  0  0  0
   38.8620   35.0940   40.4700 H   0  0  0  0  0  0  0  0  0  0  0  0
   36.6660   29.6930   41.4240 C   0  0  0  0  0  0  0  0  0  0  0  0
   36.3970   30.4980   42.1000 H   0  0  0  0  0  0  0  0  0  0  0  0
   35.6280   29.3710   41.0860 H   0  0  0  0  0  0  0  0  0  0  0  0
   37.3830   28.6510   42.0830 C   0  0  0  0  0  0  0  0  0  0  0  0
   38.3590   28.5320   43.0140 C   0  0  0  0  0  0  0  0  0  0  0  0
   38.9310   27.3810   43.5190 C   0  0  0  0  0  0  0  0  0  0  0  0
   38.4500   26.2440   43.0130 N   0  0  0  0  0  0  0  0  0  0  0  0
   37.5020   26.2640   42.1040 C   0  0  0  0  0  0  0  0  0  0  0  0
   37.0090   27.4160   41.6770 N   0  0  0  0  0  0  0  0  0  0  0  0
   38.6960   29.5280   43.3650 H   0  0  0  0  0  0  0  0  0  0  0  0
   39.7020   27.5380   44.2640 H   0  0  0  0  0  0  0  0  0  0  0  0
   37.0160   24.9320   41.5870 C   0  0  0  0  0  3  0  0  0  0  0  0
   38.1230   23.9490   41.7590 C   0  0  0  0  0  3  0  0  0  0  0  0
   39.0620   24.4320   42.1450 H   0  0  0  0  0  0  0  0  0  0  0  0
   38.3880   23.0500   40.6030 C   0  0  0  0  0  3  0  0  0  0  0  0
   37.9190   22.0480   40.7250 H   0  0  0  0  0  0  0  0  0  0  0  0
   38.1190   23.5530   39.3590 O   0  0  0  0  0  0  0  0  0  0  0  0
   37.9500   24.9260   39.3460 C   0  0  0  0  0  3  0  0  0  0  0  0
   37.8010   25.2730   38.3110 H   0  0  0  0  0  0  0  0  0  0  0  0
   36.6750   25.1990   40.1160 C   0  0  0  0  0  3  0  0  0  0  0  0
   36.4030   26.2530   39.9520 H   0  0  0  0  0  0  0  0  0  0  0  0
  1  2  1  6  0  0  0
  1 19  1  0  0  0  0
  1 27  1  0  0  0  0
  3  8  1  0  0  0  0
  3  1  1  0  0  0  0
  4 10  1  0  0  0  0
  4  3  1  0  0  0  0
  5  6  1  0  0  0  0
  5  4  1  0  0  0  0
  6 13  1  0  0  0  0
  6  7  1  0  0  0  0
  7 15  1  0  0  0  0
  7  8  1  0  0  0  0
  8 16  1  0  0  0  0
  8 17  1  0  0  0  0
  9  4  1  0  0  0  0
 11  5  1  0  0  0  0
 12  5  1  0  0  0  0
 14  7  1  0  0  0  0
 18 23  2  0  0  0  0
 18 19  1  0  0  0  0
 19 20  2  0  0  0  0
 20 21  1  0  0  0  0
 20 25  1  0  0  0  0
 22 26  1  0  0  0  0
 22 21  2  0  0  0  0
 23 22  1  0  0  0  0
 24 18  1  0  0  0  0
 27 30  1  0  0  0  0
 27 28  1  0  0  0  0
 29 27  1  0  0  0  0
 30 31  1  0  0  0  0
 31 36  1  0  0  0  0
 31 32  2  0  0  0  0
 32 37  1  0  0  0  0
 33 32  1  0  0  0  0
 34 33  2  0  0  0  0
 35 30  2  0  0  0  0
 35 34  1  0  0  0  0
 38 39  1  0  0  0  0
 38 34  1  0  0  0  0
 39 40  1  0  0  0  0
 41 42  1  0  0  0  0
 41 39  1  0  0  0  0
 43 41  1  0  0  0  0
 44 43  1  0  0  0  0
 44 46  1  0  0  0  0
 45 44  1  0  0  0  0
 46 38  1  0  0  0  0
 47 46  1  0  0  0  0
M  END
>  <minimizedAffinity>
-5.72085333

$$$$

 OpenBabel03252502403D

 47 50  0  0  1  0  0  0  0  0999 V2000
   37.9310   30.4920   41.0310 C   0  0  1  0  0  0  0  0  0  0  0  0
   37.5480   30.4570   42.0940 H   0  0  0  0  0  0  0  0  0  0  0  0
   38.3380   31.8560   40.8170 N   0  0  0  0  0  0  0  0  0  0  0  0
   39.6120   31.9680   40.2130 C   0  0  0  0  0  0  0  0  0  0  0  0
   40.0360   33.4320   40.4400 C   0  0  0  0  0  0  0  0  0  0  0  0
   39.1880   34.1610   39.5320 N   0  0  0  0  0  0  0  0  0  0  0  0
   37.8160   34.0140   39.8130 C   0  0  0  0  0  0  0  0  0  0  0  0
   37.3560   32.6030   40.1500 C   0  0  0  0  0  0  0  0  0  0  0  0
   40.3480   31.2670   40.6550 H   0  0  0  0  0  0  0  0  0  0  0  0
   39.5350   31.8270   39.1130 H   0  0  0  0  0  0  0  0  0  0  0  0
   39.8480   33.7040   41.4940 H   0  0  0  0  0  0  0  0  0  0  0  0
   41.0800   33.5410   40.1300 H   0  0  0  0  0  0  0  0  0  0  0  0
   39.4320   33.8880   38.5620 H   0  0  0  0  0  0  0  0  0  0  0  0
   37.5670   34.6870   40.6770 H   0  0  0  0  0  0  0  0  0  0  0  0
   37.2320   34.4410   38.9690 H   0  0  0  0  0  0  0  0  0  0  0  0
   37.3700   32.1890   39.0910 H   0  0  0  0  0  0  0  0  0  0  0  0
   36.3750   32.7540   40.5350 H   0  0  0  0  0  0  0  0  0  0  0  0
   37.0800   29.7290   38.8180 C   0  0  0  0  0  0  0  0  0  0  0  0
   36.9180   29.9790   40.1640 C   0  0  0  0  0  0  0  0  0  0  0  0
   35.6420   29.6910   40.6870 C   0  0  0  0  0  0  0  0  0  0  0  0
   34.6660   29.1960   39.8640 N   0  0  0  0  0  0  0  0  0  0  0  0
   34.9060   28.9790   38.5440 C   0  0  0  0  0  0  0  0  0  0  0  0
   36.1170   29.2470   38.0240 N   0  0  0  0  0  0  0  0  0  0  0  0
   38.0300   29.9250   38.3500 H   0  0  0  0  0  0  0  0  0  0  0  0
   35.3800   29.8380   41.7230 H   0  0  0  0  0  0  0  0  0  0  0  0
   34.0770   28.5910   37.9860 H   0  0  0  0  0  0  0  0  0  0  0  0
   39.1630   29.5850   40.9190 C   0  0  0  0  0  0  0  0  0  0  0  0
   39.4640   29.3120   39.9130 H   0  0  0  0  0  0  0  0  0  0  0  0
   39.9460   30.3780   41.1450 H   0  0  0  0  0  0  0  0  0  0  0  0
   39.2180   28.4790   41.8180 C   0  0  0  0  0  0  0  0  0  0  0  0
   39.9100   28.1100   42.9210 C   0  0  0  0  0  0  0  0  0  0  0  0
   39.8040   26.9450   43.6550 C   0  0  0  0  0  0  0  0  0  0  0  0
   38.8970   26.0760   43.2040 N   0  0  0  0  0  0  0  0  0  0  0  0
   38.1800   26.3490   42.1380 C   0  0  0  0  0  0  0  0  0  0  0  0
   38.3480   27.4950   41.4960 N   0  0  0  0  0  0  0  0  0  0  0  0
   40.6410   28.8920   43.2110 H   0  0  0  0  0  0  0  0  0  0  0  0
   40.4700   26.8750   44.5070 H   0  0  0  0  0  0  0  0  0  0  0  0
   37.1780   25.3110   41.6980 C   0  0  0  0  0  3  0  0  0  0  0  0
   37.8260   23.9760   41.8220 C   0  0  0  0  0  3  0  0  0  0  0  0
   38.9050   24.0550   42.1250 H   0  0  0  0  0  0  0  0  0  0  0  0
   37.6320   23.0420   40.6790 C   0  0  0  0  0  3  0  0  0  0  0  0
   36.8210   22.3030   40.8640 H   0  0  0  0  0  0  0  0  0  0  0  0
   37.4840   23.6090   39.4420 O   0  0  0  0  0  0  0  0  0  0  0  0
   37.8590   24.9410   39.3980 C   0  0  0  0  0  3  0  0  0  0  0  0
   37.7770   25.3160   38.3660 H   0  0  0  0  0  0  0  0  0  0  0  0
   36.8540   25.6890   40.2480 C   0  0  0  0  0  3  0  0  0  0  0  0
   37.0000   26.7640   40.0710 H   0  0  0  0  0  0  0  0  0  0  0  0
  1  2  1  1  0  0  0
  3  1  1  0  0  0  0
  4  5  1  0  0  0  0
  4  9  1  0  0  0  0
  4  3  1  0  0  0  0
  5 11  1  0  0  0  0
  6  7  1  0  0  0  0
  6  5  1  0  0  0  0
  7  8  1  0  0  0  0
  7 14  1  0  0  0  0
  8 17  1  0  0  0  0
  8  3  1  0  0  0  0
 10  4  1  0  0  0  0
 12  5  1  0  0  0  0
 13  6  1  0  0  0  0
 15  7  1  0  0  0  0
 16  8  1  0  0  0  0
 18 19  1  0  0  0  0
 19 20  2  0  0  0  0
 19  1  1  0  0  0  0
 20 25  1  0  0  0  0
 21 20  1  0  0  0  0
 22 21  2  0  0  0  0
 23 22  1  0  0  0  0
 23 18  2  0  0  0  0
 24 18  1  0  0  0  0
 26 22  1  0  0  0  0
 27  1  1  0  0  0  0
 27 29  1  0  0  0  0
 27 30  1  0  0  0  0
 28 27  1  0  0  0  0
 30 31  1  0  0  0  0
 31 36  1  0  0  0  0
 31 32  2  0  0  0  0
 32 37  1  0  0  0  0
 33 32  1  0  0  0  0
 34 33  2  0  0  0  0
 35 30  2  0  0  0  0
 35 34  1  0  0  0  0
 38 39  1  0  0  0  0
 38 34  1  0  0  0  0
 39 40  1  0  0  0  0
 41 42  1  0  0  0  0
 41 39  1  0  0  0  0
 43 41  1  0  0  0  0
 44 43  1  0  0  0  0
 44 46  1  0  0  0  0
 45 44  1  0  0  0  0
 46 38  1  0  0  0  0
 47 46  1  0  0  0  0
M  END
>  <minimizedAffinity>
-5.68826103

$$$$

 OpenBabel03252502403D

 47 50  0  0  1  0  0  0  0  0999 V2000
   41.0660   31.3410   40.3570 C   0  0  1  0  0  0  0  0  0  0  0  0
   40.6480   30.4210   39.8510 H   0  0  0  0  0  0  0  0  0  0  0  0
   41.7470   32.0710   39.3210 N   0  0  0  0  0  0  0  0  0  0  0  0
   41.7130   31.4180   38.0660 C   0  0  0  0  0  0  0  0  0  0  0  0
   42.8010   32.1110   37.2240 C   0  0  0  0  0  0  0  0  0  0  0  0
   42.2170   33.3940   36.9310 N   0  0  0  0  0  0  0  0  0  0  0  0
   41.9480   34.1590   38.0820 C   0  0  0  0  0  0  0  0  0  0  0  0
   41.3230   33.4060   39.2470 C   0  0  0  0  0  0  0  0  0  0  0  0
   41.9100   30.3310   38.1550 H   0  0  0  0  0  0  0  0  0  0  0  0
   40.7450   31.6100   37.5540 H   0  0  0  0  0  0  0  0  0  0  0  0
   43.7230   32.2010   37.8260 H   0  0  0  0  0  0  0  0  0  0  0  0
   42.9290   31.5470   36.2940 H   0  0  0  0  0  0  0  0  0  0  0  0
   41.3780   33.2480   36.3390 H   0  0  0  0  0  0  0  0  0  0  0  0
   42.9150   34.6140   38.4280 H   0  0  0  0  0  0  0  0  0  0  0  0
   41.3330   35.0380   37.7900 H   0  0  0  0  0  0  0  0  0  0  0  0
   40.2690   33.3350   38.8250 H   0  0  0  0  0  0  0  0  0  0  0  0
   41.4120   34.0930   40.0550 H   0  0  0  0  0  0  0  0  0  0  0  0
   42.3700   31.7710   42.4350 C   0  0  0  0  0  0  0  0  0  0  0  0
   41.8530   30.9270   41.4760 C   0  0  0  0  0  0  0  0  0  0  0  0
   42.1450   29.5590   41.6480 C   0  0  0  0  0  0  0  0  0  0  0  0
   42.8960   29.1540   42.7180 N   0  0  0  0  0  0  0  0  0  0  0  0
   43.3700   30.0510   43.6220 C   0  0  0  0  0  0  0  0  0  0  0  0
   43.1040   31.3610   43.4770 N   0  0  0  0  0  0  0  0  0  0  0  0
   42.1870   32.8300   42.3690 H   0  0  0  0  0  0  0  0  0  0  0  0
   41.8020   28.7920   40.9710 H   0  0  0  0  0  0  0  0  0  0  0  0
   43.9480   29.6330   44.4220 H   0  0  0  0  0  0  0  0  0  0  0  0
   39.9010   32.1910   40.8790 C   0  0  0  0  0  0  0  0  0  0  0  0
   40.1070   32.7930   41.7580 H   0  0  0  0  0  0  0  0  0  0  0  0
   39.9430   32.9980   40.0790 H   0  0  0  0  0  0  0  0  0  0  0  0
   38.6300   31.5470   40.9510 C   0  0  0  0  0  0  0  0  0  0  0  0
   37.4110   31.6570   40.3740 C   0  0  0  0  0  0  0  0  0  0  0  0
   36.2760   30.9050   40.6090 C   0  0  0  0  0  0  0  0  0  0  0  0
   36.4150   29.9500   41.5310 N   0  0  0  0  0  0  0  0  0  0  0  0
   37.5630   29.7720   42.1440 C   0  0  0  0  0  0  0  0  0  0  0  0
   38.6010   30.5400   41.8540 N   0  0  0  0  0  0  0  0  0  0  0  0
   37.3950   32.4800   39.6320 H   0  0  0  0  0  0  0  0  0  0  0  0
   35.4100   31.1810   40.0200 H   0  0  0  0  0  0  0  0  0  0  0  0
   37.6310   28.6680   43.1700 C   0  0  0  0  0  3  0  0  0  0  0  0
   39.0430   28.1980   43.2360 C   0  0  0  0  0  3  0  0  0  0  0  0
   39.6930   28.7020   42.4700 H   0  0  0  0  0  0  0  0  0  0  0  0
   39.2450   26.7240   43.2610 C   0  0  0  0  0  3  0  0  0  0  0  0
   39.4110   26.3330   44.2900 H   0  0  0  0  0  0  0  0  0  0  0  0
   38.3110   25.9650   42.6090 O   0  0  0  0  0  0  0  0  0  0  0  0
   37.5050   26.6980   41.7560 C   0  0  0  0  0  3  0  0  0  0  0  0
   36.8220   26.0230   41.2180 H   0  0  0  0  0  0  0  0  0  0  0  0
   36.6680   27.5990   42.6410 C   0  0  0  0  0  3  0  0  0  0  0  0
   35.8790   28.0430   42.0160 H   0  0  0  0  0  0  0  0  0  0  0  0
  1  2  1  6  0  0  0
  1 27  1  0  0  0  0
  1 19  1  0  0  0  0
  3  1  1  0  0  0  0
  4  9  1  0  0  0  0
  4  3  1  0  0  0  0
  5 11  1  0  0  0  0
  5  4  1  0  0  0  0
  6  5  1  0  0  0  0
  6  7  1  0  0  0  0
  7 14  1  0  0  0  0
  7  8  1  0  0  0  0
  8  3  1  0  0  0  0
  8 17  1  0  0  0  0
 10  4  1  0  0  0  0
 12  5  1  0  0  0  0
 13  6  1  0  0  0  0
 15  7  1  0  0  0  0
 16  8  1  0  0  0  0
 18 23  1  0  0  0  0
 19 20  1  0  0  0  0
 19 18  2  0  0  0  0
 20 21  2  0  0  0  0
 21 22  1  0  0  0  0
 22 26  1  0  0  0  0
 23 22  2  0  0  0  0
 24 18  1  0  0  0  0
 25 20  1  0  0  0  0
 27 30  1  0  0  0  0
 27 28  1  0  0  0  0
 29 27  1  0  0  0  0
 30 35  1  0  0  0  0
 31 32  1  0  0  0  0
 31 30  2  0  0  0  0
 32 33  2  0  0  0  0
 33 34  1  0  0  0  0
 34 38  1  0  0  0  0
 35 34  2  0  0  0  0
 36 31  1  0  0  0  0
 37 32  1  0  0  0  0
 38 39  1  0  0  0  0
 39 41  1  0  0  0  0
 40 39  1  0  0  0  0
 41 42  1  0  0  0  0
 43 41  1  0  0  0  0
 44 43  1  0  0  0  0
 44 46  1  0  0  0  0
 45 44  1  0  0  0  0
 46 38  1  0  0  0  0
 47 46  1  0  0  0  0
M  END
>  <minimizedAffinity>
-5.65504932

$$$$

 OpenBabel03252502403D

 47 50  0  0  1  0  0  0  0  0999 V2000
   37.7660   30.2140   39.2120 C   0  0  1  0  0  0  0  0  0  0  0  0
   36.7760   30.1540   39.7540 H   0  0  0  0  0  0  0  0  0  0  0  0
   38.0940   31.6140   39.1680 N   0  0  0  0  0  0  0  0  0  0  0  0
   37.3550   32.3880   40.0930 C   0  0  0  0  0  0  0  0  0  0  0  0
   37.5300   33.8460   39.6270 C   0  0  0  0  0  0  0  0  0  0  0  0
   38.8940   34.1400   39.9820 N   0  0  0  0  0  0  0  0  0  0  0  0
   39.8300   33.3170   39.3280 C   0  0  0  0  0  0  0  0  0  0  0  0
   39.4750   31.8390   39.2560 C   0  0  0  0  0  0  0  0  0  0  0  0
   36.2850   32.1030   40.1180 H   0  0  0  0  0  0  0  0  0  0  0  0
   37.8110   32.3220   41.1050 H   0  0  0  0  0  0  0  0  0  0  0  0
   37.3630   33.8990   38.5360 H   0  0  0  0  0  0  0  0  0  0  0  0
   36.8560   34.4790   40.2130 H   0  0  0  0  0  0  0  0  0  0  0  0
   38.9810   34.1060   41.0150 H   0  0  0  0  0  0  0  0  0  0  0  0
   39.9580   33.7040   38.2810 H   0  0  0  0  0  0  0  0  0  0  0  0
   40.8280   33.4730   39.7910 H   0  0  0  0  0  0  0  0  0  0  0  0
   39.7260   31.5770   40.3340 H   0  0  0  0  0  0  0  0  0  0  0  0
   40.1760   31.4560   38.5520 H   0  0  0  0  0  0  0  0  0  0  0  0
   38.5700   28.6740   37.4270 C   0  0  0  0  0  0  0  0  0  0  0  0
   37.6400   29.5420   37.9570 C   0  0  0  0  0  0  0  0  0  0  0  0
   36.4900   29.7560   37.1710 C   0  0  0  0  0  0  0  0  0  0  0  0
   36.3600   29.1150   35.9680 N   0  0  0  0  0  0  0  0  0  0  0  0
   37.3250   28.2740   35.5150 C   0  0  0  0  0  0  0  0  0  0  0  0
   38.4310   28.0550   36.2490 N   0  0  0  0  0  0  0  0  0  0  0  0
   39.4740   28.4630   37.9720 H   0  0  0  0  0  0  0  0  0  0  0  0
   35.6840   30.4090   37.4680 H   0  0  0  0  0  0  0  0  0  0  0  0
   37.1290   27.8220   34.5630 H   0  0  0  0  0  0  0  0  0  0  0  0
   38.8280   29.4820   40.0420 C   0  0  0  0  0  0  0  0  0  0  0  0
   39.4850   28.8140   39.4950 H   0  0  0  0  0  0  0  0  0  0  0  0
   39.5310   30.3660   40.1870 H   0  0  0  0  0  0  0  0  0  0  0  0
   38.3890   28.9160   41.2750 C   0  0  0  0  0  0  0  0  0  0  0  0
   37.8580   29.3390   42.4460 C   0  0  0  0  0  0  0  0  0  0  0  0
   37.5030   28.5910   43.5520 C   0  0  0  0  0  0  0  0  0  0  0  0
   37.7190   27.2790   43.4360 N   0  0  0  0  0  0  0  0  0  0  0  0
   38.2330   26.7790   42.3350 C   0  0  0  0  0  0  0  0  0  0  0  0
   38.5430   27.5730   41.3220 N   0  0  0  0  0  0  0  0  0  0  0  0
   37.7240   30.4390   42.4470 H   0  0  0  0  0  0  0  0  0  0  0  0
   37.0940   29.1570   44.3800 H   0  0  0  0  0  0  0  0  0  0  0  0
   38.4430   25.2860   42.2900 C   0  0  0  0  0  3  0  0  0  0  0  0
   39.2920   24.9840   41.1040 C   0  0  0  0  0  3  0  0  0  0  0  0
   39.5030   25.9020   40.4900 H   0  0  0  0  0  0  0  0  0  0  0  0
   38.8620   23.8330   40.2630 C   0  0  0  0  0  3  0  0  0  0  0  0
   39.4260   22.9020   40.4940 H   0  0  0  0  0  0  0  0  0  0  0  0
   37.5190   23.5760   40.2150 O   0  0  0  0  0  0  0  0  0  0  0  0
   36.7420   24.6180   40.6920 C   0  0  0  0  0  3  0  0  0  0  0  0
   35.6750   24.3740   40.5660 H   0  0  0  0  0  0  0  0  0  0  0  0
   37.0270   24.7080   42.1760 C   0  0  0  0  0  3  0  0  0  0  0  0
   36.2800   25.3840   42.6200 H   0  0  0  0  0  0  0  0  0  0  0  0
  1  2  1  1  0  0  0
  1 27  1  0  0  0  0
  3  1  1  0  0  0  0
  3  8  1  0  0  0  0
  3  4  1  0  0  0  0
  4  9  1  0  0  0  0
  4 10  1  0  0  0  0
  5  6  1  0  0  0  0
  5  4  1  0  0  0  0
  5 12  1  0  0  0  0
  6 13  1  0  0  0  0
  7 15  1  0  0  0  0
  7  6  1  0  0  0  0
  8  7  1  0  0  0  0
  8 16  1  0  0  0  0
 11  5  1  0  0  0  0
 14  7  1  0  0  0  0
 17  8  1  0  0  0  0
 18 19  1  0  0  0  0
 18 24  1  0  0  0  0
 19  1  1  0  0  0  0
 20 25  1  0  0  0  0
 20 19  2  0  0  0  0
 21 20  1  0  0  0  0
 22 21  2  0  0  0  0
 22 23  1  0  0  0  0
 23 18  2  0  0  0  0
 26 22  1  0  0  0  0
 27 29  1  0  0  0  0
 27 30  1  0  0  0  0
 28 27  1  0  0  0  0
 30 35  2  0  0  0  0
 30 31  1  0  0  0  0
 31 36  1  0  0  0  0
 31 32  2  0  0  0  0
 32 37  1  0  0  0  0
 33 32  1  0  0  0  0
 34 33  2  0  0  0  0
 35 34  1  0  0  0  0
 38 34  1  0  0  0  0
 39 38  1  0  0  0  0
 40 39  1  0  0  0  0
 41 42  1  0  0  0  0
 41 39  1  0  0  0  0
 43 41  1  0  0  0  0
 43 44  1  0  0  0  0
 44 46  1  0  0  0  0
 45 44  1  0  0  0  0
 46 38  1  0  0  0  0
 46 47  1  0  0  0  0
M  END
>  <minimizedAffinity>
-5.45762873

$$$$

 OpenBabel03252502403D

 47 50  0  0  1  0  0  0  0  0999 V2000
   36.3830   28.8630   39.2570 C   0  0  1  0  0  0  0  0  0  0  0  0
   37.3210   28.2490   39.1180 H   0  0  0  0  0  0  0  0  0  0  0  0
   35.4740   28.4080   38.2380 N   0  0  0  0  0  0  0  0  0  0  0  0
   35.4720   27.0020   38.0820 C   0  0  0  0  0  0  0  0  0  0  0  0
   34.7870   26.7500   36.7250 C   0  0  0  0  0  0  0  0  0  0  0  0
   33.4040   27.0420   37.0000 N   0  0  0  0  0  0  0  0  0  0  0  0
   33.1860   28.3740   37.4030 C   0  0  0  0  0  0  0  0  0  0  0  0
   34.1850   28.9360   38.4020 C   0  0  0  0  0  0  0  0  0  0  0  0
   36.4950   26.5770   38.0970 H   0  0  0  0  0  0  0  0  0  0  0  0
   34.8300   26.5270   38.8550 H   0  0  0  0  0  0  0  0  0  0  0  0
   35.2150   27.4340   35.9710 H   0  0  0  0  0  0  0  0  0  0  0  0
   34.8930   25.6890   36.4770 H   0  0  0  0  0  0  0  0  0  0  0  0
   33.0500   26.3510   37.6880 H   0  0  0  0  0  0  0  0  0  0  0  0
   33.1990   29.0180   36.4830 H   0  0  0  0  0  0  0  0  0  0  0  0
   32.1420   28.4670   37.7750 H   0  0  0  0  0  0  0  0  0  0  0  0
   33.7860   28.4000   39.3230 H   0  0  0  0  0  0  0  0  0  0  0  0
   33.9750   29.9790   38.3930 H   0  0  0  0  0  0  0  0  0  0  0  0
   36.6480   31.1060   40.3070 C   0  0  0  0  0  0  0  0  0  0  0  0
   36.7360   30.2470   39.2330 C   0  0  0  0  0  0  0  0  0  0  0  0
   37.2180   30.8170   38.0370 C   0  0  0  0  0  0  0  0  0  0  0  0
   37.5610   32.1420   38.0050 N   0  0  0  0  0  0  0  0  0  0  0  0
   37.4430   32.9230   39.1100 C   0  0  0  0  0  0  0  0  0  0  0  0
   36.9850   32.4000   40.2620 N   0  0  0  0  0  0  0  0  0  0  0  0
   36.2880   30.7400   41.2540 H   0  0  0  0  0  0  0  0  0  0  0  0
   37.3380   30.2570   37.1220 H   0  0  0  0  0  0  0  0  0  0  0  0
   37.7370   33.9450   38.9810 H   0  0  0  0  0  0  0  0  0  0  0  0
   35.7830   28.5460   40.6330 C   0  0  0  0  0  0  0  0  0  0  0  0
   35.1320   29.3040   41.0550 H   0  0  0  0  0  0  0  0  0  0  0  0
   35.0030   27.7970   40.2800 H   0  0  0  0  0  0  0  0  0  0  0  0
   36.6760   28.0010   41.6020 C   0  0  0  0  0  0  0  0  0  0  0  0
   36.9620   28.1660   42.9150 C   0  0  0  0  0  0  0  0  0  0  0  0
   37.9090   27.5130   43.6790 C   0  0  0  0  0  0  0  0  0  0  0  0
   38.6320   26.6030   43.0230 N   0  0  0  0  0  0  0  0  0  0  0  0
   38.4240   26.3770   41.7460 C   0  0  0  0  0  0  0  0  0  0  0  0
   37.4910   27.0500   41.0910 N   0  0  0  0  0  0  0  0  0  0  0  0
   36.3160   28.9450   43.3660 H   0  0  0  0  0  0  0  0  0  0  0  0
   37.9530   27.8170   44.7180 H   0  0  0  0  0  0  0  0  0  0  0  0
   39.2860   25.3300   41.0840 C   0  0  0  0  0  3  0  0  0  0  0  0
   38.9210   25.2920   39.6400 C   0  0  0  0  0  3  0  0  0  0  0  0
   38.0580   25.9710   39.4030 H   0  0  0  0  0  0  0  0  0  0  0  0
   38.7520   23.9400   39.0400 C   0  0  0  0  0  3  0  0  0  0  0  0
   39.6560   23.6040   38.4840 H   0  0  0  0  0  0  0  0  0  0  0  0
   38.3110   22.9490   39.8740 O   0  0  0  0  0  0  0  0  0  0  0  0
   37.7820   23.4240   41.0620 C   0  0  0  0  0  3  0  0  0  0  0  0
   37.3900   22.5850   41.6560 H   0  0  0  0  0  0  0  0  0  0  0  0
   38.9410   24.0320   41.8230 C   0  0  0  0  0  3  0  0  0  0  0  0
   38.5980   24.2340   42.8490 H   0  0  0  0  0  0  0  0  0  0  0  0
  1  2  1  6  0  0  0
  1 27  1  0  0  0  0
  3  8  1  0  0  0  0
  3  1  1  0  0  0  0
  4  9  1  0  0  0  0
  4  3  1  0  0  0  0
  4 10  1  0  0  0  0
  5  6  1  0  0  0  0
  5  4  1  0  0  0  0
  6  7  1  0  0  0  0
  6 13  1  0  0  0  0
  7 15  1  0  0  0  0
  7  8  1  0  0  0  0
  8 16  1  0  0  0  0
 11  5  1  0  0  0  0
 12  5  1  0  0  0  0
 14  7  1  0  0  0  0
 17  8  1  0  0  0  0
 18 24  1  0  0  0  0
 19  1  1  0  0  0  0
 19 18  2  0  0  0  0
 20 19  1  0  0  0  0
 21 20  2  0  0  0  0
 21 22  1  0  0  0  0
 22 23  2  0  0  0  0
 23 18  1  0  0  0  0
 25 20  1  0  0  0  0
 26 22  1  0  0  0  0
 27 28  1  0  0  0  0
 27 30  1  0  0  0  0
 29 27  1  0  0  0  0
 30 31  1  0  0  0  0
 31 36  1  0  0  0  0
 31 32  2  0  0  0  0
 32 37  1  0  0  0  0
 33 32  1  0  0  0  0
 34 33  2  0  0  0  0
 35 30  2  0  0  0  0
 35 34  1  0  0  0  0
 38 34  1  0  0  0  0
 38 46  1  0  0  0  0
 39 38  1  0  0  0  0
 40 39  1  0  0  0  0
 41 39  1  0  0  0  0
 41 43  1  0  0  0  0
 42 41  1  0  0  0  0
 43 44  1  0  0  0  0
 44 45  1  0  0  0  0
 44 46  1  0  0  0  0
 46 47  1  0  0  0  0
M  END
>  <minimizedAffinity>
-5.22445297

$$$$

 OpenBabel03252502403D

 47 50  0  0  1  0  0  0  0  0999 V2000
   39.4650   29.8240   42.3580 C   0  0  1  0  0  0  0  0  0  0  0  0
   40.0970   30.4670   43.0400 H   0  0  0  0  0  0  0  0  0  0  0  0
   40.4000   29.0080   41.6280 N   0  0  0  0  0  0  0  0  0  0  0  0
   40.1040   28.9240   40.2470 C   0  0  0  0  0  0  0  0  0  0  0  0
   40.9260   27.7260   39.7330 C   0  0  0  0  0  0  0  0  0  0  0  0
   42.2750   28.2300   39.7410 N   0  0  0  0  0  0  0  0  0  0  0  0
   42.7240   28.6000   41.0230 C   0  0  0  0  0  0  0  0  0  0  0  0
   41.7300   29.3750   41.8750 C   0  0  0  0  0  0  0  0  0  0  0  0
   39.0220   28.7750   40.0580 H   0  0  0  0  0  0  0  0  0  0  0  0
   40.4840   29.8220   39.7130 H   0  0  0  0  0  0  0  0  0  0  0  0
   40.7960   26.8750   40.4250 H   0  0  0  0  0  0  0  0  0  0  0  0
   40.6210   27.5150   38.7030 H   0  0  0  0  0  0  0  0  0  0  0  0
   42.3430   29.0030   39.0520 H   0  0  0  0  0  0  0  0  0  0  0  0
   43.0100   27.6630   41.5720 H   0  0  0  0  0  0  0  0  0  0  0  0
   43.6850   29.1480   40.9190 H   0  0  0  0  0  0  0  0  0  0  0  0
   41.8390   30.3780   41.3490 H   0  0  0  0  0  0  0  0  0  0  0  0
   42.1730   29.3540   42.8430 H   0  0  0  0  0  0  0  0  0  0  0  0
   37.3090   30.3940   41.2480 C   0  0  0  0  0  0  0  0  0  0  0  0
   38.6150   30.6750   41.5860 C   0  0  0  0  0  0  0  0  0  0  0  0
   39.1130   31.9080   41.1180 C   0  0  0  0  0  0  0  0  0  0  0  0
   38.3050   32.7310   40.3810 N   0  0  0  0  0  0  0  0  0  0  0  0
   37.0260   32.3790   40.0880 C   0  0  0  0  0  0  0  0  0  0  0  0
   36.5310   31.2070   40.5250 N   0  0  0  0  0  0  0  0  0  0  0  0
   36.8620   29.4700   41.5720 H   0  0  0  0  0  0  0  0  0  0  0  0
   40.1170   32.2520   41.3120 H   0  0  0  0  0  0  0  0  0  0  0  0
   36.4770   33.0910   39.5060 H   0  0  0  0  0  0  0  0  0  0  0  0
   38.5790   28.9140   43.2170 C   0  0  0  0  0  0  0  0  0  0  0  0
   38.3730   29.2620   44.2240 H   0  0  0  0  0  0  0  0  0  0  0  0
   37.5880   29.1670   42.7190 H   0  0  0  0  0  0  0  0  0  0  0  0
   38.8780   27.5200   43.1790 C   0  0  0  0  0  0  0  0  0  0  0  0
   39.8100   26.6750   43.6790 C   0  0  0  0  0  0  0  0  0  0  0  0
   39.9190   25.3090   43.5020 C   0  0  0  0  0  0  0  0  0  0  0  0
   38.9740   24.7650   42.7310 N   0  0  0  0  0  0  0  0  0  0  0  0
   38.0310   25.5090   42.2020 C   0  0  0  0  0  0  0  0  0  0  0  0
   38.0030   26.8140   42.4280 N   0  0  0  0  0  0  0  0  0  0  0  0
   40.5510   27.2210   44.2960 H   0  0  0  0  0  0  0  0  0  0  0  0
   40.7570   24.8440   44.0070 H   0  0  0  0  0  0  0  0  0  0  0  0
   37.0030   24.8120   41.3460 C   0  0  0  0  0  3  0  0  0  0  0  0
   37.5060   23.4370   41.0650 C   0  0  0  0  0  3  0  0  0  0  0  0
   38.5390   23.2730   41.4750 H   0  0  0  0  0  0  0  0  0  0  0  0
   37.3770   22.9640   39.6600 C   0  0  0  0  0  3  0  0  0  0  0  0
   36.4850   22.3160   39.5080 H   0  0  0  0  0  0  0  0  0  0  0  0
   37.4430   23.9200   38.6820 O   0  0  0  0  0  0  0  0  0  0  0  0
   37.9410   25.1310   39.1290 C   0  0  0  0  0  3  0  0  0  0  0  0
   38.0270   25.8320   38.2840 H   0  0  0  0  0  0  0  0  0  0  0  0
   36.9060   25.6820   40.0870 C   0  0  0  0  0  3  0  0  0  0  0  0
   37.1720   26.7280   40.3010 H   0  0  0  0  0  0  0  0  0  0  0  0
  1  2  1  1  0  0  0
  1 27  1  0  0  0  0
  3  8  1  0  0  0  0
  3  1  1  0  0  0  0
  4  3  1  0  0  0  0
  5  6  1  0  0  0  0
  5  4  1  0  0  0  0
  5 11  1  0  0  0  0
  6  7  1  0  0  0  0
  7 14  1  0  0  0  0
  7  8  1  0  0  0  0
  8 17  1  0  0  0  0
  9  4  1  0  0  0  0
 10  4  1  0  0  0  0
 12  5  1  0  0  0  0
 13  6  1  0  0  0  0
 15  7  1  0  0  0  0
 16  8  1  0  0  0  0
 18 24  1  0  0  0  0
 18 19  1  0  0  0  0
 19  1  1  0  0  0  0
 20 25  1  0  0  0  0
 20 19  2  0  0  0  0
 21 20  1  0  0  0  0
 22 21  2  0  0  0  0
 22 23  1  0  0  0  0
 23 18  2  0  0  0  0
 26 22  1  0  0  0  0
 27 28  1  0  0  0  0
 29 27  1  0  0  0  0
 30 27  1  0  0  0  0
 30 31  1  0  0  0  0
 31 36  1  0  0  0  0
 32 31  2  0  0  0  0
 32 37  1  0  0  0  0
 33 32  1  0  0  0  0
 34 35  1  0  0  0  0
 34 33  2  0  0  0  0
 35 30  2  0  0  0  0
 38 34  1  0  0  0  0
 39 38  1  0  0  0  0
 39 40  1  0  0  0  0
 41 39  1  0  0  0  0
 42 41  1  0  0  0  0
 43 44  1  0  0  0  0
 43 41  1  0  0  0  0
 44 46  1  0  0  0  0
 45 44  1  0  0  0  0
 46 47  1  0  0  0  0
 46 38  1  0  0  0  0
M  END
>  <minimizedAffinity>
-5.22119331

$$$$

 OpenBabel03252502403D

 47 50  0  0  1  0  0  0  0  0999 V2000
   36.7530   27.2650   41.8650 C   0  0  1  0  0  0  0  0  0  0  0  0
   35.6410   27.1160   42.0030 H   0  0  0  0  0  0  0  0  0  0  0  0
   36.8820   28.4020   40.9930 N   0  0  0  0  0  0  0  0  0  0  0  0
   36.1720   28.2540   39.7780 C   0  0  0  0  0  0  0  0  0  0  0  0
   36.7460   29.3360   38.8440 C   0  0  0  0  0  0  0  0  0  0  0  0
   36.2020   30.5550   39.3850 N   0  0  0  0  0  0  0  0  0  0  0  0
   36.6080   30.8060   40.7090 C   0  0  0  0  0  0  0  0  0  0  0  0
   36.5900   29.6080   41.6470 C   0  0  0  0  0  0  0  0  0  0  0  0
   36.2960   27.2430   39.3410 H   0  0  0  0  0  0  0  0  0  0  0  0
   35.0970   28.4980   39.9250 H   0  0  0  0  0  0  0  0  0  0  0  0
   37.8490   29.3130   38.8980 H   0  0  0  0  0  0  0  0  0  0  0  0
   36.3440   29.1720   37.8390 H   0  0  0  0  0  0  0  0  0  0  0  0
   35.1700   30.5330   39.2780 H   0  0  0  0  0  0  0  0  0  0  0  0
   37.6520   31.2190   40.6770 H   0  0  0  0  0  0  0  0  0  0  0  0
   36.0050   31.6470   41.1140 H   0  0  0  0  0  0  0  0  0  0  0  0
   35.4640   29.5660   41.8070 H   0  0  0  0  0  0  0  0  0  0  0  0
   37.1270   29.9570   42.4960 H   0  0  0  0  0  0  0  0  0  0  0  0
   36.9780   24.7840   41.8700 C   0  0  0  0  0  0  0  0  0  0  0  0
   37.3240   26.0360   41.4100 C   0  0  0  0  0  0  0  0  0  0  0  0
   38.3200   26.0650   40.4130 C   0  0  0  0  0  0  0  0  0  0  0  0
   38.8710   24.8930   39.9690 N   0  0  0  0  0  0  0  0  0  0  0  0
   38.4750   23.6960   40.4760 C   0  0  0  0  0  0  0  0  0  0  0  0
   37.5260   23.6460   41.4280 N   0  0  0  0  0  0  0  0  0  0  0  0
   36.2240   24.6850   42.6320 H   0  0  0  0  0  0  0  0  0  0  0  0
   38.6820   26.9770   39.9650 H   0  0  0  0  0  0  0  0  0  0  0  0
   38.9670   22.8390   40.0630 H   0  0  0  0  0  0  0  0  0  0  0  0
   37.3780   27.6090   43.2230 C   0  0  0  0  0  0  0  0  0  0  0  0
   36.9850   28.4910   43.7190 H   0  0  0  0  0  0  0  0  0  0  0  0
   36.8570   26.8000   43.8300 H   0  0  0  0  0  0  0  0  0  0  0  0
   38.8000   27.5340   43.3030 C   0  0  0  0  0  0  0  0  0  0  0  0
   39.7430   26.6320   43.6630 C   0  0  0  0  0  0  0  0  0  0  0  0
   41.1170   26.7790   43.6710 C   0  0  0  0  0  0  0  0  0  0  0  0
   41.5580   27.9730   43.2710 N   0  0  0  0  0  0  0  0  0  0  0  0
   40.7140   28.9100   42.9040 C   0  0  0  0  0  0  0  0  0  0  0  0
   39.4100   28.6810   42.9260 N   0  0  0  0  0  0  0  0  0  0  0  0
   39.2790   25.6790   43.9860 H   0  0  0  0  0  0  0  0  0  0  0  0
   41.6710   25.9090   44.0030 H   0  0  0  0  0  0  0  0  0  0  0  0
   41.2980   30.2300   42.4650 C   0  0  0  0  0  3  0  0  0  0  0  0
   40.1710   31.1880   42.2870 C   0  0  0  0  0  3  0  0  0  0  0  0
   39.1710   30.6970   42.4370 H   0  0  0  0  0  0  0  0  0  0  0  0
   40.2070   32.0250   41.0580 C   0  0  0  0  0  3  0  0  0  0  0  0
   40.6120   33.0440   41.2470 H   0  0  0  0  0  0  0  0  0  0  0  0
   40.8040   31.4730   39.9560 O   0  0  0  0  0  0  0  0  0  0  0  0
   40.9930   30.1060   40.0600 C   0  0  0  0  0  3  0  0  0  0  0  0
   41.4160   29.7170   39.1210 H   0  0  0  0  0  0  0  0  0  0  0  0
   42.0210   29.9050   41.1530 C   0  0  0  0  0  3  0  0  0  0  0  0
   42.3430   28.8540   41.1210 H   0  0  0  0  0  0  0  0  0  0  0  0
  1  2  1  1  0  0  0
  1 27  1  0  0  0  0
  3  8  1  0  0  0  0
  3  1  1  0  0  0  0
  4 10  1  0  0  0  0
  4  3  1  0  0  0  0
  5 11  1  0  0  0  0
  5  6  1  0  0  0  0
  5  4  1  0  0  0  0
  6  7  1  0  0  0  0
  7 15  1  0  0  0  0
  7  8  1  0  0  0  0
  8 16  1  0  0  0  0
  8 17  1  0  0  0  0
  9  4  1  0  0  0  0
 12  5  1  0  0  0  0
 13  6  1  0  0  0  0
 14  7  1  0  0  0  0
 18 24  1  0  0  0  0
 19  1  1  0  0  0  0
 19 18  2  0  0  0  0
 20 19  1  0  0  0  0
 21 20  2  0  0  0  0
 21 22  1  0  0  0  0
 22 23  2  0  0  0  0
 23 18  1  0  0  0  0
 25 20  1  0  0  0  0
 26 22  1  0  0  0  0
 27 30  1  0  0  0  0
 27 28  1  0  0  0  0
 27 29  1  0  0  0  0
 30 31  1  0  0  0  0
 31 32  2  0  0  0  0
 31 36  1  0  0  0  0
 32 37  1  0  0  0  0
 33 32  1  0  0  0  0
 34 35  1  0  0  0  0
 34 33  2  0  0  0  0
 35 30  2  0  0  0  0
 38 34  1  0  0  0  0
 39 40  1  0  0  0  0
 39 38  1  0  0  0  0
 41 42  1  0  0  0  0
 41 39  1  0  0  0  0
 43 44  1  0  0  0  0
 43 41  1  0  0  0  0
 44 46  1  0  0  0  0
 45 44  1  0  0  0  0
 46 38  1  0  0  0  0
 47 46  1  0  0  0  0
M  END
>  <minimizedAffinity>
-5.21758032

$$$$

 OpenBabel03252502403D

 47 50  0  0  1  0  0  0  0  0999 V2000
   37.0430   29.9060   38.8310 C   0  0  1  0  0  0  0  0  0  0  0  0
   36.3350   29.8130   39.7070 H   0  0  0  0  0  0  0  0  0  0  0  0
   37.6350   31.2120   38.9540 N   0  0  0  0  0  0  0  0  0  0  0  0
   37.0940   31.9690   40.0200 C   0  0  0  0  0  0  0  0  0  0  0  0
   37.5320   33.4200   39.7430 C   0  0  0  0  0  0  0  0  0  0  0  0
   38.9390   33.4000   40.0480 N   0  0  0  0  0  0  0  0  0  0  0  0
   39.6730   32.5180   39.2320 C   0  0  0  0  0  0  0  0  0  0  0  0
   39.0360   31.1580   38.9850 C   0  0  0  0  0  0  0  0  0  0  0  0
   35.9900   31.8890   40.0730 H   0  0  0  0  0  0  0  0  0  0  0  0
   37.5640   31.6750   40.9830 H   0  0  0  0  0  0  0  0  0  0  0  0
   37.3390   33.6600   38.6810 H   0  0  0  0  0  0  0  0  0  0  0  0
   37.0150   34.0770   40.4490 H   0  0  0  0  0  0  0  0  0  0  0  0
   39.0550   33.2020   41.0590 H   0  0  0  0  0  0  0  0  0  0  0  0
   39.8360   33.0210   38.2410 H   0  0  0  0  0  0  0  0  0  0  0  0
   40.6980   32.4170   39.6480 H   0  0  0  0  0  0  0  0  0  0  0  0
   39.2700   30.7020   40.0010 H   0  0  0  0  0  0  0  0  0  0  0  0
   39.6230   30.7560   38.1940 H   0  0  0  0  0  0  0  0  0  0  0  0
   36.8170   29.7920   36.3530 C   0  0  0  0  0  0  0  0  0  0  0  0
   36.3180   29.6390   37.6290 C   0  0  0  0  0  0  0  0  0  0  0  0
   34.9880   29.1800   37.7110 C   0  0  0  0  0  0  0  0  0  0  0  0
   34.2870   28.9190   36.5650 N   0  0  0  0  0  0  0  0  0  0  0  0
   34.8510   29.0970   35.3420 C   0  0  0  0  0  0  0  0  0  0  0  0
   36.1200   29.5340   35.2400 N   0  0  0  0  0  0  0  0  0  0  0  0
   37.8260   30.1380   36.2130 H   0  0  0  0  0  0  0  0  0  0  0  0
   34.4760   29.0160   38.6470 H   0  0  0  0  0  0  0  0  0  0  0  0
   34.2200   28.8660   34.5080 H   0  0  0  0  0  0  0  0  0  0  0  0
   38.1440   28.8480   38.9720 C   0  0  0  0  0  0  0  0  0  0  0  0
   38.5940   28.5010   38.0470 H   0  0  0  0  0  0  0  0  0  0  0  0
   38.9660   29.5440   39.3360 H   0  0  0  0  0  0  0  0  0  0  0  0
   37.8820   27.7770   39.8780 C   0  0  0  0  0  0  0  0  0  0  0  0
   37.1180   26.6610   39.9240 C   0  0  0  0  0  0  0  0  0  0  0  0
   37.0070   25.7350   40.9440 C   0  0  0  0  0  0  0  0  0  0  0  0
   37.7550   25.9900   42.0190 N   0  0  0  0  0  0  0  0  0  0  0  0
   38.5260   27.0520   42.0620 C   0  0  0  0  0  0  0  0  0  0  0  0
   38.5720   27.8870   41.0360 N   0  0  0  0  0  0  0  0  0  0  0  0
   36.5310   26.5420   38.9920 H   0  0  0  0  0  0  0  0  0  0  0  0
   36.3260   24.9150   40.7490 H   0  0  0  0  0  0  0  0  0  0  0  0
   39.3390   27.2620   43.3160 C   0  0  0  0  0  3  0  0  0  0  0  0
   40.4400   28.2100   42.9880 C   0  0  0  0  0  3  0  0  0  0  0  0
   40.4590   28.4750   41.8960 H   0  0  0  0  0  0  0  0  0  0  0  0
   41.7910   27.8520   43.5020 C   0  0  0  0  0  3  0  0  0  0  0  0
   42.0470   28.3920   44.4410 H   0  0  0  0  0  0  0  0  0  0  0  0
   42.0640   26.5170   43.6310 O   0  0  0  0  0  0  0  0  0  0  0  0
   41.1670   25.7040   42.9610 C   0  0  0  0  0  3  0  0  0  0  0  0
   41.4790   24.6520   43.0520 H   0  0  0  0  0  0  0  0  0  0  0  0
   39.8430   25.8600   43.6800 C   0  0  0  0  0  3  0  0  0  0  0  0
   39.1640   25.0800   43.3040 H   0  0  0  0  0  0  0  0  0  0  0  0
  1  3  1  0  0  0  0
  1 27  1  0  0  0  0
  1  2  1  1  0  0  0
  3  8  1  0  0  0  0
  3  4  1  0  0  0  0
  4  9  1  0  0  0  0
  4 10  1  0  0  0  0
  5  4  1  0  0  0  0
  5  6  1  0  0  0  0
  5 12  1  0  0  0  0
  6 13  1  0  0  0  0
  7 15  1  0  0  0  0
  7  6  1  0  0  0  0
  8  7  1  0  0  0  0
  8 16  1  0  0  0  0
 11  5  1  0  0  0  0
 14  7  1  0  0  0  0
 17  8  1  0  0  0  0
 18 19  1  0  0  0  0
 19 20  2  0  0  0  0
 19  1  1  0  0  0  0
 20 25  1  0  0  0  0
 21 20  1  0  0  0  0
 22 21  2  0  0  0  0
 23 22  1  0  0  0  0
 23 18  2  0  0  0  0
 24 18  1  0  0  0  0
 26 22  1  0  0  0  0
 27 29  1  0  0  0  0
 27 30  1  0  0  0  0
 28 27  1  0  0  0  0
 30 31  2  0  0  0  0
 30 35  1  0  0  0  0
 31 32  1  0  0  0  0
 32 33  2  0  0  0  0
 33 34  1  0  0  0  0
 34 38  1  0  0  0  0
 35 34  2  0  0  0  0
 36 31  1  0  0  0  0
 37 32  1  0  0  0  0
 38 46  1  0  0  0  0
 39 38  1  0  0  0  0
 39 41  1  0  0  0  0
 40 39  1  0  0  0  0
 41 43  1  0  0  0  0
 41 42  1  0  0  0  0
 44 45  1  0  0  0  0
 44 43  1  0  0  0  0
 44 46  1  0  0  0  0
 47 46  1  0  0  0  0
M  END
>  <minimizedAffinity>
-5.1887064

$$$$

 OpenBabel03252502403D

 47 50  0  0  1  0  0  0  0  0999 V2000
   37.8180   29.6940   40.2430 C   0  0  1  0  0  0  0  0  0  0  0  0
   38.4740   29.3430   39.3920 H   0  0  0  0  0  0  0  0  0  0  0  0
   37.9890   31.1220   40.2940 N   0  0  0  0  0  0  0  0  0  0  0  0
   39.2890   31.5400   39.9250 C   0  0  0  0  0  0  0  0  0  0  0  0
   39.3990   32.9940   40.4240 C   0  0  0  0  0  0  0  0  0  0  0  0
   38.5590   33.7170   39.5050 N   0  0  0  0  0  0  0  0  0  0  0  0
   37.2130   33.3040   39.5380 C   0  0  0  0  0  0  0  0  0  0  0  0
   36.9830   31.8010   39.5920 C   0  0  0  0  0  0  0  0  0  0  0  0
   40.0770   30.9030   40.3750 H   0  0  0  0  0  0  0  0  0  0  0  0
   39.3860   31.5760   38.8180 H   0  0  0  0  0  0  0  0  0  0  0  0
   39.0260   33.0490   41.4620 H   0  0  0  0  0  0  0  0  0  0  0  0
   40.4370   33.3210   40.3050 H   0  0  0  0  0  0  0  0  0  0  0  0
   38.9760   33.6560   38.5570 H   0  0  0  0  0  0  0  0  0  0  0  0
   36.7310   33.7720   40.4370 H   0  0  0  0  0  0  0  0  0  0  0  0
   36.6780   33.7670   38.6810 H   0  0  0  0  0  0  0  0  0  0  0  0
   37.2140   31.5800   38.5000 H   0  0  0  0  0  0  0  0  0  0  0  0
   35.9490   31.7240   39.8310 H   0  0  0  0  0  0  0  0  0  0  0  0
   37.4350   28.9420   42.5870 C   0  0  0  0  0  0  0  0  0  0  0  0
   38.1680   28.9620   41.4200 C   0  0  0  0  0  0  0  0  0  0  0  0
   39.3450   28.1870   41.4270 C   0  0  0  0  0  0  0  0  0  0  0  0
   39.6870   27.4810   42.5480 N   0  0  0  0  0  0  0  0  0  0  0  0
   38.9100   27.5150   43.6620 C   0  0  0  0  0  0  0  0  0  0  0  0
   37.7820   28.2470   43.6770 N   0  0  0  0  0  0  0  0  0  0  0  0
   36.5240   29.5100   42.6540 H   0  0  0  0  0  0  0  0  0  0  0  0
   40.0100   28.1130   40.5800 H   0  0  0  0  0  0  0  0  0  0  0  0
   39.2640   26.9290   44.4860 H   0  0  0  0  0  0  0  0  0  0  0  0
   36.3560   29.3810   39.9020 C   0  0  0  0  0  0  0  0  0  0  0  0
   35.6540   29.4210   40.7290 H   0  0  0  0  0  0  0  0  0  0  0  0
   36.1120   30.3700   39.3960 H   0  0  0  0  0  0  0  0  0  0  0  0
   36.1290   28.2550   39.0570 C   0  0  0  0  0  0  0  0  0  0  0  0
   35.7330   28.0120   37.7860 C   0  0  0  0  0  0  0  0  0  0  0  0
   35.5680   26.7950   37.1530 C   0  0  0  0  0  0  0  0  0  0  0  0
   35.8350   25.7270   37.9070 N   0  0  0  0  0  0  0  0  0  0  0  0
   36.2250   25.8680   39.1530 C   0  0  0  0  0  0  0  0  0  0  0  0
   36.3590   27.0760   39.6800 N   0  0  0  0  0  0  0  0  0  0  0  0
   35.5290   28.9580   37.2460 H   0  0  0  0  0  0  0  0  0  0  0  0
   35.2400   26.8530   36.1220 H   0  0  0  0  0  0  0  0  0  0  0  0
   36.5070   24.6080   39.9330 C   0  0  0  0  0  3  0  0  0  0  0  0
   36.8870   25.0070   41.3170 C   0  0  0  0  0  3  0  0  0  0  0  0
   36.9540   26.1230   41.4320 H   0  0  0  0  0  0  0  0  0  0  0  0
   38.0650   24.3110   41.9020 C   0  0  0  0  0  3  0  0  0  0  0  0
   37.7750   23.4730   42.5750 H   0  0  0  0  0  0  0  0  0  0  0  0
   39.0350   23.9040   41.0270 O   0  0  0  0  0  0  0  0  0  0  0  0
   38.9270   24.4860   39.7760 C   0  0  0  0  0  3  0  0  0  0  0  0
   39.7700   24.1670   39.1430 H   0  0  0  0  0  0  0  0  0  0  0  0
   37.6540   23.9370   39.1670 C   0  0  0  0  0  3  0  0  0  0  0  0
   37.6440   24.2180   38.1030 H   0  0  0  0  0  0  0  0  0  0  0  0
  1  2  1  6  0  0  0
  1  3  1  0  0  0  0
  1 19  1  0  0  0  0
  4  3  1  0  0  0  0
  4  9  1  0  0  0  0
  4  5  1  0  0  0  0
  5 11  1  0  0  0  0
  6  7  1  0  0  0  0
  6  5  1  0  0  0  0
  7  8  1  0  0  0  0
  7 14  1  0  0  0  0
  8 17  1  0  0  0  0
  8  3  1  0  0  0  0
 10  4  1  0  0  0  0
 12  5  1  0  0  0  0
 13  6  1  0  0  0  0
 15  7  1  0  0  0  0
 16  8  1  0  0  0  0
 18 24  1  0  0  0  0
 18 23  1  0  0  0  0
 19 20  1  0  0  0  0
 19 18  2  0  0  0  0
 20 21  2  0  0  0  0
 21 22  1  0  0  0  0
 22 23  2  0  0  0  0
 22 26  1  0  0  0  0
 25 20  1  0  0  0  0
 27  1  1  0  0  0  0
 27 28  1  0  0  0  0
 29 27  1  0  0  0  0
 30 35  1  0  0  0  0
 30 27  1  0  0  0  0
 31 30  2  0  0  0  0
 32 31  1  0  0  0  0
 32 33  2  0  0  0  0
 33 34  1  0  0  0  0
 34 35  2  0  0  0  0
 34 38  1  0  0  0  0
 36 31  1  0  0  0  0
 37 32  1  0  0  0  0
 38 39  1  0  0  0  0
 39 40  1  0  0  0  0
 39 41  1  0  0  0  0
 41 42  1  0  0  0  0
 43 41  1  0  0  0  0
 44 43  1  0  0  0  0
 45 44  1  0  0  0  0
 46 44  1  0  0  0  0
 46 38  1  0  0  0  0
 47 46  1  0  0  0  0
M  END
>  <minimizedAffinity>
-5.18053055

$$$$
