
 OpenBabel03252506473D

 43 46  0  0  1  0  0  0  0  0999 V2000
   49.3770   33.3890   41.3720 N   0  0  1  0  0  0  0  0  0  0  0  0
   50.6500   33.0920   42.0130 C   0  0  0  0  0  0  0  0  0  0  0  0
   51.2280   31.7730   41.5940 C   0  0  0  0  0  0  0  0  0  0  0  0
   50.3400   30.6690   42.1490 C   0  0  0  0  0  0  0  0  0  0  0  0
   48.8890   31.0770   42.0760 C   0  0  0  0  0  0  0  0  0  0  0  0
   48.7240   32.1660   41.0430 C   0  0  2  0  0  0  0  0  0  0  0  0
   50.5770   33.0820   43.1150 H   0  0  0  0  0  0  0  0  0  0  0  0
   51.3600   33.9040   41.7380 H   0  0  0  0  0  0  0  0  0  0  0  0
   52.2250   31.7040   42.0680 H   0  0  0  0  0  0  0  0  0  0  0  0
   51.3480   31.6850   40.4890 H   0  0  0  0  0  0  0  0  0  0  0  0
   50.6530   30.3540   43.1570 H   0  0  0  0  0  0  0  0  0  0  0  0
   50.4990   29.7980   41.4800 H   0  0  0  0  0  0  0  0  0  0  0  0
   48.2170   30.2520   41.8770 H   0  0  0  0  0  0  0  0  0  0  0  0
   48.6360   31.5260   43.0710 H   0  0  0  0  0  0  0  0  0  0  0  0
   47.6270   32.3960   41.0140 H   0  0  0  0  0  0  0  0  0  0  0  0
   47.2770   34.7410   41.9890 C   0  0  1  0  0  0  0  0  0  0  0  0
   48.4090   35.6340   41.7710 C   0  0  0  0  0  0  0  0  0  0  0  0
   48.6800   34.2540   42.2700 C   0  0  2  0  0  0  0  0  0  0  0  0
   46.8170   34.1790   41.1320 H   0  0  0  0  0  0  0  0  0  0  0  0
   48.6960   35.8870   40.7250 H   0  0  0  0  0  0  0  0  0  0  0  0
   48.5550   36.4900   42.4730 H   0  0  0  0  0  0  0  0  0  0  0  0
   48.9370   34.1590   43.3440 H   0  0  0  0  0  0  0  0  0  0  0  0
   45.5290   36.0930   43.1720 C   0  0  0  0  0  0  0  0  0  0  0  0
   46.3500   34.9410   43.1100 C   0  0  0  0  0  0  0  0  0  0  0  0
   46.2350   34.0180   44.1480 C   0  0  0  0  0  0  0  0  0  0  0  0
   45.3540   34.2760   45.1430 N   0  0  0  0  0  0  0  0  0  0  0  0
   44.5870   35.3720   45.1830 C   0  0  0  0  0  0  0  0  0  0  0  0
   44.6650   36.2980   44.1940 N   0  0  0  0  0  0  0  0  0  0  0  0
   45.5950   36.8400   42.3700 H   0  0  0  0  0  0  0  0  0  0  0  0
   46.8480   33.1150   44.1400 H   0  0  0  0  0  0  0  0  0  0  0  0
   43.8810   35.5840   45.9760 H   0  0  0  0  0  0  0  0  0  0  0  0
   49.0660   31.6760   39.7420 N   0  0  0  0  0  0  0  0  0  0  0  0
   50.0100   32.0260   39.4810 H   0  0  0  0  0  0  0  0  0  0  0  0
   48.0780   31.7330   38.7560 C   0  0  0  0  0  3  0  0  0  0  0  0
   48.7220   31.3480   37.4230 C   0  0  0  0  0  3  0  0  0  0  0  0
   47.9630   31.0170   36.7060 H   0  0  0  0  0  0  0  0  0  0  0  0
   49.4190   32.5610   36.8110 C   0  0  0  0  0  3  0  0  0  0  0  0
   49.7850   32.2490   35.8180 H   0  0  0  0  0  0  0  0  0  0  0  0
   48.5500   33.6370   36.6380 O   0  0  0  0  0  0  0  0  0  0  0  0
   48.2250   34.0990   37.9220 C   0  0  0  0  0  3  0  0  0  0  0  0
   49.1160   34.3280   38.5340 H   0  0  0  0  0  0  0  0  0  0  0  0
   47.3570   33.0150   38.5460 C   0  0  0  0  0  3  0  0  0  0  0  0
   46.5760   32.7990   37.7680 H   0  0  0  0  0  0  0  0  0  0  0  0
  1  2  1  1  0  0  0
  1 18  1  0  0  0  0
  2  7  1  0  0  0  0
  3  2  1  0  0  0  0
  3  9  1  0  0  0  0
  3  4  1  0  0  0  0
  4 11  1  0  0  0  0
  5  4  1  0  0  0  0
  5 14  1  0  0  0  0
  6 15  1  6  0  0  0
  6  1  1  0  0  0  0
  6  5  1  0  0  0  0
  8  2  1  0  0  0  0
 10  3  1  0  0  0  0
 12  4  1  0  0  0  0
 13  5  1  0  0  0  0
 16 19  1  6  0  0  0
 16 18  1  0  0  0  0
 16 24  1  0  0  0  0
 17 16  1  0  0  0  0
 17 18  1  0  0  0  0
 17 21  1  0  0  0  0
 18 22  1  1  0  0  0
 20 17  1  0  0  0  0
 23 28  1  0  0  0  0
 24 23  2  0  0  0  0
 24 25  1  0  0  0  0
 25 26  2  0  0  0  0
 26 27  1  0  0  0  0
 27 31  1  0  0  0  0
 28 27  2  0  0  0  0
 29 23  1  0  0  0  0
 30 25  1  0  0  0  0
 32  6  1  0  0  0  0
 33 32  1  0  0  0  0
 34 32  1  0  0  0  0
 35 34  1  0  0  0  0
 36 35  1  0  0  0  0
 37 35  1  0  0  0  0
 38 37  1  0  0  0  0
 39 37  1  0  0  0  0
 39 40  1  0  0  0  0
 40 41  1  0  0  0  0
 40 42  1  0  0  0  0
 42 34  1  0  0  0  0
 43 42  1  0  0  0  0
M  END
>  <minimizedAffinity>
-5.16025639

>  <minimizedRMSD>
1.73366404

$$$$
