
     RDKit          3D

 47 50  0  0  0  0  0  0  0  0999 V2000
   45.1279   33.9362   40.7041 C   0  0  0  0  0  0  0  0  0  0  0  0
   44.0765   33.6353   39.8786 C   0  0  0  0  0  0  0  0  0  0  0  0
   44.3761   33.1604   38.6348 C   0  0  0  0  0  0  0  0  0  0  0  0
   45.6629   32.9701   38.1718 C   0  0  0  0  0  0  0  0  0  0  0  0
   46.6880   33.2837   39.0301 C   0  0  0  0  0  0  0  0  0  0  0  0
   46.4476   33.7641   40.2901 C   0  0  0  0  0  0  0  0  0  0  0  0
   40.7992   35.2656   40.7885 C   0  0  0  0  0  0  0  0  0  0  0  0
   42.0959   35.0915   40.2753 C   0  0  0  0  0  0  0  0  0  0  0  0
   42.7417   33.8469   40.3963 C   0  0  0  0  0  0  0  0  0  0  0  0
   42.0342   32.8854   41.0198 N   0  0  0  0  0  0  0  0  0  0  0  0
   40.8046   33.0625   41.5025 C   0  0  0  0  0  0  0  0  0  0  0  0
   40.1892   34.2509   41.3864 N   0  0  0  0  0  0  0  0  0  0  0  0
   40.1916   36.5206   40.6473 N   0  0  0  0  0  0  0  0  0  0  0  0
   47.6070   34.0661   41.1217 C   0  0  0  0  0  0  0  0  0  0  0  0
   48.1389   35.3334   40.9450 C   0  0  0  0  0  0  0  0  0  0  0  0
   49.2457   35.8036   41.6490 C   0  0  0  0  0  0  0  0  0  0  0  0
   49.8286   34.9585   42.5602 C   0  0  0  0  0  0  0  0  0  0  0  0
   49.3009   33.6883   42.7418 C   0  0  0  0  0  0  0  0  0  0  0  0
   48.2067   33.2318   42.0417 C   0  0  0  0  0  0  0  0  0  0  0  0
   44.7197   34.8612   43.1120 N   0  0  0  0  0  0  0  0  0  0  0  0
   44.9021   34.4407   42.0278 C   0  0  0  0  0  0  0  0  0  0  0  0
   43.5566   32.9182   37.9708 H   0  0  0  0  0  0  0  0  0  0  0  0
   45.8256   32.5874   37.1670 H   0  0  0  0  0  0  0  0  0  0  0  0
   47.6946   33.1269   38.6469 H   0  0  0  0  0  0  0  0  0  0  0  0
   42.6182   35.9151   39.7780 H   0  0  0  0  0  0  0  0  0  0  0  0
   40.2543   32.2692   42.0023 H   0  0  0  0  0  0  0  0  0  0  0  0
   39.3764   36.7041   40.0128 H   0  0  0  0  0  0  0  0  0  0  0  0
   40.7398   37.1317   41.2918 H   0  0  0  0  0  0  0  0  0  0  0  0
   47.7261   36.0536   40.2395 H   0  0  0  0  0  0  0  0  0  0  0  0
   49.6409   36.7966   41.4925 H   0  0  0  0  0  0  0  0  0  0  0  0
   50.6964   35.3077   43.1219 H   0  0  0  0  0  0  0  0  0  0  0  0
   49.7634   33.0481   43.4497 H   0  0  0  0  0  0  0  0  0  0  0  0
   47.6086   31.8940   42.1972 C   0  0  1  0  0  0  0  0  0  0  0  0
   46.0937   31.9106   42.2778 C   0  0  2  0  0  0  0  0  0  0  0  0
   45.6457   32.4933   41.4425 H   0  0  0  0  0  0  0  0  0  0  0  0
   45.6823   30.4491   42.0529 C   0  0  1  0  0  0  0  0  0  0  0  0
   46.4455   29.7474   42.4532 H   0  0  0  0  0  0  0  0  0  0  0  0
   45.6915   30.2626   40.6588 O   0  0  0  0  0  0  0  0  0  0  0  0
   46.8150   30.7922   40.0735 C   0  0  2  0  0  0  0  0  0  0  0  0
   46.5617   31.6640   39.4452 H   0  0  0  0  0  0  0  0  0  0  0  0
   47.9603   31.0039   41.0194 C   0  0  1  0  0  0  0  0  0  0  0  0
   48.7977   31.4436   40.4420 H   0  0  0  0  0  0  0  0  0  0  0  0
   47.9380   31.4169   43.1465 H   0  0  0  0  0  0  0  0  0  0  0  0
   45.7057   32.2056   43.2695 H   0  0  0  0  0  0  0  0  0  0  0  0
   44.6843   30.2470   42.4609 H   0  0  0  0  0  0  0  0  0  0  0  0
   47.1778   30.0240   39.3430 H   0  0  0  0  0  0  0  0  0  0  0  0
   48.3125   30.0081   41.3571 H   0  0  0  0  0  0  0  0  0  0  0  0
  1 21  1  0
  2  9  1  0
  2  1  2  0
  3  2  1  0
  4  3  2  0
  4  5  1  0
  5  6  2  0
  6  1  1  0
  6 14  1  0
  7 12  2  0
  8  9  2  0
  8  7  1  0
  9 10  1  0
 10 11  2  0
 12 11  1  0
 13  7  1  0
 14 19  1  0
 15 14  2  0
 15 16  1  0
 16 17  2  0
 17 18  1  0
 19 18  2  0
 21 20  3  0
  3 22  1  0
  4 23  1  0
  5 24  1  0
  8 25  1  0
 11 26  1  0
 13 27  1  0
 13 28  1  0
 15 29  1  0
 16 30  1  0
 17 31  1  0
 18 32  1  0
 33 34  1  0
 34 35  1  6
 34 36  1  0
 36 37  1  1
 36 38  1  0
 38 39  1  0
 39 40  1  6
 39 41  1  0
 41 42  1  6
 41 33  1  0
 33 43  1  1
 34 44  1  0
 36 45  1  0
 39 46  1  0
 41 47  1  0
 19 33  1  0
M  ISO  8  22  14  23  14  24  14  25  14  26  14  29  14  30  14  31  14
M  ISO  5  32  14  35  15  37  15  40  15  42  15
M  END
>  <DihAtoms>  (1) 
13,18,32,33

>  <DihDeg>  (1) 
90.22743501730058

$$$$
