
 OpenBabel03242520343D

 29 31  0  0  1  0  0  0  0  0999 V2000
   36.5590   30.1620   41.3340 C   0  0  0  0  0  0  0  0  0  0  0  0
   37.5650   31.1320   41.0130 C   0  0  0  0  0  0  0  0  0  0  0  0
   38.8600   30.8600   41.4080 C   0  0  0  0  0  0  0  0  0  0  0  0
   39.1030   29.6980   42.0720 N   0  0  0  0  0  0  0  0  0  0  0  0
   38.1550   28.8130   42.3600 C   0  0  0  0  0  0  0  0  0  0  0  0
   36.8770   29.0530   41.9850 N   0  0  0  0  0  0  0  0  0  0  0  0
   35.5290   30.3790   41.0200 H   0  0  0  0  0  0  0  0  0  0  0  0
   39.6810   31.5330   41.2090 H   0  0  0  0  0  0  0  0  0  0  0  0
   38.4310   27.5450   43.0860 C   0  0  0  0  0  3  0  0  0  0  0  0
   39.8420   27.0500   42.9240 C   0  0  0  0  0  3  0  0  0  0  0  0
   40.1870   26.9380   41.8980 H   0  0  0  0  0  0  0  0  0  0  0  0
   39.9040   25.7280   43.6790 C   0  0  0  0  0  3  0  0  0  0  0  0
   39.3180   25.8750   44.6330 H   0  0  0  0  0  0  0  0  0  0  0  0
   39.2310   24.7820   42.9450 O   0  0  0  0  0  0  0  0  0  0  0  0
   38.3370   25.3260   42.0560 C   0  0  0  0  0  3  0  0  0  0  0  0
   37.5930   24.5440   41.7290 H   0  0  0  0  0  0  0  0  0  0  0  0
   37.5180   26.4640   42.5880 C   0  0  0  0  0  3  0  0  0  0  0  0
   36.9120   26.8460   41.7400 H   0  0  0  0  0  0  0  0  0  0  0  0
   37.2390   32.3950   40.2940 C   0  0  1  0  0  0  0  0  0  0  0  0
   38.2520   33.0770   39.5160 C   0  0  0  0  0  0  0  0  0  0  0  0
   37.1890   32.3570   38.7700 C   0  0  1  0  0  0  0  0  0  0  0  0
   36.4370   32.9920   40.7870 H   0  0  0  0  0  0  0  0  0  0  0  0
   39.2590   32.5700   39.4380 H   0  0  0  0  0  0  0  0  0  0  0  0
   38.3700   34.1760   39.4680 H   0  0  0  0  0  0  0  0  0  0  0  0
   36.4030   33.0160   38.3150 H   0  0  0  0  0  0  0  0  0  0  0  0
   37.4780   31.0920   38.0400 C   0  0  0  0  0  0  0  0  0  0  0  0
   36.5270   30.1180   38.2920 F   0  0  0  0  0  0  0  0  0  0  0  0
   38.7380   30.5880   38.3690 F   0  0  0  0  0  0  0  0  0  0  0  0
   37.4390   31.3540   36.6960 F   0  0  0  0  0  0  0  0  0  0  0  0
  1  6  1  0  0  0  0
  2  1  2  0  0  0  0
  2  3  1  0  0  0  0
  3  4  2  0  0  0  0
  4  5  1  0  0  0  0
  5  9  1  0  0  0  0
  6  5  2  0  0  0  0
  7  1  1  0  0  0  0
  8  3  1  0  0  0  0
 10  9  1  0  0  0  0
 10 12  1  0  0  0  0
 11 10  1  0  0  0  0
 12 13  1  0  0  0  0
 14 12  1  0  0  0  0
 15 17  1  0  0  0  0
 15 14  1  0  0  0  0
 16 15  1  0  0  0  0
 17  9  1  0  0  0  0
 18 17  1  0  0  0  0
 19 22  1  1  0  0  0
 19  2  1  0  0  0  0
 20 19  1  0  0  0  0
 21 25  1  6  0  0  0
 21 20  1  0  0  0  0
 21 19  1  0  0  0  0
 23 20  1  0  0  0  0
 24 20  1  0  0  0  0
 26 27  1  0  0  0  0
 26 28  1  0  0  0  0
 26 21  1  0  0  0  0
 29 26  1  0  0  0  0
M  END
>  <minimizedAffinity>
-5.12781

$$$$

 OpenBabel03242520343D

 29 31  0  0  1  0  0  0  0  0999 V2000
   37.3590   27.0730   40.4950 C   0  0  0  0  0  0  0  0  0  0  0  0
   37.0460   26.5600   41.7970 C   0  0  0  0  0  0  0  0  0  0  0  0
   36.8610   27.4770   42.8140 C   0  0  0  0  0  0  0  0  0  0  0  0
   36.9830   28.7990   42.5230 N   0  0  0  0  0  0  0  0  0  0  0  0
   37.2750   29.2530   41.3080 C   0  0  0  0  0  0  0  0  0  0  0  0
   37.4620   28.3780   40.2940 N   0  0  0  0  0  0  0  0  0  0  0  0
   37.5070   26.3440   39.6870 H   0  0  0  0  0  0  0  0  0  0  0  0
   36.6220   27.1810   43.8250 H   0  0  0  0  0  0  0  0  0  0  0  0
   37.4070   30.7020   41.0000 C   0  0  0  0  0  3  0  0  0  0  0  0
   36.8790   31.0830   39.6440 C   0  0  0  0  0  3  0  0  0  0  0  0
   37.2810   30.5160   38.8060 H   0  0  0  0  0  0  0  0  0  0  0  0
   37.1600   32.5730   39.4960 C   0  0  0  0  0  3  0  0  0  0  0  0
   36.9290   33.0440   40.4950 H   0  0  0  0  0  0  0  0  0  0  0  0
   38.5070   32.7360   39.2840 O   0  0  0  0  0  0  0  0  0  0  0  0
   39.2530   31.6680   39.7160 C   0  0  0  0  0  3  0  0  0  0  0  0
   40.3340   31.9730   39.8310 H   0  0  0  0  0  0  0  0  0  0  0  0
   38.8520   31.1020   41.0450 C   0  0  0  0  0  3  0  0  0  0  0  0
   39.4840   30.2060   41.2160 H   0  0  0  0  0  0  0  0  0  0  0  0
   36.9360   25.0990   42.0620 C   0  0  1  0  0  0  0  0  0  0  0  0
   37.5680   24.1440   41.1760 C   0  0  0  0  0  0  0  0  0  0  0  0
   38.1910   24.3570   42.5070 C   0  0  1  0  0  0  0  0  0  0  0  0
   35.9960   24.8140   42.5900 H   0  0  0  0  0  0  0  0  0  0  0  0
   38.1870   24.5680   40.3320 H   0  0  0  0  0  0  0  0  0  0  0  0
   37.1210   23.1760   40.8780 H   0  0  0  0  0  0  0  0  0  0  0  0
   38.0070   23.5370   43.2510 H   0  0  0  0  0  0  0  0  0  0  0  0
   39.4830   25.0830   42.6480 C   0  0  0  0  0  0  0  0  0  0  0  0
   39.4140   26.0860   43.5990 F   0  0  0  0  0  0  0  0  0  0  0  0
   39.8930   25.6400   41.4340 F   0  0  0  0  0  0  0  0  0  0  0  0
   40.4320   24.1910   43.0730 F   0  0  0  0  0  0  0  0  0  0  0  0
  1  2  1  0  0  0  0
  2 19  1  0  0  0  0
  2  3  2  0  0  0  0
  3  8  1  0  0  0  0
  4  3  1  0  0  0  0
  5  4  2  0  0  0  0
  6  1  2  0  0  0  0
  6  5  1  0  0  0  0
  7  1  1  0  0  0  0
  9 17  1  0  0  0  0
  9  5  1  0  0  0  0
 10  9  1  0  0  0  0
 11 10  1  0  0  0  0
 12 10  1  0  0  0  0
 12 13  1  0  0  0  0
 14 12  1  0  0  0  0
 14 15  1  0  0  0  0
 15 16  1  0  0  0  0
 15 17  1  0  0  0  0
 17 18  1  0  0  0  0
 19 21  1  0  0  0  0
 19 22  1  1  0  0  0
 20 19  1  0  0  0  0
 20 21  1  0  0  0  0
 21 26  1  0  0  0  0
 21 25  1  1  0  0  0
 23 20  1  0  0  0  0
 24 20  1  0  0  0  0
 26 29  1  0  0  0  0
 26 27  1  0  0  0  0
 28 26  1  0  0  0  0
M  END
>  <minimizedAffinity>
-4.99288034

$$$$

 OpenBabel03242520343D

 29 31  0  0  1  0  0  0  0  0999 V2000
   37.9910   29.7240   42.4230 C   0  0  0  0  0  0  0  0  0  0  0  0
   38.6480   28.5270   42.8610 C   0  0  0  0  0  0  0  0  0  0  0  0
   40.0030   28.4180   42.6160 C   0  0  0  0  0  0  0  0  0  0  0  0
   40.6290   29.4450   41.9810 N   0  0  0  0  0  0  0  0  0  0  0  0
   40.0010   30.5460   41.5830 C   0  0  0  0  0  0  0  0  0  0  0  0
   38.6740   30.6790   41.8100 N   0  0  0  0  0  0  0  0  0  0  0  0
   36.9130   29.8090   42.6170 H   0  0  0  0  0  0  0  0  0  0  0  0
   40.5790   27.5530   42.9100 H   0  0  0  0  0  0  0  0  0  0  0  0
   40.6950   31.6640   40.8890 C   0  0  0  0  0  3  0  0  0  0  0  0
   39.8410   32.8890   40.7110 C   0  0  0  0  0  3  0  0  0  0  0  0
   38.8810   32.7270   40.2230 H   0  0  0  0  0  0  0  0  0  0  0  0
   40.6990   33.8800   39.9350 C   0  0  0  0  0  3  0  0  0  0  0  0
   41.7400   33.8080   40.3650 H   0  0  0  0  0  0  0  0  0  0  0  0
   40.7800   33.4510   38.6330 O   0  0  0  0  0  0  0  0  0  0  0  0
   40.5120   32.1120   38.4900 C   0  0  0  0  0  3  0  0  0  0  0  0
   40.9060   31.7440   37.4980 H   0  0  0  0  0  0  0  0  0  0  0  0
   41.1330   31.2210   39.5240 C   0  0  0  0  0  3  0  0  0  0  0  0
   40.7620   30.1940   39.3260 H   0  0  0  0  0  0  0  0  0  0  0  0
   37.9090   27.4270   43.5420 C   0  0  1  0  0  0  0  0  0  0  0  0
   36.4620   27.4090   43.5440 C   0  0  0  0  0  0  0  0  0  0  0  0
   37.1550   26.4280   42.6710 C   0  0  1  0  0  0  0  0  0  0  0  0
   38.4610   26.9920   44.4070 H   0  0  0  0  0  0  0  0  0  0  0  0
   35.9420   28.2230   42.9570 H   0  0  0  0  0  0  0  0  0  0  0  0
   35.8410   27.1010   44.4070 H   0  0  0  0  0  0  0  0  0  0  0  0
   37.1630   25.3750   43.0600 H   0  0  0  0  0  0  0  0  0  0  0  0
   37.1520   26.5730   41.1900 C   0  0  0  0  0  0  0  0  0  0  0  0
   38.4330   26.6480   40.6730 F   0  0  0  0  0  0  0  0  0  0  0  0
   36.4370   27.7030   40.7880 F   0  0  0  0  0  0  0  0  0  0  0  0
   36.5650   25.4590   40.6510 F   0  0  0  0  0  0  0  0  0  0  0  0
  1  7  1  0  0  0  0
  1  2  1  0  0  0  0
  2 19  1  0  0  0  0
  3  2  2  0  0  0  0
  3  8  1  0  0  0  0
  4  3  1  0  0  0  0
  5  6  1  0  0  0  0
  5  4  2  0  0  0  0
  6  1  2  0  0  0  0
  9  5  1  0  0  0  0
 10  9  1  0  0  0  0
 11 10  1  0  0  0  0
 12 13  1  0  0  0  0
 12 10  1  0  0  0  0
 14 12  1  0  0  0  0
 15 14  1  0  0  0  0
 15 17  1  0  0  0  0
 16 15  1  0  0  0  0
 17  9  1  0  0  0  0
 18 17  1  0  0  0  0
 19 20  1  0  0  0  0
 19 22  1  1  0  0  0
 20 24  1  0  0  0  0
 21 25  1  1  0  0  0
 21 19  1  0  0  0  0
 21 20  1  0  0  0  0
 23 20  1  0  0  0  0
 26 21  1  0  0  0  0
 27 26  1  0  0  0  0
 28 26  1  0  0  0  0
 29 26  1  0  0  0  0
M  END
>  <minimizedAffinity>
-4.80821276

$$$$

 OpenBabel03242520343D

 29 31  0  0  1  0  0  0  0  0999 V2000
   37.9440   28.4040   39.4820 C   0  0  0  0  0  0  0  0  0  0  0  0
   36.7950   27.7300   40.0130 C   0  0  0  0  0  0  0  0  0  0  0  0
   35.9030   28.4820   40.7530 C   0  0  0  0  0  0  0  0  0  0  0  0
   36.1640   29.8050   40.9300 N   0  0  0  0  0  0  0  0  0  0  0  0
   37.2360   30.4090   40.4290 C   0  0  0  0  0  0  0  0  0  0  0  0
   38.1260   29.6970   39.7010 N   0  0  0  0  0  0  0  0  0  0  0  0
   38.6530   27.8050   38.8940 H   0  0  0  0  0  0  0  0  0  0  0  0
   35.0110   28.0590   41.1910 H   0  0  0  0  0  0  0  0  0  0  0  0
   37.5120   31.8560   40.6300 C   0  0  0  0  0  3  0  0  0  0  0  0
   37.3200   32.6860   39.3900 C   0  0  0  0  0  3  0  0  0  0  0  0
   37.8660   32.3520   38.5100 H   0  0  0  0  0  0  0  0  0  0  0  0
   37.7090   34.1060   39.7810 C   0  0  0  0  0  3  0  0  0  0  0  0
   37.2880   34.2820   40.8130 H   0  0  0  0  0  0  0  0  0  0  0  0
   39.0760   34.1610   39.8970 O   0  0  0  0  0  0  0  0  0  0  0  0
   39.6480   32.9300   40.1020 C   0  0  0  0  0  3  0  0  0  0  0  0
   40.6910   33.0530   40.5150 H   0  0  0  0  0  0  0  0  0  0  0  0
   38.9320   32.0460   41.0780 C   0  0  0  0  0  3  0  0  0  0  0  0
   39.4600   31.0690   41.0740 H   0  0  0  0  0  0  0  0  0  0  0  0
   36.5650   26.2750   39.7960 C   0  0  1  0  0  0  0  0  0  0  0  0
   37.6790   25.3890   39.5330 C   0  0  0  0  0  0  0  0  0  0  0  0
   37.0450   25.3080   40.8740 C   0  0  1  0  0  0  0  0  0  0  0  0
   35.5680   26.0450   39.3530 H   0  0  0  0  0  0  0  0  0  0  0  0
   38.7110   25.8470   39.5650 H   0  0  0  0  0  0  0  0  0  0  0  0
   37.6530   24.5480   38.8130 H   0  0  0  0  0  0  0  0  0  0  0  0
   36.3800   24.4170   41.0280 H   0  0  0  0  0  0  0  0  0  0  0  0
   37.7380   25.8190   42.0880 C   0  0  0  0  0  0  0  0  0  0  0  0
   38.6760   26.7890   41.7810 F   0  0  0  0  0  0  0  0  0  0  0  0
   38.3680   24.7890   42.7900 F   0  0  0  0  0  0  0  0  0  0  0  0
   36.8040   26.4060   42.8990 F   0  0  0  0  0  0  0  0  0  0  0  0
  1  6  2  0  0  0  0
  1  2  1  0  0  0  0
  2  3  2  0  0  0  0
  3  4  1  0  0  0  0
  3  8  1  0  0  0  0
  5  9  1  0  0  0  0
  5  4  2  0  0  0  0
  6  5  1  0  0  0  0
  7  1  1  0  0  0  0
  9 17  1  0  0  0  0
 10 12  1  0  0  0  0
 10  9  1  0  0  0  0
 11 10  1  0  0  0  0
 12 14  1  0  0  0  0
 12 13  1  0  0  0  0
 14 15  1  0  0  0  0
 15 16  1  0  0  0  0
 15 17  1  0  0  0  0
 18 17  1  0  0  0  0
 19 22  1  6  0  0  0
 19  2  1  0  0  0  0
 19 21  1  0  0  0  0
 20 23  1  0  0  0  0
 20 19  1  0  0  0  0
 20 21  1  0  0  0  0
 21 25  1  1  0  0  0
 21 26  1  0  0  0  0
 24 20  1  0  0  0  0
 26 28  1  0  0  0  0
 26 29  1  0  0  0  0
 27 26  1  0  0  0  0
M  END
>  <minimizedAffinity>
-4.77592134

$$$$

 OpenBabel03242520343D

 29 31  0  0  1  0  0  0  0  0999 V2000
   36.2100   28.4320   41.8810 C   0  0  0  0  0  0  0  0  0  0  0  0
   36.9870   27.2350   41.7450 C   0  0  0  0  0  0  0  0  0  0  0  0
   37.0880   26.6820   40.4830 C   0  0  0  0  0  0  0  0  0  0  0  0
   36.4510   27.3010   39.4540 N   0  0  0  0  0  0  0  0  0  0  0  0
   35.7350   28.4100   39.6020 C   0  0  0  0  0  0  0  0  0  0  0  0
   35.6190   28.9730   40.8270 N   0  0  0  0  0  0  0  0  0  0  0  0
   36.1300   28.8700   42.8850 H   0  0  0  0  0  0  0  0  0  0  0  0
   37.6520   25.7820   40.2870 H   0  0  0  0  0  0  0  0  0  0  0  0
   35.0420   29.0800   38.4690 C   0  0  0  0  0  3  0  0  0  0  0  0
   34.1090   28.1760   37.7120 C   0  0  0  0  0  3  0  0  0  0  0  0
   34.5450   27.2480   37.3460 H   0  0  0  0  0  0  0  0  0  0  0  0
   33.5550   29.0190   36.5700 C   0  0  0  0  0  3  0  0  0  0  0  0
   33.3450   30.0410   36.9990 H   0  0  0  0  0  0  0  0  0  0  0  0
   34.5470   29.1790   35.6340 O   0  0  0  0  0  0  0  0  0  0  0  0
   35.8060   28.9840   36.1460 C   0  0  0  0  0  3  0  0  0  0  0  0
   36.5760   29.4400   35.4580 H   0  0  0  0  0  0  0  0  0  0  0  0
   36.0530   29.6000   37.4900 C   0  0  0  0  0  3  0  0  0  0  0  0
   37.0720   29.2890   37.8030 H   0  0  0  0  0  0  0  0  0  0  0  0
   37.6550   26.5920   42.9110 C   0  0  1  0  0  0  0  0  0  0  0  0
   38.9080   25.8890   42.7420 C   0  0  0  0  0  0  0  0  0  0  0  0
   38.9530   27.2090   43.4200 C   0  0  1  0  0  0  0  0  0  0  0  0
   36.9420   26.2540   43.6980 H   0  0  0  0  0  0  0  0  0  0  0  0
   39.3690   25.9130   41.7100 H   0  0  0  0  0  0  0  0  0  0  0  0
   39.1720   24.9470   43.2590 H   0  0  0  0  0  0  0  0  0  0  0  0
   39.0830   27.1620   44.5340 H   0  0  0  0  0  0  0  0  0  0  0  0
   39.5310   28.4050   42.7480 C   0  0  0  0  0  0  0  0  0  0  0  0
   38.8070   29.5530   43.0180 F   0  0  0  0  0  0  0  0  0  0  0  0
   39.6010   28.2300   41.3640 F   0  0  0  0  0  0  0  0  0  0  0  0
   40.7950   28.6020   43.2370 F   0  0  0  0  0  0  0  0  0  0  0  0
  1  7  1  0  0  0  0
  2  1  1  0  0  0  0
  2 19  1  0  0  0  0
  3  2  2  0  0  0  0
  4  5  2  0  0  0  0
  4  3  1  0  0  0  0
  5  6  1  0  0  0  0
  6  1  2  0  0  0  0
  8  3  1  0  0  0  0
  9  5  1  0  0  0  0
 10  9  1  0  0  0  0
 11 10  1  0  0  0  0
 12 13  1  0  0  0  0
 12 10  1  0  0  0  0
 14 15  1  0  0  0  0
 14 12  1  0  0  0  0
 15 17  1  0  0  0  0
 16 15  1  0  0  0  0
 17 18  1  0  0  0  0
 17  9  1  0  0  0  0
 19 21  1  0  0  0  0
 19 22  1  1  0  0  0
 20 19  1  0  0  0  0
 20 24  1  0  0  0  0
 20 21  1  0  0  0  0
 21 25  1  1  0  0  0
 23 20  1  0  0  0  0
 26 27  1  0  0  0  0
 26 29  1  0  0  0  0
 26 21  1  0  0  0  0
 28 26  1  0  0  0  0
M  END
>  <minimizedAffinity>
-4.7561965

$$$$

 OpenBabel03242520343D

 29 31  0  0  1  0  0  0  0  0999 V2000
   39.7950   27.9870   40.3310 C   0  0  0  0  0  0  0  0  0  0  0  0
   39.8380   27.7520   41.7440 C   0  0  0  0  0  0  0  0  0  0  0  0
   39.6790   28.8440   42.5750 C   0  0  0  0  0  0  0  0  0  0  0  0
   39.4920   30.0660   42.0090 N   0  0  0  0  0  0  0  0  0  0  0  0
   39.4560   30.2620   40.6950 C   0  0  0  0  0  0  0  0  0  0  0  0
   39.6080   29.2100   39.8580 N   0  0  0  0  0  0  0  0  0  0  0  0
   39.9210   27.1180   39.6700 H   0  0  0  0  0  0  0  0  0  0  0  0
   39.6980   28.7610   43.6520 H   0  0  0  0  0  0  0  0  0  0  0  0
   39.2510   31.6020   40.0860 C   0  0  0  0  0  3  0  0  0  0  0  0
   38.9060   32.6740   41.0840 C   0  0  0  0  0  3  0  0  0  0  0  0
   38.0570   32.4590   41.7310 H   0  0  0  0  0  0  0  0  0  0  0  0
   38.6760   33.9380   40.2660 C   0  0  0  0  0  3  0  0  0  0  0  0
   39.4740   33.9550   39.4690 H   0  0  0  0  0  0  0  0  0  0  0  0
   37.4710   33.8170   39.6170 O   0  0  0  0  0  0  0  0  0  0  0  0
   37.0600   32.5140   39.4850 C   0  0  0  0  0  3  0  0  0  0  0  0
   36.2710   32.4380   38.6820 H   0  0  0  0  0  0  0  0  0  0  0  0
   38.1310   31.5420   39.0890 C   0  0  0  0  0  3  0  0  0  0  0  0
   37.6690   30.5330   39.1050 H   0  0  0  0  0  0  0  0  0  0  0  0
   40.0580   26.3920   42.3100 C   0  0  1  0  0  0  0  0  0  0  0  0
   39.6910   26.1000   43.6790 C   0  0  0  0  0  0  0  0  0  0  0  0
   38.8320   25.5360   42.6080 C   0  0  1  0  0  0  0  0  0  0  0  0
   40.9200   25.8550   41.8500 H   0  0  0  0  0  0  0  0  0  0  0  0
   39.1820   26.9270   44.2560 H   0  0  0  0  0  0  0  0  0  0  0  0
   40.2830   25.4620   44.3640 H   0  0  0  0  0  0  0  0  0  0  0  0
   38.9750   24.4380   42.4180 H   0  0  0  0  0  0  0  0  0  0  0  0
   37.4640   26.0660   42.3540 C   0  0  0  0  0  0  0  0  0  0  0  0
   37.2950   26.4540   41.0360 F   0  0  0  0  0  0  0  0  0  0  0  0
   37.1740   27.1500   43.1850 F   0  0  0  0  0  0  0  0  0  0  0  0
   36.5640   25.0630   42.5970 F   0  0  0  0  0  0  0  0  0  0  0  0
  1  2  1  0  0  0  0
  2 19  1  0  0  0  0
  2  3  2  0  0  0  0
  3  8  1  0  0  0  0
  4  3  1  0  0  0  0
  5  4  2  0  0  0  0
  6  1  2  0  0  0  0
  6  5  1  0  0  0  0
  7  1  1  0  0  0  0
  9  5  1  0  0  0  0
  9 10  1  0  0  0  0
 10 11  1  0  0  0  0
 12 10  1  0  0  0  0
 13 12  1  0  0  0  0
 14 12  1  0  0  0  0
 15 14  1  0  0  0  0
 16 15  1  0  0  0  0
 17 18  1  0  0  0  0
 17 15  1  0  0  0  0
 17  9  1  0  0  0  0
 19 22  1  6  0  0  0
 19 21  1  0  0  0  0
 19 20  1  0  0  0  0
 20 23  1  0  0  0  0
 20 24  1  0  0  0  0
 21 25  1  6  0  0  0
 21 20  1  0  0  0  0
 26 29  1  0  0  0  0
 26 21  1  0  0  0  0
 26 28  1  0  0  0  0
 27 26  1  0  0  0  0
M  END
>  <minimizedAffinity>
-4.73622608

$$$$

 OpenBabel03242520343D

 29 31  0  0  1  0  0  0  0  0999 V2000
   38.2690   29.7000   40.7680 C   0  0  0  0  0  0  0  0  0  0  0  0
   37.0190   30.3800   40.5920 C   0  0  0  0  0  0  0  0  0  0  0  0
   35.8790   29.6040   40.5110 C   0  0  0  0  0  0  0  0  0  0  0  0
   36.0080   28.2540   40.6030 N   0  0  0  0  0  0  0  0  0  0  0  0
   37.1770   27.6430   40.7650 C   0  0  0  0  0  0  0  0  0  0  0  0
   38.3100   28.3790   40.8490 N   0  0  0  0  0  0  0  0  0  0  0  0
   39.1750   30.3180   40.8330 H   0  0  0  0  0  0  0  0  0  0  0  0
   34.8950   30.0300   40.3780 H   0  0  0  0  0  0  0  0  0  0  0  0
   37.3080   26.1660   40.8650 C   0  0  0  0  0  3  0  0  0  0  0  0
   37.2950   25.6510   42.2780 C   0  0  0  0  0  3  0  0  0  0  0  0
   38.0190   26.1050   42.9520 H   0  0  0  0  0  0  0  0  0  0  0  0
   37.5010   24.1460   42.1700 C   0  0  0  0  0  3  0  0  0  0  0  0
   36.8820   23.7990   41.2920 H   0  0  0  0  0  0  0  0  0  0  0  0
   38.8150   23.9150   41.8430 O   0  0  0  0  0  0  0  0  0  0  0  0
   39.4240   25.0000   41.2630 C   0  0  0  0  0  3  0  0  0  0  0  0
   40.3590   24.6750   40.7220 H   0  0  0  0  0  0  0  0  0  0  0  0
   38.6000   25.7260   40.2420 C   0  0  0  0  0  3  0  0  0  0  0  0
   39.1870   26.6150   39.9300 H   0  0  0  0  0  0  0  0  0  0  0  0
   36.9370   31.8630   40.4860 C   0  0  1  0  0  0  0  0  0  0  0  0
   38.1300   32.6470   40.2470 C   0  0  0  0  0  0  0  0  0  0  0  0
   37.1770   32.4950   39.1190 C   0  0  1  0  0  0  0  0  0  0  0  0
   36.1040   32.3050   41.0800 H   0  0  0  0  0  0  0  0  0  0  0  0
   39.0910   32.0750   40.0870 H   0  0  0  0  0  0  0  0  0  0  0  0
   38.3400   33.6260   40.7190 H   0  0  0  0  0  0  0  0  0  0  0  0
   36.5470   33.4000   38.9080 H   0  0  0  0  0  0  0  0  0  0  0  0
   37.5020   31.6420   37.9420 C   0  0  0  0  0  0  0  0  0  0  0  0
   38.7050   30.9770   38.1000 F   0  0  0  0  0  0  0  0  0  0  0  0
   37.5500   32.3910   36.7650 F   0  0  0  0  0  0  0  0  0  0  0  0
   36.5270   30.6870   37.8240 F   0  0  0  0  0  0  0  0  0  0  0  0
  1  7  1  0  0  0  0
  1  6  1  0  0  0  0
  2  1  2  0  0  0  0
  3  2  1  0  0  0  0
  3  4  2  0  0  0  0
  4  5  1  0  0  0  0
  5  6  2  0  0  0  0
  5  9  1  0  0  0  0
  8  3  1  0  0  0  0
  9 10  1  0  0  0  0
 10 11  1  0  0  0  0
 12 10  1  0  0  0  0
 13 12  1  0  0  0  0
 14 12  1  0  0  0  0
 15 14  1  0  0  0  0
 16 15  1  0  0  0  0
 17  9  1  0  0  0  0
 17 15  1  0  0  0  0
 18 17  1  0  0  0  0
 19  2  1  0  0  0  0
 19 22  1  1  0  0  0
 20 19  1  0  0  0  0
 20 24  1  0  0  0  0
 21 25  1  6  0  0  0
 21 20  1  0  0  0  0
 21 19  1  0  0  0  0
 23 20  1  0  0  0  0
 26 27  1  0  0  0  0
 26 21  1  0  0  0  0
 28 26  1  0  0  0  0
 29 26  1  0  0  0  0
M  END
>  <minimizedAffinity>
-4.72646236

$$$$

 OpenBabel03242520343D

 29 31  0  0  1  0  0  0  0  0999 V2000
   37.9660   29.3550   40.5090 C   0  0  0  0  0  0  0  0  0  0  0  0
   37.0220   28.8390   41.4570 C   0  0  0  0  0  0  0  0  0  0  0  0
   35.7360   28.6060   41.0110 C   0  0  0  0  0  0  0  0  0  0  0  0
   35.4440   28.8760   39.7110 N   0  0  0  0  0  0  0  0  0  0  0  0
   36.3340   29.3550   38.8490 C   0  0  0  0  0  0  0  0  0  0  0  0
   37.6020   29.5930   39.2580 N   0  0  0  0  0  0  0  0  0  0  0  0
   38.9890   29.5410   40.8650 H   0  0  0  0  0  0  0  0  0  0  0  0
   34.9600   28.2190   41.6540 H   0  0  0  0  0  0  0  0  0  0  0  0
   36.0050   29.6470   37.4280 C   0  0  0  0  0  3  0  0  0  0  0  0
   35.0110   28.6910   36.8290 C   0  0  0  0  0  3  0  0  0  0  0  0
   35.2650   27.6350   36.9110 H   0  0  0  0  0  0  0  0  0  0  0  0
   34.8570   29.1150   35.3740 C   0  0  0  0  0  3  0  0  0  0  0  0
   34.8340   30.2430   35.3690 H   0  0  0  0  0  0  0  0  0  0  0  0
   35.9910   28.7400   34.6950 O   0  0  0  0  0  0  0  0  0  0  0  0
   37.0730   28.5490   35.5190 C   0  0  0  0  0  3  0  0  0  0  0  0
   38.0260   28.5750   34.9160 H   0  0  0  0  0  0  0  0  0  0  0  0
   37.2490   29.5810   36.5930 C   0  0  0  0  0  3  0  0  0  0  0  0
   38.1030   29.2490   37.2190 H   0  0  0  0  0  0  0  0  0  0  0  0
   37.3950   28.5730   42.8740 C   0  0  1  0  0  0  0  0  0  0  0  0
   36.6120   27.6580   43.6780 C   0  0  0  0  0  0  0  0  0  0  0  0
   37.9460   27.1930   43.2200 C   0  0  1  0  0  0  0  0  0  0  0  0
   37.9050   29.4320   43.3670 H   0  0  0  0  0  0  0  0  0  0  0  0
   35.7620   27.1250   43.1580 H   0  0  0  0  0  0  0  0  0  0  0  0
   36.3720   27.8130   44.7470 H   0  0  0  0  0  0  0  0  0  0  0  0
   38.7430   27.1970   44.0110 H   0  0  0  0  0  0  0  0  0  0  0  0
   38.0820   26.1520   42.1660 C   0  0  0  0  0  0  0  0  0  0  0  0
   38.9200   26.5560   41.1420 F   0  0  0  0  0  0  0  0  0  0  0  0
   36.8410   25.8070   41.6240 F   0  0  0  0  0  0  0  0  0  0  0  0
   38.6460   25.0400   42.7320 F   0  0  0  0  0  0  0  0  0  0  0  0
  1  7  1  0  0  0  0
  1  2  1  0  0  0  0
  2 19  1  0  0  0  0
  3  2  2  0  0  0  0
  3  8  1  0  0  0  0
  4  3  1  0  0  0  0
  5  6  1  0  0  0  0
  5  4  2  0  0  0  0
  6  1  2  0  0  0  0
  9  5  1  0  0  0  0
 10 11  1  0  0  0  0
 10  9  1  0  0  0  0
 12 10  1  0  0  0  0
 13 12  1  0  0  0  0
 14 12  1  0  0  0  0
 14 15  1  0  0  0  0
 15 17  1  0  0  0  0
 16 15  1  0  0  0  0
 17 18  1  0  0  0  0
 17  9  1  0  0  0  0
 19 21  1  0  0  0  0
 19 22  1  1  0  0  0
 19 20  1  0  0  0  0
 20 24  1  0  0  0  0
 21 20  1  0  0  0  0
 21 25  1  1  0  0  0
 23 20  1  0  0  0  0
 26 29  1  0  0  0  0
 26 21  1  0  0  0  0
 27 26  1  0  0  0  0
 28 26  1  0  0  0  0
M  END
>  <minimizedAffinity>
-4.70112944

$$$$

 OpenBabel03242520343D

 29 31  0  0  1  0  0  0  0  0999 V2000
   36.9960   27.0250   40.5410 C   0  0  0  0  0  0  0  0  0  0  0  0
   36.4540   27.9510   41.4920 C   0  0  0  0  0  0  0  0  0  0  0  0
   35.5490   28.8850   41.0250 C   0  0  0  0  0  0  0  0  0  0  0  0
   35.2290   28.8700   39.7040 N   0  0  0  0  0  0  0  0  0  0  0  0
   35.7440   28.0030   38.8390 C   0  0  0  0  0  0  0  0  0  0  0  0
   36.6320   27.0770   39.2680 N   0  0  0  0  0  0  0  0  0  0  0  0
   37.7160   26.2830   40.9120 H   0  0  0  0  0  0  0  0  0  0  0  0
   35.0910   29.6200   41.6700 H   0  0  0  0  0  0  0  0  0  0  0  0
   35.3860   27.9960   37.3960 C   0  0  0  0  0  3  0  0  0  0  0  0
   35.7870   29.2490   36.6670 C   0  0  0  0  0  3  0  0  0  0  0  0
   35.4310   30.1810   37.1030 H   0  0  0  0  0  0  0  0  0  0  0  0
   35.2830   29.0740   35.2400 C   0  0  0  0  0  3  0  0  0  0  0  0
   35.4900   28.0020   34.9560 H   0  0  0  0  0  0  0  0  0  0  0  0
   33.9180   29.2240   35.2450 O   0  0  0  0  0  0  0  0  0  0  0  0
   33.3580   29.0160   36.4810 C   0  0  0  0  0  3  0  0  0  0  0  0
   32.2510   28.8210   36.3750 H   0  0  0  0  0  0  0  0  0  0  0  0
   33.9020   27.8430   37.2400 C   0  0  0  0  0  3  0  0  0  0  0  0
   33.4170   27.8550   38.2390 H   0  0  0  0  0  0  0  0  0  0  0  0
   36.8510   27.9280   42.9270 C   0  0  1  0  0  0  0  0  0  0  0  0
   38.1210   27.3600   43.3270 C   0  0  0  0  0  0  0  0  0  0  0  0
   37.9930   28.8390   43.3670 C   0  0  1  0  0  0  0  0  0  0  0  0
   35.9840   27.8720   43.6260 H   0  0  0  0  0  0  0  0  0  0  0  0
   38.8010   27.0030   42.4990 H   0  0  0  0  0  0  0  0  0  0  0  0
   38.2750   26.7530   44.2400 H   0  0  0  0  0  0  0  0  0  0  0  0
   37.8700   29.2740   44.3940 H   0  0  0  0  0  0  0  0  0  0  0  0
   38.6900   29.7020   42.3740 C   0  0  0  0  0  0  0  0  0  0  0  0
   39.2070   28.9690   41.3210 F   0  0  0  0  0  0  0  0  0  0  0  0
   39.7240   30.4300   42.9670 F   0  0  0  0  0  0  0  0  0  0  0  0
   37.7750   30.5740   41.8470 F   0  0  0  0  0  0  0  0  0  0  0  0
  1  7  1  0  0  0  0
  1  2  1  0  0  0  0
  2 19  1  0  0  0  0
  3  2  2  0  0  0  0
  3  8  1  0  0  0  0
  4  3  1  0  0  0  0
  5  6  1  0  0  0  0
  5  4  2  0  0  0  0
  6  1  2  0  0  0  0
  9  5  1  0  0  0  0
 10 11  1  0  0  0  0
 10  9  1  0  0  0  0
 12 14  1  0  0  0  0
 12 10  1  0  0  0  0
 13 12  1  0  0  0  0
 14 15  1  0  0  0  0
 15 17  1  0  0  0  0
 16 15  1  0  0  0  0
 17  9  1  0  0  0  0
 17 18  1  0  0  0  0
 19 20  1  0  0  0  0
 19 21  1  0  0  0  0
 19 22  1  1  0  0  0
 20 21  1  0  0  0  0
 20 24  1  0  0  0  0
 21 25  1  1  0  0  0
 23 20  1  0  0  0  0
 26 28  1  0  0  0  0
 26 21  1  0  0  0  0
 27 26  1  0  0  0  0
 29 26  1  0  0  0  0
M  END
>  <minimizedAffinity>
-4.69941092

$$$$
