
 OpenBabel03242515403D

 37 40  0  0  0  0  0  0  0  0999 V2000
   44.0490   34.8180   41.0720 C   0  0  0  0  0  0  0  0  0  0  0  0
   43.9840   34.0000   39.9770 C   0  0  0  0  0  0  0  0  0  0  0  0
   45.1970   33.4350   39.5390 C   0  0  0  0  0  0  0  0  0  0  0  0
   46.3300   33.7230   40.2060 N   0  0  0  0  0  0  0  0  0  0  0  0
   46.3520   34.5310   41.2780 C   0  0  0  0  0  0  0  0  0  0  0  0
   45.2020   35.0610   41.6860 N   0  0  0  0  0  0  0  0  0  0  0  0
   43.0790   33.7890   39.4680 H   0  0  0  0  0  0  0  0  0  0  0  0
   45.1410   32.5510   38.3600 C   0  0  0  0  0  0  0  0  0  0  0  0
   43.7000   32.2990   37.9200 C   0  0  0  0  0  0  0  0  0  0  0  0
   43.0800   32.1970   38.8130 H   0  0  0  0  0  0  0  0  0  0  0  0
   43.7610   31.0320   37.0680 C   0  0  0  0  0  0  0  0  0  0  0  0
   43.0270   31.0180   36.2540 H   0  0  0  0  0  0  0  0  0  0  0  0
   45.0370   30.8720   36.5170 O   0  0  0  0  0  0  0  0  0  0  0  0
   45.5600   32.0730   36.0320 C   0  0  0  0  0  0  0  0  0  0  0  0
   46.5030   31.7650   35.4950 H   0  0  0  0  0  0  0  0  0  0  0  0
   45.8510   33.0690   37.1420 C   0  0  0  0  0  0  0  0  0  0  0  0
   46.9390   33.1290   37.2360 H   0  0  0  0  0  0  0  0  0  0  0  0
   42.4740   35.5280   41.6090 S   0  0  0  0  0  0  0  0  0  0  0  0
   40.3290   35.0220   40.0780 C   0  0  0  0  0  0  0  0  0  0  0  0
   41.1170   34.4990   41.0950 C   0  0  0  0  0  0  0  0  0  0  0  0
   40.8300   33.2700   41.6320 C   0  0  0  0  0  0  0  0  0  0  0  0
   39.7650   32.5060   41.2010 C   0  0  0  0  0  0  0  0  0  0  0  0
   38.9660   33.0390   40.1680 C   0  0  0  0  0  0  0  0  0  0  0  0
   39.2380   34.2750   39.6110 C   0  0  0  0  0  0  0  0  0  0  0  0
   37.9640   32.0910   39.9080 O   0  0  0  0  0  0  0  0  0  0  0  0
   37.9670   31.1940   40.9810 C   0  0  0  0  0  0  0  0  0  0  0  0
   39.2520   31.2610   41.5540 O   0  0  0  0  0  0  0  0  0  0  0  0
   40.5200   35.9880   39.6240 H   0  0  0  0  0  0  0  0  0  0  0  0
   41.4730   32.9010   42.4260 H   0  0  0  0  0  0  0  0  0  0  0  0
   38.6120   34.6700   38.8180 H   0  0  0  0  0  0  0  0  0  0  0  0
   37.1480   31.3590   41.7060 H   0  0  0  0  0  0  0  0  0  0  0  0
   37.8560   30.1690   40.5560 H   0  0  0  0  0  0  0  0  0  0  0  0
   47.4670   34.8620   41.9990 O   0  0  0  0  0  0  0  0  0  0  0  0
   48.6520   35.1680   41.3180 C   0  0  0  0  0  0  0  0  0  0  0  0
   49.6440   34.2530   41.5110 F   0  0  0  0  0  0  0  0  0  0  0  0
   48.2800   35.2980   39.9680 F   0  0  0  0  0  0  0  0  0  0  0  0
   49.0970   36.4020   41.8090 F   0  0  0  0  0  0  0  0  0  0  0  0
  1 18  1  0  0  0  0
  1  6  1  0  0  0  0
  2  1  2  0  0  0  0
  3  2  1  0  0  0  0
  3  4  2  0  0  0  0
  4  5  1  0  0  0  0
  5  6  2  0  0  0  0
  5 33  1  0  0  0  0
  7  2  1  0  0  0  0
  8  3  1  0  0  0  0
  9  8  1  0  0  0  0
  9 10  1  0  0  0  0
 11  9  1  0  0  0  0
 12 11  1  0  0  0  0
 13 11  1  0  0  0  0
 14 13  1  0  0  0  0
 14 16  1  0  0  0  0
 15 14  1  0  0  0  0
 16 17  1  0  0  0  0
 16  8  1  0  0  0  0
 19 20  1  0  0  0  0
 20 18  1  0  0  0  0
 20 21  2  0  0  0  0
 21 29  1  0  0  0  0
 22 27  1  0  0  0  0
 22 21  1  0  0  0  0
 23 22  2  0  0  0  0
 24 19  2  0  0  0  0
 24 23  1  0  0  0  0
 25 23  1  0  0  0  0
 25 26  1  0  0  0  0
 26 27  1  0  0  0  0
 26 31  1  0  0  0  0
 28 19  1  0  0  0  0
 30 24  1  0  0  0  0
 32 26  1  0  0  0  0
 34 35  1  0  0  0  0
 34 37  1  0  0  0  0
 34 33  1  0  0  0  0
 36 34  1  0  0  0  0
M  END
>  <minimizedAffinity>
-6.0737009

>  <minimizedRMSD>
0.564705312

$$$$
