
 OpenBabel03252509043D

 49 51  0  0  1  0  0  0  0  0999 V2000
   46.8960   34.2870   43.5800 N   0  0  0  0  0  0  0  0  0  0  0  0
   46.5460   35.1500   42.5190 C   0  0  0  0  0  0  0  0  0  0  0  0
   45.0570   35.3060   42.2820 C   0  0  0  0  0  0  0  0  0  0  0  0
   44.2260   35.2260   43.5330 C   0  0  0  0  0  0  0  0  0  0  0  0
   45.0840   35.1050   44.7710 C   0  0  0  0  0  0  0  0  0  0  0  0
   45.9610   33.8250   44.4840 C   0  0  2  0  0  0  0  0  0  0  0  0
   46.9840   34.9340   41.5370 H   0  0  0  0  0  0  0  0  0  0  0  0
   46.9210   36.1760   42.7860 H   0  0  0  0  0  0  0  0  0  0  0  0
   44.7510   34.5630   41.5200 H   0  0  0  0  0  0  0  0  0  0  0  0
   44.8780   36.3110   41.8350 H   0  0  0  0  0  0  0  0  0  0  0  0
   43.5600   36.1130   43.6580 H   0  0  0  0  0  0  0  0  0  0  0  0
   43.5650   34.3510   43.5090 H   0  0  0  0  0  0  0  0  0  0  0  0
   44.4440   34.8520   45.6220 H   0  0  0  0  0  0  0  0  0  0  0  0
   45.7550   35.9730   44.9340 H   0  0  0  0  0  0  0  0  0  0  0  0
   45.2150   33.0810   44.1390 H   0  0  0  0  0  0  0  0  0  0  0  0
   48.0460   33.4670   43.3100 C   0  0  0  0  0  0  0  0  0  0  0  0
   48.4840   33.1550   44.2830 H   0  0  0  0  0  0  0  0  0  0  0  0
   48.7580   34.0830   42.7330 H   0  0  0  0  0  0  0  0  0  0  0  0
   47.6250   32.2570   42.5660 C   0  0  0  0  0  0  0  0  0  0  0  0
   47.7680   31.3050   43.1090 H   0  0  0  0  0  0  0  0  0  0  0  0
   46.5270   32.2860   42.3290 H   0  0  0  0  0  0  0  0  0  0  0  0
   50.2290   31.6510   39.9290 C   0  0  0  0  0  0  0  0  0  0  0  0
   49.5680   31.7080   41.1690 C   0  0  0  0  0  0  0  0  0  0  0  0
   48.3000   32.2080   41.2470 C   0  0  0  0  0  0  0  0  0  0  0  0
   47.7340   32.6310   40.1120 N   0  0  0  0  0  0  0  0  0  0  0  0
   48.3440   32.5850   38.9240 C   0  0  0  0  0  0  0  0  0  0  0  0
   49.5930   32.0990   38.8100 N   0  0  0  0  0  0  0  0  0  0  0  0
   51.2450   31.2530   39.8550 H   0  0  0  0  0  0  0  0  0  0  0  0
   50.1120   31.3400   42.0370 H   0  0  0  0  0  0  0  0  0  0  0  0
   47.7390   32.9700   38.0980 H   0  0  0  0  0  0  0  0  0  0  0  0
   46.5070   33.5680   45.7210 O   0  0  0  0  0  0  0  0  0  0  0  0
   45.5840   31.1480   45.1590 O   0  0  0  0  0  0  0  0  0  0  0  0
   46.1720   32.0080   46.2760 P   0  0  2  0  0  0  0  0  0  0  0  0
   44.9390   32.1810   47.4340 O   0  0  0  0  0  0  0  0  0  0  0  0
   45.1370   31.7080   48.2770 H   0  0  0  0  0  0  0  0  0  0  0  0
   47.4950   31.2990   47.0110 O   0  0  0  0  0  0  0  0  0  0  0  0
   47.8330   30.1630   46.2720 C   0  0  0  0  0  0  0  0  0  0  0  0
   46.9690   29.4520   46.3470 H   0  0  0  0  0  0  0  0  0  0  0  0
   48.0600   30.3980   45.2310 H   0  0  0  0  0  0  0  0  0  0  0  0
   49.0060   29.5290   46.9900 C   0  0  0  0  0  3  0  0  0  0  0  0
   50.0950   29.0720   46.0480 C   0  0  0  0  0  3  0  0  0  0  0  0
   49.7330   28.2010   45.4640 H   0  0  0  0  0  0  0  0  0  0  0  0
   51.2140   28.5470   46.9530 C   0  0  0  0  0  3  0  0  0  0  0  0
   52.0640   28.1460   46.3660 H   0  0  0  0  0  0  0  0  0  0  0  0
   50.7370   27.5140   47.7270 O   0  0  0  0  0  0  0  0  0  0  0  0
   49.7220   27.8500   48.5930 C   0  0  0  0  0  3  0  0  0  0  0  0
   49.4430   26.9270   49.1360 H   0  0  0  0  0  0  0  0  0  0  0  0
   48.5160   28.3640   47.8150 C   0  0  0  0  0  3  0  0  0  0  0  0
   48.1830   27.5760   47.1170 H   0  0  0  0  0  0  0  0  0  0  0  0
  1  6  1  0  0  0  0
  2  8  1  0  0  0  0
  2  1  1  0  0  0  0
  3  2  1  0  0  0  0
  3  4  1  0  0  0  0
  4 11  1  0  0  0  0
  4  5  1  0  0  0  0
  5 14  1  0  0  0  0
  5 13  1  0  0  0  0
  6 15  1  6  0  0  0
  6  5  1  0  0  0  0
  6 31  1  0  0  0  0
  7  2  1  0  0  0  0
  9  3  1  0  0  0  0
 10  3  1  0  0  0  0
 12  4  1  0  0  0  0
 16  1  1  0  0  0  0
 16 17  1  0  0  0  0
 18 16  1  0  0  0  0
 19 20  1  0  0  0  0
 19 16  1  0  0  0  0
 21 19  1  0  0  0  0
 22 23  1  0  0  0  0
 23 24  2  0  0  0  0
 23 29  1  0  0  0  0
 24 19  1  0  0  0  0
 25 24  1  0  0  0  0
 26 25  2  0  0  0  0
 27 26  1  0  0  0  0
 27 22  2  0  0  0  0
 28 22  1  0  0  0  0
 30 26  1  0  0  0  0
 31 33  1  0  0  0  0
 33 32  2  6  0  0  0
 33 36  1  0  0  0  0
 33 34  1  0  0  0  0
 34 35  1  0  0  0  0
 37 38  1  0  0  0  0
 37 40  1  0  0  0  0
 37 36  1  0  0  0  0
 39 37  1  0  0  0  0
 40 48  1  0  0  0  0
 41 43  1  0  0  0  0
 41 40  1  0  0  0  0
 42 41  1  0  0  0  0
 43 45  1  0  0  0  0
 44 43  1  0  0  0  0
 45 46  1  0  0  0  0
 46 47  1  0  0  0  0
 48 46  1  0  0  0  0
 49 48  1  0  0  0  0
M  END
>  <minimizedAffinity>
-4.21973419

>  <minimizedRMSD>
1.61635005

$$$$
