
 OpenBabel03252508263D

 42 46  0  0  1  0  0  0  0  0999 V2000
   46.3840   32.3910   46.1770 C   0  0  1  0  0  0  0  0  0  0  0  0
   46.8260   32.5620   47.5690 C   0  0  0  0  0  0  0  0  0  0  0  0
   45.4500   31.9010   47.1700 C   0  0  2  0  0  0  0  0  0  0  0  0
   47.2150   31.7770   45.6760 H   0  0  0  0  0  0  0  0  0  0  0  0
   47.4680   31.8430   48.1130 H   0  0  0  0  0  0  0  0  0  0  0  0
   46.7240   33.5130   48.1090 H   0  0  0  0  0  0  0  0  0  0  0  0
   44.6780   32.5530   47.6920 H   0  0  0  0  0  0  0  0  0  0  0  0
   45.2050   30.4900   47.4890 C   0  0  0  0  0  0  0  0  0  0  0  0
   45.0810   29.9180   48.7130 C   0  0  0  0  0  0  0  0  0  0  0  0
   44.9760   28.5660   48.9740 C   0  0  0  0  0  0  0  0  0  0  0  0
   45.0020   27.7130   47.8630 C   0  0  0  0  0  0  0  0  0  0  0  0
   45.1250   28.2640   46.5870 C   0  0  0  0  0  0  0  0  0  0  0  0
   45.0790   27.3870   45.5190 C   0  0  0  0  0  0  0  0  0  0  0  0
   45.1210   27.9000   44.2290 C   0  0  0  0  0  0  0  0  0  0  0  0
   45.2050   29.2610   44.0130 C   0  0  0  0  0  0  0  0  0  0  0  0
   45.2510   30.0850   45.1130 C   0  0  0  0  0  0  0  0  0  0  0  0
   45.2210   29.6270   46.4230 C   0  0  0  0  0  0  0  0  0  0  0  0
   45.0650   30.6200   49.5500 H   0  0  0  0  0  0  0  0  0  0  0  0
   44.8800   28.1820   49.9700 H   0  0  0  0  0  0  0  0  0  0  0  0
   44.9250   26.6540   48.0480 H   0  0  0  0  0  0  0  0  0  0  0  0
   45.0090   26.3190   45.7240 H   0  0  0  0  0  0  0  0  0  0  0  0
   45.0810   27.1160   43.4670 H   0  0  0  0  0  0  0  0  0  0  0  0
   45.2230   29.4560   42.9690 H   0  0  0  0  0  0  0  0  0  0  0  0
   45.2260   31.0540   44.7020 H   0  0  0  0  0  0  0  0  0  0  0  0
   44.6650   35.4410   45.0050 C   0  0  0  0  0  0  0  0  0  0  0  0
   45.2970   35.6720   43.7320 C   0  0  0  0  0  0  0  0  0  0  0  0
   46.3200   34.7580   43.3230 C   0  0  0  0  0  0  0  0  0  0  0  0
   46.6440   33.7420   44.1260 N   0  0  0  0  0  0  0  0  0  0  0  0
   46.0070   33.5660   45.3350 C   0  0  0  0  0  0  0  0  0  0  0  0
   45.0510   34.3870   45.7590 N   0  0  0  0  0  0  0  0  0  0  0  0
   43.9150   36.1620   45.2390 H   0  0  0  0  0  0  0  0  0  0  0  0
   45.0550   36.4720   43.0800 H   0  0  0  0  0  0  0  0  0  0  0  0
   47.0180   34.9130   42.0440 C   0  0  0  0  0  3  0  0  0  0  0  0
   46.8540   33.7080   41.1280 C   0  0  0  0  0  3  0  0  0  0  0  0
   46.9110   32.7490   41.6610 H   0  0  0  0  0  0  0  0  0  0  0  0
   47.9630   33.8540   40.0810 C   0  0  0  0  0  3  0  0  0  0  0  0
   47.5920   33.5120   39.0940 H   0  0  0  0  0  0  0  0  0  0  0  0
   48.3150   35.1960   39.9030 O   0  0  0  0  0  0  0  0  0  0  0  0
   49.0550   35.7030   40.9630 C   0  0  0  0  0  3  0  0  0  0  0  0
   50.1380   35.6370   40.8340 H   0  0  0  0  0  0  0  0  0  0  0  0
   48.5270   35.0790   42.2300 C   0  0  0  0  0  3  0  0  0  0  0  0
   48.7110   35.6830   43.1220 H   0  0  0  0  0  0  0  0  0  0  0  0
  1  4  1  6  0  0  0
  1  3  1  0  0  0  0
  1  2  1  0  0  0  0
  2  6  1  0  0  0  0
  2  5  1  0  0  0  0
  3  8  1  0  0  0  0
  3  2  1  0  0  0  0
  3  7  1  1  0  0  0
  8  9  1  0  0  0  0
  9 10  2  0  0  0  0
  9 18  1  0  0  0  0
 10 19  1  0  0  0  0
 11 20  1  0  0  0  0
 11 10  1  0  0  0  0
 12 11  2  0  0  0  0
 13 21  1  0  0  0  0
 13 12  1  0  0  0  0
 14 13  2  0  0  0  0
 15 14  1  0  0  0  0
 15 16  2  0  0  0  0
 16 17  1  0  0  0  0
 17 12  1  0  0  0  0
 17  8  2  0  0  0  0
 22 14  1  0  0  0  0
 23 15  1  0  0  0  0
 24 16  1  0  0  0  0
 25 31  1  0  0  0  0
 25 30  1  0  0  0  0
 26 25  2  0  0  0  0
 27 26  1  0  0  0  0
 27 28  2  0  0  0  0
 28 29  1  0  0  0  0
 29 30  2  0  0  0  0
 29  1  1  0  0  0  0
 32 26  1  0  0  0  0
 33 41  1  0  0  0  0
 33 27  1  0  0  0  0
 34 35  1  0  0  0  0
 34 33  1  0  0  0  0
 36 34  1  0  0  0  0
 37 36  1  0  0  0  0
 38 36  1  0  0  0  0
 38 39  1  0  0  0  0
 39 41  1  0  0  0  0
 40 39  1  0  0  0  0
 41 42  1  0  0  0  0
M  END
>  <minimizedAffinity>
-5.88830662

>  <minimizedRMSD>
0.532689095

$$$$
