
 OpenBabel03252508153D

 38 41  0  0  1  0  0  0  0  0999 V2000
   46.0230   33.0770   46.0870 C   0  0  0  0  0  3  0  0  0  0  0  0
   46.8500   32.1700   45.7420 C   0  0  0  0  0  3  0  0  0  0  0  0
   44.4910   36.0080   44.4620 C   0  0  0  0  0  0  0  0  0  0  0  0
   45.0780   36.0240   43.2050 C   0  0  0  0  0  0  0  0  0  0  0  0
   45.9990   35.0270   42.9390 C   0  0  0  0  0  0  0  0  0  0  0  0
   46.2500   34.1330   43.9030 N   0  0  0  0  0  0  0  0  0  0  0  0
   45.6900   34.1130   45.1100 C   0  0  0  0  0  0  0  0  0  0  0  0
   44.8060   35.0770   45.3560 N   0  0  0  0  0  0  0  0  0  0  0  0
   43.7690   36.7770   44.6920 H   0  0  0  0  0  0  0  0  0  0  0  0
   44.8680   36.7430   42.4410 H   0  0  0  0  0  0  0  0  0  0  0  0
   46.7160   34.8890   41.6680 C   0  0  0  0  0  3  0  0  0  0  0  0
   46.9080   33.4150   41.2820 C   0  0  0  0  0  3  0  0  0  0  0  0
   47.6750   32.9470   41.9050 H   0  0  0  0  0  0  0  0  0  0  0  0
   47.3780   33.4530   39.8400 C   0  0  0  0  0  3  0  0  0  0  0  0
   47.9610   32.5480   39.6220 H   0  0  0  0  0  0  0  0  0  0  0  0
   47.9780   34.6420   39.5080 O   0  0  0  0  0  0  0  0  0  0  0  0
   48.8040   35.1800   40.4830 C   0  0  0  0  0  3  0  0  0  0  0  0
   49.1080   36.1880   40.0870 H   0  0  0  0  0  0  0  0  0  0  0  0
   48.1260   35.4320   41.7980 C   0  0  0  0  0  3  0  0  0  0  0  0
   48.6420   34.7920   42.5640 H   0  0  0  0  0  0  0  0  0  0  0  0
   47.1460   31.1230   46.8090 C   0  0  0  0  0  0  0  0  0  0  0  0
   48.1840   30.7760   46.7290 H   0  0  0  0  0  0  0  0  0  0  0  0
   46.4710   30.2770   46.5800 H   0  0  0  0  0  0  0  0  0  0  0  0
   46.7760   31.6640   48.1700 C   0  0  1  0  0  0  0  0  0  0  0  0
   46.2140   30.6810   49.1370 C   0  0  0  0  0  0  0  0  0  0  0  0
   47.5430   31.2200   49.3580 C   0  0  1  0  0  0  0  0  0  0  0  0
   46.3840   32.6970   48.1880 H   0  0  0  0  0  0  0  0  0  0  0  0
   46.1050   29.6210   48.8170 H   0  0  0  0  0  0  0  0  0  0  0  0
   45.3720   30.9880   49.8070 H   0  0  0  0  0  0  0  0  0  0  0  0
   47.6310   31.9820   50.1910 H   0  0  0  0  0  0  0  0  0  0  0  0
   48.8080   30.4810   49.1370 C   0  0  0  0  0  0  0  0  0  0  0  0
   49.6600   30.2640   50.4210 C   0  0  0  0  0  0  0  0  0  0  0  0
   50.1070   31.2730   49.4460 C   0  0  0  0  0  0  0  0  0  0  0  0
   48.8910   29.7040   48.3550 H   0  0  0  0  0  0  0  0  0  0  0  0
   49.2400   30.6430   51.3740 H   0  0  0  0  0  0  0  0  0  0  0  0
   50.2200   29.3030   50.4350 H   0  0  0  0  0  0  0  0  0  0  0  0
   49.9670   32.3480   49.6670 H   0  0  0  0  0  0  0  0  0  0  0  0
   50.9540   31.0840   48.7400 H   0  0  0  0  0  0  0  0  0  0  0  0
  2  1  2  0  0  0  0
  2 21  1  0  0  0  0
  3  9  1  0  0  0  0
  3  8  1  0  0  0  0
  4  3  2  0  0  0  0
  5  4  1  0  0  0  0
  5  6  2  0  0  0  0
  6  7  1  0  0  0  0
  7  8  2  0  0  0  0
  7  1  1  0  0  0  0
 10  4  1  0  0  0  0
 11 19  1  0  0  0  0
 11  5  1  0  0  0  0
 12 11  1  0  0  0  0
 12 13  1  0  0  0  0
 14 12  1  0  0  0  0
 15 14  1  0  0  0  0
 16 14  1  0  0  0  0
 16 17  1  0  0  0  0
 17 19  1  0  0  0  0
 18 17  1  0  0  0  0
 19 20  1  0  0  0  0
 21 24  1  0  0  0  0
 22 21  1  0  0  0  0
 23 21  1  0  0  0  0
 24 27  1  1  0  0  0
 24 25  1  0  0  0  0
 24 26  1  0  0  0  0
 25 26  1  0  0  0  0
 25 29  1  0  0  0  0
 26 30  1  1  0  0  0
 28 25  1  0  0  0  0
 31 26  1  0  0  0  0
 31 33  1  0  0  0  0
 31 32  1  0  0  0  0
 32 36  1  0  0  0  0
 32 35  1  0  0  0  0
 33 37  1  0  0  0  0
 33 32  1  0  0  0  0
 34 31  1  0  0  0  0
 38 33  1  0  0  0  0
M  END
>  <minimizedAffinity>
-5.82956314

>  <minimizedRMSD>
0.418474078

$$$$
