
 OpenBabel03252508263D

 42 46  0  0  1  0  0  0  0  0999 V2000
   46.3830   32.3950   46.1790 C   0  0  1  0  0  0  0  0  0  0  0  0
   46.8210   32.5660   47.5730 C   0  0  0  0  0  0  0  0  0  0  0  0
   45.4480   31.9030   47.1700 C   0  0  2  0  0  0  0  0  0  0  0  0
   47.2160   31.7820   45.6810 H   0  0  0  0  0  0  0  0  0  0  0  0
   47.4640   31.8490   48.1180 H   0  0  0  0  0  0  0  0  0  0  0  0
   46.7170   33.5180   48.1120 H   0  0  0  0  0  0  0  0  0  0  0  0
   44.6730   32.5550   47.6900 H   0  0  0  0  0  0  0  0  0  0  0  0
   45.2040   30.4920   47.4890 C   0  0  0  0  0  0  0  0  0  0  0  0
   45.0810   29.9200   48.7130 C   0  0  0  0  0  0  0  0  0  0  0  0
   44.9770   28.5680   48.9740 C   0  0  0  0  0  0  0  0  0  0  0  0
   45.0040   27.7150   47.8620 C   0  0  0  0  0  0  0  0  0  0  0  0
   45.1270   28.2670   46.5870 C   0  0  0  0  0  0  0  0  0  0  0  0
   45.0820   27.3900   45.5190 C   0  0  0  0  0  0  0  0  0  0  0  0
   45.1230   27.9030   44.2290 C   0  0  0  0  0  0  0  0  0  0  0  0
   45.2060   29.2640   44.0120 C   0  0  0  0  0  0  0  0  0  0  0  0
   45.2510   30.0880   45.1130 C   0  0  0  0  0  0  0  0  0  0  0  0
   45.2210   29.6290   46.4220 C   0  0  0  0  0  0  0  0  0  0  0  0
   45.0640   30.6220   49.5510 H   0  0  0  0  0  0  0  0  0  0  0  0
   44.8810   28.1830   49.9690 H   0  0  0  0  0  0  0  0  0  0  0  0
   44.9280   26.6560   48.0470 H   0  0  0  0  0  0  0  0  0  0  0  0
   45.0130   26.3210   45.7230 H   0  0  0  0  0  0  0  0  0  0  0  0
   45.0840   27.1190   43.4670 H   0  0  0  0  0  0  0  0  0  0  0  0
   45.2230   29.4590   42.9690 H   0  0  0  0  0  0  0  0  0  0  0  0
   45.2240   31.0570   44.7020 H   0  0  0  0  0  0  0  0  0  0  0  0
   44.6650   35.4440   45.0040 C   0  0  0  0  0  0  0  0  0  0  0  0
   45.2960   35.6740   43.7310 C   0  0  0  0  0  0  0  0  0  0  0  0
   46.3200   34.7590   43.3230 C   0  0  0  0  0  0  0  0  0  0  0  0
   46.6430   33.7440   44.1270 N   0  0  0  0  0  0  0  0  0  0  0  0
   46.0060   33.5690   45.3360 C   0  0  0  0  0  0  0  0  0  0  0  0
   45.0510   34.3910   45.7590 N   0  0  0  0  0  0  0  0  0  0  0  0
   43.9140   36.1650   45.2380 H   0  0  0  0  0  0  0  0  0  0  0  0
   45.0540   36.4730   43.0790 H   0  0  0  0  0  0  0  0  0  0  0  0
   47.0180   34.9120   42.0440 C   0  0  0  0  0  3  0  0  0  0  0  0
   46.8540   33.7070   41.1290 C   0  0  0  0  0  3  0  0  0  0  0  0
   46.9110   32.7490   41.6630 H   0  0  0  0  0  0  0  0  0  0  0  0
   47.9640   33.8530   40.0830 C   0  0  0  0  0  3  0  0  0  0  0  0
   47.5920   33.5100   39.0950 H   0  0  0  0  0  0  0  0  0  0  0  0
   48.3140   35.1940   39.9020 O   0  0  0  0  0  0  0  0  0  0  0  0
   49.0550   35.7040   40.9630 C   0  0  0  0  0  3  0  0  0  0  0  0
   50.1370   35.6390   40.8340 H   0  0  0  0  0  0  0  0  0  0  0  0
   48.5260   35.0800   42.2300 C   0  0  0  0  0  3  0  0  0  0  0  0
   48.7100   35.6850   43.1220 H   0  0  0  0  0  0  0  0  0  0  0  0
  1  4  1  6  0  0  0
  1  3  1  0  0  0  0
  1  2  1  0  0  0  0
  2  6  1  0  0  0  0
  2  5  1  0  0  0  0
  3  8  1  0  0  0  0
  3  2  1  0  0  0  0
  3  7  1  1  0  0  0
  8  9  1  0  0  0  0
  9 10  2  0  0  0  0
  9 18  1  0  0  0  0
 10 19  1  0  0  0  0
 11 20  1  0  0  0  0
 11 10  1  0  0  0  0
 12 11  2  0  0  0  0
 13 21  1  0  0  0  0
 13 12  1  0  0  0  0
 14 13  2  0  0  0  0
 15 14  1  0  0  0  0
 15 16  2  0  0  0  0
 16 17  1  0  0  0  0
 17 12  1  0  0  0  0
 17  8  2  0  0  0  0
 22 14  1  0  0  0  0
 23 15  1  0  0  0  0
 24 16  1  0  0  0  0
 25 31  1  0  0  0  0
 25 30  1  0  0  0  0
 26 25  2  0  0  0  0
 27 26  1  0  0  0  0
 27 28  2  0  0  0  0
 28 29  1  0  0  0  0
 29 30  2  0  0  0  0
 29  1  1  0  0  0  0
 32 26  1  0  0  0  0
 33 41  1  0  0  0  0
 33 27  1  0  0  0  0
 34 35  1  0  0  0  0
 34 33  1  0  0  0  0
 36 34  1  0  0  0  0
 37 36  1  0  0  0  0
 38 36  1  0  0  0  0
 38 39  1  0  0  0  0
 39 41  1  0  0  0  0
 40 39  1  0  0  0  0
 41 42  1  0  0  0  0
M  END
>  <minimizedAffinity>
-5.88833332

>  <minimizedRMSD>
0.495407432

$$$$
