REMARK  Name = 
REMARK  8 active torsions:
REMARK  status: ('A' for Active; 'I' for Inactive)
REMARK    1  A    between atoms: P_2  and  O_3
REMARK    2  A    between atoms: P_2  and  O_4
REMARK    3  A    between atoms: P_2  and  O_12
REMARK    4  A    between atoms: O_4  and  C_5
REMARK    5  A    between atoms: C_5  and  C_8
REMARK    6  A    between atoms: O_12  and  C_13
REMARK    7  A    between atoms: C_17  and  C_18
REMARK    8  A    between atoms: C_18  and  C_35
REMARK                            x       y       z     vdW  Elec       q    Type
REMARK                         _______ _______ _______ _____ _____    ______ ____
ROOT
ATOM      1  C   UNL     1      46.934  34.081  42.283  0.00  0.00    +0.000 C 
ATOM      2  C   UNL     1      46.401  34.265  40.876  0.00  0.00    +0.000 C 
ATOM      3  C   UNL     1      47.337  33.370  40.097  0.00  0.00    +0.000 C 
ATOM      4  C   UNL     1      48.627  33.335  40.876  0.00  0.00    +0.000 C 
ATOM      5  C   UNL     1      48.426  34.305  42.047  0.00  0.00    +0.000 C 
ATOM      6  H   UNL     1      46.773  33.050  42.587  0.00  0.00    +0.000 HD
ATOM      7  H   UNL     1      45.392  33.770  40.808  0.00  0.00    +0.000 HD
ATOM      8  H   UNL     1      46.385  35.305  40.563  0.00  0.00    +0.000 HD
ATOM      9  H   UNL     1      46.909  32.343  39.944  0.00  0.00    +0.000 HD
ATOM     10  H   UNL     1      47.536  33.779  39.089  0.00  0.00    +0.000 HD
ATOM     11  H   UNL     1      48.826  32.333  41.315  0.00  0.00    +0.000 HD
ATOM     12  H   UNL     1      49.512  33.641  40.331  0.00  0.00    +0.000 HD
ATOM     13  H   UNL     1      49.012  34.003  42.920  0.00  0.00    +0.000 HD
ENDROOT
BRANCH   5  14
ATOM     14  C   UNL     1      48.754  35.717  41.714  0.00  0.00    +0.000 C 
ATOM     15  H   UNL     1      48.372  36.373  42.536  0.00  0.00    +0.000 HD
ATOM     16  H   UNL     1      48.267  36.052  40.749  0.00  0.00    +0.000 HD
BRANCH  14  17
ATOM     17  C   UNL     1      50.223  35.858  41.519  0.00  0.00    +0.000 C 
ATOM     18  C   UNL     1      50.715  34.980  40.387  0.00  0.00    +0.000 C 
ATOM     19  H   UNL     1      49.965  34.234  40.083  0.00  0.00    +0.000 HD
ATOM     20  C   UNL     1      51.963  34.210  40.755  0.00  0.00    +0.000 C 
ATOM     21  H   UNL     1      51.665  33.296  41.310  0.00  0.00    +0.000 HD
ATOM     22  O   UNL     1      52.935  34.962  41.367  0.00  0.00    +0.000 OA
ATOM     23  C   UNL     1      52.470  35.762  42.404  0.00  0.00    +0.000 C 
ATOM     24  H   UNL     1      52.427  36.801  41.968  0.00  0.00    +0.000 HD
ATOM     25  C   UNL     1      51.017  35.424  42.743  0.00  0.00    +0.000 C 
ATOM     26  H   UNL     1      50.975  34.349  42.915  0.00  0.00    +0.000 HD
ENDBRANCH  14  17
ENDBRANCH   5  14
BRANCH   1  27
ATOM     27  O   UNL     1      46.411  35.032  43.163  0.00  0.00    +0.000 OA
BRANCH  27  29
ATOM     28  O   UNL     1      44.675  35.286  45.074  0.00  0.00    +0.000 OA
ATOM     29  P   UNL     1      45.489  34.258  44.339  0.00  0.00    +0.000 P 
BRANCH  29  30
ATOM     30  O   UNL     1      44.531  33.058  43.646  0.00  0.00    +0.000 OA
ATOM     31  H   UNL     1      43.576  33.255  43.905  0.00  0.00    +0.000 HD
ENDBRANCH  29  30
BRANCH  29  32
ATOM     32  O   UNL     1      46.515  33.463  45.406  0.00  0.00    +0.000 OA
BRANCH  32  33
ATOM     33  C   UNL     1      46.203  32.143  45.422  0.00  0.00    +0.000 C 
ATOM     34  H   UNL     1      45.459  31.768  44.729  0.00  0.00    +0.000 HD
ATOM     35  H   UNL     1      47.156  31.602  45.139  0.00  0.00    +0.000 HD
BRANCH  33  38
ATOM     36  C   UNL     1      45.759  32.040  49.116  0.00  0.00    +0.000 A 
ATOM     37  C   UNL     1      46.055  32.526  47.835  0.00  0.00    +0.000 A 
ATOM     38  C   UNL     1      45.891  31.649  46.776  0.00  0.00    +0.000 A 
ATOM     39  N   UNL     1      45.455  30.372  47.024  0.00  0.00    +0.000 NA
ATOM     40  C   UNL     1      45.180  29.939  48.265  0.00  0.00    +0.000 A 
ATOM     41  N   UNL     1      45.331  30.766  49.297  0.00  0.00    +0.000 NA
ATOM     42  H   UNL     1      45.874  32.695  49.969  0.00  0.00    +0.000 HD
ATOM     43  H   UNL     1      46.396  33.541  47.687  0.00  0.00    +0.000 HD
ATOM     44  H   UNL     1      44.837  28.931  48.461  0.00  0.00    +0.000 HD
ENDBRANCH  33  38
ENDBRANCH  32  33
ENDBRANCH  29  32
ENDBRANCH  27  29
ENDBRANCH   1  27
TORSDOF 8
