REMARK  Name = 
REMARK  3 active torsions:
REMARK  status: ('A' for Active; 'I' for Inactive)
REMARK    1  A    between atoms: C_1  and  C_18
REMARK    2  A    between atoms: C_3  and  C_4
REMARK    3  A    between atoms: C_16  and  C_33
REMARK                            x       y       z     vdW  Elec       q    Type
REMARK                         _______ _______ _______ _____ _____    ______ ____
ROOT
ATOM      1  C   UNL     1      46.387  32.669  45.865  0.00  0.00    +0.000 C 
ATOM      2  C   UNL     1      46.975  32.833  47.203  0.00  0.00    +0.000 C 
ATOM      3  C   UNL     1      45.549  32.207  46.953  0.00  0.00    +0.000 C 
ATOM      4  H   UNL     1      47.145  32.031  45.285  0.00  0.00    +0.000 HD
ATOM      5  H   UNL     1      47.652  32.100  47.682  0.00  0.00    +0.000 HD
ATOM      6  H   UNL     1      46.955  33.789  47.744  0.00  0.00    +0.000 HD
ATOM      7  H   UNL     1      44.852  32.882  47.548  0.00  0.00    +0.000 HD
ENDROOT
BRANCH   3   8
ATOM      8  C   UNL     1      45.302  30.805  47.305  0.00  0.00    +0.000 A 
ATOM      9  C   UNL     1      45.166  30.264  48.542  0.00  0.00    +0.000 A 
ATOM     10  C   UNL     1      45.059  28.919  48.836  0.00  0.00    +0.000 A 
ATOM     11  C   UNL     1      45.097  28.038  47.747  0.00  0.00    +0.000 A 
ATOM     12  C   UNL     1      45.233  28.557  46.459  0.00  0.00    +0.000 A 
ATOM     13  C   UNL     1      45.198  27.653  45.413  0.00  0.00    +0.000 A 
ATOM     14  C   UNL     1      45.253  28.133  44.111  0.00  0.00    +0.000 A 
ATOM     15  C   UNL     1      45.338  29.488  43.861  0.00  0.00    +0.000 A 
ATOM     16  C   UNL     1      45.372  30.340  44.941  0.00  0.00    +0.000 A 
ATOM     17  C   UNL     1      45.329  29.915  46.261  0.00  0.00    +0.000 A 
ATOM     18  H   UNL     1      45.141  30.987  49.361  0.00  0.00    +0.000 HD
ATOM     19  H   UNL     1      44.953  28.560  49.840  0.00  0.00    +0.000 HD
ATOM     20  H   UNL     1      45.019  26.984  47.958  0.00  0.00    +0.000 HD
ATOM     21  H   UNL     1      45.127  26.590  45.644  0.00  0.00    +0.000 HD
ATOM     22  H   UNL     1      45.221  27.330  43.369  0.00  0.00    +0.000 HD
ATOM     23  H   UNL     1      45.366  29.657  42.813  0.00  0.00    +0.000 HD
ATOM     24  H   UNL     1      45.350  31.298  44.505  0.00  0.00    +0.000 HD
ENDBRANCH   3   8
BRANCH   1  29
ATOM     25  C   UNL     1      44.611  35.740  44.843  0.00  0.00    +0.000 A 
ATOM     26  C   UNL     1      45.139  35.968  43.523  0.00  0.00    +0.000 A 
ATOM     27  C   UNL     1      46.116  35.044  43.030  0.00  0.00    +0.000 A 
ATOM     28  N   UNL     1      46.493  34.023  43.802  0.00  0.00    +0.000 NA
ATOM     29  C   UNL     1      45.955  33.850  45.059  0.00  0.00    +0.000 A 
ATOM     30  N   UNL     1      45.046  34.680  45.561  0.00  0.00    +0.000 NA
ATOM     31  H   UNL     1      43.890  36.468  45.139  0.00  0.00    +0.000 HD
ATOM     32  H   UNL     1      44.853  36.772  42.895  0.00  0.00    +0.000 HD
BRANCH  27  33
ATOM     33  C   UNL     1      46.709  35.195  41.699  0.00  0.00    +0.000 C 
ATOM     34  C   UNL     1      45.765  34.786  40.578  0.00  0.00    +0.000 C 
ATOM     35  H   UNL     1      45.184  33.883  40.809  0.00  0.00    +0.000 HD
ATOM     36  C   UNL     1      46.665  34.596  39.353  0.00  0.00    +0.000 C 
ATOM     37  H   UNL     1      46.136  34.945  38.444  0.00  0.00    +0.000 HD
ATOM     38  O   UNL     1      47.814  35.389  39.443  0.00  0.00    +0.000 OA
ATOM     39  C   UNL     1      48.731  34.904  40.368  0.00  0.00    +0.000 C 
ATOM     40  H   UNL     1      49.493  34.245  39.949  0.00  0.00    +0.000 HD
ATOM     41  C   UNL     1      47.953  34.324  41.523  0.00  0.00    +0.000 C 
ATOM     42  H   UNL     1      48.512  34.308  42.461  0.00  0.00    +0.000 HD
ENDBRANCH  27  33
ENDBRANCH   1  29
TORSDOF 3
