
 OpenBabel03252506473D

 43 46  0  0  1  0  0  0  0  0999 V2000
   49.3770   33.3880   41.3710 N   0  0  1  0  0  0  0  0  0  0  0  0
   50.6510   33.0920   42.0110 C   0  0  0  0  0  0  0  0  0  0  0  0
   51.2290   31.7730   41.5920 C   0  0  0  0  0  0  0  0  0  0  0  0
   50.3420   30.6690   42.1470 C   0  0  0  0  0  0  0  0  0  0  0  0
   48.8900   31.0760   42.0750 C   0  0  0  0  0  0  0  0  0  0  0  0
   48.7250   32.1650   41.0430 C   0  0  2  0  0  0  0  0  0  0  0  0
   50.5790   33.0820   43.1130 H   0  0  0  0  0  0  0  0  0  0  0  0
   51.3600   33.9040   41.7360 H   0  0  0  0  0  0  0  0  0  0  0  0
   52.2260   31.7040   42.0650 H   0  0  0  0  0  0  0  0  0  0  0  0
   51.3480   31.6840   40.4870 H   0  0  0  0  0  0  0  0  0  0  0  0
   50.6560   30.3540   43.1550 H   0  0  0  0  0  0  0  0  0  0  0  0
   50.5000   29.7970   41.4780 H   0  0  0  0  0  0  0  0  0  0  0  0
   48.2190   30.2500   41.8770 H   0  0  0  0  0  0  0  0  0  0  0  0
   48.6390   31.5250   43.0700 H   0  0  0  0  0  0  0  0  0  0  0  0
   47.6270   32.3940   41.0140 H   0  0  0  0  0  0  0  0  0  0  0  0
   47.2780   34.7410   41.9880 C   0  0  1  0  0  0  0  0  0  0  0  0
   48.4110   35.6330   41.7720 C   0  0  0  0  0  0  0  0  0  0  0  0
   48.6810   34.2530   42.2690 C   0  0  2  0  0  0  0  0  0  0  0  0
   46.8180   34.1800   41.1310 H   0  0  0  0  0  0  0  0  0  0  0  0
   48.6980   35.8880   40.7260 H   0  0  0  0  0  0  0  0  0  0  0  0
   48.5570   36.4880   42.4750 H   0  0  0  0  0  0  0  0  0  0  0  0
   48.9370   34.1570   43.3440 H   0  0  0  0  0  0  0  0  0  0  0  0
   45.5300   36.0920   43.1710 C   0  0  0  0  0  0  0  0  0  0  0  0
   46.3510   34.9400   43.1090 C   0  0  0  0  0  0  0  0  0  0  0  0
   46.2360   34.0170   44.1470 C   0  0  0  0  0  0  0  0  0  0  0  0
   45.3550   34.2750   45.1420 N   0  0  0  0  0  0  0  0  0  0  0  0
   44.5870   35.3710   45.1820 C   0  0  0  0  0  0  0  0  0  0  0  0
   44.6650   36.2970   44.1930 N   0  0  0  0  0  0  0  0  0  0  0  0
   45.5950   36.8390   42.3700 H   0  0  0  0  0  0  0  0  0  0  0  0
   46.8490   33.1150   44.1400 H   0  0  0  0  0  0  0  0  0  0  0  0
   43.8820   35.5820   45.9750 H   0  0  0  0  0  0  0  0  0  0  0  0
   49.0660   31.6750   39.7410 N   0  0  0  0  0  0  0  0  0  0  0  0
   50.0100   32.0250   39.4800 H   0  0  0  0  0  0  0  0  0  0  0  0
   48.0780   31.7330   38.7560 C   0  0  0  0  0  3  0  0  0  0  0  0
   48.7220   31.3480   37.4220 C   0  0  0  0  0  3  0  0  0  0  0  0
   47.9630   31.0180   36.7050 H   0  0  0  0  0  0  0  0  0  0  0  0
   49.4180   32.5610   36.8100 C   0  0  0  0  0  3  0  0  0  0  0  0
   49.7850   32.2490   35.8170 H   0  0  0  0  0  0  0  0  0  0  0  0
   48.5500   33.6370   36.6370 O   0  0  0  0  0  0  0  0  0  0  0  0
   48.2250   34.1000   37.9220 C   0  0  0  0  0  3  0  0  0  0  0  0
   49.1170   34.3280   38.5340 H   0  0  0  0  0  0  0  0  0  0  0  0
   47.3570   33.0150   38.5460 C   0  0  0  0  0  3  0  0  0  0  0  0
   46.5770   32.8000   37.7670 H   0  0  0  0  0  0  0  0  0  0  0  0
  1  2  1  1  0  0  0
  1 18  1  0  0  0  0
  2  7  1  0  0  0  0
  3  2  1  0  0  0  0
  3  9  1  0  0  0  0
  3  4  1  0  0  0  0
  4 11  1  0  0  0  0
  5  4  1  0  0  0  0
  5 14  1  0  0  0  0
  6 15  1  6  0  0  0
  6  1  1  0  0  0  0
  6  5  1  0  0  0  0
  8  2  1  0  0  0  0
 10  3  1  0  0  0  0
 12  4  1  0  0  0  0
 13  5  1  0  0  0  0
 16 19  1  6  0  0  0
 16 18  1  0  0  0  0
 16 24  1  0  0  0  0
 17 16  1  0  0  0  0
 17 18  1  0  0  0  0
 17 21  1  0  0  0  0
 18 22  1  1  0  0  0
 20 17  1  0  0  0  0
 23 28  1  0  0  0  0
 24 23  2  0  0  0  0
 24 25  1  0  0  0  0
 25 26  2  0  0  0  0
 26 27  1  0  0  0  0
 27 31  1  0  0  0  0
 28 27  2  0  0  0  0
 29 23  1  0  0  0  0
 30 25  1  0  0  0  0
 32  6  1  0  0  0  0
 33 32  1  0  0  0  0
 34 32  1  0  0  0  0
 35 34  1  0  0  0  0
 36 35  1  0  0  0  0
 37 35  1  0  0  0  0
 38 37  1  0  0  0  0
 39 37  1  0  0  0  0
 39 40  1  0  0  0  0
 40 41  1  0  0  0  0
 40 42  1  0  0  0  0
 42 34  1  0  0  0  0
 43 42  1  0  0  0  0
M  END
>  <minimizedAffinity>
-5.15798712

>  <minimizedRMSD>
2.35347366

$$$$
