
     RDKit          3D

 29 30  0  0  0  0  0  0  0  0999 V2000
   44.4194   35.8069   44.6988 C   0  0  0  0  0  0  0  0  0  0  0  0
   44.6715   35.4886   43.3580 C   0  0  0  0  0  0  0  0  0  0  0  0
   45.3649   34.3277   43.0994 C   0  0  0  0  0  0  0  0  0  0  0  0
   45.7719   33.5480   44.1315 N   0  0  0  0  0  0  0  0  0  0  0  0
   45.5149   33.8803   45.4050 C   0  0  0  0  0  0  0  0  0  0  0  0
   44.8392   35.0085   45.6928 N   0  0  0  0  0  0  0  0  0  0  0  0
   44.1790   36.4075   42.4064 N   0  0  0  0  0  0  0  0  0  0  0  0
   45.9402   33.0586   46.5672 C   0  0  0  0  0  0  0  0  0  0  0  0
   43.8816   36.7014   44.9685 H   0  0  0  0  0  0  0  0  0  0  0  0
   45.5423   34.1109   42.0691 H   0  0  0  0  0  0  0  0  0  0  0  0
   43.3609   36.0716   41.8235 H   0  0  0  0  0  0  0  0  0  0  0  0
   44.6779   37.3299   42.3774 H   0  0  0  0  0  0  0  0  0  0  0  0
   46.8397   32.4348   46.3259 H   0  0  0  0  0  0  0  0  0  0  0  0
   46.1060   33.6647   47.4724 H   0  0  0  0  0  0  0  0  0  0  0  0
   44.8311   32.0937   46.8480 C   0  0  2  0  0  0  0  0  0  0  0  0
   44.7886   31.7560   48.3152 C   0  0  1  0  0  0  0  0  0  0  0  0
   45.8125   31.5684   48.6529 H   0  0  0  0  0  0  0  0  0  0  0  0
   43.8377   30.6280   48.6150 C   0  0  1  0  0  0  0  0  0  0  0  0
   44.1213   30.2182   49.6132 H   0  0  0  0  0  0  0  0  0  0  0  0
   43.9276   29.5875   47.7100 O   0  0  0  0  0  0  0  0  0  0  0  0
   43.7399   29.9833   46.3996 C   0  0  2  0  0  0  0  0  0  0  0  0
   42.8765   30.6643   46.2433 H   0  0  0  0  0  0  0  0  0  0  0  0
   44.9645   30.8256   46.0192 C   0  0  2  0  0  0  0  0  0  0  0  0
   45.9076   30.3353   46.3554 H   0  0  0  0  0  0  0  0  0  0  0  0
   43.8232   32.5017   46.6002 H   0  0  0  0  0  0  0  0  0  0  0  0
   44.4191   32.6670   48.8457 H   0  0  0  0  0  0  0  0  0  0  0  0
   42.7935   31.0307   48.7140 H   0  0  0  0  0  0  0  0  0  0  0  0
   43.6621   29.1126   45.7500 H   0  0  0  0  0  0  0  0  0  0  0  0
   44.9534   31.0596   44.9519 H   0  0  0  0  0  0  0  0  0  0  0  0
  1  6  2  0
  2  1  1  0
  3  2  2  0
  3  4  1  0
  4  5  2  0
  5  6  1  0
  5  8  1  0
  7  2  1  0
  1  9  1  0
  3 10  1  0
  7 11  1  0
  7 12  1  0
  8 13  1  0
  8 14  1  0
 15 16  1  0
 16 17  1  1
 16 18  1  0
 18 19  1  1
 18 20  1  0
 20 21  1  0
 21 22  1  1
 21 23  1  0
 23 24  1  1
 23 15  1  0
 15 25  1  6
 16 26  1  0
 18 27  1  0
 21 28  1  0
 23 29  1  0
  8 15  1  0
M  ISO  8   9  14  10  14  13   8  14   8  17  15  19  15  22  15  24  15
M  END
>  <DihAtoms>  (1) 
4,7,14,15

>  <DihDeg>  (1) 
-179.99908784815403

$$$$
