
 OpenBabel03252508153D

 38 41  0  0  1  0  0  0  0  0999 V2000
   45.7340   32.8550   45.9960 C   0  0  0  0  0  3  0  0  0  0  0  0
   45.9220   31.6220   45.7280 C   0  0  0  0  0  3  0  0  0  0  0  0
   44.8530   35.8160   43.9870 C   0  0  0  0  0  0  0  0  0  0  0  0
   45.3070   35.4910   42.7170 C   0  0  0  0  0  0  0  0  0  0  0  0
   45.9160   34.2570   42.5730 C   0  0  0  0  0  0  0  0  0  0  0  0
   46.0190   33.4810   43.6580 N   0  0  0  0  0  0  0  0  0  0  0  0
   45.5870   33.7870   44.8780 C   0  0  0  0  0  0  0  0  0  0  0  0
   45.0030   34.9770   45.0060 N   0  0  0  0  0  0  0  0  0  0  0  0
   44.3750   36.7740   44.1230 H   0  0  0  0  0  0  0  0  0  0  0  0
   45.2170   36.1200   41.8560 H   0  0  0  0  0  0  0  0  0  0  0  0
   46.4530   33.7490   41.3080 C   0  0  0  0  0  3  0  0  0  0  0  0
   47.5390   34.6740   40.7400 C   0  0  0  0  0  3  0  0  0  0  0  0
   47.0980   35.5850   40.3270 H   0  0  0  0  0  0  0  0  0  0  0  0
   48.1850   33.8710   39.6270 C   0  0  0  0  0  3  0  0  0  0  0  0
   48.6250   34.5580   38.8890 H   0  0  0  0  0  0  0  0  0  0  0  0
   47.3530   32.9050   39.1180 O   0  0  0  0  0  0  0  0  0  0  0  0
   46.0270   33.2820   38.9740 C   0  0  0  0  0  3  0  0  0  0  0  0
   45.4880   32.3460   38.6600 H   0  0  0  0  0  0  0  0  0  0  0  0
   45.3720   33.7400   40.2440 C   0  0  0  0  0  3  0  0  0  0  0  0
   45.0680   34.8110   40.0910 H   0  0  0  0  0  0  0  0  0  0  0  0
   46.0630   30.7100   46.9410 C   0  0  0  0  0  0  0  0  0  0  0  0
   46.9890   30.1260   46.8760 H   0  0  0  0  0  0  0  0  0  0  0  0
   45.2030   30.0180   46.8850 H   0  0  0  0  0  0  0  0  0  0  0  0
   45.9300   31.5230   48.2080 C   0  0  1  0  0  0  0  0  0  0  0  0
   45.6940   30.7530   49.4600 C   0  0  0  0  0  0  0  0  0  0  0  0
   46.9720   31.4060   49.2540 C   0  0  1  0  0  0  0  0  0  0  0  0
   45.4400   32.5080   48.0990 H   0  0  0  0  0  0  0  0  0  0  0  0
   45.6360   29.6440   49.4010 H   0  0  0  0  0  0  0  0  0  0  0  0
   44.9830   31.1520   50.2250 H   0  0  0  0  0  0  0  0  0  0  0  0
   47.1490   32.3420   49.8680 H   0  0  0  0  0  0  0  0  0  0  0  0
   48.2360   30.7140   48.9080 C   0  0  0  0  0  0  0  0  0  0  0  0
   49.1780   30.4500   50.1180 C   0  0  0  0  0  0  0  0  0  0  0  0
   49.5350   31.5220   49.1740 C   0  0  0  0  0  0  0  0  0  0  0  0
   48.2830   29.9830   48.0800 H   0  0  0  0  0  0  0  0  0  0  0  0
   48.8160   30.7660   51.1170 H   0  0  0  0  0  0  0  0  0  0  0  0
   49.7590   29.5050   50.0420 H   0  0  0  0  0  0  0  0  0  0  0  0
   49.3860   32.5790   49.4630 H   0  0  0  0  0  0  0  0  0  0  0  0
   50.3360   31.3930   48.4040 H   0  0  0  0  0  0  0  0  0  0  0  0
  2  1  2  0  0  0  0
  2 21  1  0  0  0  0
  3  9  1  0  0  0  0
  3  8  1  0  0  0  0
  4  3  2  0  0  0  0
  5  4  1  0  0  0  0
  5  6  2  0  0  0  0
  6  7  1  0  0  0  0
  7  8  2  0  0  0  0
  7  1  1  0  0  0  0
 10  4  1  0  0  0  0
 11  5  1  0  0  0  0
 12 11  1  0  0  0  0
 13 12  1  0  0  0  0
 14 12  1  0  0  0  0
 15 14  1  0  0  0  0
 16 14  1  0  0  0  0
 17 16  1  0  0  0  0
 17 19  1  0  0  0  0
 18 17  1  0  0  0  0
 19 11  1  0  0  0  0
 20 19  1  0  0  0  0
 21 24  1  0  0  0  0
 22 21  1  0  0  0  0
 23 21  1  0  0  0  0
 24 27  1  6  0  0  0
 24 26  1  0  0  0  0
 24 25  1  0  0  0  0
 25 29  1  0  0  0  0
 26 25  1  0  0  0  0
 26 30  1  1  0  0  0
 28 25  1  0  0  0  0
 31 33  1  0  0  0  0
 31 26  1  0  0  0  0
 31 32  1  0  0  0  0
 32 35  1  0  0  0  0
 33 37  1  0  0  0  0
 33 32  1  0  0  0  0
 34 31  1  0  0  0  0
 36 32  1  0  0  0  0
 38 33  1  0  0  0  0
M  END
>  <minimizedAffinity>
-5.01624823

>  <minimizedRMSD>
1.15784824

$$$$
