
 OpenBabel03252504333D

 41 43  0  0  0  0  0  0  0  0999 V2000
   41.3010   35.5510   41.2460 C   0  0  0  0  0  0  0  0  0  0  0  0
   41.3280   35.6290   42.3670 H   0  0  0  0  0  0  0  0  0  0  0  0
   40.7530   36.4810   40.9260 H   0  0  0  0  0  0  0  0  0  0  0  0
   40.6010   33.2630   41.6790 C   0  0  0  0  0  0  0  0  0  0  0  0
   40.3130   34.4520   40.9990 C   0  0  0  0  0  0  0  0  0  0  0  0
   39.2090   34.5150   40.2260 C   0  0  0  0  0  0  0  0  0  0  0  0
   38.4610   33.4100   40.1730 N   0  0  0  0  0  0  0  0  0  0  0  0
   38.7100   32.2760   40.8050 C   0  0  0  0  0  0  0  0  0  0  0  0
   39.8400   32.1550   41.6190 N   0  0  0  0  0  0  0  0  0  0  0  0
   41.4780   33.1630   42.3120 H   0  0  0  0  0  0  0  0  0  0  0  0
   39.0180   35.4350   39.7200 H   0  0  0  0  0  0  0  0  0  0  0  0
   37.8660   31.0530   40.7370 C   0  0  0  0  0  0  0  0  0  0  0  0
   38.3160   30.0380   41.7950 C   0  0  0  0  0  0  0  0  0  0  0  0
   38.0070   30.4590   42.7730 H   0  0  0  0  0  0  0  0  0  0  0  0
   37.7940   28.6700   41.5040 C   0  0  0  0  0  0  0  0  0  0  0  0
   37.4780   28.2400   42.4880 H   0  0  0  0  0  0  0  0  0  0  0  0
   36.7330   28.7790   40.6190 O   0  0  0  0  0  0  0  0  0  0  0  0
   37.3180   29.0790   39.3740 C   0  0  0  0  0  0  0  0  0  0  0  0
   38.0700   28.2510   39.2300 H   0  0  0  0  0  0  0  0  0  0  0  0
   38.0090   30.4050   39.3850 C   0  0  0  0  0  0  0  0  0  0  0  0
   39.0880   30.2810   39.1980 H   0  0  0  0  0  0  0  0  0  0  0  0
   42.4830   35.3890   40.6010 O   0  0  0  0  0  0  0  0  0  0  0  0
   43.7510   35.3330   41.1520 C   0  0  0  0  0  0  0  0  0  0  0  0
   43.8490   35.5930   42.4500 C   0  0  0  0  0  0  0  0  0  0  0  0
   45.1270   35.5890   43.2680 C   0  0  0  0  0  0  0  0  0  0  0  0
   45.3810   36.6080   43.6170 H   0  0  0  0  0  0  0  0  0  0  0  0
   45.9130   35.2150   42.5790 H   0  0  0  0  0  0  0  0  0  0  0  0
   44.9570   34.6800   44.2940 O   0  0  0  0  0  0  0  0  0  0  0  0
   45.6900   32.5670   42.8470 O   0  0  0  0  0  0  0  0  0  0  0  0
   45.9820   33.3540   44.1030 P   0  0  1  0  0  0  0  0  0  0  0  0
   47.6020   33.8720   43.9960 O   0  0  0  0  0  0  0  0  0  0  0  0
   48.1050   33.2240   43.4480 H   0  0  0  0  0  0  0  0  0  0  0  0
   45.8790   32.3470   45.4530 O   0  0  0  0  0  0  0  0  0  0  0  0
   46.1560   33.0140   46.6310 C   0  0  0  0  0  0  0  0  0  0  0  0
   47.0380   32.3530   47.6430 C   0  0  0  0  0  0  0  0  0  0  0  0
   45.5360   32.4050   47.8680 C   0  0  0  0  0  0  0  0  0  0  0  0
   46.2350   34.1000   46.5640 H   0  0  0  0  0  0  0  0  0  0  0  0
   47.5210   31.3980   47.4210 H   0  0  0  0  0  0  0  0  0  0  0  0
   47.6330   33.0210   48.2960 H   0  0  0  0  0  0  0  0  0  0  0  0
   45.1670   33.0770   48.6630 H   0  0  0  0  0  0  0  0  0  0  0  0
   45.0480   31.4120   47.7940 H   0  0  0  0  0  0  0  0  0  0  0  0
  1  2  1  0  0  0  0
  3  1  1  0  0  0  0
  4 10  1  0  0  0  0
  5  1  1  0  0  0  0
  5  4  2  0  0  0  0
  6  5  1  0  0  0  0
  7  6  2  0  0  0  0
  7  8  1  0  0  0  0
  8  9  2  0  0  0  0
  9  4  1  0  0  0  0
 11  6  1  0  0  0  0
 12  8  1  0  0  0  0
 12 13  1  0  0  0  0
 13 14  1  0  0  0  0
 15 13  1  0  0  0  0
 15 16  1  0  0  0  0
 17 15  1  0  0  0  0
 18 20  1  0  0  0  0
 18 17  1  0  0  0  0
 19 18  1  0  0  0  0
 20 12  1  0  0  0  0
 21 20  1  0  0  0  0
 22 23  1  0  0  0  0
 22  1  1  0  0  0  0
 23 24  2  0  0  0  0
 24 25  1  0  0  0  0
 25 26  1  0  0  0  0
 25 28  1  0  0  0  0
 27 25  1  0  0  0  0
 30 29  2  6  0  0  0
 30 28  1  0  0  0  0
 30 33  1  0  0  0  0
 31 30  1  0  0  0  0
 32 31  1  0  0  0  0
 33 34  1  0  0  0  0
 34 35  1  0  0  0  0
 34 36  1  0  0  0  0
 35 36  1  0  0  0  0
 35 39  1  0  0  0  0
 36 40  1  0  0  0  0
 37 34  1  0  0  0  0
 38 35  1  0  0  0  0
 41 36  1  0  0  0  0
M  END
>  <minimizedAffinity>
-5.24708366

>  <minimizedRMSD>
0.840611875

$$$$
