
 OpenBabel03242513503D

 32 34  0  0  1  0  0  0  0  0999 V2000
   47.7050   33.5160   42.8480 C   0  0  2  0  0  0  0  0  0  0  0  0
   49.0670   34.0910   43.0890 C   0  0  0  0  0  0  0  0  0  0  0  0
   49.2640   34.9040   41.8270 C   0  0  0  0  0  0  0  0  0  0  0  0
   47.8650   35.3400   41.4130 C   0  0  0  0  0  0  0  0  0  0  0  0
   46.9600   34.8070   42.4890 C   0  0  1  0  0  0  0  0  0  0  0  0
   47.7100   32.8550   41.9850 H   0  0  0  0  0  0  0  0  0  0  0  0
   49.7780   33.2410   43.0660 H   0  0  0  0  0  0  0  0  0  0  0  0
   49.1480   34.6830   44.0000 H   0  0  0  0  0  0  0  0  0  0  0  0
   49.7750   34.3060   41.0450 H   0  0  0  0  0  0  0  0  0  0  0  0
   49.8700   35.7880   42.1420 H   0  0  0  0  0  0  0  0  0  0  0  0
   47.8250   36.4480   41.4580 H   0  0  0  0  0  0  0  0  0  0  0  0
   47.7060   34.9450   40.4140 H   0  0  0  0  0  0  0  0  0  0  0  0
   47.0010   35.4900   43.3510 H   0  0  0  0  0  0  0  0  0  0  0  0
   45.5900   34.4570   42.0430 C   0  0  0  0  0  0  0  0  0  0  0  0
   44.6430   35.6050   42.3780 C   0  0  0  0  0  0  0  0  0  0  0  0
   44.4900   35.6530   43.4760 H   0  0  0  0  0  0  0  0  0  0  0  0
   43.2860   35.3860   41.7480 C   0  0  0  0  0  0  0  0  0  0  0  0
   42.7380   36.3480   41.8260 H   0  0  0  0  0  0  0  0  0  0  0  0
   43.3260   35.0640   40.4130 O   0  0  0  0  0  0  0  0  0  0  0  0
   44.0000   33.8540   40.2670 C   0  0  0  0  0  0  0  0  0  0  0  0
   43.9570   33.5430   39.1930 H   0  0  0  0  0  0  0  0  0  0  0  0
   45.4640   34.1020   40.5880 C   0  0  0  0  0  0  0  0  0  0  0  0
   45.7560   34.9680   39.9640 H   0  0  0  0  0  0  0  0  0  0  0  0
   46.3750   30.9340   45.2640 C   0  0  0  0  0  0  0  0  0  0  0  0
   46.9500   31.4740   44.1190 C   0  0  0  0  0  0  0  0  0  0  0  0
   47.1040   32.8500   44.0160 C   0  0  0  0  0  0  0  0  0  0  0  0
   46.6710   33.6200   45.0780 N   0  0  0  0  0  0  0  0  0  0  0  0
   46.1210   33.0570   46.1670 C   0  0  0  0  0  0  0  0  0  0  0  0
   45.9710   31.7300   46.2660 N   0  0  0  0  0  0  0  0  0  0  0  0
   46.2750   29.8570   45.3020 H   0  0  0  0  0  0  0  0  0  0  0  0
   47.2690   30.8380   43.3280 H   0  0  0  0  0  0  0  0  0  0  0  0
   45.8170   33.7550   46.9360 H   0  0  0  0  0  0  0  0  0  0  0  0
  1  6  1  6  0  0  0
  1  2  1  0  0  0  0
  1 26  1  0  0  0  0
  2  8  1  0  0  0  0
  3 10  1  0  0  0  0
  3  2  1  0  0  0  0
  4 11  1  0  0  0  0
  4  3  1  0  0  0  0
  4  5  1  0  0  0  0
  5  1  1  0  0  0  0
  5 13  1  1  0  0  0
  7  2  1  0  0  0  0
  9  3  1  0  0  0  0
 12  4  1  0  0  0  0
 14 15  1  0  0  0  0
 14  5  1  0  0  0  0
 15 16  1  0  0  0  0
 17 18  1  0  0  0  0
 17 15  1  0  0  0  0
 19 17  1  0  0  0  0
 20 19  1  0  0  0  0
 20 22  1  0  0  0  0
 21 20  1  0  0  0  0
 22 14  1  0  0  0  0
 23 22  1  0  0  0  0
 24 30  1  0  0  0  0
 24 29  1  0  0  0  0
 25 24  2  0  0  0  0
 26 25  1  0  0  0  0
 26 27  2  0  0  0  0
 27 28  1  0  0  0  0
 28 29  2  0  0  0  0
 28 32  1  0  0  0  0
 31 25  1  0  0  0  0
M  END
>  <minimizedAffinity>
-4.71349764

>  <minimizedRMSD>
4.5122633

$$$$
