
     RDKit          3D

 30 31  0  0  0  0  0  0  0  0999 V2000
   44.5545   36.0437   44.4866 C   0  0  0  0  0  0  0  0  0  0  0  0
   45.2109   35.9430   43.2488 C   0  0  0  0  0  0  0  0  0  0  0  0
   46.0810   34.8749   43.0166 C   0  0  0  0  0  0  0  0  0  0  0  0
   46.2419   33.9704   44.0388 N   0  0  0  0  0  0  0  0  0  0  0  0
   45.5986   34.1040   45.1995 C   0  0  0  0  0  0  0  0  0  0  0  0
   44.7624   35.1169   45.4433 N   0  0  0  0  0  0  0  0  0  0  0  0
   46.7778   34.7634   41.7130 C   0  0  0  0  0  0  0  0  0  0  0  0
   48.1908   35.3087   41.8944 C   0  0  0  0  0  0  0  0  0  0  0  0
   43.9046   36.9022   44.5689 H   0  0  0  0  0  0  0  0  0  0  0  0
   45.0630   36.6668   42.4712 H   0  0  0  0  0  0  0  0  0  0  0  0
   45.8158   33.3179   45.9241 H   0  0  0  0  0  0  0  0  0  0  0  0
   46.2223   35.3543   40.9800 H   0  0  0  0  0  0  0  0  0  0  0  0
   46.8335   33.7242   41.3349 H   0  0  0  0  0  0  0  0  0  0  0  0
   48.1343   36.3665   42.2237 H   0  0  0  0  0  0  0  0  0  0  0  0
   48.7233   34.7324   42.6680 H   0  0  0  0  0  0  0  0  0  0  0  0
   48.9891   35.2412   40.6212 C   0  0  2  0  0  0  0  0  0  0  0  0
   48.6050   36.2759   39.6231 C   0  0  2  0  0  0  0  0  0  0  0  0
   49.3452   37.1093   39.5407 H   0  0  0  0  0  0  0  0  0  0  0  0
   48.2585   35.7510   38.2733 C   0  0  2  0  0  0  0  0  0  0  0  0
   48.4993   36.5566   37.5232 H   0  0  0  0  0  0  0  0  0  0  0  0
   48.8762   34.6276   37.8414 O   0  0  0  0  0  0  0  0  0  0  0  0
   49.4926   33.8221   38.7463 C   0  0  1  0  0  0  0  0  0  0  0  0
   49.4183   32.7534   38.3890 H   0  0  0  0  0  0  0  0  0  0  0  0
   48.7502   33.8400   40.0565 C   0  0  1  0  0  0  0  0  0  0  0  0
   49.0785   33.0874   40.7819 H   0  0  0  0  0  0  0  0  0  0  0  0
   50.0739   35.3286   40.8147 H   0  0  0  0  0  0  0  0  0  0  0  0
   47.6762   36.7736   40.0265 H   0  0  0  0  0  0  0  0  0  0  0  0
   47.1461   35.6099   38.1702 H   0  0  0  0  0  0  0  0  0  0  0  0
   50.5753   34.0305   38.8786 H   0  0  0  0  0  0  0  0  0  0  0  0
   47.6580   33.8159   39.8280 H   0  0  0  0  0  0  0  0  0  0  0  0
  1  6  2  0
  2  1  1  0
  3  2  2  0
  3  4  1  0
  4  5  2  0
  5  6  1  0
  7  8  1  0
  7  3  1  0
  1  9  1  0
  2 10  1  0
  5 11  1  0
  7 12  1  0
  7 13  1  0
  8 14  1  0
  8 15  1  0
 16 17  1  0
 17 18  1  6
 17 19  1  0
 19 20  1  6
 19 21  1  0
 21 22  1  0
 22 23  1  6
 22 24  1  0
 24 25  1  1
 24 16  1  0
 16 26  1  1
 17 27  1  0
 19 28  1  0
 22 29  1  0
 24 30  1  0
  8 16  1  0
M  ISO  8   9  14  10  14  11  14  12   8  13   8  14   8  15   8  18  15
M  ISO  3  20  15  23  15  25  15
M  END
>  <DihAtoms>  (1) 
6,7,15,16

>  <DihDeg>  (1) 
-60.00695494927667

$$$$
