
     RDKit          3D

 30 31  0  0  0  0  0  0  0  0999 V2000
   45.1847   35.2201   44.0435 C   0  0  0  0  0  0  0  0  0  0  0  0
   46.2232   34.5652   43.3777 C   0  0  0  0  0  0  0  0  0  0  0  0
   46.9096   33.5522   44.0514 C   0  0  0  0  0  0  0  0  0  0  0  0
   46.5291   33.2580   45.3203 N   0  0  0  0  0  0  0  0  0  0  0  0
   45.5159   33.9118   45.9409 C   0  0  0  0  0  0  0  0  0  0  0  0
   44.8319   34.9016   45.3076 N   0  0  0  0  0  0  0  0  0  0  0  0
   46.5521   34.9835   42.0185 C   0  0  1  0  0  0  0  0  0  0  0  0
   48.0496   35.1937   41.9460 C   0  0  0  0  0  0  0  0  0  0  0  0
   44.6289   36.0106   43.5556 H   0  0  0  0  0  0  0  0  0  0  0  0
   47.7149   33.0232   43.5940 H   0  0  0  0  0  0  0  0  0  0  0  0
   45.2654   33.6176   46.9691 H   0  0  0  0  0  0  0  0  0  0  0  0
   46.0986   36.0140   41.8634 H   0  0  0  0  0  0  0  0  0  0  0  0
   48.5733   34.2324   42.0647 H   0  0  0  0  0  0  0  0  0  0  0  0
   48.2695   35.6904   40.9762 H   0  0  0  0  0  0  0  0  0  0  0  0
   48.3437   35.8569   42.7924 H   0  0  0  0  0  0  0  0  0  0  0  0
   46.0982   34.1283   40.9020 C   0  0  2  0  0  0  0  0  0  0  0  0
   44.6183   34.2124   40.5774 C   0  0  1  0  0  0  0  0  0  0  0  0
   44.0256   33.5920   41.2450 H   0  0  0  0  0  0  0  0  0  0  0  0
   44.5178   33.5878   39.1838 C   0  0  2  0  0  0  0  0  0  0  0  0
   45.2053   34.1644   38.5398 H   0  0  0  0  0  0  0  0  0  0  0  0
   44.7990   32.2648   39.2843 O   0  0  0  0  0  0  0  0  0  0  0  0
   46.0312   31.9017   39.7653 C   0  0  1  0  0  0  0  0  0  0  0  0
   45.9783   30.8296   40.0502 H   0  0  0  0  0  0  0  0  0  0  0  0
   46.5054   32.6923   40.9449 C   0  0  2  0  0  0  0  0  0  0  0  0
   46.1170   32.2286   41.8595 H   0  0  0  0  0  0  0  0  0  0  0  0
   46.5916   34.5415   39.9685 H   0  0  0  0  0  0  0  0  0  0  0  0
   44.3036   35.2725   40.5252 H   0  0  0  0  0  0  0  0  0  0  0  0
   43.5037   33.6947   38.7836 H   0  0  0  0  0  0  0  0  0  0  0  0
   46.7558   31.9551   38.9259 H   0  0  0  0  0  0  0  0  0  0  0  0
   47.6100   32.6472   40.9757 H   0  0  0  0  0  0  0  0  0  0  0  0
  1  6  2  0
  2  1  1  0
  2  3  2  0
  3  4  1  0
  4  5  2  0
  6  5  1  0
  7  2  1  0
  8  7  1  0
  1  9  1  0
  3 10  1  0
  5 11  1  0
  7 12  1  6
  8 13  1  0
  8 14  1  0
  8 15  1  0
 16 17  1  0
 17 18  1  1
 17 19  1  0
 19 20  1  6
 19 21  1  0
 21 22  1  0
 22 23  1  1
 22 24  1  0
 24 25  1  1
 24 16  1  0
 16 26  1  6
 17 27  1  0
 19 28  1  0
 22 29  1  0
 24 30  1  0
  7 16  1  0
M  ISO  8   9  14  10  14  11  14  12   8  13   8  14   8  15   8  18  15
M  ISO  3  20  15  23  15  25  15
M  END
>  <DihAtoms>  (1) 
1,6,15,16

>  <DihDeg>  (1) 
60.06273401238607

$$$$
