
 OpenBabel03252501183D

 22 23  0  0  0  0  0  0  0  0999 V2000
   44.9760   34.2700   44.3260 C   0  0  0  0  0  0  0  0  0  0  0  0
   45.6800   33.6020   43.2800 C   0  0  0  0  0  0  0  0  0  0  0  0
   46.7580   32.8200   43.7170 C   0  0  0  0  0  0  0  0  0  0  0  0
   47.0490   32.7500   45.0510 N   0  0  0  0  0  0  0  0  0  0  0  0
   46.3360   33.4100   45.9880 C   0  0  0  0  0  0  0  0  0  0  0  0
   45.2980   34.1710   45.6160 N   0  0  0  0  0  0  0  0  0  0  0  0
   44.1220   34.9060   44.1500 H   0  0  0  0  0  0  0  0  0  0  0  0
   46.7740   33.1840   46.9520 H   0  0  0  0  0  0  0  0  0  0  0  0
   45.2330   33.7760   41.8870 C   0  0  0  0  0  0  0  0  0  0  0  0
   44.0460   32.8860   41.6660 C   0  0  0  0  0  0  0  0  0  0  0  0
   44.2080   32.1570   40.8180 H   0  0  0  0  0  0  0  0  0  0  0  0
   42.7630   33.5720   41.3700 C   0  0  0  0  0  0  0  0  0  0  0  0
   42.5790   33.6160   40.2570 H   0  0  0  0  0  0  0  0  0  0  0  0
   42.6940   34.8650   41.9090 O   0  0  0  0  0  0  0  0  0  0  0  0
   43.6270   35.5980   41.1790 C   0  0  0  0  0  0  0  0  0  0  0  0
   43.4700   35.3150   40.1070 H   0  0  0  0  0  0  0  0  0  0  0  0
   44.9940   35.2340   41.6510 C   0  0  0  0  0  0  0  0  0  0  0  0
   45.2250   35.8900   42.5180 H   0  0  0  0  0  0  0  0  0  0  0  0
   47.4910   32.1220   42.6610 C   0  0  0  0  0  0  0  0  0  0  0  0
   48.6300   31.5320   43.1950 F   0  0  0  0  0  0  0  0  0  0  0  0
   47.9560   33.0750   41.7900 F   0  0  0  0  0  0  0  0  0  0  0  0
   46.7610   31.1240   42.0710 F   0  0  0  0  0  0  0  0  0  0  0  0
  1  6  1  0  0  0  0
  2  3  1  0  0  0  0
  2  1  2  0  0  0  0
  3  4  2  0  0  0  0
  4  5  1  0  0  0  0
  5  8  1  0  0  0  0
  6  5  2  0  0  0  0
  7  1  1  0  0  0  0
  9  2  1  0  0  0  0
 10  9  1  0  0  0  0
 11 10  1  0  0  0  0
 12 10  1  0  0  0  0
 12 14  1  0  0  0  0
 13 12  1  0  0  0  0
 15 17  1  0  0  0  0
 15 14  1  0  0  0  0
 16 15  1  0  0  0  0
 17  9  1  0  0  0  0
 17 18  1  0  0  0  0
 19 20  1  0  0  0  0
 19  3  1  0  0  0  0
 21 19  1  0  0  0  0
 22 19  1  0  0  0  0
M  END
>  <minimizedAffinity>
-3.44737983

>  <minimizedRMSD>
2.56967521

$$$$
