
 OpenBabel03252501023D

 26 28  0  0  1  0  0  0  0  0999 V2000
   38.4580   29.0250   42.9060 C   0  0  1  0  0  0  0  0  0  0  0  0
   37.3270   28.3850   43.6800 C   0  0  0  0  0  0  0  0  0  0  0  0
   38.1200   27.6390   42.5960 C   0  0  2  0  0  0  0  0  0  0  0  0
   39.3110   29.3400   43.5430 H   0  0  0  0  0  0  0  0  0  0  0  0
   36.2720   28.6690   43.4480 H   0  0  0  0  0  0  0  0  0  0  0  0
   37.5020   28.1310   44.7210 H   0  0  0  0  0  0  0  0  0  0  0  0
   37.5510   27.4160   41.6860 H   0  0  0  0  0  0  0  0  0  0  0  0
   39.1010   26.5920   42.9890 C   0  0  0  0  0  3  0  0  0  0  0  0
   38.9670   25.2770   42.3020 C   0  0  0  0  0  3  0  0  0  0  0  0
   39.3690   25.3830   41.2610 H   0  0  0  0  0  0  0  0  0  0  0  0
   39.9040   24.3030   42.9960 C   0  0  0  0  0  3  0  0  0  0  0  0
   39.8580   23.3060   42.5150 H   0  0  0  0  0  0  0  0  0  0  0  0
   41.2140   24.7730   42.9720 O   0  0  0  0  0  0  0  0  0  0  0  0
   41.3190   25.9580   43.6800 C   0  0  0  0  0  3  0  0  0  0  0  0
   40.7440   25.8920   44.6490 H   0  0  0  0  0  0  0  0  0  0  0  0
   40.5520   27.0230   42.8860 C   0  0  0  0  0  3  0  0  0  0  0  0
   40.7240   28.0390   43.2730 H   0  0  0  0  0  0  0  0  0  0  0  0
   38.3870   31.9690   40.5520 C   0  0  0  0  0  0  0  0  0  0  0  0
   38.9030   31.0260   41.4700 C   0  0  0  0  0  0  0  0  0  0  0  0
   38.0010   30.0860   41.9450 C   0  0  0  0  0  0  0  0  0  0  0  0
   36.6930   30.1080   41.5230 N   0  0  0  0  0  0  0  0  0  0  0  0
   36.2380   31.0320   40.6390 C   0  0  0  0  0  0  0  0  0  0  0  0
   37.0970   31.9510   40.1670 N   0  0  0  0  0  0  0  0  0  0  0  0
   39.0350   32.7380   40.1350 H   0  0  0  0  0  0  0  0  0  0  0  0
   39.9190   31.0400   41.7730 H   0  0  0  0  0  0  0  0  0  0  0  0
   35.1880   30.9030   40.4170 H   0  0  0  0  0  0  0  0  0  0  0  0
  1  4  1  1  0  0  0
  1  2  1  0  0  0  0
  2  6  1  0  0  0  0
  3  7  1  6  0  0  0
  3  1  1  0  0  0  0
  3  8  1  0  0  0  0
  3  2  1  0  0  0  0
  5  2  1  0  0  0  0
  9  8  1  0  0  0  0
  9 11  1  0  0  0  0
 10  9  1  0  0  0  0
 12 11  1  0  0  0  0
 13 11  1  0  0  0  0
 13 14  1  0  0  0  0
 14 15  1  0  0  0  0
 16  8  1  0  0  0  0
 16 17  1  0  0  0  0
 16 14  1  0  0  0  0
 18 19  1  0  0  0  0
 19 25  1  0  0  0  0
 19 20  2  0  0  0  0
 20  1  1  0  0  0  0
 21 20  1  0  0  0  0
 22 21  2  0  0  0  0
 23 18  2  0  0  0  0
 23 22  1  0  0  0  0
 24 18  1  0  0  0  0
 26 22  1  0  0  0  0
M  END
>  <minimizedAffinity>
-4.57378435

$$$$

 OpenBabel03252501023D

 26 28  0  0  1  0  0  0  0  0999 V2000
   38.3390   28.6400   42.6540 C   0  0  1  0  0  0  0  0  0  0  0  0
   37.2600   28.3720   43.6800 C   0  0  0  0  0  0  0  0  0  0  0  0
   37.3570   27.6010   42.3550 C   0  0  2  0  0  0  0  0  0  0  0  0
   39.3670   28.4490   43.0270 H   0  0  0  0  0  0  0  0  0  0  0  0
   36.4200   29.0990   43.7970 H   0  0  0  0  0  0  0  0  0  0  0  0
   37.5460   27.8680   44.5990 H   0  0  0  0  0  0  0  0  0  0  0  0
   36.5510   27.8130   41.6430 H   0  0  0  0  0  0  0  0  0  0  0  0
   37.8330   26.1910   42.3550 C   0  0  0  0  0  3  0  0  0  0  0  0
   37.1490   25.2680   41.4080 C   0  0  0  0  0  3  0  0  0  0  0  0
   37.5250   25.4830   40.3740 H   0  0  0  0  0  0  0  0  0  0  0  0
   37.6230   23.8590   41.7210 C   0  0  0  0  0  3  0  0  0  0  0  0
   37.1560   23.1270   41.0330 H   0  0  0  0  0  0  0  0  0  0  0  0
   39.0090   23.7710   41.6260 O   0  0  0  0  0  0  0  0  0  0  0  0
   39.6140   24.5850   42.5670 C   0  0  0  0  0  3  0  0  0  0  0  0
   39.0950   24.4910   43.5650 H   0  0  0  0  0  0  0  0  0  0  0  0
   39.3290   26.0350   42.1560 C   0  0  0  0  0  3  0  0  0  0  0  0
   39.9160   26.7600   42.7400 H   0  0  0  0  0  0  0  0  0  0  0  0
   39.0340   32.0400   41.1820 C   0  0  0  0  0  0  0  0  0  0  0  0
   39.2660   30.8310   41.8770 C   0  0  0  0  0  0  0  0  0  0  0  0
   38.1880   29.9620   41.9570 C   0  0  0  0  0  0  0  0  0  0  0  0
   36.9850   30.2970   41.3800 N   0  0  0  0  0  0  0  0  0  0  0  0
   36.8060   31.4700   40.7210 C   0  0  0  0  0  0  0  0  0  0  0  0
   37.8390   32.3250   40.6330 N   0  0  0  0  0  0  0  0  0  0  0  0
   39.8330   32.7730   41.0780 H   0  0  0  0  0  0  0  0  0  0  0  0
   40.2070   30.6070   42.3100 H   0  0  0  0  0  0  0  0  0  0  0  0
   35.8040   31.5710   40.3310 H   0  0  0  0  0  0  0  0  0  0  0  0
  1  4  1  1  0  0  0
  1  2  1  0  0  0  0
  2  5  1  0  0  0  0
  2  6  1  0  0  0  0
  3  7  1  6  0  0  0
  3  1  1  0  0  0  0
  3  2  1  0  0  0  0
  8  3  1  0  0  0  0
  9 11  1  0  0  0  0
  9  8  1  0  0  0  0
 10  9  1  0  0  0  0
 12 11  1  0  0  0  0
 13 11  1  0  0  0  0
 13 14  1  0  0  0  0
 14 15  1  0  0  0  0
 16  8  1  0  0  0  0
 16 14  1  0  0  0  0
 16 17  1  0  0  0  0
 18 19  1  0  0  0  0
 19 20  2  0  0  0  0
 19 25  1  0  0  0  0
 20  1  1  0  0  0  0
 21 20  1  0  0  0  0
 22 21  2  0  0  0  0
 23 22  1  0  0  0  0
 23 18  2  0  0  0  0
 24 18  1  0  0  0  0
 26 22  1  0  0  0  0
M  END
>  <minimizedAffinity>
-4.52055025

$$$$

 OpenBabel03252501023D

 26 28  0  0  1  0  0  0  0  0999 V2000
   35.9010   29.8550   40.3080 C   0  0  1  0  0  0  0  0  0  0  0  0
   36.6270   30.9840   39.6110 C   0  0  0  0  0  0  0  0  0  0  0  0
   36.3960   29.6140   38.9560 C   0  0  2  0  0  0  0  0  0  0  0  0
   34.8460   30.0920   40.5620 H   0  0  0  0  0  0  0  0  0  0  0  0
   37.6690   31.2420   39.9210 H   0  0  0  0  0  0  0  0  0  0  0  0
   36.0400   31.8320   39.2690 H   0  0  0  0  0  0  0  0  0  0  0  0
   37.3030   29.0160   38.8150 H   0  0  0  0  0  0  0  0  0  0  0  0
   35.3850   29.4760   37.8720 C   0  0  0  0  0  3  0  0  0  0  0  0
   35.8760   28.9140   36.5850 C   0  0  0  0  0  3  0  0  0  0  0  0
   36.0130   27.8080   36.7130 H   0  0  0  0  0  0  0  0  0  0  0  0
   34.7590   29.0630   35.5660 C   0  0  0  0  0  3  0  0  0  0  0  0
   35.0650   28.6450   34.5860 H   0  0  0  0  0  0  0  0  0  0  0  0
   33.6020   28.4270   36.0040 O   0  0  0  0  0  0  0  0  0  0  0  0
   33.1300   29.0200   37.1620 C   0  0  0  0  0  3  0  0  0  0  0  0
   33.1780   30.1450   37.0800 H   0  0  0  0  0  0  0  0  0  0  0  0
   34.1410   28.7040   38.2710 C   0  0  0  0  0  3  0  0  0  0  0  0
   33.7690   28.9790   39.2690 H   0  0  0  0  0  0  0  0  0  0  0  0
   37.1390   27.5170   42.9930 C   0  0  0  0  0  0  0  0  0  0  0  0
   36.3400   28.0030   41.9340 C   0  0  0  0  0  0  0  0  0  0  0  0
   36.6740   29.2590   41.4500 C   0  0  0  0  0  0  0  0  0  0  0  0
   37.7280   29.9530   41.9960 N   0  0  0  0  0  0  0  0  0  0  0  0
   38.4710   29.4470   43.0140 C   0  0  0  0  0  0  0  0  0  0  0  0
   38.1620   28.2320   43.4970 N   0  0  0  0  0  0  0  0  0  0  0  0
   36.9370   26.5380   43.4260 H   0  0  0  0  0  0  0  0  0  0  0  0
   35.5340   27.4400   41.5370 H   0  0  0  0  0  0  0  0  0  0  0  0
   39.2570   30.1230   43.3210 H   0  0  0  0  0  0  0  0  0  0  0  0
  1  4  1  1  0  0  0
  1 20  1  0  0  0  0
  2  5  1  0  0  0  0
  2  1  1  0  0  0  0
  3  7  1  6  0  0  0
  3  2  1  0  0  0  0
  3  1  1  0  0  0  0
  6  2  1  0  0  0  0
  8 16  1  0  0  0  0
  8  3  1  0  0  0  0
  9 10  1  0  0  0  0
  9  8  1  0  0  0  0
 11 13  1  0  0  0  0
 11  9  1  0  0  0  0
 12 11  1  0  0  0  0
 13 14  1  0  0  0  0
 14 16  1  0  0  0  0
 15 14  1  0  0  0  0
 16 17  1  0  0  0  0
 18 24  1  0  0  0  0
 18 23  1  0  0  0  0
 19 18  2  0  0  0  0
 20 19  1  0  0  0  0
 20 21  2  0  0  0  0
 21 22  1  0  0  0  0
 22 26  1  0  0  0  0
 22 23  2  0  0  0  0
 25 19  1  0  0  0  0
M  END
>  <minimizedAffinity>
-4.28611517

$$$$

 OpenBabel03252501023D

 26 28  0  0  1  0  0  0  0  0999 V2000
   37.7810   27.9620   42.4060 C   0  0  1  0  0  0  0  0  0  0  0  0
   37.5380   28.7410   43.6800 C   0  0  0  0  0  0  0  0  0  0  0  0
   38.5440   29.1900   42.6090 C   0  0  2  0  0  0  0  0  0  0  0  0
   36.8840   27.8760   41.7570 H   0  0  0  0  0  0  0  0  0  0  0  0
   37.9460   28.3560   44.6460 H   0  0  0  0  0  0  0  0  0  0  0  0
   36.6010   29.2820   43.7740 H   0  0  0  0  0  0  0  0  0  0  0  0
   39.5950   29.1250   42.9140 H   0  0  0  0  0  0  0  0  0  0  0  0
   38.2210   30.3490   41.7340 C   0  0  0  0  0  3  0  0  0  0  0  0
   39.2890   31.3740   41.5820 C   0  0  0  0  0  3  0  0  0  0  0  0
   40.0740   30.9650   40.8930 H   0  0  0  0  0  0  0  0  0  0  0  0
   38.6860   32.5560   40.8430 C   0  0  0  0  0  3  0  0  0  0  0  0
   39.4440   33.3490   40.6860 H   0  0  0  0  0  0  0  0  0  0  0  0
   38.1660   32.1590   39.6140 O   0  0  0  0  0  0  0  0  0  0  0  0
   37.1280   31.2610   39.7920 C   0  0  0  0  0  3  0  0  0  0  0  0
   36.4480   31.6040   40.6260 H   0  0  0  0  0  0  0  0  0  0  0  0
   37.7420   29.9700   40.3450 C   0  0  0  0  0  3  0  0  0  0  0  0
   37.0240   29.1350   40.3540 H   0  0  0  0  0  0  0  0  0  0  0  0
   40.2110   25.3340   43.5900 C   0  0  0  0  0  0  0  0  0  0  0  0
   39.6270   26.6100   43.4200 C   0  0  0  0  0  0  0  0  0  0  0  0
   38.4900   26.6560   42.6280 C   0  0  0  0  0  0  0  0  0  0  0  0
   37.9950   25.5050   42.0610 N   0  0  0  0  0  0  0  0  0  0  0  0
   38.5870   24.2990   42.2500 C   0  0  0  0  0  0  0  0  0  0  0  0
   39.6900   24.2340   43.0150 N   0  0  0  0  0  0  0  0  0  0  0  0
   41.1060   25.2180   44.1990 H   0  0  0  0  0  0  0  0  0  0  0  0
   40.0370   27.4770   43.8730 H   0  0  0  0  0  0  0  0  0  0  0  0
   38.0680   23.5040   41.7340 H   0  0  0  0  0  0  0  0  0  0  0  0
  1  4  1  6  0  0  0
  1  3  1  0  0  0  0
  1 20  1  0  0  0  0
  1  2  1  0  0  0  0
  2  6  1  0  0  0  0
  2  5  1  0  0  0  0
  3  7  1  1  0  0  0
  3  2  1  0  0  0  0
  8  3  1  0  0  0  0
  9  8  1  0  0  0  0
 10  9  1  0  0  0  0
 11  9  1  0  0  0  0
 12 11  1  0  0  0  0
 13 14  1  0  0  0  0
 13 11  1  0  0  0  0
 14 16  1  0  0  0  0
 14 15  1  0  0  0  0
 16 17  1  0  0  0  0
 16  8  1  0  0  0  0
 18 24  1  0  0  0  0
 19 18  1  0  0  0  0
 19 25  1  0  0  0  0
 20 19  2  0  0  0  0
 21 22  2  0  0  0  0
 21 20  1  0  0  0  0
 22 23  1  0  0  0  0
 23 18  2  0  0  0  0
 26 22  1  0  0  0  0
M  END
>  <minimizedAffinity>
-4.26564884

$$$$

 OpenBabel03252501023D

 26 28  0  0  1  0  0  0  0  0999 V2000
   38.8790   30.2440   41.1710 C   0  0  1  0  0  0  0  0  0  0  0  0
   39.1510   30.1740   42.6570 C   0  0  0  0  0  0  0  0  0  0  0  0
   37.9120   29.5390   42.0070 C   0  0  2  0  0  0  0  0  0  0  0  0
   39.6570   29.7500   40.5510 H   0  0  0  0  0  0  0  0  0  0  0  0
   38.9970   31.0840   43.2870 H   0  0  0  0  0  0  0  0  0  0  0  0
   39.9520   29.5250   42.9980 H   0  0  0  0  0  0  0  0  0  0  0  0
   36.9640   30.0270   42.2590 H   0  0  0  0  0  0  0  0  0  0  0  0
   37.8330   28.0600   41.8620 C   0  0  0  0  0  3  0  0  0  0  0  0
   36.7940   27.3760   42.6800 C   0  0  0  0  0  3  0  0  0  0  0  0
   35.7950   27.5610   42.2060 H   0  0  0  0  0  0  0  0  0  0  0  0
   37.0260   25.8800   42.5540 C   0  0  0  0  0  3  0  0  0  0  0  0
   36.2690   25.3160   43.1330 H   0  0  0  0  0  0  0  0  0  0  0  0
   36.9840   25.4830   41.2210 O   0  0  0  0  0  0  0  0  0  0  0  0
   38.0060   26.0800   40.5030 C   0  0  0  0  0  3  0  0  0  0  0  0
   38.9710   26.0480   41.0870 H   0  0  0  0  0  0  0  0  0  0  0  0
   37.6860   27.5790   40.4310 C   0  0  0  0  0  3  0  0  0  0  0  0
   38.3450   28.1150   39.7300 H   0  0  0  0  0  0  0  0  0  0  0  0
   37.1580   33.1270   39.4560 C   0  0  0  0  0  0  0  0  0  0  0  0
   37.4390   31.7940   39.8330 C   0  0  0  0  0  0  0  0  0  0  0  0
   38.5140   31.6200   40.6920 C   0  0  0  0  0  0  0  0  0  0  0  0
   39.2340   32.7080   41.1260 N   0  0  0  0  0  0  0  0  0  0  0  0
   38.9290   33.9730   40.7400 C   0  0  0  0  0  0  0  0  0  0  0  0
   37.8920   34.1610   39.9080 N   0  0  0  0  0  0  0  0  0  0  0  0
   36.3290   33.3420   38.7840 H   0  0  0  0  0  0  0  0  0  0  0  0
   36.8620   30.9790   39.4780 H   0  0  0  0  0  0  0  0  0  0  0  0
   39.5950   34.7050   41.1740 H   0  0  0  0  0  0  0  0  0  0  0  0
  1  4  1  6  0  0  0
  1  3  1  0  0  0  0
  1  2  1  0  0  0  0
  2  6  1  0  0  0  0
  2  5  1  0  0  0  0
  3  7  1  1  0  0  0
  3  2  1  0  0  0  0
  8  3  1  0  0  0  0
  8  9  1  0  0  0  0
 10  9  1  0  0  0  0
 11  9  1  0  0  0  0
 11 12  1  0  0  0  0
 13 11  1  0  0  0  0
 14 15  1  0  0  0  0
 14 13  1  0  0  0  0
 16 14  1  0  0  0  0
 16  8  1  0  0  0  0
 17 16  1  0  0  0  0
 18 19  2  0  0  0  0
 18 23  1  0  0  0  0
 19 20  1  0  0  0  0
 20 21  2  0  0  0  0
 20  1  1  0  0  0  0
 22 21  1  0  0  0  0
 22 26  1  0  0  0  0
 23 22  2  0  0  0  0
 24 18  1  0  0  0  0
 25 19  1  0  0  0  0
M  END
>  <minimizedAffinity>
-4.23518467

$$$$

 OpenBabel03252501023D

 26 28  0  0  1  0  0  0  0  0999 V2000
   37.0590   29.2110   41.3340 C   0  0  1  0  0  0  0  0  0  0  0  0
   35.7090   28.9060   40.7240 C   0  0  0  0  0  0  0  0  0  0  0  0
   37.0080   28.2450   40.2410 C   0  0  2  0  0  0  0  0  0  0  0  0
   37.1330   28.9450   42.4090 H   0  0  0  0  0  0  0  0  0  0  0  0
   35.2270   29.6560   40.0520 H   0  0  0  0  0  0  0  0  0  0  0  0
   35.0090   28.3140   41.3080 H   0  0  0  0  0  0  0  0  0  0  0  0
   37.3300   28.5500   39.2390 H   0  0  0  0  0  0  0  0  0  0  0  0
   37.2800   26.8200   40.5740 C   0  0  0  0  0  3  0  0  0  0  0  0
   37.1030   26.4360   42.0020 C   0  0  0  0  0  3  0  0  0  0  0  0
   36.0040   26.3640   42.2130 H   0  0  0  0  0  0  0  0  0  0  0  0
   37.6350   25.0220   42.1630 C   0  0  0  0  0  3  0  0  0  0  0  0
   37.5140   24.6750   43.2080 H   0  0  0  0  0  0  0  0  0  0  0  0
   36.9800   24.1460   41.3020 O   0  0  0  0  0  0  0  0  0  0  0  0
   37.2230   24.4870   39.9830 C   0  0  0  0  0  3  0  0  0  0  0  0
   38.3130   24.7400   39.8340 H   0  0  0  0  0  0  0  0  0  0  0  0
   36.5130   25.8220   39.7270 C   0  0  0  0  0  3  0  0  0  0  0  0
   36.4970   26.0910   38.6600 H   0  0  0  0  0  0  0  0  0  0  0  0
   39.1960   32.3090   41.1180 C   0  0  0  0  0  0  0  0  0  0  0  0
   38.8010   31.0020   41.4830 C   0  0  0  0  0  0  0  0  0  0  0  0
   37.5590   30.5930   41.0210 C   0  0  0  0  0  0  0  0  0  0  0  0
   36.7920   31.4400   40.2570 N   0  0  0  0  0  0  0  0  0  0  0  0
   37.2100   32.6890   39.9290 C   0  0  0  0  0  0  0  0  0  0  0  0
   38.4100   33.1040   40.3670 N   0  0  0  0  0  0  0  0  0  0  0  0
   40.1580   32.7010   41.4430 H   0  0  0  0  0  0  0  0  0  0  0  0
   39.4190   30.3760   42.0740 H   0  0  0  0  0  0  0  0  0  0  0  0
   36.4860   33.2170   39.3250 H   0  0  0  0  0  0  0  0  0  0  0  0
  1  4  1  1  0  0  0
  2  6  1  0  0  0  0
  2  1  1  0  0  0  0
  3  7  1  6  0  0  0
  3  8  1  0  0  0  0
  3  2  1  0  0  0  0
  3  1  1  0  0  0  0
  5  2  1  0  0  0  0
  8  9  1  0  0  0  0
  9 11  1  0  0  0  0
  9 10  1  0  0  0  0
 11 12  1  0  0  0  0
 13 11  1  0  0  0  0
 14 13  1  0  0  0  0
 15 14  1  0  0  0  0
 16 14  1  0  0  0  0
 16  8  1  0  0  0  0
 17 16  1  0  0  0  0
 18 24  1  0  0  0  0
 18 19  1  0  0  0  0
 19 25  1  0  0  0  0
 20  1  1  0  0  0  0
 20 19  2  0  0  0  0
 21 20  1  0  0  0  0
 22 21  2  0  0  0  0
 22 23  1  0  0  0  0
 23 18  2  0  0  0  0
 26 22  1  0  0  0  0
M  END
>  <minimizedAffinity>
-4.09535885

$$$$

 OpenBabel03252501023D

 26 28  0  0  1  0  0  0  0  0999 V2000
   35.9730   29.6090   39.3570 C   0  0  1  0  0  0  0  0  0  0  0  0
   34.7510   29.2400   40.1700 C   0  0  0  0  0  0  0  0  0  0  0  0
   36.0410   28.4050   40.1800 C   0  0  2  0  0  0  0  0  0  0  0  0
   36.4140   30.5890   39.6350 H   0  0  0  0  0  0  0  0  0  0  0  0
   33.8580   28.8100   39.6550 H   0  0  0  0  0  0  0  0  0  0  0  0
   34.5160   29.8470   41.0390 H   0  0  0  0  0  0  0  0  0  0  0  0
   35.9520   27.4230   39.7020 H   0  0  0  0  0  0  0  0  0  0  0  0
   36.9320   28.4390   41.3710 C   0  0  0  0  0  3  0  0  0  0  0  0
   36.5560   27.5420   42.4980 C   0  0  0  0  0  3  0  0  0  0  0  0
   36.8310   26.4920   42.2180 H   0  0  0  0  0  0  0  0  0  0  0  0
   37.4510   27.8890   43.6750 C   0  0  0  0  0  3  0  0  0  0  0  0
   37.2260   27.2390   44.5430 H   0  0  0  0  0  0  0  0  0  0  0  0
   38.7940   27.7600   43.3320 O   0  0  0  0  0  0  0  0  0  0  0  0
   39.1290   28.6570   42.3320 C   0  0  0  0  0  3  0  0  0  0  0  0
   38.6800   29.6710   42.5430 H   0  0  0  0  0  0  0  0  0  0  0  0
   38.3990   28.2050   41.0610 C   0  0  0  0  0  3  0  0  0  0  0  0
   38.7390   28.7490   40.1670 H   0  0  0  0  0  0  0  0  0  0  0  0
   34.4920   28.8340   35.9780 C   0  0  0  0  0  0  0  0  0  0  0  0
   34.5840   28.9420   37.3850 C   0  0  0  0  0  0  0  0  0  0  0  0
   35.7840   29.4320   37.8770 C   0  0  0  0  0  0  0  0  0  0  0  0
   36.7960   29.7790   37.0140 N   0  0  0  0  0  0  0  0  0  0  0  0
   36.6650   29.6590   35.6680 C   0  0  0  0  0  0  0  0  0  0  0  0
   35.5100   29.1860   35.1710 N   0  0  0  0  0  0  0  0  0  0  0  0
   33.5810   28.4570   35.5180 H   0  0  0  0  0  0  0  0  0  0  0  0
   33.7820   28.6650   38.0210 H   0  0  0  0  0  0  0  0  0  0  0  0
   37.5540   29.9750   35.1410 H   0  0  0  0  0  0  0  0  0  0  0  0
  1  4  1  1  0  0  0
  1  2  1  0  0  0  0
  1  3  1  0  0  0  0
  2  3  1  0  0  0  0
  2  6  1  0  0  0  0
  3  7  1  6  0  0  0
  3  8  1  0  0  0  0
  5  2  1  0  0  0  0
  8  9  1  0  0  0  0
  9 11  1  0  0  0  0
 10  9  1  0  0  0  0
 11 12  1  0  0  0  0
 13 11  1  0  0  0  0
 14 15  1  0  0  0  0
 14 13  1  0  0  0  0
 16  8  1  0  0  0  0
 16 14  1  0  0  0  0
 17 16  1  0  0  0  0
 18 19  1  0  0  0  0
 19 20  2  0  0  0  0
 19 25  1  0  0  0  0
 20  1  1  0  0  0  0
 21 20  1  0  0  0  0
 22 21  2  0  0  0  0
 23 22  1  0  0  0  0
 23 18  2  0  0  0  0
 24 18  1  0  0  0  0
 26 22  1  0  0  0  0
M  END
>  <minimizedAffinity>
-4.0650034

$$$$

 OpenBabel03252501023D

 26 28  0  0  1  0  0  0  0  0999 V2000
   38.5280   28.9760   41.9890 C   0  0  1  0  0  0  0  0  0  0  0  0
   37.6590   28.9020   43.2240 C   0  0  0  0  0  0  0  0  0  0  0  0
   37.9890   27.6720   42.3650 C   0  0  2  0  0  0  0  0  0  0  0  0
   39.5660   29.3130   42.1930 H   0  0  0  0  0  0  0  0  0  0  0  0
   36.6140   29.2970   43.1860 H   0  0  0  0  0  0  0  0  0  0  0  0
   38.1400   29.0070   44.1920 H   0  0  0  0  0  0  0  0  0  0  0  0
   37.1380   27.2630   41.8090 H   0  0  0  0  0  0  0  0  0  0  0  0
   38.9500   26.6560   42.8710 C   0  0  0  0  0  3  0  0  0  0  0  0
   38.7830   25.2740   42.3420 C   0  0  0  0  0  3  0  0  0  0  0  0
   39.1790   25.2500   41.2930 H   0  0  0  0  0  0  0  0  0  0  0  0
   39.7030   24.3660   43.1390 C   0  0  0  0  0  3  0  0  0  0  0  0
   39.6320   23.3210   42.7760 H   0  0  0  0  0  0  0  0  0  0  0  0
   41.0230   24.8000   43.0540 O   0  0  0  0  0  0  0  0  0  0  0  0
   41.1590   26.0560   43.6190 C   0  0  0  0  0  3  0  0  0  0  0  0
   40.5900   26.1160   44.5930 H   0  0  0  0  0  0  0  0  0  0  0  0
   40.4090   27.0400   42.7120 C   0  0  0  0  0  3  0  0  0  0  0  0
   40.6060   28.0890   42.9780 H   0  0  0  0  0  0  0  0  0  0  0  0
   36.8730   31.6040   39.8520 C   0  0  0  0  0  0  0  0  0  0  0  0
   37.4510   31.0050   40.9940 C   0  0  0  0  0  0  0  0  0  0  0  0
   37.8770   29.6940   40.8400 C   0  0  0  0  0  0  0  0  0  0  0  0
   37.7280   29.0550   39.6320 N   0  0  0  0  0  0  0  0  0  0  0  0
   37.1670   29.6690   38.5590 C   0  0  0  0  0  0  0  0  0  0  0  0
   36.7470   30.9380   38.6880 N   0  0  0  0  0  0  0  0  0  0  0  0
   36.5140   32.6310   39.8950 H   0  0  0  0  0  0  0  0  0  0  0  0
   37.5500   31.5290   41.9100 H   0  0  0  0  0  0  0  0  0  0  0  0
   37.1270   29.0230   37.6930 H   0  0  0  0  0  0  0  0  0  0  0  0
  1  4  1  1  0  0  0
  1  3  1  0  0  0  0
  1  2  1  0  0  0  0
  2  6  1  0  0  0  0
  3  7  1  6  0  0  0
  3  8  1  0  0  0  0
  3  2  1  0  0  0  0
  5  2  1  0  0  0  0
  9  8  1  0  0  0  0
  9 11  1  0  0  0  0
 10  9  1  0  0  0  0
 12 11  1  0  0  0  0
 13 11  1  0  0  0  0
 13 14  1  0  0  0  0
 14 15  1  0  0  0  0
 16  8  1  0  0  0  0
 16 17  1  0  0  0  0
 16 14  1  0  0  0  0
 18 24  1  0  0  0  0
 18 19  1  0  0  0  0
 19 25  1  0  0  0  0
 20 19  2  0  0  0  0
 20  1  1  0  0  0  0
 21 20  1  0  0  0  0
 22 23  1  0  0  0  0
 22 21  2  0  0  0  0
 23 18  2  0  0  0  0
 26 22  1  0  0  0  0
M  END
>  <minimizedAffinity>
-4.0123148

$$$$

 OpenBabel03252501023D

 26 28  0  0  1  0  0  0  0  0999 V2000
   38.4970   31.7790   40.7340 C   0  0  1  0  0  0  0  0  0  0  0  0
   37.0730   31.8650   40.2300 C   0  0  0  0  0  0  0  0  0  0  0  0
   37.8420   30.5380   40.3310 C   0  0  2  0  0  0  0  0  0  0  0  0
   38.6190   32.1160   41.7850 H   0  0  0  0  0  0  0  0  0  0  0  0
   36.8750   32.2730   39.2090 H   0  0  0  0  0  0  0  0  0  0  0  0
   36.2890   32.0690   40.9530 H   0  0  0  0  0  0  0  0  0  0  0  0
   38.0980   30.0850   39.3670 H   0  0  0  0  0  0  0  0  0  0  0  0
   37.4970   29.5670   41.4040 C   0  0  0  0  0  3  0  0  0  0  0  0
   37.2760   28.1600   40.9690 C   0  0  0  0  0  3  0  0  0  0  0  0
   38.2740   27.6980   40.7540 H   0  0  0  0  0  0  0  0  0  0  0  0
   36.7290   27.3940   42.1620 C   0  0  0  0  0  3  0  0  0  0  0  0
   36.5580   26.3320   41.9000 H   0  0  0  0  0  0  0  0  0  0  0  0
   37.6010   27.4740   43.2430 O   0  0  0  0  0  0  0  0  0  0  0  0
   37.7290   28.7850   43.6700 C   0  0  0  0  0  3  0  0  0  0  0  0
   36.7210   29.2920   43.6990 H   0  0  0  0  0  0  0  0  0  0  0  0
   38.4740   29.5440   42.5650 C   0  0  0  0  0  3  0  0  0  0  0  0
   38.7820   30.5520   42.8840 H   0  0  0  0  0  0  0  0  0  0  0  0
   40.7310   32.3870   37.7600 C   0  0  0  0  0  0  0  0  0  0  0  0
   39.7890   31.7400   38.5910 C   0  0  0  0  0  0  0  0  0  0  0  0
   39.5040   32.3740   39.7910 C   0  0  0  0  0  0  0  0  0  0  0  0
   40.1230   33.5590   40.1120 N   0  0  0  0  0  0  0  0  0  0  0  0
   41.0220   34.1470   39.2830 C   0  0  0  0  0  0  0  0  0  0  0  0
   41.3120   33.5480   38.1160 N   0  0  0  0  0  0  0  0  0  0  0  0
   41.0070   31.9500   36.8020 H   0  0  0  0  0  0  0  0  0  0  0  0
   39.3310   30.8260   38.3110 H   0  0  0  0  0  0  0  0  0  0  0  0
   41.4100   35.0700   39.6890 H   0  0  0  0  0  0  0  0  0  0  0  0
  1  4  1  1  0  0  0
  2  3  1  0  0  0  0
  2  1  1  0  0  0  0
  2  6  1  0  0  0  0
  3  7  1  6  0  0  0
  3  1  1  0  0  0  0
  3  8  1  0  0  0  0
  5  2  1  0  0  0  0
  8 16  1  0  0  0  0
  9  8  1  0  0  0  0
  9 11  1  0  0  0  0
 10  9  1  0  0  0  0
 11 13  1  0  0  0  0
 12 11  1  0  0  0  0
 13 14  1  0  0  0  0
 14 15  1  0  0  0  0
 16 17  1  0  0  0  0
 16 14  1  0  0  0  0
 18 23  2  0  0  0  0
 18 19  1  0  0  0  0
 19 20  2  0  0  0  0
 20 21  1  0  0  0  0
 20  1  1  0  0  0  0
 22 26  1  0  0  0  0
 22 21  2  0  0  0  0
 23 22  1  0  0  0  0
 24 18  1  0  0  0  0
 25 19  1  0  0  0  0
M  END
>  <minimizedAffinity>
-4.01229906

$$$$
