
 OpenBabel03252508153D

 38 41  0  0  1  0  0  0  0  0999 V2000
   45.9730   33.0830   46.1010 C   0  0  0  0  0  3  0  0  0  0  0  0
   46.7030   32.1070   45.7260 C   0  0  0  0  0  3  0  0  0  0  0  0
   44.4910   36.0360   44.4690 C   0  0  0  0  0  0  0  0  0  0  0  0
   45.0810   36.0420   43.2130 C   0  0  0  0  0  0  0  0  0  0  0  0
   45.9880   35.0300   42.9510 C   0  0  0  0  0  0  0  0  0  0  0  0
   46.2220   34.1340   43.9160 N   0  0  0  0  0  0  0  0  0  0  0  0
   45.6590   34.1230   45.1220 C   0  0  0  0  0  0  0  0  0  0  0  0
   44.7890   35.1020   45.3650 N   0  0  0  0  0  0  0  0  0  0  0  0
   43.7800   36.8160   44.6960 H   0  0  0  0  0  0  0  0  0  0  0  0
   44.8850   36.7630   42.4490 H   0  0  0  0  0  0  0  0  0  0  0  0
   46.7050   34.8800   41.6820 C   0  0  0  0  0  3  0  0  0  0  0  0
   46.9080   33.4030   41.3160 C   0  0  0  0  0  3  0  0  0  0  0  0
   47.6780   32.9480   41.9450 H   0  0  0  0  0  0  0  0  0  0  0  0
   47.3780   33.4250   39.8730 C   0  0  0  0  0  3  0  0  0  0  0  0
   47.9680   32.5200   39.6680 H   0  0  0  0  0  0  0  0  0  0  0  0
   47.9700   34.6130   39.5270 O   0  0  0  0  0  0  0  0  0  0  0  0
   48.7920   35.1700   40.4940 C   0  0  0  0  0  3  0  0  0  0  0  0
   49.0900   36.1750   40.0840 H   0  0  0  0  0  0  0  0  0  0  0  0
   48.1120   35.4350   41.8060 C   0  0  0  0  0  3  0  0  0  0  0  0
   48.6320   34.8090   42.5800 H   0  0  0  0  0  0  0  0  0  0  0  0
   46.9860   31.0610   46.7970 C   0  0  0  0  0  0  0  0  0  0  0  0
   48.0150   30.6910   46.7100 H   0  0  0  0  0  0  0  0  0  0  0  0
   46.2910   30.2280   46.5800 H   0  0  0  0  0  0  0  0  0  0  0  0
   46.6400   31.6180   48.1580 C   0  0  1  0  0  0  0  0  0  0  0  0
   46.1390   30.6390   49.1610 C   0  0  0  0  0  0  0  0  0  0  0  0
   47.4550   31.2230   49.3300 C   0  0  1  0  0  0  0  0  0  0  0  0
   46.2150   32.6390   48.1670 H   0  0  0  0  0  0  0  0  0  0  0  0
   46.0530   29.5700   48.8660 H   0  0  0  0  0  0  0  0  0  0  0  0
   45.3080   30.9330   49.8500 H   0  0  0  0  0  0  0  0  0  0  0  0
   47.5440   32.0050   50.1450 H   0  0  0  0  0  0  0  0  0  0  0  0
   48.7360   30.5200   49.0850 C   0  0  0  0  0  0  0  0  0  0  0  0
   49.5950   30.2810   50.3620 C   0  0  0  0  0  0  0  0  0  0  0  0
   50.0180   31.3300   49.4190 C   0  0  0  0  0  0  0  0  0  0  0  0
   48.8350   29.7700   48.2790 H   0  0  0  0  0  0  0  0  0  0  0  0
   49.1680   30.6220   51.3260 H   0  0  0  0  0  0  0  0  0  0  0  0
   50.1750   29.3330   50.3460 H   0  0  0  0  0  0  0  0  0  0  0  0
   49.8550   32.3940   49.6720 H   0  0  0  0  0  0  0  0  0  0  0  0
   50.8680   31.1810   48.7060 H   0  0  0  0  0  0  0  0  0  0  0  0
  2  1  2  0  0  0  0
  2 21  1  0  0  0  0
  3  9  1  0  0  0  0
  3  8  1  0  0  0  0
  4  3  2  0  0  0  0
  5  4  1  0  0  0  0
  5  6  2  0  0  0  0
  6  7  1  0  0  0  0
  7  8  2  0  0  0  0
  7  1  1  0  0  0  0
 10  4  1  0  0  0  0
 11 19  1  0  0  0  0
 11  5  1  0  0  0  0
 12 11  1  0  0  0  0
 12 13  1  0  0  0  0
 14 12  1  0  0  0  0
 15 14  1  0  0  0  0
 16 14  1  0  0  0  0
 16 17  1  0  0  0  0
 17 19  1  0  0  0  0
 18 17  1  0  0  0  0
 19 20  1  0  0  0  0
 21 24  1  0  0  0  0
 22 21  1  0  0  0  0
 23 21  1  0  0  0  0
 24 27  1  1  0  0  0
 24 25  1  0  0  0  0
 24 26  1  0  0  0  0
 25 26  1  0  0  0  0
 25 29  1  0  0  0  0
 26 30  1  1  0  0  0
 28 25  1  0  0  0  0
 31 26  1  0  0  0  0
 31 33  1  0  0  0  0
 31 32  1  0  0  0  0
 32 35  1  0  0  0  0
 33 37  1  0  0  0  0
 33 32  1  0  0  0  0
 34 31  1  0  0  0  0
 36 32  1  0  0  0  0
 38 33  1  0  0  0  0
M  END
>  <minimizedAffinity>
-5.81803036

>  <minimizedRMSD>
0.840663552

$$$$
