
 OpenBabel03242510203D

 37 40  0  0  1  0  0  0  0  0999 V2000
   48.0230   33.3010   43.6000 N   0  0  0  0  0  0  0  0  0  0  0  0
   49.0180   33.0750   42.6700 C   0  0  0  0  0  0  0  0  0  0  0  0
   50.1290   32.4890   42.7770 O   0  0  0  0  0  0  0  0  0  0  0  0
   47.5970   34.2720   43.6040 H   0  0  0  0  0  0  0  0  0  0  0  0
   46.1370   32.4160   44.9350 C   0  0  1  0  0  0  0  0  0  0  0  0
   46.4390   31.4200   43.9690 C   0  0  0  0  0  0  0  0  0  0  0  0
   47.5640   32.3170   44.5210 C   0  0  1  0  0  0  0  0  0  0  0  0
   45.8760   32.1790   45.9940 H   0  0  0  0  0  0  0  0  0  0  0  0
   46.5240   30.3520   44.3120 H   0  0  0  0  0  0  0  0  0  0  0  0
   46.3070   31.4800   42.8840 H   0  0  0  0  0  0  0  0  0  0  0  0
   48.2960   31.7660   45.1100 H   0  0  0  0  0  0  0  0  0  0  0  0
   44.8600   33.7820   43.1330 C   0  0  0  0  0  0  0  0  0  0  0  0
   45.3710   33.6570   44.4490 C   0  0  0  0  0  0  0  0  0  0  0  0
   45.1870   34.7070   45.3180 C   0  0  0  0  0  0  0  0  0  0  0  0
   44.5340   35.8110   44.8890 N   0  0  0  0  0  0  0  0  0  0  0  0
   44.0480   35.9270   43.6290 C   0  0  0  0  0  0  0  0  0  0  0  0
   44.2220   34.8720   42.7270 N   0  0  0  0  0  0  0  0  0  0  0  0
   45.0060   32.9640   42.4730 H   0  0  0  0  0  0  0  0  0  0  0  0
   45.5660   34.6390   46.3330 H   0  0  0  0  0  0  0  0  0  0  0  0
   43.5460   36.8580   43.4080 H   0  0  0  0  0  0  0  0  0  0  0  0
   48.8460   33.5650   41.2420 C   0  0  2  0  0  0  0  0  0  0  0  0
   48.5320   35.0930   41.0730 C   0  0  0  0  0  0  0  0  0  0  0  0
   47.5440   33.9890   40.7320 C   0  0  1  0  0  0  0  0  0  0  0  0
   49.6480   33.2560   40.5290 H   0  0  0  0  0  0  0  0  0  0  0  0
   49.0740   35.5900   40.2660 H   0  0  0  0  0  0  0  0  0  0  0  0
   48.5110   35.6070   42.0360 H   0  0  0  0  0  0  0  0  0  0  0  0
   46.6540   34.1390   41.3340 H   0  0  0  0  0  0  0  0  0  0  0  0
   47.2400   33.9170   39.2490 C   0  0  0  0  0  0  0  0  0  0  0  0
   47.0650   32.5120   38.7480 C   0  0  0  0  0  0  0  0  0  0  0  0
   47.9750   31.9270   38.6360 H   0  0  0  0  0  0  0  0  0  0  0  0
   46.4770   32.6570   37.3420 C   0  0  0  0  0  0  0  0  0  0  0  0
   46.7820   31.7790   36.7360 H   0  0  0  0  0  0  0  0  0  0  0  0
   46.9920   33.7870   36.7090 O   0  0  0  0  0  0  0  0  0  0  0  0
   48.3220   34.0070   37.0670 C   0  0  0  0  0  0  0  0  0  0  0  0
   48.9330   33.0850   36.9860 H   0  0  0  0  0  0  0  0  0  0  0  0
   48.4170   34.4920   38.4930 C   0  0  0  0  0  0  0  0  0  0  0  0
   49.3760   34.1290   38.9650 H   0  0  0  0  0  0  0  0  0  0  0  0
  1  4  1  0  0  0  0
  1  7  1  0  0  0  0
  2  3  2  0  0  0  0
  2  1  1  0  0  0  0
  5  8  1  1  0  0  0
  6  9  1  0  0  0  0
  6  7  1  0  0  0  0
  6  5  1  0  0  0  0
  7  5  1  0  0  0  0
  7 11  1  1  0  0  0
 10  6  1  0  0  0  0
 12 13  1  0  0  0  0
 13  5  1  0  0  0  0
 13 14  2  0  0  0  0
 14 19  1  0  0  0  0
 15 14  1  0  0  0  0
 16 15  2  0  0  0  0
 17 12  2  0  0  0  0
 17 16  1  0  0  0  0
 18 12  1  0  0  0  0
 20 16  1  0  0  0  0
 21 24  1  6  0  0  0
 21  2  1  0  0  0  0
 22 21  1  0  0  0  0
 22 26  1  0  0  0  0
 23 22  1  0  0  0  0
 23 21  1  0  0  0  0
 23 27  1  1  0  0  0
 25 22  1  0  0  0  0
 28 23  1  0  0  0  0
 29 28  1  0  0  0  0
 30 29  1  0  0  0  0
 31 29  1  0  0  0  0
 32 31  1  0  0  0  0
 33 34  1  0  0  0  0
 33 31  1  0  0  0  0
 34 36  1  0  0  0  0
 35 34  1  0  0  0  0
 36 37  1  0  0  0  0
 36 28  1  0  0  0  0
M  END
>  <minimizedAffinity>
-4.76936579

>  <minimizedRMSD>
1.41841936

$$$$
