
 OpenBabel03252508273D

 42 46  0  0  1  0  0  0  0  0999 V2000
   38.4420   29.2260   42.7980 C   0  0  1  0  0  0  0  0  0  0  0  0
   37.3220   28.7460   43.6210 C   0  0  0  0  0  0  0  0  0  0  0  0
   37.9160   27.9340   42.4070 C   0  0  2  0  0  0  0  0  0  0  0  0
   39.3000   29.4040   43.5390 H   0  0  0  0  0  0  0  0  0  0  0  0
   37.4390   28.1860   44.5690 H   0  0  0  0  0  0  0  0  0  0  0  0
   36.2890   29.0860   43.4700 H   0  0  0  0  0  0  0  0  0  0  0  0
   37.0230   27.7950   41.7150 H   0  0  0  0  0  0  0  0  0  0  0  0
   38.5630   26.6400   42.6470 C   0  0  0  0  0  0  0  0  0  0  0  0
   39.5950   26.3630   43.4840 C   0  0  0  0  0  0  0  0  0  0  0  0
   40.2570   25.1560   43.5890 C   0  0  0  0  0  0  0  0  0  0  0  0
   39.8140   24.1270   42.7470 C   0  0  0  0  0  0  0  0  0  0  0  0
   38.7530   24.3730   41.8750 C   0  0  0  0  0  0  0  0  0  0  0  0
   38.3090   23.3070   41.1130 C   0  0  0  0  0  0  0  0  0  0  0  0
   37.2060   23.4870   40.2880 C   0  0  0  0  0  0  0  0  0  0  0  0
   36.5600   24.7060   40.2300 C   0  0  0  0  0  0  0  0  0  0  0  0
   37.0480   25.7310   41.0080 C   0  0  0  0  0  0  0  0  0  0  0  0
   38.1500   25.6090   41.8420 C   0  0  0  0  0  0  0  0  0  0  0  0
   39.9070   27.1930   44.1210 H   0  0  0  0  0  0  0  0  0  0  0  0
   41.0670   25.0060   44.2740 H   0  0  0  0  0  0  0  0  0  0  0  0
   40.3220   23.1780   42.8120 H   0  0  0  0  0  0  0  0  0  0  0  0
   38.8390   22.3570   41.1850 H   0  0  0  0  0  0  0  0  0  0  0  0
   36.9480   22.5810   39.7330 H   0  0  0  0  0  0  0  0  0  0  0  0
   35.7450   24.6460   39.5510 H   0  0  0  0  0  0  0  0  0  0  0  0
   36.3550   26.5090   40.8600 H   0  0  0  0  0  0  0  0  0  0  0  0
   36.9560   31.5950   40.3870 C   0  0  0  0  0  0  0  0  0  0  0  0
   38.0480   32.5010   40.1430 C   0  0  0  0  0  0  0  0  0  0  0  0
   39.2750   32.2650   40.8420 C   0  0  0  0  0  0  0  0  0  0  0  0
   39.3580   31.2290   41.6790 N   0  0  0  0  0  0  0  0  0  0  0  0
   38.2820   30.3910   41.8760 C   0  0  0  0  0  0  0  0  0  0  0  0
   37.1220   30.5680   41.2520 N   0  0  0  0  0  0  0  0  0  0  0  0
   36.0780   31.8350   39.8310 H   0  0  0  0  0  0  0  0  0  0  0  0
   38.0020   33.3280   39.4830 H   0  0  0  0  0  0  0  0  0  0  0  0
   40.4400   33.1340   40.6580 C   0  0  0  0  0  3  0  0  0  0  0  0
   40.3850   33.9350   39.3650 C   0  0  0  0  0  3  0  0  0  0  0  0
   40.0040   33.3550   38.5130 H   0  0  0  0  0  0  0  0  0  0  0  0
   41.8210   34.4190   39.1380 C   0  0  0  0  0  3  0  0  0  0  0  0
   41.8060   35.4410   38.7080 H   0  0  0  0  0  0  0  0  0  0  0  0
   42.5100   34.5360   40.3500 O   0  0  0  0  0  0  0  0  0  0  0  0
   42.8610   33.3050   40.8900 C   0  0  0  0  0  3  0  0  0  0  0  0
   43.8600   32.9570   40.6160 H   0  0  0  0  0  0  0  0  0  0  0  0
   41.7440   32.3380   40.5880 C   0  0  0  0  0  3  0  0  0  0  0  0
   41.6890   31.5020   41.2890 H   0  0  0  0  0  0  0  0  0  0  0  0
  1  4  1  1  0  0  0
  1  2  1  0  0  0  0
  2  5  1  0  0  0  0
  3  7  1  6  0  0  0
  3  8  1  0  0  0  0
  3  1  1  0  0  0  0
  3  2  1  0  0  0  0
  6  2  1  0  0  0  0
  8  9  1  0  0  0  0
  9 10  2  0  0  0  0
  9 18  1  0  0  0  0
 10 19  1  0  0  0  0
 11 20  1  0  0  0  0
 11 10  1  0  0  0  0
 12 11  2  0  0  0  0
 13 21  1  0  0  0  0
 13 12  1  0  0  0  0
 14 13  2  0  0  0  0
 15 14  1  0  0  0  0
 15 16  2  0  0  0  0
 16 17  1  0  0  0  0
 17 12  1  0  0  0  0
 17  8  2  0  0  0  0
 22 14  1  0  0  0  0
 23 15  1  0  0  0  0
 24 16  1  0  0  0  0
 25 30  1  0  0  0  0
 26 25  2  0  0  0  0
 26 27  1  0  0  0  0
 27 28  2  0  0  0  0
 28 29  1  0  0  0  0
 29  1  1  0  0  0  0
 30 29  2  0  0  0  0
 31 25  1  0  0  0  0
 32 26  1  0  0  0  0
 33 27  1  0  0  0  0
 34 33  1  0  0  0  0
 35 34  1  0  0  0  0
 36 34  1  0  0  0  0
 36 38  1  0  0  0  0
 37 36  1  0  0  0  0
 38 39  1  0  0  0  0
 40 39  1  0  0  0  0
 41 33  1  0  0  0  0
 41 39  1  0  0  0  0
 41 42  1  0  0  0  0
M  END
>  <minimizedAffinity>
-6.69418621

$$$$

 OpenBabel03252508273D

 42 46  0  0  1  0  0  0  0  0999 V2000
   38.5140   29.3500   42.1760 C   0  0  1  0  0  0  0  0  0  0  0  0
   37.7320   29.1900   43.4100 C   0  0  0  0  0  0  0  0  0  0  0  0
   37.8630   28.0630   42.3140 C   0  0  2  0  0  0  0  0  0  0  0  0
   39.5760   29.6060   42.5290 H   0  0  0  0  0  0  0  0  0  0  0  0
   38.1520   28.8530   44.3770 H   0  0  0  0  0  0  0  0  0  0  0  0
   36.7140   29.5890   43.5210 H   0  0  0  0  0  0  0  0  0  0  0  0
   36.7850   27.8610   42.0080 H   0  0  0  0  0  0  0  0  0  0  0  0
   38.5280   26.8000   42.6500 C   0  0  0  0  0  0  0  0  0  0  0  0
   39.5530   26.5990   43.5160 C   0  0  0  0  0  0  0  0  0  0  0  0
   40.2350   25.4140   43.7100 C   0  0  0  0  0  0  0  0  0  0  0  0
   39.8230   24.3230   42.9330 C   0  0  0  0  0  0  0  0  0  0  0  0
   38.7700   24.4910   42.0330 C   0  0  0  0  0  0  0  0  0  0  0  0
   38.3560   23.3690   41.3390 C   0  0  0  0  0  0  0  0  0  0  0  0
   37.2620   23.4730   40.4890 C   0  0  0  0  0  0  0  0  0  0  0  0
   36.5960   24.6720   40.3400 C   0  0  0  0  0  0  0  0  0  0  0  0
   37.0540   25.7560   41.0550 C   0  0  0  0  0  0  0  0  0  0  0  0
   38.1460   25.7100   41.9100 C   0  0  0  0  0  0  0  0  0  0  0  0
   39.8410   27.4760   44.1010 H   0  0  0  0  0  0  0  0  0  0  0  0
   41.0380   25.3250   44.4150 H   0  0  0  0  0  0  0  0  0  0  0  0
   40.3470   23.3910   43.0690 H   0  0  0  0  0  0  0  0  0  0  0  0
   38.9020   22.4360   41.4810 H   0  0  0  0  0  0  0  0  0  0  0  0
   37.0280   22.5270   39.9930 H   0  0  0  0  0  0  0  0  0  0  0  0
   35.7920   24.5520   39.6570 H   0  0  0  0  0  0  0  0  0  0  0  0
   36.3490   26.5090   40.8460 H   0  0  0  0  0  0  0  0  0  0  0  0
   37.9600   32.4460   40.2430 C   0  0  0  0  0  0  0  0  0  0  0  0
   37.1870   31.9690   39.1250 C   0  0  0  0  0  0  0  0  0  0  0  0
   36.8910   30.5690   39.0720 C   0  0  0  0  0  0  0  0  0  0  0  0
   37.3360   29.7730   40.0460 N   0  0  0  0  0  0  0  0  0  0  0  0
   38.0720   30.2810   41.0950 C   0  0  0  0  0  0  0  0  0  0  0  0
   38.3730   31.5730   41.1890 N   0  0  0  0  0  0  0  0  0  0  0  0
   38.1390   33.4970   40.2120 H   0  0  0  0  0  0  0  0  0  0  0  0
   36.8250   32.5840   38.3420 H   0  0  0  0  0  0  0  0  0  0  0  0
   36.1110   29.9930   37.9740 C   0  0  0  0  0  3  0  0  0  0  0  0
   35.3790   28.7190   38.3700 C   0  0  0  0  0  3  0  0  0  0  0  0
   35.9780   28.0580   39.0120 H   0  0  0  0  0  0  0  0  0  0  0  0
   35.0020   28.0510   37.0440 C   0  0  0  0  0  3  0  0  0  0  0  0
   34.0060   27.5720   37.1380 H   0  0  0  0  0  0  0  0  0  0  0  0
   34.8650   28.9980   36.0240 O   0  0  0  0  0  0  0  0  0  0  0  0
   36.0850   29.4990   35.5870 C   0  0  0  0  0  3  0  0  0  0  0  0
   36.5120   28.9710   34.7300 H   0  0  0  0  0  0  0  0  0  0  0  0
   36.9930   29.6030   36.7870 C   0  0  0  0  0  3  0  0  0  0  0  0
   37.7840   30.3480   36.6710 H   0  0  0  0  0  0  0  0  0  0  0  0
  1  3  1  0  0  0  0
  1  4  1  1  0  0  0
  1  2  1  0  0  0  0
  2  6  1  0  0  0  0
  2  5  1  0  0  0  0
  3  7  1  6  0  0  0
  3  8  1  0  0  0  0
  3  2  1  0  0  0  0
  8  9  1  0  0  0  0
  9 10  2  0  0  0  0
  9 18  1  0  0  0  0
 10 19  1  0  0  0  0
 11 20  1  0  0  0  0
 11 10  1  0  0  0  0
 12 11  2  0  0  0  0
 13 21  1  0  0  0  0
 13 12  1  0  0  0  0
 14 13  2  0  0  0  0
 15 14  1  0  0  0  0
 15 16  2  0  0  0  0
 16 17  1  0  0  0  0
 17 12  1  0  0  0  0
 17  8  2  0  0  0  0
 22 14  1  0  0  0  0
 23 15  1  0  0  0  0
 24 16  1  0  0  0  0
 25 30  1  0  0  0  0
 26 25  2  0  0  0  0
 27 26  1  0  0  0  0
 27 28  2  0  0  0  0
 28 29  1  0  0  0  0
 29 30  2  0  0  0  0
 29  1  1  0  0  0  0
 31 25  1  0  0  0  0
 32 26  1  0  0  0  0
 33 34  1  0  0  0  0
 33 27  1  0  0  0  0
 34 35  1  0  0  0  0
 36 37  1  0  0  0  0
 36 34  1  0  0  0  0
 38 36  1  0  0  0  0
 39 38  1  0  0  0  0
 39 41  1  0  0  0  0
 40 39  1  0  0  0  0
 41 33  1  0  0  0  0
 42 41  1  0  0  0  0
M  END
>  <minimizedAffinity>
-6.62936258

$$$$

 OpenBabel03252508273D

 42 46  0  0  1  0  0  0  0  0999 V2000
   38.9610   27.8070   42.8740 C   0  0  1  0  0  0  0  0  0  0  0  0
   37.6700   27.9040   43.5710 C   0  0  0  0  0  0  0  0  0  0  0  0
   37.8050   27.5390   42.0430 C   0  0  2  0  0  0  0  0  0  0  0  0
   39.5590   27.0240   43.4640 H   0  0  0  0  0  0  0  0  0  0  0  0
   37.2020   27.0750   44.1370 H   0  0  0  0  0  0  0  0  0  0  0  0
   37.1710   28.8640   43.7590 H   0  0  0  0  0  0  0  0  0  0  0  0
   37.1980   28.3480   41.5200 H   0  0  0  0  0  0  0  0  0  0  0  0
   37.3780   26.2170   41.5730 C   0  0  0  0  0  0  0  0  0  0  0  0
   37.6030   25.0100   42.1520 C   0  0  0  0  0  0  0  0  0  0  0  0
   37.2920   23.7770   41.6140 C   0  0  0  0  0  0  0  0  0  0  0  0
   36.6890   23.7840   40.3490 C   0  0  0  0  0  0  0  0  0  0  0  0
   36.4400   25.0050   39.7220 C   0  0  0  0  0  0  0  0  0  0  0  0
   35.7830   24.9630   38.5060 C   0  0  0  0  0  0  0  0  0  0  0  0
   35.4460   26.1580   37.8840 C   0  0  0  0  0  0  0  0  0  0  0  0
   35.7570   27.3700   38.4680 C   0  0  0  0  0  0  0  0  0  0  0  0
   36.4130   27.3510   39.6780 C   0  0  0  0  0  0  0  0  0  0  0  0
   36.7810   26.1870   40.3380 C   0  0  0  0  0  0  0  0  0  0  0  0
   38.0740   25.0520   43.1370 H   0  0  0  0  0  0  0  0  0  0  0  0
   37.4970   22.8600   42.1290 H   0  0  0  0  0  0  0  0  0  0  0  0
   36.4430   22.8300   39.9110 H   0  0  0  0  0  0  0  0  0  0  0  0
   35.5490   23.9900   38.0730 H   0  0  0  0  0  0  0  0  0  0  0  0
   34.9350   26.0020   36.9300 H   0  0  0  0  0  0  0  0  0  0  0  0
   35.4190   28.1620   37.8480 H   0  0  0  0  0  0  0  0  0  0  0  0
   36.4600   28.3660   39.9530 H   0  0  0  0  0  0  0  0  0  0  0  0
   41.8490   30.1030   42.7280 C   0  0  0  0  0  0  0  0  0  0  0  0
   41.2620   31.2890   42.1610 C   0  0  0  0  0  0  0  0  0  0  0  0
   39.8680   31.2480   41.8320 C   0  0  0  0  0  0  0  0  0  0  0  0
   39.1790   30.1290   42.0600 N   0  0  0  0  0  0  0  0  0  0  0  0
   39.7900   29.0200   42.6060 C   0  0  0  0  0  0  0  0  0  0  0  0
   41.0800   29.0090   42.9280 N   0  0  0  0  0  0  0  0  0  0  0  0
   42.8870   30.2100   42.9460 H   0  0  0  0  0  0  0  0  0  0  0  0
   41.7920   32.1870   41.9720 H   0  0  0  0  0  0  0  0  0  0  0  0
   39.1850   32.4070   41.2520 C   0  0  0  0  0  3  0  0  0  0  0  0
   37.9270   32.0300   40.4820 C   0  0  0  0  0  3  0  0  0  0  0  0
   38.0450   31.1170   39.8830 H   0  0  0  0  0  0  0  0  0  0  0  0
   37.6140   33.2540   39.6150 C   0  0  0  0  0  3  0  0  0  0  0  0
   36.5150   33.3940   39.5530 H   0  0  0  0  0  0  0  0  0  0  0  0
   38.1050   34.4260   40.2000 O   0  0  0  0  0  0  0  0  0  0  0  0
   39.4870   34.5360   40.1040 C   0  0  0  0  0  3  0  0  0  0  0  0
   39.8380   35.0930   39.2320 H   0  0  0  0  0  0  0  0  0  0  0  0
   40.0680   33.1520   40.2500 C   0  0  0  0  0  3  0  0  0  0  0  0
   41.0990   33.1480   40.6120 H   0  0  0  0  0  0  0  0  0  0  0  0
  1  4  1  1  0  0  0
  1  2  1  0  0  0  0
  2  6  1  0  0  0  0
  2  5  1  0  0  0  0
  3  7  1  6  0  0  0
  3  1  1  0  0  0  0
  3  2  1  0  0  0  0
  8  3  1  0  0  0  0
  8  9  1  0  0  0  0
  9 18  1  0  0  0  0
 10 19  1  0  0  0  0
 10  9  2  0  0  0  0
 11 10  1  0  0  0  0
 12 17  1  0  0  0  0
 12 11  2  0  0  0  0
 13 12  1  0  0  0  0
 14 15  1  0  0  0  0
 14 13  2  0  0  0  0
 15 16  2  0  0  0  0
 16 24  1  0  0  0  0
 16 17  1  0  0  0  0
 17  8  2  0  0  0  0
 20 11  1  0  0  0  0
 21 13  1  0  0  0  0
 22 14  1  0  0  0  0
 23 15  1  0  0  0  0
 25 30  1  0  0  0  0
 25 31  1  0  0  0  0
 26 25  2  0  0  0  0
 27 28  2  0  0  0  0
 27 26  1  0  0  0  0
 28 29  1  0  0  0  0
 29  1  1  0  0  0  0
 29 30  2  0  0  0  0
 32 26  1  0  0  0  0
 33 27  1  0  0  0  0
 34 33  1  0  0  0  0
 35 34  1  0  0  0  0
 36 38  1  0  0  0  0
 36 34  1  0  0  0  0
 37 36  1  0  0  0  0
 39 38  1  0  0  0  0
 39 41  1  0  0  0  0
 40 39  1  0  0  0  0
 41 42  1  0  0  0  0
 41 33  1  0  0  0  0
M  END
>  <minimizedAffinity>
-6.51053095

$$$$

 OpenBabel03252508273D

 42 46  0  0  1  0  0  0  0  0999 V2000
   33.9650   29.0740   35.1690 C   0  0  1  0  0  0  0  0  0  0  0  0
   32.9240   28.0440   35.3060 C   0  0  0  0  0  0  0  0  0  0  0  0
   32.8510   29.4510   36.0150 C   0  0  2  0  0  0  0  0  0  0  0  0
   34.0440   29.2670   34.0400 H   0  0  0  0  0  0  0  0  0  0  0  0
   32.0810   27.9100   34.6010 H   0  0  0  0  0  0  0  0  0  0  0  0
   33.0180   27.1980   36.0000 H   0  0  0  0  0  0  0  0  0  0  0  0
   32.7770   29.1900   37.1210 H   0  0  0  0  0  0  0  0  0  0  0  0
   31.7830   30.3890   35.6550 C   0  0  0  0  0  0  0  0  0  0  0  0
   31.6570   31.1170   34.5170 C   0  0  0  0  0  0  0  0  0  0  0  0
   30.7020   32.0830   34.2690 C   0  0  0  0  0  0  0  0  0  0  0  0
   29.7810   32.3280   35.2960 C   0  0  0  0  0  0  0  0  0  0  0  0
   29.8760   31.5960   36.4800 C   0  0  0  0  0  0  0  0  0  0  0  0
   28.9040   31.8250   37.4370 C   0  0  0  0  0  0  0  0  0  0  0  0
   28.9160   31.0650   38.5990 C   0  0  0  0  0  0  0  0  0  0  0  0
   29.8770   30.0940   38.7980 C   0  0  0  0  0  0  0  0  0  0  0  0
   30.8200   29.9120   37.8120 C   0  0  0  0  0  0  0  0  0  0  0  0
   30.8610   30.6480   36.6370 C   0  0  0  0  0  0  0  0  0  0  0  0
   32.3960   30.8940   33.7430 H   0  0  0  0  0  0  0  0  0  0  0  0
   30.6610   32.6220   33.3430 H   0  0  0  0  0  0  0  0  0  0  0  0
   29.0310   33.0810   35.1210 H   0  0  0  0  0  0  0  0  0  0  0  0
   28.1580   32.5970   37.2480 H   0  0  0  0  0  0  0  0  0  0  0  0
   28.1050   31.3350   39.2820 H   0  0  0  0  0  0  0  0  0  0  0  0
   29.7190   29.6210   39.7350 H   0  0  0  0  0  0  0  0  0  0  0  0
   31.3740   29.0810   38.1460 H   0  0  0  0  0  0  0  0  0  0  0  0
   37.4350   27.9290   35.6900 C   0  0  0  0  0  0  0  0  0  0  0  0
   37.7650   28.5330   36.9550 C   0  0  0  0  0  0  0  0  0  0  0  0
   36.7640   29.3390   37.5870 C   0  0  0  0  0  0  0  0  0  0  0  0
   35.5820   29.4960   36.9880 N   0  0  0  0  0  0  0  0  0  0  0  0
   35.3170   28.8940   35.7760 C   0  0  0  0  0  0  0  0  0  0  0  0
   36.2130   28.1380   35.1500 N   0  0  0  0  0  0  0  0  0  0  0  0
   38.2300   27.3450   35.2840 H   0  0  0  0  0  0  0  0  0  0  0  0
   38.6970   28.4210   37.4470 H   0  0  0  0  0  0  0  0  0  0  0  0
   37.0080   29.9930   38.8750 C   0  0  0  0  0  3  0  0  0  0  0  0
   35.9380   29.6830   39.9110 C   0  0  0  0  0  3  0  0  0  0  0  0
   34.9220   29.6750   39.4940 H   0  0  0  0  0  0  0  0  0  0  0  0
   36.1110   30.7560   40.9910 C   0  0  0  0  0  3  0  0  0  0  0  0
   35.9210   30.3120   41.9900 H   0  0  0  0  0  0  0  0  0  0  0  0
   37.4310   31.2180   41.0350 O   0  0  0  0  0  0  0  0  0  0  0  0
   37.7460   32.0460   39.9640 C   0  0  0  0  0  3  0  0  0  0  0  0
   37.6050   33.1120   40.1570 H   0  0  0  0  0  0  0  0  0  0  0  0
   37.0240   31.5170   38.7500 C   0  0  0  0  0  3  0  0  0  0  0  0
   37.5000   31.7930   37.8060 H   0  0  0  0  0  0  0  0  0  0  0  0
  1  4  1  6  0  0  0
  1  2  1  0  0  0  0
  1 29  1  0  0  0  0
  1  3  1  0  0  0  0
  2  6  1  0  0  0  0
  2  3  1  0  0  0  0
  3  7  1  1  0  0  0
  5  2  1  0  0  0  0
  8  3  1  0  0  0  0
  8 17  1  0  0  0  0
  9  8  2  0  0  0  0
 10  9  1  0  0  0  0
 10 11  2  0  0  0  0
 11 12  1  0  0  0  0
 12 17  2  0  0  0  0
 12 13  1  0  0  0  0
 13 14  2  0  0  0  0
 14 15  1  0  0  0  0
 14 22  1  0  0  0  0
 15 23  1  0  0  0  0
 16 24  1  0  0  0  0
 16 15  2  0  0  0  0
 17 16  1  0  0  0  0
 18  9  1  0  0  0  0
 19 10  1  0  0  0  0
 20 11  1  0  0  0  0
 21 13  1  0  0  0  0
 25 26  1  0  0  0  0
 26 32  1  0  0  0  0
 26 27  2  0  0  0  0
 27 33  1  0  0  0  0
 28 27  1  0  0  0  0
 29 28  2  0  0  0  0
 30 25  2  0  0  0  0
 30 29  1  0  0  0  0
 31 25  1  0  0  0  0
 33 34  1  0  0  0  0
 34 36  1  0  0  0  0
 35 34  1  0  0  0  0
 36 38  1  0  0  0  0
 36 37  1  0  0  0  0
 39 40  1  0  0  0  0
 39 38  1  0  0  0  0
 41 33  1  0  0  0  0
 41 39  1  0  0  0  0
 42 41  1  0  0  0  0
M  END
>  <minimizedAffinity>
-6.43284225

$$$$

 OpenBabel03252508273D

 42 46  0  0  1  0  0  0  0  0999 V2000
   34.5320   28.8810   36.6360 C   0  0  1  0  0  0  0  0  0  0  0  0
   33.6320   27.7360   36.8410 C   0  0  0  0  0  0  0  0  0  0  0  0
   33.1980   29.2330   37.0810 C   0  0  2  0  0  0  0  0  0  0  0  0
   34.8740   28.7960   35.5440 H   0  0  0  0  0  0  0  0  0  0  0  0
   33.0230   27.2690   36.0440 H   0  0  0  0  0  0  0  0  0  0  0  0
   33.6520   27.1250   37.7540 H   0  0  0  0  0  0  0  0  0  0  0  0
   32.8760   29.2480   38.1720 H   0  0  0  0  0  0  0  0  0  0  0  0
   32.1480   29.8250   36.2460 C   0  0  0  0  0  0  0  0  0  0  0  0
   32.1920   30.1040   34.9180 C   0  0  0  0  0  0  0  0  0  0  0  0
   31.2270   30.7770   34.1950 C   0  0  0  0  0  0  0  0  0  0  0  0
   30.1010   31.2090   34.9080 C   0  0  0  0  0  0  0  0  0  0  0  0
   30.0190   30.9380   36.2750 C   0  0  0  0  0  0  0  0  0  0  0  0
   28.8590   31.3250   36.9210 C   0  0  0  0  0  0  0  0  0  0  0  0
   28.7020   31.0070   38.2630 C   0  0  0  0  0  0  0  0  0  0  0  0
   29.6830   30.3140   38.9440 C   0  0  0  0  0  0  0  0  0  0  0  0
   30.8170   29.9570   38.2500 C   0  0  0  0  0  0  0  0  0  0  0  0
   31.0290   30.2560   36.9120 C   0  0  0  0  0  0  0  0  0  0  0  0
   33.0870   29.7490   34.4020 H   0  0  0  0  0  0  0  0  0  0  0  0
   31.3270   30.9630   33.1440 H   0  0  0  0  0  0  0  0  0  0  0  0
   29.3390   31.7390   34.3600 H   0  0  0  0  0  0  0  0  0  0  0  0
   28.1020   31.8670   36.3540 H   0  0  0  0  0  0  0  0  0  0  0  0
   27.7510   31.3640   38.6680 H   0  0  0  0  0  0  0  0  0  0  0  0
   29.3810   30.1630   39.9510 H   0  0  0  0  0  0  0  0  0  0  0  0
   31.3610   29.3790   38.9410 H   0  0  0  0  0  0  0  0  0  0  0  0
   37.8190   30.0180   37.8720 C   0  0  0  0  0  0  0  0  0  0  0  0
   37.8340   29.4940   39.2130 C   0  0  0  0  0  0  0  0  0  0  0  0
   36.6830   28.7650   39.6540 C   0  0  0  0  0  0  0  0  0  0  0  0
   35.6560   28.6030   38.8170 N   0  0  0  0  0  0  0  0  0  0  0  0
   35.6940   29.1250   37.5420 C   0  0  0  0  0  0  0  0  0  0  0  0
   36.7390   29.8080   37.0870 N   0  0  0  0  0  0  0  0  0  0  0  0
   38.7100   30.5470   37.6170 H   0  0  0  0  0  0  0  0  0  0  0  0
   38.6390   29.6130   39.8930 H   0  0  0  0  0  0  0  0  0  0  0  0
   36.6080   28.1960   41.0020 C   0  0  0  0  0  3  0  0  0  0  0  0
   37.0920   29.1540   42.0800 C   0  0  0  0  0  3  0  0  0  0  0  0
   37.9840   29.7230   41.7840 H   0  0  0  0  0  0  0  0  0  0  0  0
   37.3510   28.2720   43.3060 C   0  0  0  0  0  3  0  0  0  0  0  0
   37.0610   28.8200   44.2260 H   0  0  0  0  0  0  0  0  0  0  0  0
   36.5440   27.1300   43.2840 O   0  0  0  0  0  0  0  0  0  0  0  0
   36.9640   26.1930   42.3470 C   0  0  0  0  0  3  0  0  0  0  0  0
   37.6410   25.4310   42.7380 H   0  0  0  0  0  0  0  0  0  0  0  0
   37.4790   26.9470   41.1460 C   0  0  0  0  0  3  0  0  0  0  0  0
   37.4340   26.3720   40.2180 H   0  0  0  0  0  0  0  0  0  0  0  0
  1  4  1  6  0  0  0
  1  2  1  0  0  0  0
  1  3  1  0  0  0  0
  1 29  1  0  0  0  0
  2  3  1  0  0  0  0
  2  6  1  0  0  0  0
  3  7  1  1  0  0  0
  5  2  1  0  0  0  0
  8 17  1  0  0  0  0
  8  3  1  0  0  0  0
  9  8  2  0  0  0  0
 10 11  2  0  0  0  0
 10  9  1  0  0  0  0
 11 12  1  0  0  0  0
 12 17  2  0  0  0  0
 12 13  1  0  0  0  0
 13 14  2  0  0  0  0
 14 22  1  0  0  0  0
 14 15  1  0  0  0  0
 15 23  1  0  0  0  0
 16 24  1  0  0  0  0
 16 15  2  0  0  0  0
 17 16  1  0  0  0  0
 18  9  1  0  0  0  0
 19 10  1  0  0  0  0
 20 11  1  0  0  0  0
 21 13  1  0  0  0  0
 25 26  1  0  0  0  0
 26 27  2  0  0  0  0
 26 32  1  0  0  0  0
 27 33  1  0  0  0  0
 28 27  1  0  0  0  0
 29 28  2  0  0  0  0
 30 29  1  0  0  0  0
 30 25  2  0  0  0  0
 31 25  1  0  0  0  0
 33 41  1  0  0  0  0
 33 34  1  0  0  0  0
 34 36  1  0  0  0  0
 35 34  1  0  0  0  0
 36 37  1  0  0  0  0
 38 36  1  0  0  0  0
 39 40  1  0  0  0  0
 39 38  1  0  0  0  0
 41 39  1  0  0  0  0
 42 41  1  0  0  0  0
M  END
>  <minimizedAffinity>
-6.28091717

$$$$

 OpenBabel03252508273D

 42 46  0  0  1  0  0  0  0  0999 V2000
   37.7100   31.5220   40.9850 C   0  0  1  0  0  0  0  0  0  0  0  0
   36.5690   31.0910   40.1650 C   0  0  0  0  0  0  0  0  0  0  0  0
   37.7170   30.1160   40.6320 C   0  0  2  0  0  0  0  0  0  0  0  0
   37.2410   31.9730   41.9310 H   0  0  0  0  0  0  0  0  0  0  0  0
   35.5900   30.7750   40.5730 H   0  0  0  0  0  0  0  0  0  0  0  0
   36.5300   31.2470   39.0780 H   0  0  0  0  0  0  0  0  0  0  0  0
   38.1380   29.7100   39.6560 H   0  0  0  0  0  0  0  0  0  0  0  0
   37.4020   29.0070   41.5370 C   0  0  0  0  0  0  0  0  0  0  0  0
   37.3350   29.0240   42.8920 C   0  0  0  0  0  0  0  0  0  0  0  0
   37.1580   27.9290   43.7140 C   0  0  0  0  0  0  0  0  0  0  0  0
   37.0370   26.6860   43.0780 C   0  0  0  0  0  0  0  0  0  0  0  0
   37.0970   26.6280   41.6860 C   0  0  0  0  0  0  0  0  0  0  0  0
   36.9050   25.3880   41.1020 C   0  0  0  0  0  0  0  0  0  0  0  0
   36.8810   25.2970   39.7170 C   0  0  0  0  0  0  0  0  0  0  0  0
   37.0410   26.4220   38.9320 C   0  0  0  0  0  0  0  0  0  0  0  0
   37.2310   27.6270   39.5680 C   0  0  0  0  0  0  0  0  0  0  0  0
   37.2730   27.7750   40.9470 C   0  0  0  0  0  0  0  0  0  0  0  0
   37.4340   30.0140   43.3460 H   0  0  0  0  0  0  0  0  0  0  0  0
   37.1140   28.0160   44.7810 H   0  0  0  0  0  0  0  0  0  0  0  0
   36.9020   25.8190   43.7040 H   0  0  0  0  0  0  0  0  0  0  0  0
   36.7780   24.5210   41.7500 H   0  0  0  0  0  0  0  0  0  0  0  0
   36.7260   24.2720   39.3690 H   0  0  0  0  0  0  0  0  0  0  0  0
   36.9900   26.1520   37.9060 H   0  0  0  0  0  0  0  0  0  0  0  0
   37.2400   28.3270   38.7810 H   0  0  0  0  0  0  0  0  0  0  0  0
   39.7570   34.5270   40.3470 C   0  0  0  0  0  0  0  0  0  0  0  0
   40.6760   34.0580   39.3430 C   0  0  0  0  0  0  0  0  0  0  0  0
   40.5630   32.6930   38.9250 C   0  0  0  0  0  0  0  0  0  0  0  0
   39.6230   31.9210   39.4740 N   0  0  0  0  0  0  0  0  0  0  0  0
   38.7670   32.4210   40.4320 C   0  0  0  0  0  0  0  0  0  0  0  0
   38.8320   33.6800   40.8530 N   0  0  0  0  0  0  0  0  0  0  0  0
   39.9030   35.5520   40.6050 H   0  0  0  0  0  0  0  0  0  0  0  0
   41.4290   34.6550   38.8960 H   0  0  0  0  0  0  0  0  0  0  0  0
   41.4540   32.1270   37.9100 C   0  0  0  0  0  3  0  0  0  0  0  0
   41.0300   30.7380   37.4550 C   0  0  0  0  0  3  0  0  0  0  0  0
   40.6780   30.1020   38.2790 H   0  0  0  0  0  0  0  0  0  0  0  0
   42.2660   30.1540   36.7620 C   0  0  0  0  0  3  0  0  0  0  0  0
   41.9510   29.5450   35.8910 H   0  0  0  0  0  0  0  0  0  0  0  0
   43.0740   31.1680   36.2350 O   0  0  0  0  0  0  0  0  0  0  0  0
   43.7760   31.8600   37.2150 C   0  0  0  0  0  3  0  0  0  0  0  0
   44.7780   31.4740   37.4130 H   0  0  0  0  0  0  0  0  0  0  0  0
   42.8840   31.9670   38.4270 C   0  0  0  0  0  3  0  0  0  0  0  0
   43.1270   32.8140   39.0730 H   0  0  0  0  0  0  0  0  0  0  0  0
  1  4  1  1  0  0  0
  2  5  1  0  0  0  0
  2  3  1  0  0  0  0
  2  1  1  0  0  0  0
  3  7  1  6  0  0  0
  3  1  1  0  0  0  0
  3  8  1  0  0  0  0
  6  2  1  0  0  0  0
  8  9  1  0  0  0  0
  9 18  1  0  0  0  0
  9 10  2  0  0  0  0
 10 19  1  0  0  0  0
 11 20  1  0  0  0  0
 11 10  1  0  0  0  0
 12 11  2  0  0  0  0
 13 12  1  0  0  0  0
 13 21  1  0  0  0  0
 14 13  2  0  0  0  0
 15 16  2  0  0  0  0
 15 14  1  0  0  0  0
 16 17  1  0  0  0  0
 17  8  2  0  0  0  0
 17 12  1  0  0  0  0
 22 14  1  0  0  0  0
 23 15  1  0  0  0  0
 24 16  1  0  0  0  0
 25 31  1  0  0  0  0
 25 30  1  0  0  0  0
 26 25  2  0  0  0  0
 27 26  1  0  0  0  0
 27 28  2  0  0  0  0
 28 29  1  0  0  0  0
 29 30  2  0  0  0  0
 29  1  1  0  0  0  0
 32 26  1  0  0  0  0
 33 41  1  0  0  0  0
 33 27  1  0  0  0  0
 34 33  1  0  0  0  0
 34 35  1  0  0  0  0
 36 34  1  0  0  0  0
 37 36  1  0  0  0  0
 38 36  1  0  0  0  0
 38 39  1  0  0  0  0
 39 40  1  0  0  0  0
 39 41  1  0  0  0  0
 41 42  1  0  0  0  0
M  END
>  <minimizedAffinity>
-6.26742077

$$$$

 OpenBabel03252508273D

 42 46  0  0  1  0  0  0  0  0999 V2000
   34.5910   29.0260   37.4690 C   0  0  1  0  0  0  0  0  0  0  0  0
   33.9230   27.7460   37.1880 C   0  0  0  0  0  0  0  0  0  0  0  0
   33.1440   29.0770   37.5190 C   0  0  2  0  0  0  0  0  0  0  0  0
   35.2370   29.2310   36.5420 H   0  0  0  0  0  0  0  0  0  0  0  0
   33.6720   27.3810   36.1730 H   0  0  0  0  0  0  0  0  0  0  0  0
   33.8090   26.9600   37.9470 H   0  0  0  0  0  0  0  0  0  0  0  0
   32.5310   28.8060   38.4400 H   0  0  0  0  0  0  0  0  0  0  0  0
   32.2740   29.6790   36.5040 C   0  0  0  0  0  0  0  0  0  0  0  0
   32.5240   29.8460   35.1810 C   0  0  0  0  0  0  0  0  0  0  0  0
   31.7300   30.5310   34.2810 C   0  0  0  0  0  0  0  0  0  0  0  0
   30.5590   31.1040   34.7950 C   0  0  0  0  0  0  0  0  0  0  0  0
   30.2670   30.9510   36.1500 C   0  0  0  0  0  0  0  0  0  0  0  0
   29.0670   31.4770   36.5950 C   0  0  0  0  0  0  0  0  0  0  0  0
   28.7000   31.2800   37.9200 C   0  0  0  0  0  0  0  0  0  0  0  0
   29.5140   30.5710   38.7800 C   0  0  0  0  0  0  0  0  0  0  0  0
   30.6970   30.0730   38.2830 C   0  0  0  0  0  0  0  0  0  0  0  0
   31.1160   30.2470   36.9720 C   0  0  0  0  0  0  0  0  0  0  0  0
   33.4470   29.3830   34.8240 H   0  0  0  0  0  0  0  0  0  0  0  0
   31.9890   30.6240   33.2460 H   0  0  0  0  0  0  0  0  0  0  0  0
   29.9290   31.6460   34.1080 H   0  0  0  0  0  0  0  0  0  0  0  0
   28.4460   32.0290   35.8900 H   0  0  0  0  0  0  0  0  0  0  0  0
   27.7380   31.7420   38.1590 H   0  0  0  0  0  0  0  0  0  0  0  0
   29.0650   30.5260   39.7410 H   0  0  0  0  0  0  0  0  0  0  0  0
   31.0890   29.5120   39.0830 H   0  0  0  0  0  0  0  0  0  0  0  0
   35.7420   28.7010   40.9610 C   0  0  0  0  0  0  0  0  0  0  0  0
   36.7930   29.6830   41.0250 C   0  0  0  0  0  0  0  0  0  0  0  0
   37.0800   30.4260   39.8340 C   0  0  0  0  0  0  0  0  0  0  0  0
   36.3720   30.1820   38.7300 N   0  0  0  0  0  0  0  0  0  0  0  0
   35.3750   29.2310   38.7230 C   0  0  0  0  0  0  0  0  0  0  0  0
   35.0720   28.5160   39.8020 N   0  0  0  0  0  0  0  0  0  0  0  0
   35.5870   28.1900   41.8850 H   0  0  0  0  0  0  0  0  0  0  0  0
   37.3660   29.8910   41.8910 H   0  0  0  0  0  0  0  0  0  0  0  0
   38.1310   31.4460   39.8040 C   0  0  0  0  0  3  0  0  0  0  0  0
   37.6760   32.7850   40.3660 C   0  0  0  0  0  3  0  0  0  0  0  0
   36.6540   33.0540   40.0680 H   0  0  0  0  0  0  0  0  0  0  0  0
   38.7110   33.7970   39.8630 C   0  0  0  0  0  3  0  0  0  0  0  0
   38.8970   34.5590   40.6470 H   0  0  0  0  0  0  0  0  0  0  0  0
   39.9480   33.1830   39.6390 O   0  0  0  0  0  0  0  0  0  0  0  0
   39.9570   32.3940   38.4950 C   0  0  0  0  0  3  0  0  0  0  0  0
   40.3010   32.9050   37.5930 H   0  0  0  0  0  0  0  0  0  0  0  0
   38.6010   31.7420   38.3790 C   0  0  0  0  0  3  0  0  0  0  0  0
   38.6130   30.8110   37.8070 H   0  0  0  0  0  0  0  0  0  0  0  0
  1  4  1  6  0  0  0
  1  3  1  0  0  0  0
  1 29  1  0  0  0  0
  2  1  1  0  0  0  0
  2  3  1  0  0  0  0
  2  6  1  0  0  0  0
  3  7  1  1  0  0  0
  5  2  1  0  0  0  0
  8 17  1  0  0  0  0
  8  3  1  0  0  0  0
  9  8  2  0  0  0  0
 10 11  2  0  0  0  0
 10  9  1  0  0  0  0
 11 12  1  0  0  0  0
 12 13  2  0  0  0  0
 12 17  1  0  0  0  0
 13 14  1  0  0  0  0
 14 22  1  0  0  0  0
 14 15  2  0  0  0  0
 15 23  1  0  0  0  0
 16 15  1  0  0  0  0
 16 24  1  0  0  0  0
 17 16  2  0  0  0  0
 18  9  1  0  0  0  0
 19 10  1  0  0  0  0
 20 11  1  0  0  0  0
 21 13  1  0  0  0  0
 25 26  1  0  0  0  0
 25 31  1  0  0  0  0
 26 32  1  0  0  0  0
 27 26  2  0  0  0  0
 28 27  1  0  0  0  0
 29 28  2  0  0  0  0
 29 30  1  0  0  0  0
 30 25  2  0  0  0  0
 33 27  1  0  0  0  0
 33 34  1  0  0  0  0
 35 34  1  0  0  0  0
 36 34  1  0  0  0  0
 36 37  1  0  0  0  0
 38 36  1  0  0  0  0
 39 38  1  0  0  0  0
 40 39  1  0  0  0  0
 41 39  1  0  0  0  0
 41 33  1  0  0  0  0
 42 41  1  0  0  0  0
M  END
>  <minimizedAffinity>
-6.24781656

$$$$

 OpenBabel03252508273D

 42 46  0  0  1  0  0  0  0  0999 V2000
   36.0200   28.6740   39.3500 C   0  0  1  0  0  0  0  0  0  0  0  0
   35.4370   29.7140   40.2110 C   0  0  0  0  0  0  0  0  0  0  0  0
   35.9420   28.3220   40.7530 C   0  0  2  0  0  0  0  0  0  0  0  0
   36.9110   29.1820   38.8350 H   0  0  0  0  0  0  0  0  0  0  0  0
   36.0110   30.5470   40.6610 H   0  0  0  0  0  0  0  0  0  0  0  0
   34.3530   29.8650   40.3060 H   0  0  0  0  0  0  0  0  0  0  0  0
   35.0180   27.8750   41.2450 H   0  0  0  0  0  0  0  0  0  0  0  0
   37.0730   28.2750   41.6860 C   0  0  0  0  0  0  0  0  0  0  0  0
   37.7240   29.3150   42.2650 C   0  0  0  0  0  0  0  0  0  0  0  0
   38.8640   29.2320   43.0400 C   0  0  0  0  0  0  0  0  0  0  0  0
   39.3910   27.9490   43.2400 C   0  0  0  0  0  0  0  0  0  0  0  0
   38.7470   26.8540   42.6620 C   0  0  0  0  0  0  0  0  0  0  0  0
   39.2660   25.6040   42.9430 C   0  0  0  0  0  0  0  0  0  0  0  0
   38.6120   24.4810   42.4510 C   0  0  0  0  0  0  0  0  0  0  0  0
   37.4620   24.6080   41.6980 C   0  0  0  0  0  0  0  0  0  0  0  0
   36.9940   25.8770   41.4480 C   0  0  0  0  0  0  0  0  0  0  0  0
   37.6110   27.0320   41.9070 C   0  0  0  0  0  0  0  0  0  0  0  0
   37.2780   30.2960   42.0840 H   0  0  0  0  0  0  0  0  0  0  0  0
   39.3270   30.0980   43.4690 H   0  0  0  0  0  0  0  0  0  0  0  0
   40.2830   27.8670   43.8390 H   0  0  0  0  0  0  0  0  0  0  0  0
   40.1740   25.5380   43.5430 H   0  0  0  0  0  0  0  0  0  0  0  0
   39.1130   23.5510   42.7320 H   0  0  0  0  0  0  0  0  0  0  0  0
   37.1110   23.6460   41.4190 H   0  0  0  0  0  0  0  0  0  0  0  0
   36.0840   25.7140   40.9430 H   0  0  0  0  0  0  0  0  0  0  0  0
   34.7670   25.9770   37.1630 C   0  0  0  0  0  0  0  0  0  0  0  0
   33.6670   26.6200   36.4920 C   0  0  0  0  0  0  0  0  0  0  0  0
   33.3850   27.9810   36.8350 C   0  0  0  0  0  0  0  0  0  0  0  0
   34.1410   28.5920   37.7490 N   0  0  0  0  0  0  0  0  0  0  0  0
   35.1840   27.9300   38.3610 C   0  0  0  0  0  0  0  0  0  0  0  0
   35.4850   26.6670   38.0770 N   0  0  0  0  0  0  0  0  0  0  0  0
   34.9150   24.9670   36.8550 H   0  0  0  0  0  0  0  0  0  0  0  0
   33.0550   26.1530   35.7640 H   0  0  0  0  0  0  0  0  0  0  0  0
   32.2860   28.7170   36.2040 C   0  0  0  0  0  3  0  0  0  0  0  0
   32.7400   29.5750   35.0330 C   0  0  0  0  0  3  0  0  0  0  0  0
   33.6960   30.0850   35.2160 H   0  0  0  0  0  0  0  0  0  0  0  0
   31.5930   30.5640   34.7990 C   0  0  0  0  0  3  0  0  0  0  0  0
   31.4750   30.7450   33.7110 H   0  0  0  0  0  0  0  0  0  0  0  0
   30.3720   30.0280   35.2210 O   0  0  0  0  0  0  0  0  0  0  0  0
   30.2490   29.9960   36.6050 C   0  0  0  0  0  3  0  0  0  0  0  0
   29.7570   30.8710   37.0370 H   0  0  0  0  0  0  0  0  0  0  0  0
   31.6090   29.6830   37.1780 C   0  0  0  0  0  3  0  0  0  0  0  0
   31.5690   29.2210   38.1680 H   0  0  0  0  0  0  0  0  0  0  0  0
  1  4  1  6  0  0  0
  1  2  1  0  0  0  0
  1  3  1  0  0  0  0
  2  6  1  0  0  0  0
  2  5  1  0  0  0  0
  2  3  1  0  0  0  0
  3  7  1  1  0  0  0
  3  8  1  0  0  0  0
  8 17  2  0  0  0  0
  8  9  1  0  0  0  0
  9 10  2  0  0  0  0
 10 11  1  0  0  0  0
 10 19  1  0  0  0  0
 11 20  1  0  0  0  0
 12 13  1  0  0  0  0
 12 11  2  0  0  0  0
 13 21  1  0  0  0  0
 14 22  1  0  0  0  0
 14 13  2  0  0  0  0
 15 14  1  0  0  0  0
 16 15  2  0  0  0  0
 16 17  1  0  0  0  0
 17 12  1  0  0  0  0
 18  9  1  0  0  0  0
 23 15  1  0  0  0  0
 24 16  1  0  0  0  0
 25 30  1  0  0  0  0
 26 27  1  0  0  0  0
 26 25  2  0  0  0  0
 27 28  2  0  0  0  0
 28 29  1  0  0  0  0
 29  1  1  0  0  0  0
 30 29  2  0  0  0  0
 31 25  1  0  0  0  0
 32 26  1  0  0  0  0
 33 27  1  0  0  0  0
 33 41  1  0  0  0  0
 34 35  1  0  0  0  0
 34 33  1  0  0  0  0
 36 34  1  0  0  0  0
 36 38  1  0  0  0  0
 37 36  1  0  0  0  0
 38 39  1  0  0  0  0
 39 40  1  0  0  0  0
 39 41  1  0  0  0  0
 41 42  1  0  0  0  0
M  END
>  <minimizedAffinity>
-6.14562845

$$$$

 OpenBabel03252508273D

 42 46  0  0  1  0  0  0  0  0999 V2000
   35.2840   27.3760   37.4420 C   0  0  1  0  0  0  0  0  0  0  0  0
   36.2310   28.4860   37.6230 C   0  0  0  0  0  0  0  0  0  0  0  0
   35.5440   27.7280   38.8230 C   0  0  2  0  0  0  0  0  0  0  0  0
   35.8600   26.5940   36.8290 H   0  0  0  0  0  0  0  0  0  0  0  0
   37.3310   28.3700   37.6570 H   0  0  0  0  0  0  0  0  0  0  0  0
   35.9320   29.5390   37.5300 H   0  0  0  0  0  0  0  0  0  0  0  0
   34.9940   28.5520   39.3820 H   0  0  0  0  0  0  0  0  0  0  0  0
   36.3690   26.9580   39.7600 C   0  0  0  0  0  0  0  0  0  0  0  0
   36.6750   25.6370   39.7150 C   0  0  0  0  0  0  0  0  0  0  0  0
   37.3520   24.9230   40.6850 C   0  0  0  0  0  0  0  0  0  0  0  0
   37.7550   25.6410   41.8190 C   0  0  0  0  0  0  0  0  0  0  0  0
   37.4610   27.0020   41.9000 C   0  0  0  0  0  0  0  0  0  0  0  0
   37.9370   27.6810   43.0070 C   0  0  0  0  0  0  0  0  0  0  0  0
   37.7330   29.0520   43.0910 C   0  0  0  0  0  0  0  0  0  0  0  0
   37.0700   29.7300   42.0880 C   0  0  0  0  0  0  0  0  0  0  0  0
   36.6160   29.0030   41.0120 C   0  0  0  0  0  0  0  0  0  0  0  0
   36.7840   27.6320   40.8810 C   0  0  0  0  0  0  0  0  0  0  0  0
   36.3420   25.1170   38.8130 H   0  0  0  0  0  0  0  0  0  0  0  0
   37.5610   23.8770   40.5830 H   0  0  0  0  0  0  0  0  0  0  0  0
   38.2810   25.1000   42.5880 H   0  0  0  0  0  0  0  0  0  0  0  0
   38.4600   27.1170   43.7800 H   0  0  0  0  0  0  0  0  0  0  0  0
   38.1490   29.4800   44.0080 H   0  0  0  0  0  0  0  0  0  0  0  0
   37.0160   30.7630   42.3300 H   0  0  0  0  0  0  0  0  0  0  0  0
   36.2320   29.7340   40.3590 H   0  0  0  0  0  0  0  0  0  0  0  0
   32.1980   26.9050   35.4710 C   0  0  0  0  0  0  0  0  0  0  0  0
   31.4500   28.0920   35.7960 C   0  0  0  0  0  0  0  0  0  0  0  0
   32.0430   29.0210   36.7090 C   0  0  0  0  0  0  0  0  0  0  0  0
   33.2480   28.7560   37.2170 N   0  0  0  0  0  0  0  0  0  0  0  0
   33.9230   27.6040   36.8720 C   0  0  0  0  0  0  0  0  0  0  0  0
   33.4140   26.7110   36.0290 N   0  0  0  0  0  0  0  0  0  0  0  0
   31.6920   26.2630   34.7860 H   0  0  0  0  0  0  0  0  0  0  0  0
   30.4920   28.3210   35.4040 H   0  0  0  0  0  0  0  0  0  0  0  0
   31.3570   30.2560   37.0980 C   0  0  0  0  0  3  0  0  0  0  0  0
   30.4350   30.0710   38.2950 C   0  0  0  0  0  3  0  0  0  0  0  0
   29.8730   29.1280   38.2670 H   0  0  0  0  0  0  0  0  0  0  0  0
   29.5120   31.2940   38.2750 C   0  0  0  0  0  3  0  0  0  0  0  0
   29.3030   31.6200   39.3140 H   0  0  0  0  0  0  0  0  0  0  0  0
   30.1350   32.3860   37.6620 O   0  0  0  0  0  0  0  0  0  0  0  0
   30.2190   32.2510   36.2810 C   0  0  0  0  0  3  0  0  0  0  0  0
   29.3910   32.7030   35.7300 H   0  0  0  0  0  0  0  0  0  0  0  0
   30.4660   30.7950   35.9780 C   0  0  0  0  0  3  0  0  0  0  0  0
   30.9610   30.6270   35.0180 H   0  0  0  0  0  0  0  0  0  0  0  0
  1  4  1  6  0  0  0
  1  2  1  0  0  0  0
  1  3  1  0  0  0  0
  2  5  1  0  0  0  0
  2  3  1  0  0  0  0
  3  7  1  1  0  0  0
  3  8  1  0  0  0  0
  6  2  1  0  0  0  0
  8 17  1  0  0  0  0
  9  8  2  0  0  0  0
  9 10  1  0  0  0  0
 10 11  2  0  0  0  0
 11 12  1  0  0  0  0
 11 20  1  0  0  0  0
 12 13  1  0  0  0  0
 13 14  2  0  0  0  0
 13 21  1  0  0  0  0
 14 22  1  0  0  0  0
 15 23  1  0  0  0  0
 15 14  1  0  0  0  0
 16 15  2  0  0  0  0
 17 16  1  0  0  0  0
 17 12  2  0  0  0  0
 18  9  1  0  0  0  0
 19 10  1  0  0  0  0
 24 16  1  0  0  0  0
 25 26  2  0  0  0  0
 25 30  1  0  0  0  0
 26 27  1  0  0  0  0
 27 33  1  0  0  0  0
 27 28  2  0  0  0  0
 29 28  1  0  0  0  0
 29  1  1  0  0  0  0
 30 29  2  0  0  0  0
 31 25  1  0  0  0  0
 32 26  1  0  0  0  0
 33 34  1  0  0  0  0
 35 34  1  0  0  0  0
 36 34  1  0  0  0  0
 36 37  1  0  0  0  0
 38 36  1  0  0  0  0
 39 38  1  0  0  0  0
 40 39  1  0  0  0  0
 41 39  1  0  0  0  0
 41 33  1  0  0  0  0
 42 41  1  0  0  0  0
M  END
>  <minimizedAffinity>
-6.03748178

$$$$
