
 OpenBabel03252503033D

 35 36  0  0  0  0  0  0  0  0999 V2000
   43.4240   34.3560   42.1410 C   0  0  0  0  0  0  0  0  0  0  0  0
   43.8840   35.1530   43.1700 C   0  0  0  0  0  0  0  0  0  0  0  0
   44.7700   34.6580   44.1210 C   0  0  0  0  0  0  0  0  0  0  0  0
   45.1600   33.3670   43.9950 N   0  0  0  0  0  0  0  0  0  0  0  0
   44.6940   32.6060   42.9770 C   0  0  0  0  0  0  0  0  0  0  0  0
   43.8390   33.0710   42.0520 N   0  0  0  0  0  0  0  0  0  0  0  0
   42.7350   34.7210   41.3930 H   0  0  0  0  0  0  0  0  0  0  0  0
   45.1010   35.3040   44.8980 H   0  0  0  0  0  0  0  0  0  0  0  0
   43.3410   36.8660   43.3050 S   0  0  0  0  0  0  0  0  0  0  0  0
   44.7650   37.9410   43.3970 C   0  0  0  0  0  0  0  0  0  0  0  0
   44.5500   38.9190   43.8780 H   0  0  0  0  0  0  0  0  0  0  0  0
   45.5620   37.4780   44.0200 H   0  0  0  0  0  0  0  0  0  0  0  0
   45.2900   38.1080   42.0490 N   0  0  0  0  0  0  0  0  0  0  0  0
   44.6420   37.7350   41.3250 H   0  0  0  0  0  0  0  0  0  0  0  0
   45.5140   39.7680   41.6550 S   0  0  0  0  0  0  0  0  0  0  0  0
   44.6160   40.6700   42.4250 O   0  0  0  0  0  0  0  0  0  0  0  0
   43.8980   40.3920   43.0610 H   0  0  0  0  0  0  0  0  0  0  0  0
   46.9580   40.0960   41.9970 O   0  0  0  0  0  0  0  0  0  0  0  0
   47.7300   39.7350   41.4890 H   0  0  0  0  0  0  0  0  0  0  0  0
   45.3320   39.9730   40.0110 O   0  0  0  0  0  0  0  0  0  0  0  0
   44.2340   40.7580   39.7020 C   0  0  0  0  0  0  0  0  0  0  0  0
   43.8290   40.3510   38.7530 H   0  0  0  0  0  0  0  0  0  0  0  0
   43.5050   40.7910   40.5120 H   0  0  0  0  0  0  0  0  0  0  0  0
   44.6330   41.7940   39.5460 H   0  0  0  0  0  0  0  0  0  0  0  0
   45.0750   31.2760   42.8170 O   0  0  0  0  0  0  0  0  0  0  0  0
   44.3260   30.2040   43.3720 C   0  0  0  0  0  3  0  0  0  0  0  0
   45.0000   28.9060   43.1060 C   0  0  0  0  0  3  0  0  0  0  0  0
   44.1760   28.1620   42.8990 H   0  0  0  0  0  0  0  0  0  0  0  0
   45.8450   28.3570   44.1970 C   0  0  0  0  0  3  0  0  0  0  0  0
   45.7100   27.2380   44.2670 H   0  0  0  0  0  0  0  0  0  0  0  0
   45.6310   28.8420   45.4550 O   0  0  0  0  0  0  0  0  0  0  0  0
   45.4510   30.1970   45.5450 C   0  0  0  0  0  3  0  0  0  0  0  0
   45.2470   30.4080   46.6310 H   0  0  0  0  0  0  0  0  0  0  0  0
   44.1590   30.5280   44.8340 C   0  0  0  0  0  3  0  0  0  0  0  0
   43.9660   31.6100   44.9830 H   0  0  0  0  0  0  0  0  0  0  0  0
  1  2  1  0  0  0  0
  2  9  1  0  0  0  0
  2  3  2  0  0  0  0
  3  8  1  0  0  0  0
  4  3  1  0  0  0  0
  5  4  2  0  0  0  0
  6  1  2  0  0  0  0
  6  5  1  0  0  0  0
  7  1  1  0  0  0  0
  9 10  1  0  0  0  0
 10 11  1  0  0  0  0
 10 12  1  0  0  0  0
 13 10  1  0  0  0  0
 14 13  1  0  0  0  0
 15 18  1  0  0  0  0
 15 13  1  0  0  0  0
 15 16  1  0  0  0  0
 16 17  1  0  0  0  0
 19 18  1  0  0  0  0
 20 15  1  0  0  0  0
 21 20  1  0  0  0  0
 21 23  1  0  0  0  0
 22 21  1  0  0  0  0
 24 21  1  0  0  0  0
 25  5  1  0  0  0  0
 25 26  1  0  0  0  0
 26 34  1  0  0  0  0
 27 26  1  0  0  0  0
 27 29  1  0  0  0  0
 28 27  1  0  0  0  0
 29 30  1  0  0  0  0
 29 31  1  0  0  0  0
 31 32  1  0  0  0  0
 32 33  1  0  0  0  0
 34 35  1  0  0  0  0
 34 32  1  0  0  0  0
M  END
>  <minimizedAffinity>
17.0821838

>  <minimizedRMSD>
7.89355898

$$$$
