
 OpenBabel03252506563D

 39 43  0  0  0  0  0  0  0  0999 V2000
   47.1560   31.3070   45.1250 C   0  0  0  0  0  0  0  0  0  0  0  0
   46.8700   32.6590   45.1280 C   0  0  0  0  0  0  0  0  0  0  0  0
   46.3100   33.3140   46.2190 C   0  0  0  0  0  0  0  0  0  0  0  0
   46.0130   32.6070   47.3740 C   0  0  0  0  0  0  0  0  0  0  0  0
   45.4840   32.8950   48.5880 N   0  0  0  0  0  0  0  0  0  0  0  0
   45.4420   31.7530   49.3230 C   0  0  0  0  0  0  0  0  0  0  0  0
   45.9490   30.7620   48.5510 N   0  0  0  0  0  0  0  0  0  0  0  0
   46.3090   31.2540   47.3490 C   0  0  0  0  0  0  0  0  0  0  0  0
   46.8620   30.5820   46.2840 C   0  0  0  0  0  0  0  0  0  0  0  0
   47.5910   30.8130   44.2690 H   0  0  0  0  0  0  0  0  0  0  0  0
   46.0840   34.3700   46.2250 H   0  0  0  0  0  0  0  0  0  0  0  0
   45.1680   33.8590   48.8780 H   0  0  0  0  0  0  0  0  0  0  0  0
   45.0710   31.6480   50.3380 H   0  0  0  0  0  0  0  0  0  0  0  0
   46.5850   35.1380   42.4190 C   0  0  0  0  0  0  0  0  0  0  0  0
   47.7510   34.9260   41.6910 C   0  0  0  0  0  0  0  0  0  0  0  0
   48.6390   33.9260   42.1320 C   0  0  0  0  0  0  0  0  0  0  0  0
   48.3130   33.2150   43.2520 N   0  0  0  0  0  0  0  0  0  0  0  0
   47.1610   33.4540   43.9370 C   0  0  0  0  0  0  0  0  0  0  0  0
   46.3090   34.4020   43.5270 N   0  0  0  0  0  0  0  0  0  0  0  0
   45.9210   35.9090   42.0620 H   0  0  0  0  0  0  0  0  0  0  0  0
   47.9440   35.5270   40.8130 H   0  0  0  0  0  0  0  0  0  0  0  0
   49.5440   33.7410   41.5920 H   0  0  0  0  0  0  0  0  0  0  0  0
   47.1320   29.1430   46.3720 C   0  0  0  0  0  0  0  0  0  0  0  0
   48.4160   28.5980   46.3520 C   0  0  0  0  0  0  0  0  0  0  0  0
   48.1730   27.2210   46.4580 C   0  0  0  0  0  0  0  0  0  0  0  0
   46.7970   27.0210   46.5330 C   0  0  0  0  0  0  0  0  0  0  0  0
   46.2270   28.2180   46.4760 O   0  0  0  0  0  0  0  0  0  0  0  0
   49.3850   29.0570   46.2770 H   0  0  0  0  0  0  0  0  0  0  0  0
   48.8970   26.4060   46.4820 H   0  0  0  0  0  0  0  0  0  0  0  0
   46.0330   25.7680   46.6540 C   0  0  0  0  0  3  0  0  0  0  0  0
   46.7260   24.7570   47.5090 C   0  0  0  0  0  3  0  0  0  0  0  0
   47.3320   25.2080   48.3200 H   0  0  0  0  0  0  0  0  0  0  0  0
   45.6340   23.8520   48.0890 C   0  0  0  0  0  3  0  0  0  0  0  0
   45.0580   24.3780   48.8820 H   0  0  0  0  0  0  0  0  0  0  0  0
   44.7390   23.6370   47.0380 O   0  0  0  0  0  0  0  0  0  0  0  0
   43.8640   24.7400   46.9560 C   0  0  0  0  0  3  0  0  0  0  0  0
   43.4040   24.7680   45.9430 H   0  0  0  0  0  0  0  0  0  0  0  0
   44.6520   25.9990   47.2490 C   0  0  0  0  0  3  0  0  0  0  0  0
   44.1840   26.8140   46.6300 H   0  0  0  0  0  0  0  0  0  0  0  0
  1  2  2  0  0  0  0
  1  9  1  0  0  0  0
  2  3  1  0  0  0  0
  3 11  1  0  0  0  0
  3  4  2  0  0  0  0
  4  5  1  0  0  0  0
  5 12  1  0  0  0  0
  5  6  1  0  0  0  0
  6 13  1  0  0  0  0
  7  6  2  0  0  0  0
  8  4  1  0  0  0  0
  8  7  1  0  0  0  0
  9 23  1  0  0  0  0
  9  8  2  0  0  0  0
 10  1  1  0  0  0  0
 14 19  1  0  0  0  0
 15 16  1  0  0  0  0
 15 14  2  0  0  0  0
 16 17  2  0  0  0  0
 17 18  1  0  0  0  0
 18  2  1  0  0  0  0
 19 18  2  0  0  0  0
 20 14  1  0  0  0  0
 21 15  1  0  0  0  0
 22 16  1  0  0  0  0
 23 27  1  0  0  0  0
 24 23  2  0  0  0  0
 24 25  1  0  0  0  0
 25 29  1  0  0  0  0
 25 26  2  0  0  0  0
 26 30  1  0  0  0  0
 27 26  1  0  0  0  0
 28 24  1  0  0  0  0
 30 38  1  0  0  0  0
 30 31  1  0  0  0  0
 31 33  1  0  0  0  0
 31 32  1  0  0  0  0
 33 34  1  0  0  0  0
 35 33  1  0  0  0  0
 36 35  1  0  0  0  0
 36 38  1  0  0  0  0
 37 36  1  0  0  0  0
 39 38  1  0  0  0  0
M  END
>  <minimizedAffinity>
-5.72033167

>  <minimizedRMSD>
0.413271755

$$$$
