
 OpenBabel03242520383D

 36 39  0  0  1  0  0  0  0  0999 V2000
   37.3650   26.8210   40.3690 C   0  0  0  0  0  0  0  0  0  0  0  0
   37.1590   26.4150   41.7400 C   0  0  0  0  0  0  0  0  0  0  0  0
   37.0590   27.4070   42.6790 C   0  0  0  0  0  0  0  0  0  0  0  0
   37.1550   28.7030   42.2910 N   0  0  0  0  0  0  0  0  0  0  0  0
   37.3480   29.0530   40.9960 C   0  0  0  0  0  0  0  0  0  0  0  0
   37.4500   28.1020   40.0520 N   0  0  0  0  0  0  0  0  0  0  0  0
   37.4440   26.0590   39.6260 H   0  0  0  0  0  0  0  0  0  0  0  0
   36.9050   27.1860   43.7330 H   0  0  0  0  0  0  0  0  0  0  0  0
   37.0720   24.9790   42.1250 C   0  0  1  0  0  0  0  0  0  0  0  0
   37.6260   23.9510   41.2990 C   0  0  0  0  0  0  0  0  0  0  0  0
   38.3870   24.2760   42.5170 C   0  0  1  0  0  0  0  0  0  0  0  0
   36.2760   24.7720   42.8630 H   0  0  0  0  0  0  0  0  0  0  0  0
   38.1470   24.1860   40.3400 H   0  0  0  0  0  0  0  0  0  0  0  0
   37.1360   22.9360   41.2170 H   0  0  0  0  0  0  0  0  0  0  0  0
   38.3250   23.4950   43.3280 H   0  0  0  0  0  0  0  0  0  0  0  0
   39.6680   25.0110   42.5160 C   0  0  0  0  0  0  0  0  0  0  0  0
   40.7250   24.2130   42.9180 F   0  0  0  0  0  0  0  0  0  0  0  0
   39.6140   26.1410   43.3340 F   0  0  0  0  0  0  0  0  0  0  0  0
   39.9250   25.3900   41.2200 F   0  0  0  0  0  0  0  0  0  0  0  0
   37.4340   30.5080   40.6670 C   0  0  2  0  0  0  0  0  0  0  0  0
   36.1180   31.2420   40.8600 C   0  0  0  0  0  0  0  0  0  0  0  0
   36.6950   31.0530   39.4920 C   0  0  1  0  0  0  0  0  0  0  0  0
   38.3930   30.9490   40.9630 H   0  0  0  0  0  0  0  0  0  0  0  0
   35.2120   30.6670   41.0790 H   0  0  0  0  0  0  0  0  0  0  0  0
   36.1950   32.2040   41.3970 H   0  0  0  0  0  0  0  0  0  0  0  0
   36.2110   30.3470   38.8080 H   0  0  0  0  0  0  0  0  0  0  0  0
   37.4090   32.2020   38.7950 C   0  0  0  0  0  3  0  0  0  0  0  0
   37.4930   33.4330   39.6360 C   0  0  0  0  0  3  0  0  0  0  0  0
   37.5390   34.3070   38.9220 H   0  0  0  0  0  0  0  0  0  0  0  0
   38.7470   33.5110   40.4650 C   0  0  0  0  0  3  0  0  0  0  0  0
   38.8550   32.6640   41.1620 H   0  0  0  0  0  0  0  0  0  0  0  0
   39.8180   33.5090   39.5540 O   0  0  0  0  0  0  0  0  0  0  0  0
   39.9150   32.2020   39.0820 C   0  0  0  0  0  3  0  0  0  0  0  0
   40.8280   32.0750   38.4510 H   0  0  0  0  0  0  0  0  0  0  0  0
   38.7440   31.8130   38.2310 C   0  0  0  0  0  3  0  0  0  0  0  0
   38.9050   32.3310   37.2400 H   0  0  0  0  0  0  0  0  0  0  0  0
  1  2  1  0  0  0  0
  2  9  1  0  0  0  0
  2  3  2  0  0  0  0
  3  8  1  0  0  0  0
  4  3  1  0  0  0  0
  5  4  2  0  0  0  0
  6  1  2  0  0  0  0
  6  5  1  0  0  0  0
  7  1  1  0  0  0  0
  9 11  1  0  0  0  0
  9 12  1  1  0  0  0
 10  9  1  0  0  0  0
 10 11  1  0  0  0  0
 11 15  1  1  0  0  0
 13 10  1  0  0  0  0
 14 10  1  0  0  0  0
 16 11  1  0  0  0  0
 16 17  1  0  0  0  0
 16 18  1  0  0  0  0
 19 16  1  0  0  0  0
 20 21  1  0  0  0  0
 20 23  1  1  0  0  0
 20  5  1  0  0  0  0
 21 24  1  0  0  0  0
 21 25  1  0  0  0  0
 22 26  1  6  0  0  0
 22 20  1  0  0  0  0
 22 21  1  0  0  0  0
 27 22  1  0  0  0  0
 27 28  1  0  0  0  0
 28 30  1  0  0  0  0
 29 28  1  0  0  0  0
 30 31  1  0  0  0  0
 32 30  1  0  0  0  0
 33 32  1  0  0  0  0
 34 33  1  0  0  0  0
 35 27  1  0  0  0  0
 35 33  1  0  0  0  0
 36 35  1  0  0  0  0
M  END
>  <minimizedAffinity>
-5.70415878

$$$$

 OpenBabel03242520383D

 36 39  0  0  1  0  0  0  0  0999 V2000
   38.2240   30.5070   41.1690 C   0  0  0  0  0  0  0  0  0  0  0  0
   37.0470   31.1570   40.6410 C   0  0  0  0  0  0  0  0  0  0  0  0
   35.8770   30.4450   40.6580 C   0  0  0  0  0  0  0  0  0  0  0  0
   35.8710   29.1860   41.1610 N   0  0  0  0  0  0  0  0  0  0  0  0
   36.9920   28.6020   41.6500 C   0  0  0  0  0  0  0  0  0  0  0  0
   38.1560   29.2760   41.6470 N   0  0  0  0  0  0  0  0  0  0  0  0
   39.1430   31.0500   41.1620 H   0  0  0  0  0  0  0  0  0  0  0  0
   34.9470   30.8610   40.2780 H   0  0  0  0  0  0  0  0  0  0  0  0
   37.1000   32.5380   40.0860 C   0  0  1  0  0  0  0  0  0  0  0  0
   38.3290   33.1120   39.6320 C   0  0  0  0  0  0  0  0  0  0  0  0
   37.3940   32.6790   38.5790 C   0  0  1  0  0  0  0  0  0  0  0  0
   36.2360   33.1610   40.3810 H   0  0  0  0  0  0  0  0  0  0  0  0
   39.2900   32.5480   39.6720 H   0  0  0  0  0  0  0  0  0  0  0  0
   38.5400   34.2160   39.7520 H   0  0  0  0  0  0  0  0  0  0  0  0
   36.8800   33.5220   38.0360 H   0  0  0  0  0  0  0  0  0  0  0  0
   37.6040   31.4860   37.7340 C   0  0  0  0  0  0  0  0  0  0  0  0
   36.5100   30.6370   37.7560 F   0  0  0  0  0  0  0  0  0  0  0  0
   38.7400   30.7740   38.1200 F   0  0  0  0  0  0  0  0  0  0  0  0
   37.7460   31.9180   36.4370 F   0  0  0  0  0  0  0  0  0  0  0  0
   36.8840   27.2130   42.1900 C   0  0  2  0  0  0  0  0  0  0  0  0
   37.2630   27.1110   43.6570 C   0  0  0  0  0  0  0  0  0  0  0  0
   38.1110   26.4730   42.6010 C   0  0  1  0  0  0  0  0  0  0  0  0
   36.0300   26.6670   41.7720 H   0  0  0  0  0  0  0  0  0  0  0  0
   37.7000   27.9810   44.1580 H   0  0  0  0  0  0  0  0  0  0  0  0
   36.5660   26.5230   44.2790 H   0  0  0  0  0  0  0  0  0  0  0  0
   39.0870   26.9140   42.3710 H   0  0  0  0  0  0  0  0  0  0  0  0
   38.0350   24.9730   42.3590 C   0  0  0  0  0  3  0  0  0  0  0  0
   36.8390   24.5700   41.5610 C   0  0  0  0  0  3  0  0  0  0  0  0
   36.5920   23.5110   41.8660 H   0  0  0  0  0  0  0  0  0  0  0  0
   37.0930   24.5240   40.0790 C   0  0  0  0  0  3  0  0  0  0  0  0
   37.4140   25.4950   39.6670 H   0  0  0  0  0  0  0  0  0  0  0  0
   38.1100   23.5720   39.8860 O   0  0  0  0  0  0  0  0  0  0  0  0
   39.2860   24.1790   40.3190 C   0  0  0  0  0  3  0  0  0  0  0  0
   40.1730   23.5430   40.0770 H   0  0  0  0  0  0  0  0  0  0  0  0
   39.3040   24.3990   41.8010 C   0  0  0  0  0  3  0  0  0  0  0  0
   39.4960   23.3830   42.2560 H   0  0  0  0  0  0  0  0  0  0  0  0
  1  6  1  0  0  0  0
  2  3  1  0  0  0  0
  2  1  2  0  0  0  0
  3  4  2  0  0  0  0
  4  5  1  0  0  0  0
  5 20  1  0  0  0  0
  6  5  2  0  0  0  0
  7  1  1  0  0  0  0
  8  3  1  0  0  0  0
  9 12  1  1  0  0  0
  9  2  1  0  0  0  0
 10 13  1  0  0  0  0
 10 14  1  0  0  0  0
 10  9  1  0  0  0  0
 11 15  1  6  0  0  0
 11 10  1  0  0  0  0
 11  9  1  0  0  0  0
 16 17  1  0  0  0  0
 16 18  1  0  0  0  0
 16 11  1  0  0  0  0
 19 16  1  0  0  0  0
 20 23  1  6  0  0  0
 20 22  1  0  0  0  0
 20 21  1  0  0  0  0
 21 24  1  0  0  0  0
 21 25  1  0  0  0  0
 22 26  1  6  0  0  0
 22 21  1  0  0  0  0
 27 22  1  0  0  0  0
 28 29  1  0  0  0  0
 28 27  1  0  0  0  0
 30 28  1  0  0  0  0
 31 30  1  0  0  0  0
 32 30  1  0  0  0  0
 32 33  1  0  0  0  0
 33 35  1  0  0  0  0
 34 33  1  0  0  0  0
 35 36  1  0  0  0  0
 35 27  1  0  0  0  0
M  END
>  <minimizedAffinity>
-5.62165928

$$$$

 OpenBabel03242520383D

 36 39  0  0  1  0  0  0  0  0999 V2000
   36.5550   30.7660   41.0040 C   0  0  0  0  0  0  0  0  0  0  0  0
   37.3550   30.8050   39.8020 C   0  0  0  0  0  0  0  0  0  0  0  0
   38.0530   29.6720   39.4770 C   0  0  0  0  0  0  0  0  0  0  0  0
   37.9670   28.5830   40.2790 N   0  0  0  0  0  0  0  0  0  0  0  0
   37.2080   28.5760   41.4020 C   0  0  0  0  0  0  0  0  0  0  0  0
   36.5110   29.6730   41.7470 N   0  0  0  0  0  0  0  0  0  0  0  0
   36.0060   31.6410   41.2700 H   0  0  0  0  0  0  0  0  0  0  0  0
   38.6790   29.6200   38.5890 H   0  0  0  0  0  0  0  0  0  0  0  0
   37.4320   32.0270   38.9540 C   0  0  1  0  0  0  0  0  0  0  0  0
   37.1730   33.3260   39.4940 C   0  0  0  0  0  0  0  0  0  0  0  0
   38.5880   33.0070   39.2380 C   0  0  1  0  0  0  0  0  0  0  0  0
   37.3490   31.8140   37.8720 H   0  0  0  0  0  0  0  0  0  0  0  0
   36.9080   33.4730   40.5680 H   0  0  0  0  0  0  0  0  0  0  0  0
   36.6750   34.1300   38.8750 H   0  0  0  0  0  0  0  0  0  0  0  0
   39.0330   33.5400   38.3500 H   0  0  0  0  0  0  0  0  0  0  0  0
   39.5740   32.7270   40.3020 C   0  0  0  0  0  0  0  0  0  0  0  0
   40.3140   31.5880   40.0360 F   0  0  0  0  0  0  0  0  0  0  0  0
   38.9600   32.5910   41.5490 F   0  0  0  0  0  0  0  0  0  0  0  0
   40.4580   33.7790   40.3330 F   0  0  0  0  0  0  0  0  0  0  0  0
   37.1710   27.3260   42.2190 C   0  0  2  0  0  0  0  0  0  0  0  0
   38.1060   27.3660   43.4140 C   0  0  0  0  0  0  0  0  0  0  0  0
   38.3630   26.4330   42.2720 C   0  0  1  0  0  0  0  0  0  0  0  0
   36.1630   26.8980   42.2850 H   0  0  0  0  0  0  0  0  0  0  0  0
   38.8100   28.2000   43.5150 H   0  0  0  0  0  0  0  0  0  0  0  0
   37.6660   27.0170   44.3650 H   0  0  0  0  0  0  0  0  0  0  0  0
   39.2010   26.6410   41.5980 H   0  0  0  0  0  0  0  0  0  0  0  0
   38.0210   24.9550   42.3970 C   0  0  0  0  0  3  0  0  0  0  0  0
   36.6500   24.6300   41.9010 C   0  0  0  0  0  3  0  0  0  0  0  0
   36.3090   23.7190   42.4750 H   0  0  0  0  0  0  0  0  0  0  0  0
   36.6140   24.2390   40.4480 C   0  0  0  0  0  3  0  0  0  0  0  0
   36.9940   25.0290   39.7810 H   0  0  0  0  0  0  0  0  0  0  0  0
   37.4230   23.0950   40.3310 O   0  0  0  0  0  0  0  0  0  0  0  0
   38.7370   23.5470   40.4320 C   0  0  0  0  0  3  0  0  0  0  0  0
   39.4580   22.7210   40.2140 H   0  0  0  0  0  0  0  0  0  0  0  0
   39.0640   24.0550   41.8040 C   0  0  0  0  0  3  0  0  0  0  0  0
   39.1830   23.1330   42.4470 H   0  0  0  0  0  0  0  0  0  0  0  0
  1  7  1  0  0  0  0
  1  6  1  0  0  0  0
  2  1  2  0  0  0  0
  3  2  1  0  0  0  0
  3  4  2  0  0  0  0
  4  5  1  0  0  0  0
  5  6  2  0  0  0  0
  5 20  1  0  0  0  0
  8  3  1  0  0  0  0
  9 12  1  6  0  0  0
  9 11  1  0  0  0  0
  9 10  1  0  0  0  0
  9  2  1  0  0  0  0
 10 13  1  0  0  0  0
 11 15  1  6  0  0  0
 11 10  1  0  0  0  0
 11 16  1  0  0  0  0
 14 10  1  0  0  0  0
 16 19  1  0  0  0  0
 16 18  1  0  0  0  0
 17 16  1  0  0  0  0
 20 22  1  0  0  0  0
 20 23  1  1  0  0  0
 20 21  1  0  0  0  0
 21 24  1  0  0  0  0
 21 25  1  0  0  0  0
 22 26  1  6  0  0  0
 22 27  1  0  0  0  0
 22 21  1  0  0  0  0
 28 27  1  0  0  0  0
 28 29  1  0  0  0  0
 30 28  1  0  0  0  0
 31 30  1  0  0  0  0
 32 33  1  0  0  0  0
 32 30  1  0  0  0  0
 33 35  1  0  0  0  0
 34 33  1  0  0  0  0
 35 27  1  0  0  0  0
 35 36  1  0  0  0  0
M  END
>  <minimizedAffinity>
-5.46392107

$$$$

 OpenBabel03242520383D

 36 39  0  0  1  0  0  0  0  0999 V2000
   37.0630   29.9320   41.8640 C   0  0  0  0  0  0  0  0  0  0  0  0
   38.0830   29.1410   42.5140 C   0  0  0  0  0  0  0  0  0  0  0  0
   39.3870   29.4310   42.2120 C   0  0  0  0  0  0  0  0  0  0  0  0
   39.6620   30.4280   41.3350 N   0  0  0  0  0  0  0  0  0  0  0  0
   38.6830   31.1530   40.7410 C   0  0  0  0  0  0  0  0  0  0  0  0
   37.3930   30.8920   41.0180 N   0  0  0  0  0  0  0  0  0  0  0  0
   36.0420   29.7170   42.0910 H   0  0  0  0  0  0  0  0  0  0  0  0
   40.2140   28.8820   42.6560 H   0  0  0  0  0  0  0  0  0  0  0  0
   37.7370   28.0460   43.4610 C   0  0  1  0  0  0  0  0  0  0  0  0
   36.4040   27.5360   43.5570 C   0  0  0  0  0  0  0  0  0  0  0  0
   37.3710   26.6780   42.8520 C   0  0  1  0  0  0  0  0  0  0  0  0
   38.4680   27.9310   44.2820 H   0  0  0  0  0  0  0  0  0  0  0  0
   35.5770   27.9350   42.9240 H   0  0  0  0  0  0  0  0  0  0  0  0
   35.9800   27.1820   44.5430 H   0  0  0  0  0  0  0  0  0  0  0  0
   37.6890   25.7620   43.4270 H   0  0  0  0  0  0  0  0  0  0  0  0
   37.3770   26.4760   41.3880 C   0  0  0  0  0  0  0  0  0  0  0  0
   38.6110   26.7650   40.8300 F   0  0  0  0  0  0  0  0  0  0  0  0
   36.4000   27.2480   40.7580 F   0  0  0  0  0  0  0  0  0  0  0  0
   37.1370   25.1430   41.1540 F   0  0  0  0  0  0  0  0  0  0  0  0
   39.0850   32.2370   39.7950 C   0  0  2  0  0  0  0  0  0  0  0  0
   39.1080   31.7840   38.3450 C   0  0  0  0  0  0  0  0  0  0  0  0
   40.3760   32.1410   39.0550 C   0  0  1  0  0  0  0  0  0  0  0  0
   38.6950   33.2180   40.0900 H   0  0  0  0  0  0  0  0  0  0  0  0
   38.9730   30.7220   38.1140 H   0  0  0  0  0  0  0  0  0  0  0  0
   38.6240   32.4760   37.6330 H   0  0  0  0  0  0  0  0  0  0  0  0
   41.0730   31.3400   39.3250 H   0  0  0  0  0  0  0  0  0  0  0  0
   41.0430   33.4860   38.8040 C   0  0  0  0  0  3  0  0  0  0  0  0
   41.8020   33.9900   39.9880 C   0  0  0  0  0  3  0  0  0  0  0  0
   41.8020   35.1170   39.9110 H   0  0  0  0  0  0  0  0  0  0  0  0
   43.2490   33.5780   39.9960 C   0  0  0  0  0  3  0  0  0  0  0  0
   43.3840   32.4840   39.9980 H   0  0  0  0  0  0  0  0  0  0  0  0
   43.8160   34.1180   38.8280 O   0  0  0  0  0  0  0  0  0  0  0  0
   43.3420   33.3360   37.7770 C   0  0  0  0  0  3  0  0  0  0  0  0
   43.8480   33.6090   36.8190 H   0  0  0  0  0  0  0  0  0  0  0  0
   41.8700   33.5110   37.5520 C   0  0  0  0  0  3  0  0  0  0  0  0
   41.7590   34.5120   37.0420 H   0  0  0  0  0  0  0  0  0  0  0  0
  1  7  1  0  0  0  0
  1  2  1  0  0  0  0
  2  9  1  0  0  0  0
  3  2  2  0  0  0  0
  3  8  1  0  0  0  0
  4  3  1  0  0  0  0
  5  6  1  0  0  0  0
  5  4  2  0  0  0  0
  6  1  2  0  0  0  0
  9 10  1  0  0  0  0
  9 12  1  1  0  0  0
 10 14  1  0  0  0  0
 11 15  1  1  0  0  0
 11  9  1  0  0  0  0
 11 10  1  0  0  0  0
 13 10  1  0  0  0  0
 16 11  1  0  0  0  0
 17 16  1  0  0  0  0
 18 16  1  0  0  0  0
 19 16  1  0  0  0  0
 20 23  1  1  0  0  0
 20  5  1  0  0  0  0
 21 22  1  0  0  0  0
 21 20  1  0  0  0  0
 22 26  1  1  0  0  0
 22 20  1  0  0  0  0
 24 21  1  0  0  0  0
 25 21  1  0  0  0  0
 27 22  1  0  0  0  0
 27 28  1  0  0  0  0
 28 30  1  0  0  0  0
 29 28  1  0  0  0  0
 30 31  1  0  0  0  0
 32 30  1  0  0  0  0
 33 32  1  0  0  0  0
 34 33  1  0  0  0  0
 35 33  1  0  0  0  0
 35 27  1  0  0  0  0
 36 35  1  0  0  0  0
M  END
>  <minimizedAffinity>
-5.30567694

$$$$

 OpenBabel03242520383D

 36 39  0  0  1  0  0  0  0  0999 V2000
   38.9010   29.8730   39.6230 C   0  0  0  0  0  0  0  0  0  0  0  0
   38.3470   29.4280   40.8810 C   0  0  0  0  0  0  0  0  0  0  0  0
   38.5420   30.2340   41.9710 C   0  0  0  0  0  0  0  0  0  0  0  0
   39.2320   31.3920   41.8280 N   0  0  0  0  0  0  0  0  0  0  0  0
   39.7400   31.7840   40.6340 C   0  0  0  0  0  0  0  0  0  0  0  0
   39.5640   31.0140   39.5460 N   0  0  0  0  0  0  0  0  0  0  0  0
   38.7560   29.2550   38.7650 H   0  0  0  0  0  0  0  0  0  0  0  0
   38.1580   29.9710   42.9540 H   0  0  0  0  0  0  0  0  0  0  0  0
   37.6060   28.1420   40.9970 C   0  0  1  0  0  0  0  0  0  0  0  0
   36.6320   27.9320   42.0230 C   0  0  0  0  0  0  0  0  0  0  0  0
   36.0990   28.1660   40.6710 C   0  0  1  0  0  0  0  0  0  0  0  0
   38.1090   27.3000   40.4860 H   0  0  0  0  0  0  0  0  0  0  0  0
   36.3890   28.7240   42.7710 H   0  0  0  0  0  0  0  0  0  0  0  0
   36.4880   26.9160   42.4980 H   0  0  0  0  0  0  0  0  0  0  0  0
   35.6700   27.2500   40.1730 H   0  0  0  0  0  0  0  0  0  0  0  0
   35.4360   29.4190   40.2530 C   0  0  0  0  0  0  0  0  0  0  0  0
   35.8460   29.8290   38.9960 F   0  0  0  0  0  0  0  0  0  0  0  0
   35.6630   30.4500   41.1650 F   0  0  0  0  0  0  0  0  0  0  0  0
   34.0880   29.1640   40.1690 F   0  0  0  0  0  0  0  0  0  0  0  0
   40.4800   33.0800   40.5760 C   0  0  2  0  0  0  0  0  0  0  0  0
   39.6030   34.2500   40.1660 C   0  0  0  0  0  0  0  0  0  0  0  0
   40.6940   33.7600   39.2660 C   0  0  1  0  0  0  0  0  0  0  0  0
   41.2320   33.1690   41.3680 H   0  0  0  0  0  0  0  0  0  0  0  0
   38.5800   34.0570   39.8230 H   0  0  0  0  0  0  0  0  0  0  0  0
   39.7190   35.1590   40.7820 H   0  0  0  0  0  0  0  0  0  0  0  0
   40.4220   33.2240   38.3500 H   0  0  0  0  0  0  0  0  0  0  0  0
   42.0100   34.5180   39.1740 C   0  0  0  0  0  3  0  0  0  0  0  0
   43.0100   34.0780   40.1930 C   0  0  0  0  0  3  0  0  0  0  0  0
   43.6770   34.9670   40.3920 H   0  0  0  0  0  0  0  0  0  0  0  0
   43.9180   32.9800   39.7100 C   0  0  0  0  0  3  0  0  0  0  0  0
   43.3720   32.0700   39.4130 H   0  0  0  0  0  0  0  0  0  0  0  0
   44.6030   33.5010   38.5970 O   0  0  0  0  0  0  0  0  0  0  0  0
   43.6750   33.5290   37.5580 C   0  0  0  0  0  3  0  0  0  0  0  0
   44.1670   33.8040   36.5940 H   0  0  0  0  0  0  0  0  0  0  0  0
   42.5870   34.5350   37.7890 C   0  0  0  0  0  3  0  0  0  0  0  0
   43.0570   35.5410   37.5840 H   0  0  0  0  0  0  0  0  0  0  0  0
  1  2  1  0  0  0  0
  2  9  1  0  0  0  0
  2  3  2  0  0  0  0
  3  8  1  0  0  0  0
  4  3  1  0  0  0  0
  5  4  2  0  0  0  0
  6  1  2  0  0  0  0
  6  5  1  0  0  0  0
  7  1  1  0  0  0  0
  9 12  1  6  0  0  0
  9 10  1  0  0  0  0
 10 14  1  0  0  0  0
 10 13  1  0  0  0  0
 11 15  1  6  0  0  0
 11  9  1  0  0  0  0
 11 10  1  0  0  0  0
 16 11  1  0  0  0  0
 16 18  1  0  0  0  0
 17 16  1  0  0  0  0
 19 16  1  0  0  0  0
 20  5  1  0  0  0  0
 20 23  1  1  0  0  0
 21 20  1  0  0  0  0
 21 25  1  0  0  0  0
 22 26  1  6  0  0  0
 22 21  1  0  0  0  0
 22 20  1  0  0  0  0
 24 21  1  0  0  0  0
 27 22  1  0  0  0  0
 27 28  1  0  0  0  0
 28 29  1  0  0  0  0
 30 28  1  0  0  0  0
 31 30  1  0  0  0  0
 32 30  1  0  0  0  0
 33 35  1  0  0  0  0
 33 32  1  0  0  0  0
 34 33  1  0  0  0  0
 35 27  1  0  0  0  0
 36 35  1  0  0  0  0
M  END
>  <minimizedAffinity>
-5.18614578

$$$$

 OpenBabel03242520383D

 36 39  0  0  1  0  0  0  0  0999 V2000
   39.7780   30.0800   40.2250 C   0  0  0  0  0  0  0  0  0  0  0  0
   39.8050   31.3010   40.9970 C   0  0  0  0  0  0  0  0  0  0  0  0
   39.4630   31.2120   42.3210 C   0  0  0  0  0  0  0  0  0  0  0  0
   39.1210   30.0070   42.8410 N   0  0  0  0  0  0  0  0  0  0  0  0
   39.1050   28.8790   42.0900 C   0  0  0  0  0  0  0  0  0  0  0  0
   39.4360   28.9350   40.7880 N   0  0  0  0  0  0  0  0  0  0  0  0
   40.0430   30.1350   39.1920 H   0  0  0  0  0  0  0  0  0  0  0  0
   39.4560   32.0830   42.9710 H   0  0  0  0  0  0  0  0  0  0  0  0
   40.1740   32.6060   40.3840 C   0  0  1  0  0  0  0  0  0  0  0  0
   40.2130   32.7790   38.9650 C   0  0  0  0  0  0  0  0  0  0  0  0
   39.0590   33.3810   39.6530 C   0  0  1  0  0  0  0  0  0  0  0  0
   40.7330   33.2690   41.0700 H   0  0  0  0  0  0  0  0  0  0  0  0
   39.9650   31.9450   38.2660 H   0  0  0  0  0  0  0  0  0  0  0  0
   40.9720   33.4600   38.4760 H   0  0  0  0  0  0  0  0  0  0  0  0
   39.0910   34.5050   39.7210 H   0  0  0  0  0  0  0  0  0  0  0  0
   37.6850   32.8410   39.5820 C   0  0  0  0  0  0  0  0  0  0  0  0
   37.2060   32.4760   40.8290 F   0  0  0  0  0  0  0  0  0  0  0  0
   37.6080   31.7420   38.7250 F   0  0  0  0  0  0  0  0  0  0  0  0
   36.8700   33.8470   39.1210 F   0  0  0  0  0  0  0  0  0  0  0  0
   38.7210   27.5970   42.7550 C   0  0  2  0  0  0  0  0  0  0  0  0
   39.8370   27.0030   43.5960 C   0  0  0  0  0  0  0  0  0  0  0  0
   39.3730   26.3190   42.3480 C   0  0  1  0  0  0  0  0  0  0  0  0
   37.6770   27.5960   43.0920 H   0  0  0  0  0  0  0  0  0  0  0  0
   40.8360   27.4500   43.5510 H   0  0  0  0  0  0  0  0  0  0  0  0
   39.5320   26.6560   44.5990 H   0  0  0  0  0  0  0  0  0  0  0  0
   40.0260   26.3250   41.4680 H   0  0  0  0  0  0  0  0  0  0  0  0
   38.4570   25.1070   42.4330 C   0  0  0  0  0  3  0  0  0  0  0  0
   37.0610   25.3970   41.9880 C   0  0  0  0  0  3  0  0  0  0  0  0
   36.3920   24.6760   42.5430 H   0  0  0  0  0  0  0  0  0  0  0  0
   36.8290   25.1330   40.5250 C   0  0  0  0  0  3  0  0  0  0  0  0
   37.4830   25.7330   39.8710 H   0  0  0  0  0  0  0  0  0  0  0  0
   37.0940   23.7660   40.3280 O   0  0  0  0  0  0  0  0  0  0  0  0
   38.4800   23.6350   40.3850 C   0  0  0  0  0  3  0  0  0  0  0  0
   38.7920   22.6000   40.1040 H   0  0  0  0  0  0  0  0  0  0  0  0
   39.0230   23.8910   41.7590 C   0  0  0  0  0  3  0  0  0  0  0  0
   38.7700   22.9690   42.3610 H   0  0  0  0  0  0  0  0  0  0  0  0
  1  6  2  0  0  0  0
  1  2  1  0  0  0  0
  2  3  2  0  0  0  0
  3  4  1  0  0  0  0
  3  8  1  0  0  0  0
  5 20  1  0  0  0  0
  5  4  2  0  0  0  0
  6  5  1  0  0  0  0
  7  1  1  0  0  0  0
  9  2  1  0  0  0  0
  9 12  1  1  0  0  0
 10 11  1  0  0  0  0
 10  9  1  0  0  0  0
 11 15  1  1  0  0  0
 11  9  1  0  0  0  0
 13 10  1  0  0  0  0
 14 10  1  0  0  0  0
 16 11  1  0  0  0  0
 16 17  1  0  0  0  0
 18 16  1  0  0  0  0
 19 16  1  0  0  0  0
 20 23  1  1  0  0  0
 20 21  1  0  0  0  0
 21 25  1  0  0  0  0
 22 26  1  6  0  0  0
 22 27  1  0  0  0  0
 22 20  1  0  0  0  0
 22 21  1  0  0  0  0
 24 21  1  0  0  0  0
 28 27  1  0  0  0  0
 28 29  1  0  0  0  0
 30 28  1  0  0  0  0
 31 30  1  0  0  0  0
 32 33  1  0  0  0  0
 32 30  1  0  0  0  0
 33 35  1  0  0  0  0
 34 33  1  0  0  0  0
 35 36  1  0  0  0  0
 35 27  1  0  0  0  0
M  END
>  <minimizedAffinity>
-5.13484144

$$$$

 OpenBabel03242520383D

 36 39  0  0  1  0  0  0  0  0999 V2000
   38.3670   27.1240   42.8320 C   0  0  0  0  0  0  0  0  0  0  0  0
   39.2820   26.4730   41.9220 C   0  0  0  0  0  0  0  0  0  0  0  0
   39.5460   27.1110   40.7390 C   0  0  0  0  0  0  0  0  0  0  0  0
   38.9520   28.3010   40.4760 N   0  0  0  0  0  0  0  0  0  0  0  0
   38.0980   28.8870   41.3510 C   0  0  0  0  0  0  0  0  0  0  0  0
   37.8190   28.2850   42.5210 N   0  0  0  0  0  0  0  0  0  0  0  0
   38.1530   26.6380   43.7580 H   0  0  0  0  0  0  0  0  0  0  0  0
   40.2210   26.6890   39.9980 H   0  0  0  0  0  0  0  0  0  0  0  0
   39.9030   25.1590   42.2440 C   0  0  1  0  0  0  0  0  0  0  0  0
   39.4070   24.3410   43.3070 C   0  0  0  0  0  0  0  0  0  0  0  0
   39.0720   23.8960   41.9440 C   0  0  1  0  0  0  0  0  0  0  0  0
   40.9340   25.0570   41.8580 H   0  0  0  0  0  0  0  0  0  0  0  0
   38.5360   24.6530   43.9300 H   0  0  0  0  0  0  0  0  0  0  0  0
   40.1020   23.7050   43.9320 H   0  0  0  0  0  0  0  0  0  0  0  0
   39.6370   22.9850   41.5980 H   0  0  0  0  0  0  0  0  0  0  0  0
   37.7220   24.0020   41.3530 C   0  0  0  0  0  0  0  0  0  0  0  0
   37.2430   22.7730   40.9320 F   0  0  0  0  0  0  0  0  0  0  0  0
   37.6980   24.8920   40.2780 F   0  0  0  0  0  0  0  0  0  0  0  0
   36.8730   24.4430   42.3390 F   0  0  0  0  0  0  0  0  0  0  0  0
   37.4980   30.2020   40.9740 C   0  0  2  0  0  0  0  0  0  0  0  0
   36.0240   30.1070   40.6210 C   0  0  0  0  0  0  0  0  0  0  0  0
   37.0420   30.4430   39.5760 C   0  0  1  0  0  0  0  0  0  0  0  0
   37.9000   31.0310   41.5690 H   0  0  0  0  0  0  0  0  0  0  0  0
   35.5580   29.1200   40.5330 H   0  0  0  0  0  0  0  0  0  0  0  0
   35.3830   30.8800   41.0810 H   0  0  0  0  0  0  0  0  0  0  0  0
   37.2820   29.6940   38.8130 H   0  0  0  0  0  0  0  0  0  0  0  0
   37.2170   31.8810   39.1100 C   0  0  0  0  0  3  0  0  0  0  0  0
   37.3930   32.8430   40.2390 C   0  0  0  0  0  3  0  0  0  0  0  0
   37.0050   33.8390   39.8740 H   0  0  0  0  0  0  0  0  0  0  0  0
   38.8310   33.0730   40.6140 C   0  0  0  0  0  3  0  0  0  0  0  0
   39.3480   32.1500   40.9240 H   0  0  0  0  0  0  0  0  0  0  0  0
   39.4550   33.5980   39.4680 O   0  0  0  0  0  0  0  0  0  0  0  0
   39.5980   32.5270   38.5890 C   0  0  0  0  0  3  0  0  0  0  0  0
   40.2080   32.8230   37.7000 H   0  0  0  0  0  0  0  0  0  0  0  0
   38.2810   32.0380   38.0650 C   0  0  0  0  0  3  0  0  0  0  0  0
   37.9560   32.8040   37.3010 H   0  0  0  0  0  0  0  0  0  0  0  0
  1  7  1  0  0  0  0
  2  9  1  0  0  0  0
  2  1  2  0  0  0  0
  3  2  1  0  0  0  0
  4  3  2  0  0  0  0
  4  5  1  0  0  0  0
  5  6  2  0  0  0  0
  6  1  1  0  0  0  0
  8  3  1  0  0  0  0
  9 12  1  6  0  0  0
  9 10  1  0  0  0  0
 10 13  1  0  0  0  0
 10 14  1  0  0  0  0
 11 15  1  6  0  0  0
 11  9  1  0  0  0  0
 11 10  1  0  0  0  0
 16 11  1  0  0  0  0
 16 19  1  0  0  0  0
 17 16  1  0  0  0  0
 18 16  1  0  0  0  0
 20  5  1  0  0  0  0
 20 23  1  1  0  0  0
 21 20  1  0  0  0  0
 21 25  1  0  0  0  0
 22 26  1  6  0  0  0
 22 21  1  0  0  0  0
 22 20  1  0  0  0  0
 24 21  1  0  0  0  0
 27 22  1  0  0  0  0
 27 28  1  0  0  0  0
 28 30  1  0  0  0  0
 29 28  1  0  0  0  0
 30 31  1  0  0  0  0
 32 30  1  0  0  0  0
 33 32  1  0  0  0  0
 34 33  1  0  0  0  0
 35 33  1  0  0  0  0
 35 27  1  0  0  0  0
 36 35  1  0  0  0  0
M  END
>  <minimizedAffinity>
-5.13035727

$$$$

 OpenBabel03242520383D

 36 39  0  0  1  0  0  0  0  0999 V2000
   39.5280   28.9200   40.9030 C   0  0  0  0  0  0  0  0  0  0  0  0
   39.1400   29.9240   41.8660 C   0  0  0  0  0  0  0  0  0  0  0  0
   38.4160   29.5040   42.9510 C   0  0  0  0  0  0  0  0  0  0  0  0
   38.1010   28.1900   43.0740 N   0  0  0  0  0  0  0  0  0  0  0  0
   38.4810   27.2710   42.1520 C   0  0  0  0  0  0  0  0  0  0  0  0
   39.1920   27.6540   41.0770 N   0  0  0  0  0  0  0  0  0  0  0  0
   40.0930   29.2330   40.0530 H   0  0  0  0  0  0  0  0  0  0  0  0
   38.0830   30.1960   43.7210 H   0  0  0  0  0  0  0  0  0  0  0  0
   39.4950   31.3580   41.6870 C   0  0  1  0  0  0  0  0  0  0  0  0
   39.8750   31.8780   40.4100 C   0  0  0  0  0  0  0  0  0  0  0  0
   38.5200   32.2280   40.8690 C   0  0  1  0  0  0  0  0  0  0  0  0
   39.7770   31.8600   42.6310 H   0  0  0  0  0  0  0  0  0  0  0  0
   39.9140   31.2310   39.5010 H   0  0  0  0  0  0  0  0  0  0  0  0
   40.6460   32.6990   40.3150 H   0  0  0  0  0  0  0  0  0  0  0  0
   38.3990   33.3000   41.1920 H   0  0  0  0  0  0  0  0  0  0  0  0
   37.2840   31.6490   40.3010 C   0  0  0  0  0  0  0  0  0  0  0  0
   36.4160   31.2120   41.2870 F   0  0  0  0  0  0  0  0  0  0  0  0
   37.5620   30.5890   39.4370 F   0  0  0  0  0  0  0  0  0  0  0  0
   36.6370   32.6480   39.6150 F   0  0  0  0  0  0  0  0  0  0  0  0
   38.0920   25.8470   42.3790 C   0  0  2  0  0  0  0  0  0  0  0  0
   39.2500   24.9780   42.8370 C   0  0  0  0  0  0  0  0  0  0  0  0
   38.6270   24.7760   41.4900 C   0  0  1  0  0  0  0  0  0  0  0  0
   37.0880   25.7500   42.8090 H   0  0  0  0  0  0  0  0  0  0  0  0
   40.2630   25.3930   42.8350 H   0  0  0  0  0  0  0  0  0  0  0  0
   39.0260   24.3120   43.6890 H   0  0  0  0  0  0  0  0  0  0  0  0
   39.1910   25.0720   40.5990 H   0  0  0  0  0  0  0  0  0  0  0  0
   37.6570   23.6260   41.2590 C   0  0  0  0  0  3  0  0  0  0  0  0
   36.3250   24.0790   40.7600 C   0  0  0  0  0  3  0  0  0  0  0  0
   35.5750   23.3070   41.1040 H   0  0  0  0  0  0  0  0  0  0  0  0
   36.2240   24.1110   39.2590 C   0  0  0  0  0  3  0  0  0  0  0  0
   36.9620   24.7840   38.7930 H   0  0  0  0  0  0  0  0  0  0  0  0
   36.4490   22.7930   38.8230 O   0  0  0  0  0  0  0  0  0  0  0  0
   37.8160   22.5710   38.9740 C   0  0  0  0  0  3  0  0  0  0  0  0
   38.1100   21.5910   38.5250 H   0  0  0  0  0  0  0  0  0  0  0  0
   38.2330   22.5290   40.4130 C   0  0  0  0  0  3  0  0  0  0  0  0
   37.8850   21.5260   40.8000 H   0  0  0  0  0  0  0  0  0  0  0  0
  1  6  2  0  0  0  0
  1  2  1  0  0  0  0
  2  3  2  0  0  0  0
  3  4  1  0  0  0  0
  3  8  1  0  0  0  0
  5 20  1  0  0  0  0
  5  4  2  0  0  0  0
  6  5  1  0  0  0  0
  7  1  1  0  0  0  0
  9  2  1  0  0  0  0
  9 12  1  1  0  0  0
 10 11  1  0  0  0  0
 10  9  1  0  0  0  0
 11 15  1  1  0  0  0
 11  9  1  0  0  0  0
 13 10  1  0  0  0  0
 14 10  1  0  0  0  0
 16 11  1  0  0  0  0
 16 17  1  0  0  0  0
 18 16  1  0  0  0  0
 19 16  1  0  0  0  0
 20 23  1  1  0  0  0
 20 21  1  0  0  0  0
 21 25  1  0  0  0  0
 22 26  1  6  0  0  0
 22 20  1  0  0  0  0
 22 21  1  0  0  0  0
 24 21  1  0  0  0  0
 27 22  1  0  0  0  0
 28 29  1  0  0  0  0
 28 27  1  0  0  0  0
 30 28  1  0  0  0  0
 31 30  1  0  0  0  0
 32 33  1  0  0  0  0
 32 30  1  0  0  0  0
 33 35  1  0  0  0  0
 34 33  1  0  0  0  0
 35 36  1  0  0  0  0
 35 27  1  0  0  0  0
M  END
>  <minimizedAffinity>
-5.07351637

$$$$

 OpenBabel03242520383D

 36 39  0  0  1  0  0  0  0  0999 V2000
   37.7130   27.0740   40.5070 C   0  0  0  0  0  0  0  0  0  0  0  0
   37.1080   26.5920   41.7270 C   0  0  0  0  0  0  0  0  0  0  0  0
   36.8510   27.5160   42.7050 C   0  0  0  0  0  0  0  0  0  0  0  0
   37.1660   28.8180   42.4920 N   0  0  0  0  0  0  0  0  0  0  0  0
   37.7330   29.2390   41.3360 C   0  0  0  0  0  0  0  0  0  0  0  0
   37.9970   28.3560   40.3570 N   0  0  0  0  0  0  0  0  0  0  0  0
   37.9180   26.3650   39.7360 H   0  0  0  0  0  0  0  0  0  0  0  0
   36.3980   27.2360   43.6540 H   0  0  0  0  0  0  0  0  0  0  0  0
   36.7890   25.1520   41.9260 C   0  0  1  0  0  0  0  0  0  0  0  0
   37.3150   24.1450   41.0570 C   0  0  0  0  0  0  0  0  0  0  0  0
   37.9380   24.2340   42.3890 C   0  0  1  0  0  0  0  0  0  0  0  0
   35.8790   24.9850   42.5320 H   0  0  0  0  0  0  0  0  0  0  0  0
   37.9870   24.4000   40.2030 H   0  0  0  0  0  0  0  0  0  0  0  0
   36.7160   23.2220   40.7960 H   0  0  0  0  0  0  0  0  0  0  0  0
   37.6680   23.3920   43.0870 H   0  0  0  0  0  0  0  0  0  0  0  0
   39.2900   24.7780   42.6300 C   0  0  0  0  0  0  0  0  0  0  0  0
   39.2690   25.8490   43.5070 F   0  0  0  0  0  0  0  0  0  0  0  0
   39.9050   25.1750   41.4410 F   0  0  0  0  0  0  0  0  0  0  0  0
   40.0330   23.7890   43.2270 F   0  0  0  0  0  0  0  0  0  0  0  0
   38.0380   30.6950   41.1920 C   0  0  2  0  0  0  0  0  0  0  0  0
   36.9880   31.4490   40.3960 C   0  0  0  0  0  0  0  0  0  0  0  0
   38.3700   31.2600   39.8530 C   0  0  1  0  0  0  0  0  0  0  0  0
   38.4970   31.1180   42.0930 H   0  0  0  0  0  0  0  0  0  0  0  0
   36.1960   30.8870   39.8880 H   0  0  0  0  0  0  0  0  0  0  0  0
   36.6610   32.4050   40.8410 H   0  0  0  0  0  0  0  0  0  0  0  0
   38.5190   30.5680   39.0170 H   0  0  0  0  0  0  0  0  0  0  0  0
   39.3740   32.4020   39.8990 C   0  0  0  0  0  3  0  0  0  0  0  0
   40.3300   32.2940   41.0410 C   0  0  0  0  0  3  0  0  0  0  0  0
   40.6480   33.3480   41.2940 H   0  0  0  0  0  0  0  0  0  0  0  0
   41.5940   31.5530   40.6990 C   0  0  0  0  0  3  0  0  0  0  0  0
   41.4100   30.5190   40.3640 H   0  0  0  0  0  0  0  0  0  0  0  0
   42.2060   32.2810   39.6620 O   0  0  0  0  0  0  0  0  0  0  0  0
   41.4510   32.0220   38.5200 C   0  0  0  0  0  3  0  0  0  0  0  0
   41.9430   32.4540   37.6140 H   0  0  0  0  0  0  0  0  0  0  0  0
   40.0790   32.6220   38.5920 C   0  0  0  0  0  3  0  0  0  0  0  0
   40.2230   33.7290   38.4180 H   0  0  0  0  0  0  0  0  0  0  0  0
  1  2  1  0  0  0  0
  2  9  1  0  0  0  0
  2  3  2  0  0  0  0
  3  8  1  0  0  0  0
  4  3  1  0  0  0  0
  5  4  2  0  0  0  0
  6  1  2  0  0  0  0
  6  5  1  0  0  0  0
  7  1  1  0  0  0  0
  9 11  1  0  0  0  0
  9 12  1  1  0  0  0
 10  9  1  0  0  0  0
 10 11  1  0  0  0  0
 11 16  1  0  0  0  0
 11 15  1  1  0  0  0
 13 10  1  0  0  0  0
 14 10  1  0  0  0  0
 16 19  1  0  0  0  0
 16 17  1  0  0  0  0
 18 16  1  0  0  0  0
 20  5  1  0  0  0  0
 20 23  1  1  0  0  0
 21 25  1  0  0  0  0
 21 20  1  0  0  0  0
 22 26  1  6  0  0  0
 22 27  1  0  0  0  0
 22 21  1  0  0  0  0
 22 20  1  0  0  0  0
 24 21  1  0  0  0  0
 27 28  1  0  0  0  0
 28 29  1  0  0  0  0
 30 28  1  0  0  0  0
 31 30  1  0  0  0  0
 32 30  1  0  0  0  0
 33 35  1  0  0  0  0
 33 32  1  0  0  0  0
 34 33  1  0  0  0  0
 35 27  1  0  0  0  0
 36 35  1  0  0  0  0
M  END
>  <minimizedAffinity>
-5.06165171

$$$$
