REMARK  Name = 
REMARK  5 active torsions:
REMARK  status: ('A' for Active; 'I' for Inactive)
REMARK    1  A    between atoms: C_2  and  C_7
REMARK    2  A    between atoms: C_5  and  O_11
REMARK    3  A    between atoms: O_11  and  C_12
REMARK    4  A    between atoms: C_12  and  C_13
REMARK    5  A    between atoms: C_17  and  C_25
REMARK                            x       y       z     vdW  Elec       q    Type
REMARK                         _______ _______ _______ _____ _____    ______ ____
ROOT
ATOM      1  C   UNL     1      46.515  30.765  48.011  0.00  0.00    +0.000 A 
ATOM      2  C   UNL     1      47.075  29.643  47.418  0.00  0.00    +0.000 A 
ATOM      3  C   UNL     1      48.312  29.236  47.824  0.00  0.00    +0.000 A 
ATOM      4  N   UNL     1      49.010  29.876  48.772  0.00  0.00    +0.000 NA
ATOM      5  C   UNL     1      48.454  30.964  49.339  0.00  0.00    +0.000 A 
ATOM      6  N   UNL     1      47.225  31.418  48.977  0.00  0.00    +0.000 NA
ATOM      7  H   UNL     1      46.434  29.216  46.681  0.00  0.00    +0.000 HD
ATOM      8  H   UNL     1      48.684  28.352  47.315  0.00  0.00    +0.000 HD
ENDROOT
BRANCH   5   9
ATOM      9  C   UNL     1      49.274  31.645  50.394  0.00  0.00    +0.000 C 
ATOM     10  C   UNL     1      50.717  31.282  50.354  0.00  0.00    +0.000 C 
ATOM     11  H   UNL     1      50.893  30.467  51.109  0.00  0.00    +0.000 HD
ATOM     12  C   UNL     1      51.500  32.503  50.803  0.00  0.00    +0.000 C 
ATOM     13  H   UNL     1      50.967  32.935  51.680  0.00  0.00    +0.000 HD
ATOM     14  O   UNL     1      51.492  33.383  49.725  0.00  0.00    +0.000 OA
ATOM     15  C   UNL     1      50.211  33.705  49.308  0.00  0.00    +0.000 C 
ATOM     16  H   UNL     1      49.987  33.377  48.278  0.00  0.00    +0.000 HD
ATOM     17  C   UNL     1      49.141  33.157  50.212  0.00  0.00    +0.000 C 
ATOM     18  H   UNL     1      48.167  33.342  49.670  0.00  0.00    +0.000 HD
ENDBRANCH   5   9
BRANCH   1  19
ATOM     19  C   UNL     1      45.226  31.422  47.781  0.00  0.00    +0.000 C 
ATOM     20  H   UNL     1      44.767  31.030  46.838  0.00  0.00    +0.000 HD
ATOM     21  H   UNL     1      44.511  31.203  48.586  0.00  0.00    +0.000 HD
BRANCH  19  22
ATOM     22  O   UNL     1      45.465  32.808  47.697  0.00  0.00    +0.000 OA
BRANCH  22  27
ATOM     23  C   UNL     1      44.832  35.156  45.089  0.00  0.00    +0.000 A 
ATOM     24  C   UNL     1      45.709  34.785  44.081  0.00  0.00    +0.000 A 
ATOM     25  C   UNL     1      46.537  33.685  44.333  0.00  0.00    +0.000 A 
ATOM     26  N   UNL     1      46.458  33.044  45.504  0.00  0.00    +0.000 NA
ATOM     27  C   UNL     1      45.580  33.449  46.460  0.00  0.00    +0.000 A 
ATOM     28  N   UNL     1      44.766  34.497  46.266  0.00  0.00    +0.000 NA
ATOM     29  H   UNL     1      44.189  35.998  44.913  0.00  0.00    +0.000 HD
ATOM     30  H   UNL     1      47.220  33.401  43.541  0.00  0.00    +0.000 HD
BRANCH  24  31
ATOM     31  C   UNL     1      45.709  35.575  42.813  0.00  0.00    +0.000 C 
ATOM     32  F   UNL     1      45.215  36.809  43.157  0.00  0.00    +0.000 F 
ATOM     33  F   UNL     1      44.810  34.921  41.956  0.00  0.00    +0.000 F 
ATOM     34  F   UNL     1      46.970  35.605  42.309  0.00  0.00    +0.000 F 
ENDBRANCH  24  31
ENDBRANCH  22  27
ENDBRANCH  19  22
ENDBRANCH   1  19
TORSDOF 5
