
     RDKit          3D

 40 41  0  0  0  0  0  0  0  0999 V2000
   43.7449   35.7187   41.7093 C   0  0  0  0  0  0  0  0  0  0  0  0
   43.4288   35.6499   43.1285 N   0  0  0  0  0  0  0  0  0  0  0  0
   44.8350   35.8371   44.1033 S   0  0  0  0  0  0  0  0  0  0  0  0
   46.0691   35.3439   43.4346 O   0  0  0  0  0  0  0  0  0  0  0  0
   44.9748   37.3279   44.3660 O   0  0  0  0  0  0  0  0  0  0  0  0
   44.5887   35.0923   45.5727 O   0  0  0  0  0  0  0  0  0  0  0  0
   45.4179   33.9965   45.7468 C   0  0  0  0  0  0  0  0  0  0  0  0
   43.4001   34.1213   40.9886 S   0  0  0  0  0  0  0  0  0  0  0  0
   40.8834   33.0337   41.3732 C   0  0  0  0  0  0  0  0  0  0  0  0
   41.6317   33.9645   40.6796 C   0  0  0  0  0  0  0  0  0  0  0  0
   41.0455   34.7977   39.7325 C   0  0  0  0  0  0  0  0  0  0  0  0
   39.7141   34.6568   39.5211 N   0  0  0  0  0  0  0  0  0  0  0  0
   39.0029   33.7373   40.2135 C   0  0  0  0  0  0  0  0  0  0  0  0
   39.5564   32.9267   41.1305 N   0  0  0  0  0  0  0  0  0  0  0  0
   37.6338   33.5667   40.0207 O   0  0  0  0  0  0  0  0  0  0  0  0
   44.7862   36.0656   41.5374 H   0  0  0  0  0  0  0  0  0  0  0  0
   43.0969   36.4989   41.2524 H   0  0  0  0  0  0  0  0  0  0  0  0
   43.0246   34.7288   43.3982 H   0  0  0  0  0  0  0  0  0  0  0  0
   46.1231   34.8843   42.5499 H   0  0  0  0  0  0  0  0  0  0  0  0
   44.3475   37.8366   44.9420 H   0  0  0  0  0  0  0  0  0  0  0  0
   44.8272   33.2603   46.3299 H   0  0  0  0  0  0  0  0  0  0  0  0
   45.7951   33.6059   44.8018 H   0  0  0  0  0  0  0  0  0  0  0  0
   46.2894   34.3643   46.3489 H   0  0  0  0  0  0  0  0  0  0  0  0
   41.3202   32.3783   42.1119 H   0  0  0  0  0  0  0  0  0  0  0  0
   41.6564   35.5005   39.2208 H   0  0  0  0  0  0  0  0  0  0  0  0
   36.8996   34.3455   39.0877 C   0  0  1  0  0  0  0  0  0  0  0  0
   35.4997   34.5309   39.5506 C   0  0  1  0  0  0  0  0  0  0  0  0
   34.8538   34.4817   38.6263 H   0  0  0  0  0  0  0  0  0  0  0  0
   35.1918   35.8018   40.2539 C   0  0  1  0  0  0  0  0  0  0  0  0
   34.1775   36.1856   39.9372 H   0  0  0  0  0  0  0  0  0  0  0  0
   36.0601   36.8397   40.0748 O   0  0  0  0  0  0  0  0  0  0  0  0
   37.3897   36.5125   40.1135 C   0  0  1  0  0  0  0  0  0  0  0  0
   37.9473   37.4677   39.9067 H   0  0  0  0  0  0  0  0  0  0  0  0
   37.6715   35.6292   38.9206 C   0  0  1  0  0  0  0  0  0  0  0  0
   38.7642   35.4373   38.9014 H   0  0  0  0  0  0  0  0  0  0  0  0
   36.9477   33.7772   38.1356 H   0  0  0  0  0  0  0  0  0  0  0  0
   35.1718   33.6278   40.1340 H   0  0  0  0  0  0  0  0  0  0  0  0
   35.0222   35.5353   41.3385 H   0  0  0  0  0  0  0  0  0  0  0  0
   37.7749   36.1141   41.0493 H   0  0  0  0  0  0  0  0  0  0  0  0
   37.4037   36.1489   38.0023 H   0  0  0  0  0  0  0  0  0  0  0  0
  1  2  1  0
  2  3  1  0
  3  5  1  0
  3  6  1  0
  4  3  1  0
  6  7  1  0
  8  1  1  0
 10  8  1  0
 10  9  2  0
 11 10  1  0
 12 11  2  0
 12 13  1  0
 13 14  2  0
 14  9  1  0
 15 13  1  0
  1 16  1  0
  1 17  1  0
  2 18  1  0
  4 19  1  0
  5 20  1  0
  7 21  1  0
  7 22  1  0
  7 23  1  0
  9 24  1  0
 11 25  1  0
 26 27  1  0
 27 28  1  6
 27 29  1  0
 29 30  1  6
 29 31  1  0
 31 32  1  0
 32 33  1  6
 32 34  1  0
 34 35  1  6
 34 26  1  0
 26 36  1  6
 27 37  1  0
 29 38  1  0
 32 39  1  0
 34 40  1  0
 15 26  1  0
M  ISO  8  16   8  17   8  18   5  19   3  20   3  21   8  22   8  23   8
M  ISO  6  24  14  25  14  28  15  30  15  33  15  35  15
M  END
>  <DihAtoms>  (1) 
12,14,25,26

>  <DihDeg>  (1) 
120.8488674028067

$$$$
