
 OpenBabel03242518373D

 36 39  0  0  1  0  0  0  0  0999 V2000
   36.4510   30.5950   40.6540 C   0  0  0  0  0  0  0  0  0  0  0  0
   35.6660   29.6130   40.0510 C   0  0  0  0  0  0  0  0  0  0  0  0
   35.7800   28.4420   40.7860 C   0  0  0  0  0  0  0  0  0  0  0  0
   36.6340   28.7780   41.8030 C   0  0  0  0  0  0  0  0  0  0  0  0
   37.0210   30.0320   41.7170 O   0  0  0  0  0  0  0  0  0  0  0  0
   35.0900   29.8320   39.1470 H   0  0  0  0  0  0  0  0  0  0  0  0
   35.2750   27.5170   40.5440 H   0  0  0  0  0  0  0  0  0  0  0  0
   37.0670   27.8520   42.8660 C   0  0  2  0  0  0  0  0  0  0  0  0
   37.2910   28.3650   44.2320 C   0  0  0  0  0  0  0  0  0  0  0  0
   38.4950   28.1200   43.3820 C   0  0  1  0  0  0  0  0  0  0  0  0
   36.8290   26.7940   42.6460 H   0  0  0  0  0  0  0  0  0  0  0  0
   36.9940   27.7320   45.0640 H   0  0  0  0  0  0  0  0  0  0  0  0
   37.0750   29.4470   44.4300 H   0  0  0  0  0  0  0  0  0  0  0  0
   39.0320   28.9930   42.9660 H   0  0  0  0  0  0  0  0  0  0  0  0
   39.2780   26.8660   43.6350 C   0  0  0  0  0  3  0  0  0  0  0  0
   40.7480   27.1800   43.7520 C   0  0  0  0  0  3  0  0  0  0  0  0
   40.8930   27.8370   44.6290 H   0  0  0  0  0  0  0  0  0  0  0  0
   41.5660   25.9270   43.9930 C   0  0  0  0  0  3  0  0  0  0  0  0
   41.4200   25.4740   44.9730 H   0  0  0  0  0  0  0  0  0  0  0  0
   41.3060   25.0830   42.9120 O   0  0  0  0  0  0  0  0  0  0  0  0
   39.9940   24.6330   43.0400 C   0  0  0  0  0  3  0  0  0  0  0  0
   39.8670   24.3850   44.1300 H   0  0  0  0  0  0  0  0  0  0  0  0
   38.9940   25.7420   42.6900 C   0  0  0  0  0  3  0  0  0  0  0  0
   39.1520   25.9860   41.6290 H   0  0  0  0  0  0  0  0  0  0  0  0
   36.6780   31.9430   40.3050 O   0  0  0  0  0  0  0  0  0  0  0  0
   37.6390   32.2520   39.3130 C   0  0  0  0  0  0  0  0  0  0  0  0
   37.3980   31.8370   38.1550 O   0  0  0  0  0  0  0  0  0  0  0  0
   38.7690   33.0010   39.7550 C   0  0  0  0  0  0  0  0  0  0  0  0
   38.5080   34.3010   40.0900 C   0  0  0  0  0  0  0  0  0  0  0  0
   39.5630   35.0990   40.5330 C   0  0  0  0  0  0  0  0  0  0  0  0
   40.8020   34.5370   40.6070 N   0  0  0  0  0  0  0  0  0  0  0  0
   41.0060   33.2650   40.2700 C   0  0  0  0  0  0  0  0  0  0  0  0
   39.9910   32.5120   39.8480 N   0  0  0  0  0  0  0  0  0  0  0  0
   37.5330   34.7640   40.0380 H   0  0  0  0  0  0  0  0  0  0  0  0
   39.4160   36.1360   40.8110 H   0  0  0  0  0  0  0  0  0  0  0  0
   42.0320   32.9210   40.3670 H   0  0  0  0  0  0  0  0  0  0  0  0
  1  5  1  0  0  0  0
  2  1  2  0  0  0  0
  2  3  1  0  0  0  0
  3  4  2  0  0  0  0
  4  8  1  0  0  0  0
  5  4  1  0  0  0  0
  6  2  1  0  0  0  0
  7  3  1  0  0  0  0
  8 11  1  6  0  0  0
  8 10  1  0  0  0  0
  8  9  1  0  0  0  0
  9 13  1  0  0  0  0
  9 12  1  0  0  0  0
 10 14  1  6  0  0  0
 10 15  1  0  0  0  0
 10  9  1  0  0  0  0
 15 16  1  0  0  0  0
 16 18  1  0  0  0  0
 16 17  1  0  0  0  0
 18 19  1  0  0  0  0
 20 21  1  0  0  0  0
 20 18  1  0  0  0  0
 21 22  1  0  0  0  0
 23 21  1  0  0  0  0
 23 15  1  0  0  0  0
 24 23  1  0  0  0  0
 25  1  1  0  0  0  0
 26 28  1  0  0  0  0
 26 25  1  0  0  0  0
 27 26  2  0  0  0  0
 28 33  2  0  0  0  0
 28 29  1  0  0  0  0
 29 30  2  0  0  0  0
 30 31  1  0  0  0  0
 30 35  1  0  0  0  0
 32 36  1  0  0  0  0
 32 31  2  0  0  0  0
 33 32  1  0  0  0  0
 34 29  1  0  0  0  0
M  END
>  <minimizedAffinity>
-6.27861357

$$$$

 OpenBabel03242518373D

 36 39  0  0  1  0  0  0  0  0999 V2000
   36.2990   28.7470   41.4900 C   0  0  0  0  0  0  0  0  0  0  0  0
   35.5870   28.9780   40.3140 C   0  0  0  0  0  0  0  0  0  0  0  0
   35.9180   30.2370   39.8360 C   0  0  0  0  0  0  0  0  0  0  0  0
   36.8200   30.7070   40.7530 C   0  0  0  0  0  0  0  0  0  0  0  0
   37.0350   29.8340   41.7120 O   0  0  0  0  0  0  0  0  0  0  0  0
   34.9020   28.2230   39.9160 H   0  0  0  0  0  0  0  0  0  0  0  0
   35.5100   30.6750   38.9340 H   0  0  0  0  0  0  0  0  0  0  0  0
   37.4740   32.0260   40.6760 C   0  0  2  0  0  0  0  0  0  0  0  0
   37.5330   32.7350   39.3820 C   0  0  0  0  0  0  0  0  0  0  0  0
   38.7700   32.0300   39.8380 C   0  0  1  0  0  0  0  0  0  0  0  0
   37.5360   32.5400   41.6530 H   0  0  0  0  0  0  0  0  0  0  0  0
   37.4090   33.8150   39.3920 H   0  0  0  0  0  0  0  0  0  0  0  0
   37.0280   32.2630   38.5000 H   0  0  0  0  0  0  0  0  0  0  0  0
   39.0540   31.0870   39.3350 H   0  0  0  0  0  0  0  0  0  0  0  0
   39.8610   32.8650   40.4400 C   0  0  0  0  0  3  0  0  0  0  0  0
   40.0180   34.1530   39.6730 C   0  0  0  0  0  3  0  0  0  0  0  0
   39.0790   34.7290   39.7650 H   0  0  0  0  0  0  0  0  0  0  0  0
   41.1260   35.0110   40.2500 C   0  0  0  0  0  3  0  0  0  0  0  0
   40.9060   35.4330   41.2300 H   0  0  0  0  0  0  0  0  0  0  0  0
   42.2850   34.2350   40.1930 O   0  0  0  0  0  0  0  0  0  0  0  0
   42.1520   33.2170   41.1330 C   0  0  0  0  0  3  0  0  0  0  0  0
   41.7180   33.7080   42.0480 H   0  0  0  0  0  0  0  0  0  0  0  0
   41.1570   32.1510   40.6560 C   0  0  0  0  0  3  0  0  0  0  0  0
   41.5870   31.7020   39.7480 H   0  0  0  0  0  0  0  0  0  0  0  0
   36.3230   27.6330   42.3550 O   0  0  0  0  0  0  0  0  0  0  0  0
   37.3080   27.5620   43.3690 C   0  0  0  0  0  0  0  0  0  0  0  0
   37.1530   28.3240   44.3510 O   0  0  0  0  0  0  0  0  0  0  0  0
   38.3600   26.6260   43.1470 C   0  0  0  0  0  0  0  0  0  0  0  0
   39.4960   26.8460   43.8770 C   0  0  0  0  0  0  0  0  0  0  0  0
   40.5710   25.9710   43.7150 C   0  0  0  0  0  0  0  0  0  0  0  0
   40.4300   24.9420   42.8340 N   0  0  0  0  0  0  0  0  0  0  0  0
   39.3040   24.7690   42.1460 C   0  0  0  0  0  0  0  0  0  0  0  0
   38.2830   25.6100   42.3080 N   0  0  0  0  0  0  0  0  0  0  0  0
   39.6260   27.6560   44.5800 H   0  0  0  0  0  0  0  0  0  0  0  0
   41.4950   26.0970   44.2660 H   0  0  0  0  0  0  0  0  0  0  0  0
   39.3010   23.9170   41.4720 H   0  0  0  0  0  0  0  0  0  0  0  0
  1  5  1  0  0  0  0
  1 25  1  0  0  0  0
  2  1  2  0  0  0  0
  3  2  1  0  0  0  0
  3  4  2  0  0  0  0
  4  5  1  0  0  0  0
  6  2  1  0  0  0  0
  7  3  1  0  0  0  0
  8  4  1  0  0  0  0
  8 11  1  1  0  0  0
  9 12  1  0  0  0  0
  9 10  1  0  0  0  0
  9  8  1  0  0  0  0
 10 14  1  6  0  0  0
 10 15  1  0  0  0  0
 10  8  1  0  0  0  0
 13  9  1  0  0  0  0
 15 23  1  0  0  0  0
 16 17  1  0  0  0  0
 16 18  1  0  0  0  0
 16 15  1  0  0  0  0
 18 19  1  0  0  0  0
 20 18  1  0  0  0  0
 20 21  1  0  0  0  0
 21 22  1  0  0  0  0
 23 21  1  0  0  0  0
 24 23  1  0  0  0  0
 25 26  1  0  0  0  0
 26 27  2  0  0  0  0
 28 26  1  0  0  0  0
 28 29  1  0  0  0  0
 29 34  1  0  0  0  0
 30 29  2  0  0  0  0
 30 35  1  0  0  0  0
 31 30  1  0  0  0  0
 32 33  1  0  0  0  0
 32 31  2  0  0  0  0
 33 28  2  0  0  0  0
 36 32  1  0  0  0  0
M  END
>  <minimizedAffinity>
-5.6932478

$$$$

 OpenBabel03242518373D

 36 39  0  0  1  0  0  0  0  0999 V2000
   38.4700   31.9980   41.0030 C   0  0  0  0  0  0  0  0  0  0  0  0
   37.2910   32.1370   40.2710 C   0  0  0  0  0  0  0  0  0  0  0  0
   36.4960   31.0230   40.4950 C   0  0  0  0  0  0  0  0  0  0  0  0
   37.2390   30.2610   41.3570 C   0  0  0  0  0  0  0  0  0  0  0  0
   38.3860   30.8350   41.6460 O   0  0  0  0  0  0  0  0  0  0  0  0
   37.1180   33.0220   39.6510 H   0  0  0  0  0  0  0  0  0  0  0  0
   35.5220   30.8680   40.0510 H   0  0  0  0  0  0  0  0  0  0  0  0
   36.8080   28.9590   41.8990 C   0  0  2  0  0  0  0  0  0  0  0  0
   37.5890   28.3260   42.9810 C   0  0  0  0  0  0  0  0  0  0  0  0
   37.7830   27.8040   41.5940 C   0  0  1  0  0  0  0  0  0  0  0  0
   35.7390   28.7430   41.7150 H   0  0  0  0  0  0  0  0  0  0  0  0
   37.0400   27.8000   43.7580 H   0  0  0  0  0  0  0  0  0  0  0  0
   38.4670   28.8870   43.3930 H   0  0  0  0  0  0  0  0  0  0  0  0
   38.7210   28.0550   41.0640 H   0  0  0  0  0  0  0  0  0  0  0  0
   37.0900   26.5240   41.2320 C   0  0  0  0  0  3  0  0  0  0  0  0
   37.7130   25.3650   41.9670 C   0  0  0  0  0  3  0  0  0  0  0  0
   37.5630   25.5210   43.0520 H   0  0  0  0  0  0  0  0  0  0  0  0
   37.0420   24.0540   41.6090 C   0  0  0  0  0  3  0  0  0  0  0  0
   36.0230   23.9520   41.9810 H   0  0  0  0  0  0  0  0  0  0  0  0
   37.1780   23.9170   40.2260 O   0  0  0  0  0  0  0  0  0  0  0  0
   36.3530   24.8680   39.6300 C   0  0  0  0  0  3  0  0  0  0  0  0
   35.3920   24.8420   40.2150 H   0  0  0  0  0  0  0  0  0  0  0  0
   36.9470   26.2760   39.7640 C   0  0  0  0  0  3  0  0  0  0  0  0
   37.8960   26.2720   39.2070 H   0  0  0  0  0  0  0  0  0  0  0  0
   39.5920   32.8430   41.1200 O   0  0  0  0  0  0  0  0  0  0  0  0
   39.7310   33.9420   40.2390 C   0  0  0  0  0  0  0  0  0  0  0  0
   39.0490   34.9590   40.5050 O   0  0  0  0  0  0  0  0  0  0  0  0
   40.6330   33.7550   39.1510 C   0  0  0  0  0  0  0  0  0  0  0  0
   41.5870   34.7250   39.0150 C   0  0  0  0  0  0  0  0  0  0  0  0
   42.5070   34.6120   37.9730 C   0  0  0  0  0  0  0  0  0  0  0  0
   42.4060   33.5360   37.1440 N   0  0  0  0  0  0  0  0  0  0  0  0
   41.4590   32.6160   37.3180 C   0  0  0  0  0  0  0  0  0  0  0  0
   40.5840   32.7340   38.3150 N   0  0  0  0  0  0  0  0  0  0  0  0
   41.6830   35.5850   39.6620 H   0  0  0  0  0  0  0  0  0  0  0  0
   43.2850   35.3510   37.8160 H   0  0  0  0  0  0  0  0  0  0  0  0
   41.4700   31.8020   36.5990 H   0  0  0  0  0  0  0  0  0  0  0  0
  1 25  1  0  0  0  0
  1  5  1  0  0  0  0
  2  3  1  0  0  0  0
  2  1  2  0  0  0  0
  3  4  2  0  0  0  0
  4  5  1  0  0  0  0
  4  8  1  0  0  0  0
  6  2  1  0  0  0  0
  7  3  1  0  0  0  0
  8 11  1  6  0  0  0
  8  9  1  0  0  0  0
  9 13  1  0  0  0  0
  9 12  1  0  0  0  0
 10 14  1  6  0  0  0
 10  8  1  0  0  0  0
 10  9  1  0  0  0  0
 15 10  1  0  0  0  0
 15 16  1  0  0  0  0
 16 17  1  0  0  0  0
 18 16  1  0  0  0  0
 18 19  1  0  0  0  0
 20 18  1  0  0  0  0
 21 23  1  0  0  0  0
 21 22  1  0  0  0  0
 21 20  1  0  0  0  0
 23 15  1  0  0  0  0
 24 23  1  0  0  0  0
 26 27  2  0  0  0  0
 26 25  1  0  0  0  0
 28 26  1  0  0  0  0
 29 28  1  0  0  0  0
 29 34  1  0  0  0  0
 30 29  2  0  0  0  0
 31 32  2  0  0  0  0
 31 30  1  0  0  0  0
 32 33  1  0  0  0  0
 33 28  2  0  0  0  0
 35 30  1  0  0  0  0
 36 32  1  0  0  0  0
M  END
>  <minimizedAffinity>
-5.68449688

$$$$

 OpenBabel03242518373D

 36 39  0  0  1  0  0  0  0  0999 V2000
   36.9950   29.1900   42.1400 C   0  0  0  0  0  0  0  0  0  0  0  0
   37.9610   28.9990   43.1280 C   0  0  0  0  0  0  0  0  0  0  0  0
   38.1300   27.6370   43.3240 C   0  0  0  0  0  0  0  0  0  0  0  0
   37.2520   27.0690   42.4390 C   0  0  0  0  0  0  0  0  0  0  0  0
   36.5960   27.9800   41.7550 O   0  0  0  0  0  0  0  0  0  0  0  0
   38.4480   29.8530   43.6080 H   0  0  0  0  0  0  0  0  0  0  0  0
   38.8200   27.2030   44.0350 H   0  0  0  0  0  0  0  0  0  0  0  0
   37.0670   25.6160   42.2690 C   0  0  2  0  0  0  0  0  0  0  0  0
   38.2420   24.7220   42.2990 C   0  0  0  0  0  0  0  0  0  0  0  0
   37.6680   25.0610   40.9610 C   0  0  1  0  0  0  0  0  0  0  0  0
   36.0400   25.2770   42.5040 H   0  0  0  0  0  0  0  0  0  0  0  0
   38.1290   23.7560   42.7840 H   0  0  0  0  0  0  0  0  0  0  0  0
   39.2450   25.1800   42.5030 H   0  0  0  0  0  0  0  0  0  0  0  0
   38.2210   25.7670   40.3150 H   0  0  0  0  0  0  0  0  0  0  0  0
   36.8000   24.0320   40.3000 C   0  0  0  0  0  3  0  0  0  0  0  0
   37.6000   22.7940   39.9860 C   0  0  0  0  0  3  0  0  0  0  0  0
   37.9540   22.3580   40.9400 H   0  0  0  0  0  0  0  0  0  0  0  0
   36.7510   21.7420   39.3030 C   0  0  0  0  0  3  0  0  0  0  0  0
   35.9950   21.2860   39.9420 H   0  0  0  0  0  0  0  0  0  0  0  0
   36.2550   22.3390   38.1430 O   0  0  0  0  0  0  0  0  0  0  0  0
   35.3200   23.2950   38.5330 C   0  0  0  0  0  3  0  0  0  0  0  0
   34.7160   22.8090   39.3480 H   0  0  0  0  0  0  0  0  0  0  0  0
   36.0090   24.5290   39.1320 C   0  0  0  0  0  3  0  0  0  0  0  0
   36.6130   24.9740   38.3280 H   0  0  0  0  0  0  0  0  0  0  0  0
   36.4660   30.3700   41.5780 O   0  0  0  0  0  0  0  0  0  0  0  0
   36.9580   30.8270   40.3310 C   0  0  0  0  0  0  0  0  0  0  0  0
   36.4760   30.2830   39.3100 O   0  0  0  0  0  0  0  0  0  0  0  0
   37.9440   31.8540   40.3910 C   0  0  0  0  0  0  0  0  0  0  0  0
   37.5110   33.0970   40.0190 C   0  0  0  0  0  0  0  0  0  0  0  0
   38.4200   34.1550   40.0510 C   0  0  0  0  0  0  0  0  0  0  0  0
   39.6940   33.8920   40.4540 N   0  0  0  0  0  0  0  0  0  0  0  0
   40.0680   32.6640   40.8080 C   0  0  0  0  0  0  0  0  0  0  0  0
   39.1930   31.6600   40.7730 N   0  0  0  0  0  0  0  0  0  0  0  0
   36.5060   33.3250   39.6970 H   0  0  0  0  0  0  0  0  0  0  0  0
   38.1340   35.1610   39.7670 H   0  0  0  0  0  0  0  0  0  0  0  0
   41.1060   32.5670   41.1120 H   0  0  0  0  0  0  0  0  0  0  0  0
  1  2  2  0  0  0  0
  2  3  1  0  0  0  0
  2  6  1  0  0  0  0
  3  7  1  0  0  0  0
  4  3  2  0  0  0  0
  5  1  1  0  0  0  0
  5  4  1  0  0  0  0
  8  9  1  0  0  0  0
  8  4  1  0  0  0  0
  8 11  1  1  0  0  0
  9 13  1  0  0  0  0
  9 12  1  0  0  0  0
 10 14  1  6  0  0  0
 10  8  1  0  0  0  0
 10  9  1  0  0  0  0
 15 10  1  0  0  0  0
 16 15  1  0  0  0  0
 16 17  1  0  0  0  0
 18 19  1  0  0  0  0
 18 16  1  0  0  0  0
 20 21  1  0  0  0  0
 20 18  1  0  0  0  0
 21 23  1  0  0  0  0
 21 22  1  0  0  0  0
 23 15  1  0  0  0  0
 24 23  1  0  0  0  0
 25  1  1  0  0  0  0
 26 28  1  0  0  0  0
 26 25  1  0  0  0  0
 27 26  2  0  0  0  0
 28 33  1  0  0  0  0
 29 30  1  0  0  0  0
 29 28  2  0  0  0  0
 30 31  2  0  0  0  0
 31 32  1  0  0  0  0
 32 36  1  0  0  0  0
 33 32  2  0  0  0  0
 34 29  1  0  0  0  0
 35 30  1  0  0  0  0
M  END
>  <minimizedAffinity>
-5.48908997

$$$$

 OpenBabel03242518373D

 36 39  0  0  1  0  0  0  0  0999 V2000
   36.9300   28.8280   42.0510 C   0  0  0  0  0  0  0  0  0  0  0  0
   37.9580   28.7620   42.9900 C   0  0  0  0  0  0  0  0  0  0  0  0
   38.2420   27.4280   43.2430 C   0  0  0  0  0  0  0  0  0  0  0  0
   37.3650   26.7500   42.4390 C   0  0  0  0  0  0  0  0  0  0  0  0
   36.6040   27.5720   41.7500 O   0  0  0  0  0  0  0  0  0  0  0  0
   38.4030   29.6750   43.3990 H   0  0  0  0  0  0  0  0  0  0  0  0
   39.0010   27.0860   43.9340 H   0  0  0  0  0  0  0  0  0  0  0  0
   37.2830   25.2810   42.3520 C   0  0  2  0  0  0  0  0  0  0  0  0
   38.5240   24.4820   42.3150 C   0  0  0  0  0  0  0  0  0  0  0  0
   37.8100   24.7060   41.0210 C   0  0  1  0  0  0  0  0  0  0  0  0
   36.3110   24.8770   42.6940 H   0  0  0  0  0  0  0  0  0  0  0  0
   38.5320   23.5370   42.8510 H   0  0  0  0  0  0  0  0  0  0  0  0
   39.5010   25.0250   42.4060 H   0  0  0  0  0  0  0  0  0  0  0  0
   38.2460   25.4180   40.2960 H   0  0  0  0  0  0  0  0  0  0  0  0
   36.9730   23.5810   40.4890 C   0  0  0  0  0  3  0  0  0  0  0  0
   37.8530   22.4540   40.0100 C   0  0  0  0  0  3  0  0  0  0  0  0
   38.4150   22.0600   40.8780 H   0  0  0  0  0  0  0  0  0  0  0  0
   37.0330   21.3090   39.4520 C   0  0  0  0  0  3  0  0  0  0  0  0
   36.4590   20.7590   40.1960 H   0  0  0  0  0  0  0  0  0  0  0  0
   36.2780   21.8470   38.4090 O   0  0  0  0  0  0  0  0  0  0  0  0
   35.3140   22.6770   38.9780 C   0  0  0  0  0  3  0  0  0  0  0  0
   34.9220   22.1140   39.8690 H   0  0  0  0  0  0  0  0  0  0  0  0
   35.9400   23.9830   39.4850 C   0  0  0  0  0  3  0  0  0  0  0  0
   36.3390   24.5040   38.6020 H   0  0  0  0  0  0  0  0  0  0  0  0
   36.2820   29.9340   41.4620 O   0  0  0  0  0  0  0  0  0  0  0  0
   35.6570   29.7830   40.2010 C   0  0  0  0  0  0  0  0  0  0  0  0
   34.5490   29.1960   40.1960 O   0  0  0  0  0  0  0  0  0  0  0  0
   36.3670   30.3190   39.0880 C   0  0  0  0  0  0  0  0  0  0  0  0
   36.9600   31.5320   39.3080 C   0  0  0  0  0  0  0  0  0  0  0  0
   37.6750   32.1220   38.2650 C   0  0  0  0  0  0  0  0  0  0  0  0
   37.7430   31.4550   37.0790 N   0  0  0  0  0  0  0  0  0  0  0  0
   37.1490   30.2750   36.9140 C   0  0  0  0  0  0  0  0  0  0  0  0
   36.4690   29.7200   37.9160 N   0  0  0  0  0  0  0  0  0  0  0  0
   36.9170   32.0760   40.2400 H   0  0  0  0  0  0  0  0  0  0  0  0
   38.1640   33.0820   38.3810 H   0  0  0  0  0  0  0  0  0  0  0  0
   37.2680   29.8330   35.9290 H   0  0  0  0  0  0  0  0  0  0  0  0
  1  2  2  0  0  0  0
  2  3  1  0  0  0  0
  2  6  1  0  0  0  0
  3  7  1  0  0  0  0
  4  3  2  0  0  0  0
  5  1  1  0  0  0  0
  5  4  1  0  0  0  0
  8  4  1  0  0  0  0
  8 11  1  1  0  0  0
  9  8  1  0  0  0  0
  9 13  1  0  0  0  0
  9 12  1  0  0  0  0
 10 14  1  6  0  0  0
 10  9  1  0  0  0  0
 10  8  1  0  0  0  0
 15 10  1  0  0  0  0
 16 15  1  0  0  0  0
 16 17  1  0  0  0  0
 18 16  1  0  0  0  0
 18 19  1  0  0  0  0
 20 21  1  0  0  0  0
 20 18  1  0  0  0  0
 21 23  1  0  0  0  0
 21 22  1  0  0  0  0
 23 15  1  0  0  0  0
 24 23  1  0  0  0  0
 25  1  1  0  0  0  0
 26 25  1  0  0  0  0
 27 26  2  0  0  0  0
 28 29  1  0  0  0  0
 28 26  1  0  0  0  0
 29 34  1  0  0  0  0
 30 35  1  0  0  0  0
 30 29  2  0  0  0  0
 31 30  1  0  0  0  0
 32 31  2  0  0  0  0
 32 33  1  0  0  0  0
 33 28  2  0  0  0  0
 36 32  1  0  0  0  0
M  END
>  <minimizedAffinity>
-5.44066763

$$$$

 OpenBabel03242518373D

 36 39  0  0  1  0  0  0  0  0999 V2000
   37.0120   26.9500   42.7860 C   0  0  0  0  0  0  0  0  0  0  0  0
   37.6860   27.6990   43.7490 C   0  0  0  0  0  0  0  0  0  0  0  0
   37.7180   29.0230   43.3380 C   0  0  0  0  0  0  0  0  0  0  0  0
   37.0570   29.0080   42.1380 C   0  0  0  0  0  0  0  0  0  0  0  0
   36.6510   27.7970   41.8240 O   0  0  0  0  0  0  0  0  0  0  0  0
   38.0870   27.2240   44.6500 H   0  0  0  0  0  0  0  0  0  0  0  0
   38.1800   29.8260   43.8970 H   0  0  0  0  0  0  0  0  0  0  0  0
   36.8250   30.1990   41.3010 C   0  0  2  0  0  0  0  0  0  0  0  0
   36.3420   30.0330   39.9160 C   0  0  0  0  0  0  0  0  0  0  0  0
   37.7960   30.3220   40.1090 C   0  0  1  0  0  0  0  0  0  0  0  0
   36.6730   31.1230   41.8910 H   0  0  0  0  0  0  0  0  0  0  0  0
   35.6220   30.7570   39.5420 H   0  0  0  0  0  0  0  0  0  0  0  0
   36.1180   28.9950   39.5570 H   0  0  0  0  0  0  0  0  0  0  0  0
   38.5200   29.5010   39.9560 H   0  0  0  0  0  0  0  0  0  0  0  0
   38.2610   31.7270   39.8670 C   0  0  0  0  0  3  0  0  0  0  0  0
   39.4190   32.0590   40.7730 C   0  0  0  0  0  3  0  0  0  0  0  0
   40.2620   31.3890   40.5180 H   0  0  0  0  0  0  0  0  0  0  0  0
   39.9010   33.4800   40.5600 C   0  0  0  0  0  3  0  0  0  0  0  0
   40.3900   33.6530   39.6030 H   0  0  0  0  0  0  0  0  0  0  0  0
   38.8010   34.3020   40.8130 O   0  0  0  0  0  0  0  0  0  0  0  0
   37.8940   34.1170   39.7730 C   0  0  0  0  0  3  0  0  0  0  0  0
   38.5150   34.0960   38.8340 H   0  0  0  0  0  0  0  0  0  0  0  0
   37.1820   32.7630   39.8950 C   0  0  0  0  0  3  0  0  0  0  0  0
   36.6030   32.7950   40.8290 H   0  0  0  0  0  0  0  0  0  0  0  0
   36.7110   25.5730   42.7260 O   0  0  0  0  0  0  0  0  0  0  0  0
   37.4470   24.7370   41.8530 C   0  0  0  0  0  0  0  0  0  0  0  0
   36.7800   23.9490   41.1430 O   0  0  0  0  0  0  0  0  0  0  0  0
   38.8630   24.8970   41.8870 C   0  0  0  0  0  0  0  0  0  0  0  0
   39.4320   25.2850   40.7060 C   0  0  0  0  0  0  0  0  0  0  0  0
   40.8160   25.4620   40.6610 C   0  0  0  0  0  0  0  0  0  0  0  0
   41.5270   25.2390   41.8010 N   0  0  0  0  0  0  0  0  0  0  0  0
   40.9260   24.8630   42.9280 C   0  0  0  0  0  0  0  0  0  0  0  0
   39.6050   24.6960   42.9610 N   0  0  0  0  0  0  0  0  0  0  0  0
   38.8860   25.4660   39.7920 H   0  0  0  0  0  0  0  0  0  0  0  0
   41.3210   25.7680   39.7520 H   0  0  0  0  0  0  0  0  0  0  0  0
   41.5890   24.7120   43.7750 H   0  0  0  0  0  0  0  0  0  0  0  0
  1  2  2  0  0  0  0
  2  6  1  0  0  0  0
  3  2  1  0  0  0  0
  3  7  1  0  0  0  0
  4  3  2  0  0  0  0
  5  4  1  0  0  0  0
  5  1  1  0  0  0  0
  8 11  1  1  0  0  0
  8  4  1  0  0  0  0
  9 10  1  0  0  0  0
  9  8  1  0  0  0  0
 10 14  1  6  0  0  0
 10  8  1  0  0  0  0
 12  9  1  0  0  0  0
 13  9  1  0  0  0  0
 15 23  1  0  0  0  0
 15 10  1  0  0  0  0
 15 16  1  0  0  0  0
 17 16  1  0  0  0  0
 18 16  1  0  0  0  0
 18 20  1  0  0  0  0
 19 18  1  0  0  0  0
 21 23  1  0  0  0  0
 21 20  1  0  0  0  0
 22 21  1  0  0  0  0
 23 24  1  0  0  0  0
 25  1  1  0  0  0  0
 26 28  1  0  0  0  0
 26 25  1  0  0  0  0
 27 26  2  0  0  0  0
 28 33  1  0  0  0  0
 29 28  2  0  0  0  0
 30 29  1  0  0  0  0
 30 31  2  0  0  0  0
 31 32  1  0  0  0  0
 32 33  2  0  0  0  0
 32 36  1  0  0  0  0
 34 29  1  0  0  0  0
 35 30  1  0  0  0  0
M  END
>  <minimizedAffinity>
-5.41855764

$$$$

 OpenBabel03242518373D

 36 39  0  0  1  0  0  0  0  0999 V2000
   37.1440   26.8130   42.6800 C   0  0  0  0  0  0  0  0  0  0  0  0
   37.7270   27.5470   43.7120 C   0  0  0  0  0  0  0  0  0  0  0  0
   37.7100   28.8900   43.3650 C   0  0  0  0  0  0  0  0  0  0  0  0
   37.1140   28.8990   42.1320 C   0  0  0  0  0  0  0  0  0  0  0  0
   36.7880   27.6870   41.7410 O   0  0  0  0  0  0  0  0  0  0  0  0
   38.1050   27.0490   44.6100 H   0  0  0  0  0  0  0  0  0  0  0  0
   38.1000   29.6860   43.9850 H   0  0  0  0  0  0  0  0  0  0  0  0
   36.8620   30.1170   41.3400 C   0  0  2  0  0  0  0  0  0  0  0  0
   36.2990   29.9990   39.9800 C   0  0  0  0  0  0  0  0  0  0  0  0
   37.7680   30.2510   40.0990 C   0  0  1  0  0  0  0  0  0  0  0  0
   36.7640   31.0280   41.9600 H   0  0  0  0  0  0  0  0  0  0  0  0
   35.5760   30.7470   39.6660 H   0  0  0  0  0  0  0  0  0  0  0  0
   36.0330   28.9750   39.6080 H   0  0  0  0  0  0  0  0  0  0  0  0
   38.4640   29.4190   39.8840 H   0  0  0  0  0  0  0  0  0  0  0  0
   38.2500   31.6520   39.8660 C   0  0  0  0  0  3  0  0  0  0  0  0
   39.4430   31.9470   40.7400 C   0  0  0  0  0  3  0  0  0  0  0  0
   40.2650   31.2660   40.4460 H   0  0  0  0  0  0  0  0  0  0  0  0
   39.9430   33.3630   40.5370 C   0  0  0  0  0  3  0  0  0  0  0  0
   40.4050   33.5450   39.5670 H   0  0  0  0  0  0  0  0  0  0  0  0
   38.8670   34.1990   40.8400 O   0  0  0  0  0  0  0  0  0  0  0  0
   37.9250   34.0490   39.8250 C   0  0  0  0  0  3  0  0  0  0  0  0
   38.5140   34.0350   38.8670 H   0  0  0  0  0  0  0  0  0  0  0  0
   37.1930   32.7060   39.9460 C   0  0  0  0  0  3  0  0  0  0  0  0
   36.6440   32.7310   40.9000 H   0  0  0  0  0  0  0  0  0  0  0  0
   36.9190   25.4270   42.5410 O   0  0  0  0  0  0  0  0  0  0  0  0
   37.8330   24.6460   41.7940 C   0  0  0  0  0  0  0  0  0  0  0  0
   39.0450   24.7820   42.0800 O   0  0  0  0  0  0  0  0  0  0  0  0
   37.2580   23.7980   40.8030 C   0  0  0  0  0  0  0  0  0  0  0  0
   38.0130   22.7080   40.4640 C   0  0  0  0  0  0  0  0  0  0  0  0
   37.5170   21.8300   39.5000 C   0  0  0  0  0  0  0  0  0  0  0  0
   36.3040   22.1050   38.9470 N   0  0  0  0  0  0  0  0  0  0  0  0
   35.6060   23.1800   39.3110 C   0  0  0  0  0  0  0  0  0  0  0  0
   36.0880   24.0130   40.2320 N   0  0  0  0  0  0  0  0  0  0  0  0
   38.9770   22.4730   40.8920 H   0  0  0  0  0  0  0  0  0  0  0  0
   38.0710   20.9500   39.1920 H   0  0  0  0  0  0  0  0  0  0  0  0
   34.6520   23.3030   38.8050 H   0  0  0  0  0  0  0  0  0  0  0  0
  1  2  2  0  0  0  0
  2  6  1  0  0  0  0
  3  2  1  0  0  0  0
  3  7  1  0  0  0  0
  4  3  2  0  0  0  0
  5  4  1  0  0  0  0
  5  1  1  0  0  0  0
  8 11  1  1  0  0  0
  8  4  1  0  0  0  0
  9 10  1  0  0  0  0
  9  8  1  0  0  0  0
 10 14  1  6  0  0  0
 10  8  1  0  0  0  0
 12  9  1  0  0  0  0
 13  9  1  0  0  0  0
 15 23  1  0  0  0  0
 15 10  1  0  0  0  0
 15 16  1  0  0  0  0
 17 16  1  0  0  0  0
 18 16  1  0  0  0  0
 18 20  1  0  0  0  0
 19 18  1  0  0  0  0
 21 23  1  0  0  0  0
 21 20  1  0  0  0  0
 22 21  1  0  0  0  0
 23 24  1  0  0  0  0
 25  1  1  0  0  0  0
 26 27  2  0  0  0  0
 26 25  1  0  0  0  0
 28 26  1  0  0  0  0
 29 28  1  0  0  0  0
 29 34  1  0  0  0  0
 30 29  2  0  0  0  0
 31 32  2  0  0  0  0
 31 30  1  0  0  0  0
 32 33  1  0  0  0  0
 33 28  2  0  0  0  0
 35 30  1  0  0  0  0
 36 32  1  0  0  0  0
M  END
>  <minimizedAffinity>
-5.37977934

$$$$

 OpenBabel03242518373D

 36 39  0  0  1  0  0  0  0  0999 V2000
   37.9900   32.0200   40.2130 C   0  0  0  0  0  0  0  0  0  0  0  0
   36.6450   31.6590   40.2810 C   0  0  0  0  0  0  0  0  0  0  0  0
   36.5210   30.5660   41.1260 C   0  0  0  0  0  0  0  0  0  0  0  0
   37.8070   30.3200   41.5300 C   0  0  0  0  0  0  0  0  0  0  0  0
   38.6550   31.1700   40.9930 O   0  0  0  0  0  0  0  0  0  0  0  0
   35.8870   32.2130   39.7190 H   0  0  0  0  0  0  0  0  0  0  0  0
   35.5850   30.0780   41.3610 H   0  0  0  0  0  0  0  0  0  0  0  0
   38.1950   29.2400   42.4550 C   0  0  2  0  0  0  0  0  0  0  0  0
   39.6260   28.9900   42.7240 C   0  0  0  0  0  0  0  0  0  0  0  0
   38.9320   28.0700   41.7720 C   0  0  1  0  0  0  0  0  0  0  0  0
   37.3870   28.9520   43.1540 H   0  0  0  0  0  0  0  0  0  0  0  0
   39.9090   28.7170   43.7380 H   0  0  0  0  0  0  0  0  0  0  0  0
   40.3770   29.6710   42.2470 H   0  0  0  0  0  0  0  0  0  0  0  0
   39.1520   28.1670   40.6920 H   0  0  0  0  0  0  0  0  0  0  0  0
   38.5150   26.7250   42.2880 C   0  0  0  0  0  3  0  0  0  0  0  0
   39.7090   25.8110   42.3940 C   0  0  0  0  0  3  0  0  0  0  0  0
   40.4110   26.2410   43.1340 H   0  0  0  0  0  0  0  0  0  0  0  0
   39.3140   24.4380   42.9000 C   0  0  0  0  0  3  0  0  0  0  0  0
   39.0000   24.4130   43.9420 H   0  0  0  0  0  0  0  0  0  0  0  0
   38.3740   23.9480   41.9920 O   0  0  0  0  0  0  0  0  0  0  0  0
   37.2080   24.6930   42.1580 C   0  0  0  0  0  3  0  0  0  0  0  0
   37.0750   24.7990   43.2700 H   0  0  0  0  0  0  0  0  0  0  0  0
   37.3640   26.1010   41.5670 C   0  0  0  0  0  3  0  0  0  0  0  0
   37.5170   25.9730   40.4850 H   0  0  0  0  0  0  0  0  0  0  0  0
   38.6380   33.0520   39.5030 O   0  0  0  0  0  0  0  0  0  0  0  0
   39.4440   33.9790   40.2060 C   0  0  0  0  0  0  0  0  0  0  0  0
   38.8510   34.7360   41.0100 O   0  0  0  0  0  0  0  0  0  0  0  0
   40.8380   33.9380   39.9110 C   0  0  0  0  0  0  0  0  0  0  0  0
   41.1520   33.5110   38.6510 C   0  0  0  0  0  0  0  0  0  0  0  0
   42.4970   33.4430   38.2870 C   0  0  0  0  0  0  0  0  0  0  0  0
   43.4290   33.8080   39.2110 N   0  0  0  0  0  0  0  0  0  0  0  0
   43.0730   34.2190   40.4260 C   0  0  0  0  0  0  0  0  0  0  0  0
   41.7860   34.2790   40.7640 N   0  0  0  0  0  0  0  0  0  0  0  0
   40.4280   33.2170   37.9040 H   0  0  0  0  0  0  0  0  0  0  0  0
   42.8050   33.1110   37.3020 H   0  0  0  0  0  0  0  0  0  0  0  0
   43.8960   34.4850   41.0830 H   0  0  0  0  0  0  0  0  0  0  0  0
  1  2  2  0  0  0  0
  1  5  1  0  0  0  0
  2  3  1  0  0  0  0
  3  7  1  0  0  0  0
  3  4  2  0  0  0  0
  4  8  1  0  0  0  0
  5  4  1  0  0  0  0
  6  2  1  0  0  0  0
  8  9  1  0  0  0  0
  8 11  1  1  0  0  0
  9 12  1  0  0  0  0
 10 14  1  6  0  0  0
 10 15  1  0  0  0  0
 10  8  1  0  0  0  0
 10  9  1  0  0  0  0
 13  9  1  0  0  0  0
 15 16  1  0  0  0  0
 16 18  1  0  0  0  0
 16 17  1  0  0  0  0
 18 19  1  0  0  0  0
 20 21  1  0  0  0  0
 20 18  1  0  0  0  0
 21 22  1  0  0  0  0
 23 21  1  0  0  0  0
 23 15  1  0  0  0  0
 24 23  1  0  0  0  0
 25 26  1  0  0  0  0
 25  1  1  0  0  0  0
 26 27  2  0  0  0  0
 28 26  1  0  0  0  0
 28 33  1  0  0  0  0
 29 28  2  0  0  0  0
 30 29  1  0  0  0  0
 30 31  2  0  0  0  0
 31 32  1  0  0  0  0
 32 33  2  0  0  0  0
 32 36  1  0  0  0  0
 34 29  1  0  0  0  0
 35 30  1  0  0  0  0
M  END
>  <minimizedAffinity>
-5.37179089

$$$$

 OpenBabel03242518373D

 36 39  0  0  1  0  0  0  0  0999 V2000
   38.5080   28.3860   42.2100 C   0  0  0  0  0  0  0  0  0  0  0  0
   37.5770   28.5460   43.2360 C   0  0  0  0  0  0  0  0  0  0  0  0
   36.8330   27.3800   43.3440 C   0  0  0  0  0  0  0  0  0  0  0  0
   37.3540   26.5690   42.3710 C   0  0  0  0  0  0  0  0  0  0  0  0
   38.3280   27.1630   41.7150 O   0  0  0  0  0  0  0  0  0  0  0  0
   37.5240   29.4790   43.8040 H   0  0  0  0  0  0  0  0  0  0  0  0
   36.0380   27.2270   44.0610 H   0  0  0  0  0  0  0  0  0  0  0  0
   36.8880   25.1980   42.0930 C   0  0  2  0  0  0  0  0  0  0  0  0
   37.8580   24.0850   42.0940 C   0  0  0  0  0  0  0  0  0  0  0  0
   37.4200   24.6170   40.7670 C   0  0  1  0  0  0  0  0  0  0  0  0
   35.8060   25.0610   42.2740 H   0  0  0  0  0  0  0  0  0  0  0  0
   37.5330   23.1330   42.5050 H   0  0  0  0  0  0  0  0  0  0  0  0
   38.9220   24.3150   42.3580 H   0  0  0  0  0  0  0  0  0  0  0  0
   38.1310   25.2360   40.1880 H   0  0  0  0  0  0  0  0  0  0  0  0
   36.3910   23.8300   40.0110 C   0  0  0  0  0  3  0  0  0  0  0  0
   36.9260   22.4630   39.6670 C   0  0  0  0  0  3  0  0  0  0  0  0
   37.1230   21.9200   40.6100 H   0  0  0  0  0  0  0  0  0  0  0  0
   35.9120   21.6500   38.8870 C   0  0  0  0  0  3  0  0  0  0  0  0
   35.0410   21.3420   39.4640 H   0  0  0  0  0  0  0  0  0  0  0  0
   35.6230   22.3910   37.7400 O   0  0  0  0  0  0  0  0  0  0  0  0
   34.8930   23.5080   38.1390 C   0  0  0  0  0  3  0  0  0  0  0  0
   34.1530   23.1290   38.8960 H   0  0  0  0  0  0  0  0  0  0  0  0
   35.7940   24.5360   38.8360 C   0  0  0  0  0  3  0  0  0  0  0  0
   36.5240   24.8750   38.0860 H   0  0  0  0  0  0  0  0  0  0  0  0
   39.4900   29.2630   41.7050 O   0  0  0  0  0  0  0  0  0  0  0  0
   39.2650   30.6600   41.7540 C   0  0  0  0  0  0  0  0  0  0  0  0
   39.6600   31.2510   42.7860 O   0  0  0  0  0  0  0  0  0  0  0  0
   38.6150   31.2240   40.6180 C   0  0  0  0  0  0  0  0  0  0  0  0
   38.9150   30.6300   39.4240 C   0  0  0  0  0  0  0  0  0  0  0  0
   38.3170   31.1270   38.2650 C   0  0  0  0  0  0  0  0  0  0  0  0
   37.4630   32.1810   38.3870 N   0  0  0  0  0  0  0  0  0  0  0  0
   37.2020   32.7250   39.5740 C   0  0  0  0  0  0  0  0  0  0  0  0
   37.7790   32.2440   40.6740 N   0  0  0  0  0  0  0  0  0  0  0  0
   39.5890   29.7940   39.3060 H   0  0  0  0  0  0  0  0  0  0  0  0
   38.5170   30.6960   37.2910 H   0  0  0  0  0  0  0  0  0  0  0  0
   36.5080   33.5610   39.5550 H   0  0  0  0  0  0  0  0  0  0  0  0
  1  2  2  0  0  0  0
  2  3  1  0  0  0  0
  2  6  1  0  0  0  0
  3  7  1  0  0  0  0
  4  3  2  0  0  0  0
  5  1  1  0  0  0  0
  5  4  1  0  0  0  0
  8  9  1  0  0  0  0
  8 11  1  1  0  0  0
  8  4  1  0  0  0  0
  9 13  1  0  0  0  0
  9 12  1  0  0  0  0
 10 14  1  6  0  0  0
 10  8  1  0  0  0  0
 10  9  1  0  0  0  0
 15 10  1  0  0  0  0
 16 15  1  0  0  0  0
 16 17  1  0  0  0  0
 18 19  1  0  0  0  0
 18 16  1  0  0  0  0
 20 21  1  0  0  0  0
 20 18  1  0  0  0  0
 21 23  1  0  0  0  0
 21 22  1  0  0  0  0
 23 15  1  0  0  0  0
 24 23  1  0  0  0  0
 25 26  1  0  0  0  0
 25  1  1  0  0  0  0
 26 27  2  0  0  0  0
 28 33  1  0  0  0  0
 28 26  1  0  0  0  0
 29 28  2  0  0  0  0
 30 31  2  0  0  0  0
 30 29  1  0  0  0  0
 31 32  1  0  0  0  0
 32 33  2  0  0  0  0
 34 29  1  0  0  0  0
 35 30  1  0  0  0  0
 36 32  1  0  0  0  0
M  END
>  <minimizedAffinity>
-5.12788486

$$$$
