
 OpenBabel03252506573D

 39 43  0  0  0  0  0  0  0  0999 V2000
   47.2920   31.3060   45.1960 C   0  0  0  0  0  0  0  0  0  0  0  0
   46.9150   32.6330   45.1170 C   0  0  0  0  0  0  0  0  0  0  0  0
   46.2850   33.3060   46.1590 C   0  0  0  0  0  0  0  0  0  0  0  0
   46.0080   32.6440   47.3450 C   0  0  0  0  0  0  0  0  0  0  0  0
   45.4310   32.9610   48.5300 N   0  0  0  0  0  0  0  0  0  0  0  0
   45.4480   31.8600   49.3250 C   0  0  0  0  0  0  0  0  0  0  0  0
   46.0400   30.8660   48.6210 N   0  0  0  0  0  0  0  0  0  0  0  0
   46.3950   31.3150   47.4010 C   0  0  0  0  0  0  0  0  0  0  0  0
   47.0180   30.6270   46.3870 C   0  0  0  0  0  0  0  0  0  0  0  0
   47.7800   30.7970   44.3780 H   0  0  0  0  0  0  0  0  0  0  0  0
   45.9880   34.3430   46.1010 H   0  0  0  0  0  0  0  0  0  0  0  0
   45.0440   33.9150   48.7580 H   0  0  0  0  0  0  0  0  0  0  0  0
   45.0600   31.7850   50.3370 H   0  0  0  0  0  0  0  0  0  0  0  0
   46.6410   35.0890   42.3860 C   0  0  0  0  0  0  0  0  0  0  0  0
   47.7210   34.7590   41.5740 C   0  0  0  0  0  0  0  0  0  0  0  0
   48.5470   33.6880   41.9660 C   0  0  0  0  0  0  0  0  0  0  0  0
   48.2480   33.0270   43.1230 N   0  0  0  0  0  0  0  0  0  0  0  0
   47.1810   33.3800   43.8910 C   0  0  0  0  0  0  0  0  0  0  0  0
   46.3890   34.3970   43.5290 N   0  0  0  0  0  0  0  0  0  0  0  0
   46.0240   35.9130   42.0660 H   0  0  0  0  0  0  0  0  0  0  0  0
   47.8980   35.3270   40.6710 H   0  0  0  0  0  0  0  0  0  0  0  0
   49.3850   33.4120   41.3600 H   0  0  0  0  0  0  0  0  0  0  0  0
   47.3830   29.2160   46.5610 C   0  0  0  0  0  0  0  0  0  0  0  0
   48.6780   28.7290   46.3890 C   0  0  0  0  0  0  0  0  0  0  0  0
   48.5360   27.3590   46.6550 C   0  0  0  0  0  0  0  0  0  0  0  0
   47.2010   27.1070   46.9630 C   0  0  0  0  0  0  0  0  0  0  0  0
   46.5600   28.2670   46.8880 O   0  0  0  0  0  0  0  0  0  0  0  0
   49.5960   29.2200   46.1220 H   0  0  0  0  0  0  0  0  0  0  0  0
   49.3010   26.5830   46.6380 H   0  0  0  0  0  0  0  0  0  0  0  0
   46.5390   25.8400   47.3140 C   0  0  0  0  0  3  0  0  0  0  0  0
   46.9810   25.3130   48.6410 C   0  0  0  0  0  3  0  0  0  0  0  0
   47.2440   26.1100   49.3650 H   0  0  0  0  0  0  0  0  0  0  0  0
   45.8310   24.4530   49.1760 C   0  0  0  0  0  3  0  0  0  0  0  0
   44.9850   25.0880   49.5200 H   0  0  0  0  0  0  0  0  0  0  0  0
   45.3580   23.7430   48.0700 O   0  0  0  0  0  0  0  0  0  0  0  0
   44.4790   24.5720   47.3410 C   0  0  0  0  0  3  0  0  0  0  0  0
   44.3840   24.1810   46.3050 H   0  0  0  0  0  0  0  0  0  0  0  0
   45.0250   25.9830   47.3620 C   0  0  0  0  0  3  0  0  0  0  0  0
   44.7290   26.4470   46.3810 H   0  0  0  0  0  0  0  0  0  0  0  0
  1  9  1  0  0  0  0
  2  1  2  0  0  0  0
  2  3  1  0  0  0  0
  3  4  2  0  0  0  0
  4  8  1  0  0  0  0
  4  5  1  0  0  0  0
  5 12  1  0  0  0  0
  5  6  1  0  0  0  0
  6 13  1  0  0  0  0
  7  6  2  0  0  0  0
  8  7  1  0  0  0  0
  9 23  1  0  0  0  0
  9  8  2  0  0  0  0
 10  1  1  0  0  0  0
 11  3  1  0  0  0  0
 14 19  1  0  0  0  0
 15 16  1  0  0  0  0
 15 14  2  0  0  0  0
 16 17  2  0  0  0  0
 17 18  1  0  0  0  0
 18  2  1  0  0  0  0
 19 18  2  0  0  0  0
 20 14  1  0  0  0  0
 21 15  1  0  0  0  0
 22 16  1  0  0  0  0
 23 27  1  0  0  0  0
 24 23  2  0  0  0  0
 24 25  1  0  0  0  0
 25 26  2  0  0  0  0
 26 30  1  0  0  0  0
 27 26  1  0  0  0  0
 28 24  1  0  0  0  0
 29 25  1  0  0  0  0
 30 38  1  0  0  0  0
 30 31  1  0  0  0  0
 31 33  1  0  0  0  0
 31 32  1  0  0  0  0
 33 34  1  0  0  0  0
 35 33  1  0  0  0  0
 36 38  1  0  0  0  0
 36 35  1  0  0  0  0
 37 36  1  0  0  0  0
 39 38  1  0  0  0  0
M  END
>  <minimizedAffinity>
-5.85202074

>  <minimizedRMSD>
0.898332179

$$$$
