
 OpenBabel03252508103D

 48 51  0  0  0  0  0  0  0  0999 V2000
   45.0590   35.4810   43.3400 C   0  0  0  0  0  0  0  0  0  0  0  0
   45.5000   34.1760   43.3880 C   0  0  0  0  0  0  0  0  0  0  0  0
   45.4970   33.4710   44.5580 C   0  0  0  0  0  0  0  0  0  0  0  0
   45.0230   34.1500   45.6760 N   0  0  0  0  0  0  0  0  0  0  0  0
   44.5990   35.4010   45.6340 C   0  0  0  0  0  0  0  0  0  0  0  0
   44.6230   36.0610   44.4530 N   0  0  0  0  0  0  0  0  0  0  0  0
   45.0440   36.0800   42.4320 H   0  0  0  0  0  0  0  0  0  0  0  0
   44.2390   35.8770   46.5540 H   0  0  0  0  0  0  0  0  0  0  0  0
   45.9130   32.1460   44.7880 C   0  0  0  0  0  0  0  0  0  0  0  0
   45.6330   31.0970   43.8910 C   0  0  0  0  0  0  0  0  0  0  0  0
   45.9750   29.7890   44.1100 C   0  0  0  0  0  0  0  0  0  0  0  0
   46.6360   29.4440   45.2750 C   0  0  0  0  0  0  0  0  0  0  0  0
   46.9320   30.4970   46.1990 C   0  0  0  0  0  0  0  0  0  0  0  0
   47.5800   30.1660   47.3510 C   0  0  0  0  0  0  0  0  0  0  0  0
   47.8910   31.1360   48.2760 C   0  0  0  0  0  0  0  0  0  0  0  0
   47.5330   32.4720   48.0220 C   0  0  0  0  0  0  0  0  0  0  0  0
   46.8620   32.7520   46.8120 C   0  0  0  0  0  0  0  0  0  0  0  0
   46.5660   31.7720   45.9200 C   0  0  0  0  0  0  0  0  0  0  0  0
   45.1160   31.3460   42.9760 H   0  0  0  0  0  0  0  0  0  0  0  0
   45.7180   29.0550   43.3620 H   0  0  0  0  0  0  0  0  0  0  0  0
   46.9080   28.4320   45.4590 H   0  0  0  0  0  0  0  0  0  0  0  0
   47.8440   29.1170   47.5130 H   0  0  0  0  0  0  0  0  0  0  0  0
   48.4000   30.7850   49.1500 H   0  0  0  0  0  0  0  0  0  0  0  0
   47.8260   33.1310   48.8050 H   0  0  0  0  0  0  0  0  0  0  0  0
   46.7130   33.8120   46.8150 H   0  0  0  0  0  0  0  0  0  0  0  0
   45.9340   33.6210   42.2170 O   0  0  0  0  0  0  0  0  0  0  0  0
   48.2210   32.5700   41.4790 O   0  0  0  0  0  0  0  0  0  0  0  0
   47.4420   33.8500   41.5280 P   0  0  1  0  0  0  0  0  0  0  0  0
   47.3420   34.4310   39.9480 O   0  0  0  0  0  0  0  0  0  0  0  0
   47.3240   33.2890   39.1280 C   0  0  0  0  0  0  0  0  0  0  0  0
   46.6020   32.5330   39.4320 H   0  0  0  0  0  0  0  0  0  0  0  0
   48.3350   32.8160   39.2950 H   0  0  0  0  0  0  0  0  0  0  0  0
   47.2810   33.6540   37.6750 C   0  0  0  0  0  0  0  0  0  0  0  0
   46.7360   32.5500   36.8060 C   0  0  0  0  0  0  0  0  0  0  0  0
   46.6510   32.9900   35.7690 H   0  0  0  0  0  0  0  0  0  0  0  0
   47.6890   31.4050   36.6750 C   0  0  0  0  0  0  0  0  0  0  0  0
   47.1320   30.4930   37.0430 H   0  0  0  0  0  0  0  0  0  0  0  0
   48.8170   31.4810   37.4550 O   0  0  0  0  0  0  0  0  0  0  0  0
   49.5080   32.6570   37.4240 C   0  0  0  0  0  0  0  0  0  0  0  0
   50.3700   32.6440   36.6990 H   0  0  0  0  0  0  0  0  0  0  0  0
   48.7050   33.8950   37.2210 C   0  0  0  0  0  0  0  0  0  0  0  0
   48.7310   34.2560   36.1540 H   0  0  0  0  0  0  0  0  0  0  0  0
   48.2860   34.9700   42.4700 O   0  0  0  0  0  0  0  0  0  0  0  0
   49.5590   35.4560   42.2620 C   0  0  0  0  0  0  0  0  0  0  0  0
   49.4310   36.4810   41.6050 O   0  0  0  0  0  0  0  0  0  0  0  0
   50.5410   34.6170   42.8700 N   0  0  0  0  0  0  0  0  0  0  0  0
   50.7380   34.4830   43.9100 H   0  0  0  0  0  0  0  0  0  0  0  0
   51.3290   33.9410   42.7440 H   0  0  0  0  0  0  0  0  0  0  0  0
  1  2  2  0  0  0  0
  1  6  1  0  0  0  0
  2  3  1  0  0  0  0
  3  9  1  0  0  0  0
  3  4  2  0  0  0  0
  5  4  1  0  0  0  0
  5  8  1  0  0  0  0
  6  5  2  0  0  0  0
  7  1  1  0  0  0  0
  9 18  1  0  0  0  0
 10 11  1  0  0  0  0
 10  9  2  0  0  0  0
 11 12  2  0  0  0  0
 12 21  1  0  0  0  0
 12 13  1  0  0  0  0
 13 14  1  0  0  0  0
 14 22  1  0  0  0  0
 14 15  2  0  0  0  0
 15 23  1  0  0  0  0
 16 15  1  0  0  0  0
 16 24  1  0  0  0  0
 17 25  1  0  0  0  0
 17 16  2  0  0  0  0
 18 13  2  0  0  0  0
 18 17  1  0  0  0  0
 19 10  1  0  0  0  0
 20 11  1  0  0  0  0
 26  2  1  0  0  0  0
 28 27  2  6  0  0  0
 28 26  1  0  0  0  0
 28 43  1  0  0  0  0
 29 28  1  0  0  0  0
 30 32  1  0  0  0  0
 30 31  1  0  0  0  0
 30 29  1  0  0  0  0
 33 30  1  0  0  0  0
 34 33  1  0  0  0  0
 35 34  1  0  0  0  0
 36 34  1  0  0  0  0
 36 37  1  0  0  0  0
 36 38  1  0  0  0  0
 39 38  1  0  0  0  0
 40 39  1  0  0  0  0
 41 39  1  0  0  0  0
 41 33  1  0  0  0  0
 42 41  1  0  0  0  0
 44 43  1  0  0  0  0
 44 46  1  0  0  0  0
 45 44  2  0  0  0  0
 46 47  1  0  0  0  0
 48 46  1  0  0  0  0
M  END
>  <minimizedAffinity>
-6.28341007

>  <minimizedRMSD>
1.374138

$$$$
