
 OpenBabel03252509043D

 49 51  0  0  1  0  0  0  0  0999 V2000
   46.4920   34.4310   43.7040 N   0  0  0  0  0  0  0  0  0  0  0  0
   46.0640   35.1310   42.5570 C   0  0  0  0  0  0  0  0  0  0  0  0
   44.5620   35.2930   42.4260 C   0  0  0  0  0  0  0  0  0  0  0  0
   43.8440   35.4290   43.7400 C   0  0  0  0  0  0  0  0  0  0  0  0
   44.8060   35.4740   44.9050 C   0  0  0  0  0  0  0  0  0  0  0  0
   45.6330   34.1400   44.7450 C   0  0  2  0  0  0  0  0  0  0  0  0
   46.4090   34.7560   41.5870 H   0  0  0  0  0  0  0  0  0  0  0  0
   46.4770   36.1740   42.6290 H   0  0  0  0  0  0  0  0  0  0  0  0
   44.1780   34.4520   41.8160 H   0  0  0  0  0  0  0  0  0  0  0  0
   44.3600   36.2220   41.8460 H   0  0  0  0  0  0  0  0  0  0  0  0
   43.2060   36.3440   43.7830 H   0  0  0  0  0  0  0  0  0  0  0  0
   43.1690   34.5800   43.9080 H   0  0  0  0  0  0  0  0  0  0  0  0
   44.2400   35.3720   45.8360 H   0  0  0  0  0  0  0  0  0  0  0  0
   45.5020   36.3350   44.8740 H   0  0  0  0  0  0  0  0  0  0  0  0
   44.8480   33.3740   44.5840 H   0  0  0  0  0  0  0  0  0  0  0  0
   47.6000   33.5450   43.4680 C   0  0  0  0  0  0  0  0  0  0  0  0
   47.5270   32.6990   44.1860 H   0  0  0  0  0  0  0  0  0  0  0  0
   48.5240   34.1270   43.6340 H   0  0  0  0  0  0  0  0  0  0  0  0
   47.5190   33.0100   42.0890 C   0  0  0  0  0  0  0  0  0  0  0  0
   46.8060   32.1770   41.9560 H   0  0  0  0  0  0  0  0  0  0  0  0
   47.1740   33.7980   41.3660 H   0  0  0  0  0  0  0  0  0  0  0  0
   51.2500   32.6120   41.9250 C   0  0  0  0  0  0  0  0  0  0  0  0
   49.9590   32.9700   42.3560 C   0  0  0  0  0  0  0  0  0  0  0  0
   48.8680   32.6200   41.6130 C   0  0  0  0  0  0  0  0  0  0  0  0
   49.0850   31.9370   40.4860 N   0  0  0  0  0  0  0  0  0  0  0  0
   50.3020   31.5850   40.0600 C   0  0  0  0  0  0  0  0  0  0  0  0
   51.3990   31.9130   40.7650 N   0  0  0  0  0  0  0  0  0  0  0  0
   52.1310   32.8870   42.5120 H   0  0  0  0  0  0  0  0  0  0  0  0
   49.8850   33.5270   43.2880 H   0  0  0  0  0  0  0  0  0  0  0  0
   50.3000   31.0290   39.1180 H   0  0  0  0  0  0  0  0  0  0  0  0
   46.2830   34.0580   45.9570 O   0  0  0  0  0  0  0  0  0  0  0  0
   45.7710   31.4730   45.6690 O   0  0  0  0  0  0  0  0  0  0  0  0
   46.1010   32.5520   46.6990 P   0  0  2  0  0  0  0  0  0  0  0  0
   44.7310   32.6870   47.6960 O   0  0  0  0  0  0  0  0  0  0  0  0
   44.8920   32.3640   48.6140 H   0  0  0  0  0  0  0  0  0  0  0  0
   47.4150   32.1540   47.6540 O   0  0  0  0  0  0  0  0  0  0  0  0
   47.3460   30.7850   47.9230 C   0  0  0  0  0  0  0  0  0  0  0  0
   46.3390   30.5890   48.3750 H   0  0  0  0  0  0  0  0  0  0  0  0
   47.5010   30.1790   47.0290 H   0  0  0  0  0  0  0  0  0  0  0  0
   48.3840   30.5150   48.9920 C   0  0  0  0  0  0  0  0  0  0  0  0
   49.2770   31.7050   49.2590 C   0  0  0  0  0  0  0  0  0  0  0  0
   49.9380   31.8710   48.3840 H   0  0  0  0  0  0  0  0  0  0  0  0
   50.1870   31.2730   50.4100 C   0  0  0  0  0  0  0  0  0  0  0  0
   50.9190   32.0620   50.6740 H   0  0  0  0  0  0  0  0  0  0  0  0
   50.9100   30.1630   50.0380 O   0  0  0  0  0  0  0  0  0  0  0  0
   50.1610   29.0430   49.7520 C   0  0  0  0  0  0  0  0  0  0  0  0
   50.8710   28.2450   49.4670 H   0  0  0  0  0  0  0  0  0  0  0  0
   49.2210   29.3260   48.5870 C   0  0  0  0  0  0  0  0  0  0  0  0
   49.8230   29.6230   47.7090 H   0  0  0  0  0  0  0  0  0  0  0  0
  1  6  1  0  0  0  0
  2  8  1  0  0  0  0
  2  1  1  0  0  0  0
  3  2  1  0  0  0  0
  3  4  1  0  0  0  0
  4 11  1  0  0  0  0
  4 12  1  0  0  0  0
  4  5  1  0  0  0  0
  5 13  1  0  0  0  0
  6 15  1  6  0  0  0
  6  5  1  0  0  0  0
  6 31  1  0  0  0  0
  7  2  1  0  0  0  0
  9  3  1  0  0  0  0
 10  3  1  0  0  0  0
 14  5  1  0  0  0  0
 16 18  1  0  0  0  0
 16  1  1  0  0  0  0
 16 17  1  0  0  0  0
 19 16  1  0  0  0  0
 20 19  1  0  0  0  0
 21 19  1  0  0  0  0
 22 23  1  0  0  0  0
 22 28  1  0  0  0  0
 23 29  1  0  0  0  0
 24 19  1  0  0  0  0
 24 23  2  0  0  0  0
 25 24  1  0  0  0  0
 26 25  2  0  0  0  0
 26 27  1  0  0  0  0
 27 22  2  0  0  0  0
 30 26  1  0  0  0  0
 31 33  1  0  0  0  0
 33 32  2  6  0  0  0
 33 36  1  0  0  0  0
 33 34  1  0  0  0  0
 34 35  1  0  0  0  0
 36 37  1  0  0  0  0
 37 38  1  0  0  0  0
 37 40  1  0  0  0  0
 39 37  1  0  0  0  0
 40 41  1  0  0  0  0
 41 43  1  0  0  0  0
 42 41  1  0  0  0  0
 43 44  1  0  0  0  0
 45 43  1  0  0  0  0
 46 45  1  0  0  0  0
 47 46  1  0  0  0  0
 48 40  1  0  0  0  0
 48 46  1  0  0  0  0
 49 48  1  0  0  0  0
M  END
>  <minimizedAffinity>
-5.14540243

>  <minimizedRMSD>
3.136971

$$$$
