
 OpenBabel03252508293D

 40 43  0  0  1  0  0  0  0  0999 V2000
   42.7810   32.7670   40.0990 N   0  0  0  0  0  0  0  0  0  0  0  0
   42.5370   33.6180   41.2670 C   0  0  2  0  0  0  0  0  0  0  0  0
   41.5810   34.7200   40.9830 C   0  0  0  0  0  0  0  0  0  0  0  0
   40.9060   34.5640   39.7060 N   0  0  0  0  0  0  0  0  0  0  0  0
   41.7670   34.2970   38.6020 C   0  0  0  0  0  0  0  0  0  0  0  0
   43.0900   33.7230   39.0180 C   0  0  2  0  0  0  0  0  0  0  0  0
   43.5750   32.1660   40.3400 H   0  0  0  0  0  0  0  0  0  0  0  0
   42.1630   33.0080   42.1270 H   0  0  0  0  0  0  0  0  0  0  0  0
   40.7540   34.7850   41.7370 H   0  0  0  0  0  0  0  0  0  0  0  0
   42.0030   35.7320   40.8620 H   0  0  0  0  0  0  0  0  0  0  0  0
   40.0450   34.0110   39.7700 H   0  0  0  0  0  0  0  0  0  0  0  0
   41.9230   35.2130   37.9610 H   0  0  0  0  0  0  0  0  0  0  0  0
   41.2730   33.5730   37.9210 H   0  0  0  0  0  0  0  0  0  0  0  0
   43.7380   34.4960   39.4230 H   0  0  0  0  0  0  0  0  0  0  0  0
   43.7880   33.0460   37.8760 C   0  0  0  0  0  3  0  0  0  0  0  0
   43.2970   31.6790   37.5540 C   0  0  0  0  0  3  0  0  0  0  0  0
   42.9060   31.6160   36.4980 H   0  0  0  0  0  0  0  0  0  0  0  0
   44.4830   30.7070   37.5680 C   0  0  0  0  0  3  0  0  0  0  0  0
   44.0630   29.7350   37.1770 H   0  0  0  0  0  0  0  0  0  0  0  0
   45.4600   31.0880   36.6760 O   0  0  0  0  0  0  0  0  0  0  0  0
   45.8490   32.4110   36.7890 C   0  0  0  0  0  3  0  0  0  0  0  0
   45.3130   32.9450   35.9500 H   0  0  0  0  0  0  0  0  0  0  0  0
   45.2670   33.0200   38.0720 C   0  0  0  0  0  3  0  0  0  0  0  0
   45.6120   34.0840   38.0850 H   0  0  0  0  0  0  0  0  0  0  0  0
   45.9400   34.5230   42.0580 C   0  0  0  0  0  0  0  0  0  0  0  0
   45.1880   35.6260   42.4780 C   0  0  0  0  0  0  0  0  0  0  0  0
   43.8450   35.3990   42.2340 C   0  0  0  0  0  0  0  0  0  0  0  0
   43.8080   34.1900   41.6800 N   0  0  0  0  0  0  0  0  0  0  0  0
   45.0290   33.6780   41.5770 N   0  0  0  0  0  0  0  0  0  0  0  0
   45.7320   36.4820   42.9230 H   0  0  0  0  0  0  0  0  0  0  0  0
   43.2630   36.2510   42.5670 H   0  0  0  0  0  0  0  0  0  0  0  0
   49.6370   35.2160   42.1460 C   0  0  0  0  0  0  0  0  0  0  0  0
   48.2430   35.4740   42.0000 C   0  0  0  0  0  0  0  0  0  0  0  0
   47.3930   34.4020   42.1690 C   0  0  0  0  0  0  0  0  0  0  0  0
   47.9000   33.1810   42.4600 N   0  0  0  0  0  0  0  0  0  0  0  0
   49.2300   32.9640   42.5920 C   0  0  0  0  0  0  0  0  0  0  0  0
   50.0670   33.9860   42.4330 N   0  0  0  0  0  0  0  0  0  0  0  0
   50.3230   36.0580   42.0140 H   0  0  0  0  0  0  0  0  0  0  0  0
   47.8450   36.4400   41.7690 H   0  0  0  0  0  0  0  0  0  0  0  0
   49.5180   31.9420   42.8270 H   0  0  0  0  0  0  0  0  0  0  0  0
  1  7  1  0  0  0  0
  1  2  1  0  0  0  0
  2 28  1  0  0  0  0
  2  8  1  1  0  0  0
  3  2  1  0  0  0  0
  3  9  1  0  0  0  0
  4 11  1  0  0  0  0
  4  3  1  0  0  0  0
  5  6  1  0  0  0  0
  5  4  1  0  0  0  0
  6 14  1  1  0  0  0
  6  1  1  0  0  0  0
 10  3  1  0  0  0  0
 12  5  1  0  0  0  0
 13  5  1  0  0  0  0
 15 23  1  0  0  0  0
 15  6  1  0  0  0  0
 16 18  1  0  0  0  0
 16 15  1  0  0  0  0
 17 16  1  0  0  0  0
 19 18  1  0  0  0  0
 20 21  1  0  0  0  0
 20 18  1  0  0  0  0
 21 23  1  0  0  0  0
 22 21  1  0  0  0  0
 23 24  1  0  0  0  0
 25 34  1  0  0  0  0
 25 26  1  0  0  0  0
 26 30  1  0  0  0  0
 27 26  2  0  0  0  0
 27 31  1  0  0  0  0
 28 27  1  0  0  0  0
 29 28  1  0  0  0  0
 29 25  2  0  0  0  0
 32 37  1  0  0  0  0
 33 32  2  0  0  0  0
 33 34  1  0  0  0  0
 34 35  2  0  0  0  0
 35 36  1  0  0  0  0
 36 40  1  0  0  0  0
 37 36  2  0  0  0  0
 38 32  1  0  0  0  0
 39 33  1  0  0  0  0
M  END
>  <minimizedAffinity>
-4.81332016

>  <minimizedRMSD>
1.61985326

$$$$
