
 OpenBabel03252503013D

 31 32  0  0  0  0  0  0  0  0999 V2000
   44.7590   31.3060   43.1180 S   0  0  0  0  0  0  0  0  0  0  0  0
   43.0770   31.5990   42.8140 N   0  0  0  0  0  0  0  0  0  0  0  0
   42.8700   32.6080   42.9750 H   0  0  0  0  0  0  0  0  0  0  0  0
   42.7410   31.3360   41.4060 C   0  0  0  0  0  0  0  0  0  0  0  0
   43.0610   30.2840   41.1560 H   0  0  0  0  0  0  0  0  0  0  0  0
   43.3310   31.9770   40.7190 H   0  0  0  0  0  0  0  0  0  0  0  0
   40.9760   31.5010   41.2310 S   0  0  0  0  0  0  0  0  0  0  0  0
   39.5650   33.7510   40.4690 C   0  0  0  0  0  0  0  0  0  0  0  0
   40.5820   32.8780   40.1310 C   0  0  0  0  0  0  0  0  0  0  0  0
   41.3090   33.0440   38.9570 C   0  0  0  0  0  0  0  0  0  0  0  0
   40.9700   34.1060   38.1570 N   0  0  0  0  0  0  0  0  0  0  0  0
   39.9730   34.9200   38.5370 C   0  0  0  0  0  0  0  0  0  0  0  0
   39.2660   34.7900   39.6420 N   0  0  0  0  0  0  0  0  0  0  0  0
   39.0220   33.5920   41.3880 H   0  0  0  0  0  0  0  0  0  0  0  0
   42.1180   32.3510   38.6860 H   0  0  0  0  0  0  0  0  0  0  0  0
   39.8220   35.7140   37.8020 H   0  0  0  0  0  0  0  0  0  0  0  0
   44.9500   30.3830   44.2720 O   0  0  0  0  0  0  0  0  0  0  0  0
   45.7310   30.4460   44.8690 H   0  0  0  0  0  0  0  0  0  0  0  0
   45.3000   30.6770   41.8540 O   0  0  0  0  0  0  0  0  0  0  0  0
   45.8260   29.8280   41.8810 H   0  0  0  0  0  0  0  0  0  0  0  0
   45.5590   32.7620   43.2960 O   0  0  0  0  0  0  0  0  0  0  0  0
   44.7090   33.8590   43.3330 C   0  0  0  0  0  0  0  0  0  0  0  0
   44.9980   34.6720   42.0830 C   0  0  0  0  0  0  0  0  0  0  0  0
   44.1170   35.2780   41.7700 H   0  0  0  0  0  0  0  0  0  0  0  0
   46.0530   35.6880   42.5330 C   0  0  0  0  0  0  0  0  0  0  0  0
   46.6220   36.1170   41.6980 H   0  0  0  0  0  0  0  0  0  0  0  0
   45.3710   36.6700   43.2330 O   0  0  0  0  0  0  0  0  0  0  0  0
   44.7460   36.1720   44.3460 C   0  0  0  0  0  0  0  0  0  0  0  0
   43.6660   36.4930   44.2850 H   0  0  0  0  0  0  0  0  0  0  0  0
   44.9100   34.6970   44.5710 C   0  0  0  0  0  0  0  0  0  0  0  0
   44.1170   34.3860   45.3060 H   0  0  0  0  0  0  0  0  0  0  0  0
  1 21  1  0  0  0  0
  1 17  1  0  0  0  0
  2  3  1  0  0  0  0
  2  1  1  0  0  0  0
  4  2  1  0  0  0  0
  5  4  1  0  0  0  0
  6  4  1  0  0  0  0
  7  4  1  0  0  0  0
  8 14  1  0  0  0  0
  9  8  1  0  0  0  0
  9  7  1  0  0  0  0
 10  9  2  0  0  0  0
 11 12  2  0  0  0  0
 11 10  1  0  0  0  0
 12 13  1  0  0  0  0
 13  8  2  0  0  0  0
 15 10  1  0  0  0  0
 16 12  1  0  0  0  0
 17 18  1  0  0  0  0
 19 20  1  0  0  0  0
 19  1  1  0  0  0  0
 21 22  1  0  0  0  0
 22 30  1  0  0  0  0
 23 25  1  0  0  0  0
 23 22  1  0  0  0  0
 24 23  1  0  0  0  0
 25 27  1  0  0  0  0
 26 25  1  0  0  0  0
 27 28  1  0  0  0  0
 28 30  1  0  0  0  0
 29 28  1  0  0  0  0
 30 31  1  0  0  0  0
M  END
>  <minimizedAffinity>
-3.89128375

>  <minimizedRMSD>
3.44156766

$$$$
