
 OpenBabel03242523423D

 25 26  0  0  1  0  0  0  0  0999 V2000
   46.5250   35.1140   42.0040 C   0  0  1  0  0  0  0  0  0  0  0  0
   46.3030   36.1970   41.7370 H   0  0  0  0  0  0  0  0  0  0  0  0
   46.0140   34.2730   40.9010 C   0  0  0  0  0  3  0  0  0  0  0  0
   44.5360   33.9370   40.9680 C   0  0  0  0  0  3  0  0  0  0  0  0
   44.3450   33.1060   41.6420 H   0  0  0  0  0  0  0  0  0  0  0  0
   44.2110   33.4490   39.5550 C   0  0  0  0  0  3  0  0  0  0  0  0
   44.5080   34.2650   38.8740 H   0  0  0  0  0  0  0  0  0  0  0  0
   44.8490   32.2700   39.3510 O   0  0  0  0  0  0  0  0  0  0  0  0
   46.2170   32.2510   39.4440 C   0  0  0  0  0  3  0  0  0  0  0  0
   46.5330   31.1910   39.5420 H   0  0  0  0  0  0  0  0  0  0  0  0
   46.7810   33.0300   40.5910 C   0  0  0  0  0  3  0  0  0  0  0  0
   46.8070   32.3860   41.4770 H   0  0  0  0  0  0  0  0  0  0  0  0
   45.0340   35.7620   43.8440 C   0  0  0  0  0  0  0  0  0  0  0  0
   45.9950   34.8800   43.3440 C   0  0  0  0  0  0  0  0  0  0  0  0
   46.4180   33.8270   44.1580 C   0  0  0  0  0  0  0  0  0  0  0  0
   45.8690   33.7160   45.3940 N   0  0  0  0  0  0  0  0  0  0  0  0
   44.9360   34.5880   45.8520 C   0  0  0  0  0  0  0  0  0  0  0  0
   44.5080   35.6220   45.0800 N   0  0  0  0  0  0  0  0  0  0  0  0
   44.6810   36.5910   43.2430 H   0  0  0  0  0  0  0  0  0  0  0  0
   47.1540   33.1280   43.8300 H   0  0  0  0  0  0  0  0  0  0  0  0
   44.5370   34.4330   46.8630 H   0  0  0  0  0  0  0  0  0  0  0  0
   48.0350   35.0260   42.0780 C   0  0  0  0  0  0  0  0  0  0  0  0
   48.3420   33.9940   42.3120 H   0  0  0  0  0  0  0  0  0  0  0  0
   48.4380   35.3890   41.1080 H   0  0  0  0  0  0  0  0  0  0  0  0
   48.3760   35.6870   42.9080 H   0  0  0  0  0  0  0  0  0  0  0  0
  1  2  1  6  0  0  0
  1 22  1  0  0  0  0
  1 14  1  0  0  0  0
  3  4  1  0  0  0  0
  3  1  1  0  0  0  0
  4  5  1  0  0  0  0
  6  4  1  0  0  0  0
  7  6  1  0  0  0  0
  8  9  1  0  0  0  0
  8  6  1  0  0  0  0
  9 10  1  0  0  0  0
  9 11  1  0  0  0  0
 11  3  1  0  0  0  0
 11 12  1  0  0  0  0
 13 18  1  0  0  0  0
 14 13  2  0  0  0  0
 14 15  1  0  0  0  0
 15 16  2  0  0  0  0
 16 17  1  0  0  0  0
 17 21  1  0  0  0  0
 18 17  2  0  0  0  0
 19 13  1  0  0  0  0
 20 15  1  0  0  0  0
 22 23  1  0  0  0  0
 22 25  1  0  0  0  0
 24 22  1  0  0  0  0
M  END
>  <minimizedAffinity>
-3.98798847

>  <minimizedRMSD>
0.542908549

$$$$
