
     RDKit          3D

 29 30  0  0  0  0  0  0  0  0999 V2000
   44.4194   35.8069   44.6988 C   0  0  0  0  0  0  0  0  0  0  0  0
   44.6715   35.4886   43.3580 C   0  0  0  0  0  0  0  0  0  0  0  0
   45.3649   34.3277   43.0994 C   0  0  0  0  0  0  0  0  0  0  0  0
   45.7719   33.5480   44.1315 N   0  0  0  0  0  0  0  0  0  0  0  0
   45.5149   33.8803   45.4050 C   0  0  0  0  0  0  0  0  0  0  0  0
   44.8392   35.0085   45.6928 N   0  0  0  0  0  0  0  0  0  0  0  0
   44.1790   36.4075   42.4064 N   0  0  0  0  0  0  0  0  0  0  0  0
   45.9402   33.0586   46.5672 C   0  0  0  0  0  0  0  0  0  0  0  0
   43.8816   36.7014   44.9685 H   0  0  0  0  0  0  0  0  0  0  0  0
   45.5423   34.1109   42.0691 H   0  0  0  0  0  0  0  0  0  0  0  0
   43.3609   36.0716   41.8235 H   0  0  0  0  0  0  0  0  0  0  0  0
   44.6779   37.3299   42.3774 H   0  0  0  0  0  0  0  0  0  0  0  0
   46.8397   32.4348   46.3259 H   0  0  0  0  0  0  0  0  0  0  0  0
   46.1060   33.6647   47.4724 H   0  0  0  0  0  0  0  0  0  0  0  0
   44.8311   32.0937   46.8480 C   0  0  2  0  0  0  0  0  0  0  0  0
   43.6795   32.7982   47.5159 C   0  0  1  0  0  0  0  0  0  0  0  0
   44.0837   33.4514   48.2954 H   0  0  0  0  0  0  0  0  0  0  0  0
   42.6338   31.8375   48.0157 C   0  0  1  0  0  0  0  0  0  0  0  0
   42.0274   32.3820   48.7776 H   0  0  0  0  0  0  0  0  0  0  0  0
   43.1706   30.7290   48.6426 O   0  0  0  0  0  0  0  0  0  0  0  0
   44.0651   30.0324   47.8529 C   0  0  2  0  0  0  0  0  0  0  0  0
   43.7214   29.8584   46.8113 H   0  0  0  0  0  0  0  0  0  0  0  0
   45.3022   30.9273   47.7027 C   0  0  2  0  0  0  0  0  0  0  0  0
   45.6014   31.3647   48.6834 H   0  0  0  0  0  0  0  0  0  0  0  0
   44.4104   31.6303   45.9250 H   0  0  0  0  0  0  0  0  0  0  0  0
   43.2060   33.4491   46.7413 H   0  0  0  0  0  0  0  0  0  0  0  0
   41.9363   31.5687   47.1769 H   0  0  0  0  0  0  0  0  0  0  0  0
   44.3343   29.0904   48.3288 H   0  0  0  0  0  0  0  0  0  0  0  0
   46.1099   30.3857   47.2043 H   0  0  0  0  0  0  0  0  0  0  0  0
  1  6  2  0
  2  1  1  0
  3  2  2  0
  3  4  1  0
  4  5  2  0
  5  6  1  0
  5  8  1  0
  7  2  1  0
  1  9  1  0
  3 10  1  0
  7 11  1  0
  7 12  1  0
  8 13  1  0
  8 14  1  0
 15 16  1  0
 16 17  1  1
 16 18  1  0
 18 19  1  1
 18 20  1  0
 20 21  1  0
 21 22  1  6
 21 23  1  0
 23 24  1  1
 23 15  1  0
 15 25  1  6
 16 26  1  0
 18 27  1  0
 21 28  1  0
 23 29  1  0
  8 15  1  0
M  ISO  8   9  14  10  14  13   8  14   8  17  15  19  15  22  15  24  15
M  END
>  <DihAtoms>  (1) 
4,7,14,15

>  <DihDeg>  (1) 
-179.99908784815403

$$$$
