
 OpenBabel03252500583D

 39 41  0  0  0  0  0  0  0  0999 V2000
   43.7180   34.8770   40.1500 O   0  0  0  0  0  0  0  0  0  0  0  0
   43.2770   34.7260   41.6010 P   0  0  1  0  0  0  0  0  0  0  0  0
   43.1850   33.0590   41.9600 O   0  0  0  0  0  0  0  0  0  0  0  0
   43.9910   32.5880   41.5970 H   0  0  0  0  0  0  0  0  0  0  0  0
   44.4410   35.4080   42.6170 O   0  0  0  0  0  0  0  0  0  0  0  0
   46.5050   34.3660   43.0280 C   0  0  0  0  0  0  0  0  0  0  0  0
   45.2690   34.7350   43.5000 C   0  0  0  0  0  0  0  0  0  0  0  0
   44.9420   34.4040   44.8390 C   0  0  0  0  0  0  0  0  0  0  0  0
   45.8740   33.7450   45.5550 N   0  0  0  0  0  0  0  0  0  0  0  0
   47.0690   33.3990   45.0670 C   0  0  0  0  0  0  0  0  0  0  0  0
   47.3850   33.7110   43.7960 N   0  0  0  0  0  0  0  0  0  0  0  0
   43.9730   34.7170   45.1450 H   0  0  0  0  0  0  0  0  0  0  0  0
   47.7430   32.8780   45.7100 H   0  0  0  0  0  0  0  0  0  0  0  0
   46.9070   34.6770   41.6540 C   0  0  0  0  0  0  0  0  0  0  0  0
   46.8540   33.8060   40.9730 H   0  0  0  0  0  0  0  0  0  0  0  0
   46.2020   35.4470   41.2340 H   0  0  0  0  0  0  0  0  0  0  0  0
   48.2620   35.3260   41.6650 C   0  0  0  0  0  0  0  0  0  0  0  0
   48.2920   36.0860   42.4480 H   0  0  0  0  0  0  0  0  0  0  0  0
   48.4360   35.8500   40.6920 H   0  0  0  0  0  0  0  0  0  0  0  0
   49.0870   34.5810   41.7590 H   0  0  0  0  0  0  0  0  0  0  0  0
   41.7240   35.3620   41.8280 O   0  0  0  0  0  0  0  0  0  0  0  0
   40.6430   34.6940   41.2890 C   0  0  0  0  0  0  0  0  0  0  0  0
   39.9130   35.3330   40.2830 C   0  0  0  0  0  0  0  0  0  0  0  0
   38.8140   34.7340   39.6850 C   0  0  0  0  0  0  0  0  0  0  0  0
   38.4570   33.4830   40.1140 N   0  0  0  0  0  0  0  0  0  0  0  0
   39.1580   32.8790   41.0740 C   0  0  0  0  0  0  0  0  0  0  0  0
   40.2040   33.4770   41.6250 N   0  0  0  0  0  0  0  0  0  0  0  0
   40.1940   36.3110   39.9500 H   0  0  0  0  0  0  0  0  0  0  0  0
   38.2660   35.2550   38.9070 H   0  0  0  0  0  0  0  0  0  0  0  0
   38.6990   31.5230   41.4750 C   0  0  0  0  0  3  0  0  0  0  0  0
   37.8780   30.8410   40.3920 C   0  0  0  0  0  3  0  0  0  0  0  0
   37.1770   30.1540   40.9170 H   0  0  0  0  0  0  0  0  0  0  0  0
   38.7620   29.9620   39.5140 C   0  0  0  0  0  3  0  0  0  0  0  0
   38.3130   29.9840   38.5000 H   0  0  0  0  0  0  0  0  0  0  0  0
   40.0440   30.4940   39.4040 O   0  0  0  0  0  0  0  0  0  0  0  0
   40.7320   30.4970   40.5920 C   0  0  0  0  0  3  0  0  0  0  0  0
   41.4330   31.3760   40.5860 H   0  0  0  0  0  0  0  0  0  0  0  0
   39.8450   30.5930   41.8130 C   0  0  0  0  0  3  0  0  0  0  0  0
   40.4890   31.0210   42.6190 H   0  0  0  0  0  0  0  0  0  0  0  0
  2  1  2  6  0  0  0
  2 21  1  0  0  0  0
  2  3  1  0  0  0  0
  2  5  1  0  0  0  0
  4  3  1  0  0  0  0
  5  7  1  0  0  0  0
  6  7  2  0  0  0  0
  6 11  1  0  0  0  0
  7  8  1  0  0  0  0
  8 12  1  0  0  0  0
  8  9  2  0  0  0  0
 10  9  1  0  0  0  0
 10 13  1  0  0  0  0
 11 10  2  0  0  0  0
 14 17  1  0  0  0  0
 14  6  1  0  0  0  0
 15 14  1  0  0  0  0
 16 14  1  0  0  0  0
 17 20  1  0  0  0  0
 17 18  1  0  0  0  0
 19 17  1  0  0  0  0
 22 27  1  0  0  0  0
 22 21  1  0  0  0  0
 23 22  2  0  0  0  0
 24 25  2  0  0  0  0
 24 23  1  0  0  0  0
 25 26  1  0  0  0  0
 26 30  1  0  0  0  0
 26 27  2  0  0  0  0
 28 23  1  0  0  0  0
 29 24  1  0  0  0  0
 30 38  1  0  0  0  0
 31 32  1  0  0  0  0
 31 30  1  0  0  0  0
 33 31  1  0  0  0  0
 34 33  1  0  0  0  0
 35 33  1  0  0  0  0
 35 36  1  0  0  0  0
 36 38  1  0  0  0  0
 37 36  1  0  0  0  0
 38 39  1  0  0  0  0
M  END
>  <minimizedAffinity>
-5.63238668

>  <minimizedRMSD>
0.295313239

$$$$
