REMARK  Name = 
REMARK  3 active torsions:
REMARK  status: ('A' for Active; 'I' for Inactive)
REMARK    1  A    between atoms: C_2  and  C_14
REMARK    2  A    between atoms: C_9  and  C_16
REMARK    3  A    between atoms: C_19  and  C_30
REMARK                            x       y       z     vdW  Elec       q    Type
REMARK                         _______ _______ _______ _____ _____    ______ ____
ROOT
ATOM      1  C   UNL     1      47.261  31.387  45.139  0.00  0.00    +0.000 A 
ATOM      2  C   UNL     1      46.871  32.713  45.129  0.00  0.00    +0.000 A 
ATOM      3  C   UNL     1      46.236  33.325  46.204  0.00  0.00    +0.000 A 
ATOM      4  C   UNL     1      45.968  32.600  47.355  0.00  0.00    +0.000 A 
ATOM      5  N   UNL     1      45.389  32.850  48.555  0.00  0.00    +0.000 N 
ATOM      6  C   UNL     1      45.418  31.710  49.293  0.00  0.00    +0.000 A 
ATOM      7  N   UNL     1      46.019  30.759  48.538  0.00  0.00    +0.000 NA
ATOM      8  C   UNL     1      46.368  31.274  47.342  0.00  0.00    +0.000 A 
ATOM      9  C   UNL     1      46.996  30.645  46.294  0.00  0.00    +0.000 A 
ATOM     10  H   UNL     1      47.753  30.926  44.295  0.00  0.00    +0.000 HD
ATOM     11  H   UNL     1      45.929  34.361  46.200  0.00  0.00    +0.000 HD
ATOM     12  H   UNL     1      44.993  33.787  48.833  0.00  0.00    +0.000 HD
ATOM     13  H   UNL     1      45.033  31.579  50.300  0.00  0.00    +0.000 HD
ENDROOT
BRANCH   2  18
ATOM     14  C   UNL     1      46.483  35.194  42.435  0.00  0.00    +0.000 A 
ATOM     15  C   UNL     1      47.654  35.031  41.703  0.00  0.00    +0.000 A 
ATOM     16  C   UNL     1      48.581  34.064  42.136  0.00  0.00    +0.000 A 
ATOM     17  N   UNL     1      48.286  33.335  43.253  0.00  0.00    +0.000 NA
ATOM     18  C   UNL     1      47.128  33.525  43.942  0.00  0.00    +0.000 A 
ATOM     19  N   UNL     1      46.239  34.442  43.540  0.00  0.00    +0.000 NA
ATOM     20  H   UNL     1      45.789  35.941  42.084  0.00  0.00    +0.000 HD
ATOM     21  H   UNL     1      47.822  35.644  40.828  0.00  0.00    +0.000 HD
ATOM     22  H   UNL     1      49.491  33.917  41.592  0.00  0.00    +0.000 HD
ENDBRANCH   2  18
BRANCH   9  23
ATOM     23  C   UNL     1      47.375  29.231  46.394  0.00  0.00    +0.000 A 
ATOM     24  C   UNL     1      48.681  28.798  46.623  0.00  0.00    +0.000 A 
ATOM     25  C   UNL     1      48.550  27.402  46.637  0.00  0.00    +0.000 A 
ATOM     26  C   UNL     1      47.211  27.083  46.422  0.00  0.00    +0.000 A 
ATOM     27  O   UNL     1      46.557  28.229  46.283  0.00  0.00    +0.000 OA
ATOM     28  H   UNL     1      49.598  29.340  46.762  0.00  0.00    +0.000 HD
ATOM     29  H   UNL     1      49.326  26.651  46.786  0.00  0.00    +0.000 HD
BRANCH  26  30
ATOM     30  C   UNL     1      46.558  25.766  46.347  0.00  0.00    +0.000 C 
ATOM     31  C   UNL     1      47.403  24.676  46.923  0.00  0.00    +0.000 C 
ATOM     32  H   UNL     1      48.048  25.015  47.758  0.00  0.00    +0.000 HD
ATOM     33  C   UNL     1      46.442  23.579  47.392  0.00  0.00    +0.000 C 
ATOM     34  H   UNL     1      45.907  23.885  48.318  0.00  0.00    +0.000 HD
ATOM     35  O   UNL     1      45.469  23.491  46.394  0.00  0.00    +0.000 OA
ATOM     36  C   UNL     1      44.510  24.504  46.606  0.00  0.00    +0.000 C 
ATOM     37  H   UNL     1      43.955  24.685  45.659  0.00  0.00    +0.000 HD
ATOM     38  C   UNL     1      45.226  25.749  47.084  0.00  0.00    +0.000 C 
ATOM     39  H   UNL     1      44.642  26.621  46.681  0.00  0.00    +0.000 HD
ENDBRANCH  26  30
ENDBRANCH   9  23
TORSDOF 3
