
 OpenBabel03252509043D

 49 51  0  0  1  0  0  0  0  0999 V2000
   46.8050   34.3130   43.5640 N   0  0  0  0  0  0  0  0  0  0  0  0
   46.4710   34.9150   42.3330 C   0  0  0  0  0  0  0  0  0  0  0  0
   44.9890   34.9420   42.0130 C   0  0  0  0  0  0  0  0  0  0  0  0
   44.1040   35.0840   43.2190 C   0  0  0  0  0  0  0  0  0  0  0  0
   44.9060   35.2690   44.4870 C   0  0  0  0  0  0  0  0  0  0  0  0
   45.8490   34.0040   44.5100 C   0  0  2  0  0  0  0  0  0  0  0  0
   46.9630   34.5210   41.4360 H   0  0  0  0  0  0  0  0  0  0  0  0
   46.7890   35.9920   42.3910 H   0  0  0  0  0  0  0  0  0  0  0  0
   44.7510   34.0410   41.4140 H   0  0  0  0  0  0  0  0  0  0  0  0
   44.7890   35.8200   41.3570 H   0  0  0  0  0  0  0  0  0  0  0  0
   43.3960   35.9420   43.1290 H   0  0  0  0  0  0  0  0  0  0  0  0
   43.4820   34.1900   43.3570 H   0  0  0  0  0  0  0  0  0  0  0  0
   44.2380   35.1670   45.3470 H   0  0  0  0  0  0  0  0  0  0  0  0
   45.5310   36.1840   44.4870 H   0  0  0  0  0  0  0  0  0  0  0  0
   45.1520   33.1670   44.3020 H   0  0  0  0  0  0  0  0  0  0  0  0
   48.0000   33.5140   43.5180 C   0  0  0  0  0  0  0  0  0  0  0  0
   48.2500   33.2040   44.5560 H   0  0  0  0  0  0  0  0  0  0  0  0
   48.7990   34.1460   43.0900 H   0  0  0  0  0  0  0  0  0  0  0  0
   47.7520   32.3020   42.7040 C   0  0  0  0  0  0  0  0  0  0  0  0
   47.5360   31.3880   43.2860 H   0  0  0  0  0  0  0  0  0  0  0  0
   46.8550   32.4340   42.0400 H   0  0  0  0  0  0  0  0  0  0  0  0
   51.2460   32.1120   41.3400 C   0  0  0  0  0  0  0  0  0  0  0  0
   50.1550   32.3230   42.2030 C   0  0  0  0  0  0  0  0  0  0  0  0
   48.8840   32.0710   41.7740 C   0  0  0  0  0  0  0  0  0  0  0  0
   48.7330   31.6250   40.5230 N   0  0  0  0  0  0  0  0  0  0  0  0
   49.7550   31.4170   39.6880 C   0  0  0  0  0  0  0  0  0  0  0  0
   51.0210   31.6540   40.0760 N   0  0  0  0  0  0  0  0  0  0  0  0
   52.2680   32.3110   41.6730 H   0  0  0  0  0  0  0  0  0  0  0  0
   50.3790   32.6890   43.2030 H   0  0  0  0  0  0  0  0  0  0  0  0
   49.4560   31.0500   38.7020 H   0  0  0  0  0  0  0  0  0  0  0  0
   46.3460   34.0390   45.7940 O   0  0  0  0  0  0  0  0  0  0  0  0
   45.7580   31.4580   45.6640 O   0  0  0  0  0  0  0  0  0  0  0  0
   46.1200   32.5870   46.6260 P   0  0  2  0  0  0  0  0  0  0  0  0
   44.7540   32.8230   47.6110 O   0  0  0  0  0  0  0  0  0  0  0  0
   44.9060   32.5520   48.5470 H   0  0  0  0  0  0  0  0  0  0  0  0
   47.4220   32.2100   47.6050 O   0  0  0  0  0  0  0  0  0  0  0  0
   47.2770   30.8820   48.0110 C   0  0  0  0  0  0  0  0  0  0  0  0
   46.2860   30.8020   48.5290 H   0  0  0  0  0  0  0  0  0  0  0  0
   47.3410   30.1830   47.1750 H   0  0  0  0  0  0  0  0  0  0  0  0
   48.3530   30.6400   49.0490 C   0  0  0  0  0  3  0  0  0  0  0  0
   49.2650   31.8300   49.2370 C   0  0  0  0  0  3  0  0  0  0  0  0
   49.8940   31.9570   48.3320 H   0  0  0  0  0  0  0  0  0  0  0  0
   50.2150   31.4320   50.3690 C   0  0  0  0  0  3  0  0  0  0  0  0
   50.9640   32.2230   50.5750 H   0  0  0  0  0  0  0  0  0  0  0  0
   50.9150   30.3010   50.0120 O   0  0  0  0  0  0  0  0  0  0  0  0
   50.1450   29.1810   49.7950 C   0  0  0  0  0  3  0  0  0  0  0  0
   50.8370   28.3650   49.5140 H   0  0  0  0  0  0  0  0  0  0  0  0
   49.1640   29.4300   48.6570 C   0  0  0  0  0  3  0  0  0  0  0  0
   49.7340   29.6860   47.7470 H   0  0  0  0  0  0  0  0  0  0  0  0
  1  6  1  0  0  0  0
  2  8  1  0  0  0  0
  2  1  1  0  0  0  0
  3  2  1  0  0  0  0
  3  4  1  0  0  0  0
  4 12  1  0  0  0  0
  4  5  1  0  0  0  0
  5  6  1  0  0  0  0
  5 13  1  0  0  0  0
  6 15  1  6  0  0  0
  6 31  1  0  0  0  0
  7  2  1  0  0  0  0
  9  3  1  0  0  0  0
 10  3  1  0  0  0  0
 11  4  1  0  0  0  0
 14  5  1  0  0  0  0
 16  1  1  0  0  0  0
 16 17  1  0  0  0  0
 18 16  1  0  0  0  0
 19 20  1  0  0  0  0
 19 16  1  0  0  0  0
 21 19  1  0  0  0  0
 22 28  1  0  0  0  0
 22 23  1  0  0  0  0
 23 29  1  0  0  0  0
 24 23  2  0  0  0  0
 24 19  1  0  0  0  0
 25 24  1  0  0  0  0
 26 27  1  0  0  0  0
 26 25  2  0  0  0  0
 27 22  2  0  0  0  0
 30 26  1  0  0  0  0
 31 33  1  0  0  0  0
 33 32  2  6  0  0  0
 33 36  1  0  0  0  0
 33 34  1  0  0  0  0
 34 35  1  0  0  0  0
 36 37  1  0  0  0  0
 37 38  1  0  0  0  0
 37 40  1  0  0  0  0
 39 37  1  0  0  0  0
 40 41  1  0  0  0  0
 41 43  1  0  0  0  0
 42 41  1  0  0  0  0
 43 44  1  0  0  0  0
 45 43  1  0  0  0  0
 46 45  1  0  0  0  0
 47 46  1  0  0  0  0
 48 40  1  0  0  0  0
 48 46  1  0  0  0  0
 49 48  1  0  0  0  0
M  END
>  <minimizedAffinity>
-5.04729176

>  <minimizedRMSD>
3.05974793

$$$$
