
     RDKit          3D

 50 53  0  0  0  0  0  0  0  0999 V2000
   46.0113   35.7187   42.8326 C   0  0  0  0  0  0  0  0  0  0  0  0
   46.3828   34.4914   43.3879 C   0  0  0  0  0  0  0  0  0  0  0  0
   45.7778   34.0586   44.5448 C   0  0  0  0  0  0  0  0  0  0  0  0
   44.8401   34.8397   45.1081 N   0  0  0  0  0  0  0  0  0  0  0  0
   44.4715   36.0367   44.5756 C   0  0  0  0  0  0  0  0  0  0  0  0
   45.0632   36.4484   43.4533 N   0  0  0  0  0  0  0  0  0  0  0  0
   46.1717   32.7840   45.1076 C   0  0  0  0  0  0  0  0  0  0  0  0
   45.7928   31.6134   44.4997 C   0  0  0  0  0  0  0  0  0  0  0  0
   46.1824   30.4136   45.0537 C   0  0  0  0  0  0  0  0  0  0  0  0
   46.9439   30.3235   46.2034 C   0  0  0  0  0  0  0  0  0  0  0  0
   47.2930   31.5320   46.7676 C   0  0  0  0  0  0  0  0  0  0  0  0
   46.9088   32.6839   46.2204 N   0  0  0  0  0  0  0  0  0  0  0  0
   47.3980   33.7239   42.7254 C   0  0  0  0  0  0  0  0  0  0  0  0
   48.5111   33.5174   43.3281 O   0  0  0  0  0  0  0  0  0  0  0  0
   47.1423   33.2129   41.4182 N   0  0  0  0  0  0  0  0  0  0  0  0
   45.9452   32.5395   40.8949 C   0  0  0  0  0  0  0  0  0  0  0  0
   45.4830   33.2425   39.6217 C   0  0  0  0  0  0  0  0  0  0  0  0
   46.5462   33.0634   38.5523 C   0  0  0  0  0  0  0  0  0  0  0  0
   47.8099   32.5997   39.1746 C   0  0  0  0  0  0  0  0  0  0  0  0
   48.1728   33.3437   40.4352 C   0  0  1  0  0  0  0  0  0  0  0  0
   46.4233   36.1430   41.9296 H   0  0  0  0  0  0  0  0  0  0  0  0
   43.7011   36.6569   45.0570 H   0  0  0  0  0  0  0  0  0  0  0  0
   45.2102   31.5259   43.6213 H   0  0  0  0  0  0  0  0  0  0  0  0
   45.9051   29.4506   44.6055 H   0  0  0  0  0  0  0  0  0  0  0  0
   47.2628   29.3956   46.6585 H   0  0  0  0  0  0  0  0  0  0  0  0
   47.8973   31.5679   47.6832 H   0  0  0  0  0  0  0  0  0  0  0  0
   45.1414   32.8067   41.6407 H   0  0  0  0  0  0  0  0  0  0  0  0
   46.0627   31.4671   40.8011 H   0  0  0  0  0  0  0  0  0  0  0  0
   45.3748   34.3155   39.9023 H   0  0  0  0  0  0  0  0  0  0  0  0
   44.5096   32.7951   39.3578 H   0  0  0  0  0  0  0  0  0  0  0  0
   46.5975   33.8991   37.8618 H   0  0  0  0  0  0  0  0  0  0  0  0
   46.1537   32.2015   37.9351 H   0  0  0  0  0  0  0  0  0  0  0  0
   48.6693   32.5322   38.5117 H   0  0  0  0  0  0  0  0  0  0  0  0
   47.6277   31.5369   39.5183 H   0  0  0  0  0  0  0  0  0  0  0  0
   49.0437   32.7849   40.8443 H   0  0  0  0  0  0  0  0  0  0  0  0
   48.6584   34.7289   40.1485 C   0  0  1  0  0  0  0  0  0  0  0  0
   49.6677   35.3025   41.0982 C   0  0  2  0  0  0  0  0  0  0  0  0
   50.4544   34.5094   41.2188 H   0  0  0  0  0  0  0  0  0  0  0  0
   50.4441   36.4479   40.4303 C   0  0  2  0  0  0  0  0  0  0  0  0
   51.2383   36.0518   39.7996 H   0  0  0  0  0  0  0  0  0  0  0  0
   49.5430   37.1945   39.7040 O   0  0  0  0  0  0  0  0  0  0  0  0
   49.1093   36.5238   38.5638 C   0  0  1  0  0  0  0  0  0  0  0  0
   48.0233   36.7904   38.4462 H   0  0  0  0  0  0  0  0  0  0  0  0
   49.1232   34.9975   38.7605 C   0  0  1  0  0  0  0  0  0  0  0  0
   50.1698   34.7000   38.5593 H   0  0  0  0  0  0  0  0  0  0  0  0
   47.7418   35.3911   40.2840 H   0  0  0  0  0  0  0  0  0  0  0  0
   49.2972   35.6485   42.0540 H   0  0  0  0  0  0  0  0  0  0  0  0
   50.8531   37.0510   41.2556 H   0  0  0  0  0  0  0  0  0  0  0  0
   49.6741   36.8344   37.6847 H   0  0  0  0  0  0  0  0  0  0  0  0
   48.3882   34.6249   38.0370 H   0  0  0  0  0  0  0  0  0  0  0  0
  1  2  2  0
  1  6  1  0
  2  3  1  0
  3  7  1  0
  3  4  2  0
  5  4  1  0
  6  5  2  0
  7 12  2  0
  8  9  2  0
  8  7  1  0
  9 10  1  0
 10 11  2  0
 12 11  1  0
 13 14  2  0
 13  2  1  0
 15 13  1  0
 16 15  1  0
 17 16  1  0
 18 19  1  0
 18 17  1  0
 19 20  1  0
 20 15  1  0
  1 21  1  0
  5 22  1  0
  8 23  1  0
  9 24  1  0
 10 25  1  0
 11 26  1  0
 16 27  1  0
 16 28  1  0
 17 29  1  0
 17 30  1  0
 18 31  1  0
 18 32  1  0
 19 33  1  0
 19 34  1  0
 20 35  1  1
 36 37  1  0
 37 38  1  1
 37 39  1  0
 39 40  1  6
 39 41  1  0
 41 42  1  0
 42 43  1  6
 42 44  1  0
 44 45  1  6
 44 36  1  0
 36 46  1  1
 37 47  1  0
 39 48  1  0
 42 49  1  0
 44 50  1  0
 20 36  1  0
M  ISO  8  21  14  22  14  23  14  24  14  25  14  26  14  27  13  28  13
M  ISO  8  29  13  30  13  31  13  32  13  33  13  34  13  35  13  38  15
M  ISO  3  40  15  43  15  45  15
M  END
>  <DihAtoms>  (1) 
18,19,35,36

>  <DihDeg>  (1) 
-164.2122334187672

$$$$
