
 OpenBabel03252508393D

 42 45  0  0  0  0  0  0  0  0999 V2000
   45.1190   33.9480   40.7230 C   0  0  0  0  0  0  0  0  0  0  0  0
   44.0690   33.6320   39.9030 C   0  0  0  0  0  0  0  0  0  0  0  0
   44.3700   33.1320   38.6690 C   0  0  0  0  0  0  0  0  0  0  0  0
   45.6580   32.9300   38.2130 C   0  0  0  0  0  0  0  0  0  0  0  0
   46.6810   33.2600   39.0660 C   0  0  0  0  0  0  0  0  0  0  0  0
   46.4400   33.7660   40.3160 C   0  0  0  0  0  0  0  0  0  0  0  0
   43.5520   32.8780   38.0080 H   0  0  0  0  0  0  0  0  0  0  0  0
   45.8220   32.5270   37.2160 H   0  0  0  0  0  0  0  0  0  0  0  0
   47.6890   33.0940   38.6890 H   0  0  0  0  0  0  0  0  0  0  0  0
   40.7990   35.2920   40.7870 C   0  0  0  0  0  0  0  0  0  0  0  0
   42.0970   35.1050   40.2810 C   0  0  0  0  0  0  0  0  0  0  0  0
   42.7330   33.8570   40.4120 C   0  0  0  0  0  0  0  0  0  0  0  0
   42.0160   32.9030   41.0390 N   0  0  0  0  0  0  0  0  0  0  0  0
   40.7860   33.0920   41.5140 C   0  0  0  0  0  0  0  0  0  0  0  0
   40.1790   34.2840   41.3880 N   0  0  0  0  0  0  0  0  0  0  0  0
   40.2010   36.5500   40.6360 N   0  0  0  0  0  0  0  0  0  0  0  0
   42.6270   35.9220   39.7810 H   0  0  0  0  0  0  0  0  0  0  0  0
   40.2270   32.3060   42.0170 H   0  0  0  0  0  0  0  0  0  0  0  0
   39.3890   36.7350   39.9970 H   0  0  0  0  0  0  0  0  0  0  0  0
   40.7510   37.1610   41.2790 H   0  0  0  0  0  0  0  0  0  0  0  0
   47.5970   34.0830   41.1440 C   0  0  0  0  0  0  0  0  0  0  0  0
   48.1280   35.3470   40.9470 C   0  0  0  0  0  0  0  0  0  0  0  0
   49.2340   35.8310   41.6440 C   0  0  0  0  0  0  0  0  0  0  0  0
   49.8170   35.0020   42.5700 C   0  0  0  0  0  0  0  0  0  0  0  0
   49.2900   33.7340   42.7720 C   0  0  0  0  0  0  0  0  0  0  0  0
   48.1970   33.2650   42.0790 C   0  0  0  0  0  0  0  0  0  0  0  0
   47.7150   36.0560   40.2280 H   0  0  0  0  0  0  0  0  0  0  0  0
   49.6280   36.8220   41.4710 H   0  0  0  0  0  0  0  0  0  0  0  0
   50.6830   35.3610   43.1270 H   0  0  0  0  0  0  0  0  0  0  0  0
   49.7520   33.1060   43.4910 H   0  0  0  0  0  0  0  0  0  0  0  0
   47.6000   31.9290   42.2550 C   0  0  0  0  0  0  0  0  0  0  0  0
   48.6170   30.8030   42.2530 C   0  0  0  0  0  0  0  0  0  0  0  0
   49.4510   31.0030   42.9600 H   0  0  0  0  0  0  0  0  0  0  0  0
   47.8530   29.5980   42.8170 C   0  0  0  0  0  0  0  0  0  0  0  0
   46.7770   29.6350   42.5430 H   0  0  0  0  0  0  0  0  0  0  0  0
   47.8930   29.7440   44.2150 O   0  0  0  0  0  0  0  0  0  0  0  0
   47.6030   31.0270   44.6090 C   0  0  0  0  0  0  0  0  0  0  0  0
   48.4920   31.5210   45.0400 H   0  0  0  0  0  0  0  0  0  0  0  0
   46.8670   31.8360   43.5800 C   0  0  0  0  0  0  0  0  0  0  0  0
   46.7030   32.8480   44.0010 H   0  0  0  0  0  0  0  0  0  0  0  0
   44.7070   34.9230   43.1110 N   0  0  0  0  0  0  0  0  0  0  0  0
   44.8910   34.4800   42.0370 C   0  0  0  0  0  0  0  0  0  0  0  0
  1 42  1  0  0  0  0
  2 12  1  0  0  0  0
  2  1  2  0  0  0  0
  3  2  1  0  0  0  0
  4  3  2  0  0  0  0
  4  5  1  0  0  0  0
  5  6  2  0  0  0  0
  6  1  1  0  0  0  0
  6 21  1  0  0  0  0
  7  3  1  0  0  0  0
  8  4  1  0  0  0  0
  9  5  1  0  0  0  0
 10 15  1  0  0  0  0
 11 12  1  0  0  0  0
 11 10  2  0  0  0  0
 12 13  2  0  0  0  0
 13 14  1  0  0  0  0
 14 18  1  0  0  0  0
 15 14  2  0  0  0  0
 16 10  1  0  0  0  0
 16 20  1  0  0  0  0
 17 11  1  0  0  0  0
 19 16  1  0  0  0  0
 21 26  1  0  0  0  0
 22 21  2  0  0  0  0
 22 23  1  0  0  0  0
 23 24  2  0  0  0  0
 24 25  1  0  0  0  0
 24 29  1  0  0  0  0
 25 30  1  0  0  0  0
 26 31  1  0  0  0  0
 26 25  2  0  0  0  0
 27 22  1  0  0  0  0
 28 23  1  0  0  0  0
 31 39  1  0  0  0  0
 32 31  1  0  0  0  0
 32 34  1  0  0  0  0
 32 33  1  0  0  0  0
 34 36  1  0  0  0  0
 35 34  1  0  0  0  0
 36 37  1  0  0  0  0
 37 38  1  0  0  0  0
 39 40  1  0  0  0  0
 39 37  1  0  0  0  0
 42 41  3  0  0  0  0
M  END
>  <minimizedAffinity>
-6.14238214

>  <minimizedRMSD>
0.743315101

$$$$
