
     RDKit          3D

 48 51  0  0  0  0  0  0  0  0999 V2000
   49.3210   33.2111   41.4846 N   0  0  0  0  0  0  0  0  0  0  0  0
   50.6659   33.1193   42.0350 C   0  0  0  0  0  0  0  0  0  0  0  0
   51.3312   31.8046   41.7515 C   0  0  0  0  0  0  0  0  0  0  0  0
   50.6027   30.7264   42.5392 C   0  0  0  0  0  0  0  0  0  0  0  0
   49.1182   30.9974   42.5497 C   0  0  0  0  0  0  0  0  0  0  0  0
   48.7643   31.9026   41.3956 C   0  0  2  0  0  0  0  0  0  0  0  0
   47.2014   34.5629   42.0259 C   0  0  1  0  0  0  0  0  0  0  0  0
   48.3039   35.4594   41.6993 C   0  0  0  0  0  0  0  0  0  0  0  0
   48.6216   34.1388   42.3162 C   0  0  2  0  0  0  0  0  0  0  0  0
   45.5206   36.0302   43.1702 C   0  0  0  0  0  0  0  0  0  0  0  0
   46.2940   34.8437   43.1460 C   0  0  0  0  0  0  0  0  0  0  0  0
   46.1527   33.9684   44.2206 C   0  0  0  0  0  0  0  0  0  0  0  0
   45.2934   34.3003   45.2133 N   0  0  0  0  0  0  0  0  0  0  0  0
   44.5714   35.4272   45.2163 C   0  0  0  0  0  0  0  0  0  0  0  0
   44.6763   36.3099   44.1909 N   0  0  0  0  0  0  0  0  0  0  0  0
   49.0414   31.2546   40.1488 N   0  0  0  0  0  0  0  0  0  0  0  0
   50.6872   33.2666   43.1302 H   0  0  0  0  0  0  0  0  0  0  0  0
   51.2688   33.9372   41.5821 H   0  0  0  0  0  0  0  0  0  0  0  0
   52.3659   31.8903   42.1315 H   0  0  0  0  0  0  0  0  0  0  0  0
   51.3660   31.5643   40.6638 H   0  0  0  0  0  0  0  0  0  0  0  0
   51.0280   30.5909   43.5458 H   0  0  0  0  0  0  0  0  0  0  0  0
   50.7878   29.7808   41.9872 H   0  0  0  0  0  0  0  0  0  0  0  0
   48.5152   30.0979   42.5351 H   0  0  0  0  0  0  0  0  0  0  0  0
   48.9078   31.5660   43.4916 H   0  0  0  0  0  0  0  0  0  0  0  0
   47.6507   32.0340   41.4405 H   0  0  0  0  0  0  0  0  0  0  0  0
   46.7373   33.9134   41.2369 H   0  0  0  0  0  0  0  0  0  0  0  0
   48.5596   35.6211   40.6275 H   0  0  0  0  0  0  0  0  0  0  0  0
   48.4431   36.3802   42.3145 H   0  0  0  0  0  0  0  0  0  0  0  0
   48.9047   34.1507   43.3879 H   0  0  0  0  0  0  0  0  0  0  0  0
   45.6080   36.7420   42.3394 H   0  0  0  0  0  0  0  0  0  0  0  0
   46.7291   33.0421   44.2441 H   0  0  0  0  0  0  0  0  0  0  0  0
   43.8830   35.6979   46.0062 H   0  0  0  0  0  0  0  0  0  0  0  0
   49.0514   31.9652   39.3894 H   0  0  0  0  0  0  0  0  0  0  0  0
   48.3693   30.0601   39.8850 C   0  0  2  0  0  0  0  0  0  0  0  0
   48.5190   29.7564   38.3928 C   0  0  2  0  0  0  0  0  0  0  0  0
   48.3512   28.6923   38.1940 H   0  0  0  0  0  0  0  0  0  0  0  0
   47.4738   30.5317   37.5948 C   0  0  2  0  0  0  0  0  0  0  0  0
   47.5717   30.2082   36.5451 H   0  0  0  0  0  0  0  0  0  0  0  0
   46.1755   30.2556   38.0188 O   0  0  0  0  0  0  0  0  0  0  0  0
   46.0447   30.8148   39.2992 C   0  0  1  0  0  0  0  0  0  0  0  0
   46.3155   31.8857   39.3299 H   0  0  0  0  0  0  0  0  0  0  0  0
   46.9232   29.9698   40.2125 C   0  0  1  0  0  0  0  0  0  0  0  0
   46.6259   28.9105   39.9837 H   0  0  0  0  0  0  0  0  0  0  0  0
   48.8785   29.2176   40.4016 H   0  0  0  0  0  0  0  0  0  0  0  0
   49.4946   30.1504   38.0566 H   0  0  0  0  0  0  0  0  0  0  0  0
   47.6121   31.6344   37.7304 H   0  0  0  0  0  0  0  0  0  0  0  0
   44.9972   30.6339   39.6197 H   0  0  0  0  0  0  0  0  0  0  0  0
   46.6436   30.1454   41.2485 H   0  0  0  0  0  0  0  0  0  0  0  0
  1  2  1  0
  1  9  1  0
  3  2  1  0
  3  4  1  0
  5  4  1  0
  6  1  1  0
  6  5  1  0
  7  9  1  0
  7 11  1  0
  8  7  1  0
  8  9  1  0
 10 15  2  0
 11 10  1  0
 11 12  2  0
 12 13  1  0
 14 13  2  0
 15 14  1  0
 16  6  1  0
  2 17  1  0
  2 18  1  0
  3 19  1  0
  3 20  1  0
  4 21  1  0
  4 22  1  0
  5 23  1  0
  5 24  1  0
  6 25  1  6
  7 26  1  6
  8 27  1  0
  8 28  1  0
  9 29  1  1
 10 30  1  0
 12 31  1  0
 14 32  1  0
 16 33  1  0
 34 35  1  0
 35 36  1  1
 35 37  1  0
 37 38  1  6
 37 39  1  0
 39 40  1  0
 40 41  1  6
 40 42  1  0
 42 43  1  6
 42 34  1  0
 34 44  1  1
 35 45  1  0
 37 46  1  0
 40 47  1  0
 42 48  1  0
 16 34  1  0
M  ISO  8  17  13  18  13  19  13  20  13  21  13  22  13  23  13  24  13
M  ISO  8  25  13  26  13  27  13  28  13  29  13  30  14  31  14  32  14
M  ISO  5  33   5  36  15  38  15  41  15  43  15
M  END
>  <DihAtoms>  (1) 
5,15,33,34

>  <DihDeg>  (1) 
179.99775906066054

$$$$
