
 OpenBabel03252506473D

 43 46  0  0  1  0  0  0  0  0999 V2000
   49.3760   33.3890   41.3710 N   0  0  1  0  0  0  0  0  0  0  0  0
   50.6490   33.0920   42.0120 C   0  0  0  0  0  0  0  0  0  0  0  0
   51.2270   31.7720   41.5930 C   0  0  0  0  0  0  0  0  0  0  0  0
   50.3390   30.6690   42.1480 C   0  0  0  0  0  0  0  0  0  0  0  0
   48.8880   31.0770   42.0750 C   0  0  0  0  0  0  0  0  0  0  0  0
   48.7230   32.1660   41.0430 C   0  0  2  0  0  0  0  0  0  0  0  0
   50.5770   33.0820   43.1140 H   0  0  0  0  0  0  0  0  0  0  0  0
   51.3590   33.9030   41.7370 H   0  0  0  0  0  0  0  0  0  0  0  0
   52.2240   31.7030   42.0660 H   0  0  0  0  0  0  0  0  0  0  0  0
   51.3460   31.6840   40.4880 H   0  0  0  0  0  0  0  0  0  0  0  0
   50.6530   30.3540   43.1560 H   0  0  0  0  0  0  0  0  0  0  0  0
   50.4970   29.7970   41.4790 H   0  0  0  0  0  0  0  0  0  0  0  0
   48.2160   30.2510   41.8770 H   0  0  0  0  0  0  0  0  0  0  0  0
   48.6360   31.5260   43.0710 H   0  0  0  0  0  0  0  0  0  0  0  0
   47.6260   32.3960   41.0140 H   0  0  0  0  0  0  0  0  0  0  0  0
   47.2770   34.7410   41.9890 C   0  0  1  0  0  0  0  0  0  0  0  0
   48.4090   35.6330   41.7720 C   0  0  0  0  0  0  0  0  0  0  0  0
   48.6790   34.2540   42.2700 C   0  0  2  0  0  0  0  0  0  0  0  0
   46.8160   34.1790   41.1330 H   0  0  0  0  0  0  0  0  0  0  0  0
   48.6950   35.8870   40.7260 H   0  0  0  0  0  0  0  0  0  0  0  0
   48.5550   36.4890   42.4740 H   0  0  0  0  0  0  0  0  0  0  0  0
   48.9360   34.1580   43.3440 H   0  0  0  0  0  0  0  0  0  0  0  0
   45.5280   36.0920   43.1720 C   0  0  0  0  0  0  0  0  0  0  0  0
   46.3490   34.9400   43.1100 C   0  0  0  0  0  0  0  0  0  0  0  0
   46.2350   34.0180   44.1490 C   0  0  0  0  0  0  0  0  0  0  0  0
   45.3540   34.2760   45.1440 N   0  0  0  0  0  0  0  0  0  0  0  0
   44.5870   35.3710   45.1840 C   0  0  0  0  0  0  0  0  0  0  0  0
   44.6640   36.2970   44.1950 N   0  0  0  0  0  0  0  0  0  0  0  0
   45.5930   36.8390   42.3710 H   0  0  0  0  0  0  0  0  0  0  0  0
   46.8490   33.1160   44.1420 H   0  0  0  0  0  0  0  0  0  0  0  0
   43.8810   35.5830   45.9770 H   0  0  0  0  0  0  0  0  0  0  0  0
   49.0640   31.6760   39.7410 N   0  0  0  0  0  0  0  0  0  0  0  0
   50.0080   32.0250   39.4800 H   0  0  0  0  0  0  0  0  0  0  0  0
   48.0770   31.7340   38.7560 C   0  0  0  0  0  3  0  0  0  0  0  0
   48.7210   31.3490   37.4230 C   0  0  0  0  0  3  0  0  0  0  0  0
   47.9620   31.0180   36.7050 H   0  0  0  0  0  0  0  0  0  0  0  0
   49.4180   32.5620   36.8100 C   0  0  0  0  0  3  0  0  0  0  0  0
   49.7850   32.2490   35.8180 H   0  0  0  0  0  0  0  0  0  0  0  0
   48.5490   33.6380   36.6370 O   0  0  0  0  0  0  0  0  0  0  0  0
   48.2250   34.1000   37.9220 C   0  0  0  0  0  3  0  0  0  0  0  0
   49.1160   34.3290   38.5340 H   0  0  0  0  0  0  0  0  0  0  0  0
   47.3560   33.0160   38.5470 C   0  0  0  0  0  3  0  0  0  0  0  0
   46.5750   32.8010   37.7670 H   0  0  0  0  0  0  0  0  0  0  0  0
  1  2  1  1  0  0  0
  1 18  1  0  0  0  0
  2  7  1  0  0  0  0
  3  2  1  0  0  0  0
  3  9  1  0  0  0  0
  3  4  1  0  0  0  0
  4 11  1  0  0  0  0
  5  4  1  0  0  0  0
  5 14  1  0  0  0  0
  6 15  1  6  0  0  0
  6  1  1  0  0  0  0
  6  5  1  0  0  0  0
  8  2  1  0  0  0  0
 10  3  1  0  0  0  0
 12  4  1  0  0  0  0
 13  5  1  0  0  0  0
 16 19  1  6  0  0  0
 16 18  1  0  0  0  0
 16 24  1  0  0  0  0
 17 16  1  0  0  0  0
 17 18  1  0  0  0  0
 17 21  1  0  0  0  0
 18 22  1  1  0  0  0
 20 17  1  0  0  0  0
 23 28  1  0  0  0  0
 24 23  2  0  0  0  0
 24 25  1  0  0  0  0
 25 26  2  0  0  0  0
 26 27  1  0  0  0  0
 27 31  1  0  0  0  0
 28 27  2  0  0  0  0
 29 23  1  0  0  0  0
 30 25  1  0  0  0  0
 32  6  1  0  0  0  0
 33 32  1  0  0  0  0
 34 32  1  0  0  0  0
 35 34  1  0  0  0  0
 36 35  1  0  0  0  0
 37 35  1  0  0  0  0
 38 37  1  0  0  0  0
 39 37  1  0  0  0  0
 39 40  1  0  0  0  0
 40 41  1  0  0  0  0
 40 42  1  0  0  0  0
 42 34  1  0  0  0  0
 43 42  1  0  0  0  0
M  END
>  <minimizedAffinity>
-5.15820456

>  <minimizedRMSD>
2.18221807

$$$$
