
 OpenBabel03242523433D

 25 26  0  0  1  0  0  0  0  0999 V2000
   47.0870   35.0520   41.8650 C   0  0  1  0  0  0  0  0  0  0  0  0
   46.9270   36.0800   41.4070 H   0  0  0  0  0  0  0  0  0  0  0  0
   46.8110   34.0510   40.8130 C   0  0  0  0  0  3  0  0  0  0  0  0
   47.7130   34.1230   39.5940 C   0  0  0  0  0  3  0  0  0  0  0  0
   47.3850   34.8910   38.8980 H   0  0  0  0  0  0  0  0  0  0  0  0
   47.4930   32.7740   38.9040 C   0  0  0  0  0  3  0  0  0  0  0  0
   47.7310   32.0020   39.6570 H   0  0  0  0  0  0  0  0  0  0  0  0
   46.2260   32.7390   38.4230 O   0  0  0  0  0  0  0  0  0  0  0  0
   45.1940   32.8690   39.3170 C   0  0  0  0  0  3  0  0  0  0  0  0
   44.2770   33.1090   38.7380 H   0  0  0  0  0  0  0  0  0  0  0  0
   45.3940   33.9220   40.3620 C   0  0  0  0  0  3  0  0  0  0  0  0
   45.0460   34.8840   39.9650 H   0  0  0  0  0  0  0  0  0  0  0  0
   45.3690   36.0110   43.3320 C   0  0  0  0  0  0  0  0  0  0  0  0
   46.2940   34.9940   43.0890 C   0  0  0  0  0  0  0  0  0  0  0  0
   46.4300   33.9780   44.0380 C   0  0  0  0  0  0  0  0  0  0  0  0
   45.6520   34.0350   45.1480 N   0  0  0  0  0  0  0  0  0  0  0  0
   44.7610   35.0360   45.3570 C   0  0  0  0  0  0  0  0  0  0  0  0
   44.6100   36.0370   44.4490 N   0  0  0  0  0  0  0  0  0  0  0  0
   45.2340   36.8170   42.6210 H   0  0  0  0  0  0  0  0  0  0  0  0
   47.1250   33.1800   43.9070 H   0  0  0  0  0  0  0  0  0  0  0  0
   44.1660   35.0140   46.2800 H   0  0  0  0  0  0  0  0  0  0  0  0
   48.5500   35.0160   42.2560 C   0  0  0  0  0  0  0  0  0  0  0  0
   48.8010   34.0360   42.6920 H   0  0  0  0  0  0  0  0  0  0  0  0
   49.1440   35.2500   41.3460 H   0  0  0  0  0  0  0  0  0  0  0  0
   48.7160   35.7960   43.0340 H   0  0  0  0  0  0  0  0  0  0  0  0
  1  2  1  6  0  0  0
  1 22  1  0  0  0  0
  1 14  1  0  0  0  0
  3  1  1  0  0  0  0
  4  3  1  0  0  0  0
  5  4  1  0  0  0  0
  6  4  1  0  0  0  0
  6  7  1  0  0  0  0
  8  6  1  0  0  0  0
  8  9  1  0  0  0  0
  9 11  1  0  0  0  0
 10  9  1  0  0  0  0
 11  3  1  0  0  0  0
 12 11  1  0  0  0  0
 13 18  1  0  0  0  0
 14 13  2  0  0  0  0
 14 15  1  0  0  0  0
 15 16  2  0  0  0  0
 16 17  1  0  0  0  0
 17 21  1  0  0  0  0
 18 17  2  0  0  0  0
 19 13  1  0  0  0  0
 20 15  1  0  0  0  0
 22 23  1  0  0  0  0
 22 25  1  0  0  0  0
 24 22  1  0  0  0  0
M  END
>  <minimizedAffinity>
-4.32922983

>  <minimizedRMSD>
1.15957689

$$$$
