
     RDKit          3D

 32 34  0  0  0  0  0  0  0  0999 V2000
   44.5116   35.8165   44.7032 C   0  0  0  0  0  0  0  0  0  0  0  0
   45.1861   35.7388   43.4592 C   0  0  0  0  0  0  0  0  0  0  0  0
   46.1248   34.7333   43.2816 C   0  0  0  0  0  0  0  0  0  0  0  0
   46.3410   33.8769   44.3224 N   0  0  0  0  0  0  0  0  0  0  0  0
   45.6887   33.9761   45.4836 C   0  0  0  0  0  0  0  0  0  0  0  0
   44.7762   34.9279   45.7007 N   0  0  0  0  0  0  0  0  0  0  0  0
   45.9654   33.0275   46.5603 C   0  0  0  0  0  0  0  0  0  0  0  0
   47.0330   32.1751   46.5154 C   0  0  0  0  0  0  0  0  0  0  0  0
   47.3340   31.2651   47.5045 C   0  0  0  0  0  0  0  0  0  0  0  0
   46.4944   31.2464   48.5705 N   0  0  0  0  0  0  0  0  0  0  0  0
   45.4357   32.0862   48.6231 C   0  0  0  0  0  0  0  0  0  0  0  0
   45.1252   32.9950   47.6476 N   0  0  0  0  0  0  0  0  0  0  0  0
   43.7616   36.5585   44.9512 H   0  0  0  0  0  0  0  0  0  0  0  0
   46.6191   34.6897   42.3467 H   0  0  0  0  0  0  0  0  0  0  0  0
   47.6920   32.2039   45.6578 H   0  0  0  0  0  0  0  0  0  0  0  0
   48.1754   30.6082   47.4469 H   0  0  0  0  0  0  0  0  0  0  0  0
   44.8156   32.0088   49.5056 H   0  0  0  0  0  0  0  0  0  0  0  0
   44.8151   36.7708   42.4301 C   0  0  0  0  0  0  0  0  0  0  0  0
   46.0128   37.6125   42.0581 C   0  0  2  0  0  0  0  0  0  0  0  0
   46.5855   36.9787   41.3137 H   0  0  0  0  0  0  0  0  0  0  0  0
   45.6410   38.8498   41.3071 C   0  0  1  0  0  0  0  0  0  0  0  0
   46.5386   39.5019   41.2668 H   0  0  0  0  0  0  0  0  0  0  0  0
   44.6501   39.5956   41.9352 O   0  0  0  0  0  0  0  0  0  0  0  0
   44.3349   39.0314   43.1944 C   0  0  2  0  0  0  0  0  0  0  0  0
   43.5784   39.6750   43.6884 H   0  0  0  0  0  0  0  0  0  0  0  0
   43.7341   37.6821   42.9123 C   0  0  2  0  0  0  0  0  0  0  0  0
   43.1641   37.2777   43.7726 H   0  0  0  0  0  0  0  0  0  0  0  0
   44.4339   36.2032   41.5541 H   0  0  0  0  0  0  0  0  0  0  0  0
   46.6959   37.8072   42.8996 H   0  0  0  0  0  0  0  0  0  0  0  0
   45.3061   38.5814   40.2700 H   0  0  0  0  0  0  0  0  0  0  0  0
   45.2929   39.0029   43.7474 H   0  0  0  0  0  0  0  0  0  0  0  0
   42.9853   37.8025   42.0782 H   0  0  0  0  0  0  0  0  0  0  0  0
  1  6  2  0
  2  1  1  0
  3  2  2  0
  3  4  1  0
  4  5  2  0
  5  6  1  0
  5  7  1  0
  7 12  1  0
  8  7  2  0
  8  9  1  0
  9 10  2  0
 10 11  1  0
 12 11  2  0
  1 13  1  0
  3 14  1  0
  8 15  1  0
  9 16  1  0
 11 17  1  0
 18 19  1  0
 19 20  1  6
 19 21  1  0
 21 22  1  6
 21 23  1  0
 23 24  1  0
 24 25  1  1
 24 26  1  0
 26 27  1  1
 26 18  1  0
 18 28  1  0
 19 29  1  0
 21 30  1  0
 24 31  1  0
 26 32  1  0
  2 18  1  0
M  ISO  8  13  14  14  14  15  14  16  14  17  14  20  15  22  15  25  15
M  ISO  1  27  15
M  END
>  <DihAtoms>  (1) 
0,1,17,18

>  <DihDeg>  (1) 
-121.07644709283902

$$$$
