
     RDKit          3D

 29 30  0  0  0  0  0  0  0  0999 V2000
   44.4194   35.8069   44.6988 C   0  0  0  0  0  0  0  0  0  0  0  0
   44.6715   35.4886   43.3580 C   0  0  0  0  0  0  0  0  0  0  0  0
   45.3649   34.3277   43.0994 C   0  0  0  0  0  0  0  0  0  0  0  0
   45.7719   33.5480   44.1315 N   0  0  0  0  0  0  0  0  0  0  0  0
   45.5149   33.8803   45.4050 C   0  0  0  0  0  0  0  0  0  0  0  0
   44.8392   35.0085   45.6928 N   0  0  0  0  0  0  0  0  0  0  0  0
   44.1790   36.4075   42.4064 N   0  0  0  0  0  0  0  0  0  0  0  0
   45.9402   33.0586   46.5672 C   0  0  0  0  0  0  0  0  0  0  0  0
   43.8816   36.7014   44.9685 H   0  0  0  0  0  0  0  0  0  0  0  0
   45.5423   34.1109   42.0691 H   0  0  0  0  0  0  0  0  0  0  0  0
   43.3609   36.0716   41.8235 H   0  0  0  0  0  0  0  0  0  0  0  0
   44.6779   37.3299   42.3774 H   0  0  0  0  0  0  0  0  0  0  0  0
   46.8397   32.4348   46.3259 H   0  0  0  0  0  0  0  0  0  0  0  0
   46.1060   33.6647   47.4724 H   0  0  0  0  0  0  0  0  0  0  0  0
   44.8311   32.0937   46.8480 C   0  0  2  0  0  0  0  0  0  0  0  0
   45.0052   31.4767   48.2109 C   0  0  1  0  0  0  0  0  0  0  0  0
   46.0560   31.1935   48.3266 H   0  0  0  0  0  0  0  0  0  0  0  0
   44.0444   30.3431   48.4523 C   0  0  1  0  0  0  0  0  0  0  0  0
   44.4589   29.7367   49.2921 H   0  0  0  0  0  0  0  0  0  0  0  0
   43.9187   29.4977   47.3663 O   0  0  0  0  0  0  0  0  0  0  0  0
   43.5471   30.1484   46.2055 C   0  0  2  0  0  0  0  0  0  0  0  0
   42.7158   30.8743   46.3303 H   0  0  0  0  0  0  0  0  0  0  0  0
   44.7459   31.0089   45.7856 C   0  0  2  0  0  0  0  0  0  0  0  0
   45.6972   30.4321   45.8568 H   0  0  0  0  0  0  0  0  0  0  0  0
   43.8250   32.5746   46.8579 H   0  0  0  0  0  0  0  0  0  0  0  0
   44.7865   32.2775   48.9583 H   0  0  0  0  0  0  0  0  0  0  0  0
   43.0584   30.7521   48.8028 H   0  0  0  0  0  0  0  0  0  0  0  0
   43.3088   29.4248   45.4272 H   0  0  0  0  0  0  0  0  0  0  0  0
   44.5771   31.4477   44.7992 H   0  0  0  0  0  0  0  0  0  0  0  0
  1  6  2  0
  2  1  1  0
  3  2  2  0
  3  4  1  0
  4  5  2  0
  5  6  1  0
  5  8  1  0
  7  2  1  0
  1  9  1  0
  3 10  1  0
  7 11  1  0
  7 12  1  0
  8 13  1  0
  8 14  1  0
 15 16  1  0
 16 17  1  6
 16 18  1  0
 18 19  1  1
 18 20  1  0
 20 21  1  0
 21 22  1  1
 21 23  1  0
 23 24  1  6
 23 15  1  0
 15 25  1  1
 16 26  1  0
 18 27  1  0
 21 28  1  0
 23 29  1  0
  8 15  1  0
M  ISO  8   9  14  10  14  13   8  14   8  17  15  19  15  22  15  24  15
M  END
>  <DihAtoms>  (1) 
4,7,14,15

>  <DihDeg>  (1) 
-179.99908784815403

$$$$
