
 OpenBabel03242518143D

 32 34  0  0  0  0  0  0  0  0999 V2000
   36.8250   29.8630   41.3780 C   0  0  0  0  0  0  0  0  0  0  0  0
   36.2180   28.5660   41.3450 C   0  0  0  0  0  0  0  0  0  0  0  0
   36.8430   27.5060   41.9450 C   0  0  0  0  0  0  0  0  0  0  0  0
   38.1140   27.7720   42.5920 C   0  0  0  0  0  0  0  0  0  0  0  0
   38.4170   29.5420   42.3440 S   0  0  0  0  0  0  0  0  0  0  0  0
   35.2760   28.5330   40.8280 H   0  0  0  0  0  0  0  0  0  0  0  0
   36.4330   26.5320   41.9450 H   0  0  0  0  0  0  0  0  0  0  0  0
   38.9310   26.8340   43.2700 C   0  0  0  0  0  3  0  0  0  0  0  0
   40.3730   27.3510   43.2950 C   0  0  0  0  0  3  0  0  0  0  0  0
   40.4040   28.1710   44.0130 H   0  0  0  0  0  0  0  0  0  0  0  0
   41.3470   26.2810   43.6790 C   0  0  0  0  0  3  0  0  0  0  0  0
   42.3600   26.6790   43.4750 H   0  0  0  0  0  0  0  0  0  0  0  0
   41.1750   25.1410   42.8870 O   0  0  0  0  0  0  0  0  0  0  0  0
   39.9470   24.5980   43.2280 C   0  0  0  0  0  3  0  0  0  0  0  0
   39.8030   23.5690   42.8590 H   0  0  0  0  0  0  0  0  0  0  0  0
   38.8260   25.4640   42.6850 C   0  0  0  0  0  3  0  0  0  0  0  0
   38.7930   25.4550   41.5910 H   0  0  0  0  0  0  0  0  0  0  0  0
   36.5070   31.1560   40.8930 C   0  0  0  0  0  0  0  0  0  0  0  0
   35.3930   31.3170   40.9940 H   0  0  0  0  0  0  0  0  0  0  0  0
   36.9530   31.9190   41.5750 H   0  0  0  0  0  0  0  0  0  0  0  0
   36.9360   31.4940   39.4970 C   0  0  0  0  0  0  0  0  0  0  0  0
   36.1400   31.9640   38.9310 H   0  0  0  0  0  0  0  0  0  0  0  0
   37.1850   30.5270   38.9810 H   0  0  0  0  0  0  0  0  0  0  0  0
   38.1500   32.2870   39.5430 C   0  0  0  0  0  0  0  0  0  0  0  0
   39.2940   31.9440   38.8370 C   0  0  0  0  0  0  0  0  0  0  0  0
   40.4270   32.7340   38.9140 C   0  0  0  0  0  0  0  0  0  0  0  0
   40.3500   33.8350   39.7010 N   0  0  0  0  0  0  0  0  0  0  0  0
   39.2360   34.1610   40.3830 C   0  0  0  0  0  0  0  0  0  0  0  0
   38.1590   33.3990   40.3030 N   0  0  0  0  0  0  0  0  0  0  0  0
   39.2290   31.0400   38.2430 H   0  0  0  0  0  0  0  0  0  0  0  0
   41.2820   32.4250   38.3520 H   0  0  0  0  0  0  0  0  0  0  0  0
   39.2390   35.0530   40.9940 H   0  0  0  0  0  0  0  0  0  0  0  0
  1  5  1  0  0  0  0
  2  1  2  0  0  0  0
  2  3  1  0  0  0  0
  3  4  2  0  0  0  0
  4  8  1  0  0  0  0
  5  4  1  0  0  0  0
  6  2  1  0  0  0  0
  7  3  1  0  0  0  0
  8  9  1  0  0  0  0
  9 11  1  0  0  0  0
  9 10  1  0  0  0  0
 12 11  1  0  0  0  0
 13 14  1  0  0  0  0
 13 11  1  0  0  0  0
 15 14  1  0  0  0  0
 16 14  1  0  0  0  0
 16  8  1  0  0  0  0
 17 16  1  0  0  0  0
 18 19  1  0  0  0  0
 18  1  1  0  0  0  0
 18 20  1  0  0  0  0
 21 24  1  0  0  0  0
 21 18  1  0  0  0  0
 22 21  1  0  0  0  0
 23 21  1  0  0  0  0
 24 29  1  0  0  0  0
 25 26  1  0  0  0  0
 25 24  2  0  0  0  0
 26 27  2  0  0  0  0
 27 28  1  0  0  0  0
 28 32  1  0  0  0  0
 29 28  2  0  0  0  0
 30 25  1  0  0  0  0
 31 26  1  0  0  0  0
M  END
>  <minimizedAffinity>
-5.15211153

$$$$

 OpenBabel03242518143D

 32 34  0  0  0  0  0  0  0  0999 V2000
   38.2490   28.9130   42.6970 C   0  0  0  0  0  0  0  0  0  0  0  0
   37.2660   28.2450   43.4960 C   0  0  0  0  0  0  0  0  0  0  0  0
   36.8020   27.0140   43.1160 C   0  0  0  0  0  0  0  0  0  0  0  0
   37.3510   26.4520   41.8960 C   0  0  0  0  0  0  0  0  0  0  0  0
   38.5330   27.6850   41.2900 S   0  0  0  0  0  0  0  0  0  0  0  0
   36.9610   28.7910   44.3700 H   0  0  0  0  0  0  0  0  0  0  0  0
   36.0780   26.4850   43.6740 H   0  0  0  0  0  0  0  0  0  0  0  0
   37.0210   25.2020   41.3170 C   0  0  0  0  0  3  0  0  0  0  0  0
   38.1590   24.2110   41.5800 C   0  0  0  0  0  3  0  0  0  0  0  0
   38.1080   23.9410   42.6350 H   0  0  0  0  0  0  0  0  0  0  0  0
   38.0510   22.9890   40.7200 C   0  0  0  0  0  3  0  0  0  0  0  0
   39.0040   22.4360   40.8250 H   0  0  0  0  0  0  0  0  0  0  0  0
   37.9110   23.3380   39.3730 O   0  0  0  0  0  0  0  0  0  0  0  0
   36.6700   23.9370   39.2410 C   0  0  0  0  0  3  0  0  0  0  0  0
   36.3370   24.0330   38.1930 H   0  0  0  0  0  0  0  0  0  0  0  0
   36.6910   25.3190   39.8650 C   0  0  0  0  0  3  0  0  0  0  0  0
   37.3450   26.0080   39.3200 H   0  0  0  0  0  0  0  0  0  0  0  0
   38.9490   30.1450   42.7510 C   0  0  0  0  0  0  0  0  0  0  0  0
   38.2320   30.9540   43.0790 H   0  0  0  0  0  0  0  0  0  0  0  0
   39.6990   30.0990   43.5760 H   0  0  0  0  0  0  0  0  0  0  0  0
   39.6670   30.5860   41.5110 C   0  0  0  0  0  0  0  0  0  0  0  0
   39.8950   29.7520   40.8570 H   0  0  0  0  0  0  0  0  0  0  0  0
   40.6450   31.0340   41.8340 H   0  0  0  0  0  0  0  0  0  0  0  0
   38.9040   31.6330   40.8570 C   0  0  0  0  0  0  0  0  0  0  0  0
   37.7910   31.3670   40.0740 C   0  0  0  0  0  0  0  0  0  0  0  0
   37.0960   32.4010   39.4710 C   0  0  0  0  0  0  0  0  0  0  0  0
   37.5610   33.6550   39.6890 N   0  0  0  0  0  0  0  0  0  0  0  0
   38.6430   33.9050   40.4500 C   0  0  0  0  0  0  0  0  0  0  0  0
   39.2990   32.9090   41.0220 N   0  0  0  0  0  0  0  0  0  0  0  0
   37.5190   30.3220   39.9770 H   0  0  0  0  0  0  0  0  0  0  0  0
   36.2450   32.1430   38.8770 H   0  0  0  0  0  0  0  0  0  0  0  0
   38.9620   34.9290   40.5850 H   0  0  0  0  0  0  0  0  0  0  0  0
  1 18  1  0  0  0  0
  1  2  2  0  0  0  0
  2  6  1  0  0  0  0
  3  2  1  0  0  0  0
  3  7  1  0  0  0  0
  4  3  2  0  0  0  0
  5  4  1  0  0  0  0
  5  1  1  0  0  0  0
  8  9  1  0  0  0  0
  8  4  1  0  0  0  0
  9 10  1  0  0  0  0
 11 12  1  0  0  0  0
 11  9  1  0  0  0  0
 13 11  1  0  0  0  0
 14 13  1  0  0  0  0
 14 16  1  0  0  0  0
 15 14  1  0  0  0  0
 16  8  1  0  0  0  0
 17 16  1  0  0  0  0
 18 19  1  0  0  0  0
 18 20  1  0  0  0  0
 21 23  1  0  0  0  0
 21 18  1  0  0  0  0
 22 21  1  0  0  0  0
 24 29  1  0  0  0  0
 24 21  1  0  0  0  0
 25 24  2  0  0  0  0
 26 27  2  0  0  0  0
 26 25  1  0  0  0  0
 27 28  1  0  0  0  0
 28 32  1  0  0  0  0
 28 29  2  0  0  0  0
 30 25  1  0  0  0  0
 31 26  1  0  0  0  0
M  END
>  <minimizedAffinity>
-4.96434069

$$$$

 OpenBabel03242518143D

 32 34  0  0  0  0  0  0  0  0999 V2000
   36.9560   29.6350   41.3630 C   0  0  0  0  0  0  0  0  0  0  0  0
   36.2030   30.7860   40.9630 C   0  0  0  0  0  0  0  0  0  0  0  0
   36.8250   31.8090   40.2990 C   0  0  0  0  0  0  0  0  0  0  0  0
   38.2430   31.6550   40.0350 C   0  0  0  0  0  0  0  0  0  0  0  0
   38.6910   30.0460   40.7380 S   0  0  0  0  0  0  0  0  0  0  0  0
   35.1630   30.7490   41.2310 H   0  0  0  0  0  0  0  0  0  0  0  0
   36.3100   32.6770   39.9860 H   0  0  0  0  0  0  0  0  0  0  0  0
   39.0840   32.5790   39.3670 C   0  0  0  0  0  3  0  0  0  0  0  0
   39.8990   31.8370   38.3020 C   0  0  0  0  0  3  0  0  0  0  0  0
   39.2130   31.5960   37.4890 H   0  0  0  0  0  0  0  0  0  0  0  0
   41.0440   32.6590   37.7960 C   0  0  0  0  0  3  0  0  0  0  0  0
   41.6840   31.9830   37.1960 H   0  0  0  0  0  0  0  0  0  0  0  0
   41.8170   33.1430   38.8540 O   0  0  0  0  0  0  0  0  0  0  0  0
   41.0360   34.0620   39.5340 C   0  0  0  0  0  3  0  0  0  0  0  0
   41.6080   34.6940   40.2350 H   0  0  0  0  0  0  0  0  0  0  0  0
   39.9490   33.3460   40.3130 C   0  0  0  0  0  3  0  0  0  0  0  0
   40.3590   32.7370   41.1260 H   0  0  0  0  0  0  0  0  0  0  0  0
   36.6860   28.4200   42.0410 C   0  0  0  0  0  0  0  0  0  0  0  0
   35.5890   28.3900   42.3090 H   0  0  0  0  0  0  0  0  0  0  0  0
   36.8130   27.5710   41.3280 H   0  0  0  0  0  0  0  0  0  0  0  0
   37.5060   28.1130   43.2580 C   0  0  0  0  0  0  0  0  0  0  0  0
   36.9170   28.1610   44.1670 H   0  0  0  0  0  0  0  0  0  0  0  0
   38.3000   28.9050   43.3340 H   0  0  0  0  0  0  0  0  0  0  0  0
   38.1790   26.8390   43.0800 C   0  0  0  0  0  0  0  0  0  0  0  0
   37.6420   25.8120   42.3180 C   0  0  0  0  0  0  0  0  0  0  0  0
   38.3220   24.6160   42.1780 C   0  0  0  0  0  0  0  0  0  0  0  0
   39.5150   24.5150   42.8150 N   0  0  0  0  0  0  0  0  0  0  0  0
   40.0290   25.5170   43.5520 C   0  0  0  0  0  0  0  0  0  0  0  0
   39.3700   26.6560   43.6800 N   0  0  0  0  0  0  0  0  0  0  0  0
   36.6820   26.0160   41.8590 H   0  0  0  0  0  0  0  0  0  0  0  0
   37.8650   23.8550   41.5810 H   0  0  0  0  0  0  0  0  0  0  0  0
   40.9850   25.3730   44.0350 H   0  0  0  0  0  0  0  0  0  0  0  0
  1 18  1  0  0  0  0
  2  6  1  0  0  0  0
  2  1  2  0  0  0  0
  3  2  1  0  0  0  0
  4  3  2  0  0  0  0
  4  5  1  0  0  0  0
  5  1  1  0  0  0  0
  7  3  1  0  0  0  0
  8  4  1  0  0  0  0
  8 16  1  0  0  0  0
  9  8  1  0  0  0  0
 10  9  1  0  0  0  0
 11  9  1  0  0  0  0
 11 13  1  0  0  0  0
 12 11  1  0  0  0  0
 13 14  1  0  0  0  0
 14 15  1  0  0  0  0
 14 16  1  0  0  0  0
 16 17  1  0  0  0  0
 18 19  1  0  0  0  0
 18 21  1  0  0  0  0
 20 18  1  0  0  0  0
 21 23  1  0  0  0  0
 21 22  1  0  0  0  0
 24 21  1  0  0  0  0
 24 29  1  0  0  0  0
 25 24  2  0  0  0  0
 26 25  1  0  0  0  0
 26 27  2  0  0  0  0
 27 28  1  0  0  0  0
 28 29  2  0  0  0  0
 28 32  1  0  0  0  0
 30 25  1  0  0  0  0
 31 26  1  0  0  0  0
M  END
>  <minimizedAffinity>
-4.95499516

$$$$

 OpenBabel03242518143D

 32 34  0  0  0  0  0  0  0  0999 V2000
   36.8660   27.8560   41.4480 C   0  0  0  0  0  0  0  0  0  0  0  0
   36.7130   27.7590   42.8690 C   0  0  0  0  0  0  0  0  0  0  0  0
   37.8080   27.5270   43.6580 C   0  0  0  0  0  0  0  0  0  0  0  0
   39.0860   27.3920   42.9840 C   0  0  0  0  0  0  0  0  0  0  0  0
   38.7230   27.5960   41.2200 S   0  0  0  0  0  0  0  0  0  0  0  0
   35.7030   27.8840   43.2140 H   0  0  0  0  0  0  0  0  0  0  0  0
   37.7420   27.4480   44.7090 H   0  0  0  0  0  0  0  0  0  0  0  0
   40.3420   27.1510   43.5940 C   0  0  0  0  0  3  0  0  0  0  0  0
   41.3160   28.2630   43.1930 C   0  0  0  0  0  3  0  0  0  0  0  0
   41.0180   29.1580   43.7400 H   0  0  0  0  0  0  0  0  0  0  0  0
   42.7360   27.9070   43.5060 C   0  0  0  0  0  3  0  0  0  0  0  0
   43.3750   28.6610   43.0060 H   0  0  0  0  0  0  0  0  0  0  0  0
   43.0660   26.6570   42.9740 O   0  0  0  0  0  0  0  0  0  0  0  0
   42.3340   25.7160   43.6790 C   0  0  0  0  0  3  0  0  0  0  0  0
   42.6850   24.6810   43.5270 H   0  0  0  0  0  0  0  0  0  0  0  0
   40.8720   25.7900   43.2820 C   0  0  0  0  0  3  0  0  0  0  0  0
   40.7120   25.4830   42.2430 H   0  0  0  0  0  0  0  0  0  0  0  0
   36.0120   28.0780   40.3380 C   0  0  0  0  0  0  0  0  0  0  0  0
   36.6110   27.9520   39.3890 H   0  0  0  0  0  0  0  0  0  0  0  0
   35.2580   27.2550   40.2930 H   0  0  0  0  0  0  0  0  0  0  0  0
   35.2650   29.3770   40.2910 C   0  0  0  0  0  0  0  0  0  0  0  0
   34.7820   29.6010   41.2350 H   0  0  0  0  0  0  0  0  0  0  0  0
   34.4560   29.2680   39.5200 H   0  0  0  0  0  0  0  0  0  0  0  0
   36.1570   30.4300   39.8400 C   0  0  0  0  0  0  0  0  0  0  0  0
   36.6280   31.4220   40.6870 C   0  0  0  0  0  0  0  0  0  0  0  0
   37.4770   32.4050   40.2100 C   0  0  0  0  0  0  0  0  0  0  0  0
   37.8090   32.3380   38.8970 N   0  0  0  0  0  0  0  0  0  0  0  0
   37.3460   31.3710   38.0820 C   0  0  0  0  0  0  0  0  0  0  0  0
   36.5360   30.4370   38.5490 N   0  0  0  0  0  0  0  0  0  0  0  0
   36.2900   31.3660   41.7150 H   0  0  0  0  0  0  0  0  0  0  0  0
   37.8110   33.1470   40.9030 H   0  0  0  0  0  0  0  0  0  0  0  0
   37.6490   31.3740   37.0440 H   0  0  0  0  0  0  0  0  0  0  0  0
  1  2  2  0  0  0  0
  2  6  1  0  0  0  0
  2  3  1  0  0  0  0
  3  7  1  0  0  0  0
  4  8  1  0  0  0  0
  4  3  2  0  0  0  0
  5  1  1  0  0  0  0
  5  4  1  0  0  0  0
  9 11  1  0  0  0  0
  9  8  1  0  0  0  0
  9 10  1  0  0  0  0
 12 11  1  0  0  0  0
 13 11  1  0  0  0  0
 13 14  1  0  0  0  0
 15 14  1  0  0  0  0
 16  8  1  0  0  0  0
 16 14  1  0  0  0  0
 17 16  1  0  0  0  0
 18  1  1  0  0  0  0
 19 18  1  0  0  0  0
 20 18  1  0  0  0  0
 21 18  1  0  0  0  0
 21 22  1  0  0  0  0
 23 21  1  0  0  0  0
 24 21  1  0  0  0  0
 24 25  1  0  0  0  0
 25 30  1  0  0  0  0
 26 25  2  0  0  0  0
 26 31  1  0  0  0  0
 27 26  1  0  0  0  0
 28 29  1  0  0  0  0
 28 27  2  0  0  0  0
 29 24  2  0  0  0  0
 32 28  1  0  0  0  0
M  END
>  <minimizedAffinity>
-4.93067026

$$$$

 OpenBabel03242518143D

 32 34  0  0  0  0  0  0  0  0999 V2000
   37.1400   26.7550   42.5230 C   0  0  0  0  0  0  0  0  0  0  0  0
   37.5850   27.6300   43.5660 C   0  0  0  0  0  0  0  0  0  0  0  0
   37.9200   28.9250   43.2730 C   0  0  0  0  0  0  0  0  0  0  0  0
   37.7980   29.3370   41.8870 C   0  0  0  0  0  0  0  0  0  0  0  0
   37.2050   27.8720   41.0000 S   0  0  0  0  0  0  0  0  0  0  0  0
   37.6200   27.1740   44.5390 H   0  0  0  0  0  0  0  0  0  0  0  0
   38.2530   29.6040   44.0100 H   0  0  0  0  0  0  0  0  0  0  0  0
   38.0860   30.6200   41.3580 C   0  0  0  0  0  3  0  0  0  0  0  0
   36.8200   31.1940   40.7170 C   0  0  0  0  0  3  0  0  0  0  0  0
   36.1530   31.4800   41.5310 H   0  0  0  0  0  0  0  0  0  0  0  0
   37.1160   32.3740   39.8430 C   0  0  0  0  0  3  0  0  0  0  0  0
   36.1930   32.5910   39.2710 H   0  0  0  0  0  0  0  0  0  0  0  0
   38.1230   32.0720   38.9220 O   0  0  0  0  0  0  0  0  0  0  0  0
   39.2920   31.9030   39.6450 C   0  0  0  0  0  3  0  0  0  0  0  0
   40.2010   31.9060   39.0200 H   0  0  0  0  0  0  0  0  0  0  0  0
   39.2430   30.5960   40.4140 C   0  0  0  0  0  3  0  0  0  0  0  0
   39.2490   29.7260   39.7480 H   0  0  0  0  0  0  0  0  0  0  0  0
   36.7220   25.4040   42.4270 C   0  0  0  0  0  0  0  0  0  0  0  0
   36.1790   25.1240   43.3770 H   0  0  0  0  0  0  0  0  0  0  0  0
   35.9410   25.3220   41.6350 H   0  0  0  0  0  0  0  0  0  0  0  0
   37.7730   24.3760   42.1320 C   0  0  0  0  0  0  0  0  0  0  0  0
   38.0220   23.7880   43.0080 H   0  0  0  0  0  0  0  0  0  0  0  0
   38.7030   24.9280   41.8260 H   0  0  0  0  0  0  0  0  0  0  0  0
   37.3550   23.5680   41.0010 C   0  0  0  0  0  0  0  0  0  0  0  0
   36.1250   23.7290   40.3830 C   0  0  0  0  0  0  0  0  0  0  0  0
   35.7720   22.9340   39.3070 C   0  0  0  0  0  0  0  0  0  0  0  0
   36.6830   22.0130   38.9060 N   0  0  0  0  0  0  0  0  0  0  0  0
   37.8760   21.8630   39.5120 C   0  0  0  0  0  0  0  0  0  0  0  0
   38.2020   22.6280   40.5400 N   0  0  0  0  0  0  0  0  0  0  0  0
   35.4850   24.5000   40.7960 H   0  0  0  0  0  0  0  0  0  0  0  0
   34.8120   23.0970   38.8660 H   0  0  0  0  0  0  0  0  0  0  0  0
   38.5580   21.1090   39.1440 H   0  0  0  0  0  0  0  0  0  0  0  0
  1  2  2  0  0  0  0
  2  6  1  0  0  0  0
  3  2  1  0  0  0  0
  3  7  1  0  0  0  0
  4  3  2  0  0  0  0
  5  4  1  0  0  0  0
  5  1  1  0  0  0  0
  8  4  1  0  0  0  0
  9  8  1  0  0  0  0
  9 10  1  0  0  0  0
 11  9  1  0  0  0  0
 12 11  1  0  0  0  0
 13 14  1  0  0  0  0
 13 11  1  0  0  0  0
 14 16  1  0  0  0  0
 15 14  1  0  0  0  0
 16  8  1  0  0  0  0
 17 16  1  0  0  0  0
 18  1  1  0  0  0  0
 18 19  1  0  0  0  0
 20 18  1  0  0  0  0
 21 18  1  0  0  0  0
 21 22  1  0  0  0  0
 23 21  1  0  0  0  0
 24 21  1  0  0  0  0
 25 30  1  0  0  0  0
 25 24  2  0  0  0  0
 26 25  1  0  0  0  0
 27 26  2  0  0  0  0
 27 28  1  0  0  0  0
 28 29  2  0  0  0  0
 29 24  1  0  0  0  0
 31 26  1  0  0  0  0
 32 28  1  0  0  0  0
M  END
>  <minimizedAffinity>
-4.76130056

$$$$

 OpenBabel03242518143D

 32 34  0  0  0  0  0  0  0  0999 V2000
   37.5470   27.7950   42.5110 C   0  0  0  0  0  0  0  0  0  0  0  0
   38.3230   28.7650   43.2250 C   0  0  0  0  0  0  0  0  0  0  0  0
   38.6570   29.9480   42.6230 C   0  0  0  0  0  0  0  0  0  0  0  0
   38.1900   30.1480   41.2640 C   0  0  0  0  0  0  0  0  0  0  0  0
   37.2720   28.6430   40.8440 S   0  0  0  0  0  0  0  0  0  0  0  0
   38.5910   28.4680   44.2230 H   0  0  0  0  0  0  0  0  0  0  0  0
   39.2270   30.6910   43.1110 H   0  0  0  0  0  0  0  0  0  0  0  0
   38.4140   31.2880   40.4510 C   0  0  0  0  0  3  0  0  0  0  0  0
   39.5750   32.0980   41.0350 C   0  0  0  0  0  3  0  0  0  0  0  0
   40.4890   31.5420   40.8230 H   0  0  0  0  0  0  0  0  0  0  0  0
   39.6520   33.4740   40.4480 C   0  0  0  0  0  3  0  0  0  0  0  0
   40.3740   34.0460   41.0620 H   0  0  0  0  0  0  0  0  0  0  0  0
   38.4170   34.1230   40.5360 O   0  0  0  0  0  0  0  0  0  0  0  0
   37.5520   33.4560   39.6850 C   0  0  0  0  0  3  0  0  0  0  0  0
   36.6230   34.0140   39.4750 H   0  0  0  0  0  0  0  0  0  0  0  0
   37.1790   32.1080   40.2730 C   0  0  0  0  0  3  0  0  0  0  0  0
   36.5820   32.2090   41.1860 H   0  0  0  0  0  0  0  0  0  0  0  0
   37.0230   26.5050   42.7760 C   0  0  0  0  0  0  0  0  0  0  0  0
   37.2670   26.2270   43.8430 H   0  0  0  0  0  0  0  0  0  0  0  0
   35.9080   26.5570   42.7580 H   0  0  0  0  0  0  0  0  0  0  0  0
   37.4370   25.3910   41.8630 C   0  0  0  0  0  0  0  0  0  0  0  0
   36.9940   25.4890   40.8780 H   0  0  0  0  0  0  0  0  0  0  0  0
   37.0520   24.4340   42.3070 H   0  0  0  0  0  0  0  0  0  0  0  0
   38.8850   25.3040   41.8310 C   0  0  0  0  0  0  0  0  0  0  0  0
   39.6200   25.4920   40.6700 C   0  0  0  0  0  0  0  0  0  0  0  0
   41.0000   25.3990   40.6930 C   0  0  0  0  0  0  0  0  0  0  0  0
   41.5730   25.1210   41.8900 N   0  0  0  0  0  0  0  0  0  0  0  0
   40.8520   24.9400   43.0120 C   0  0  0  0  0  0  0  0  0  0  0  0
   39.5340   25.0310   42.9790 N   0  0  0  0  0  0  0  0  0  0  0  0
   39.0460   25.7090   39.7770 H   0  0  0  0  0  0  0  0  0  0  0  0
   41.5200   25.5510   39.7700 H   0  0  0  0  0  0  0  0  0  0  0  0
   41.3700   24.7210   43.9360 H   0  0  0  0  0  0  0  0  0  0  0  0
  1 18  1  0  0  0  0
  1  2  2  0  0  0  0
  2  6  1  0  0  0  0
  3  7  1  0  0  0  0
  3  2  1  0  0  0  0
  4  3  2  0  0  0  0
  5  4  1  0  0  0  0
  5  1  1  0  0  0  0
  8  9  1  0  0  0  0
  8  4  1  0  0  0  0
 10  9  1  0  0  0  0
 11 13  1  0  0  0  0
 11  9  1  0  0  0  0
 11 12  1  0  0  0  0
 14 16  1  0  0  0  0
 14 13  1  0  0  0  0
 15 14  1  0  0  0  0
 16  8  1  0  0  0  0
 16 17  1  0  0  0  0
 18 19  1  0  0  0  0
 20 18  1  0  0  0  0
 21 23  1  0  0  0  0
 21 18  1  0  0  0  0
 22 21  1  0  0  0  0
 24 21  1  0  0  0  0
 24 29  1  0  0  0  0
 25 26  1  0  0  0  0
 25 24  2  0  0  0  0
 26 27  2  0  0  0  0
 27 28  1  0  0  0  0
 28 32  1  0  0  0  0
 29 28  2  0  0  0  0
 30 25  1  0  0  0  0
 31 26  1  0  0  0  0
M  END
>  <minimizedAffinity>
-4.72577238

$$$$

 OpenBabel03242518143D

 32 34  0  0  0  0  0  0  0  0999 V2000
   37.5170   29.6650   41.5320 C   0  0  0  0  0  0  0  0  0  0  0  0
   36.2930   30.3020   41.1480 C   0  0  0  0  0  0  0  0  0  0  0  0
   35.9300   30.3410   39.8280 C   0  0  0  0  0  0  0  0  0  0  0  0
   36.8320   29.7150   38.8800 C   0  0  0  0  0  0  0  0  0  0  0  0
   38.2040   29.0710   39.8740 S   0  0  0  0  0  0  0  0  0  0  0  0
   35.7360   30.7170   41.9670 H   0  0  0  0  0  0  0  0  0  0  0  0
   35.0370   30.8000   39.5000 H   0  0  0  0  0  0  0  0  0  0  0  0
   36.6610   29.6350   37.4750 C   0  0  0  0  0  3  0  0  0  0  0  0
   35.2210   29.2100   37.1700 C   0  0  0  0  0  3  0  0  0  0  0  0
   34.5840   30.0690   37.3810 H   0  0  0  0  0  0  0  0  0  0  0  0
   35.0540   28.7710   35.7480 C   0  0  0  0  0  3  0  0  0  0  0  0
   34.0560   28.2960   35.6720 H   0  0  0  0  0  0  0  0  0  0  0  0
   36.0060   27.8060   35.4080 O   0  0  0  0  0  0  0  0  0  0  0  0
   37.2370   28.4400   35.4080 C   0  0  0  0  0  3  0  0  0  0  0  0
   38.0340   27.8540   34.9190 H   0  0  0  0  0  0  0  0  0  0  0  0
   37.6680   28.7400   36.8310 C   0  0  0  0  0  3  0  0  0  0  0  0
   37.8730   27.8270   37.4000 H   0  0  0  0  0  0  0  0  0  0  0  0
   38.2130   29.4290   42.7440 C   0  0  0  0  0  0  0  0  0  0  0  0
   39.2830   29.1620   42.5020 H   0  0  0  0  0  0  0  0  0  0  0  0
   38.2950   30.3890   43.3060 H   0  0  0  0  0  0  0  0  0  0  0  0
   37.6420   28.4050   43.6790 C   0  0  0  0  0  0  0  0  0  0  0  0
   36.5740   28.5320   43.8140 H   0  0  0  0  0  0  0  0  0  0  0  0
   38.1250   28.5620   44.6810 H   0  0  0  0  0  0  0  0  0  0  0  0
   38.0070   27.0770   43.2230 C   0  0  0  0  0  0  0  0  0  0  0  0
   37.1190   26.2450   42.5580 C   0  0  0  0  0  0  0  0  0  0  0  0
   37.5160   24.9860   42.1430 C   0  0  0  0  0  0  0  0  0  0  0  0
   38.7930   24.6280   42.4200 N   0  0  0  0  0  0  0  0  0  0  0  0
   39.6490   25.4420   43.0660 C   0  0  0  0  0  0  0  0  0  0  0  0
   39.2600   26.6420   43.4580 N   0  0  0  0  0  0  0  0  0  0  0  0
   36.1260   26.6470   42.3960 H   0  0  0  0  0  0  0  0  0  0  0  0
   36.7920   24.3840   41.6350 H   0  0  0  0  0  0  0  0  0  0  0  0
   40.6560   25.0960   43.2570 H   0  0  0  0  0  0  0  0  0  0  0  0
  1 18  1  0  0  0  0
  2  1  2  0  0  0  0
  2  6  1  0  0  0  0
  3  2  1  0  0  0  0
  4  3  2  0  0  0  0
  4  5  1  0  0  0  0
  5  1  1  0  0  0  0
  7  3  1  0  0  0  0
  8  4  1  0  0  0  0
  9 10  1  0  0  0  0
  9  8  1  0  0  0  0
 11  9  1  0  0  0  0
 12 11  1  0  0  0  0
 13 14  1  0  0  0  0
 13 11  1  0  0  0  0
 14 16  1  0  0  0  0
 15 14  1  0  0  0  0
 16 17  1  0  0  0  0
 16  8  1  0  0  0  0
 18 20  1  0  0  0  0
 18 21  1  0  0  0  0
 19 18  1  0  0  0  0
 21 22  1  0  0  0  0
 21 23  1  0  0  0  0
 24 29  1  0  0  0  0
 24 21  1  0  0  0  0
 25 24  2  0  0  0  0
 26 27  2  0  0  0  0
 26 25  1  0  0  0  0
 27 28  1  0  0  0  0
 28 32  1  0  0  0  0
 28 29  2  0  0  0  0
 30 25  1  0  0  0  0
 31 26  1  0  0  0  0
M  END
>  <minimizedAffinity>
-4.65090227

$$$$

 OpenBabel03242518143D

 32 34  0  0  0  0  0  0  0  0999 V2000
   36.7480   29.9560   39.5410 C   0  0  0  0  0  0  0  0  0  0  0  0
   35.6730   29.5240   40.3820 C   0  0  0  0  0  0  0  0  0  0  0  0
   35.8840   28.5330   41.3040 C   0  0  0  0  0  0  0  0  0  0  0  0
   37.2210   27.9710   41.3690 C   0  0  0  0  0  0  0  0  0  0  0  0
   38.1770   28.8590   40.1110 S   0  0  0  0  0  0  0  0  0  0  0  0
   34.7450   30.0390   40.2130 H   0  0  0  0  0  0  0  0  0  0  0  0
   35.1210   28.1830   41.9440 H   0  0  0  0  0  0  0  0  0  0  0  0
   37.6650   26.9450   42.2390 C   0  0  0  0  0  3  0  0  0  0  0  0
   38.8980   27.4360   43.0050 C   0  0  0  0  0  3  0  0  0  0  0  0
   38.5470   28.1590   43.7420 H   0  0  0  0  0  0  0  0  0  0  0  0
   39.6260   26.3140   43.6770 C   0  0  0  0  0  3  0  0  0  0  0  0
   40.5950   26.7220   44.0260 H   0  0  0  0  0  0  0  0  0  0  0  0
   39.9030   25.2850   42.7720 O   0  0  0  0  0  0  0  0  0  0  0  0
   38.6880   24.7190   42.4240 C   0  0  0  0  0  3  0  0  0  0  0  0
   38.7860   23.7460   41.9130 H   0  0  0  0  0  0  0  0  0  0  0  0
   37.9160   25.6610   41.5190 C   0  0  0  0  0  3  0  0  0  0  0  0
   38.4040   25.7890   40.5470 H   0  0  0  0  0  0  0  0  0  0  0  0
   36.9200   30.9120   38.5080 C   0  0  0  0  0  0  0  0  0  0  0  0
   37.7600   30.5700   37.8340 H   0  0  0  0  0  0  0  0  0  0  0  0
   36.0210   30.8960   37.8480 H   0  0  0  0  0  0  0  0  0  0  0  0
   37.1550   32.3350   38.9170 C   0  0  0  0  0  0  0  0  0  0  0  0
   36.5150   32.6300   39.7410 H   0  0  0  0  0  0  0  0  0  0  0  0
   36.8890   32.9830   38.0390 H   0  0  0  0  0  0  0  0  0  0  0  0
   38.5670   32.5320   39.1900 C   0  0  0  0  0  0  0  0  0  0  0  0
   39.0260   33.1100   40.3640 C   0  0  0  0  0  0  0  0  0  0  0  0
   40.3830   33.2770   40.5780 C   0  0  0  0  0  0  0  0  0  0  0  0
   41.2120   32.8500   39.5940 N   0  0  0  0  0  0  0  0  0  0  0  0
   40.7570   32.2890   38.4570 C   0  0  0  0  0  0  0  0  0  0  0  0
   39.4590   32.1350   38.2630 N   0  0  0  0  0  0  0  0  0  0  0  0
   38.2640   33.4100   41.0730 H   0  0  0  0  0  0  0  0  0  0  0  0
   40.6850   33.7290   41.4990 H   0  0  0  0  0  0  0  0  0  0  0  0
   41.4710   31.9690   37.7110 H   0  0  0  0  0  0  0  0  0  0  0  0
  1  5  1  0  0  0  0
  1  2  2  0  0  0  0
  2  3  1  0  0  0  0
  3  4  2  0  0  0  0
  3  7  1  0  0  0  0
  4  8  1  0  0  0  0
  5  4  1  0  0  0  0
  6  2  1  0  0  0  0
  8  9  1  0  0  0  0
  9 11  1  0  0  0  0
  9 10  1  0  0  0  0
 11 12  1  0  0  0  0
 13 11  1  0  0  0  0
 14 13  1  0  0  0  0
 15 14  1  0  0  0  0
 16  8  1  0  0  0  0
 16 14  1  0  0  0  0
 17 16  1  0  0  0  0
 18 21  1  0  0  0  0
 18  1  1  0  0  0  0
 19 18  1  0  0  0  0
 20 18  1  0  0  0  0
 21 24  1  0  0  0  0
 21 22  1  0  0  0  0
 23 21  1  0  0  0  0
 24 25  1  0  0  0  0
 25 26  2  0  0  0  0
 25 30  1  0  0  0  0
 26 31  1  0  0  0  0
 27 26  1  0  0  0  0
 28 27  2  0  0  0  0
 29 28  1  0  0  0  0
 29 24  2  0  0  0  0
 32 28  1  0  0  0  0
M  END
>  <minimizedAffinity>
-4.64615297

$$$$

 OpenBabel03242518143D

 32 34  0  0  0  0  0  0  0  0999 V2000
   34.5020   28.8280   38.1320 C   0  0  0  0  0  0  0  0  0  0  0  0
   34.2420   29.3060   39.4580 C   0  0  0  0  0  0  0  0  0  0  0  0
   35.0770   28.9550   40.4840 C   0  0  0  0  0  0  0  0  0  0  0  0
   36.2020   28.1000   40.1540 C   0  0  0  0  0  0  0  0  0  0  0  0
   36.0660   27.7960   38.3720 S   0  0  0  0  0  0  0  0  0  0  0  0
   33.3710   29.9300   39.5390 H   0  0  0  0  0  0  0  0  0  0  0  0
   34.9240   29.2830   41.4760 H   0  0  0  0  0  0  0  0  0  0  0  0
   37.1880   27.6160   41.0490 C   0  0  0  0  0  3  0  0  0  0  0  0
   36.6610   27.7260   42.4830 C   0  0  0  0  0  3  0  0  0  0  0  0
   35.9080   26.9480   42.6050 H   0  0  0  0  0  0  0  0  0  0  0  0
   37.7510   27.5650   43.4970 C   0  0  0  0  0  3  0  0  0  0  0  0
   37.3260   27.8580   44.4760 H   0  0  0  0  0  0  0  0  0  0  0  0
   38.8180   28.4260   43.2250 O   0  0  0  0  0  0  0  0  0  0  0  0
   39.4010   27.9840   42.0490 C   0  0  0  0  0  3  0  0  0  0  0  0
   40.3960   28.4230   41.8590 H   0  0  0  0  0  0  0  0  0  0  0  0
   38.5020   28.3030   40.8700 C   0  0  0  0  0  3  0  0  0  0  0  0
   38.4150   29.3820   40.6990 H   0  0  0  0  0  0  0  0  0  0  0  0
   33.8960   28.9610   36.8580 C   0  0  0  0  0  0  0  0  0  0  0  0
   34.0140   30.0290   36.5100 H   0  0  0  0  0  0  0  0  0  0  0  0
   34.4820   28.3700   36.1150 H   0  0  0  0  0  0  0  0  0  0  0  0
   32.4600   28.5500   36.7310 C   0  0  0  0  0  0  0  0  0  0  0  0
   32.1920   27.7870   37.4530 H   0  0  0  0  0  0  0  0  0  0  0  0
   32.3310   28.1000   35.7090 H   0  0  0  0  0  0  0  0  0  0  0  0
   31.6120   29.7250   36.7990 C   0  0  0  0  0  0  0  0  0  0  0  0
   31.4980   30.6260   35.7510 C   0  0  0  0  0  0  0  0  0  0  0  0
   30.6760   31.7320   35.8650 C   0  0  0  0  0  0  0  0  0  0  0  0
   30.0060   31.8760   37.0340 N   0  0  0  0  0  0  0  0  0  0  0  0
   30.1220   30.9970   38.0470 C   0  0  0  0  0  0  0  0  0  0  0  0
   30.9110   29.9430   37.9280 N   0  0  0  0  0  0  0  0  0  0  0  0
   32.0850   30.4000   34.8680 H   0  0  0  0  0  0  0  0  0  0  0  0
   30.6240   32.3970   35.0280 H   0  0  0  0  0  0  0  0  0  0  0  0
   29.5610   31.1690   38.9550 H   0  0  0  0  0  0  0  0  0  0  0  0
  1  5  1  0  0  0  0
  1  2  2  0  0  0  0
  2  6  1  0  0  0  0
  2  3  1  0  0  0  0
  3  7  1  0  0  0  0
  4  3  2  0  0  0  0
  4  8  1  0  0  0  0
  5  4  1  0  0  0  0
  8  9  1  0  0  0  0
  9 10  1  0  0  0  0
  9 11  1  0  0  0  0
 11 12  1  0  0  0  0
 13 11  1  0  0  0  0
 14 13  1  0  0  0  0
 15 14  1  0  0  0  0
 16  8  1  0  0  0  0
 16 14  1  0  0  0  0
 17 16  1  0  0  0  0
 18  1  1  0  0  0  0
 19 18  1  0  0  0  0
 20 18  1  0  0  0  0
 21 24  1  0  0  0  0
 21 18  1  0  0  0  0
 21 22  1  0  0  0  0
 23 21  1  0  0  0  0
 24 29  1  0  0  0  0
 25 26  1  0  0  0  0
 25 24  2  0  0  0  0
 26 27  2  0  0  0  0
 27 28  1  0  0  0  0
 28 32  1  0  0  0  0
 29 28  2  0  0  0  0
 30 25  1  0  0  0  0
 31 26  1  0  0  0  0
M  END
>  <minimizedAffinity>
-4.60875988

$$$$
