
     RDKit          3D

 39 41  0  0  0  0  0  0  0  0999 V2000
   44.8317   35.1561   45.0887 C   0  0  0  0  0  0  0  0  0  0  0  0
   45.7088   34.7853   44.0808 C   0  0  0  0  0  0  0  0  0  0  0  0
   46.5369   33.6848   44.3325 C   0  0  0  0  0  0  0  0  0  0  0  0
   46.4584   33.0440   45.5035 N   0  0  0  0  0  0  0  0  0  0  0  0
   45.5795   33.4492   46.4596 C   0  0  0  0  0  0  0  0  0  0  0  0
   44.7659   34.4970   46.2659 N   0  0  0  0  0  0  0  0  0  0  0  0
   45.7095   35.5752   42.8130 C   0  0  0  0  0  0  0  0  0  0  0  0
   45.2148   36.8085   43.1570 F   0  0  0  0  0  0  0  0  0  0  0  0
   44.8096   34.9210   41.9558 F   0  0  0  0  0  0  0  0  0  0  0  0
   46.9696   35.6053   42.3085 F   0  0  0  0  0  0  0  0  0  0  0  0
   45.4650   32.8078   47.6973 O   0  0  0  0  0  0  0  0  0  0  0  0
   45.2259   31.4224   47.7812 C   0  0  0  0  0  0  0  0  0  0  0  0
   46.5152   30.7654   48.0111 C   0  0  0  0  0  0  0  0  0  0  0  0
   47.0748   29.6429   47.4180 C   0  0  0  0  0  0  0  0  0  0  0  0
   48.3118   29.2359   47.8235 C   0  0  0  0  0  0  0  0  0  0  0  0
   49.0099   29.8763   48.7722 N   0  0  0  0  0  0  0  0  0  0  0  0
   48.4541   30.9642   49.3389 C   0  0  0  0  0  0  0  0  0  0  0  0
   47.2247   31.4177   48.9765 N   0  0  0  0  0  0  0  0  0  0  0  0
   44.1889   35.9984   44.9126 H   0  0  0  0  0  0  0  0  0  0  0  0
   47.2197   33.4005   43.5408 H   0  0  0  0  0  0  0  0  0  0  0  0
   44.7674   31.0302   46.8378 H   0  0  0  0  0  0  0  0  0  0  0  0
   44.5115   31.2028   48.5863 H   0  0  0  0  0  0  0  0  0  0  0  0
   46.4342   29.2163   46.6807 H   0  0  0  0  0  0  0  0  0  0  0  0
   48.6843   28.3517   47.3153 H   0  0  0  0  0  0  0  0  0  0  0  0
   49.2744   31.6448   50.3942 C   0  0  0  0  0  0  0  0  0  0  0  0
   49.3634   30.8782   51.6666 C   0  0  1  0  0  0  0  0  0  0  0  0
   48.5885   31.2845   52.3734 H   0  0  0  0  0  0  0  0  0  0  0  0
   50.7291   31.1622   52.2678 C   0  0  1  0  0  0  0  0  0  0  0  0
   50.9204   32.2530   52.1560 H   0  0  0  0  0  0  0  0  0  0  0  0
   51.6384   30.4137   51.5264 O   0  0  0  0  0  0  0  0  0  0  0  0
   51.5898   30.7013   50.1731 C   0  0  2  0  0  0  0  0  0  0  0  0
   51.2818   29.8440   49.5497 H   0  0  0  0  0  0  0  0  0  0  0  0
   50.6856   31.8590   49.8475 C   0  0  1  0  0  0  0  0  0  0  0  0
   50.6082   31.8714   48.7213 H   0  0  0  0  0  0  0  0  0  0  0  0
   48.8256   32.6578   50.5671 H   0  0  0  0  0  0  0  0  0  0  0  0
   49.2475   29.7819   51.5225 H   0  0  0  0  0  0  0  0  0  0  0  0
   50.8056   30.8228   53.3189 H   0  0  0  0  0  0  0  0  0  0  0  0
   52.5984   30.9938   49.7998 H   0  0  0  0  0  0  0  0  0  0  0  0
   51.0882   32.8441   50.1550 H   0  0  0  0  0  0  0  0  0  0  0  0
  1  6  2  0
  2  3  2  0
  2  1  1  0
  3  4  1  0
  4  5  2  0
  5 11  1  0
  6  5  1  0
  7  8  1  0
  7  2  1  0
  9  7  1  0
 10  7  1  0
 11 12  1  0
 12 13  1  0
 13 18  2  0
 14 15  2  0
 14 13  1  0
 15 16  1  0
 16 17  2  0
 18 17  1  0
  1 19  1  0
  3 20  1  0
 12 21  1  0
 12 22  1  0
 14 23  1  0
 15 24  1  0
 25 26  1  0
 26 27  1  1
 26 28  1  0
 28 29  1  1
 28 30  1  0
 30 31  1  0
 31 32  1  6
 31 33  1  0
 33 34  1  6
 33 25  1  0
 25 35  1  0
 26 36  1  0
 28 37  1  0
 31 38  1  0
 33 39  1  0
 17 25  1  0
M  ISO  8  19  14  20  14  21   8  22   8  23  14  24  14  27  15  29  15
M  ISO  2  32  15  34  15
M  END
>  <DihAtoms>  (1) 
15,16,24,25

>  <DihDeg>  (1) 
-56.90473439070126

$$$$
