
 OpenBabel03242516253D

 44 48  0  0  0  0  0  0  0  0999 V2000
   49.8060   30.2760   49.5740 C   0  0  0  0  0  0  0  0  0  0  0  0
   50.0220   31.5120   50.0890 N   0  0  0  0  0  0  0  0  0  0  0  0
   50.7340   31.7510   51.1970 C   0  0  0  0  0  0  0  0  0  0  0  0
   51.2590   30.6880   51.8240 N   0  0  0  0  0  0  0  0  0  0  0  0
   51.1010   29.4330   51.3910 C   0  0  0  0  0  0  0  0  0  0  0  0
   51.6670   28.3450   52.0260 C   0  0  0  0  0  0  0  0  0  0  0  0
   51.5130   27.0790   51.5420 C   0  0  0  0  0  0  0  0  0  0  0  0
   50.7770   26.8490   50.3910 C   0  0  0  0  0  0  0  0  0  0  0  0
   50.1960   27.9320   49.7360 C   0  0  0  0  0  0  0  0  0  0  0  0
   50.3590   29.2150   50.2400 C   0  0  0  0  0  0  0  0  0  0  0  0
   50.9000   32.7410   51.5980 H   0  0  0  0  0  0  0  0  0  0  0  0
   52.2220   28.6320   52.9190 H   0  0  0  0  0  0  0  0  0  0  0  0
   52.0300   26.3670   52.1790 H   0  0  0  0  0  0  0  0  0  0  0  0
   50.8040   25.8030   50.2260 H   0  0  0  0  0  0  0  0  0  0  0  0
   49.5230   27.5140   48.4990 C   0  0  0  0  0  0  0  0  0  0  0  0
   50.6050   26.9320   47.5120 C   0  0  0  0  0  0  0  0  0  0  0  0
   50.8690   25.9270   47.8910 H   0  0  0  0  0  0  0  0  0  0  0  0
   50.0520   26.8610   46.1070 C   0  0  0  0  0  0  0  0  0  0  0  0
   50.7720   26.2550   45.5320 H   0  0  0  0  0  0  0  0  0  0  0  0
   48.7960   26.2940   46.1810 O   0  0  0  0  0  0  0  0  0  0  0  0
   48.6740   25.4940   47.2810 C   0  0  0  0  0  0  0  0  0  0  0  0
   47.6880   24.9890   47.2330 H   0  0  0  0  0  0  0  0  0  0  0  0
   48.6580   26.3060   48.5870 C   0  0  0  0  0  0  0  0  0  0  0  0
   47.5930   26.5620   48.7370 H   0  0  0  0  0  0  0  0  0  0  0  0
   48.8880   29.9940   48.1290 S   0  0  0  0  0  0  0  0  0  0  0  0
   46.1060   32.6340   46.9380 C   0  0  0  0  0  0  0  0  0  0  0  0
   47.2240   31.8180   47.0060 C   0  0  0  0  0  0  0  0  0  0  0  0
   47.4270   30.9830   48.0740 C   0  0  0  0  0  0  0  0  0  0  0  0
   46.5080   30.9400   49.1100 C   0  0  0  0  0  0  0  0  0  0  0  0
   45.4020   31.7260   49.0730 C   0  0  0  0  0  0  0  0  0  0  0  0
   45.2240   32.5590   47.9860 C   0  0  0  0  0  0  0  0  0  0  0  0
   47.9440   31.8450   46.2030 H   0  0  0  0  0  0  0  0  0  0  0  0
   46.6400   30.2860   49.9750 H   0  0  0  0  0  0  0  0  0  0  0  0
   44.6340   31.7540   49.8410 H   0  0  0  0  0  0  0  0  0  0  0  0
   44.3380   33.1980   47.9440 H   0  0  0  0  0  0  0  0  0  0  0  0
   44.7270   35.3380   44.9070 C   0  0  0  0  0  0  0  0  0  0  0  0
   45.4710   35.2700   43.7090 C   0  0  0  0  0  0  0  0  0  0  0  0
   46.4450   34.2910   43.6020 C   0  0  0  0  0  0  0  0  0  0  0  0
   46.6660   33.4230   44.6350 N   0  0  0  0  0  0  0  0  0  0  0  0
   45.9200   33.5250   45.7810 C   0  0  0  0  0  0  0  0  0  0  0  0
   44.9540   34.4780   45.9180 N   0  0  0  0  0  0  0  0  0  0  0  0
   43.9760   36.1190   44.9470 H   0  0  0  0  0  0  0  0  0  0  0  0
   45.3650   35.9010   42.8590 H   0  0  0  0  0  0  0  0  0  0  0  0
   47.0990   34.0970   42.7640 H   0  0  0  0  0  0  0  0  0  0  0  0
  1  2  2  0  0  0  0
  1 10  1  0  0  0  0
  2  3  1  0  0  0  0
  3 11  1  0  0  0  0
  3  4  2  0  0  0  0
  5  4  1  0  0  0  0
  5  6  1  0  0  0  0
  6 12  1  0  0  0  0
  7  6  2  0  0  0  0
  7 13  1  0  0  0  0
  8  7  1  0  0  0  0
  9 10  1  0  0  0  0
  9  8  2  0  0  0  0
 10  5  2  0  0  0  0
 14  8  1  0  0  0  0
 15 23  1  0  0  0  0
 15  9  1  0  0  0  0
 16 17  1  0  0  0  0
 16 15  1  0  0  0  0
 18 20  1  0  0  0  0
 18 16  1  0  0  0  0
 19 18  1  0  0  0  0
 20 21  1  0  0  0  0
 21 23  1  0  0  0  0
 22 21  1  0  0  0  0
 23 24  1  0  0  0  0
 25  1  1  0  0  0  0
 26 27  2  0  0  0  0
 26 31  1  0  0  0  0
 27 28  1  0  0  0  0
 28 25  1  0  0  0  0
 28 29  2  0  0  0  0
 29 33  1  0  0  0  0
 30 29  1  0  0  0  0
 30 34  1  0  0  0  0
 31 30  2  0  0  0  0
 32 27  1  0  0  0  0
 35 31  1  0  0  0  0
 36 42  1  0  0  0  0
 36 41  1  0  0  0  0
 37 36  2  0  0  0  0
 38 37  1  0  0  0  0
 38 39  2  0  0  0  0
 39 40  1  0  0  0  0
 40 41  2  0  0  0  0
 40 26  1  0  0  0  0
 43 37  1  0  0  0  0
 44 38  1  0  0  0  0
M  END
>  <minimizedAffinity>
-6.6287322

>  <minimizedRMSD>
0.491259158

$$$$
