REMARK  Name = 
REMARK  3 active torsions:
REMARK  status: ('A' for Active; 'I' for Inactive)
REMARK    1  A    between atoms: C_3  and  C_7
REMARK    2  A    between atoms: C_7  and  C_8
REMARK    3  A    between atoms: C_8  and  C_16
REMARK                            x       y       z     vdW  Elec       q    Type
REMARK                         _______ _______ _______ _____ _____    ______ ____
ROOT
ATOM      1  C   UNL     1      48.191  35.309  41.894  0.00  0.00    +0.000 C 
ATOM      2  H   UNL     1      48.134  36.367  42.224  0.00  0.00    +0.000 HD
ATOM      3  H   UNL     1      48.723  34.732  42.668  0.00  0.00    +0.000 HD
ENDROOT
BRANCH   1   4
ATOM      4  C   UNL     1      48.989  35.241  40.621  0.00  0.00    +0.000 C 
ATOM      5  C   UNL     1      49.159  36.561  39.955  0.00  0.00    +0.000 C 
ATOM      6  H   UNL     1      50.185  36.989  40.074  0.00  0.00    +0.000 HD
ATOM      7  C   UNL     1      48.737  36.605  38.528  0.00  0.00    +0.000 C 
ATOM      8  H   UNL     1      49.355  37.396  38.015  0.00  0.00    +0.000 HD
ATOM      9  O   UNL     1      48.859  35.481  37.785  0.00  0.00    +0.000 OA
ATOM     10  C   UNL     1      49.003  34.285  38.415  0.00  0.00    +0.000 C 
ATOM     11  H   UNL     1      48.517  33.484  37.785  0.00  0.00    +0.000 HD
ATOM     12  C   UNL     1      48.231  34.276  39.708  0.00  0.00    +0.000 C 
ATOM     13  H   UNL     1      48.152  33.295  40.190  0.00  0.00    +0.000 HD
ENDBRANCH   1   4
BRANCH   1  14
ATOM     14  C   UNL     1      46.778  34.763  41.713  0.00  0.00    +0.000 C 
ATOM     15  H   UNL     1      46.222  35.354  40.980  0.00  0.00    +0.000 HD
ATOM     16  H   UNL     1      46.834  33.724  41.335  0.00  0.00    +0.000 HD
BRANCH  14  19
ATOM     17  C   UNL     1      44.554  36.044  44.487  0.00  0.00    +0.000 A 
ATOM     18  C   UNL     1      45.211  35.943  43.249  0.00  0.00    +0.000 A 
ATOM     19  C   UNL     1      46.081  34.875  43.017  0.00  0.00    +0.000 A 
ATOM     20  N   UNL     1      46.242  33.970  44.039  0.00  0.00    +0.000 NA
ATOM     21  C   UNL     1      45.599  34.104  45.200  0.00  0.00    +0.000 A 
ATOM     22  N   UNL     1      44.762  35.117  45.443  0.00  0.00    +0.000 NA
ATOM     23  H   UNL     1      43.905  36.902  44.569  0.00  0.00    +0.000 HD
ATOM     24  H   UNL     1      45.063  36.667  42.471  0.00  0.00    +0.000 HD
ATOM     25  H   UNL     1      45.816  33.318  45.924  0.00  0.00    +0.000 HD
ENDBRANCH  14  19
ENDBRANCH   1  14
TORSDOF 3
