
 OpenBabel03252508393D

 42 45  0  0  0  0  0  0  0  0999 V2000
   45.1790   33.9370   40.6930 C   0  0  0  0  0  0  0  0  0  0  0  0
   44.1240   33.6320   39.8750 C   0  0  0  0  0  0  0  0  0  0  0  0
   44.4170   33.1450   38.6340 C   0  0  0  0  0  0  0  0  0  0  0  0
   45.7010   32.9480   38.1670 C   0  0  0  0  0  0  0  0  0  0  0  0
   46.7310   33.2670   39.0180 C   0  0  0  0  0  0  0  0  0  0  0  0
   46.4970   33.7580   40.2750 C   0  0  0  0  0  0  0  0  0  0  0  0
   43.5940   32.9000   37.9750 H   0  0  0  0  0  0  0  0  0  0  0  0
   45.8590   32.5570   37.1650 H   0  0  0  0  0  0  0  0  0  0  0  0
   47.7360   33.1050   38.6320 H   0  0  0  0  0  0  0  0  0  0  0  0
   40.8510   35.2760   40.7780 C   0  0  0  0  0  0  0  0  0  0  0  0
   42.1450   35.0950   40.2610 C   0  0  0  0  0  0  0  0  0  0  0  0
   42.7920   33.8510   40.3960 C   0  0  0  0  0  0  0  0  0  0  0  0
   42.0870   32.8980   41.0360 N   0  0  0  0  0  0  0  0  0  0  0  0
   40.8600   33.0820   41.5220 C   0  0  0  0  0  0  0  0  0  0  0  0
   40.2440   34.2690   41.3930 N   0  0  0  0  0  0  0  0  0  0  0  0
   40.2440   36.5290   40.6230 N   0  0  0  0  0  0  0  0  0  0  0  0
   42.6650   35.9110   39.7500 H   0  0  0  0  0  0  0  0  0  0  0  0
   40.3110   32.2960   42.0350 H   0  0  0  0  0  0  0  0  0  0  0  0
   39.4250   36.7040   39.9910 H   0  0  0  0  0  0  0  0  0  0  0  0
   40.7950   37.1490   41.2570 H   0  0  0  0  0  0  0  0  0  0  0  0
   47.6600   34.0640   41.1000 C   0  0  0  0  0  0  0  0  0  0  0  0
   48.1180   35.3690   41.0030 C   0  0  0  0  0  0  0  0  0  0  0  0
   49.2160   35.8490   41.7140 C   0  0  0  0  0  0  0  0  0  0  0  0
   49.8690   34.9750   42.5470 C   0  0  0  0  0  0  0  0  0  0  0  0
   49.4160   33.6670   42.6480 C   0  0  0  0  0  0  0  0  0  0  0  0
   48.3290   33.2020   41.9420 C   0  0  0  0  0  0  0  0  0  0  0  0
   47.6470   36.1140   40.3620 H   0  0  0  0  0  0  0  0  0  0  0  0
   49.5520   36.8720   41.6210 H   0  0  0  0  0  0  0  0  0  0  0  0
   50.7310   35.3310   43.1130 H   0  0  0  0  0  0  0  0  0  0  0  0
   49.9310   33.0050   43.2960 H   0  0  0  0  0  0  0  0  0  0  0  0
   47.8090   31.8250   42.0130 C   0  0  0  0  0  3  0  0  0  0  0  0
   46.4060   31.6740   41.4540 C   0  0  0  0  0  3  0  0  0  0  0  0
   46.3190   32.1210   40.4400 H   0  0  0  0  0  0  0  0  0  0  0  0
   46.2230   30.1610   41.2770 C   0  0  0  0  0  3  0  0  0  0  0  0
   46.7880   29.5930   42.0490 H   0  0  0  0  0  0  0  0  0  0  0  0
   46.8370   29.8460   40.0520 O   0  0  0  0  0  0  0  0  0  0  0  0
   48.0670   30.4430   39.9200 C   0  0  0  0  0  3  0  0  0  0  0  0
   48.0490   31.2170   39.1320 H   0  0  0  0  0  0  0  0  0  0  0  0
   48.6840   30.8730   41.2190 C   0  0  0  0  0  3  0  0  0  0  0  0
   49.6570   31.3500   40.9870 H   0  0  0  0  0  0  0  0  0  0  0  0
   44.7830   34.8830   43.0950 N   0  0  0  0  0  0  0  0  0  0  0  0
   44.9600   34.4530   42.0140 C   0  0  0  0  0  0  0  0  0  0  0  0
  1 42  1  0  0  0  0
  2 12  1  0  0  0  0
  2  1  2  0  0  0  0
  3  2  1  0  0  0  0
  4  3  2  0  0  0  0
  4  5  1  0  0  0  0
  5  6  2  0  0  0  0
  6  1  1  0  0  0  0
  6 21  1  0  0  0  0
  7  3  1  0  0  0  0
  8  4  1  0  0  0  0
  9  5  1  0  0  0  0
 10 15  1  0  0  0  0
 11 12  1  0  0  0  0
 11 10  2  0  0  0  0
 12 13  2  0  0  0  0
 13 14  1  0  0  0  0
 14 18  1  0  0  0  0
 15 14  2  0  0  0  0
 16 10  1  0  0  0  0
 16 20  1  0  0  0  0
 17 11  1  0  0  0  0
 19 16  1  0  0  0  0
 21 26  1  0  0  0  0
 22 21  2  0  0  0  0
 22 23  1  0  0  0  0
 23 24  2  0  0  0  0
 24 25  1  0  0  0  0
 24 29  1  0  0  0  0
 25 30  1  0  0  0  0
 26 31  1  0  0  0  0
 26 25  2  0  0  0  0
 27 22  1  0  0  0  0
 28 23  1  0  0  0  0
 32 31  1  0  0  0  0
 33 32  1  0  0  0  0
 34 32  1  0  0  0  0
 34 35  1  0  0  0  0
 36 34  1  0  0  0  0
 37 36  1  0  0  0  0
 37 39  1  0  0  0  0
 38 37  1  0  0  0  0
 39 31  1  0  0  0  0
 40 39  1  0  0  0  0
 42 41  3  0  0  0  0
M  END
>  <minimizedAffinity>
-5.92888737

>  <minimizedRMSD>
0.298639476

$$$$
