
 OpenBabel03252509333D

 41 43  0  0  1  0  0  0  0  0999 V2000
   45.3110   32.8150   40.7830 C   0  0  1  0  0  0  0  0  0  0  0  0
   43.9770   33.0720   40.1370 C   0  0  0  0  0  0  0  0  0  0  0  0
   43.8100   31.8560   39.2600 C   0  0  0  0  0  0  0  0  0  0  0  0
   45.2010   31.3580   38.9600 C   0  0  0  0  0  0  0  0  0  0  0  0
   46.1410   32.3820   39.5810 C   0  0  1  0  0  0  0  0  0  0  0  0
   45.2410   31.9280   41.4430 H   0  0  0  0  0  0  0  0  0  0  0  0
   43.1450   33.0390   40.8990 H   0  0  0  0  0  0  0  0  0  0  0  0
   43.9070   34.0290   39.6280 H   0  0  0  0  0  0  0  0  0  0  0  0
   43.2080   31.0520   39.7640 H   0  0  0  0  0  0  0  0  0  0  0  0
   43.2320   32.1430   38.3730 H   0  0  0  0  0  0  0  0  0  0  0  0
   45.2830   31.3320   37.8590 H   0  0  0  0  0  0  0  0  0  0  0  0
   45.3820   30.3880   39.4510 H   0  0  0  0  0  0  0  0  0  0  0  0
   47.0940   31.9330   39.8870 H   0  0  0  0  0  0  0  0  0  0  0  0
   46.4260   33.5200   38.6570 C   0  0  0  0  0  3  0  0  0  0  0  0
   47.8430   33.9970   38.8950 C   0  0  0  0  0  3  0  0  0  0  0  0
   47.8970   34.8940   39.5570 H   0  0  0  0  0  0  0  0  0  0  0  0
   48.4590   34.4880   37.5780 C   0  0  0  0  0  3  0  0  0  0  0  0
   49.5080   34.7790   37.8520 H   0  0  0  0  0  0  0  0  0  0  0  0
   48.5840   33.4620   36.6630 O   0  0  0  0  0  0  0  0  0  0  0  0
   47.6560   32.4490   36.7920 C   0  0  0  0  0  3  0  0  0  0  0  0
   47.4430   31.9910   35.8080 H   0  0  0  0  0  0  0  0  0  0  0  0
   46.3570   33.1060   37.2350 C   0  0  0  0  0  3  0  0  0  0  0  0
   45.5350   32.4570   36.9540 H   0  0  0  0  0  0  0  0  0  0  0  0
   45.8630   33.8990   41.4200 O   0  0  0  0  0  0  0  0  0  0  0  0
   44.2970   35.3380   42.9090 O   0  0  0  0  0  0  0  0  0  0  0  0
   45.1520   34.1070   42.9290 P   0  0  1  0  0  0  0  0  0  0  0  0
   44.3000   32.7430   43.4060 O   0  0  0  0  0  0  0  0  0  0  0  0
   44.4930   31.9940   42.7920 H   0  0  0  0  0  0  0  0  0  0  0  0
   46.4020   34.2950   44.0640 O   0  0  0  0  0  0  0  0  0  0  0  0
   47.0270   33.0940   44.2120 C   0  0  0  0  0  0  0  0  0  0  0  0
   48.1070   33.3370   44.4360 H   0  0  0  0  0  0  0  0  0  0  0  0
   47.0570   32.4090   43.3740 H   0  0  0  0  0  0  0  0  0  0  0  0
   46.0260   32.3000   47.7080 C   0  0  0  0  0  0  0  0  0  0  0  0
   46.4830   33.0170   46.5970 C   0  0  0  0  0  0  0  0  0  0  0  0
   46.5490   32.3510   45.3850 C   0  0  0  0  0  0  0  0  0  0  0  0
   46.1680   31.0360   45.3360 N   0  0  0  0  0  0  0  0  0  0  0  0
   45.7310   30.3780   46.4330 C   0  0  0  0  0  0  0  0  0  0  0  0
   45.6660   31.0100   47.5970 N   0  0  0  0  0  0  0  0  0  0  0  0
   46.0010   32.8890   48.6280 H   0  0  0  0  0  0  0  0  0  0  0  0
   46.7850   34.0680   46.6500 H   0  0  0  0  0  0  0  0  0  0  0  0
   45.4430   29.3420   46.3370 H   0  0  0  0  0  0  0  0  0  0  0  0
  1 24  1  0  0  0  0
  1  6  1  1  0  0  0
  2  1  1  0  0  0  0
  2  7  1  0  0  0  0
  3  9  1  0  0  0  0
  3  2  1  0  0  0  0
  4  3  1  0  0  0  0
  4 12  1  0  0  0  0
  4  5  1  0  0  0  0
  5 13  1  1  0  0  0
  5  1  1  0  0  0  0
  8  2  1  0  0  0  0
 10  3  1  0  0  0  0
 11  4  1  0  0  0  0
 14 15  1  0  0  0  0
 14  5  1  0  0  0  0
 15 16  1  0  0  0  0
 17 18  1  0  0  0  0
 17 15  1  0  0  0  0
 19 20  1  0  0  0  0
 19 17  1  0  0  0  0
 20 22  1  0  0  0  0
 21 20  1  0  0  0  0
 22 14  1  0  0  0  0
 23 22  1  0  0  0  0
 24 26  1  0  0  0  0
 26 25  2  6  0  0  0
 26 27  1  0  0  0  0
 26 29  1  0  0  0  0
 28 27  1  0  0  0  0
 29 30  1  0  0  0  0
 30 31  1  0  0  0  0
 30 35  1  0  0  0  0
 32 30  1  0  0  0  0
 33 39  1  0  0  0  0
 34 40  1  0  0  0  0
 34 33  2  0  0  0  0
 35 34  1  0  0  0  0
 36 35  2  0  0  0  0
 36 37  1  0  0  0  0
 37 38  2  0  0  0  0
 38 33  1  0  0  0  0
 41 37  1  0  0  0  0
M  END
>  <minimizedAffinity>
-4.33790112

>  <minimizedRMSD>
3.51627636

$$$$
