
     RDKit          3D

 50 53  0  0  0  0  0  0  0  0999 V2000
   46.0113   35.7187   42.8326 C   0  0  0  0  0  0  0  0  0  0  0  0
   46.3828   34.4914   43.3879 C   0  0  0  0  0  0  0  0  0  0  0  0
   45.7778   34.0586   44.5448 C   0  0  0  0  0  0  0  0  0  0  0  0
   44.8401   34.8397   45.1081 N   0  0  0  0  0  0  0  0  0  0  0  0
   44.4715   36.0367   44.5756 C   0  0  0  0  0  0  0  0  0  0  0  0
   45.0632   36.4484   43.4533 N   0  0  0  0  0  0  0  0  0  0  0  0
   46.1717   32.7840   45.1076 C   0  0  0  0  0  0  0  0  0  0  0  0
   45.7928   31.6134   44.4997 C   0  0  0  0  0  0  0  0  0  0  0  0
   46.1824   30.4136   45.0537 C   0  0  0  0  0  0  0  0  0  0  0  0
   46.9439   30.3235   46.2034 C   0  0  0  0  0  0  0  0  0  0  0  0
   47.2930   31.5320   46.7676 C   0  0  0  0  0  0  0  0  0  0  0  0
   46.9088   32.6839   46.2204 N   0  0  0  0  0  0  0  0  0  0  0  0
   47.3980   33.7239   42.7254 C   0  0  0  0  0  0  0  0  0  0  0  0
   48.5111   33.5174   43.3281 O   0  0  0  0  0  0  0  0  0  0  0  0
   47.1423   33.2129   41.4182 N   0  0  0  0  0  0  0  0  0  0  0  0
   45.9452   32.5395   40.8949 C   0  0  0  0  0  0  0  0  0  0  0  0
   45.4830   33.2425   39.6217 C   0  0  0  0  0  0  0  0  0  0  0  0
   46.5462   33.0634   38.5523 C   0  0  0  0  0  0  0  0  0  0  0  0
   47.8099   32.5997   39.1746 C   0  0  0  0  0  0  0  0  0  0  0  0
   48.1728   33.3437   40.4352 C   0  0  1  0  0  0  0  0  0  0  0  0
   46.4233   36.1430   41.9296 H   0  0  0  0  0  0  0  0  0  0  0  0
   43.7011   36.6569   45.0570 H   0  0  0  0  0  0  0  0  0  0  0  0
   45.2102   31.5259   43.6213 H   0  0  0  0  0  0  0  0  0  0  0  0
   45.9051   29.4506   44.6055 H   0  0  0  0  0  0  0  0  0  0  0  0
   47.2628   29.3956   46.6585 H   0  0  0  0  0  0  0  0  0  0  0  0
   47.8973   31.5679   47.6832 H   0  0  0  0  0  0  0  0  0  0  0  0
   45.1414   32.8067   41.6407 H   0  0  0  0  0  0  0  0  0  0  0  0
   46.0627   31.4671   40.8011 H   0  0  0  0  0  0  0  0  0  0  0  0
   45.3748   34.3155   39.9023 H   0  0  0  0  0  0  0  0  0  0  0  0
   44.5096   32.7951   39.3578 H   0  0  0  0  0  0  0  0  0  0  0  0
   46.5975   33.8991   37.8618 H   0  0  0  0  0  0  0  0  0  0  0  0
   46.1537   32.2015   37.9351 H   0  0  0  0  0  0  0  0  0  0  0  0
   48.6693   32.5322   38.5117 H   0  0  0  0  0  0  0  0  0  0  0  0
   47.6277   31.5369   39.5183 H   0  0  0  0  0  0  0  0  0  0  0  0
   49.0437   32.7849   40.8443 H   0  0  0  0  0  0  0  0  0  0  0  0
   48.6584   34.7289   40.1485 C   0  0  1  0  0  0  0  0  0  0  0  0
   49.3404   34.9479   38.8307 C   0  0  2  0  0  0  0  0  0  0  0  0
   48.6675   34.4822   38.0608 H   0  0  0  0  0  0  0  0  0  0  0  0
   49.3085   36.4361   38.4497 C   0  0  2  0  0  0  0  0  0  0  0  0
   48.3455   36.6961   38.0132 H   0  0  0  0  0  0  0  0  0  0  0  0
   49.5625   37.1643   39.5907 O   0  0  0  0  0  0  0  0  0  0  0  0
   48.4888   37.1372   40.4764 C   0  0  1  0  0  0  0  0  0  0  0  0
   48.9411   37.1018   41.5051 H   0  0  0  0  0  0  0  0  0  0  0  0
   47.6815   35.8327   40.3538 C   0  0  1  0  0  0  0  0  0  0  0  0
   46.9976   36.0071   39.5017 H   0  0  0  0  0  0  0  0  0  0  0  0
   49.4765   34.9144   40.9188 H   0  0  0  0  0  0  0  0  0  0  0  0
   50.3580   34.5912   38.7424 H   0  0  0  0  0  0  0  0  0  0  0  0
   50.1257   36.5753   37.7252 H   0  0  0  0  0  0  0  0  0  0  0  0
   47.8643   38.0238   40.3663 H   0  0  0  0  0  0  0  0  0  0  0  0
   47.1900   35.7261   41.3282 H   0  0  0  0  0  0  0  0  0  0  0  0
  1  2  2  0
  1  6  1  0
  2  3  1  0
  3  7  1  0
  3  4  2  0
  5  4  1  0
  6  5  2  0
  7 12  2  0
  8  9  2  0
  8  7  1  0
  9 10  1  0
 10 11  2  0
 12 11  1  0
 13 14  2  0
 13  2  1  0
 15 13  1  0
 16 15  1  0
 17 16  1  0
 18 19  1  0
 18 17  1  0
 19 20  1  0
 20 15  1  0
  1 21  1  0
  5 22  1  0
  8 23  1  0
  9 24  1  0
 10 25  1  0
 11 26  1  0
 16 27  1  0
 16 28  1  0
 17 29  1  0
 17 30  1  0
 18 31  1  0
 18 32  1  0
 19 33  1  0
 19 34  1  0
 20 35  1  1
 36 37  1  0
 37 38  1  6
 37 39  1  0
 39 40  1  6
 39 41  1  0
 41 42  1  0
 42 43  1  1
 42 44  1  0
 44 45  1  6
 44 36  1  0
 36 46  1  1
 37 47  1  0
 39 48  1  0
 42 49  1  0
 44 50  1  0
 20 36  1  0
M  ISO  8  21  14  22  14  23  14  24  14  25  14  26  14  27  13  28  13
M  ISO  8  29  13  30  13  31  13  32  13  33  13  34  13  35  13  38  15
M  ISO  3  40  15  43  15  45  15
M  END
>  <DihAtoms>  (1) 
18,19,35,36

>  <DihDeg>  (1) 
-164.2122334187672

$$$$
