
     RDKit          3D

 44 47  0  0  0  0  0  0  0  0999 V2000
   46.8835   34.9132   42.1551 C   0  0  2  0  0  0  0  0  0  0  0  0
   46.3752   33.9049   41.1615 C   0  0  0  0  0  0  0  0  0  0  0  0
   47.5840   33.8857   40.2183 C   0  0  0  0  0  0  0  0  0  0  0  0
   48.7868   34.1073   41.1048 C   0  0  1  0  0  0  0  0  0  0  0  0
   48.2523   34.3106   42.4709 C   0  0  0  0  0  0  0  0  0  0  0  0
   44.4381   36.0806   44.7761 C   0  0  0  0  0  0  0  0  0  0  0  0
   45.1620   36.0938   43.5570 C   0  0  0  0  0  0  0  0  0  0  0  0
   46.0544   35.0033   43.3905 C   0  0  0  0  0  0  0  0  0  0  0  0
   46.1927   34.0119   44.3576 N   0  0  0  0  0  0  0  0  0  0  0  0
   45.4483   34.1018   45.4864 C   0  0  0  0  0  0  0  0  0  0  0  0
   44.5874   35.1207   45.6870 N   0  0  0  0  0  0  0  0  0  0  0  0
   49.6956   32.9149   41.1635 C   0  0  2  0  0  0  0  0  0  0  0  0
   49.5954   32.0145   42.2879 C   0  0  0  0  0  0  0  0  0  0  0  0
   50.8673   32.7938   41.9822 C   0  0  2  0  0  0  0  0  0  0  0  0
   46.9211   35.8715   41.6443 H   0  0  0  0  0  0  0  0  0  0  0  0
   45.5198   34.3505   40.6004 H   0  0  0  0  0  0  0  0  0  0  0  0
   46.1594   32.9256   41.5998 H   0  0  0  0  0  0  0  0  0  0  0  0
   47.4858   34.5899   39.3885 H   0  0  0  0  0  0  0  0  0  0  0  0
   47.6230   32.8268   39.8497 H   0  0  0  0  0  0  0  0  0  0  0  0
   49.2867   35.0225   40.7767 H   0  0  0  0  0  0  0  0  0  0  0  0
   47.9160   33.4420   43.0375 H   0  0  0  0  0  0  0  0  0  0  0  0
   48.7399   35.0946   43.0788 H   0  0  0  0  0  0  0  0  0  0  0  0
   43.7528   36.9049   44.9197 H   0  0  0  0  0  0  0  0  0  0  0  0
   45.0964   36.8208   42.7882 H   0  0  0  0  0  0  0  0  0  0  0  0
   45.6621   33.2688   46.1368 H   0  0  0  0  0  0  0  0  0  0  0  0
   49.7000   32.4636   40.1471 H   0  0  0  0  0  0  0  0  0  0  0  0
   49.3693   32.0876   43.3295 H   0  0  0  0  0  0  0  0  0  0  0  0
   49.6920   30.9043   42.0484 H   0  0  0  0  0  0  0  0  0  0  0  0
   51.7298   32.2194   41.5213 H   0  0  0  0  0  0  0  0  0  0  0  0
   51.3869   33.7877   42.9681 C   0  0  2  0  0  0  0  0  0  0  0  0
   50.3643   34.3992   43.8754 C   0  0  2  0  0  0  0  0  0  0  0  0
   50.5190   33.9942   44.8969 H   0  0  0  0  0  0  0  0  0  0  0  0
   50.6900   35.8919   44.0102 C   0  0  2  0  0  0  0  0  0  0  0  0
   51.6987   36.0146   44.4525 H   0  0  0  0  0  0  0  0  0  0  0  0
   50.5725   36.5835   42.8315 O   0  0  0  0  0  0  0  0  0  0  0  0
   50.9942   35.8553   41.7315 C   0  0  1  0  0  0  0  0  0  0  0  0
   50.1205   35.2878   41.3813 H   0  0  0  0  0  0  0  0  0  0  0  0
   52.0832   34.9203   42.2345 C   0  0  1  0  0  0  0  0  0  0  0  0
   52.8194   35.4334   42.8501 H   0  0  0  0  0  0  0  0  0  0  0  0
   52.2382   33.3287   43.5547 H   0  0  0  0  0  0  0  0  0  0  0  0
   49.3378   34.2943   43.5211 H   0  0  0  0  0  0  0  0  0  0  0  0
   49.9892   36.3583   44.7497 H   0  0  0  0  0  0  0  0  0  0  0  0
   51.4150   36.4952   40.9296 H   0  0  0  0  0  0  0  0  0  0  0  0
   52.5356   34.4667   41.3074 H   0  0  0  0  0  0  0  0  0  0  0  0
  1  5  1  0
  1  8  1  0
  2  1  1  0
  3  4  1  0
  3  2  1  0
  4 12  1  0
  4  5  1  0
  6 11  2  0
  7  6  1  0
  8  7  2  0
  8  9  1  0
  9 10  2  0
 10 11  1  0
 12 14  1  0
 12 13  1  0
 14 13  1  0
  1 15  1  6
  2 16  1  0
  2 17  1  0
  3 18  1  0
  3 19  1  0
  4 20  1  6
  5 21  1  0
  5 22  1  0
  6 23  1  0
  7 24  1  0
 10 25  1  0
 12 26  1  6
 13 27  1  0
 13 28  1  0
 14 29  1  6
 30 31  1  0
 31 32  1  1
 31 33  1  0
 33 34  1  1
 33 35  1  0
 35 36  1  0
 36 37  1  6
 36 38  1  0
 38 39  1  1
 38 30  1  0
 30 40  1  1
 31 41  1  0
 33 42  1  0
 36 43  1  0
 38 44  1  0
 14 30  1  0
M  ISO  8  15  13  16  13  17  13  18  13  19  13  20  13  21  13  22  13
M  ISO  8  23  14  24  14  25  14  26  13  27  13  28  13  29  13  32  15
M  ISO  3  34  15  37  15  39  15
M  END
>  <DihAtoms>  (1) 
11,13,29,30

>  <DihDeg>  (1) 
-60.20199749379212

$$$$
