
 OpenBabel03242517583D

 44 46  0  0  0  0  0  0  0  0999 V2000
   37.7210   31.1750   39.5400 C   0  0  0  0  0  0  0  0  0  0  0  0
   38.7050   31.0310   40.4610 C   0  0  0  0  0  0  0  0  0  0  0  0
   39.2370   32.1640   41.0450 C   0  0  0  0  0  0  0  0  0  0  0  0
   38.8090   33.4320   40.7330 C   0  0  0  0  0  0  0  0  0  0  0  0
   37.8050   33.5740   39.7960 C   0  0  0  0  0  0  0  0  0  0  0  0
   37.2750   32.4360   39.2120 C   0  0  0  0  0  0  0  0  0  0  0  0
   40.0230   32.1400   41.7860 H   0  0  0  0  0  0  0  0  0  0  0  0
   39.2100   34.3220   41.1760 H   0  0  0  0  0  0  0  0  0  0  0  0
   37.3940   34.5210   39.4750 H   0  0  0  0  0  0  0  0  0  0  0  0
   36.4770   32.5250   38.4640 H   0  0  0  0  0  0  0  0  0  0  0  0
   37.1680   29.7290   38.7600 S   0  0  0  0  0  0  0  0  0  0  0  0
   38.2210   28.9160   38.1360 O   0  0  0  0  0  0  0  0  0  0  0  0
   36.3120   30.2330   37.5680 O   0  0  0  0  0  0  0  0  0  0  0  0
   35.9380   28.8170   39.6160 C   0  0  0  0  0  3  0  0  0  0  0  0
   36.2350   27.3460   39.3230 C   0  0  0  0  0  3  0  0  0  0  0  0
   37.2720   27.0660   39.5020 H   0  0  0  0  0  0  0  0  0  0  0  0
   35.8240   26.9440   37.9350 C   0  0  0  0  0  3  0  0  0  0  0  0
   35.9320   25.8320   37.9150 H   0  0  0  0  0  0  0  0  0  0  0  0
   34.4990   27.2010   37.6750 O   0  0  0  0  0  0  0  0  0  0  0  0
   34.1160   28.4980   37.8880 C   0  0  0  0  0  3  0  0  0  0  0  0
   32.9860   28.4860   37.9160 H   0  0  0  0  0  0  0  0  0  0  0  0
   34.5380   29.0970   39.1880 C   0  0  0  0  0  3  0  0  0  0  0  0
   34.2660   30.1610   39.1670 H   0  0  0  0  0  0  0  0  0  0  0  0
   39.2710   29.8500   40.9170 O   0  0  0  0  0  0  0  0  0  0  0  0
   37.4390   28.6530   43.6790 C   0  0  0  0  0  0  0  0  0  0  0  0
   37.5460   27.2520   43.5280 C   0  0  0  0  0  0  0  0  0  0  0  0
   38.2510   26.7400   42.4690 C   0  0  0  0  0  0  0  0  0  0  0  0
   38.8000   27.6350   41.6360 N   0  0  0  0  0  0  0  0  0  0  0  0
   38.7020   28.9450   41.7760 C   0  0  0  0  0  0  0  0  0  0  0  0
   38.0210   29.4570   42.7990 N   0  0  0  0  0  0  0  0  0  0  0  0
   36.8830   29.0540   44.5160 H   0  0  0  0  0  0  0  0  0  0  0  0
   37.0490   26.6700   44.2830 H   0  0  0  0  0  0  0  0  0  0  0  0
   38.4370   25.3060   42.2290 C   0  0  0  0  0  0  0  0  0  0  0  0
   39.0350   24.8950   43.0900 H   0  0  0  0  0  0  0  0  0  0  0  0
   39.0030   25.1850   41.3040 H   0  0  0  0  0  0  0  0  0  0  0  0
   37.1410   24.5560   42.1580 C   0  0  0  0  0  0  0  0  0  0  0  0
   36.9580   23.8540   42.9680 H   0  0  0  0  0  0  0  0  0  0  0  0
   36.3470   25.3600   42.3090 H   0  0  0  0  0  0  0  0  0  0  0  0
   36.8610   23.9860   40.8410 C   0  0  0  0  0  3  0  0  0  0  0  0
   35.8560   23.7230   40.0150 C   0  0  0  0  0  3  0  0  0  0  0  0
   35.9360   22.9850   38.6950 C   0  0  0  0  0  0  0  0  0  0  0  0
   35.1800   22.2030   38.7390 H   0  0  0  0  0  0  0  0  0  0  0  0
   36.9520   22.5090   38.6480 H   0  0  0  0  0  0  0  0  0  0  0  0
   35.8400   23.7200   37.8860 H   0  0  0  0  0  0  0  0  0  0  0  0
  1  2  1  0  0  0  0
  2 24  1  0  0  0  0
  2  3  2  0  0  0  0
  3  7  1  0  0  0  0
  4  3  1  0  0  0  0
  4  8  1  0  0  0  0
  5  4  2  0  0  0  0
  6  1  2  0  0  0  0
  6  5  1  0  0  0  0
  9  5  1  0  0  0  0
 10  6  1  0  0  0  0
 11  1  1  0  0  0  0
 11 14  1  0  0  0  0
 12 11  2  0  0  0  0
 13 11  2  0  0  0  0
 15 16  1  0  0  0  0
 15 14  1  0  0  0  0
 17 15  1  0  0  0  0
 18 17  1  0  0  0  0
 19 20  1  0  0  0  0
 19 17  1  0  0  0  0
 20 21  1  0  0  0  0
 20 22  1  0  0  0  0
 22 14  1  0  0  0  0
 23 22  1  0  0  0  0
 24 29  1  0  0  0  0
 25 31  1  0  0  0  0
 26 25  1  0  0  0  0
 26 32  1  0  0  0  0
 27 26  2  0  0  0  0
 28 29  2  0  0  0  0
 28 27  1  0  0  0  0
 29 30  1  0  0  0  0
 30 25  2  0  0  0  0
 33 27  1  0  0  0  0
 33 34  1  0  0  0  0
 35 33  1  0  0  0  0
 36 33  1  0  0  0  0
 36 38  1  0  0  0  0
 36 37  1  0  0  0  0
 39 36  1  0  0  0  0
 40 39  2  0  0  0  0
 41 42  1  0  0  0  0
 41 40  1  0  0  0  0
 43 41  1  0  0  0  0
 44 41  1  0  0  0  0
M  END
>  <minimizedAffinity>
-5.6983695

$$$$

 OpenBabel03242517583D

 44 46  0  0  0  0  0  0  0  0999 V2000
   37.9710   31.7010   39.0350 C   0  0  0  0  0  0  0  0  0  0  0  0
   38.9890   31.4260   39.8860 C   0  0  0  0  0  0  0  0  0  0  0  0
   39.4080   32.4100   40.7590 C   0  0  0  0  0  0  0  0  0  0  0  0
   38.8330   33.6580   40.8020 C   0  0  0  0  0  0  0  0  0  0  0  0
   37.7950   33.9340   39.9350 C   0  0  0  0  0  0  0  0  0  0  0  0
   37.3800   32.9450   39.0600 C   0  0  0  0  0  0  0  0  0  0  0  0
   40.2100   32.2760   41.4690 H   0  0  0  0  0  0  0  0  0  0  0  0
   39.1450   34.4340   41.4730 H   0  0  0  0  0  0  0  0  0  0  0  0
   37.2730   34.8800   39.8820 H   0  0  0  0  0  0  0  0  0  0  0  0
   36.5570   33.1410   38.3620 H   0  0  0  0  0  0  0  0  0  0  0  0
   37.5610   30.4680   37.8880 S   0  0  0  0  0  0  0  0  0  0  0  0
   38.6480   29.5340   37.5620 O   0  0  0  0  0  0  0  0  0  0  0  0
   37.3030   31.2370   36.5650 O   0  0  0  0  0  0  0  0  0  0  0  0
   35.9830   29.7270   38.0870 C   0  0  0  0  0  3  0  0  0  0  0  0
   36.1110   28.8010   39.2970 C   0  0  0  0  0  3  0  0  0  0  0  0
   36.5450   29.2830   40.1720 H   0  0  0  0  0  0  0  0  0  0  0  0
   36.8630   27.5400   38.9770 C   0  0  0  0  0  3  0  0  0  0  0  0
   36.7330   26.8930   39.8780 H   0  0  0  0  0  0  0  0  0  0  0  0
   36.3150   26.8430   37.9270 O   0  0  0  0  0  0  0  0  0  0  0  0
   36.1640   27.5700   36.7760 C   0  0  0  0  0  3  0  0  0  0  0  0
   35.4590   26.9730   36.1240 H   0  0  0  0  0  0  0  0  0  0  0  0
   35.5240   28.9090   36.9290 C   0  0  0  0  0  3  0  0  0  0  0  0
   35.5780   29.4160   35.9560 H   0  0  0  0  0  0  0  0  0  0  0  0
   39.6940   30.2380   40.0060 O   0  0  0  0  0  0  0  0  0  0  0  0
   41.1570   28.2210   42.4980 C   0  0  0  0  0  0  0  0  0  0  0  0
   40.0420   27.8570   43.2850 C   0  0  0  0  0  0  0  0  0  0  0  0
   38.7970   28.3160   42.9420 C   0  0  0  0  0  0  0  0  0  0  0  0
   38.7320   29.0980   41.8550 N   0  0  0  0  0  0  0  0  0  0  0  0
   39.7740   29.4390   41.1170 C   0  0  0  0  0  0  0  0  0  0  0  0
   40.9900   29.0000   41.4370 N   0  0  0  0  0  0  0  0  0  0  0  0
   42.1390   27.8570   42.7700 H   0  0  0  0  0  0  0  0  0  0  0  0
   40.2610   27.2210   44.1240 H   0  0  0  0  0  0  0  0  0  0  0  0
   37.5730   27.9860   43.6790 C   0  0  0  0  0  0  0  0  0  0  0  0
   37.0930   28.9570   43.9880 H   0  0  0  0  0  0  0  0  0  0  0  0
   37.8510   27.4190   44.5690 H   0  0  0  0  0  0  0  0  0  0  0  0
   36.5860   27.2200   42.8500 C   0  0  0  0  0  0  0  0  0  0  0  0
   35.6210   27.0380   43.3160 H   0  0  0  0  0  0  0  0  0  0  0  0
   36.3440   27.9230   41.9860 H   0  0  0  0  0  0  0  0  0  0  0  0
   37.1460   26.0240   42.2220 C   0  0  0  0  0  3  0  0  0  0  0  0
   36.9510   24.7150   42.1210 C   0  0  0  0  0  3  0  0  0  0  0  0
   37.8520   23.7150   41.4250 C   0  0  0  0  0  0  0  0  0  0  0  0
   38.0370   22.9210   42.1470 H   0  0  0  0  0  0  0  0  0  0  0  0
   38.8180   24.2430   41.2060 H   0  0  0  0  0  0  0  0  0  0  0  0
   37.3730   23.4230   40.4830 H   0  0  0  0  0  0  0  0  0  0  0  0
  1  6  2  0  0  0  0
  1  2  1  0  0  0  0
  2 24  1  0  0  0  0
  2  3  2  0  0  0  0
  3  4  1  0  0  0  0
  3  7  1  0  0  0  0
  4  8  1  0  0  0  0
  5  4  2  0  0  0  0
  6  5  1  0  0  0  0
  9  5  1  0  0  0  0
 10  6  1  0  0  0  0
 11 14  1  0  0  0  0
 11  1  1  0  0  0  0
 12 11  2  0  0  0  0
 13 11  2  0  0  0  0
 14 15  1  0  0  0  0
 15 16  1  0  0  0  0
 17 15  1  0  0  0  0
 17 18  1  0  0  0  0
 19 17  1  0  0  0  0
 20 22  1  0  0  0  0
 20 19  1  0  0  0  0
 21 20  1  0  0  0  0
 22 14  1  0  0  0  0
 23 22  1  0  0  0  0
 24 29  1  0  0  0  0
 25 31  1  0  0  0  0
 25 26  1  0  0  0  0
 26 32  1  0  0  0  0
 27 26  2  0  0  0  0
 27 33  1  0  0  0  0
 28 27  1  0  0  0  0
 29 30  1  0  0  0  0
 29 28  2  0  0  0  0
 30 25  2  0  0  0  0
 33 34  1  0  0  0  0
 33 35  1  0  0  0  0
 36 37  1  0  0  0  0
 36 33  1  0  0  0  0
 38 36  1  0  0  0  0
 39 36  1  0  0  0  0
 40 39  2  0  0  0  0
 41 40  1  0  0  0  0
 41 42  1  0  0  0  0
 43 41  1  0  0  0  0
 44 41  1  0  0  0  0
M  END
>  <minimizedAffinity>
-5.65160656

$$$$

 OpenBabel03242517583D

 44 46  0  0  0  0  0  0  0  0999 V2000
   37.7080   29.8610   39.7310 C   0  0  0  0  0  0  0  0  0  0  0  0
   37.4240   29.3250   40.9420 C   0  0  0  0  0  0  0  0  0  0  0  0
   36.1430   28.8660   41.1790 C   0  0  0  0  0  0  0  0  0  0  0  0
   35.1450   28.9290   40.2360 C   0  0  0  0  0  0  0  0  0  0  0  0
   35.4400   29.4740   39.0030 C   0  0  0  0  0  0  0  0  0  0  0  0
   36.7240   29.9340   38.7700 C   0  0  0  0  0  0  0  0  0  0  0  0
   35.8310   28.4260   42.1150 H   0  0  0  0  0  0  0  0  0  0  0  0
   34.1450   28.5780   40.4030 H   0  0  0  0  0  0  0  0  0  0  0  0
   34.7330   29.5740   38.1900 H   0  0  0  0  0  0  0  0  0  0  0  0
   36.9820   30.3720   37.7970 H   0  0  0  0  0  0  0  0  0  0  0  0
   39.2980   30.5210   39.5260 S   0  0  0  0  0  0  0  0  0  0  0  0
   39.6190   30.9580   38.1600 O   0  0  0  0  0  0  0  0  0  0  0  0
   40.2530   29.3250   39.7830 O   0  0  0  0  0  0  0  0  0  0  0  0
   39.8540   31.5950   40.7970 C   0  0  0  0  0  3  0  0  0  0  0  0
   38.7160   32.5900   41.0260 C   0  0  0  0  0  3  0  0  0  0  0  0
   37.7460   32.1170   41.1680 H   0  0  0  0  0  0  0  0  0  0  0  0
   38.6320   33.6250   39.9390 C   0  0  0  0  0  3  0  0  0  0  0  0
   37.8910   34.3720   40.3130 H   0  0  0  0  0  0  0  0  0  0  0  0
   39.8090   34.3120   39.7650 O   0  0  0  0  0  0  0  0  0  0  0  0
   40.9040   33.5220   39.5370 C   0  0  0  0  0  3  0  0  0  0  0  0
   41.8040   34.1860   39.7020 H   0  0  0  0  0  0  0  0  0  0  0  0
   41.0840   32.3710   40.4680 C   0  0  0  0  0  3  0  0  0  0  0  0
   41.9230   31.7690   40.0950 H   0  0  0  0  0  0  0  0  0  0  0  0
   38.2810   29.1650   42.0200 O   0  0  0  0  0  0  0  0  0  0  0  0
   40.5380   27.0270   43.6800 C   0  0  0  0  0  0  0  0  0  0  0  0
   40.0290   25.7470   43.3640 C   0  0  0  0  0  0  0  0  0  0  0  0
   38.9090   25.6420   42.5800 C   0  0  0  0  0  0  0  0  0  0  0  0
   38.3680   26.7960   42.1620 N   0  0  0  0  0  0  0  0  0  0  0  0
   38.8430   27.9930   42.4560 C   0  0  0  0  0  0  0  0  0  0  0  0
   39.9300   28.1110   43.2160 N   0  0  0  0  0  0  0  0  0  0  0  0
   41.4220   27.1070   44.2970 H   0  0  0  0  0  0  0  0  0  0  0  0
   40.5790   24.9210   43.7750 H   0  0  0  0  0  0  0  0  0  0  0  0
   38.3090   24.3660   42.1800 C   0  0  0  0  0  0  0  0  0  0  0  0
   38.4380   23.6480   43.0390 H   0  0  0  0  0  0  0  0  0  0  0  0
   38.8490   23.9910   41.3090 H   0  0  0  0  0  0  0  0  0  0  0  0
   36.8430   24.4810   41.8840 C   0  0  0  0  0  0  0  0  0  0  0  0
   36.2050   23.7530   42.3770 H   0  0  0  0  0  0  0  0  0  0  0  0
   36.5420   25.4730   42.3560 H   0  0  0  0  0  0  0  0  0  0  0  0
   36.5400   24.6290   40.4610 C   0  0  0  0  0  3  0  0  0  0  0  0
   36.5450   25.5300   39.4860 C   0  0  0  0  0  3  0  0  0  0  0  0
   36.0320   25.3390   38.0730 C   0  0  0  0  0  0  0  0  0  0  0  0
   35.3540   26.1700   37.8830 H   0  0  0  0  0  0  0  0  0  0  0  0
   35.4480   24.3810   38.0640 H   0  0  0  0  0  0  0  0  0  0  0  0
   36.8980   25.2460   37.4060 H   0  0  0  0  0  0  0  0  0  0  0  0
  1  2  1  0  0  0  0
  2  3  2  0  0  0  0
  2 24  1  0  0  0  0
  3  7  1  0  0  0  0
  4  8  1  0  0  0  0
  4  3  1  0  0  0  0
  5  4  2  0  0  0  0
  6  5  1  0  0  0  0
  6  1  2  0  0  0  0
  9  5  1  0  0  0  0
 10  6  1  0  0  0  0
 11  1  1  0  0  0  0
 11 13  2  0  0  0  0
 11 14  1  0  0  0  0
 12 11  2  0  0  0  0
 14 15  1  0  0  0  0
 15 16  1  0  0  0  0
 17 18  1  0  0  0  0
 17 15  1  0  0  0  0
 19 17  1  0  0  0  0
 20 21  1  0  0  0  0
 20 19  1  0  0  0  0
 20 22  1  0  0  0  0
 22 14  1  0  0  0  0
 23 22  1  0  0  0  0
 24 29  1  0  0  0  0
 25 31  1  0  0  0  0
 26 25  1  0  0  0  0
 26 32  1  0  0  0  0
 27 26  2  0  0  0  0
 28 29  2  0  0  0  0
 28 27  1  0  0  0  0
 29 30  1  0  0  0  0
 30 25  2  0  0  0  0
 33 27  1  0  0  0  0
 33 34  1  0  0  0  0
 35 33  1  0  0  0  0
 36 33  1  0  0  0  0
 36 38  1  0  0  0  0
 36 37  1  0  0  0  0
 39 36  1  0  0  0  0
 40 39  2  0  0  0  0
 41 40  1  0  0  0  0
 42 41  1  0  0  0  0
 43 41  1  0  0  0  0
 44 41  1  0  0  0  0
M  END
>  <minimizedAffinity>
-5.57226801

$$$$

 OpenBabel03242517583D

 44 46  0  0  0  0  0  0  0  0999 V2000
   36.5540   30.3960   38.6420 C   0  0  0  0  0  0  0  0  0  0  0  0
   36.4400   30.4850   39.9890 C   0  0  0  0  0  0  0  0  0  0  0  0
   36.8900   31.6290   40.6190 C   0  0  0  0  0  0  0  0  0  0  0  0
   37.4480   32.6830   39.9350 C   0  0  0  0  0  0  0  0  0  0  0  0
   37.5600   32.5890   38.5620 C   0  0  0  0  0  0  0  0  0  0  0  0
   37.1090   31.4400   37.9350 C   0  0  0  0  0  0  0  0  0  0  0  0
   36.8380   31.7820   41.6870 H   0  0  0  0  0  0  0  0  0  0  0  0
   37.8020   33.5780   40.4070 H   0  0  0  0  0  0  0  0  0  0  0  0
   37.9820   33.3560   37.9270 H   0  0  0  0  0  0  0  0  0  0  0  0
   37.1890   31.3430   36.8460 H   0  0  0  0  0  0  0  0  0  0  0  0
   36.0760   28.8960   37.9180 S   0  0  0  0  0  0  0  0  0  0  0  0
   35.6830   28.9850   36.5040 O   0  0  0  0  0  0  0  0  0  0  0  0
   34.7690   28.5050   38.6580 O   0  0  0  0  0  0  0  0  0  0  0  0
   37.0540   27.4980   38.3280 C   0  0  0  0  0  3  0  0  0  0  0  0
   38.4940   28.0070   38.4030 C   0  0  0  0  0  3  0  0  0  0  0  0
   38.6110   28.8930   39.0260 H   0  0  0  0  0  0  0  0  0  0  0  0
   39.0870   28.2500   37.0440 C   0  0  0  0  0  3  0  0  0  0  0  0
   40.1700   28.4450   37.2360 H   0  0  0  0  0  0  0  0  0  0  0  0
   39.0390   27.1410   36.2350 O   0  0  0  0  0  0  0  0  0  0  0  0
   37.7900   26.6010   36.0790 C   0  0  0  0  0  3  0  0  0  0  0  0
   37.9510   25.5680   35.6480 H   0  0  0  0  0  0  0  0  0  0  0  0
   37.0100   26.3890   37.3330 C   0  0  0  0  0  3  0  0  0  0  0  0
   36.0000   26.0670   37.0460 H   0  0  0  0  0  0  0  0  0  0  0  0
   35.9070   29.5440   40.8580 O   0  0  0  0  0  0  0  0  0  0  0  0
   38.0650   28.5770   43.4700 C   0  0  0  0  0  0  0  0  0  0  0  0
   38.0190   27.1660   43.3940 C   0  0  0  0  0  0  0  0  0  0  0  0
   37.2390   26.5690   42.4380 C   0  0  0  0  0  0  0  0  0  0  0  0
   36.5610   27.3930   41.6260 N   0  0  0  0  0  0  0  0  0  0  0  0
   36.6040   28.7120   41.6950 C   0  0  0  0  0  0  0  0  0  0  0  0
   37.3570   29.3070   42.6190 N   0  0  0  0  0  0  0  0  0  0  0  0
   38.6810   29.0460   44.2250 H   0  0  0  0  0  0  0  0  0  0  0  0
   38.6220   26.6480   44.1160 H   0  0  0  0  0  0  0  0  0  0  0  0
   37.1320   25.1170   42.2610 C   0  0  0  0  0  0  0  0  0  0  0  0
   36.1070   24.8090   42.6120 H   0  0  0  0  0  0  0  0  0  0  0  0
   37.8890   24.6390   42.8850 H   0  0  0  0  0  0  0  0  0  0  0  0
   37.2820   24.6950   40.8300 C   0  0  0  0  0  0  0  0  0  0  0  0
   37.5140   25.4900   40.1260 H   0  0  0  0  0  0  0  0  0  0  0  0
   38.2190   24.0460   40.8290 H   0  0  0  0  0  0  0  0  0  0  0  0
   36.2110   23.8170   40.3600 C   0  0  0  0  0  3  0  0  0  0  0  0
   35.3630   23.6610   39.3510 C   0  0  0  0  0  3  0  0  0  0  0  0
   34.2560   22.6320   39.2470 C   0  0  0  0  0  0  0  0  0  0  0  0
   33.3510   23.1850   39.0010 H   0  0  0  0  0  0  0  0  0  0  0  0
   34.1400   22.1740   40.2650 H   0  0  0  0  0  0  0  0  0  0  0  0
   34.5730   21.8610   38.5340 H   0  0  0  0  0  0  0  0  0  0  0  0
  1  2  1  0  0  0  0
  2  3  2  0  0  0  0
  2 24  1  0  0  0  0
  3  7  1  0  0  0  0
  4  8  1  0  0  0  0
  4  3  1  0  0  0  0
  5  4  2  0  0  0  0
  6  5  1  0  0  0  0
  6  1  2  0  0  0  0
  9  5  1  0  0  0  0
 10  6  1  0  0  0  0
 11 14  1  0  0  0  0
 11  1  1  0  0  0  0
 11 13  2  0  0  0  0
 12 11  2  0  0  0  0
 14 15  1  0  0  0  0
 15 16  1  0  0  0  0
 17 18  1  0  0  0  0
 17 15  1  0  0  0  0
 19 17  1  0  0  0  0
 20 19  1  0  0  0  0
 20 22  1  0  0  0  0
 21 20  1  0  0  0  0
 22 14  1  0  0  0  0
 23 22  1  0  0  0  0
 24 29  1  0  0  0  0
 25 31  1  0  0  0  0
 26 25  1  0  0  0  0
 26 32  1  0  0  0  0
 27 26  2  0  0  0  0
 28 29  2  0  0  0  0
 28 27  1  0  0  0  0
 29 30  1  0  0  0  0
 30 25  2  0  0  0  0
 33 27  1  0  0  0  0
 33 34  1  0  0  0  0
 33 35  1  0  0  0  0
 36 33  1  0  0  0  0
 37 36  1  0  0  0  0
 38 36  1  0  0  0  0
 39 36  1  0  0  0  0
 40 39  2  0  0  0  0
 41 40  1  0  0  0  0
 41 43  1  0  0  0  0
 42 41  1  0  0  0  0
 44 41  1  0  0  0  0
M  END
>  <minimizedAffinity>
-5.50987816

$$$$

 OpenBabel03242517583D

 44 46  0  0  0  0  0  0  0  0999 V2000
   36.4830   30.0870   38.5150 C   0  0  0  0  0  0  0  0  0  0  0  0
   35.8570   29.3670   39.4770 C   0  0  0  0  0  0  0  0  0  0  0  0
   34.9660   28.3830   39.0950 C   0  0  0  0  0  0  0  0  0  0  0  0
   34.6880   28.1030   37.7780 C   0  0  0  0  0  0  0  0  0  0  0  0
   35.3290   28.8380   36.8010 C   0  0  0  0  0  0  0  0  0  0  0  0
   36.2210   29.8240   37.1880 C   0  0  0  0  0  0  0  0  0  0  0  0
   34.4240   27.7640   39.7950 H   0  0  0  0  0  0  0  0  0  0  0  0
   33.9990   27.3440   37.4640 H   0  0  0  0  0  0  0  0  0  0  0  0
   35.1860   28.7030   35.7370 H   0  0  0  0  0  0  0  0  0  0  0  0
   36.7420   30.4200   36.4290 H   0  0  0  0  0  0  0  0  0  0  0  0
   37.5060   31.3800   39.0510 S   0  0  0  0  0  0  0  0  0  0  0  0
   37.0650   32.0530   40.2810 O   0  0  0  0  0  0  0  0  0  0  0  0
   37.3740   32.4640   37.9490 O   0  0  0  0  0  0  0  0  0  0  0  0
   39.2330   31.0880   38.9450 C   0  0  0  0  0  3  0  0  0  0  0  0
   39.6480   30.5600   40.3190 C   0  0  0  0  0  3  0  0  0  0  0  0
   39.0290   29.7390   40.6760 H   0  0  0  0  0  0  0  0  0  0  0  0
   39.7130   31.6470   41.3540 C   0  0  0  0  0  3  0  0  0  0  0  0
   40.1860   31.1660   42.2440 H   0  0  0  0  0  0  0  0  0  0  0  0
   40.5430   32.6790   40.9940 O   0  0  0  0  0  0  0  0  0  0  0  0
   40.2580   33.2460   39.7800 C   0  0  0  0  0  3  0  0  0  0  0  0
   41.1690   33.8550   39.5010 H   0  0  0  0  0  0  0  0  0  0  0  0
   40.0550   32.2950   38.6490 C   0  0  0  0  0  3  0  0  0  0  0  0
   39.7210   32.8780   37.7800 H   0  0  0  0  0  0  0  0  0  0  0  0
   36.0000   29.4870   40.8510 O   0  0  0  0  0  0  0  0  0  0  0  0
   38.0490   28.6640   43.5970 C   0  0  0  0  0  0  0  0  0  0  0  0
   38.3890   27.3190   43.3280 C   0  0  0  0  0  0  0  0  0  0  0  0
   37.9020   26.7140   42.1990 C   0  0  0  0  0  0  0  0  0  0  0  0
   37.1190   27.4680   41.4140 N   0  0  0  0  0  0  0  0  0  0  0  0
   36.8010   28.7260   41.6630 C   0  0  0  0  0  0  0  0  0  0  0  0
   37.2660   29.3270   42.7560 N   0  0  0  0  0  0  0  0  0  0  0  0
   38.4350   29.1400   44.4880 H   0  0  0  0  0  0  0  0  0  0  0  0
   39.0300   26.8540   44.0550 H   0  0  0  0  0  0  0  0  0  0  0  0
   38.2060   25.3320   41.8170 C   0  0  0  0  0  0  0  0  0  0  0  0
   39.0120   24.9600   42.5090 H   0  0  0  0  0  0  0  0  0  0  0  0
   38.5790   25.3340   40.7910 H   0  0  0  0  0  0  0  0  0  0  0  0
   37.0220   24.4210   41.9470 C   0  0  0  0  0  0  0  0  0  0  0  0
   37.1610   23.5570   42.5920 H   0  0  0  0  0  0  0  0  0  0  0  0
   36.2460   25.0500   42.4960 H   0  0  0  0  0  0  0  0  0  0  0  0
   36.3990   24.0780   40.6700 C   0  0  0  0  0  3  0  0  0  0  0  0
   36.1200   24.5930   39.4780 C   0  0  0  0  0  3  0  0  0  0  0  0
   35.3200   23.9360   38.3710 C   0  0  0  0  0  0  0  0  0  0  0  0
   34.5580   24.6570   38.0810 H   0  0  0  0  0  0  0  0  0  0  0  0
   34.8210   23.0360   38.8190 H   0  0  0  0  0  0  0  0  0  0  0  0
   36.0200   23.6150   37.5900 H   0  0  0  0  0  0  0  0  0  0  0  0
  1 11  1  0  0  0  0
  1  2  1  0  0  0  0
  2 24  1  0  0  0  0
  3  2  2  0  0  0  0
  3  7  1  0  0  0  0
  4  3  1  0  0  0  0
  5  6  1  0  0  0  0
  5  4  2  0  0  0  0
  6  1  2  0  0  0  0
  8  4  1  0  0  0  0
  9  5  1  0  0  0  0
 10  6  1  0  0  0  0
 11 12  2  0  0  0  0
 13 11  2  0  0  0  0
 14 11  1  0  0  0  0
 14 15  1  0  0  0  0
 15 16  1  0  0  0  0
 15 17  1  0  0  0  0
 17 18  1  0  0  0  0
 19 17  1  0  0  0  0
 20 19  1  0  0  0  0
 21 20  1  0  0  0  0
 22 14  1  0  0  0  0
 22 20  1  0  0  0  0
 23 22  1  0  0  0  0
 24 29  1  0  0  0  0
 25 31  1  0  0  0  0
 26 25  1  0  0  0  0
 26 32  1  0  0  0  0
 27 26  2  0  0  0  0
 28 29  2  0  0  0  0
 28 27  1  0  0  0  0
 29 30  1  0  0  0  0
 30 25  2  0  0  0  0
 33 36  1  0  0  0  0
 33 27  1  0  0  0  0
 33 34  1  0  0  0  0
 35 33  1  0  0  0  0
 36 38  1  0  0  0  0
 36 37  1  0  0  0  0
 39 36  1  0  0  0  0
 40 39  2  0  0  0  0
 41 43  1  0  0  0  0
 41 40  1  0  0  0  0
 42 41  1  0  0  0  0
 44 41  1  0  0  0  0
M  END
>  <minimizedAffinity>
-5.50774336

$$$$

 OpenBabel03242517583D

 44 46  0  0  0  0  0  0  0  0999 V2000
   37.7320   29.7970   41.8330 C   0  0  0  0  0  0  0  0  0  0  0  0
   36.5980   29.1370   41.4930 C   0  0  0  0  0  0  0  0  0  0  0  0
   36.2280   28.0310   42.2330 C   0  0  0  0  0  0  0  0  0  0  0  0
   36.9620   27.5720   43.3010 C   0  0  0  0  0  0  0  0  0  0  0  0
   38.1150   28.2490   43.6450 C   0  0  0  0  0  0  0  0  0  0  0  0
   38.4830   29.3560   42.9010 C   0  0  0  0  0  0  0  0  0  0  0  0
   35.3420   27.4470   42.0300 H   0  0  0  0  0  0  0  0  0  0  0  0
   36.6900   26.7150   43.8860 H   0  0  0  0  0  0  0  0  0  0  0  0
   38.7660   27.9760   44.4650 H   0  0  0  0  0  0  0  0  0  0  0  0
   39.3950   29.9090   43.1560 H   0  0  0  0  0  0  0  0  0  0  0  0
   38.2060   31.1090   40.8050 S   0  0  0  0  0  0  0  0  0  0  0  0
   39.1980   32.0260   41.3840 O   0  0  0  0  0  0  0  0  0  0  0  0
   36.9250   31.9710   40.6560 O   0  0  0  0  0  0  0  0  0  0  0  0
   38.4660   30.7080   39.1170 C   0  0  0  0  0  3  0  0  0  0  0  0
   39.2530   29.3970   39.1190 C   0  0  0  0  0  3  0  0  0  0  0  0
   38.8120   28.6250   39.7480 H   0  0  0  0  0  0  0  0  0  0  0  0
   40.6970   29.5970   39.4810 C   0  0  0  0  0  3  0  0  0  0  0  0
   41.1810   28.6110   39.2770 H   0  0  0  0  0  0  0  0  0  0  0  0
   41.3300   30.5050   38.6680 O   0  0  0  0  0  0  0  0  0  0  0  0
   40.7220   31.7300   38.5970 C   0  0  0  0  0  3  0  0  0  0  0  0
   41.1740   32.2480   37.7000 H   0  0  0  0  0  0  0  0  0  0  0  0
   39.2510   31.7140   38.3470 C   0  0  0  0  0  3  0  0  0  0  0  0
   38.8880   32.7470   38.4340 H   0  0  0  0  0  0  0  0  0  0  0  0
   35.7210   29.4370   40.4620 O   0  0  0  0  0  0  0  0  0  0  0  0
   33.9200   28.2880   37.6600 C   0  0  0  0  0  0  0  0  0  0  0  0
   34.5730   27.0720   37.3580 C   0  0  0  0  0  0  0  0  0  0  0  0
   35.6310   26.6670   38.1300 C   0  0  0  0  0  0  0  0  0  0  0  0
   35.9730   27.4790   39.1400 N   0  0  0  0  0  0  0  0  0  0  0  0
   35.3620   28.6150   39.4240 C   0  0  0  0  0  0  0  0  0  0  0  0
   34.3330   29.0230   38.6840 N   0  0  0  0  0  0  0  0  0  0  0  0
   33.0850   28.6050   37.0500 H   0  0  0  0  0  0  0  0  0  0  0  0
   34.1760   26.5350   36.5160 H   0  0  0  0  0  0  0  0  0  0  0  0
   36.3680   25.4170   37.9150 C   0  0  0  0  0  0  0  0  0  0  0  0
   37.4560   25.6290   38.1110 H   0  0  0  0  0  0  0  0  0  0  0  0
   36.2380   25.1180   36.8740 H   0  0  0  0  0  0  0  0  0  0  0  0
   35.9310   24.3200   38.8390 C   0  0  0  0  0  0  0  0  0  0  0  0
   34.8730   24.3060   39.0870 H   0  0  0  0  0  0  0  0  0  0  0  0
   36.0820   23.3680   38.2310 H   0  0  0  0  0  0  0  0  0  0  0  0
   36.7900   24.1620   40.0120 C   0  0  0  0  0  3  0  0  0  0  0  0
   36.8160   24.3890   41.3190 C   0  0  0  0  0  3  0  0  0  0  0  0
   37.9890   24.1770   42.2540 C   0  0  0  0  0  0  0  0  0  0  0  0
   38.1130   25.1100   42.8000 H   0  0  0  0  0  0  0  0  0  0  0  0
   38.8930   24.0060   41.6100 H   0  0  0  0  0  0  0  0  0  0  0  0
   37.7910   23.2780   42.8510 H   0  0  0  0  0  0  0  0  0  0  0  0
  1  6  1  0  0  0  0
  2  1  2  0  0  0  0
  2  3  1  0  0  0  0
  3  4  2  0  0  0  0
  4  5  1  0  0  0  0
  4  8  1  0  0  0  0
  5  9  1  0  0  0  0
  6 10  1  0  0  0  0
  6  5  2  0  0  0  0
  7  3  1  0  0  0  0
 11 12  2  0  0  0  0
 11  1  1  0  0  0  0
 13 11  2  0  0  0  0
 14 15  1  0  0  0  0
 14 11  1  0  0  0  0
 15 17  1  0  0  0  0
 15 16  1  0  0  0  0
 18 17  1  0  0  0  0
 19 17  1  0  0  0  0
 20 19  1  0  0  0  0
 21 20  1  0  0  0  0
 22 23  1  0  0  0  0
 22 20  1  0  0  0  0
 22 14  1  0  0  0  0
 24  2  1  0  0  0  0
 25 30  1  0  0  0  0
 26 25  2  0  0  0  0
 26 27  1  0  0  0  0
 27 28  2  0  0  0  0
 28 29  1  0  0  0  0
 29 24  1  0  0  0  0
 30 29  2  0  0  0  0
 31 25  1  0  0  0  0
 32 26  1  0  0  0  0
 33 34  1  0  0  0  0
 33 27  1  0  0  0  0
 33 36  1  0  0  0  0
 35 33  1  0  0  0  0
 36 37  1  0  0  0  0
 36 39  1  0  0  0  0
 38 36  1  0  0  0  0
 39 40  2  0  0  0  0
 40 41  1  0  0  0  0
 41 42  1  0  0  0  0
 41 44  1  0  0  0  0
 43 41  1  0  0  0  0
M  END
>  <minimizedAffinity>
-5.40716314

$$$$

 OpenBabel03242517583D

 44 46  0  0  0  0  0  0  0  0999 V2000
   38.2700   26.4360   41.4960 C   0  0  0  0  0  0  0  0  0  0  0  0
   38.1170   26.3250   40.1550 C   0  0  0  0  0  0  0  0  0  0  0  0
   37.2740   25.3480   39.6630 C   0  0  0  0  0  0  0  0  0  0  0  0
   36.5820   24.4840   40.4780 C   0  0  0  0  0  0  0  0  0  0  0  0
   36.7390   24.6020   41.8450 C   0  0  0  0  0  0  0  0  0  0  0  0
   37.5870   25.5820   42.3330 C   0  0  0  0  0  0  0  0  0  0  0  0
   37.0940   25.1890   38.6090 H   0  0  0  0  0  0  0  0  0  0  0  0
   35.9240   23.7200   40.1140 H   0  0  0  0  0  0  0  0  0  0  0  0
   36.2460   23.9770   42.5760 H   0  0  0  0  0  0  0  0  0  0  0  0
   37.7280   25.6940   43.4150 H   0  0  0  0  0  0  0  0  0  0  0  0
   39.4230   27.6040   42.0530 S   0  0  0  0  0  0  0  0  0  0  0  0
   40.4250   28.0140   41.0590 O   0  0  0  0  0  0  0  0  0  0  0  0
   40.2400   26.8580   43.1400 O   0  0  0  0  0  0  0  0  0  0  0  0
   38.7820   28.9080   43.0370 C   0  0  0  0  0  3  0  0  0  0  0  0
   37.2770   28.9300   42.7650 C   0  0  0  0  0  3  0  0  0  0  0  0
   36.8020   27.9560   42.8650 H   0  0  0  0  0  0  0  0  0  0  0  0
   36.9460   29.5330   41.4300 C   0  0  0  0  0  3  0  0  0  0  0  0
   35.8340   29.6460   41.4350 H   0  0  0  0  0  0  0  0  0  0  0  0
   37.4540   30.8000   41.2740 O   0  0  0  0  0  0  0  0  0  0  0  0
   38.8050   30.9020   41.4790 C   0  0  0  0  0  3  0  0  0  0  0  0
   39.0150   32.0060   41.6020 H   0  0  0  0  0  0  0  0  0  0  0  0
   39.3260   30.2590   42.7200 C   0  0  0  0  0  3  0  0  0  0  0  0
   40.4230   30.3180   42.6900 H   0  0  0  0  0  0  0  0  0  0  0  0
   38.7150   27.0940   39.1670 O   0  0  0  0  0  0  0  0  0  0  0  0
   38.4970   30.3310   37.7930 C   0  0  0  0  0  0  0  0  0  0  0  0
   37.1840   30.3500   37.2710 C   0  0  0  0  0  0  0  0  0  0  0  0
   36.3920   29.2390   37.4010 C   0  0  0  0  0  0  0  0  0  0  0  0
   36.9400   28.1910   38.0330 N   0  0  0  0  0  0  0  0  0  0  0  0
   38.1670   28.1720   38.5220 C   0  0  0  0  0  0  0  0  0  0  0  0
   38.9490   29.2430   38.4030 N   0  0  0  0  0  0  0  0  0  0  0  0
   39.1200   31.2090   37.6900 H   0  0  0  0  0  0  0  0  0  0  0  0
   36.8940   31.2690   36.7940 H   0  0  0  0  0  0  0  0  0  0  0  0
   35.0120   29.1580   36.9110 C   0  0  0  0  0  0  0  0  0  0  0  0
   34.5790   30.1970   36.9500 H   0  0  0  0  0  0  0  0  0  0  0  0
   34.4490   28.5050   37.5800 H   0  0  0  0  0  0  0  0  0  0  0  0
   34.9260   28.6680   35.4970 C   0  0  0  0  0  0  0  0  0  0  0  0
   35.3310   27.6760   35.3160 H   0  0  0  0  0  0  0  0  0  0  0  0
   33.8080   28.5440   35.3140 H   0  0  0  0  0  0  0  0  0  0  0  0
   35.3670   29.6490   34.5060 C   0  0  0  0  0  3  0  0  0  0  0  0
   36.3510   29.8890   33.6480 C   0  0  0  0  0  3  0  0  0  0  0  0
   36.5390   31.1370   32.8090 C   0  0  0  0  0  0  0  0  0  0  0  0
   37.5590   31.4720   32.9900 H   0  0  0  0  0  0  0  0  0  0  0  0
   35.8250   31.9080   33.2060 H   0  0  0  0  0  0  0  0  0  0  0  0
   36.2750   30.8940   31.7730 H   0  0  0  0  0  0  0  0  0  0  0  0
  1 11  1  0  0  0  0
  1  6  1  0  0  0  0
  2  1  2  0  0  0  0
  3  2  1  0  0  0  0
  3  4  2  0  0  0  0
  4  5  1  0  0  0  0
  5  6  2  0  0  0  0
  5  9  1  0  0  0  0
  6 10  1  0  0  0  0
  7  3  1  0  0  0  0
  8  4  1  0  0  0  0
 11 14  1  0  0  0  0
 11 13  2  0  0  0  0
 12 11  2  0  0  0  0
 15 16  1  0  0  0  0
 15 14  1  0  0  0  0
 17 18  1  0  0  0  0
 17 15  1  0  0  0  0
 19 17  1  0  0  0  0
 19 20  1  0  0  0  0
 20 21  1  0  0  0  0
 20 22  1  0  0  0  0
 22 14  1  0  0  0  0
 23 22  1  0  0  0  0
 24  2  1  0  0  0  0
 25 30  1  0  0  0  0
 26 27  1  0  0  0  0
 26 25  2  0  0  0  0
 27 28  2  0  0  0  0
 28 29  1  0  0  0  0
 29 24  1  0  0  0  0
 30 29  2  0  0  0  0
 31 25  1  0  0  0  0
 32 26  1  0  0  0  0
 33 34  1  0  0  0  0
 33 27  1  0  0  0  0
 33 35  1  0  0  0  0
 36 33  1  0  0  0  0
 37 36  1  0  0  0  0
 38 36  1  0  0  0  0
 39 36  1  0  0  0  0
 40 39  2  0  0  0  0
 41 42  1  0  0  0  0
 41 43  1  0  0  0  0
 41 40  1  0  0  0  0
 44 41  1  0  0  0  0
M  END
>  <minimizedAffinity>
-5.33276463

$$$$

 OpenBabel03242517583D

 44 46  0  0  0  0  0  0  0  0999 V2000
   38.2390   28.9370   41.6500 C   0  0  0  0  0  0  0  0  0  0  0  0
   37.8020   27.8370   40.9920 C   0  0  0  0  0  0  0  0  0  0  0  0
   37.0530   26.9040   41.6830 C   0  0  0  0  0  0  0  0  0  0  0  0
   36.7320   27.0470   43.0120 C   0  0  0  0  0  0  0  0  0  0  0  0
   37.1780   28.1710   43.6790 C   0  0  0  0  0  0  0  0  0  0  0  0
   37.9290   29.1020   42.9830 C   0  0  0  0  0  0  0  0  0  0  0  0
   36.6660   26.0010   41.2360 H   0  0  0  0  0  0  0  0  0  0  0  0
   36.1520   26.3330   43.5640 H   0  0  0  0  0  0  0  0  0  0  0  0
   36.9850   28.3830   44.7210 H   0  0  0  0  0  0  0  0  0  0  0  0
   38.2940   30.0020   43.4920 H   0  0  0  0  0  0  0  0  0  0  0  0
   39.2650   30.0180   40.7650 S   0  0  0  0  0  0  0  0  0  0  0  0
   39.9040   29.4360   39.5760 O   0  0  0  0  0  0  0  0  0  0  0  0
   40.4430   30.3150   41.7300 O   0  0  0  0  0  0  0  0  0  0  0  0
   38.6610   31.6520   40.5550 C   0  0  0  0  0  3  0  0  0  0  0  0
   37.1660   31.5080   40.2710 C   0  0  0  0  0  3  0  0  0  0  0  0
   36.6450   30.8760   40.9900 H   0  0  0  0  0  0  0  0  0  0  0  0
   36.8910   31.0330   38.8720 C   0  0  0  0  0  3  0  0  0  0  0  0
   35.7870   31.1380   38.7470 H   0  0  0  0  0  0  0  0  0  0  0  0
   37.4600   31.8370   37.9150 O   0  0  0  0  0  0  0  0  0  0  0  0
   38.8090   32.0300   38.0570 C   0  0  0  0  0  3  0  0  0  0  0  0
   39.0660   32.9120   37.3990 H   0  0  0  0  0  0  0  0  0  0  0  0
   39.2730   32.4050   39.4240 C   0  0  0  0  0  3  0  0  0  0  0  0
   40.3710   32.4090   39.4130 H   0  0  0  0  0  0  0  0  0  0  0  0
   38.0100   27.5090   39.6610 O   0  0  0  0  0  0  0  0  0  0  0  0
   35.7320   25.2080   38.2700 C   0  0  0  0  0  0  0  0  0  0  0  0
   35.2640   25.8980   37.1290 C   0  0  0  0  0  0  0  0  0  0  0  0
   35.7440   27.1530   36.8570 C   0  0  0  0  0  0  0  0  0  0  0  0
   36.6460   27.6420   37.7200 N   0  0  0  0  0  0  0  0  0  0  0  0
   37.0850   26.9980   38.7870 C   0  0  0  0  0  0  0  0  0  0  0  0
   36.6280   25.7780   39.0640 N   0  0  0  0  0  0  0  0  0  0  0  0
   35.3520   24.2180   38.4820 H   0  0  0  0  0  0  0  0  0  0  0  0
   34.5420   25.3670   36.5360 H   0  0  0  0  0  0  0  0  0  0  0  0
   35.3390   27.9480   35.6940 C   0  0  0  0  0  0  0  0  0  0  0  0
   34.2140   28.0000   35.6960 H   0  0  0  0  0  0  0  0  0  0  0  0
   35.6780   27.4340   34.7930 H   0  0  0  0  0  0  0  0  0  0  0  0
   35.8720   29.3490   35.7340 C   0  0  0  0  0  0  0  0  0  0  0  0
   35.3440   30.0350   36.3920 H   0  0  0  0  0  0  0  0  0  0  0  0
   36.8980   29.2420   36.2190 H   0  0  0  0  0  0  0  0  0  0  0  0
   36.1330   29.9190   34.4140 C   0  0  0  0  0  3  0  0  0  0  0  0
   36.2890   31.0840   33.7960 C   0  0  0  0  0  3  0  0  0  0  0  0
   36.4520   31.3060   32.3060 C   0  0  0  0  0  0  0  0  0  0  0  0
   35.7130   32.0570   32.0300 H   0  0  0  0  0  0  0  0  0  0  0  0
   36.1950   30.3370   31.8020 H   0  0  0  0  0  0  0  0  0  0  0  0
   37.5030   31.5530   32.1110 H   0  0  0  0  0  0  0  0  0  0  0  0
  1  6  1  0  0  0  0
  2  1  2  0  0  0  0
  2  3  1  0  0  0  0
  3  4  2  0  0  0  0
  4  8  1  0  0  0  0
  4  5  1  0  0  0  0
  5  9  1  0  0  0  0
  6 10  1  0  0  0  0
  6  5  2  0  0  0  0
  7  3  1  0  0  0  0
 11  1  1  0  0  0  0
 11 13  2  0  0  0  0
 12 11  2  0  0  0  0
 14 11  1  0  0  0  0
 15 14  1  0  0  0  0
 15 16  1  0  0  0  0
 17 15  1  0  0  0  0
 18 17  1  0  0  0  0
 19 20  1  0  0  0  0
 19 17  1  0  0  0  0
 20 22  1  0  0  0  0
 21 20  1  0  0  0  0
 22 14  1  0  0  0  0
 23 22  1  0  0  0  0
 24  2  1  0  0  0  0
 25 31  1  0  0  0  0
 25 30  1  0  0  0  0
 26 25  2  0  0  0  0
 27 26  1  0  0  0  0
 27 28  2  0  0  0  0
 28 29  1  0  0  0  0
 29 30  2  0  0  0  0
 29 24  1  0  0  0  0
 32 26  1  0  0  0  0
 33 34  1  0  0  0  0
 33 36  1  0  0  0  0
 33 27  1  0  0  0  0
 35 33  1  0  0  0  0
 36 38  1  0  0  0  0
 36 37  1  0  0  0  0
 39 36  1  0  0  0  0
 40 39  2  0  0  0  0
 41 40  1  0  0  0  0
 42 41  1  0  0  0  0
 43 41  1  0  0  0  0
 44 41  1  0  0  0  0
M  END
>  <minimizedAffinity>
-5.31535339

$$$$

 OpenBabel03242517583D

 44 46  0  0  0  0  0  0  0  0999 V2000
   38.4150   31.4390   39.0490 C   0  0  0  0  0  0  0  0  0  0  0  0
   38.5640   30.1870   39.5450 C   0  0  0  0  0  0  0  0  0  0  0  0
   37.9710   29.1340   38.8770 C   0  0  0  0  0  0  0  0  0  0  0  0
   37.2350   29.3040   37.7280 C   0  0  0  0  0  0  0  0  0  0  0  0
   37.0870   30.5810   37.2250 C   0  0  0  0  0  0  0  0  0  0  0  0
   37.6830   31.6330   37.8990 C   0  0  0  0  0  0  0  0  0  0  0  0
   38.0380   28.1060   39.2020 H   0  0  0  0  0  0  0  0  0  0  0  0
   36.7670   28.4980   37.1960 H   0  0  0  0  0  0  0  0  0  0  0  0
   36.5310   30.8280   36.3310 H   0  0  0  0  0  0  0  0  0  0  0  0
   37.5790   32.6560   37.5180 H   0  0  0  0  0  0  0  0  0  0  0  0
   39.0880   32.7320   39.9870 S   0  0  0  0  0  0  0  0  0  0  0  0
   39.2240   32.4540   41.4230 O   0  0  0  0  0  0  0  0  0  0  0  0
   38.0260   33.8610   39.9110 O   0  0  0  0  0  0  0  0  0  0  0  0
   40.4440   33.5800   39.2650 C   0  0  0  0  0  3  0  0  0  0  0  0
   41.2680   32.5100   38.5490 C   0  0  0  0  0  3  0  0  0  0  0  0
   40.6780   31.8720   37.8930 H   0  0  0  0  0  0  0  0  0  0  0  0
   42.0680   31.6690   39.5030 C   0  0  0  0  0  3  0  0  0  0  0  0
   42.7400   31.0590   38.8520 H   0  0  0  0  0  0  0  0  0  0  0  0
   42.8940   32.4150   40.3080 O   0  0  0  0  0  0  0  0  0  0  0  0
   42.2620   33.4030   41.0160 C   0  0  0  0  0  3  0  0  0  0  0  0
   43.0810   34.0890   41.3870 H   0  0  0  0  0  0  0  0  0  0  0  0
   41.3370   34.2740   40.2360 C   0  0  0  0  0  3  0  0  0  0  0  0
   40.8210   34.9330   40.9480 H   0  0  0  0  0  0  0  0  0  0  0  0
   39.2650   29.8030   40.6780 O   0  0  0  0  0  0  0  0  0  0  0  0
   37.4600   28.7660   43.5220 C   0  0  0  0  0  0  0  0  0  0  0  0
   37.8870   27.4290   43.6800 C   0  0  0  0  0  0  0  0  0  0  0  0
   38.7950   26.9030   42.7980 C   0  0  0  0  0  0  0  0  0  0  0  0
   39.2200   27.7230   41.8260 N   0  0  0  0  0  0  0  0  0  0  0  0
   38.8220   28.9740   41.6770 C   0  0  0  0  0  0  0  0  0  0  0  0
   37.9400   29.4990   42.5250 N   0  0  0  0  0  0  0  0  0  0  0  0
   36.7440   29.1790   44.2190 H   0  0  0  0  0  0  0  0  0  0  0  0
   37.4540   26.9050   44.5120 H   0  0  0  0  0  0  0  0  0  0  0  0
   39.3170   25.5360   42.8810 C   0  0  0  0  0  0  0  0  0  0  0  0
   38.5630   24.9210   43.4490 H   0  0  0  0  0  0  0  0  0  0  0  0
   40.2570   25.5600   43.4340 H   0  0  0  0  0  0  0  0  0  0  0  0
   39.5130   24.9060   41.5340 C   0  0  0  0  0  0  0  0  0  0  0  0
   40.1230   25.4710   40.8340 H   0  0  0  0  0  0  0  0  0  0  0  0
   40.1340   23.9760   41.7500 H   0  0  0  0  0  0  0  0  0  0  0  0
   38.2770   24.4080   40.9320 C   0  0  0  0  0  3  0  0  0  0  0  0
   36.9640   24.3860   41.1210 C   0  0  0  0  0  3  0  0  0  0  0  0
   35.9390   23.6370   40.2930 C   0  0  0  0  0  0  0  0  0  0  0  0
   35.3430   23.0610   40.9990 H   0  0  0  0  0  0  0  0  0  0  0  0
   36.5080   22.9300   39.6320 H   0  0  0  0  0  0  0  0  0  0  0  0
   35.4030   24.3650   39.6730 H   0  0  0  0  0  0  0  0  0  0  0  0
  1  2  1  0  0  0  0
  1 11  1  0  0  0  0
  2 24  1  0  0  0  0
  3  7  1  0  0  0  0
  3  2  2  0  0  0  0
  4  3  1  0  0  0  0
  5  4  2  0  0  0  0
  5  6  1  0  0  0  0
  6  1  2  0  0  0  0
  8  4  1  0  0  0  0
  9  5  1  0  0  0  0
 10  6  1  0  0  0  0
 11 12  2  0  0  0  0
 13 11  2  0  0  0  0
 14 11  1  0  0  0  0
 14 22  1  0  0  0  0
 15 14  1  0  0  0  0
 15 17  1  0  0  0  0
 16 15  1  0  0  0  0
 17 19  1  0  0  0  0
 18 17  1  0  0  0  0
 19 20  1  0  0  0  0
 20 21  1  0  0  0  0
 22 23  1  0  0  0  0
 22 20  1  0  0  0  0
 24 29  1  0  0  0  0
 25 26  1  0  0  0  0
 25 31  1  0  0  0  0
 26 32  1  0  0  0  0
 27 33  1  0  0  0  0
 27 26  2  0  0  0  0
 28 27  1  0  0  0  0
 29 28  2  0  0  0  0
 29 30  1  0  0  0  0
 30 25  2  0  0  0  0
 33 35  1  0  0  0  0
 33 34  1  0  0  0  0
 36 38  1  0  0  0  0
 36 33  1  0  0  0  0
 37 36  1  0  0  0  0
 39 40  2  0  0  0  0
 39 36  1  0  0  0  0
 41 42  1  0  0  0  0
 41 40  1  0  0  0  0
 43 41  1  0  0  0  0
 44 41  1  0  0  0  0
M  END
>  <minimizedAffinity>
-5.30575371

$$$$
