
     RDKit          3D

 31 33  0  0  0  0  0  0  0  0999 V2000
   44.5880   35.7952   44.7331 C   0  0  0  0  0  0  0  0  0  0  0  0
   45.2742   35.5643   43.5136 C   0  0  0  0  0  0  0  0  0  0  0  0
   46.1346   34.4533   43.4202 C   0  0  0  0  0  0  0  0  0  0  0  0
   46.2526   33.6615   44.5248 N   0  0  0  0  0  0  0  0  0  0  0  0
   45.5760   33.9221   45.6699 C   0  0  0  0  0  0  0  0  0  0  0  0
   44.7433   34.9886   45.7757 N   0  0  0  0  0  0  0  0  0  0  0  0
   45.8676   32.9321   46.7061 C   0  0  0  0  0  0  0  0  0  0  0  0
   45.1127   32.7817   47.8980 C   0  0  0  0  0  0  0  0  0  0  0  0
   45.4921   31.8210   48.7768 C   0  0  0  0  0  0  0  0  0  0  0  0
   46.6152   31.0087   48.4813 C   0  0  0  0  0  0  0  0  0  0  0  0
   47.1546   31.6506   46.8675 S   0  0  0  0  0  0  0  0  0  0  0  0
   43.9269   36.6495   44.8037 H   0  0  0  0  0  0  0  0  0  0  0  0
   45.1632   36.2039   42.6583 H   0  0  0  0  0  0  0  0  0  0  0  0
   46.6870   34.2156   42.5287 H   0  0  0  0  0  0  0  0  0  0  0  0
   44.2612   33.4168   48.0946 H   0  0  0  0  0  0  0  0  0  0  0  0
   45.0255   31.5965   49.6995 H   0  0  0  0  0  0  0  0  0  0  0  0
   47.2716   29.9531   49.1370 C   0  0  2  0  0  0  0  0  0  0  0  0
   47.9671   30.4542   50.3881 C   0  0  2  0  0  0  0  0  0  0  0  0
   47.1930   30.8195   51.1081 H   0  0  0  0  0  0  0  0  0  0  0  0
   48.8226   29.3437   50.9631 C   0  0  2  0  0  0  0  0  0  0  0  0
   48.4947   29.1529   52.0244 H   0  0  0  0  0  0  0  0  0  0  0  0
   48.5818   28.1756   50.2824 O   0  0  0  0  0  0  0  0  0  0  0  0
   48.9633   28.1963   48.9607 C   0  0  1  0  0  0  0  0  0  0  0  0
   50.0653   28.0993   48.8145 H   0  0  0  0  0  0  0  0  0  0  0  0
   48.3958   29.4072   48.2594 C   0  0  1  0  0  0  0  0  0  0  0  0
   48.0650   29.1938   47.2258 H   0  0  0  0  0  0  0  0  0  0  0  0
   46.5976   29.1144   49.2971 H   0  0  0  0  0  0  0  0  0  0  0  0
   48.5986   31.3243   50.0476 H   0  0  0  0  0  0  0  0  0  0  0  0
   49.8810   29.6180   50.9934 H   0  0  0  0  0  0  0  0  0  0  0  0
   48.5388   27.2800   48.4767 H   0  0  0  0  0  0  0  0  0  0  0  0
   49.1988   30.1816   48.2886 H   0  0  0  0  0  0  0  0  0  0  0  0
  1  6  2  0
  2  1  1  0
  3  2  2  0
  3  4  1  0
  4  5  2  0
  5  6  1  0
  5  7  1  0
  7 11  1  0
  7  8  2  0
  8  9  1  0
 10  9  2  0
 11 10  1  0
  1 12  1  0
  2 13  1  0
  3 14  1  0
  8 15  1  0
  9 16  1  0
 17 18  1  0
 18 19  1  1
 18 20  1  0
 20 21  1  1
 20 22  1  0
 22 23  1  0
 23 24  1  1
 23 25  1  0
 25 26  1  6
 25 17  1  0
 17 27  1  1
 18 28  1  0
 20 29  1  0
 23 30  1  0
 25 31  1  0
 10 17  1  0
M  ISO  8  12  14  13  14  14  14  15  14  16  14  19  15  21  15  24  15
M  ISO  1  26  15
M  END
>  <DihAtoms>  (1) 
8,9,16,17

>  <DihDeg>  (1) 
-128.42452428363376

$$$$
