REMARK  Name = 
REMARK  4 active torsions:
REMARK  status: ('A' for Active; 'I' for Inactive)
REMARK    1  A    between atoms: C_1  and  C_21
REMARK    2  A    between atoms: C_2  and  C_9
REMARK    3  A    between atoms: C_6  and  C_14
REMARK    4  A    between atoms: C_19  and  C_33
REMARK                            x       y       z     vdW  Elec       q    Type
REMARK                         _______ _______ _______ _____ _____    ______ ____
ROOT
ATOM      1  C   UNL     1      45.128  33.936  40.704  0.00  0.00    +0.000 A 
ATOM      2  C   UNL     1      44.077  33.635  39.879  0.00  0.00    +0.000 A 
ATOM      3  C   UNL     1      44.376  33.160  38.635  0.00  0.00    +0.000 A 
ATOM      4  C   UNL     1      45.663  32.970  38.172  0.00  0.00    +0.000 A 
ATOM      5  C   UNL     1      46.688  33.284  39.030  0.00  0.00    +0.000 A 
ATOM      6  C   UNL     1      46.448  33.764  40.290  0.00  0.00    +0.000 A 
ATOM      7  H   UNL     1      43.557  32.918  37.971  0.00  0.00    +0.000 HD
ATOM      8  H   UNL     1      45.826  32.587  37.167  0.00  0.00    +0.000 HD
ATOM      9  H   UNL     1      47.695  33.127  38.647  0.00  0.00    +0.000 HD
ENDROOT
BRANCH   2  12
ATOM     10  C   UNL     1      40.799  35.266  40.788  0.00  0.00    +0.000 A 
ATOM     11  C   UNL     1      42.096  35.092  40.275  0.00  0.00    +0.000 A 
ATOM     12  C   UNL     1      42.742  33.847  40.396  0.00  0.00    +0.000 A 
ATOM     13  N   UNL     1      42.034  32.885  41.020  0.00  0.00    +0.000 NA
ATOM     14  C   UNL     1      40.805  33.062  41.502  0.00  0.00    +0.000 A 
ATOM     15  N   UNL     1      40.189  34.251  41.386  0.00  0.00    +0.000 NA
ATOM     16  N   UNL     1      40.192  36.521  40.647  0.00  0.00    +0.000 N 
ATOM     17  H   UNL     1      42.618  35.915  39.778  0.00  0.00    +0.000 HD
ATOM     18  H   UNL     1      40.254  32.269  42.002  0.00  0.00    +0.000 HD
ATOM     19  H   UNL     1      39.376  36.704  40.013  0.00  0.00    +0.000 HD
ATOM     20  H   UNL     1      40.740  37.132  41.292  0.00  0.00    +0.000 HD
ENDBRANCH   2  12
BRANCH   6  21
ATOM     21  C   UNL     1      47.607  34.066  41.122  0.00  0.00    +0.000 A 
ATOM     22  C   UNL     1      48.139  35.333  40.945  0.00  0.00    +0.000 A 
ATOM     23  C   UNL     1      49.246  35.804  41.649  0.00  0.00    +0.000 A 
ATOM     24  C   UNL     1      49.829  34.959  42.560  0.00  0.00    +0.000 A 
ATOM     25  C   UNL     1      49.301  33.688  42.742  0.00  0.00    +0.000 A 
ATOM     26  C   UNL     1      48.207  33.232  42.042  0.00  0.00    +0.000 A 
ATOM     27  H   UNL     1      47.726  36.054  40.239  0.00  0.00    +0.000 HD
ATOM     28  H   UNL     1      49.641  36.797  41.492  0.00  0.00    +0.000 HD
ATOM     29  H   UNL     1      50.696  35.308  43.122  0.00  0.00    +0.000 HD
ATOM     30  H   UNL     1      49.763  33.048  43.450  0.00  0.00    +0.000 HD
BRANCH  26  31
ATOM     31  C   UNL     1      47.609  31.894  42.197  0.00  0.00    +0.000 C 
ATOM     32  C   UNL     1      48.311  31.029  43.227  0.00  0.00    +0.000 C 
ATOM     33  H   UNL     1      48.437  31.565  44.194  0.00  0.00    +0.000 HD
ATOM     34  C   UNL     1      47.330  29.880  43.495  0.00  0.00    +0.000 C 
ATOM     35  H   UNL     1      46.739  29.632  42.588  0.00  0.00    +0.000 HD
ATOM     36  O   UNL     1      46.402  30.383  44.425  0.00  0.00    +0.000 OA
ATOM     37  C   UNL     1      45.963  31.640  44.090  0.00  0.00    +0.000 C 
ATOM     38  H   UNL     1      46.327  32.392  44.811  0.00  0.00    +0.000 HD
ATOM     39  C   UNL     1      46.163  31.997  42.646  0.00  0.00    +0.000 C 
ATOM     40  H   UNL     1      45.787  33.029  42.499  0.00  0.00    +0.000 HD
ENDBRANCH  26  31
ENDBRANCH   6  21
BRANCH   1  42
ATOM     41  N   UNL     1      44.720  34.861  43.112  0.00  0.00    +0.000 NA
ATOM     42  C   UNL     1      44.902  34.441  42.028  0.00  0.00    +0.000 C 
ENDBRANCH   1  42
TORSDOF 4
