REMARK  Name = 
REMARK  8 active torsions:
REMARK  status: ('A' for Active; 'I' for Inactive)
REMARK    1  A    between atoms: C_2  and  O_17
REMARK    2  A    between atoms: C_3  and  C_7
REMARK    3  A    between atoms: O_17  and  P_19
REMARK    4  A    between atoms: P_19  and  O_20
REMARK    5  A    between atoms: P_19  and  O_22
REMARK    6  A    between atoms: O_20  and  C_21
REMARK    7  A    between atoms: C_21  and  C_39
REMARK    8  A    between atoms: O_22  and  C_23
REMARK                            x       y       z     vdW  Elec       q    Type
REMARK                         _______ _______ _______ _____ _____    ______ ____
ROOT
ATOM      1  C   UNL     1      45.124  35.548  43.247  0.00  0.00    +0.000 A 
ATOM      2  C   UNL     1      45.513  34.227  43.312  0.00  0.00    +0.000 A 
ATOM      3  C   UNL     1      45.461  33.531  44.486  0.00  0.00    +0.000 A 
ATOM      4  N   UNL     1      44.993  34.236  45.590  0.00  0.00    +0.000 NA
ATOM      5  C   UNL     1      44.619  35.502  45.533  0.00  0.00    +0.000 A 
ATOM      6  N   UNL     1      44.690  36.152  44.348  0.00  0.00    +0.000 NA
ATOM      7  H   UNL     1      45.149  36.141  42.335  0.00  0.00    +0.000 HD
ATOM      8  H   UNL     1      44.261  35.998  46.443  0.00  0.00    +0.000 HD
ENDROOT
BRANCH   3   9
ATOM      9  C   UNL     1      45.821  32.193  44.732  0.00  0.00    +0.000 A 
ATOM     10  C   UNL     1      45.486  31.144  43.854  0.00  0.00    +0.000 A 
ATOM     11  C   UNL     1      45.773  29.825  44.089  0.00  0.00    +0.000 A 
ATOM     12  C   UNL     1      46.431  29.469  45.252  0.00  0.00    +0.000 A 
ATOM     13  C   UNL     1      46.782  30.522  46.157  0.00  0.00    +0.000 A 
ATOM     14  C   UNL     1      47.428  30.179  47.308  0.00  0.00    +0.000 A 
ATOM     15  C   UNL     1      47.791  31.148  48.215  0.00  0.00    +0.000 A 
ATOM     16  C   UNL     1      47.489  32.495  47.944  0.00  0.00    +0.000 A 
ATOM     17  C   UNL     1      46.818  32.786  46.736  0.00  0.00    +0.000 A 
ATOM     18  C   UNL     1      46.470  31.807  45.863  0.00  0.00    +0.000 A 
ATOM     19  H   UNL     1      44.971  31.402  42.940  0.00  0.00    +0.000 HD
ATOM     20  H   UNL     1      45.476  29.092  43.355  0.00  0.00    +0.000 HD
ATOM     21  H   UNL     1      46.660  28.449  45.449  0.00  0.00    +0.000 HD
ATOM     22  H   UNL     1      47.647  29.122  47.483  0.00  0.00    +0.000 HD
ATOM     23  H   UNL     1      48.293  30.788  49.089  0.00  0.00    +0.000 HD
ATOM     24  H   UNL     1      47.819  33.152  48.714  0.00  0.00    +0.000 HD
ATOM     25  H   UNL     1      46.715  33.852  46.725  0.00  0.00    +0.000 HD
ENDBRANCH   3   9
BRANCH   2  26
ATOM     26  O   UNL     1      45.947  33.648  42.152  0.00  0.00    +0.000 OA
BRANCH  26  28
ATOM     27  O   UNL     1      48.157  32.373  41.545  0.00  0.00    +0.000 OA
ATOM     28  P   UNL     1      47.505  33.723  41.547  0.00  0.00    +0.000 P 
BRANCH  28  29
ATOM     29  O   UNL     1      47.549  34.297  39.962  0.00  0.00    +0.000 OA
BRANCH  29  30
ATOM     30  C   UNL     1      46.803  33.375  39.207  0.00  0.00    +0.000 C 
ATOM     31  H   UNL     1      45.841  33.116  39.645  0.00  0.00    +0.000 HD
ATOM     32  H   UNL     1      47.413  32.427  39.252  0.00  0.00    +0.000 HD
BRANCH  30  33
ATOM     33  C   UNL     1      46.754  33.760  37.759  0.00  0.00    +0.000 C 
ATOM     34  C   UNL     1      45.374  33.642  37.165  0.00  0.00    +0.000 C 
ATOM     35  H   UNL     1      45.454  34.064  36.120  0.00  0.00    +0.000 HD
ATOM     36  C   UNL     1      44.950  32.218  36.989  0.00  0.00    +0.000 C 
ATOM     37  H   UNL     1      43.990  32.104  37.573  0.00  0.00    +0.000 HD
ATOM     38  O   UNL     1      45.805  31.276  37.505  0.00  0.00    +0.000 OA
ATOM     39  C   UNL     1      47.126  31.404  37.187  0.00  0.00    +0.000 C 
ATOM     40  H   UNL     1      47.431  30.767  36.308  0.00  0.00    +0.000 HD
ATOM     41  C   UNL     1      47.634  32.791  36.998  0.00  0.00    +0.000 C 
ATOM     42  H   UNL     1      47.704  33.080  35.912  0.00  0.00    +0.000 HD
ENDBRANCH  30  33
ENDBRANCH  29  30
ENDBRANCH  28  29
BRANCH  28  43
ATOM     43  O   UNL     1      48.402  34.763  42.531  0.00  0.00    +0.000 OA
BRANCH  43  44
ATOM     44  C   UNL     1      49.610  35.361  42.243  0.00  0.00    +0.000 C 
ATOM     45  O   UNL     1      49.347  36.389  41.633  0.00  0.00    +0.000 OA
ATOM     46  N   UNL     1      50.703  34.592  42.746  0.00  0.00    +0.000 N 
ATOM     47  H   UNL     1      50.991  34.446  43.763  0.00  0.00    +0.000 HD
ATOM     48  H   UNL     1      51.532  33.989  42.538  0.00  0.00    +0.000 HD
ENDBRANCH  43  44
ENDBRANCH  28  43
ENDBRANCH  26  28
ENDBRANCH   2  26
TORSDOF 8
