
 OpenBabel03252507213D

 45 48  0  0  1  0  0  0  0  0999 V2000
   39.4850   30.1970   39.5620 C   0  0  0  0  0  0  0  0  0  0  0  0
   39.0420   29.5010   38.5800 O   0  0  0  0  0  0  0  0  0  0  0  0
   40.4130   29.6640   40.5060 N   0  0  0  0  0  0  0  0  0  0  0  0
   41.6310   30.2680   41.0640 C   0  0  0  0  0  0  0  0  0  0  0  0
   41.5770   30.2030   42.5870 C   0  0  0  0  0  0  0  0  0  0  0  0
   41.6180   28.7460   43.0150 C   0  0  0  0  0  0  0  0  0  0  0  0
   41.3300   27.8740   41.8500 C   0  0  0  0  0  0  0  0  0  0  0  0
   40.1710   28.3470   41.0100 C   0  0  1  0  0  0  0  0  0  0  0  0
   41.5040   31.3700   40.8510 H   0  0  0  0  0  0  0  0  0  0  0  0
   42.5420   29.8780   40.6270 H   0  0  0  0  0  0  0  0  0  0  0  0
   40.6060   30.6750   42.8680 H   0  0  0  0  0  0  0  0  0  0  0  0
   42.4330   30.7950   42.9520 H   0  0  0  0  0  0  0  0  0  0  0  0
   41.0720   28.5600   43.9350 H   0  0  0  0  0  0  0  0  0  0  0  0
   42.7020   28.5820   43.2840 H   0  0  0  0  0  0  0  0  0  0  0  0
   41.2380   26.8120   42.0630 H   0  0  0  0  0  0  0  0  0  0  0  0
   42.2260   27.9510   41.1630 H   0  0  0  0  0  0  0  0  0  0  0  0
   40.1880   27.6820   40.1180 H   0  0  0  0  0  0  0  0  0  0  0  0
   38.8580   28.1140   41.6850 C   0  0  0  0  0  3  0  0  0  0  0  0
   37.9850   27.0370   41.1160 C   0  0  0  0  0  3  0  0  0  0  0  0
   38.6520   26.1410   40.9930 H   0  0  0  0  0  0  0  0  0  0  0  0
   36.9680   26.5590   42.1630 C   0  0  0  0  0  3  0  0  0  0  0  0
   37.4300   25.8460   42.8440 H   0  0  0  0  0  0  0  0  0  0  0  0
   36.5020   27.6700   42.8290 O   0  0  0  0  0  0  0  0  0  0  0  0
   37.4620   28.2090   43.6790 C   0  0  0  0  0  3  0  0  0  0  0  0
   37.3300   29.3240   43.6230 H   0  0  0  0  0  0  0  0  0  0  0  0
   38.8890   27.9530   43.1650 C   0  0  0  0  0  3  0  0  0  0  0  0
   39.1300   26.9300   43.5100 H   0  0  0  0  0  0  0  0  0  0  0  0
   39.9890   32.5490   39.9220 C   0  0  0  0  0  0  0  0  0  0  0  0
   39.0340   31.5500   39.7120 C   0  0  0  0  0  0  0  0  0  0  0  0
   37.7010   31.8870   39.6620 C   0  0  0  0  0  0  0  0  0  0  0  0
   37.3600   33.1770   39.8180 N   0  0  0  0  0  0  0  0  0  0  0  0
   38.2820   34.1570   40.0230 C   0  0  0  0  0  0  0  0  0  0  0  0
   39.5720   33.8210   40.0700 N   0  0  0  0  0  0  0  0  0  0  0  0
   41.0550   32.3880   39.9740 H   0  0  0  0  0  0  0  0  0  0  0  0
   37.9760   35.2050   40.1490 H   0  0  0  0  0  0  0  0  0  0  0  0
   36.7220   30.8420   39.4420 C   0  0  0  0  0  0  0  0  0  0  0  0
   36.0780   30.2630   40.5070 C   0  0  0  0  0  0  0  0  0  0  0  0
   35.1500   29.2730   40.2720 C   0  0  0  0  0  0  0  0  0  0  0  0
   34.8260   28.8250   39.0050 C   0  0  0  0  0  0  0  0  0  0  0  0
   35.5060   29.4440   37.9770 C   0  0  0  0  0  0  0  0  0  0  0  0
   36.4010   30.4000   38.2210 N   0  0  0  0  0  0  0  0  0  0  0  0
   36.2230   30.4990   41.5290 H   0  0  0  0  0  0  0  0  0  0  0  0
   34.6080   28.7800   41.0900 H   0  0  0  0  0  0  0  0  0  0  0  0
   34.1020   28.0520   38.7930 H   0  0  0  0  0  0  0  0  0  0  0  0
   35.3210   29.1600   36.9340 H   0  0  0  0  0  0  0  0  0  0  0  0
  1 29  1  0  0  0  0
  1  3  1  0  0  0  0
  2  1  2  0  0  0  0
  3  8  1  0  0  0  0
  3  4  1  0  0  0  0
  4  5  1  0  0  0  0
  5 11  1  0  0  0  0
  5 12  1  0  0  0  0
  5  6  1  0  0  0  0
  6 14  1  0  0  0  0
  6 13  1  0  0  0  0
  7 15  1  0  0  0  0
  7  6  1  0  0  0  0
  8 17  1  6  0  0  0
  8 18  1  0  0  0  0
  8  7  1  0  0  0  0
  9  4  1  0  0  0  0
 10  4  1  0  0  0  0
 16  7  1  0  0  0  0
 18 26  1  0  0  0  0
 19 18  1  0  0  0  0
 19 21  1  0  0  0  0
 20 19  1  0  0  0  0
 21 23  1  0  0  0  0
 21 22  1  0  0  0  0
 23 24  1  0  0  0  0
 25 24  1  0  0  0  0
 26 27  1  0  0  0  0
 26 24  1  0  0  0  0
 28 34  1  0  0  0  0
 28 33  1  0  0  0  0
 29 28  2  0  0  0  0
 30 29  1  0  0  0  0
 30 31  2  0  0  0  0
 31 32  1  0  0  0  0
 32 33  2  0  0  0  0
 32 35  1  0  0  0  0
 36 30  1  0  0  0  0
 36 37  1  0  0  0  0
 37 42  1  0  0  0  0
 38 37  2  0  0  0  0
 38 43  1  0  0  0  0
 39 38  1  0  0  0  0
 40 41  1  0  0  0  0
 40 39  2  0  0  0  0
 41 36  2  0  0  0  0
 44 39  1  0  0  0  0
 45 40  1  0  0  0  0
M  END
>  <minimizedAffinity>
-6.16249037

$$$$

 OpenBabel03252507213D

 45 48  0  0  1  0  0  0  0  0999 V2000
   39.7790   29.5610   40.9450 C   0  0  0  0  0  0  0  0  0  0  0  0
   40.7590   30.1760   41.4980 O   0  0  0  0  0  0  0  0  0  0  0  0
   38.6470   29.1190   41.6930 N   0  0  0  0  0  0  0  0  0  0  0  0
   37.2160   29.2310   41.3780 C   0  0  0  0  0  0  0  0  0  0  0  0
   36.5640   27.8550   41.4810 C   0  0  0  0  0  0  0  0  0  0  0  0
   36.6240   27.3940   42.9270 C   0  0  0  0  0  0  0  0  0  0  0  0
   37.5910   28.2300   43.6800 C   0  0  0  0  0  0  0  0  0  0  0  0
   38.8860   28.4690   42.9450 C   0  0  1  0  0  0  0  0  0  0  0  0
   37.2020   29.4380   40.2680 H   0  0  0  0  0  0  0  0  0  0  0  0
   36.7140   30.0110   41.9370 H   0  0  0  0  0  0  0  0  0  0  0  0
   37.1740   27.1920   40.8250 H   0  0  0  0  0  0  0  0  0  0  0  0
   35.5380   27.9700   41.0960 H   0  0  0  0  0  0  0  0  0  0  0  0
   36.7020   26.3160   43.0250 H   0  0  0  0  0  0  0  0  0  0  0  0
   35.5980   27.6470   43.3250 H   0  0  0  0  0  0  0  0  0  0  0  0
   37.7860   27.9240   44.7050 H   0  0  0  0  0  0  0  0  0  0  0  0
   37.1250   29.2570   43.7710 H   0  0  0  0  0  0  0  0  0  0  0  0
   39.4220   29.2190   43.5690 H   0  0  0  0  0  0  0  0  0  0  0  0
   39.7490   27.2490   42.9170 C   0  0  0  0  0  3  0  0  0  0  0  0
   41.2010   27.4390   43.2370 C   0  0  0  0  0  3  0  0  0  0  0  0
   41.2250   28.0490   44.1810 H   0  0  0  0  0  0  0  0  0  0  0  0
   41.8330   26.1100   43.6790 C   0  0  0  0  0  3  0  0  0  0  0  0
   41.6110   25.9140   44.7270 H   0  0  0  0  0  0  0  0  0  0  0  0
   41.3360   25.1200   42.8610 O   0  0  0  0  0  0  0  0  0  0  0  0
   40.0030   24.8360   43.1360 C   0  0  0  0  0  3  0  0  0  0  0  0
   39.5240   24.6220   42.1410 H   0  0  0  0  0  0  0  0  0  0  0  0
   39.2560   26.0680   43.6780 C   0  0  0  0  0  3  0  0  0  0  0  0
   39.4940   26.0850   44.7580 H   0  0  0  0  0  0  0  0  0  0  0  0
   40.2500   28.0580   39.0920 C   0  0  0  0  0  0  0  0  0  0  0  0
   39.8240   29.3140   39.5330 C   0  0  0  0  0  0  0  0  0  0  0  0
   39.4710   30.2720   38.6110 C   0  0  0  0  0  0  0  0  0  0  0  0
   39.5480   29.9630   37.3050 N   0  0  0  0  0  0  0  0  0  0  0  0
   39.9610   28.7430   36.8660 C   0  0  0  0  0  0  0  0  0  0  0  0
   40.3010   27.8200   37.7670 N   0  0  0  0  0  0  0  0  0  0  0  0
   40.5440   27.2410   39.7340 H   0  0  0  0  0  0  0  0  0  0  0  0
   40.0150   28.5170   35.7910 H   0  0  0  0  0  0  0  0  0  0  0  0
   39.0310   31.5690   39.0810 C   0  0  0  0  0  0  0  0  0  0  0  0
   37.6910   31.8650   39.1400 C   0  0  0  0  0  0  0  0  0  0  0  0
   37.2980   33.1040   39.5930 C   0  0  0  0  0  0  0  0  0  0  0  0
   38.1890   34.0800   39.9980 C   0  0  0  0  0  0  0  0  0  0  0  0
   39.5200   33.7240   39.9150 C   0  0  0  0  0  0  0  0  0  0  0  0
   39.8840   32.5210   39.4750 N   0  0  0  0  0  0  0  0  0  0  0  0
   36.8970   31.2220   38.8630 H   0  0  0  0  0  0  0  0  0  0  0  0
   36.2400   33.3880   39.6600 H   0  0  0  0  0  0  0  0  0  0  0  0
   37.9080   35.0590   40.3570 H   0  0  0  0  0  0  0  0  0  0  0  0
   40.3060   34.4290   40.2120 H   0  0  0  0  0  0  0  0  0  0  0  0
  1  2  2  0  0  0  0
  1  3  1  0  0  0  0
  3  8  1  0  0  0  0
  4  5  1  0  0  0  0
  4  3  1  0  0  0  0
  4 10  1  0  0  0  0
  5  6  1  0  0  0  0
  6 13  1  0  0  0  0
  6 14  1  0  0  0  0
  6  7  1  0  0  0  0
  7 16  1  0  0  0  0
  7 15  1  0  0  0  0
  8 17  1  1  0  0  0
  8  7  1  0  0  0  0
  9  4  1  0  0  0  0
 11  5  1  0  0  0  0
 12  5  1  0  0  0  0
 18  8  1  0  0  0  0
 18 19  1  0  0  0  0
 18 26  1  0  0  0  0
 19 21  1  0  0  0  0
 19 20  1  0  0  0  0
 21 22  1  0  0  0  0
 23 24  1  0  0  0  0
 23 21  1  0  0  0  0
 24 26  1  0  0  0  0
 25 24  1  0  0  0  0
 26 27  1  0  0  0  0
 28 29  1  0  0  0  0
 28 34  1  0  0  0  0
 29  1  1  0  0  0  0
 30 36  1  0  0  0  0
 30 29  2  0  0  0  0
 31 30  1  0  0  0  0
 32 31  2  0  0  0  0
 32 33  1  0  0  0  0
 33 28  2  0  0  0  0
 35 32  1  0  0  0  0
 36 37  2  0  0  0  0
 36 41  1  0  0  0  0
 37 38  1  0  0  0  0
 38 43  1  0  0  0  0
 38 39  2  0  0  0  0
 39 44  1  0  0  0  0
 40 39  1  0  0  0  0
 40 45  1  0  0  0  0
 41 40  2  0  0  0  0
 42 37  1  0  0  0  0
M  END
>  <minimizedAffinity>
-6.01806259

$$$$

 OpenBabel03252507213D

 45 48  0  0  1  0  0  0  0  0999 V2000
   39.3090   29.2760   40.4680 C   0  0  0  0  0  0  0  0  0  0  0  0
   40.4890   29.6930   40.7480 O   0  0  0  0  0  0  0  0  0  0  0  0
   38.3470   28.9980   41.4830 N   0  0  0  0  0  0  0  0  0  0  0  0
   36.9240   29.3620   41.5500 C   0  0  0  0  0  0  0  0  0  0  0  0
   36.0930   28.1120   41.8200 C   0  0  0  0  0  0  0  0  0  0  0  0
   36.4390   27.5850   43.2020 C   0  0  0  0  0  0  0  0  0  0  0  0
   37.6950   28.2140   43.6770 C   0  0  0  0  0  0  0  0  0  0  0  0
   38.7810   28.2640   42.6330 C   0  0  1  0  0  0  0  0  0  0  0  0
   36.6640   29.6150   40.4800 H   0  0  0  0  0  0  0  0  0  0  0  0
   36.7240   30.1900   42.2180 H   0  0  0  0  0  0  0  0  0  0  0  0
   36.3910   27.3840   41.0290 H   0  0  0  0  0  0  0  0  0  0  0  0
   35.0380   28.4130   41.7130 H   0  0  0  0  0  0  0  0  0  0  0  0
   36.3510   26.5060   43.2780 H   0  0  0  0  0  0  0  0  0  0  0  0
   35.6080   27.9890   43.8520 H   0  0  0  0  0  0  0  0  0  0  0  0
   38.0890   27.8360   44.6180 H   0  0  0  0  0  0  0  0  0  0  0  0
   37.4520   29.3000   43.8840 H   0  0  0  0  0  0  0  0  0  0  0  0
   39.5800   28.8860   43.0950 H   0  0  0  0  0  0  0  0  0  0  0  0
   39.3830   26.9190   42.3850 C   0  0  0  0  0  3  0  0  0  0  0  0
   39.8940   26.1750   43.5820 C   0  0  0  0  0  3  0  0  0  0  0  0
   39.0670   26.2230   44.3420 H   0  0  0  0  0  0  0  0  0  0  0  0
   39.9880   24.6710   43.2810 C   0  0  0  0  0  3  0  0  0  0  0  0
   39.0110   24.2010   43.3850 H   0  0  0  0  0  0  0  0  0  0  0  0
   40.4860   24.5320   42.0050 O   0  0  0  0  0  0  0  0  0  0  0  0
   39.5530   24.8950   41.0390 C   0  0  0  0  0  3  0  0  0  0  0  0
   40.1390   25.4000   40.2220 H   0  0  0  0  0  0  0  0  0  0  0  0
   38.5850   25.9740   41.5570 C   0  0  0  0  0  3  0  0  0  0  0  0
   37.8150   25.4110   42.1160 H   0  0  0  0  0  0  0  0  0  0  0  0
   39.0160   27.7940   38.5610 C   0  0  0  0  0  0  0  0  0  0  0  0
   38.9490   29.0860   39.0920 C   0  0  0  0  0  0  0  0  0  0  0  0
   38.5530   30.1290   38.2890 C   0  0  0  0  0  0  0  0  0  0  0  0
   38.2380   29.8690   37.0080 N   0  0  0  0  0  0  0  0  0  0  0  0
   38.3000   28.6150   36.4820 C   0  0  0  0  0  0  0  0  0  0  0  0
   38.6850   27.6090   37.2690 N   0  0  0  0  0  0  0  0  0  0  0  0
   39.3110   26.9120   39.1080 H   0  0  0  0  0  0  0  0  0  0  0  0
   38.0380   28.4290   35.4300 H   0  0  0  0  0  0  0  0  0  0  0  0
   38.4870   31.4620   38.8520 C   0  0  0  0  0  0  0  0  0  0  0  0
   37.2740   32.0180   39.1720 C   0  0  0  0  0  0  0  0  0  0  0  0
   37.2380   33.2860   39.7080 C   0  0  0  0  0  0  0  0  0  0  0  0
   38.3720   34.0390   39.9460 C   0  0  0  0  0  0  0  0  0  0  0  0
   39.5600   33.4280   39.6040 C   0  0  0  0  0  0  0  0  0  0  0  0
   39.5780   32.2000   39.0860 N   0  0  0  0  0  0  0  0  0  0  0  0
   36.3260   31.5650   39.0450 H   0  0  0  0  0  0  0  0  0  0  0  0
   36.2930   33.7740   39.9810 H   0  0  0  0  0  0  0  0  0  0  0  0
   38.3720   35.0350   40.3660 H   0  0  0  0  0  0  0  0  0  0  0  0
   40.5170   33.9420   39.7530 H   0  0  0  0  0  0  0  0  0  0  0  0
  1  2  2  0  0  0  0
  1  3  1  0  0  0  0
  3  4  1  0  0  0  0
  3  8  1  0  0  0  0
  4  5  1  0  0  0  0
  4 10  1  0  0  0  0
  5  6  1  0  0  0  0
  6 13  1  0  0  0  0
  6  7  1  0  0  0  0
  6 14  1  0  0  0  0
  7 16  1  0  0  0  0
  7 15  1  0  0  0  0
  8 17  1  1  0  0  0
  8  7  1  0  0  0  0
  9  4  1  0  0  0  0
 11  5  1  0  0  0  0
 12  5  1  0  0  0  0
 18  8  1  0  0  0  0
 18 19  1  0  0  0  0
 19 20  1  0  0  0  0
 21 22  1  0  0  0  0
 21 19  1  0  0  0  0
 23 21  1  0  0  0  0
 24 26  1  0  0  0  0
 24 23  1  0  0  0  0
 25 24  1  0  0  0  0
 26 27  1  0  0  0  0
 26 18  1  0  0  0  0
 28 29  1  0  0  0  0
 28 34  1  0  0  0  0
 29  1  1  0  0  0  0
 30 36  1  0  0  0  0
 30 29  2  0  0  0  0
 31 30  1  0  0  0  0
 32 31  2  0  0  0  0
 32 33  1  0  0  0  0
 33 28  2  0  0  0  0
 35 32  1  0  0  0  0
 36 41  2  0  0  0  0
 36 37  1  0  0  0  0
 37 38  2  0  0  0  0
 38 39  1  0  0  0  0
 38 43  1  0  0  0  0
 39 44  1  0  0  0  0
 40 45  1  0  0  0  0
 40 39  2  0  0  0  0
 41 40  1  0  0  0  0
 42 37  1  0  0  0  0
M  END
>  <minimizedAffinity>
-5.96862221

$$$$

 OpenBabel03252507213D

 45 48  0  0  1  0  0  0  0  0999 V2000
   38.1790   29.2210   42.5540 C   0  0  0  0  0  0  0  0  0  0  0  0
   38.0060   28.4780   43.5860 O   0  0  0  0  0  0  0  0  0  0  0  0
   37.1120   29.5280   41.6590 N   0  0  0  0  0  0  0  0  0  0  0  0
   36.7330   30.8160   41.0610 C   0  0  0  0  0  0  0  0  0  0  0  0
   36.6260   30.6600   39.5470 C   0  0  0  0  0  0  0  0  0  0  0  0
   35.4760   29.7170   39.2330 C   0  0  0  0  0  0  0  0  0  0  0  0
   35.0800   28.9860   40.4620 C   0  0  0  0  0  0  0  0  0  0  0  0
   36.2480   28.4600   41.2570 C   0  0  1  0  0  0  0  0  0  0  0  0
   37.6590   31.4500   41.1870 H   0  0  0  0  0  0  0  0  0  0  0  0
   35.8700   31.2690   41.5300 H   0  0  0  0  0  0  0  0  0  0  0  0
   37.6000   30.2220   39.2260 H   0  0  0  0  0  0  0  0  0  0  0  0
   36.4880   31.6760   39.1410 H   0  0  0  0  0  0  0  0  0  0  0  0
   35.6370   29.1400   38.3290 H   0  0  0  0  0  0  0  0  0  0  0  0
   34.6250   30.4160   38.9830 H   0  0  0  0  0  0  0  0  0  0  0  0
   34.3290   28.2110   40.3310 H   0  0  0  0  0  0  0  0  0  0  0  0
   34.5930   29.7460   41.1440 H   0  0  0  0  0  0  0  0  0  0  0  0
   35.7910   28.0800   42.1980 H   0  0  0  0  0  0  0  0  0  0  0  0
   36.8930   27.2840   40.5960 C   0  0  0  0  0  3  0  0  0  0  0  0
   36.8880   25.9930   41.3580 C   0  0  0  0  0  3  0  0  0  0  0  0
   35.8300   25.8530   41.7100 H   0  0  0  0  0  0  0  0  0  0  0  0
   37.0860   24.8050   40.4040 C   0  0  0  0  0  3  0  0  0  0  0  0
   36.1440   24.5440   39.9230 H   0  0  0  0  0  0  0  0  0  0  0  0
   38.0440   25.1650   39.4830 O   0  0  0  0  0  0  0  0  0  0  0  0
   37.5680   26.1050   38.5750 C   0  0  0  0  0  3  0  0  0  0  0  0
   38.4290   26.7980   38.3700 H   0  0  0  0  0  0  0  0  0  0  0  0
   36.4790   26.9980   39.1950 C   0  0  0  0  0  3  0  0  0  0  0  0
   35.5480   26.4090   39.1020 H   0  0  0  0  0  0  0  0  0  0  0  0
   39.6160   31.1430   42.1570 C   0  0  0  0  0  0  0  0  0  0  0  0
   39.4840   29.7580   42.2980 C   0  0  0  0  0  0  0  0  0  0  0  0
   40.5950   28.9560   42.1810 C   0  0  0  0  0  0  0  0  0  0  0  0
   41.7820   29.5370   41.9330 N   0  0  0  0  0  0  0  0  0  0  0  0
   41.9210   30.8840   41.7950 C   0  0  0  0  0  0  0  0  0  0  0  0
   40.8370   31.6540   41.9100 N   0  0  0  0  0  0  0  0  0  0  0  0
   38.8080   31.8550   42.2340 H   0  0  0  0  0  0  0  0  0  0  0  0
   42.9030   31.3340   41.5920 H   0  0  0  0  0  0  0  0  0  0  0  0
   40.4450   27.5230   42.3300 C   0  0  0  0  0  0  0  0  0  0  0  0
   40.6090   26.6940   41.2480 C   0  0  0  0  0  0  0  0  0  0  0  0
   40.4620   25.3360   41.4170 C   0  0  0  0  0  0  0  0  0  0  0  0
   40.1550   24.7530   42.6310 C   0  0  0  0  0  0  0  0  0  0  0  0
   40.0020   25.6360   43.6790 C   0  0  0  0  0  0  0  0  0  0  0  0
   40.1470   26.9480   43.5000 N   0  0  0  0  0  0  0  0  0  0  0  0
   40.8420   26.9950   40.2610 H   0  0  0  0  0  0  0  0  0  0  0  0
   40.5850   24.6320   40.5830 H   0  0  0  0  0  0  0  0  0  0  0  0
   40.0350   23.6900   42.7910 H   0  0  0  0  0  0  0  0  0  0  0  0
   39.7570   25.2730   44.6850 H   0  0  0  0  0  0  0  0  0  0  0  0
  1  2  2  0  0  0  0
  3  1  1  0  0  0  0
  4  9  1  0  0  0  0
  4 10  1  0  0  0  0
  4  3  1  0  0  0  0
  5  4  1  0  0  0  0
  6  5  1  0  0  0  0
  6  7  1  0  0  0  0
  7 16  1  0  0  0  0
  7  8  1  0  0  0  0
  8  3  1  0  0  0  0
  8 17  1  1  0  0  0
 11  5  1  0  0  0  0
 12  5  1  0  0  0  0
 13  6  1  0  0  0  0
 14  6  1  0  0  0  0
 15  7  1  0  0  0  0
 18  8  1  0  0  0  0
 18 19  1  0  0  0  0
 19 20  1  0  0  0  0
 21 19  1  0  0  0  0
 22 21  1  0  0  0  0
 23 21  1  0  0  0  0
 24 26  1  0  0  0  0
 24 23  1  0  0  0  0
 25 24  1  0  0  0  0
 26 18  1  0  0  0  0
 27 26  1  0  0  0  0
 28 34  1  0  0  0  0
 28 29  1  0  0  0  0
 29  1  1  0  0  0  0
 30 29  2  0  0  0  0
 30 36  1  0  0  0  0
 31 30  1  0  0  0  0
 32 33  1  0  0  0  0
 32 31  2  0  0  0  0
 33 28  2  0  0  0  0
 35 32  1  0  0  0  0
 36 41  1  0  0  0  0
 37 38  1  0  0  0  0
 37 36  2  0  0  0  0
 38 39  2  0  0  0  0
 39 44  1  0  0  0  0
 39 40  1  0  0  0  0
 40 45  1  0  0  0  0
 41 40  2  0  0  0  0
 42 37  1  0  0  0  0
 43 38  1  0  0  0  0
M  END
>  <minimizedAffinity>
-5.86227226

$$$$

 OpenBabel03252507213D

 45 48  0  0  1  0  0  0  0  0999 V2000
   36.8890   28.4130   41.4300 C   0  0  0  0  0  0  0  0  0  0  0  0
   35.8780   29.1360   41.1130 O   0  0  0  0  0  0  0  0  0  0  0  0
   38.0340   28.9620   42.0790 N   0  0  0  0  0  0  0  0  0  0  0  0
   38.7980   28.4460   43.2240 C   0  0  0  0  0  0  0  0  0  0  0  0
   40.2780   28.3810   42.8590 C   0  0  0  0  0  0  0  0  0  0  0  0
   40.7890   29.7930   42.6380 C   0  0  0  0  0  0  0  0  0  0  0  0
   39.6430   30.7230   42.4870 C   0  0  0  0  0  0  0  0  0  0  0  0
   38.5530   30.2000   41.5850 C   0  0  1  0  0  0  0  0  0  0  0  0
   38.4980   27.3590   43.2760 H   0  0  0  0  0  0  0  0  0  0  0  0
   38.5840   28.9650   44.1500 H   0  0  0  0  0  0  0  0  0  0  0  0
   40.3210   27.7870   41.9160 H   0  0  0  0  0  0  0  0  0  0  0  0
   40.7770   27.8540   43.6890 H   0  0  0  0  0  0  0  0  0  0  0  0
   41.5840   29.8450   41.9010 H   0  0  0  0  0  0  0  0  0  0  0  0
   41.2870   30.0490   43.6190 H   0  0  0  0  0  0  0  0  0  0  0  0
   39.8940   31.7480   42.2260 H   0  0  0  0  0  0  0  0  0  0  0  0
   39.1540   30.7970   43.5050 H   0  0  0  0  0  0  0  0  0  0  0  0
   37.7250   30.9350   41.6990 H   0  0  0  0  0  0  0  0  0  0  0  0
   38.9530   30.2370   40.1450 C   0  0  0  0  0  3  0  0  0  0  0  0
   38.2090   31.1910   39.2600 C   0  0  0  0  0  3  0  0  0  0  0  0
   38.2110   32.1730   39.8060 H   0  0  0  0  0  0  0  0  0  0  0  0
   39.0290   31.5060   37.9990 C   0  0  0  0  0  3  0  0  0  0  0  0
   39.7800   32.2640   38.2130 H   0  0  0  0  0  0  0  0  0  0  0  0
   39.6020   30.3290   37.5700 O   0  0  0  0  0  0  0  0  0  0  0  0
   40.6320   29.9150   38.4090 C   0  0  0  0  0  3  0  0  0  0  0  0
   40.5630   28.7940   38.4480 H   0  0  0  0  0  0  0  0  0  0  0  0
   40.4070   30.3770   39.8600 C   0  0  0  0  0  3  0  0  0  0  0  0
   40.7820   31.4170   39.8830 H   0  0  0  0  0  0  0  0  0  0  0  0
   37.1450   26.1040   42.1480 C   0  0  0  0  0  0  0  0  0  0  0  0
   36.8620   27.0120   41.1240 C   0  0  0  0  0  0  0  0  0  0  0  0
   36.5740   26.5440   39.8630 C   0  0  0  0  0  0  0  0  0  0  0  0
   36.5750   25.2160   39.6570 N   0  0  0  0  0  0  0  0  0  0  0  0
   36.8510   24.3230   40.6460 C   0  0  0  0  0  0  0  0  0  0  0  0
   37.1280   24.7860   41.8670 N   0  0  0  0  0  0  0  0  0  0  0  0
   37.3800   26.3700   43.1670 H   0  0  0  0  0  0  0  0  0  0  0  0
   36.8460   23.2420   40.4510 H   0  0  0  0  0  0  0  0  0  0  0  0
   36.2800   27.4960   38.8120 C   0  0  0  0  0  0  0  0  0  0  0  0
   37.2420   27.8280   37.8910 C   0  0  0  0  0  0  0  0  0  0  0  0
   36.9370   28.7340   36.9000 C   0  0  0  0  0  0  0  0  0  0  0  0
   35.6990   29.3360   36.7800 C   0  0  0  0  0  0  0  0  0  0  0  0
   34.7760   28.9640   37.7350 C   0  0  0  0  0  0  0  0  0  0  0  0
   35.0860   28.0860   38.6870 N   0  0  0  0  0  0  0  0  0  0  0  0
   38.2310   27.4520   37.8570 H   0  0  0  0  0  0  0  0  0  0  0  0
   37.6720   29.0310   36.1400 H   0  0  0  0  0  0  0  0  0  0  0  0
   35.4340   30.0500   36.0130 H   0  0  0  0  0  0  0  0  0  0  0  0
   33.7630   29.3860   37.7270 H   0  0  0  0  0  0  0  0  0  0  0  0
  1  3  1  0  0  0  0
  2  1  2  0  0  0  0
  3  4  1  0  0  0  0
  4  9  1  0  0  0  0
  4 10  1  0  0  0  0
  5  4  1  0  0  0  0
  5 12  1  0  0  0  0
  6  5  1  0  0  0  0
  6 14  1  0  0  0  0
  7  6  1  0  0  0  0
  7 16  1  0  0  0  0
  8 17  1  1  0  0  0
  8  3  1  0  0  0  0
  8  7  1  0  0  0  0
 11  5  1  0  0  0  0
 13  6  1  0  0  0  0
 15  7  1  0  0  0  0
 18  8  1  0  0  0  0
 19 20  1  0  0  0  0
 19 18  1  0  0  0  0
 21 22  1  0  0  0  0
 21 19  1  0  0  0  0
 23 21  1  0  0  0  0
 23 24  1  0  0  0  0
 24 25  1  0  0  0  0
 24 26  1  0  0  0  0
 26 27  1  0  0  0  0
 26 18  1  0  0  0  0
 28 34  1  0  0  0  0
 29  1  1  0  0  0  0
 29 28  2  0  0  0  0
 30 29  1  0  0  0  0
 31 30  2  0  0  0  0
 31 32  1  0  0  0  0
 32 33  2  0  0  0  0
 33 28  1  0  0  0  0
 35 32  1  0  0  0  0
 36 30  1  0  0  0  0
 37 36  2  0  0  0  0
 38 37  1  0  0  0  0
 39 38  2  0  0  0  0
 39 40  1  0  0  0  0
 40 41  2  0  0  0  0
 41 36  1  0  0  0  0
 42 37  1  0  0  0  0
 43 38  1  0  0  0  0
 44 39  1  0  0  0  0
 45 40  1  0  0  0  0
M  END
>  <minimizedAffinity>
-5.4402523

$$$$

 OpenBabel03252507213D

 45 48  0  0  1  0  0  0  0  0999 V2000
   39.4390   29.5480   40.4920 C   0  0  0  0  0  0  0  0  0  0  0  0
   40.3620   29.1710   39.6850 O   0  0  0  0  0  0  0  0  0  0  0  0
   38.9280   28.6870   41.5080 N   0  0  0  0  0  0  0  0  0  0  0  0
   38.6470   28.9740   42.9220 C   0  0  0  0  0  0  0  0  0  0  0  0
   37.2160   28.5570   43.2490 C   0  0  0  0  0  0  0  0  0  0  0  0
   37.1040   27.0480   43.1140 C   0  0  0  0  0  0  0  0  0  0  0  0
   38.2780   26.5240   42.3740 C   0  0  0  0  0  0  0  0  0  0  0  0
   38.6350   27.3330   41.1530 C   0  0  1  0  0  0  0  0  0  0  0  0
   38.6000   30.1010   42.9610 H   0  0  0  0  0  0  0  0  0  0  0  0
   39.3970   28.5810   43.5970 H   0  0  0  0  0  0  0  0  0  0  0  0
   36.5790   29.0740   42.4940 H   0  0  0  0  0  0  0  0  0  0  0  0
   37.0120   28.9260   44.2680 H   0  0  0  0  0  0  0  0  0  0  0  0
   36.1180   26.7240   42.7980 H   0  0  0  0  0  0  0  0  0  0  0  0
   37.2020   26.6820   44.1780 H   0  0  0  0  0  0  0  0  0  0  0  0
   38.2530   25.4640   42.1340 H   0  0  0  0  0  0  0  0  0  0  0  0
   39.1690   26.6410   43.0610 H   0  0  0  0  0  0  0  0  0  0  0  0
   39.6020   26.9020   40.8100 H   0  0  0  0  0  0  0  0  0  0  0  0
   37.6620   27.1240   40.0370 C   0  0  0  0  0  3  0  0  0  0  0  0
   37.4530   25.7130   39.5760 C   0  0  0  0  0  3  0  0  0  0  0  0
   37.2820   25.1120   40.5100 H   0  0  0  0  0  0  0  0  0  0  0  0
   36.1110   25.5810   38.8400 C   0  0  0  0  0  3  0  0  0  0  0  0
   35.2940   25.4860   39.5540 H   0  0  0  0  0  0  0  0  0  0  0  0
   35.9610   26.6930   38.0430 O   0  0  0  0  0  0  0  0  0  0  0  0
   35.6960   27.8380   38.7880 C   0  0  0  0  0  3  0  0  0  0  0  0
   36.2400   28.6740   38.2690 H   0  0  0  0  0  0  0  0  0  0  0  0
   36.3270   27.7650   40.1890 C   0  0  0  0  0  3  0  0  0  0  0  0
   35.6040   27.1840   40.7910 H   0  0  0  0  0  0  0  0  0  0  0  0
   37.6480   31.0330   39.7840 C   0  0  0  0  0  0  0  0  0  0  0  0
   38.9090   30.8750   40.3660 C   0  0  0  0  0  0  0  0  0  0  0  0
   39.6030   31.9840   40.7910 C   0  0  0  0  0  0  0  0  0  0  0  0
   39.0390   33.1930   40.6310 N   0  0  0  0  0  0  0  0  0  0  0  0
   37.8120   33.3580   40.0660 C   0  0  0  0  0  0  0  0  0  0  0  0
   37.1460   32.2760   39.6570 N   0  0  0  0  0  0  0  0  0  0  0  0
   37.0250   30.2290   39.4220 H   0  0  0  0  0  0  0  0  0  0  0  0
   37.3730   34.3590   39.9470 H   0  0  0  0  0  0  0  0  0  0  0  0
   40.9080   31.8050   41.3940 C   0  0  0  0  0  0  0  0  0  0  0  0
   42.0450   32.0860   40.6770 C   0  0  0  0  0  0  0  0  0  0  0  0
   43.2730   31.9100   41.2730 C   0  0  0  0  0  0  0  0  0  0  0  0
   43.4270   31.4610   42.5710 C   0  0  0  0  0  0  0  0  0  0  0  0
   42.2500   31.1950   43.2390 C   0  0  0  0  0  0  0  0  0  0  0  0
   41.0690   31.3700   42.6480 N   0  0  0  0  0  0  0  0  0  0  0  0
   42.0830   32.4340   39.6780 H   0  0  0  0  0  0  0  0  0  0  0  0
   44.2110   32.1220   40.7420 H   0  0  0  0  0  0  0  0  0  0  0  0
   44.3790   31.3150   43.0620 H   0  0  0  0  0  0  0  0  0  0  0  0
   42.2650   30.8330   44.2740 H   0  0  0  0  0  0  0  0  0  0  0  0
  1  3  1  0  0  0  0
  2  1  2  0  0  0  0
  3  4  1  0  0  0  0
  4  9  1  0  0  0  0
  4  5  1  0  0  0  0
  4 10  1  0  0  0  0
  5 12  1  0  0  0  0
  6  5  1  0  0  0  0
  6 14  1  0  0  0  0
  7 16  1  0  0  0  0
  7  6  1  0  0  0  0
  8 17  1  6  0  0  0
  8  3  1  0  0  0  0
  8  7  1  0  0  0  0
 11  5  1  0  0  0  0
 13  6  1  0  0  0  0
 15  7  1  0  0  0  0
 18 26  1  0  0  0  0
 18  8  1  0  0  0  0
 19 18  1  0  0  0  0
 19 20  1  0  0  0  0
 21 22  1  0  0  0  0
 21 19  1  0  0  0  0
 23 24  1  0  0  0  0
 23 21  1  0  0  0  0
 24 26  1  0  0  0  0
 25 24  1  0  0  0  0
 26 27  1  0  0  0  0
 28 29  1  0  0  0  0
 29  1  1  0  0  0  0
 29 30  2  0  0  0  0
 30 36  1  0  0  0  0
 31 30  1  0  0  0  0
 32 31  2  0  0  0  0
 33 28  2  0  0  0  0
 33 32  1  0  0  0  0
 34 28  1  0  0  0  0
 35 32  1  0  0  0  0
 36 41  1  0  0  0  0
 37 38  1  0  0  0  0
 37 36  2  0  0  0  0
 38 39  2  0  0  0  0
 39 44  1  0  0  0  0
 39 40  1  0  0  0  0
 40 45  1  0  0  0  0
 41 40  2  0  0  0  0
 42 37  1  0  0  0  0
 43 38  1  0  0  0  0
M  END
>  <minimizedAffinity>
-5.4270649

$$$$

 OpenBabel03252507213D

 45 48  0  0  1  0  0  0  0  0999 V2000
   39.6920   28.7460   40.0400 C   0  0  0  0  0  0  0  0  0  0  0  0
   40.7580   28.1600   39.6320 O   0  0  0  0  0  0  0  0  0  0  0  0
   39.2180   28.6010   41.3780 N   0  0  0  0  0  0  0  0  0  0  0  0
   38.7220   29.6240   42.3100 C   0  0  0  0  0  0  0  0  0  0  0  0
   37.3560   29.2040   42.8440 C   0  0  0  0  0  0  0  0  0  0  0  0
   37.5240   27.9460   43.6780 C   0  0  0  0  0  0  0  0  0  0  0  0
   38.8510   27.3410   43.4100 C   0  0  0  0  0  0  0  0  0  0  0  0
   39.2090   27.2890   41.9470 C   0  0  1  0  0  0  0  0  0  0  0  0
   38.4760   30.4990   41.6390 H   0  0  0  0  0  0  0  0  0  0  0  0
   39.4410   29.8940   43.0730 H   0  0  0  0  0  0  0  0  0  0  0  0
   36.7360   29.0030   41.9390 H   0  0  0  0  0  0  0  0  0  0  0  0
   36.9680   30.0640   43.4140 H   0  0  0  0  0  0  0  0  0  0  0  0
   36.6540   27.2970   43.6450 H   0  0  0  0  0  0  0  0  0  0  0  0
   37.5530   28.3360   44.7370 H   0  0  0  0  0  0  0  0  0  0  0  0
   39.0390   26.3800   43.8830 H   0  0  0  0  0  0  0  0  0  0  0  0
   39.6190   28.0380   43.8630 H   0  0  0  0  0  0  0  0  0  0  0  0
   40.2710   26.9550   41.9340 H   0  0  0  0  0  0  0  0  0  0  0  0
   38.4300   26.2430   41.2160 C   0  0  0  0  0  3  0  0  0  0  0  0
   38.4170   24.8680   41.8120 C   0  0  0  0  0  3  0  0  0  0  0  0
   38.1680   25.0120   42.8990 H   0  0  0  0  0  0  0  0  0  0  0  0
   37.2130   24.0670   41.2940 C   0  0  0  0  0  3  0  0  0  0  0  0
   36.3130   24.3330   41.8480 H   0  0  0  0  0  0  0  0  0  0  0  0
   37.0800   24.3370   39.9500 O   0  0  0  0  0  0  0  0  0  0  0  0
   36.6080   25.6250   39.7200 C   0  0  0  0  0  3  0  0  0  0  0  0
   37.1440   25.9880   38.8000 H   0  0  0  0  0  0  0  0  0  0  0  0
   37.0350   26.5970   40.8350 C   0  0  0  0  0  3  0  0  0  0  0  0
   36.2880   26.4460   41.6370 H   0  0  0  0  0  0  0  0  0  0  0  0
   37.7990   29.0480   38.5430 C   0  0  0  0  0  0  0  0  0  0  0  0
   38.9600   29.5700   39.1230 C   0  0  0  0  0  0  0  0  0  0  0  0
   39.3670   30.8420   38.7960 C   0  0  0  0  0  0  0  0  0  0  0  0
   38.6280   31.5480   37.9230 N   0  0  0  0  0  0  0  0  0  0  0  0
   37.4970   31.0490   37.3530 C   0  0  0  0  0  0  0  0  0  0  0  0
   37.1090   29.8130   37.6760 N   0  0  0  0  0  0  0  0  0  0  0  0
   37.3970   28.0650   38.7350 H   0  0  0  0  0  0  0  0  0  0  0  0
   36.9110   31.6470   36.6410 H   0  0  0  0  0  0  0  0  0  0  0  0
   40.5700   31.3710   39.4060 C   0  0  0  0  0  0  0  0  0  0  0  0
   40.4890   32.1480   40.5340 C   0  0  0  0  0  0  0  0  0  0  0  0
   41.6470   32.6370   41.0950 C   0  0  0  0  0  0  0  0  0  0  0  0
   42.9040   32.3840   40.5790 C   0  0  0  0  0  0  0  0  0  0  0  0
   42.9210   31.5990   39.4460 C   0  0  0  0  0  0  0  0  0  0  0  0
   41.7910   31.1330   38.9140 N   0  0  0  0  0  0  0  0  0  0  0  0
   39.6010   32.4270   41.0380 H   0  0  0  0  0  0  0  0  0  0  0  0
   41.6350   33.2630   41.9980 H   0  0  0  0  0  0  0  0  0  0  0  0
   43.8280   32.7550   41.0000 H   0  0  0  0  0  0  0  0  0  0  0  0
   43.8690   31.3400   38.9580 H   0  0  0  0  0  0  0  0  0  0  0  0
  1  3  1  0  0  0  0
  2  1  2  0  0  0  0
  3  8  1  0  0  0  0
  3  4  1  0  0  0  0
  4  5  1  0  0  0  0
  4 10  1  0  0  0  0
  5 12  1  0  0  0  0
  5  6  1  0  0  0  0
  6 14  1  0  0  0  0
  7  6  1  0  0  0  0
  7 16  1  0  0  0  0
  7 15  1  0  0  0  0
  8 17  1  6  0  0  0
  8  7  1  0  0  0  0
  9  4  1  0  0  0  0
 11  5  1  0  0  0  0
 13  6  1  0  0  0  0
 18 19  1  0  0  0  0
 18  8  1  0  0  0  0
 19 20  1  0  0  0  0
 21 19  1  0  0  0  0
 21 22  1  0  0  0  0
 23 21  1  0  0  0  0
 24 23  1  0  0  0  0
 24 26  1  0  0  0  0
 25 24  1  0  0  0  0
 26 18  1  0  0  0  0
 26 27  1  0  0  0  0
 28 34  1  0  0  0  0
 28 29  1  0  0  0  0
 29  1  1  0  0  0  0
 30 29  2  0  0  0  0
 30 36  1  0  0  0  0
 31 30  1  0  0  0  0
 32 33  1  0  0  0  0
 32 31  2  0  0  0  0
 33 28  2  0  0  0  0
 35 32  1  0  0  0  0
 36 37  1  0  0  0  0
 37 42  1  0  0  0  0
 37 38  2  0  0  0  0
 38 43  1  0  0  0  0
 39 44  1  0  0  0  0
 39 38  1  0  0  0  0
 40 39  2  0  0  0  0
 41 36  2  0  0  0  0
 41 40  1  0  0  0  0
 45 40  1  0  0  0  0
M  END
>  <minimizedAffinity>
-5.40425682

$$$$

 OpenBabel03252507213D

 45 48  0  0  1  0  0  0  0  0999 V2000
   36.0710   27.8670   39.1780 C   0  0  0  0  0  0  0  0  0  0  0  0
   35.3360   28.5770   39.9530 O   0  0  0  0  0  0  0  0  0  0  0  0
   36.6450   28.4010   37.9860 N   0  0  0  0  0  0  0  0  0  0  0  0
   38.0110   28.2630   37.4620 C   0  0  0  0  0  0  0  0  0  0  0  0
   37.9540   27.7690   36.0200 C   0  0  0  0  0  0  0  0  0  0  0  0
   37.3010   28.8390   35.1630 C   0  0  0  0  0  0  0  0  0  0  0  0
   36.6160   29.8270   36.0320 C   0  0  0  0  0  0  0  0  0  0  0  0
   35.8120   29.2030   37.1430 C   0  0  1  0  0  0  0  0  0  0  0  0
   38.4220   27.3720   38.0210 H   0  0  0  0  0  0  0  0  0  0  0  0
   38.6200   29.1450   37.6130 H   0  0  0  0  0  0  0  0  0  0  0  0
   37.3300   26.8450   36.0500 H   0  0  0  0  0  0  0  0  0  0  0  0
   38.9940   27.5430   35.7290 H   0  0  0  0  0  0  0  0  0  0  0  0
   36.7450   28.4300   34.3250 H   0  0  0  0  0  0  0  0  0  0  0  0
   38.1800   29.3720   34.6950 H   0  0  0  0  0  0  0  0  0  0  0  0
   36.0310   30.5860   35.5190 H   0  0  0  0  0  0  0  0  0  0  0  0
   37.4310   30.4050   36.5640 H   0  0  0  0  0  0  0  0  0  0  0  0
   35.4970   30.0640   37.7730 H   0  0  0  0  0  0  0  0  0  0  0  0
   34.5560   28.5680   36.6380 C   0  0  0  0  0  3  0  0  0  0  0  0
   34.5930   27.0880   36.3990 C   0  0  0  0  0  3  0  0  0  0  0  0
   35.0410   26.6440   37.3290 H   0  0  0  0  0  0  0  0  0  0  0  0
   33.1710   26.5070   36.3990 C   0  0  0  0  0  3  0  0  0  0  0  0
   32.8250   26.3510   37.4190 H   0  0  0  0  0  0  0  0  0  0  0  0
   32.3610   27.3880   35.7170 O   0  0  0  0  0  0  0  0  0  0  0  0
   32.1280   28.5510   36.4430 C   0  0  0  0  0  3  0  0  0  0  0  0
   32.1090   29.3850   35.6890 H   0  0  0  0  0  0  0  0  0  0  0  0
   33.3040   28.8870   37.3770 C   0  0  0  0  0  3  0  0  0  0  0  0
   33.1310   28.2690   38.2770 H   0  0  0  0  0  0  0  0  0  0  0  0
   35.8430   25.5000   38.6690 C   0  0  0  0  0  0  0  0  0  0  0  0
   36.3220   26.4970   39.5230 C   0  0  0  0  0  0  0  0  0  0  0  0
   37.0070   26.1430   40.6610 C   0  0  0  0  0  0  0  0  0  0  0  0
   37.1940   24.8370   40.9160 N   0  0  0  0  0  0  0  0  0  0  0  0
   36.7320   23.8580   40.0920 C   0  0  0  0  0  0  0  0  0  0  0  0
   36.0680   24.2110   38.9890 N   0  0  0  0  0  0  0  0  0  0  0  0
   35.2980   25.6740   37.7530 H   0  0  0  0  0  0  0  0  0  0  0  0
   36.8980   22.7960   40.3240 H   0  0  0  0  0  0  0  0  0  0  0  0
   37.4990   27.1870   41.5370 C   0  0  0  0  0  0  0  0  0  0  0  0
   36.9020   27.4080   42.7530 C   0  0  0  0  0  0  0  0  0  0  0  0
   37.3900   28.4050   43.5670 C   0  0  0  0  0  0  0  0  0  0  0  0
   38.4620   29.2060   43.2240 C   0  0  0  0  0  0  0  0  0  0  0  0
   39.0190   28.9370   41.9910 C   0  0  0  0  0  0  0  0  0  0  0  0
   38.5360   27.9680   41.2140 N   0  0  0  0  0  0  0  0  0  0  0  0
   36.0740   26.8790   43.1480 H   0  0  0  0  0  0  0  0  0  0  0  0
   36.9470   28.6200   44.5490 H   0  0  0  0  0  0  0  0  0  0  0  0
   38.8650   29.9940   43.8440 H   0  0  0  0  0  0  0  0  0  0  0  0
   39.8750   29.5170   41.6250 H   0  0  0  0  0  0  0  0  0  0  0  0
  1 29  1  0  0  0  0
  1  2  2  0  0  0  0
  3  1  1  0  0  0  0
  4 10  1  0  0  0  0
  4  3  1  0  0  0  0
  4  9  1  0  0  0  0
  5 11  1  0  0  0  0
  5  4  1  0  0  0  0
  6  5  1  0  0  0  0
  6  7  1  0  0  0  0
  7 16  1  0  0  0  0
  7  8  1  0  0  0  0
  8 17  1  1  0  0  0
  8  3  1  0  0  0  0
 12  5  1  0  0  0  0
 13  6  1  0  0  0  0
 14  6  1  0  0  0  0
 15  7  1  0  0  0  0
 18  8  1  0  0  0  0
 18 26  1  0  0  0  0
 19 18  1  0  0  0  0
 19 20  1  0  0  0  0
 21 19  1  0  0  0  0
 21 22  1  0  0  0  0
 23 21  1  0  0  0  0
 23 24  1  0  0  0  0
 24 26  1  0  0  0  0
 25 24  1  0  0  0  0
 26 27  1  0  0  0  0
 28 33  2  0  0  0  0
 28 29  1  0  0  0  0
 29 30  2  0  0  0  0
 30 31  1  0  0  0  0
 30 36  1  0  0  0  0
 32 35  1  0  0  0  0
 32 31  2  0  0  0  0
 33 32  1  0  0  0  0
 34 28  1  0  0  0  0
 36 37  1  0  0  0  0
 37 42  1  0  0  0  0
 37 38  2  0  0  0  0
 38 43  1  0  0  0  0
 39 38  1  0  0  0  0
 39 44  1  0  0  0  0
 40 39  2  0  0  0  0
 41 36  2  0  0  0  0
 41 40  1  0  0  0  0
 45 40  1  0  0  0  0
M  END
>  <minimizedAffinity>
-5.34968901

$$$$

 OpenBabel03252507213D

 45 48  0  0  1  0  0  0  0  0999 V2000
   38.0120   27.3680   39.6330 C   0  0  0  0  0  0  0  0  0  0  0  0
   39.2220   27.0330   39.3730 O   0  0  0  0  0  0  0  0  0  0  0  0
   37.0850   27.7070   38.6020 N   0  0  0  0  0  0  0  0  0  0  0  0
   35.6870   27.2890   38.4280 C   0  0  0  0  0  0  0  0  0  0  0  0
   34.8090   28.5230   38.2420 C   0  0  0  0  0  0  0  0  0  0  0  0
   35.1920   29.2040   36.9390 C   0  0  0  0  0  0  0  0  0  0  0  0
   36.4980   28.6830   36.4680 C   0  0  0  0  0  0  0  0  0  0  0  0
   37.5350   28.5720   37.5560 C   0  0  1  0  0  0  0  0  0  0  0  0
   35.3900   26.9160   39.4510 H   0  0  0  0  0  0  0  0  0  0  0  0
   35.5580   26.5260   37.6700 H   0  0  0  0  0  0  0  0  0  0  0  0
   35.0340   29.1780   39.1160 H   0  0  0  0  0  0  0  0  0  0  0  0
   33.7650   28.1660   38.2640 H   0  0  0  0  0  0  0  0  0  0  0  0
   35.0550   30.2800   36.9680 H   0  0  0  0  0  0  0  0  0  0  0  0
   34.4120   28.8330   36.2110 H   0  0  0  0  0  0  0  0  0  0  0  0
   36.9160   29.1720   35.5920 H   0  0  0  0  0  0  0  0  0  0  0  0
   36.3180   27.6140   36.1410 H   0  0  0  0  0  0  0  0  0  0  0  0
   38.3840   28.0380   37.0750 H   0  0  0  0  0  0  0  0  0  0  0  0
   38.0600   29.9110   37.9680 C   0  0  0  0  0  3  0  0  0  0  0  0
   39.5340   30.1360   37.8180 C   0  0  0  0  0  3  0  0  0  0  0  0
   39.7870   29.7960   36.7770 H   0  0  0  0  0  0  0  0  0  0  0  0
   39.8470   31.6390   37.7680 C   0  0  0  0  0  3  0  0  0  0  0  0
   39.6690   32.0310   36.7680 H   0  0  0  0  0  0  0  0  0  0  0  0
   39.0530   32.2610   38.7060 O   0  0  0  0  0  0  0  0  0  0  0  0
   37.7180   32.2970   38.3180 C   0  0  0  0  0  3  0  0  0  0  0  0
   37.1210   32.1480   39.2600 H   0  0  0  0  0  0  0  0  0  0  0  0
   37.3510   31.1010   37.4230 C   0  0  0  0  0  3  0  0  0  0  0  0
   37.6720   31.4020   36.4090 H   0  0  0  0  0  0  0  0  0  0  0  0
   37.4810   28.6410   41.6360 C   0  0  0  0  0  0  0  0  0  0  0  0
   37.5800   27.3990   41.0000 C   0  0  0  0  0  0  0  0  0  0  0  0
   37.2720   26.2540   41.6970 C   0  0  0  0  0  0  0  0  0  0  0  0
   36.8810   26.3690   42.9780 N   0  0  0  0  0  0  0  0  0  0  0  0
   36.7810   27.5720   43.6060 C   0  0  0  0  0  0  0  0  0  0  0  0
   37.0820   28.6780   42.9220 N   0  0  0  0  0  0  0  0  0  0  0  0
   37.6970   29.5930   41.1770 H   0  0  0  0  0  0  0  0  0  0  0  0
   36.4590   27.6390   44.6550 H   0  0  0  0  0  0  0  0  0  0  0  0
   37.3780   24.9760   41.0260 C   0  0  0  0  0  0  0  0  0  0  0  0
   36.2870   24.4350   40.3920 C   0  0  0  0  0  0  0  0  0  0  0  0
   36.4140   23.2190   39.7590 C   0  0  0  0  0  0  0  0  0  0  0  0
   37.5950   22.5030   39.7250 C   0  0  0  0  0  0  0  0  0  0  0  0
   38.6550   23.0960   40.3800 C   0  0  0  0  0  0  0  0  0  0  0  0
   38.5160   24.2740   40.9870 N   0  0  0  0  0  0  0  0  0  0  0  0
   35.3210   24.8640   40.3360 H   0  0  0  0  0  0  0  0  0  0  0  0
   35.5710   22.7460   39.2380 H   0  0  0  0  0  0  0  0  0  0  0  0
   37.7220   21.5480   39.2360 H   0  0  0  0  0  0  0  0  0  0  0  0
   39.6370   22.6080   40.4110 H   0  0  0  0  0  0  0  0  0  0  0  0
  1 29  1  0  0  0  0
  2  1  2  0  0  0  0
  3  1  1  0  0  0  0
  4  3  1  0  0  0  0
  4  9  1  0  0  0  0
  5 12  1  0  0  0  0
  5  4  1  0  0  0  0
  5 11  1  0  0  0  0
  6 13  1  0  0  0  0
  6  5  1  0  0  0  0
  7  6  1  0  0  0  0
  7  8  1  0  0  0  0
  8 17  1  6  0  0  0
  8 18  1  0  0  0  0
  8  3  1  0  0  0  0
 10  4  1  0  0  0  0
 14  6  1  0  0  0  0
 15  7  1  0  0  0  0
 16  7  1  0  0  0  0
 19 18  1  0  0  0  0
 20 19  1  0  0  0  0
 21 19  1  0  0  0  0
 21 23  1  0  0  0  0
 22 21  1  0  0  0  0
 24 23  1  0  0  0  0
 24 25  1  0  0  0  0
 26 18  1  0  0  0  0
 26 24  1  0  0  0  0
 27 26  1  0  0  0  0
 28 33  1  0  0  0  0
 29 28  2  0  0  0  0
 29 30  1  0  0  0  0
 30 31  2  0  0  0  0
 31 32  1  0  0  0  0
 32 35  1  0  0  0  0
 33 32  2  0  0  0  0
 34 28  1  0  0  0  0
 36 30  1  0  0  0  0
 37 36  2  0  0  0  0
 38 37  1  0  0  0  0
 39 38  2  0  0  0  0
 39 40  1  0  0  0  0
 40 45  1  0  0  0  0
 40 41  2  0  0  0  0
 41 36  1  0  0  0  0
 42 37  1  0  0  0  0
 43 38  1  0  0  0  0
 44 39  1  0  0  0  0
M  END
>  <minimizedAffinity>
-5.33425903

$$$$
