
 OpenBabel03252508153D

 38 41  0  0  1  0  0  0  0  0999 V2000
   45.7650   32.8560   45.9840 C   0  0  0  0  0  3  0  0  0  0  0  0
   45.9660   31.6260   45.7150 C   0  0  0  0  0  3  0  0  0  0  0  0
   44.8540   35.8110   43.9810 C   0  0  0  0  0  0  0  0  0  0  0  0
   45.3090   35.4920   42.7090 C   0  0  0  0  0  0  0  0  0  0  0  0
   45.9290   34.2640   42.5630 C   0  0  0  0  0  0  0  0  0  0  0  0
   46.0410   33.4870   43.6470 N   0  0  0  0  0  0  0  0  0  0  0  0
   45.6080   33.7880   44.8680 C   0  0  0  0  0  0  0  0  0  0  0  0
   45.0130   34.9720   44.9980 N   0  0  0  0  0  0  0  0  0  0  0  0
   44.3670   36.7640   44.1180 H   0  0  0  0  0  0  0  0  0  0  0  0
   45.2120   36.1210   41.8500 H   0  0  0  0  0  0  0  0  0  0  0  0
   46.4700   33.7620   41.2970 C   0  0  0  0  0  3  0  0  0  0  0  0
   47.5270   34.7110   40.7150 C   0  0  0  0  0  3  0  0  0  0  0  0
   47.0590   35.6080   40.3010 H   0  0  0  0  0  0  0  0  0  0  0  0
   48.1840   33.9190   39.6000 C   0  0  0  0  0  3  0  0  0  0  0  0
   48.6000   34.6120   38.8550 H   0  0  0  0  0  0  0  0  0  0  0  0
   47.3730   32.9280   39.1050 O   0  0  0  0  0  0  0  0  0  0  0  0
   46.0370   33.2710   38.9690 C   0  0  0  0  0  3  0  0  0  0  0  0
   45.5190   32.3190   38.6650 H   0  0  0  0  0  0  0  0  0  0  0  0
   45.3800   33.7190   40.2410 C   0  0  0  0  0  3  0  0  0  0  0  0
   45.0480   34.7810   40.0850 H   0  0  0  0  0  0  0  0  0  0  0  0
   46.1170   30.7130   46.9260 C   0  0  0  0  0  0  0  0  0  0  0  0
   47.0550   30.1480   46.8660 H   0  0  0  0  0  0  0  0  0  0  0  0
   45.2710   30.0040   46.8620 H   0  0  0  0  0  0  0  0  0  0  0  0
   45.9580   31.5190   48.1940 C   0  0  1  0  0  0  0  0  0  0  0  0
   45.7230   30.7420   49.4420 C   0  0  0  0  0  0  0  0  0  0  0  0
   46.9920   31.4160   49.2500 C   0  0  1  0  0  0  0  0  0  0  0  0
   45.4540   32.4970   48.0840 H   0  0  0  0  0  0  0  0  0  0  0  0
   45.6830   29.6320   49.3790 H   0  0  0  0  0  0  0  0  0  0  0  0
   44.9980   31.1270   50.2010 H   0  0  0  0  0  0  0  0  0  0  0  0
   47.1490   32.3520   49.8690 H   0  0  0  0  0  0  0  0  0  0  0  0
   48.2700   30.7450   48.9150 C   0  0  0  0  0  0  0  0  0  0  0  0
   49.1980   30.4790   50.1350 C   0  0  0  0  0  0  0  0  0  0  0  0
   49.5540   31.5670   49.2090 C   0  0  0  0  0  0  0  0  0  0  0  0
   48.3390   30.0250   48.0790 H   0  0  0  0  0  0  0  0  0  0  0  0
   48.8170   30.7780   51.1320 H   0  0  0  0  0  0  0  0  0  0  0  0
   49.7930   29.5420   50.0560 H   0  0  0  0  0  0  0  0  0  0  0  0
   49.3870   32.6180   49.5080 H   0  0  0  0  0  0  0  0  0  0  0  0
   50.3680   31.4580   48.4490 H   0  0  0  0  0  0  0  0  0  0  0  0
  2  1  2  0  0  0  0
  2 21  1  0  0  0  0
  3  9  1  0  0  0  0
  3  8  1  0  0  0  0
  4  3  2  0  0  0  0
  5  4  1  0  0  0  0
  5  6  2  0  0  0  0
  6  7  1  0  0  0  0
  7  8  2  0  0  0  0
  7  1  1  0  0  0  0
 10  4  1  0  0  0  0
 11  5  1  0  0  0  0
 12 11  1  0  0  0  0
 13 12  1  0  0  0  0
 14 12  1  0  0  0  0
 15 14  1  0  0  0  0
 16 14  1  0  0  0  0
 17 16  1  0  0  0  0
 17 19  1  0  0  0  0
 18 17  1  0  0  0  0
 19 11  1  0  0  0  0
 20 19  1  0  0  0  0
 21 24  1  0  0  0  0
 22 21  1  0  0  0  0
 23 21  1  0  0  0  0
 24 27  1  6  0  0  0
 24 26  1  0  0  0  0
 24 25  1  0  0  0  0
 25 29  1  0  0  0  0
 26 25  1  0  0  0  0
 26 30  1  1  0  0  0
 28 25  1  0  0  0  0
 31 33  1  0  0  0  0
 31 26  1  0  0  0  0
 31 32  1  0  0  0  0
 32 35  1  0  0  0  0
 33 37  1  0  0  0  0
 33 32  1  0  0  0  0
 34 31  1  0  0  0  0
 36 32  1  0  0  0  0
 38 33  1  0  0  0  0
M  END
>  <minimizedAffinity>
-5.02604008

>  <minimizedRMSD>
1.27098823

$$$$
