
 OpenBabel03252505543D

 34 36  0  0  0  0  0  0  0  0999 V2000
   46.7940   30.4500   47.8750 C   0  0  0  0  0  0  0  0  0  0  0  0
   47.2620   29.3150   47.2280 C   0  0  0  0  0  0  0  0  0  0  0  0
   48.4510   28.7780   47.6260 C   0  0  0  0  0  0  0  0  0  0  0  0
   49.1870   29.3010   48.6160 N   0  0  0  0  0  0  0  0  0  0  0  0
   48.7200   30.4020   49.2350 C   0  0  0  0  0  0  0  0  0  0  0  0
   47.5420   30.9830   48.8840 N   0  0  0  0  0  0  0  0  0  0  0  0
   46.5980   28.9880   46.4610 H   0  0  0  0  0  0  0  0  0  0  0  0
   48.7520   27.8930   47.0730 H   0  0  0  0  0  0  0  0  0  0  0  0
   49.5790   30.9490   50.3360 C   0  0  0  0  0  3  0  0  0  0  0  0
   50.4290   29.9200   50.9960 C   0  0  0  0  0  3  0  0  0  0  0  0
   49.9020   29.5790   51.9280 H   0  0  0  0  0  0  0  0  0  0  0  0
   51.7170   30.6060   51.4200 C   0  0  0  0  0  3  0  0  0  0  0  0
   51.4400   31.5910   51.8560 H   0  0  0  0  0  0  0  0  0  0  0  0
   52.4680   30.7630   50.2590 O   0  0  0  0  0  0  0  0  0  0  0  0
   51.7950   31.4710   49.2770 C   0  0  0  0  0  3  0  0  0  0  0  0
   51.6020   30.8840   48.3630 H   0  0  0  0  0  0  0  0  0  0  0  0
   50.4830   32.0350   49.7510 C   0  0  0  0  0  3  0  0  0  0  0  0
   49.9730   32.4280   48.8240 H   0  0  0  0  0  0  0  0  0  0  0  0
   45.5720   31.2310   47.6660 C   0  0  0  0  0  0  0  0  0  0  0  0
   45.0610   30.8860   46.7310 H   0  0  0  0  0  0  0  0  0  0  0  0
   44.8530   31.0840   48.4830 H   0  0  0  0  0  0  0  0  0  0  0  0
   45.9460   32.5860   47.5750 O   0  0  0  0  0  0  0  0  0  0  0  0
   44.9880   34.9160   45.0510 C   0  0  0  0  0  0  0  0  0  0  0  0
   45.8440   34.6410   43.9950 C   0  0  0  0  0  0  0  0  0  0  0  0
   46.7740   33.6120   44.1840 C   0  0  0  0  0  0  0  0  0  0  0  0
   46.8080   32.9460   45.3430 N   0  0  0  0  0  0  0  0  0  0  0  0
   45.9450   33.2570   46.3480 C   0  0  0  0  0  0  0  0  0  0  0  0
   45.0360   34.2330   46.2150 N   0  0  0  0  0  0  0  0  0  0  0  0
   44.2670   35.7020   44.9240 H   0  0  0  0  0  0  0  0  0  0  0  0
   47.4400   33.4030   43.3550 H   0  0  0  0  0  0  0  0  0  0  0  0
   45.7140   35.4500   42.7460 C   0  0  0  0  0  0  0  0  0  0  0  0
   45.2860   36.6870   43.1610 F   0  0  0  0  0  0  0  0  0  0  0  0
   44.7110   34.8250   41.9890 F   0  0  0  0  0  0  0  0  0  0  0  0
   46.9100   35.4660   42.1020 F   0  0  0  0  0  0  0  0  0  0  0  0
  1  6  1  0  0  0  0
  2  3  1  0  0  0  0
  2  1  2  0  0  0  0
  3  4  2  0  0  0  0
  4  5  1  0  0  0  0
  5  9  1  0  0  0  0
  6  5  2  0  0  0  0
  7  2  1  0  0  0  0
  8  3  1  0  0  0  0
  9 10  1  0  0  0  0
 10 12  1  0  0  0  0
 10 11  1  0  0  0  0
 12 13  1  0  0  0  0
 14 12  1  0  0  0  0
 15 17  1  0  0  0  0
 15 14  1  0  0  0  0
 16 15  1  0  0  0  0
 17  9  1  0  0  0  0
 18 17  1  0  0  0  0
 19  1  1  0  0  0  0
 19 21  1  0  0  0  0
 20 19  1  0  0  0  0
 22 19  1  0  0  0  0
 23 28  1  0  0  0  0
 24 25  1  0  0  0  0
 24 23  2  0  0  0  0
 25 26  2  0  0  0  0
 26 27  1  0  0  0  0
 27 22  1  0  0  0  0
 28 27  2  0  0  0  0
 29 23  1  0  0  0  0
 30 25  1  0  0  0  0
 31 32  1  0  0  0  0
 31 24  1  0  0  0  0
 33 31  1  0  0  0  0
 34 31  1  0  0  0  0
M  END
>  <minimizedAffinity>
-5.70497656

>  <minimizedRMSD>
0.70827651

$$$$
