
 OpenBabel03252500573D

 39 41  0  0  0  0  0  0  0  0999 V2000
   43.7480   34.8890   40.1490 O   0  0  0  0  0  0  0  0  0  0  0  0
   43.2960   34.7400   41.5960 P   0  0  1  0  0  0  0  0  0  0  0  0
   43.1930   33.0730   41.9550 O   0  0  0  0  0  0  0  0  0  0  0  0
   43.9980   32.5980   41.5980 H   0  0  0  0  0  0  0  0  0  0  0  0
   44.4580   35.4150   42.6200 O   0  0  0  0  0  0  0  0  0  0  0  0
   46.5160   34.3620   43.0330 C   0  0  0  0  0  0  0  0  0  0  0  0
   45.2810   34.7380   43.5040 C   0  0  0  0  0  0  0  0  0  0  0  0
   44.9500   34.4060   44.8410 C   0  0  0  0  0  0  0  0  0  0  0  0
   45.8770   33.7420   45.5580 N   0  0  0  0  0  0  0  0  0  0  0  0
   47.0710   33.3900   45.0720 C   0  0  0  0  0  0  0  0  0  0  0  0
   47.3910   33.7020   43.8010 N   0  0  0  0  0  0  0  0  0  0  0  0
   43.9820   34.7240   45.1460 H   0  0  0  0  0  0  0  0  0  0  0  0
   47.7420   32.8650   45.7150 H   0  0  0  0  0  0  0  0  0  0  0  0
   46.9220   34.6740   41.6600 C   0  0  0  0  0  0  0  0  0  0  0  0
   46.8780   33.8000   40.9810 H   0  0  0  0  0  0  0  0  0  0  0  0
   46.2120   35.4370   41.2360 H   0  0  0  0  0  0  0  0  0  0  0  0
   48.2710   35.3320   41.6750 C   0  0  0  0  0  0  0  0  0  0  0  0
   48.2920   36.0950   42.4570 H   0  0  0  0  0  0  0  0  0  0  0  0
   48.4460   35.8560   40.7020 H   0  0  0  0  0  0  0  0  0  0  0  0
   49.1010   34.5940   41.7750 H   0  0  0  0  0  0  0  0  0  0  0  0
   41.7460   35.3850   41.8130 O   0  0  0  0  0  0  0  0  0  0  0  0
   40.6630   34.7140   41.2790 C   0  0  0  0  0  0  0  0  0  0  0  0
   39.9120   35.3630   40.2960 C   0  0  0  0  0  0  0  0  0  0  0  0
   38.8090   34.7630   39.7050 C   0  0  0  0  0  0  0  0  0  0  0  0
   38.4720   33.5020   40.1170 N   0  0  0  0  0  0  0  0  0  0  0  0
   39.1930   32.8890   41.0560 C   0  0  0  0  0  0  0  0  0  0  0  0
   40.2420   33.4880   41.6010 N   0  0  0  0  0  0  0  0  0  0  0  0
   40.1770   36.3500   39.9750 H   0  0  0  0  0  0  0  0  0  0  0  0
   38.2440   35.2920   38.9440 H   0  0  0  0  0  0  0  0  0  0  0  0
   38.7540   31.5220   41.4400 C   0  0  0  0  0  3  0  0  0  0  0  0
   37.9030   30.8600   40.3690 C   0  0  0  0  0  3  0  0  0  0  0  0
   37.2220   30.1570   40.9000 H   0  0  0  0  0  0  0  0  0  0  0  0
   38.7630   30.0050   39.4440 C   0  0  0  0  0  3  0  0  0  0  0  0
   38.2820   30.0470   38.4450 H   0  0  0  0  0  0  0  0  0  0  0  0
   40.0380   30.5460   39.3060 O   0  0  0  0  0  0  0  0  0  0  0  0
   40.7640   30.5270   40.4720 C   0  0  0  0  0  3  0  0  0  0  0  0
   41.4590   31.4110   40.4640 H   0  0  0  0  0  0  0  0  0  0  0  0
   39.9140   30.5910   41.7220 C   0  0  0  0  0  3  0  0  0  0  0  0
   40.5820   31.0050   42.5170 H   0  0  0  0  0  0  0  0  0  0  0  0
  2  1  2  6  0  0  0
  2 21  1  0  0  0  0
  2  3  1  0  0  0  0
  2  5  1  0  0  0  0
  4  3  1  0  0  0  0
  5  7  1  0  0  0  0
  6  7  2  0  0  0  0
  6 11  1  0  0  0  0
  7  8  1  0  0  0  0
  8 12  1  0  0  0  0
  8  9  2  0  0  0  0
 10  9  1  0  0  0  0
 10 13  1  0  0  0  0
 11 10  2  0  0  0  0
 14 17  1  0  0  0  0
 14  6  1  0  0  0  0
 15 14  1  0  0  0  0
 16 14  1  0  0  0  0
 17 20  1  0  0  0  0
 17 18  1  0  0  0  0
 19 17  1  0  0  0  0
 22 27  1  0  0  0  0
 22 21  1  0  0  0  0
 23 22  2  0  0  0  0
 24 25  2  0  0  0  0
 24 23  1  0  0  0  0
 25 26  1  0  0  0  0
 26 30  1  0  0  0  0
 26 27  2  0  0  0  0
 28 23  1  0  0  0  0
 29 24  1  0  0  0  0
 30 38  1  0  0  0  0
 31 32  1  0  0  0  0
 31 30  1  0  0  0  0
 33 31  1  0  0  0  0
 34 33  1  0  0  0  0
 35 33  1  0  0  0  0
 35 36  1  0  0  0  0
 36 38  1  0  0  0  0
 37 36  1  0  0  0  0
 38 39  1  0  0  0  0
M  END
>  <minimizedAffinity>
-5.62989187

>  <minimizedRMSD>
0.870127678

$$$$
