
 OpenBabel03242511053D

 26 28  0  0  1  0  0  0  0  0999 V2000
   45.9550   32.7600   45.9960 C   0  0  1  0  0  0  0  0  0  0  0  0
   47.0590   32.8170   46.9800 C   0  0  0  0  0  0  0  0  0  0  0  0
   45.6050   32.7790   47.4400 C   0  0  2  0  0  0  0  0  0  0  0  0
   45.9770   31.8380   45.3790 H   0  0  0  0  0  0  0  0  0  0  0  0
   47.6910   31.9500   47.1470 H   0  0  0  0  0  0  0  0  0  0  0  0
   47.5890   33.7950   47.0980 H   0  0  0  0  0  0  0  0  0  0  0  0
   45.2060   33.7350   47.8190 H   0  0  0  0  0  0  0  0  0  0  0  0
   44.9980   31.5180   47.9590 C   0  0  0  0  0  0  0  0  0  0  0  0
   45.7950   31.1710   49.2230 C   0  0  0  0  0  0  0  0  0  0  0  0
   46.0810   32.1260   49.7220 H   0  0  0  0  0  0  0  0  0  0  0  0
   47.1100   30.5260   48.7840 C   0  0  0  0  0  0  0  0  0  0  0  0
   47.6060   31.1010   47.9810 H   0  0  0  0  0  0  0  0  0  0  0  0
   46.8890   29.2560   48.2870 O   0  0  0  0  0  0  0  0  0  0  0  0
   45.6940   29.1310   47.6110 C   0  0  0  0  0  0  0  0  0  0  0  0
   44.9590   28.6630   48.2800 H   0  0  0  0  0  0  0  0  0  0  0  0
   45.2140   30.4160   46.9730 C   0  0  0  0  0  0  0  0  0  0  0  0
   45.9560   30.6700   46.1830 H   0  0  0  0  0  0  0  0  0  0  0  0
   44.4790   35.9620   44.8540 C   0  0  0  0  0  0  0  0  0  0  0  0
   45.0080   36.0770   43.5380 C   0  0  0  0  0  0  0  0  0  0  0  0
   45.8670   35.0490   43.0770 C   0  0  0  0  0  0  0  0  0  0  0  0
   46.1410   34.0200   43.8960 N   0  0  0  0  0  0  0  0  0  0  0  0
   45.6100   33.9520   45.1560 C   0  0  0  0  0  0  0  0  0  0  0  0
   44.7870   34.9210   45.6190 N   0  0  0  0  0  0  0  0  0  0  0  0
   43.8290   36.7570   45.1780 H   0  0  0  0  0  0  0  0  0  0  0  0
   44.8000   36.8860   42.8730 H   0  0  0  0  0  0  0  0  0  0  0  0
   46.2900   35.0960   42.0830 H   0  0  0  0  0  0  0  0  0  0  0  0
  1  4  1  6  0  0  0
  1  2  1  0  0  0  0
  1  3  1  0  0  0  0
  2  6  1  0  0  0  0
  2  5  1  0  0  0  0
  2  3  1  0  0  0  0
  3  7  1  1  0  0  0
  3  8  1  0  0  0  0
  8  9  1  0  0  0  0
  9 10  1  0  0  0  0
 11  9  1  0  0  0  0
 12 11  1  0  0  0  0
 13 11  1  0  0  0  0
 14 15  1  0  0  0  0
 14 13  1  0  0  0  0
 16 14  1  0  0  0  0
 16  8  1  0  0  0  0
 17 16  1  0  0  0  0
 18 24  1  0  0  0  0
 18 23  1  0  0  0  0
 19 18  2  0  0  0  0
 20 19  1  0  0  0  0
 20 21  2  0  0  0  0
 21 22  1  0  0  0  0
 22 23  2  0  0  0  0
 22  1  1  0  0  0  0
 25 19  1  0  0  0  0
 26 20  1  0  0  0  0
M  END
>  <minimizedAffinity>
-4.65031099

>  <minimizedRMSD>
1.3510133

$$$$
