
 OpenBabel03252509163D

 26 28  0  0  0  0  0  0  0  0999 V2000
   45.9520   32.9600   46.1080 C   0  0  0  0  0  0  0  0  0  0  0  0
   45.4950   32.7450   47.4340 C   0  0  0  0  0  0  0  0  0  0  0  0
   45.9360   31.6440   48.0910 C   0  0  0  0  0  0  0  0  0  0  0  0
   46.8290   30.7550   47.4420 C   0  0  0  0  0  0  0  0  0  0  0  0
   47.0470   31.5320   45.8120 S   0  0  0  0  0  0  0  0  0  0  0  0
   44.8140   33.4420   47.9020 H   0  0  0  0  0  0  0  0  0  0  0  0
   45.6810   31.3580   49.0770 H   0  0  0  0  0  0  0  0  0  0  0  0
   47.4700   29.5580   47.8050 C   0  0  0  0  0  3  0  0  0  0  0  0
   48.9740   29.7450   47.8260 C   0  0  0  0  0  3  0  0  0  0  0  0
   49.2340   30.4790   48.6290 H   0  0  0  0  0  0  0  0  0  0  0  0
   49.6420   28.3990   48.0260 C   0  0  0  0  0  3  0  0  0  0  0  0
   50.2890   28.4550   48.9460 H   0  0  0  0  0  0  0  0  0  0  0  0
   48.6910   27.4470   48.2950 O   0  0  0  0  0  0  0  0  0  0  0  0
   47.8210   27.2000   47.2590 C   0  0  0  0  0  3  0  0  0  0  0  0
   48.2640   26.5810   46.4440 H   0  0  0  0  0  0  0  0  0  0  0  0
   47.2260   28.4890   46.7420 C   0  0  0  0  0  3  0  0  0  0  0  0
   46.1580   28.3940   46.4690 H   0  0  0  0  0  0  0  0  0  0  0  0
   44.4540   36.0620   44.7450 C   0  0  0  0  0  0  0  0  0  0  0  0
   45.0630   36.0730   43.4650 C   0  0  0  0  0  0  0  0  0  0  0  0
   45.9500   35.0320   43.1270 C   0  0  0  0  0  0  0  0  0  0  0  0
   46.1660   34.0680   44.0680 N   0  0  0  0  0  0  0  0  0  0  0  0
   45.5600   34.1000   45.2800 C   0  0  0  0  0  0  0  0  0  0  0  0
   44.7040   35.0960   45.6210 N   0  0  0  0  0  0  0  0  0  0  0  0
   43.7730   36.8630   45.0040 H   0  0  0  0  0  0  0  0  0  0  0  0
   44.8740   36.8450   42.7420 H   0  0  0  0  0  0  0  0  0  0  0  0
   46.4470   34.9750   42.1760 H   0  0  0  0  0  0  0  0  0  0  0  0
  1  2  2  0  0  0  0
  2  6  1  0  0  0  0
  2  3  1  0  0  0  0
  3  7  1  0  0  0  0
  4  8  1  0  0  0  0
  4  3  2  0  0  0  0
  5  1  1  0  0  0  0
  5  4  1  0  0  0  0
  8  9  1  0  0  0  0
  9 11  1  0  0  0  0
  9 10  1  0  0  0  0
 11 13  1  0  0  0  0
 11 12  1  0  0  0  0
 14 13  1  0  0  0  0
 15 14  1  0  0  0  0
 16 14  1  0  0  0  0
 16  8  1  0  0  0  0
 17 16  1  0  0  0  0
 18 24  1  0  0  0  0
 18 23  1  0  0  0  0
 19 18  2  0  0  0  0
 20 19  1  0  0  0  0
 20 21  2  0  0  0  0
 21 22  1  0  0  0  0
 22 23  2  0  0  0  0
 22  1  1  0  0  0  0
 25 19  1  0  0  0  0
 26 20  1  0  0  0  0
M  END
>  <minimizedAffinity>
-4.55818367

>  <minimizedRMSD>
1.15022802

$$$$
