
 OpenBabel03252509343D

 44 46  0  0  1  0  0  0  0  0999 V2000
   46.9320   33.5780   42.6900 C   0  0  1  0  0  0  0  0  0  0  0  0
   46.8860   34.8040   41.7980 C   0  0  0  0  0  0  0  0  0  0  0  0
   46.8780   34.1610   40.4300 C   0  0  0  0  0  0  0  0  0  0  0  0
   47.5840   32.8390   40.5850 C   0  0  0  0  0  0  0  0  0  0  0  0
   48.0740   32.8020   42.0380 C   0  0  1  0  0  0  0  0  0  0  0  0
   46.0070   33.0200   42.5660 H   0  0  0  0  0  0  0  0  0  0  0  0
   45.8750   35.2870   41.9060 H   0  0  0  0  0  0  0  0  0  0  0  0
   47.7070   35.4910   41.9840 H   0  0  0  0  0  0  0  0  0  0  0  0
   45.8360   34.0380   40.0290 H   0  0  0  0  0  0  0  0  0  0  0  0
   47.4260   34.7780   39.6950 H   0  0  0  0  0  0  0  0  0  0  0  0
   46.8960   31.9760   40.4530 H   0  0  0  0  0  0  0  0  0  0  0  0
   48.4380   32.6850   39.9360 H   0  0  0  0  0  0  0  0  0  0  0  0
   48.1200   31.7770   42.4180 H   0  0  0  0  0  0  0  0  0  0  0  0
   49.3990   33.4470   42.2370 C   0  0  0  0  0  0  0  0  0  0  0  0
   49.3230   34.1570   43.0980 H   0  0  0  0  0  0  0  0  0  0  0  0
   49.7270   34.0380   41.3290 H   0  0  0  0  0  0  0  0  0  0  0  0
   50.4370   32.4030   42.4600 C   0  0  0  0  0  3  0  0  0  0  0  0
   51.2590   32.1680   41.2100 C   0  0  0  0  0  3  0  0  0  0  0  0
   50.7980   32.6190   40.3180 H   0  0  0  0  0  0  0  0  0  0  0  0
   51.4390   30.6980   40.9050 C   0  0  0  0  0  3  0  0  0  0  0  0
   50.5420   30.3370   40.3610 H   0  0  0  0  0  0  0  0  0  0  0  0
   51.8010   29.9340   41.9870 O   0  0  0  0  0  0  0  0  0  0  0  0
   51.0380   30.1590   43.1260 C   0  0  0  0  0  3  0  0  0  0  0  0
   51.6930   30.7910   43.7910 H   0  0  0  0  0  0  0  0  0  0  0  0
   49.8350   31.0500   42.8090 C   0  0  0  0  0  3  0  0  0  0  0  0
   49.3140   30.5890   41.9700 H   0  0  0  0  0  0  0  0  0  0  0  0
   47.2340   33.9110   44.0120 O   0  0  0  0  0  0  0  0  0  0  0  0
   45.2010   34.5160   45.5070 O   0  0  0  0  0  0  0  0  0  0  0  0
   46.0130   33.3470   45.0240 P   0  0  1  0  0  0  0  0  0  0  0  0
   45.0720   32.1960   44.2310 O   0  0  0  0  0  0  0  0  0  0  0  0
   44.1160   32.5140   44.2760 H   0  0  0  0  0  0  0  0  0  0  0  0
   46.7080   32.5470   46.3290 O   0  0  0  0  0  0  0  0  0  0  0  0
   45.9620   31.4540   46.6280 C   0  0  0  0  0  0  0  0  0  0  0  0
   45.3230   31.4740   47.5020 H   0  0  0  0  0  0  0  0  0  0  0  0
   45.2520   31.3230   45.7570 H   0  0  0  0  0  0  0  0  0  0  0  0
   48.6570   28.9900   45.9060 C   0  0  0  0  0  0  0  0  0  0  0  0
   47.9170   30.1800   45.8870 C   0  0  0  0  0  0  0  0  0  0  0  0
   46.7560   30.2110   46.6410 C   0  0  0  0  0  0  0  0  0  0  0  0
   46.3920   29.0990   47.3580 N   0  0  0  0  0  0  0  0  0  0  0  0
   47.1260   27.9750   47.3550 C   0  0  0  0  0  0  0  0  0  0  0  0
   48.2450   27.9240   46.6360 N   0  0  0  0  0  0  0  0  0  0  0  0
   49.5700   28.9270   45.3300 H   0  0  0  0  0  0  0  0  0  0  0  0
   48.2420   31.0320   45.3060 H   0  0  0  0  0  0  0  0  0  0  0  0
   46.8390   27.0970   47.9200 H   0  0  0  0  0  0  0  0  0  0  0  0
  1  6  1  6  0  0  0
  1 27  1  0  0  0  0
  2  7  1  0  0  0  0
  2  8  1  0  0  0  0
  2  1  1  0  0  0  0
  3  4  1  0  0  0  0
  3  2  1  0  0  0  0
  4  5  1  0  0  0  0
  5 14  1  0  0  0  0
  5 13  1  1  0  0  0
  5  1  1  0  0  0  0
  9  3  1  0  0  0  0
 10  3  1  0  0  0  0
 11  4  1  0  0  0  0
 12  4  1  0  0  0  0
 14 17  1  0  0  0  0
 14 15  1  0  0  0  0
 16 14  1  0  0  0  0
 17 25  1  0  0  0  0
 18 17  1  0  0  0  0
 19 18  1  0  0  0  0
 20 18  1  0  0  0  0
 20 22  1  0  0  0  0
 21 20  1  0  0  0  0
 22 23  1  0  0  0  0
 23 24  1  0  0  0  0
 25 23  1  0  0  0  0
 26 25  1  0  0  0  0
 27 29  1  0  0  0  0
 29 28  2  1  0  0  0
 29 32  1  0  0  0  0
 30 31  1  0  0  0  0
 30 29  1  0  0  0  0
 32 33  1  0  0  0  0
 33 38  1  0  0  0  0
 33 34  1  0  0  0  0
 35 33  1  0  0  0  0
 36 41  1  0  0  0  0
 37 36  2  0  0  0  0
 37 38  1  0  0  0  0
 38 39  2  0  0  0  0
 40 39  1  0  0  0  0
 40 44  1  0  0  0  0
 41 40  2  0  0  0  0
 42 36  1  0  0  0  0
 43 37  1  0  0  0  0
M  END
>  <minimizedAffinity>
-4.17052078

>  <minimizedRMSD>
3.00645018

$$$$
