REMARK  Name = 
REMARK  2 active torsions:
REMARK  status: ('A' for Active; 'I' for Inactive)
REMARK    1  A    between atoms: C_2  and  C_18
REMARK    2  A    between atoms: C_5  and  C_7
REMARK                            x       y       z     vdW  Elec       q    Type
REMARK                         _______ _______ _______ _____ _____    ______ ____
ROOT
ATOM      1  C   UNL     1      44.512  35.816  44.703  0.00  0.00    +0.000 A 
ATOM      2  C   UNL     1      45.186  35.739  43.459  0.00  0.00    +0.000 A 
ATOM      3  C   UNL     1      46.125  34.733  43.282  0.00  0.00    +0.000 A 
ATOM      4  N   UNL     1      46.341  33.877  44.322  0.00  0.00    +0.000 NA
ATOM      5  C   UNL     1      45.689  33.976  45.484  0.00  0.00    +0.000 A 
ATOM      6  N   UNL     1      44.776  34.928  45.701  0.00  0.00    +0.000 NA
ATOM      7  H   UNL     1      43.762  36.559  44.951  0.00  0.00    +0.000 HD
ATOM      8  H   UNL     1      46.619  34.690  42.347  0.00  0.00    +0.000 HD
ENDROOT
BRANCH   2   9
ATOM      9  C   UNL     1      44.815  36.771  42.430  0.00  0.00    +0.000 C 
ATOM     10  C   UNL     1      46.013  37.612  42.058  0.00  0.00    +0.000 C 
ATOM     11  H   UNL     1      46.586  36.979  41.314  0.00  0.00    +0.000 HD
ATOM     12  C   UNL     1      45.641  38.850  41.307  0.00  0.00    +0.000 C 
ATOM     13  H   UNL     1      46.539  39.502  41.267  0.00  0.00    +0.000 HD
ATOM     14  O   UNL     1      44.650  39.596  41.935  0.00  0.00    +0.000 OA
ATOM     15  C   UNL     1      44.335  39.031  43.194  0.00  0.00    +0.000 C 
ATOM     16  H   UNL     1      43.578  39.675  43.688  0.00  0.00    +0.000 HD
ATOM     17  C   UNL     1      43.734  37.682  42.912  0.00  0.00    +0.000 C 
ATOM     18  H   UNL     1      43.164  37.278  43.773  0.00  0.00    +0.000 HD
ENDBRANCH   2   9
BRANCH   5  19
ATOM     19  C   UNL     1      45.965  33.028  46.560  0.00  0.00    +0.000 A 
ATOM     20  C   UNL     1      47.033  32.175  46.515  0.00  0.00    +0.000 A 
ATOM     21  C   UNL     1      47.334  31.265  47.505  0.00  0.00    +0.000 A 
ATOM     22  N   UNL     1      46.494  31.246  48.571  0.00  0.00    +0.000 NA
ATOM     23  C   UNL     1      45.436  32.086  48.623  0.00  0.00    +0.000 A 
ATOM     24  N   UNL     1      45.125  32.995  47.648  0.00  0.00    +0.000 NA
ATOM     25  H   UNL     1      47.692  32.204  45.658  0.00  0.00    +0.000 HD
ATOM     26  H   UNL     1      48.175  30.608  47.447  0.00  0.00    +0.000 HD
ATOM     27  H   UNL     1      44.816  32.009  49.506  0.00  0.00    +0.000 HD
ENDBRANCH   5  19
TORSDOF 2
