REMARK  Name = 
REMARK  2 active torsions:
REMARK  status: ('A' for Active; 'I' for Inactive)
REMARK    1  A    between atoms: C_1  and  C_7
REMARK    2  A    between atoms: C_3  and  C_13
REMARK                            x       y       z     vdW  Elec       q    Type
REMARK                         _______ _______ _______ _____ _____    ______ ____
ROOT
ATOM      1  C   UNL     1      47.676  34.954  42.353  0.00  0.00    +0.000 A 
ATOM      2  C   UNL     1      47.927  33.905  43.246  0.00  0.00    +0.000 A 
ATOM      3  C   UNL     1      46.895  33.528  44.127  0.00  0.00    +0.000 A 
ATOM      4  N   UNL     1      45.730  34.203  44.053  0.00  0.00    +0.000 NA
ATOM      5  C   UNL     1      45.506  35.214  43.185  0.00  0.00    +0.000 A 
ATOM      6  N   UNL     1      46.485  35.582  42.340  0.00  0.00    +0.000 NA
ATOM      7  H   UNL     1      48.882  33.382  43.277  0.00  0.00    +0.000 HD
ATOM      8  H   UNL     1      44.545  35.717  43.176  0.00  0.00    +0.000 HD
ENDROOT
BRANCH   3   9
ATOM      9  C   UNL     1      47.136  32.422  45.079  0.00  0.00    +0.000 C 
ATOM     10  C   UNL     1      47.898  32.961  46.264  0.00  0.00    +0.000 C 
ATOM     11  H   UNL     1      47.238  33.410  47.019  0.00  0.00    +0.000 HD
ATOM     12  C   UNL     1      48.712  31.812  46.813  0.00  0.00    +0.000 C 
ATOM     13  H   UNL     1      49.225  32.213  47.728  0.00  0.00    +0.000 HD
ATOM     14  O   UNL     1      49.713  31.524  45.912  0.00  0.00    +0.000 OA
ATOM     15  C   UNL     1      49.285  31.195  44.647  0.00  0.00    +0.000 C 
ATOM     16  H   UNL     1      49.621  30.161  44.430  0.00  0.00    +0.000 HD
ATOM     17  C   UNL     1      47.798  31.247  44.436  0.00  0.00    +0.000 C 
ATOM     18  H   UNL     1      47.315  30.276  44.727  0.00  0.00    +0.000 HD
ENDBRANCH   3   9
BRANCH   1  19
ATOM     19  C   UNL     1      48.796  35.338  41.423  0.00  0.00    +0.000 C 
ATOM     20  F   UNL     1      48.418  35.242  40.111  0.00  0.00    +0.000 F 
ATOM     21  F   UNL     1      49.208  36.614  41.748  0.00  0.00    +0.000 F 
ATOM     22  F   UNL     1      49.892  34.506  41.673  0.00  0.00    +0.000 F 
ENDBRANCH   1  19
TORSDOF 2
