
     RDKit          3D

 44 48  0  0  0  0  0  0  0  0999 V2000
   47.2610   31.3872   45.1393 C   0  0  0  0  0  0  0  0  0  0  0  0
   46.8707   32.7130   45.1287 C   0  0  0  0  0  0  0  0  0  0  0  0
   46.2364   33.3247   46.2036 C   0  0  0  0  0  0  0  0  0  0  0  0
   45.9679   32.5998   47.3554 C   0  0  0  0  0  0  0  0  0  0  0  0
   45.3887   32.8499   48.5554 N   0  0  0  0  0  0  0  0  0  0  0  0
   45.4178   31.7102   49.2930 C   0  0  0  0  0  0  0  0  0  0  0  0
   46.0186   30.7586   48.5381 N   0  0  0  0  0  0  0  0  0  0  0  0
   46.3682   31.2744   47.3417 C   0  0  0  0  0  0  0  0  0  0  0  0
   46.9964   30.6452   46.2936 C   0  0  0  0  0  0  0  0  0  0  0  0
   46.4835   35.1941   42.4354 C   0  0  0  0  0  0  0  0  0  0  0  0
   47.6543   35.0307   41.7032 C   0  0  0  0  0  0  0  0  0  0  0  0
   48.5806   34.0643   42.1363 C   0  0  0  0  0  0  0  0  0  0  0  0
   48.2858   33.3348   43.2527 N   0  0  0  0  0  0  0  0  0  0  0  0
   47.1279   33.5252   43.9420 C   0  0  0  0  0  0  0  0  0  0  0  0
   46.2388   34.4416   43.5399 N   0  0  0  0  0  0  0  0  0  0  0  0
   47.3754   29.2309   46.3935 C   0  0  0  0  0  0  0  0  0  0  0  0
   48.6807   28.7983   46.6227 C   0  0  0  0  0  0  0  0  0  0  0  0
   48.5505   27.4019   46.6371 C   0  0  0  0  0  0  0  0  0  0  0  0
   47.2108   27.0831   46.4216 C   0  0  0  0  0  0  0  0  0  0  0  0
   46.5570   28.2292   46.2827 O   0  0  0  0  0  0  0  0  0  0  0  0
   47.7532   30.9262   44.2951 H   0  0  0  0  0  0  0  0  0  0  0  0
   45.9294   34.3607   46.2003 H   0  0  0  0  0  0  0  0  0  0  0  0
   44.9928   33.7871   48.8333 H   0  0  0  0  0  0  0  0  0  0  0  0
   45.0332   31.5790   50.3003 H   0  0  0  0  0  0  0  0  0  0  0  0
   45.7889   35.9408   42.0841 H   0  0  0  0  0  0  0  0  0  0  0  0
   47.8218   35.6444   40.8280 H   0  0  0  0  0  0  0  0  0  0  0  0
   49.4906   33.9166   41.5921 H   0  0  0  0  0  0  0  0  0  0  0  0
   49.5978   29.3399   46.7619 H   0  0  0  0  0  0  0  0  0  0  0  0
   49.3258   26.6510   46.7860 H   0  0  0  0  0  0  0  0  0  0  0  0
   46.5583   25.7659   46.3466 C   0  0  0  0  0  0  0  0  0  0  0  0
   47.2173   24.7512   47.2231 C   0  0  2  0  0  0  0  0  0  0  0  0
   47.6615   25.1845   48.1417 H   0  0  0  0  0  0  0  0  0  0  0  0
   46.1455   23.7152   47.5775 C   0  0  2  0  0  0  0  0  0  0  0  0
   45.4193   24.1265   48.3127 H   0  0  0  0  0  0  0  0  0  0  0  0
   45.4270   23.5121   46.3968 O   0  0  0  0  0  0  0  0  0  0  0  0
   44.4729   24.5424   46.2639 C   0  0  1  0  0  0  0  0  0  0  0  0
   44.1561   24.6116   45.1995 H   0  0  0  0  0  0  0  0  0  0  0  0
   45.0923   25.8341   46.7509 C   0  0  2  0  0  0  0  0  0  0  0  0
   44.6398   26.6535   46.1273 H   0  0  0  0  0  0  0  0  0  0  0  0
   46.5394   25.3573   45.3039 H   0  0  0  0  0  0  0  0  0  0  0  0
   48.0285   24.1830   46.7200 H   0  0  0  0  0  0  0  0  0  0  0  0
   46.5948   22.7741   47.9610 H   0  0  0  0  0  0  0  0  0  0  0  0
   43.5677   24.3619   46.8674 H   0  0  0  0  0  0  0  0  0  0  0  0
   44.9343   26.0426   47.8078 H   0  0  0  0  0  0  0  0  0  0  0  0
  1  9  2  0
  2  1  1  0
  2  3  2  0
  3  4  1  0
  4  5  1  0
  5  6  1  0
  7  6  2  0
  8  4  2  0
  8  7  1  0
  9 16  1  0
  9  8  1  0
 10 15  2  0
 11 12  2  0
 11 10  1  0
 12 13  1  0
 13 14  2  0
 14  2  1  0
 15 14  1  0
 16 17  2  0
 17 18  1  0
 19 18  2  0
 20 16  1  0
 20 19  1  0
  1 21  1  0
  3 22  1  0
  5 23  1  0
  6 24  1  0
 10 25  1  0
 11 26  1  0
 12 27  1  0
 17 28  1  0
 18 29  1  0
 30 31  1  0
 31 32  1  1
 31 33  1  0
 33 34  1  1
 33 35  1  0
 35 36  1  0
 36 37  1  6
 36 38  1  0
 38 39  1  6
 38 30  1  0
 30 40  1  0
 31 41  1  0
 33 42  1  0
 36 43  1  0
 38 44  1  0
 19 30  1  0
M  ISO  8  21  14  22  14  23   9  24  14  25  14  26  14  27  14  28  14
M  ISO  5  29  14  32  15  34  15  37  15  39  15
M  END
>  <DihAtoms>  (1) 
17,18,29,30

>  <DihDeg>  (1) 
-58.07967370885211

$$$$
