REMARK  Name = 
REMARK  2 active torsions:
REMARK  status: ('A' for Active; 'I' for Inactive)
REMARK    1  A    between atoms: C_5  and  C_7
REMARK    2  A    between atoms: C_10  and  C_17
REMARK                            x       y       z     vdW  Elec       q    Type
REMARK                         _______ _______ _______ _____ _____    ______ ____
ROOT
ATOM      1  C   UNL     1      45.868  32.932  46.706  0.00  0.00    +0.000 A 
ATOM      2  C   UNL     1      45.113  32.782  47.898  0.00  0.00    +0.000 A 
ATOM      3  C   UNL     1      45.492  31.821  48.777  0.00  0.00    +0.000 A 
ATOM      4  C   UNL     1      46.615  31.009  48.481  0.00  0.00    +0.000 A 
ATOM      5  S   UNL     1      47.155  31.651  46.867  0.00  0.00    +0.000 S 
ATOM      6  H   UNL     1      44.261  33.417  48.095  0.00  0.00    +0.000 HD
ATOM      7  H   UNL     1      45.026  31.596  49.700  0.00  0.00    +0.000 HD
ENDROOT
BRANCH   4   8
ATOM      8  C   UNL     1      47.272  29.953  49.137  0.00  0.00    +0.000 C 
ATOM      9  C   UNL     1      48.769  30.038  48.914  0.00  0.00    +0.000 C 
ATOM     10  H   UNL     1      49.152  30.973  49.394  0.00  0.00    +0.000 HD
ATOM     11  C   UNL     1      49.427  28.788  49.463  0.00  0.00    +0.000 C 
ATOM     12  H   UNL     1      50.194  29.095  50.229  0.00  0.00    +0.000 HD
ATOM     13  O   UNL     1      48.500  28.038  50.143  0.00  0.00    +0.000 OA
ATOM     14  C   UNL     1      47.492  27.528  49.358  0.00  0.00    +0.000 C 
ATOM     15  H   UNL     1      47.807  26.651  48.744  0.00  0.00    +0.000 HD
ATOM     16  C   UNL     1      46.862  28.617  48.522  0.00  0.00    +0.000 C 
ATOM     17  H   UNL     1      45.765  28.509  48.426  0.00  0.00    +0.000 HD
ENDBRANCH   4   8
BRANCH   1  22
ATOM     18  C   UNL     1      44.588  35.795  44.733  0.00  0.00    +0.000 A 
ATOM     19  C   UNL     1      45.274  35.564  43.514  0.00  0.00    +0.000 A 
ATOM     20  C   UNL     1      46.135  34.453  43.420  0.00  0.00    +0.000 A 
ATOM     21  N   UNL     1      46.253  33.661  44.525  0.00  0.00    +0.000 NA
ATOM     22  C   UNL     1      45.576  33.922  45.670  0.00  0.00    +0.000 A 
ATOM     23  N   UNL     1      44.743  34.989  45.776  0.00  0.00    +0.000 NA
ATOM     24  H   UNL     1      43.927  36.650  44.804  0.00  0.00    +0.000 HD
ATOM     25  H   UNL     1      45.163  36.204  42.658  0.00  0.00    +0.000 HD
ATOM     26  H   UNL     1      46.687  34.216  42.529  0.00  0.00    +0.000 HD
ENDBRANCH   1  22
TORSDOF 2
