
 OpenBabel03242523433D

 25 26  0  0  1  0  0  0  0  0999 V2000
   47.7880   35.0800   41.4440 C   0  0  1  0  0  0  0  0  0  0  0  0
   47.2740   35.9030   40.8500 H   0  0  0  0  0  0  0  0  0  0  0  0
   48.0560   33.9650   40.5110 C   0  0  0  0  0  0  0  0  0  0  0  0
   49.2450   33.0910   40.8660 C   0  0  0  0  0  0  0  0  0  0  0  0
   50.1820   33.5380   40.5450 H   0  0  0  0  0  0  0  0  0  0  0  0
   49.0350   31.8350   40.0180 C   0  0  0  0  0  0  0  0  0  0  0  0
   48.0340   31.4510   40.2820 H   0  0  0  0  0  0  0  0  0  0  0  0
   49.1990   32.1660   38.7130 O   0  0  0  0  0  0  0  0  0  0  0  0
   48.3660   33.1160   38.1790 C   0  0  0  0  0  0  0  0  0  0  0  0
   48.8190   33.4640   37.2260 H   0  0  0  0  0  0  0  0  0  0  0  0
   48.1190   34.3030   39.0570 C   0  0  0  0  0  0  0  0  0  0  0  0
   48.9130   35.0390   38.8870 H   0  0  0  0  0  0  0  0  0  0  0  0
   45.7700   35.5210   42.7700 C   0  0  0  0  0  0  0  0  0  0  0  0
   46.9600   34.8080   42.6150 C   0  0  0  0  0  0  0  0  0  0  0  0
   47.3120   33.8790   43.5970 C   0  0  0  0  0  0  0  0  0  0  0  0
   46.4750   33.7200   44.6530 N   0  0  0  0  0  0  0  0  0  0  0  0
   45.3240   34.4280   44.7770 C   0  0  0  0  0  0  0  0  0  0  0  0
   44.9590   35.3380   43.8350 N   0  0  0  0  0  0  0  0  0  0  0  0
   45.4630   36.2500   42.0300 H   0  0  0  0  0  0  0  0  0  0  0  0
   48.2130   33.3120   43.5340 H   0  0  0  0  0  0  0  0  0  0  0  0
   44.6970   34.2450   45.6600 H   0  0  0  0  0  0  0  0  0  0  0  0
   49.0880   35.6910   41.9230 C   0  0  0  0  0  0  0  0  0  0  0  0
   49.6670   34.9470   42.4940 H   0  0  0  0  0  0  0  0  0  0  0  0
   49.6290   36.0680   41.0290 H   0  0  0  0  0  0  0  0  0  0  0  0
   48.8380   36.5360   42.6060 H   0  0  0  0  0  0  0  0  0  0  0  0
  1  2  1  6  0  0  0
  1 22  1  0  0  0  0
  1 14  1  0  0  0  0
  3  4  1  0  0  0  0
  3  1  1  0  0  0  0
  5  4  1  0  0  0  0
  6  7  1  0  0  0  0
  6  4  1  0  0  0  0
  8  6  1  0  0  0  0
  9  8  1  0  0  0  0
  9 11  1  0  0  0  0
 10  9  1  0  0  0  0
 11  3  1  0  0  0  0
 12 11  1  0  0  0  0
 13 18  1  0  0  0  0
 14 13  2  0  0  0  0
 14 15  1  0  0  0  0
 15 16  2  0  0  0  0
 16 17  1  0  0  0  0
 17 21  1  0  0  0  0
 18 17  2  0  0  0  0
 19 13  1  0  0  0  0
 20 15  1  0  0  0  0
 22 23  1  0  0  0  0
 22 25  1  0  0  0  0
 24 22  1  0  0  0  0
M  END
>  <minimizedAffinity>
-4.35170603

>  <minimizedRMSD>
2.00760365

$$$$
