
 OpenBabel03242523433D

 25 26  0  0  1  0  0  0  0  0999 V2000
   46.4770   35.1240   42.0990 C   0  0  1  0  0  0  0  0  0  0  0  0
   46.1260   36.2040   42.0410 H   0  0  0  0  0  0  0  0  0  0  0  0
   45.8850   34.4070   40.9500 C   0  0  0  0  0  3  0  0  0  0  0  0
   44.4690   33.9020   41.1580 C   0  0  0  0  0  3  0  0  0  0  0  0
   44.4560   32.9620   41.7050 H   0  0  0  0  0  0  0  0  0  0  0  0
   43.9830   33.5970   39.7390 C   0  0  0  0  0  3  0  0  0  0  0  0
   44.1010   34.5340   39.1670 H   0  0  0  0  0  0  0  0  0  0  0  0
   44.6860   32.5400   39.2620 O   0  0  0  0  0  0  0  0  0  0  0  0
   46.0490   32.6610   39.1680 C   0  0  0  0  0  3  0  0  0  0  0  0
   46.4690   31.6400   39.0460 H   0  0  0  0  0  0  0  0  0  0  0  0
   46.7060   33.3180   40.3420 C   0  0  0  0  0  3  0  0  0  0  0  0
   46.9210   32.5550   41.0990 H   0  0  0  0  0  0  0  0  0  0  0  0
   45.1640   35.2800   44.1680 C   0  0  0  0  0  0  0  0  0  0  0  0
   46.1690   34.6390   43.4410 C   0  0  0  0  0  0  0  0  0  0  0  0
   46.8460   33.5740   44.0390 C   0  0  0  0  0  0  0  0  0  0  0  0
   46.4880   33.2190   45.2990 N   0  0  0  0  0  0  0  0  0  0  0  0
   45.5070   33.8610   45.9810 C   0  0  0  0  0  0  0  0  0  0  0  0
   44.8330   34.9010   45.4210 N   0  0  0  0  0  0  0  0  0  0  0  0
   44.6170   36.1100   43.7380 H   0  0  0  0  0  0  0  0  0  0  0  0
   47.6270   33.0520   43.5340 H   0  0  0  0  0  0  0  0  0  0  0  0
   45.2730   33.5160   46.9970 H   0  0  0  0  0  0  0  0  0  0  0  0
   47.9830   35.1890   41.9610 C   0  0  0  0  0  0  0  0  0  0  0  0
   48.4090   34.1730   41.9820 H   0  0  0  0  0  0  0  0  0  0  0  0
   48.2080   35.7330   41.0180 H   0  0  0  0  0  0  0  0  0  0  0  0
   48.3840   35.7530   42.8340 H   0  0  0  0  0  0  0  0  0  0  0  0
  1  2  1  6  0  0  0
  1 14  1  0  0  0  0
  3  4  1  0  0  0  0
  3  1  1  0  0  0  0
  4  5  1  0  0  0  0
  6  4  1  0  0  0  0
  7  6  1  0  0  0  0
  8  6  1  0  0  0  0
  9  8  1  0  0  0  0
  9 11  1  0  0  0  0
 10  9  1  0  0  0  0
 11  3  1  0  0  0  0
 11 12  1  0  0  0  0
 13 18  1  0  0  0  0
 14 15  1  0  0  0  0
 14 13  2  0  0  0  0
 15 16  2  0  0  0  0
 16 17  1  0  0  0  0
 17 21  1  0  0  0  0
 18 17  2  0  0  0  0
 19 13  1  0  0  0  0
 20 15  1  0  0  0  0
 22 23  1  0  0  0  0
 22  1  1  0  0  0  0
 22 25  1  0  0  0  0
 24 22  1  0  0  0  0
M  END
>  <minimizedAffinity>
-3.96841669

>  <minimizedRMSD>
0.355473876

$$$$
