
 OpenBabel03242519403D

 28 29  0  0  0  0  0  0  0  0999 V2000
   37.1280   28.7250   39.7240 O   0  0  0  0  0  0  0  0  0  0  0  0
   36.0010   29.1110   40.6900 P   0  0  2  0  0  0  0  0  0  0  0  0
   36.1600   30.7730   41.0570 O   0  0  0  0  0  0  0  0  0  0  0  0
   38.6000   33.0890   39.5970 C   0  0  0  0  0  0  0  0  0  0  0  0
   37.3550   32.4500   39.8330 C   0  0  0  0  0  0  0  0  0  0  0  0
   37.3580   31.4290   40.7930 C   0  0  0  0  0  0  0  0  0  0  0  0
   38.5070   31.1070   41.4350 N   0  0  0  0  0  0  0  0  0  0  0  0
   39.6720   31.7540   41.1690 C   0  0  0  0  0  0  0  0  0  0  0  0
   39.7190   32.7430   40.2520 N   0  0  0  0  0  0  0  0  0  0  0  0
   38.6640   33.8740   38.8770 H   0  0  0  0  0  0  0  0  0  0  0  0
   36.4830   32.7480   39.2940 H   0  0  0  0  0  0  0  0  0  0  0  0
   40.5040   31.3900   41.7570 H   0  0  0  0  0  0  0  0  0  0  0  0
   36.0370   28.2060   42.0780 O   0  0  0  0  0  0  0  0  0  0  0  0
   37.2680   27.6220   42.2220 C   0  0  0  0  0  3  0  0  0  0  0  0
   38.0310   28.0860   43.4260 C   0  0  0  0  0  3  0  0  0  0  0  0
   38.2690   29.1740   43.2470 H   0  0  0  0  0  0  0  0  0  0  0  0
   39.3530   27.3550   43.4580 C   0  0  0  0  0  3  0  0  0  0  0  0
   39.7490   27.4970   44.5000 H   0  0  0  0  0  0  0  0  0  0  0  0
   39.2590   25.9970   43.2740 O   0  0  0  0  0  0  0  0  0  0  0  0
   38.6380   25.6400   42.0810 C   0  0  0  0  0  3  0  0  0  0  0  0
   38.7370   24.5610   41.9460 H   0  0  0  0  0  0  0  0  0  0  0  0
   37.1830   26.0950   42.2480 C   0  0  0  0  0  3  0  0  0  0  0  0
   36.8070   25.7720   43.2500 H   0  0  0  0  0  0  0  0  0  0  0  0
   34.5460   28.9110   39.8460 O   0  0  0  0  0  0  0  0  0  0  0  0
   34.7210   28.9530   38.4760 C   0  0  0  0  0  0  0  0  0  0  0  0
   35.5340   30.0070   38.0670 F   0  0  0  0  0  0  0  0  0  0  0  0
   35.1720   27.7380   38.0300 F   0  0  0  0  0  0  0  0  0  0  0  0
   33.4670   29.1920   37.9180 F   0  0  0  0  0  0  0  0  0  0  0  0
  2  1  2  6  0  0  0
  2  3  1  0  0  0  0
  2 13  1  0  0  0  0
  4  5  2  0  0  0  0
  4  9  1  0  0  0  0
  5  6  1  0  0  0  0
  6  3  1  0  0  0  0
  6  7  2  0  0  0  0
  8  7  1  0  0  0  0
  8 12  1  0  0  0  0
  9  8  2  0  0  0  0
 10  4  1  0  0  0  0
 11  5  1  0  0  0  0
 13 14  1  0  0  0  0
 14 22  1  0  0  0  0
 14 15  1  0  0  0  0
 15 17  1  0  0  0  0
 16 15  1  0  0  0  0
 17 18  1  0  0  0  0
 19 17  1  0  0  0  0
 20 22  1  0  0  0  0
 20 19  1  0  0  0  0
 21 20  1  0  0  0  0
 22 23  1  0  0  0  0
 24  2  1  0  0  0  0
 25 24  1  0  0  0  0
 26 25  1  0  0  0  0
 27 25  1  0  0  0  0
 28 25  1  0  0  0  0
M  END
>  <minimizedAffinity>
-4.80742836

$$$$

 OpenBabel03242519403D

 28 29  0  0  0  0  0  0  0  0999 V2000
   37.5200   29.2510   43.3490 O   0  0  0  0  0  0  0  0  0  0  0  0
   37.5130   28.9770   41.8410 P   0  0  2  0  0  0  0  0  0  0  0  0
   39.1290   29.0140   41.2840 O   0  0  0  0  0  0  0  0  0  0  0  0
   40.3220   32.4600   40.8990 C   0  0  0  0  0  0  0  0  0  0  0  0
   39.8020   31.3000   41.5290 C   0  0  0  0  0  0  0  0  0  0  0  0
   39.6370   30.1740   40.7100 C   0  0  0  0  0  0  0  0  0  0  0  0
   39.9710   30.2370   39.3980 N   0  0  0  0  0  0  0  0  0  0  0  0
   40.4660   31.3760   38.8480 C   0  0  0  0  0  0  0  0  0  0  0  0
   40.6410   32.4860   39.5960 N   0  0  0  0  0  0  0  0  0  0  0  0
   40.4710   33.3500   41.4670 H   0  0  0  0  0  0  0  0  0  0  0  0
   39.5570   31.3120   42.5680 H   0  0  0  0  0  0  0  0  0  0  0  0
   40.6870   31.2780   37.7930 H   0  0  0  0  0  0  0  0  0  0  0  0
   36.5920   30.0800   41.0140 O   0  0  0  0  0  0  0  0  0  0  0  0
   36.1580   29.5340   39.8350 C   0  0  0  0  0  3  0  0  0  0  0  0
   34.6920   29.2260   39.8020 C   0  0  0  0  0  3  0  0  0  0  0  0
   34.5280   28.4020   40.5560 H   0  0  0  0  0  0  0  0  0  0  0  0
   34.3600   28.6440   38.4480 C   0  0  0  0  0  3  0  0  0  0  0  0
   33.2430   28.7090   38.3590 H   0  0  0  0  0  0  0  0  0  0  0  0
   34.8640   29.3520   37.3840 O   0  0  0  0  0  0  0  0  0  0  0  0
   36.2470   29.5040   37.4230 C   0  0  0  0  0  3  0  0  0  0  0  0
   36.5760   29.9410   36.4780 H   0  0  0  0  0  0  0  0  0  0  0  0
   36.5050   30.4120   38.6310 C   0  0  0  0  0  3  0  0  0  0  0  0
   35.7990   31.2780   38.6010 H   0  0  0  0  0  0  0  0  0  0  0  0
   36.9370   27.3970   41.6350 O   0  0  0  0  0  0  0  0  0  0  0  0
   37.0030   26.6560   42.7990 C   0  0  0  0  0  0  0  0  0  0  0  0
   38.2780   26.6410   43.3590 F   0  0  0  0  0  0  0  0  0  0  0  0
   36.0470   27.0930   43.6800 F   0  0  0  0  0  0  0  0  0  0  0  0
   36.7170   25.3370   42.4530 F   0  0  0  0  0  0  0  0  0  0  0  0
  2  1  2  1  0  0  0
  3  2  1  0  0  0  0
  4 10  1  0  0  0  0
  4  5  1  0  0  0  0
  5 11  1  0  0  0  0
  6  3  1  0  0  0  0
  6  5  2  0  0  0  0
  7  6  1  0  0  0  0
  8  7  2  0  0  0  0
  8  9  1  0  0  0  0
  9  4  2  0  0  0  0
 12  8  1  0  0  0  0
 13  2  1  0  0  0  0
 14 13  1  0  0  0  0
 15 14  1  0  0  0  0
 15 16  1  0  0  0  0
 17 15  1  0  0  0  0
 18 17  1  0  0  0  0
 19 20  1  0  0  0  0
 19 17  1  0  0  0  0
 20 22  1  0  0  0  0
 21 20  1  0  0  0  0
 22 14  1  0  0  0  0
 23 22  1  0  0  0  0
 24  2  1  0  0  0  0
 24 25  1  0  0  0  0
 25 26  1  0  0  0  0
 25 27  1  0  0  0  0
 28 25  1  0  0  0  0
M  END
>  <minimizedAffinity>
-4.64315033

$$$$

 OpenBabel03242519403D

 28 29  0  0  0  0  0  0  0  0999 V2000
   37.7420   29.0710   38.4660 O   0  0  0  0  0  0  0  0  0  0  0  0
   36.6360   30.0730   38.8180 P   0  0  2  0  0  0  0  0  0  0  0  0
   37.1110   31.6140   38.2500 O   0  0  0  0  0  0  0  0  0  0  0  0
   38.5910   34.1590   40.4380 C   0  0  0  0  0  0  0  0  0  0  0  0
   37.5970   33.4330   39.7310 C   0  0  0  0  0  0  0  0  0  0  0  0
   38.0510   32.3540   38.9610 C   0  0  0  0  0  0  0  0  0  0  0  0
   39.3730   32.0580   38.9240 N   0  0  0  0  0  0  0  0  0  0  0  0
   40.2810   32.7880   39.6220 C   0  0  0  0  0  0  0  0  0  0  0  0
   39.8920   33.8360   40.3770 N   0  0  0  0  0  0  0  0  0  0  0  0
   38.3100   34.9910   41.0420 H   0  0  0  0  0  0  0  0  0  0  0  0
   36.5690   33.7160   39.8000 H   0  0  0  0  0  0  0  0  0  0  0  0
   41.2970   32.4340   39.4970 H   0  0  0  0  0  0  0  0  0  0  0  0
   36.3420   30.1230   40.4490 O   0  0  0  0  0  0  0  0  0  0  0  0
   37.2530   29.3420   41.1110 C   0  0  0  0  0  3  0  0  0  0  0  0
   38.2250   30.1110   41.9530 C   0  0  0  0  0  3  0  0  0  0  0  0
   38.8560   30.7110   41.2360 H   0  0  0  0  0  0  0  0  0  0  0  0
   39.1530   29.1250   42.6240 C   0  0  0  0  0  3  0  0  0  0  0  0
   39.6500   29.6970   43.4530 H   0  0  0  0  0  0  0  0  0  0  0  0
   38.5200   28.0650   43.2260 O   0  0  0  0  0  0  0  0  0  0  0  0
   37.7210   27.3290   42.3580 C   0  0  0  0  0  3  0  0  0  0  0  0
   37.3780   26.4300   42.8750 H   0  0  0  0  0  0  0  0  0  0  0  0
   36.5780   28.2800   41.9800 C   0  0  0  0  0  3  0  0  0  0  0  0
   36.1820   28.7680   42.9050 H   0  0  0  0  0  0  0  0  0  0  0  0
   35.2610   29.6080   37.9460 O   0  0  0  0  0  0  0  0  0  0  0  0
   34.5300   28.6320   38.5940 C   0  0  0  0  0  0  0  0  0  0  0  0
   35.3130   27.5600   39.0160 F   0  0  0  0  0  0  0  0  0  0  0  0
   33.8150   29.1940   39.6200 F   0  0  0  0  0  0  0  0  0  0  0  0
   33.6340   28.1130   37.6620 F   0  0  0  0  0  0  0  0  0  0  0  0
  2  1  2  6  0  0  0
  2 13  1  0  0  0  0
  3  2  1  0  0  0  0
  3  6  1  0  0  0  0
  4 10  1  0  0  0  0
  5 11  1  0  0  0  0
  5  4  2  0  0  0  0
  6  5  1  0  0  0  0
  7  6  2  0  0  0  0
  7  8  1  0  0  0  0
  8  9  2  0  0  0  0
  9  4  1  0  0  0  0
 12  8  1  0  0  0  0
 13 14  1  0  0  0  0
 14 15  1  0  0  0  0
 14 22  1  0  0  0  0
 15 17  1  0  0  0  0
 16 15  1  0  0  0  0
 17 19  1  0  0  0  0
 17 18  1  0  0  0  0
 20 21  1  0  0  0  0
 20 19  1  0  0  0  0
 22 20  1  0  0  0  0
 22 23  1  0  0  0  0
 24 25  1  0  0  0  0
 24  2  1  0  0  0  0
 25 26  1  0  0  0  0
 25 27  1  0  0  0  0
 28 25  1  0  0  0  0
M  END
>  <minimizedAffinity>
-4.59339809

$$$$

 OpenBabel03242519403D

 28 29  0  0  0  0  0  0  0  0999 V2000
   36.4710   30.7760   41.3860 O   0  0  0  0  0  0  0  0  0  0  0  0
   37.7370   29.9310   41.5720 P   0  0  2  0  0  0  0  0  0  0  0  0
   39.0090   30.9720   42.0420 O   0  0  0  0  0  0  0  0  0  0  0  0
   39.5620   33.9350   39.9510 C   0  0  0  0  0  0  0  0  0  0  0  0
   38.9530   33.0820   40.9090 C   0  0  0  0  0  0  0  0  0  0  0  0
   39.5720   31.8410   41.1120 C   0  0  0  0  0  0  0  0  0  0  0  0
   40.6860   31.5180   40.4120 N   0  0  0  0  0  0  0  0  0  0  0  0
   41.2260   32.3740   39.5070 C   0  0  0  0  0  0  0  0  0  0  0  0
   40.6660   33.5800   39.2760 N   0  0  0  0  0  0  0  0  0  0  0  0
   39.1390   34.8930   39.7500 H   0  0  0  0  0  0  0  0  0  0  0  0
   38.0730   33.3940   41.4290 H   0  0  0  0  0  0  0  0  0  0  0  0
   42.1130   31.9810   39.0260 H   0  0  0  0  0  0  0  0  0  0  0  0
   38.1420   29.1100   40.1900 O   0  0  0  0  0  0  0  0  0  0  0  0
   37.4260   29.6000   39.1290 C   0  0  0  0  0  3  0  0  0  0  0  0
   38.2690   30.1940   38.0410 C   0  0  0  0  0  3  0  0  0  0  0  0
   38.7550   31.1100   38.4850 H   0  0  0  0  0  0  0  0  0  0  0  0
   37.3510   30.6800   36.9440 C   0  0  0  0  0  3  0  0  0  0  0  0
   38.0100   30.8330   36.0480 H   0  0  0  0  0  0  0  0  0  0  0  0
   36.3940   29.7740   36.5570 O   0  0  0  0  0  0  0  0  0  0  0  0
   35.5760   29.3500   37.6000 C   0  0  0  0  0  3  0  0  0  0  0  0
   34.7600   28.7550   37.1840 H   0  0  0  0  0  0  0  0  0  0  0  0
   36.5020   28.5450   38.5200 C   0  0  0  0  0  3  0  0  0  0  0  0
   37.1150   27.8420   37.9030 H   0  0  0  0  0  0  0  0  0  0  0  0
   37.4340   28.8780   42.8640 O   0  0  0  0  0  0  0  0  0  0  0  0
   36.6220   27.8210   42.5030 C   0  0  0  0  0  0  0  0  0  0  0  0
   35.5630   28.2070   41.6850 F   0  0  0  0  0  0  0  0  0  0  0  0
   37.3800   26.8250   41.9440 F   0  0  0  0  0  0  0  0  0  0  0  0
   36.0480   27.3360   43.6760 F   0  0  0  0  0  0  0  0  0  0  0  0
  2  1  2  6  0  0  0
  2  3  1  0  0  0  0
  2 24  1  0  0  0  0
  4  5  1  0  0  0  0
  5  6  2  0  0  0  0
  5 11  1  0  0  0  0
  6  3  1  0  0  0  0
  7  6  1  0  0  0  0
  8  7  2  0  0  0  0
  9  8  1  0  0  0  0
  9  4  2  0  0  0  0
 10  4  1  0  0  0  0
 12  8  1  0  0  0  0
 13  2  1  0  0  0  0
 14 13  1  0  0  0  0
 15 16  1  0  0  0  0
 15 14  1  0  0  0  0
 17 15  1  0  0  0  0
 18 17  1  0  0  0  0
 19 17  1  0  0  0  0
 19 20  1  0  0  0  0
 20 22  1  0  0  0  0
 21 20  1  0  0  0  0
 22 14  1  0  0  0  0
 23 22  1  0  0  0  0
 25 24  1  0  0  0  0
 25 28  1  0  0  0  0
 26 25  1  0  0  0  0
 27 25  1  0  0  0  0
M  END
>  <minimizedAffinity>
-4.58702898

$$$$

 OpenBabel03242519403D

 28 29  0  0  0  0  0  0  0  0999 V2000
   38.7660   30.0160   39.9420 O   0  0  0  0  0  0  0  0  0  0  0  0
   37.5490   30.8230   40.4090 P   0  0  2  0  0  0  0  0  0  0  0  0
   36.9560   30.1120   41.8460 O   0  0  0  0  0  0  0  0  0  0  0  0
   37.2270   26.4620   42.0860 C   0  0  0  0  0  0  0  0  0  0  0  0
   36.7470   27.7310   41.6710 C   0  0  0  0  0  0  0  0  0  0  0  0
   37.3930   28.8460   42.2230 C   0  0  0  0  0  0  0  0  0  0  0  0
   38.4140   28.6730   43.0980 N   0  0  0  0  0  0  0  0  0  0  0  0
   38.8320   27.4320   43.4590 C   0  0  0  0  0  0  0  0  0  0  0  0
   38.2410   26.3290   42.9550 N   0  0  0  0  0  0  0  0  0  0  0  0
   36.7780   25.5750   41.7030 H   0  0  0  0  0  0  0  0  0  0  0  0
   35.9370   27.8040   40.9780 H   0  0  0  0  0  0  0  0  0  0  0  0
   39.6550   27.4490   44.1630 H   0  0  0  0  0  0  0  0  0  0  0  0
   36.3600   30.8740   39.2550 O   0  0  0  0  0  0  0  0  0  0  0  0
   36.4080   29.7420   38.4840 C   0  0  0  0  0  3  0  0  0  0  0  0
   35.1390   28.9450   38.4810 C   0  0  0  0  0  3  0  0  0  0  0  0
   35.0130   28.5510   39.5310 H   0  0  0  0  0  0  0  0  0  0  0  0
   35.3380   27.7420   37.5900 C   0  0  0  0  0  3  0  0  0  0  0  0
   34.3070   27.3510   37.3790 H   0  0  0  0  0  0  0  0  0  0  0  0
   35.8910   28.0250   36.3650 O   0  0  0  0  0  0  0  0  0  0  0  0
   37.1230   28.6660   36.4450 C   0  0  0  0  0  3  0  0  0  0  0  0
   37.5550   28.7190   35.4440 H   0  0  0  0  0  0  0  0  0  0  0  0
   36.8060   30.0450   37.0390 C   0  0  0  0  0  3  0  0  0  0  0  0
   35.9260   30.4830   36.5070 H   0  0  0  0  0  0  0  0  0  0  0  0
   38.1130   32.3720   40.7990 O   0  0  0  0  0  0  0  0  0  0  0  0
   38.2090   33.1930   39.6930 C   0  0  0  0  0  0  0  0  0  0  0  0
   38.6740   32.5250   38.5630 F   0  0  0  0  0  0  0  0  0  0  0  0
   37.0080   33.8180   39.4760 F   0  0  0  0  0  0  0  0  0  0  0  0
   39.1650   34.1610   39.9910 F   0  0  0  0  0  0  0  0  0  0  0  0
  2  1  2  6  0  0  0
  2 24  1  0  0  0  0
  2  3  1  0  0  0  0
  3  6  1  0  0  0  0
  4  9  1  0  0  0  0
  5  4  2  0  0  0  0
  5  6  1  0  0  0  0
  6  7  2  0  0  0  0
  7  8  1  0  0  0  0
  8 12  1  0  0  0  0
  9  8  2  0  0  0  0
 10  4  1  0  0  0  0
 11  5  1  0  0  0  0
 13  2  1  0  0  0  0
 14 13  1  0  0  0  0
 15 14  1  0  0  0  0
 15 16  1  0  0  0  0
 17 15  1  0  0  0  0
 18 17  1  0  0  0  0
 19 20  1  0  0  0  0
 19 17  1  0  0  0  0
 20 22  1  0  0  0  0
 21 20  1  0  0  0  0
 22 14  1  0  0  0  0
 23 22  1  0  0  0  0
 25 28  1  0  0  0  0
 25 24  1  0  0  0  0
 26 25  1  0  0  0  0
 27 25  1  0  0  0  0
M  END
>  <minimizedAffinity>
-4.53564596

$$$$

 OpenBabel03242519403D

 28 29  0  0  0  0  0  0  0  0999 V2000
   38.9170   28.6160   40.7950 O   0  0  0  0  0  0  0  0  0  0  0  0
   38.0430   29.1600   41.9310 P   0  0  2  0  0  0  0  0  0  0  0  0
   37.4530   27.8330   42.8330 O   0  0  0  0  0  0  0  0  0  0  0  0
   40.1100   25.4470   43.6650 C   0  0  0  0  0  0  0  0  0  0  0  0
   39.3900   26.6690   43.6260 C   0  0  0  0  0  0  0  0  0  0  0  0
   38.1920   26.6570   42.8980 C   0  0  0  0  0  0  0  0  0  0  0  0
   37.7850   25.5200   42.2830 N   0  0  0  0  0  0  0  0  0  0  0  0
   38.5160   24.3770   42.3540 C   0  0  0  0  0  0  0  0  0  0  0  0
   39.6760   24.3400   43.0420 N   0  0  0  0  0  0  0  0  0  0  0  0
   41.0290   25.3900   44.2020 H   0  0  0  0  0  0  0  0  0  0  0  0
   39.7630   27.5330   44.1320 H   0  0  0  0  0  0  0  0  0  0  0  0
   38.0680   23.5520   41.8150 H   0  0  0  0  0  0  0  0  0  0  0  0
   36.7850   30.0770   41.3600 O   0  0  0  0  0  0  0  0  0  0  0  0
   36.4010   29.6240   40.1250 C   0  0  0  0  0  3  0  0  0  0  0  0
   34.9840   29.1410   40.0610 C   0  0  0  0  0  3  0  0  0  0  0  0
   34.9360   28.2210   40.7120 H   0  0  0  0  0  0  0  0  0  0  0  0
   34.7020   28.6850   38.6490 C   0  0  0  0  0  3  0  0  0  0  0  0
   33.5840   28.6200   38.5720 H   0  0  0  0  0  0  0  0  0  0  0  0
   35.0960   29.5690   37.6750 O   0  0  0  0  0  0  0  0  0  0  0  0
   36.4500   29.8870   37.7260 C   0  0  0  0  0  3  0  0  0  0  0  0
   36.7060   30.4700   36.8390 H   0  0  0  0  0  0  0  0  0  0  0  0
   36.6160   30.6730   39.0330 C   0  0  0  0  0  3  0  0  0  0  0  0
   35.8080   31.4420   39.1070 H   0  0  0  0  0  0  0  0  0  0  0  0
   39.0630   30.0550   42.9450 O   0  0  0  0  0  0  0  0  0  0  0  0
   40.0610   30.7080   42.2470 C   0  0  0  0  0  0  0  0  0  0  0  0
   39.6080   31.2700   41.0560 F   0  0  0  0  0  0  0  0  0  0  0  0
   40.6700   31.6270   43.0620 F   0  0  0  0  0  0  0  0  0  0  0  0
   40.9990   29.7430   41.8870 F   0  0  0  0  0  0  0  0  0  0  0  0
  2  1  2  6  0  0  0
  2  3  1  0  0  0  0
  2 24  1  0  0  0  0
  3  6  1  0  0  0  0
  4 10  1  0  0  0  0
  5  4  1  0  0  0  0
  5 11  1  0  0  0  0
  6  5  2  0  0  0  0
  7  8  2  0  0  0  0
  7  6  1  0  0  0  0
  8  9  1  0  0  0  0
  9  4  2  0  0  0  0
 12  8  1  0  0  0  0
 13  2  1  0  0  0  0
 14 13  1  0  0  0  0
 15 14  1  0  0  0  0
 15 16  1  0  0  0  0
 17 15  1  0  0  0  0
 18 17  1  0  0  0  0
 19 20  1  0  0  0  0
 19 17  1  0  0  0  0
 20 22  1  0  0  0  0
 21 20  1  0  0  0  0
 22 23  1  0  0  0  0
 22 14  1  0  0  0  0
 25 24  1  0  0  0  0
 25 27  1  0  0  0  0
 26 25  1  0  0  0  0
 28 25  1  0  0  0  0
M  END
>  <minimizedAffinity>
-4.51107788

$$$$

 OpenBabel03242519403D

 28 29  0  0  0  0  0  0  0  0999 V2000
   37.3460   28.7290   43.6800 O   0  0  0  0  0  0  0  0  0  0  0  0
   37.9560   29.3110   42.3990 P   0  0  2  0  0  0  0  0  0  0  0  0
   36.7930   30.3300   41.6690 O   0  0  0  0  0  0  0  0  0  0  0  0
   36.3040   30.1160   38.0410 C   0  0  0  0  0  0  0  0  0  0  0  0
   36.8860   30.4870   39.2810 C   0  0  0  0  0  0  0  0  0  0  0  0
   36.2570   29.9920   40.4310 C   0  0  0  0  0  0  0  0  0  0  0  0
   35.1590   29.2060   40.3170 N   0  0  0  0  0  0  0  0  0  0  0  0
   34.6440   28.8830   39.1020 C   0  0  0  0  0  0  0  0  0  0  0  0
   35.2140   29.3360   37.9660 N   0  0  0  0  0  0  0  0  0  0  0  0
   36.7350   30.4610   37.1290 H   0  0  0  0  0  0  0  0  0  0  0  0
   37.7530   31.1100   39.3070 H   0  0  0  0  0  0  0  0  0  0  0  0
   33.7680   28.2500   39.1670 H   0  0  0  0  0  0  0  0  0  0  0  0
   38.4310   28.1250   41.3430 O   0  0  0  0  0  0  0  0  0  0  0  0
   38.2550   26.8930   41.9170 C   0  0  0  0  0  3  0  0  0  0  0  0
   37.1230   26.1010   41.3380 C   0  0  0  0  0  3  0  0  0  0  0  0
   36.1800   26.6590   41.6060 H   0  0  0  0  0  0  0  0  0  0  0  0
   37.0570   24.7730   42.0560 C   0  0  0  0  0  3  0  0  0  0  0  0
   36.4170   24.1140   41.4110 H   0  0  0  0  0  0  0  0  0  0  0  0
   38.2640   24.1280   42.1730 O   0  0  0  0  0  0  0  0  0  0  0  0
   39.2370   24.8820   42.8210 C   0  0  0  0  0  3  0  0  0  0  0  0
   40.1080   24.2480   43.0020 H   0  0  0  0  0  0  0  0  0  0  0  0
   39.5280   26.0460   41.8660 C   0  0  0  0  0  3  0  0  0  0  0  0
   39.6560   25.6500   40.8280 H   0  0  0  0  0  0  0  0  0  0  0  0
   39.2580   30.2830   42.8790 O   0  0  0  0  0  0  0  0  0  0  0  0
   39.7540   31.0500   41.8430 C   0  0  0  0  0  0  0  0  0  0  0  0
   39.8530   30.3440   40.6470 F   0  0  0  0  0  0  0  0  0  0  0  0
   39.0090   32.1940   41.7170 F   0  0  0  0  0  0  0  0  0  0  0  0
   41.0550   31.4050   42.1910 F   0  0  0  0  0  0  0  0  0  0  0  0
  2 24  1  0  0  0  0
  2  1  2  1  0  0  0
  3  2  1  0  0  0  0
  4  5  1  0  0  0  0
  5 11  1  0  0  0  0
  5  6  2  0  0  0  0
  6  3  1  0  0  0  0
  7  6  1  0  0  0  0
  8 12  1  0  0  0  0
  8  7  2  0  0  0  0
  9  4  2  0  0  0  0
  9  8  1  0  0  0  0
 10  4  1  0  0  0  0
 13 14  1  0  0  0  0
 13  2  1  0  0  0  0
 15 16  1  0  0  0  0
 15 14  1  0  0  0  0
 15 17  1  0  0  0  0
 17 19  1  0  0  0  0
 18 17  1  0  0  0  0
 19 20  1  0  0  0  0
 20 21  1  0  0  0  0
 22 14  1  0  0  0  0
 22 20  1  0  0  0  0
 23 22  1  0  0  0  0
 25 28  1  0  0  0  0
 25 24  1  0  0  0  0
 26 25  1  0  0  0  0
 27 25  1  0  0  0  0
M  END
>  <minimizedAffinity>
-4.44249725

$$$$

 OpenBabel03242519403D

 28 29  0  0  0  0  0  0  0  0999 V2000
   39.6810   28.1740   40.2600 O   0  0  0  0  0  0  0  0  0  0  0  0
   38.7140   28.9630   41.1510 P   0  0  2  0  0  0  0  0  0  0  0  0
   39.5500   30.3150   41.7800 O   0  0  0  0  0  0  0  0  0  0  0  0
   40.7490   32.7020   39.2670 C   0  0  0  0  0  0  0  0  0  0  0  0
   40.6610   31.5040   40.0210 C   0  0  0  0  0  0  0  0  0  0  0  0
   39.6730   31.4700   41.0150 C   0  0  0  0  0  0  0  0  0  0  0  0
   38.8700   32.5450   41.2070 N   0  0  0  0  0  0  0  0  0  0  0  0
   38.9980   33.6680   40.4530 C   0  0  0  0  0  0  0  0  0  0  0  0
   39.9350   33.7470   39.4860 N   0  0  0  0  0  0  0  0  0  0  0  0
   41.4800   32.7910   38.4970 H   0  0  0  0  0  0  0  0  0  0  0  0
   41.3240   30.6890   39.8230 H   0  0  0  0  0  0  0  0  0  0  0  0
   38.2900   34.4410   40.7190 H   0  0  0  0  0  0  0  0  0  0  0  0
   38.1080   28.0330   42.3830 O   0  0  0  0  0  0  0  0  0  0  0  0
   38.7800   26.8400   42.4410 C   0  0  0  0  0  3  0  0  0  0  0  0
   39.6080   26.6610   43.6770 C   0  0  0  0  0  3  0  0  0  0  0  0
   40.4300   27.4300   43.6180 H   0  0  0  0  0  0  0  0  0  0  0  0
   40.2770   25.3080   43.6060 C   0  0  0  0  0  3  0  0  0  0  0  0
   40.6290   25.0920   44.6500 H   0  0  0  0  0  0  0  0  0  0  0  0
   39.4370   24.2740   43.2710 O   0  0  0  0  0  0  0  0  0  0  0  0
   38.7860   24.4580   42.0550 C   0  0  0  0  0  3  0  0  0  0  0  0
   38.2610   23.5360   41.7970 H   0  0  0  0  0  0  0  0  0  0  0  0
   37.8410   25.6420   42.2950 C   0  0  0  0  0  3  0  0  0  0  0  0
   37.2970   25.4910   43.2600 H   0  0  0  0  0  0  0  0  0  0  0  0
   37.4860   29.5450   40.1400 O   0  0  0  0  0  0  0  0  0  0  0  0
   36.2830   29.6950   40.8030 C   0  0  0  0  0  0  0  0  0  0  0  0
   35.6780   28.4780   41.1060 F   0  0  0  0  0  0  0  0  0  0  0  0
   36.4610   30.4830   41.9110 F   0  0  0  0  0  0  0  0  0  0  0  0
   35.4200   30.3500   39.9280 F   0  0  0  0  0  0  0  0  0  0  0  0
  2  1  2  6  0  0  0
  2  3  1  0  0  0  0
  2 13  1  0  0  0  0
  4  9  2  0  0  0  0
  4  5  1  0  0  0  0
  5  6  2  0  0  0  0
  6  7  1  0  0  0  0
  6  3  1  0  0  0  0
  8 12  1  0  0  0  0
  8  7  2  0  0  0  0
  9  8  1  0  0  0  0
 10  4  1  0  0  0  0
 11  5  1  0  0  0  0
 13 14  1  0  0  0  0
 14 15  1  0  0  0  0
 16 15  1  0  0  0  0
 17 15  1  0  0  0  0
 17 18  1  0  0  0  0
 19 17  1  0  0  0  0
 20 22  1  0  0  0  0
 20 19  1  0  0  0  0
 21 20  1  0  0  0  0
 22 14  1  0  0  0  0
 22 23  1  0  0  0  0
 24 25  1  0  0  0  0
 24  2  1  0  0  0  0
 25 26  1  0  0  0  0
 25 27  1  0  0  0  0
 28 25  1  0  0  0  0
M  END
>  <minimizedAffinity>
-4.40561438

$$$$

 OpenBabel03242519403D

 28 29  0  0  0  0  0  0  0  0999 V2000
   38.4750   28.8460   39.4370 O   0  0  0  0  0  0  0  0  0  0  0  0
   38.2480   28.7010   40.9470 P   0  0  2  0  0  0  0  0  0  0  0  0
   36.9050   27.6710   41.1890 O   0  0  0  0  0  0  0  0  0  0  0  0
   37.3710   24.1240   41.9920 C   0  0  0  0  0  0  0  0  0  0  0  0
   37.2260   25.5210   42.1930 C   0  0  0  0  0  0  0  0  0  0  0  0
   37.0520   26.2960   41.0390 C   0  0  0  0  0  0  0  0  0  0  0  0
   37.0300   25.7020   39.8210 N   0  0  0  0  0  0  0  0  0  0  0  0
   37.1740   24.3580   39.6870 C   0  0  0  0  0  0  0  0  0  0  0  0
   37.3440   23.5700   40.7690 N   0  0  0  0  0  0  0  0  0  0  0  0
   37.5080   23.4790   42.8300 H   0  0  0  0  0  0  0  0  0  0  0  0
   37.2530   25.9310   43.1790 H   0  0  0  0  0  0  0  0  0  0  0  0
   37.1350   24.0270   38.6580 H   0  0  0  0  0  0  0  0  0  0  0  0
   37.9930   30.1670   41.6780 O   0  0  0  0  0  0  0  0  0  0  0  0
   38.2070   31.1800   40.7800 C   0  0  0  0  0  3  0  0  0  0  0  0
   36.9740   31.9520   40.4200 C   0  0  0  0  0  3  0  0  0  0  0  0
   36.3060   31.2360   39.8630 H   0  0  0  0  0  0  0  0  0  0  0  0
   37.3630   33.0320   39.4380 C   0  0  0  0  0  3  0  0  0  0  0  0
   36.5030   33.7540   39.4300 H   0  0  0  0  0  0  0  0  0  0  0  0
   38.4650   33.7660   39.8030 O   0  0  0  0  0  0  0  0  0  0  0  0
   39.6030   32.9920   40.0130 C   0  0  0  0  0  3  0  0  0  0  0  0
   40.4570   33.6580   40.1510 H   0  0  0  0  0  0  0  0  0  0  0  0
   39.2820   32.1570   41.2580 C   0  0  0  0  0  3  0  0  0  0  0  0
   38.8430   32.8190   42.0450 H   0  0  0  0  0  0  0  0  0  0  0  0
   39.6140   27.9170   41.5710 O   0  0  0  0  0  0  0  0  0  0  0  0
   39.8750   28.2730   42.8800 C   0  0  0  0  0  0  0  0  0  0  0  0
   40.4890   29.5190   42.9880 F   0  0  0  0  0  0  0  0  0  0  0  0
   38.7240   28.1900   43.6200 F   0  0  0  0  0  0  0  0  0  0  0  0
   40.7890   27.3470   43.3750 F   0  0  0  0  0  0  0  0  0  0  0  0
  2  1  2  6  0  0  0
  2  3  1  0  0  0  0
  2 24  1  0  0  0  0
  2 13  1  0  0  0  0
  4  5  1  0  0  0  0
  4 10  1  0  0  0  0
  5 11  1  0  0  0  0
  6  3  1  0  0  0  0
  6  5  2  0  0  0  0
  7  6  1  0  0  0  0
  8  7  2  0  0  0  0
  8  9  1  0  0  0  0
  9  4  2  0  0  0  0
 12  8  1  0  0  0  0
 14 22  1  0  0  0  0
 14 13  1  0  0  0  0
 15 14  1  0  0  0  0
 16 15  1  0  0  0  0
 17 19  1  0  0  0  0
 17 15  1  0  0  0  0
 18 17  1  0  0  0  0
 19 20  1  0  0  0  0
 20 21  1  0  0  0  0
 20 22  1  0  0  0  0
 22 23  1  0  0  0  0
 24 25  1  0  0  0  0
 25 26  1  0  0  0  0
 25 28  1  0  0  0  0
 25 27  1  0  0  0  0
M  END
>  <minimizedAffinity>
-4.39676428

$$$$
