
 OpenBabel03252508373D

 39 42  0  0  0  0  0  0  0  0999 V2000
   45.1430   33.9540   40.6980 C   0  0  0  0  0  0  0  0  0  0  0  0
   44.0960   33.6380   39.8770 C   0  0  0  0  0  0  0  0  0  0  0  0
   44.3940   33.1470   38.6430 C   0  0  0  0  0  0  0  0  0  0  0  0
   45.6780   32.9520   38.1830 C   0  0  0  0  0  0  0  0  0  0  0  0
   46.7060   33.2780   39.0310 C   0  0  0  0  0  0  0  0  0  0  0  0
   46.4560   33.7800   40.2890 C   0  0  0  0  0  0  0  0  0  0  0  0
   43.5700   32.8930   37.9840 H   0  0  0  0  0  0  0  0  0  0  0  0
   45.8990   32.5560   37.1880 H   0  0  0  0  0  0  0  0  0  0  0  0
   47.7130   33.1240   38.6660 H   0  0  0  0  0  0  0  0  0  0  0  0
   40.8130   35.2680   40.7900 C   0  0  0  0  0  0  0  0  0  0  0  0
   42.1070   35.0930   40.2730 C   0  0  0  0  0  0  0  0  0  0  0  0
   42.7620   33.8570   40.3960 C   0  0  0  0  0  0  0  0  0  0  0  0
   42.0480   32.8970   41.0360 N   0  0  0  0  0  0  0  0  0  0  0  0
   40.8190   33.0770   41.5220 C   0  0  0  0  0  0  0  0  0  0  0  0
   40.2060   34.2640   41.3970 N   0  0  0  0  0  0  0  0  0  0  0  0
   40.2050   36.5280   40.6380 N   0  0  0  0  0  0  0  0  0  0  0  0
   42.6760   35.8620   39.7620 H   0  0  0  0  0  0  0  0  0  0  0  0
   40.3910   32.2040   42.0050 H   0  0  0  0  0  0  0  0  0  0  0  0
   40.7390   37.2630   41.1490 H   0  0  0  0  0  0  0  0  0  0  0  0
   39.3260   36.6930   40.0770 H   0  0  0  0  0  0  0  0  0  0  0  0
   47.6230   34.0960   41.1140 C   0  0  0  0  0  0  0  0  0  0  0  0
   48.1380   35.3540   40.9540 C   0  0  0  0  0  0  0  0  0  0  0  0
   49.2440   35.8200   41.6580 C   0  0  0  0  0  0  0  0  0  0  0  0
   49.8390   34.9500   42.5630 C   0  0  0  0  0  0  0  0  0  0  0  0
   49.3360   33.6850   42.7360 C   0  0  0  0  0  0  0  0  0  0  0  0
   48.2350   33.2490   42.0210 C   0  0  0  0  0  0  0  0  0  0  0  0
   47.7340   36.0900   40.2710 H   0  0  0  0  0  0  0  0  0  0  0  0
   49.6510   36.7960   41.5400 H   0  0  0  0  0  0  0  0  0  0  0  0
   50.7030   35.2230   43.1560 H   0  0  0  0  0  0  0  0  0  0  0  0
   49.7580   32.9650   43.4250 H   0  0  0  0  0  0  0  0  0  0  0  0
   47.6430   31.9100   42.1560 C   0  0  0  0  0  0  0  0  0  0  0  0
   46.6680   31.4840   42.9880 N   0  0  0  0  0  0  0  0  0  0  0  0
   46.4530   30.1610   42.7500 C   0  0  0  0  0  0  0  0  0  0  0  0
   45.6710   29.7750   43.4030 H   0  0  0  0  0  0  0  0  0  0  0  0
   47.3090   29.8100   41.7720 N   0  0  0  0  0  0  0  0  0  0  0  0
   47.2300   28.7930   41.5040 H   0  0  0  0  0  0  0  0  0  0  0  0
   48.0230   30.8390   41.4090 N   0  0  0  0  0  0  0  0  0  0  0  0
   44.7380   34.8930   43.0960 N   0  0  0  0  0  0  0  0  0  0  0  0
   44.9220   34.4780   42.0140 C   0  0  0  0  0  0  0  0  0  0  0  0
  1 39  1  0  0  0  0
  2 12  1  0  0  0  0
  2  1  2  0  0  0  0
  3  2  1  0  0  0  0
  4  3  2  0  0  0  0
  4  5  1  0  0  0  0
  5  6  2  0  0  0  0
  6  1  1  0  0  0  0
  6 21  1  0  0  0  0
  7  3  1  0  0  0  0
  8  4  1  0  0  0  0
  9  5  1  0  0  0  0
 10 15  1  0  0  0  0
 11 12  1  0  0  0  0
 11 10  2  0  0  0  0
 12 13  2  0  0  0  0
 13 14  1  0  0  0  0
 14 18  1  0  0  0  0
 15 14  2  0  0  0  0
 16 10  1  0  0  0  0
 16 19  1  0  0  0  0
 17 11  1  0  0  0  0
 20 16  1  0  0  0  0
 21 26  1  0  0  0  0
 22 21  2  0  0  0  0
 22 23  1  0  0  0  0
 23 24  2  0  0  0  0
 24 25  1  0  0  0  0
 24 29  1  0  0  0  0
 25 30  1  0  0  0  0
 26 31  1  0  0  0  0
 26 25  2  0  0  0  0
 27 22  1  0  0  0  0
 28 23  1  0  0  0  0
 31 32  1  0  0  0  0
 33 32  2  0  0  0  0
 33 34  1  0  0  0  0
 35 33  1  0  0  0  0
 36 35  1  0  0  0  0
 37 35  1  0  0  0  0
 37 31  2  0  0  0  0
 39 38  3  0  0  0  0
M  END
>  <minimizedAffinity>
-5.90834951

>  <minimizedRMSD>
0.506228507

$$$$
