
 OpenBabel03252509123D

 30 33  0  0  0  0  0  0  0  0999 V2000
   47.7130   30.8680   44.7130 C   0  0  0  0  0  0  0  0  0  0  0  0
   47.4390   32.0200   43.9800 C   0  0  0  0  0  0  0  0  0  0  0  0
   46.6590   33.0380   44.4540 C   0  0  0  0  0  0  0  0  0  0  0  0
   46.1020   32.9280   45.7390 C   0  0  0  0  0  0  0  0  0  0  0  0
   45.3050   33.7170   46.5120 N   0  0  0  0  0  0  0  0  0  0  0  0
   45.0830   33.0920   47.6850 C   0  0  0  0  0  0  0  0  0  0  0  0
   45.7520   31.9160   47.6180 N   0  0  0  0  0  0  0  0  0  0  0  0
   46.3800   31.7920   46.4430 C   0  0  0  0  0  0  0  0  0  0  0  0
   47.1610   30.7530   45.9920 C   0  0  0  0  0  0  0  0  0  0  0  0
   48.3260   30.0540   44.3590 H   0  0  0  0  0  0  0  0  0  0  0  0
   44.9600   34.6490   46.1740 H   0  0  0  0  0  0  0  0  0  0  0  0
   44.4640   33.5870   48.4190 H   0  0  0  0  0  0  0  0  0  0  0  0
   47.3530   29.8790   46.5800 H   0  0  0  0  0  0  0  0  0  0  0  0
   47.8180   31.9030   40.3240 C   0  0  0  0  0  0  0  0  0  0  0  0
   49.1060   32.3990   40.1330 C   0  0  0  0  0  0  0  0  0  0  0  0
   49.8350   32.7710   41.2610 C   0  0  0  0  0  0  0  0  0  0  0  0
   49.2660   32.6370   42.5000 N   0  0  0  0  0  0  0  0  0  0  0  0
   48.0150   32.1510   42.6440 C   0  0  0  0  0  0  0  0  0  0  0  0
   47.2920   31.7850   41.5640 N   0  0  0  0  0  0  0  0  0  0  0  0
   47.2200   31.6030   39.4740 H   0  0  0  0  0  0  0  0  0  0  0  0
   49.5330   32.4960   39.1580 H   0  0  0  0  0  0  0  0  0  0  0  0
   50.8340   33.1610   41.1750 H   0  0  0  0  0  0  0  0  0  0  0  0
   46.3180   34.5070   43.5140 S   0  0  0  0  0  0  0  0  0  0  0  0
   44.7410   34.4550   42.6910 C   0  0  0  0  0  0  0  0  0  0  0  0
   44.0280   35.5430   42.2790 N   0  0  0  0  0  0  0  0  0  0  0  0
   42.8920   35.0920   41.6960 C   0  0  0  0  0  0  0  0  0  0  0  0
   42.1760   35.7950   41.2950 H   0  0  0  0  0  0  0  0  0  0  0  0
   42.8830   33.7340   41.7380 N   0  0  0  0  0  0  0  0  0  0  0  0
   42.1120   33.1410   41.3540 H   0  0  0  0  0  0  0  0  0  0  0  0
   43.9920   33.3910   42.3340 N   0  0  0  0  0  0  0  0  0  0  0  0
  1  9  1  0  0  0  0
  2  3  1  0  0  0  0
  2  1  2  0  0  0  0
  3  4  2  0  0  0  0
  4  8  1  0  0  0  0
  4  5  1  0  0  0  0
  5  6  1  0  0  0  0
  6 12  1  0  0  0  0
  7  6  2  0  0  0  0
  8  7  1  0  0  0  0
  9  8  2  0  0  0  0
  9 13  1  0  0  0  0
 10  1  1  0  0  0  0
 11  5  1  0  0  0  0
 14 19  1  0  0  0  0
 15 14  2  0  0  0  0
 15 16  1  0  0  0  0
 16 17  2  0  0  0  0
 17 18  1  0  0  0  0
 18  2  1  0  0  0  0
 19 18  2  0  0  0  0
 20 14  1  0  0  0  0
 21 15  1  0  0  0  0
 22 16  1  0  0  0  0
 23  3  1  0  0  0  0
 24 23  1  0  0  0  0
 25 24  1  0  0  0  0
 26 28  1  0  0  0  0
 26 25  2  0  0  0  0
 27 26  1  0  0  0  0
 28 30  1  0  0  0  0
 29 28  1  0  0  0  0
 30 24  2  0  0  0  0
M  END
>  <minimizedAffinity>
-4.81466532

>  <minimizedRMSD>
1.84830117

$$$$
