
 OpenBabel03252505183D

 32 35  0  0  0  0  0  0  0  0999 V2000
   45.0290   35.0560   44.4350 C   0  0  0  0  0  0  0  0  0  0  0  0
   45.9920   34.9680   43.4060 C   0  0  0  0  0  0  0  0  0  0  0  0
   47.0140   34.0750   43.6250 C   0  0  0  0  0  0  0  0  0  0  0  0
   47.0770   33.3240   44.7780 N   0  0  0  0  0  0  0  0  0  0  0  0
   46.1110   33.4520   45.7430 C   0  0  0  0  0  0  0  0  0  0  0  0
   45.1030   34.3140   45.5590 N   0  0  0  0  0  0  0  0  0  0  0  0
   44.1930   35.7490   44.3180 H   0  0  0  0  0  0  0  0  0  0  0  0
   45.9240   35.5680   42.5090 H   0  0  0  0  0  0  0  0  0  0  0  0
   46.2000   32.6300   46.9480 C   0  0  0  0  0  0  0  0  0  0  0  0
   45.1110   32.5640   47.7900 C   0  0  0  0  0  0  0  0  0  0  0  0
   45.1630   31.7980   48.9340 C   0  0  0  0  0  0  0  0  0  0  0  0
   46.3400   31.1100   49.1930 C   0  0  0  0  0  0  0  0  0  0  0  0
   47.4070   31.2130   48.3080 C   0  0  0  0  0  0  0  0  0  0  0  0
   47.3420   31.9700   47.1890 N   0  0  0  0  0  0  0  0  0  0  0  0
   44.1760   33.0920   47.6120 H   0  0  0  0  0  0  0  0  0  0  0  0
   44.3180   31.7270   49.6160 H   0  0  0  0  0  0  0  0  0  0  0  0
   46.4510   30.4860   50.0770 H   0  0  0  0  0  0  0  0  0  0  0  0
   48.6640   30.4930   48.5620 C   0  0  0  0  0  0  0  0  0  0  0  0
   49.0400   30.5480   49.8660 N   0  0  0  0  0  0  0  0  0  0  0  0
   50.2050   29.8560   49.9920 C   0  0  0  0  0  0  0  0  0  0  0  0
   50.7860   29.6950   50.8940 H   0  0  0  0  0  0  0  0  0  0  0  0
   50.5030   29.4030   48.7600 N   0  0  0  0  0  0  0  0  0  0  0  0
   51.3510   28.8390   48.5760 H   0  0  0  0  0  0  0  0  0  0  0  0
   49.5650   29.7910   47.8920 N   0  0  0  0  0  0  0  0  0  0  0  0
   48.0800   33.8670   42.5890 C   0  0  0  0  0  0  0  0  0  0  0  0
   48.1550   35.0260   41.5900 C   0  0  0  0  0  0  0  0  0  0  0  0
   49.2700   34.6750   42.6320 C   0  0  0  0  0  0  0  0  0  0  0  0
   48.1300   32.8490   42.1140 H   0  0  0  0  0  0  0  0  0  0  0  0
   47.5790   35.9370   41.7940 H   0  0  0  0  0  0  0  0  0  0  0  0
   48.3920   34.7560   40.5520 H   0  0  0  0  0  0  0  0  0  0  0  0
   50.2470   34.3840   42.2400 H   0  0  0  0  0  0  0  0  0  0  0  0
   49.3550   35.4230   43.4580 H   0  0  0  0  0  0  0  0  0  0  0  0
  1  6  1  0  0  0  0
  2  3  1  0  0  0  0
  2  1  2  0  0  0  0
  3  4  2  0  0  0  0
  4  5  1  0  0  0  0
  5  9  1  0  0  0  0
  6  5  2  0  0  0  0
  7  1  1  0  0  0  0
  8  2  1  0  0  0  0
  9 14  2  0  0  0  0
  9 10  1  0  0  0  0
 10 11  2  0  0  0  0
 11 12  1  0  0  0  0
 11 16  1  0  0  0  0
 12 17  1  0  0  0  0
 13 18  1  0  0  0  0
 13 12  2  0  0  0  0
 14 13  1  0  0  0  0
 15 10  1  0  0  0  0
 18 19  1  0  0  0  0
 19 20  2  0  0  0  0
 20 21  1  0  0  0  0
 22 20  1  0  0  0  0
 23 22  1  0  0  0  0
 24 18  2  0  0  0  0
 24 22  1  0  0  0  0
 25 27  1  0  0  0  0
 25  3  1  0  0  0  0
 26 29  1  0  0  0  0
 26 25  1  0  0  0  0
 26 27  1  0  0  0  0
 27 32  1  0  0  0  0
 28 25  1  0  0  0  0
 30 26  1  0  0  0  0
 31 27  1  0  0  0  0
M  END
>  <minimizedAffinity>
-5.93502998

>  <minimizedRMSD>
1.4199847

$$$$
