
 OpenBabel03252509143D

 43 47  0  0  1  0  0  0  0  0999 V2000
   47.4660   32.6930   43.7330 C   0  0  0  0  0  0  0  0  0  0  0  0
   46.7160   33.5320   42.9150 C   0  0  0  0  0  0  0  0  0  0  0  0
   45.6580   34.2940   43.3910 C   0  0  0  0  0  0  0  0  0  0  0  0
   45.3210   34.2240   44.7530 C   0  0  0  0  0  0  0  0  0  0  0  0
   44.3920   34.7960   45.5430 N   0  0  0  0  0  0  0  0  0  0  0  0
   44.5360   34.3500   46.8030 C   0  0  0  0  0  0  0  0  0  0  0  0
   45.5670   33.4940   46.7770 N   0  0  0  0  0  0  0  0  0  0  0  0
   46.0790   33.3870   45.5330 C   0  0  0  0  0  0  0  0  0  0  0  0
   47.1390   32.6160   45.0920 C   0  0  0  0  0  0  0  0  0  0  0  0
   48.2750   32.1280   43.2990 H   0  0  0  0  0  0  0  0  0  0  0  0
   43.6740   35.4830   45.2120 H   0  0  0  0  0  0  0  0  0  0  0  0
   43.9540   34.6100   47.6840 H   0  0  0  0  0  0  0  0  0  0  0  0
   47.7050   31.9730   45.7410 H   0  0  0  0  0  0  0  0  0  0  0  0
   46.8310   32.7880   39.3340 C   0  0  0  0  0  0  0  0  0  0  0  0
   47.6750   33.7730   38.8270 C   0  0  0  0  0  0  0  0  0  0  0  0
   48.2040   34.6970   39.7360 C   0  0  0  0  0  0  0  0  0  0  0  0
   47.8790   34.6020   41.0700 N   0  0  0  0  0  0  0  0  0  0  0  0
   47.0520   33.6180   41.4940 C   0  0  0  0  0  0  0  0  0  0  0  0
   46.5060   32.6900   40.6600 N   0  0  0  0  0  0  0  0  0  0  0  0
   46.3600   32.0150   38.7300 H   0  0  0  0  0  0  0  0  0  0  0  0
   47.8800   33.7820   37.7820 H   0  0  0  0  0  0  0  0  0  0  0  0
   48.8590   35.4680   39.3740 H   0  0  0  0  0  0  0  0  0  0  0  0
   44.7170   35.3550   42.3370 S   0  0  0  0  0  0  0  0  0  0  0  0
   42.4780   34.0020   42.0290 N   0  0  0  0  0  0  0  0  0  0  0  0
   43.5950   34.4650   41.2220 C   0  0  1  0  0  0  0  0  0  0  0  0
   43.1320   35.5010   40.1950 C   0  0  0  0  0  0  0  0  0  0  0  0
   41.9540   35.1630   39.5620 O   0  0  0  0  0  0  0  0  0  0  0  0
   41.5250   33.8720   39.7680 C   0  0  0  0  0  0  0  0  0  0  0  0
   41.3370   33.6360   41.2430 C   0  0  1  0  0  0  0  0  0  0  0  0
   42.2510   34.7490   42.7530 H   0  0  0  0  0  0  0  0  0  0  0  0
   44.0610   33.6090   40.7170 H   0  0  0  0  0  0  0  0  0  0  0  0
   43.8640   35.5790   39.3960 H   0  0  0  0  0  0  0  0  0  0  0  0
   43.0240   36.4950   40.6780 H   0  0  0  0  0  0  0  0  0  0  0  0
   40.5790   33.7300   39.2540 H   0  0  0  0  0  0  0  0  0  0  0  0
   42.3270   33.1890   39.4260 H   0  0  0  0  0  0  0  0  0  0  0  0
   40.4650   34.2180   41.6360 H   0  0  0  0  0  0  0  0  0  0  0  0
   40.9920   32.1940   41.4150 C   0  0  0  0  0  0  0  0  0  0  0  0
   40.2100   31.6980   42.4170 N   0  0  0  0  0  0  0  0  0  0  0  0
   40.1320   30.3490   42.2280 C   0  0  0  0  0  0  0  0  0  0  0  0
   39.5670   29.7210   42.8930 H   0  0  0  0  0  0  0  0  0  0  0  0
   40.8480   30.0160   41.1380 N   0  0  0  0  0  0  0  0  0  0  0  0
   40.9640   29.0440   40.7590 H   0  0  0  0  0  0  0  0  0  0  0  0
   41.3660   31.1570   40.6540 N   0  0  0  0  0  0  0  0  0  0  0  0
  1  9  1  0  0  0  0
  2  3  1  0  0  0  0
  2  1  2  0  0  0  0
  3  4  2  0  0  0  0
  4  8  1  0  0  0  0
  4  5  1  0  0  0  0
  5  6  1  0  0  0  0
  6 12  1  0  0  0  0
  7  6  2  0  0  0  0
  8  7  1  0  0  0  0
  9  8  2  0  0  0  0
  9 13  1  0  0  0  0
 10  1  1  0  0  0  0
 11  5  1  0  0  0  0
 14 19  1  0  0  0  0
 15 14  2  0  0  0  0
 15 16  1  0  0  0  0
 16 17  2  0  0  0  0
 17 18  1  0  0  0  0
 18  2  1  0  0  0  0
 19 18  2  0  0  0  0
 20 14  1  0  0  0  0
 21 15  1  0  0  0  0
 22 16  1  0  0  0  0
 23  3  1  0  0  0  0
 24 30  1  0  0  0  0
 25 31  1  6  0  0  0
 25 24  1  0  0  0  0
 25 23  1  0  0  0  0
 26 33  1  0  0  0  0
 26 25  1  0  0  0  0
 27 28  1  0  0  0  0
 27 26  1  0  0  0  0
 28 29  1  0  0  0  0
 29 37  1  0  0  0  0
 29 36  1  1  0  0  0
 29 24  1  0  0  0  0
 32 26  1  0  0  0  0
 34 28  1  0  0  0  0
 35 28  1  0  0  0  0
 37 38  1  0  0  0  0
 39 38  2  0  0  0  0
 39 40  1  0  0  0  0
 41 39  1  0  0  0  0
 42 41  1  0  0  0  0
 43 41  1  0  0  0  0
 43 37  2  0  0  0  0
M  END
>  <minimizedAffinity>
-5.60454702

>  <minimizedRMSD>
1.88832092

$$$$
