
 OpenBabel03252507413D

 23 24  0  0  0  0  0  0  0  0999 V2000
   46.5640   32.8270   42.4470 C   0  0  0  0  0  0  0  0  0  0  0  0
   46.6760   31.8870   41.8680 H   0  0  0  0  0  0  0  0  0  0  0  0
   46.9330   32.5900   43.4640 H   0  0  0  0  0  0  0  0  0  0  0  0
   47.3920   33.8370   41.7610 C   0  0  0  0  0  0  0  0  0  0  0  0
   47.4700   33.7120   40.3800 C   0  0  0  0  0  0  0  0  0  0  0  0
   48.2360   34.6340   39.6740 C   0  0  0  0  0  0  0  0  0  0  0  0
   48.8860   35.6300   40.3670 N   0  0  0  0  0  0  0  0  0  0  0  0
   48.7820   35.7110   41.7080 C   0  0  0  0  0  0  0  0  0  0  0  0
   48.0470   34.8300   42.4120 N   0  0  0  0  0  0  0  0  0  0  0  0
   48.3220   34.5720   38.6000 H   0  0  0  0  0  0  0  0  0  0  0  0
   49.2770   36.4740   42.2630 H   0  0  0  0  0  0  0  0  0  0  0  0
   46.6210   32.4170   39.5030 S   0  0  0  0  0  0  0  0  0  0  0  0
   45.9270   33.0450   38.4330 H   0  0  0  0  0  0  0  0  0  0  0  0
   45.0960   33.1700   42.4630 C   0  0  0  0  0  0  0  0  0  0  0  0
   44.7990   33.5200   41.4390 H   0  0  0  0  0  0  0  0  0  0  0  0
   44.5330   32.2130   42.6230 H   0  0  0  0  0  0  0  0  0  0  0  0
   44.7980   34.1670   43.5000 C   0  0  0  0  0  0  0  0  0  0  0  0
   45.1950   34.1500   44.7810 N   0  0  0  0  0  0  0  0  0  0  0  0
   44.7080   35.2450   45.3920 C   0  0  0  0  0  0  0  0  0  0  0  0
   44.7010   35.7320   46.3570 H   0  0  0  0  0  0  0  0  0  0  0  0
   43.9980   35.9490   44.4700 N   0  0  0  0  0  0  0  0  0  0  0  0
   43.4340   36.8460   44.4250 H   0  0  0  0  0  0  0  0  0  0  0  0
   44.0520   35.2910   43.3090 N   0  0  0  0  0  0  0  0  0  0  0  0
  1 14  1  0  0  0  0
  1  3  1  0  0  0  0
  2  1  1  0  0  0  0
  4  9  1  0  0  0  0
  4  1  1  0  0  0  0
  5  4  2  0  0  0  0
  6  7  2  0  0  0  0
  6  5  1  0  0  0  0
  7  8  1  0  0  0  0
  8 11  1  0  0  0  0
  8  9  2  0  0  0  0
 10  6  1  0  0  0  0
 12  5  1  0  0  0  0
 13 12  1  0  0  0  0
 14 16  1  0  0  0  0
 14 17  1  0  0  0  0
 15 14  1  0  0  0  0
 17 18  1  0  0  0  0
 18 19  2  0  0  0  0
 19 20  1  0  0  0  0
 21 19  1  0  0  0  0
 22 21  1  0  0  0  0
 23 17  2  0  0  0  0
 23 21  1  0  0  0  0
M  END
>  <minimizedAffinity>
-3.73696423

>  <minimizedRMSD>
5.87461376

$$$$
