
 OpenBabel03252508143D

 35 38  0  0  1  0  0  0  0  0999 V2000
   46.1760   30.8570   46.7960 C   0  0  0  0  0  0  0  0  0  0  0  0
   47.1480   30.3500   46.7600 H   0  0  0  0  0  0  0  0  0  0  0  0
   45.3830   30.1140   46.5500 H   0  0  0  0  0  0  0  0  0  0  0  0
   45.9520   31.5200   48.1280 C   0  0  1  0  0  0  0  0  0  0  0  0
   45.7140   30.6110   49.2830 C   0  0  0  0  0  0  0  0  0  0  0  0
   46.9580   31.3560   49.2040 C   0  0  1  0  0  0  0  0  0  0  0  0
   45.4410   32.4970   48.1080 H   0  0  0  0  0  0  0  0  0  0  0  0
   45.6570   29.5100   49.0670 H   0  0  0  0  0  0  0  0  0  0  0  0
   44.9050   30.9060   49.9920 H   0  0  0  0  0  0  0  0  0  0  0  0
   47.0430   32.1980   49.9560 H   0  0  0  0  0  0  0  0  0  0  0  0
   48.2690   30.7700   48.8440 C   0  0  0  0  0  0  0  0  0  0  0  0
   49.1780   30.4250   50.0490 C   0  0  0  0  0  0  0  0  0  0  0  0
   49.5110   31.6140   49.2180 C   0  0  0  0  0  0  0  0  0  0  0  0
   48.3570   30.1110   47.9590 H   0  0  0  0  0  0  0  0  0  0  0  0
   48.7580   30.5780   51.0540 H   0  0  0  0  0  0  0  0  0  0  0  0
   49.8060   29.5100   49.8890 H   0  0  0  0  0  0  0  0  0  0  0  0
   50.3540   31.5120   48.4730 H   0  0  0  0  0  0  0  0  0  0  0  0
   49.3000   32.6110   49.6050 H   0  0  0  0  0  0  0  0  0  0  0  0
   45.8250   33.0750   46.0640 C   0  0  0  0  0  3  0  0  0  0  0  0
   46.0720   31.8830   45.6810 C   0  0  0  0  0  3  0  0  0  0  0  0
   44.6300   36.0170   44.1980 C   0  0  0  0  0  0  0  0  0  0  0  0
   45.4380   36.0280   43.0700 C   0  0  0  0  0  0  0  0  0  0  0  0
   46.3760   35.0430   42.9850 C   0  0  0  0  0  0  0  0  0  0  0  0
   46.4810   34.1160   43.9740 N   0  0  0  0  0  0  0  0  0  0  0  0
   45.6820   34.1260   45.0590 C   0  0  0  0  0  0  0  0  0  0  0  0
   44.7620   35.0950   45.1430 N   0  0  0  0  0  0  0  0  0  0  0  0
   43.8460   36.7270   44.4090 H   0  0  0  0  0  0  0  0  0  0  0  0
   45.2900   36.7880   42.3450 H   0  0  0  0  0  0  0  0  0  0  0  0
   47.2620   34.9940   41.8240 C   0  0  0  0  0  0  0  0  0  0  0  0
   46.9960   34.2690   40.7090 N   0  0  0  0  0  0  0  0  0  0  0  0
   48.0260   34.4530   39.8360 C   0  0  0  0  0  0  0  0  0  0  0  0
   48.1270   34.0150   38.8470 H   0  0  0  0  0  0  0  0  0  0  0  0
   48.9200   35.2880   40.4140 N   0  0  0  0  0  0  0  0  0  0  0  0
   49.8310   35.6370   40.0100 H   0  0  0  0  0  0  0  0  0  0  0  0
   48.4410   35.6090   41.6240 N   0  0  0  0  0  0  0  0  0  0  0  0
  1  4  1  0  0  0  0
  2  1  1  0  0  0  0
  3  1  1  0  0  0  0
  4  7  1  6  0  0  0
  4  6  1  0  0  0  0
  4  5  1  0  0  0  0
  5  9  1  0  0  0  0
  6  5  1  0  0  0  0
  6 10  1  1  0  0  0
  8  5  1  0  0  0  0
 11  6  1  0  0  0  0
 11 13  1  0  0  0  0
 11 12  1  0  0  0  0
 12 15  1  0  0  0  0
 13 18  1  0  0  0  0
 13 12  1  0  0  0  0
 14 11  1  0  0  0  0
 16 12  1  0  0  0  0
 17 13  1  0  0  0  0
 20 19  2  0  0  0  0
 20  1  1  0  0  0  0
 21 27  1  0  0  0  0
 21 26  1  0  0  0  0
 22 21  2  0  0  0  0
 23 22  1  0  0  0  0
 23 24  2  0  0  0  0
 24 25  1  0  0  0  0
 25 26  2  0  0  0  0
 25 19  1  0  0  0  0
 28 22  1  0  0  0  0
 29 23  1  0  0  0  0
 30 29  1  0  0  0  0
 31 33  1  0  0  0  0
 31 30  2  0  0  0  0
 32 31  1  0  0  0  0
 33 35  1  0  0  0  0
 34 33  1  0  0  0  0
 35 29  2  0  0  0  0
M  END
>  <minimizedAffinity>
-5.93276978

>  <minimizedRMSD>
0.733972847

$$$$
