
 OpenBabel03252507313D

 47 50  0  0  1  0  0  0  0  0999 V2000
   46.9410   32.8050   45.4840 C   0  0  0  0  0  0  0  0  0  0  0  0
   45.8420   33.4740   46.0020 C   0  0  0  0  0  0  0  0  0  0  0  0
   45.1640   34.4230   45.2000 C   0  0  0  0  0  0  0  0  0  0  0  0
   45.6660   34.6190   43.9140 N   0  0  0  0  0  0  0  0  0  0  0  0
   46.7310   33.9400   43.4800 C   0  0  0  0  0  0  0  0  0  0  0  0
   47.3570   33.0510   44.2480 N   0  0  0  0  0  0  0  0  0  0  0  0
   45.3270   33.5060   46.9390 H   0  0  0  0  0  0  0  0  0  0  0  0
   44.3080   35.0190   45.4400 H   0  0  0  0  0  0  0  0  0  0  0  0
   47.5890   31.8270   46.3360 C   0  0  2  0  0  0  0  0  0  0  0  0
   47.3500   30.3750   45.8260 C   0  0  0  0  0  0  0  0  0  0  0  0
   48.1720   29.4280   46.6340 C   0  0  0  0  0  0  0  0  0  0  0  0
   48.1500   29.6430   48.1120 C   0  0  0  0  0  0  0  0  0  0  0  0
   48.1420   31.0290   48.5100 C   0  0  0  0  0  0  0  0  0  0  0  0
   47.1460   31.9010   47.7140 C   0  0  2  0  0  0  0  0  0  0  0  0
   48.6920   31.9340   46.2090 H   0  0  0  0  0  0  0  0  0  0  0  0
   47.7080   30.3990   44.7770 H   0  0  0  0  0  0  0  0  0  0  0  0
   46.2800   30.1300   45.7890 H   0  0  0  0  0  0  0  0  0  0  0  0
   47.7530   28.3950   46.4590 H   0  0  0  0  0  0  0  0  0  0  0  0
   49.1690   29.4090   46.1540 H   0  0  0  0  0  0  0  0  0  0  0  0
   47.7750   28.8400   48.7440 H   0  0  0  0  0  0  0  0  0  0  0  0
   49.2620   29.3920   48.3430 H   0  0  0  0  0  0  0  0  0  0  0  0
   47.7970   31.1270   49.5670 H   0  0  0  0  0  0  0  0  0  0  0  0
   49.0950   31.6080   48.4720 H   0  0  0  0  0  0  0  0  0  0  0  0
   47.2570   32.8600   48.2210 H   0  0  0  0  0  0  0  0  0  0  0  0
   45.8100   31.3150   47.8410 N   0  0  0  0  0  0  0  0  0  0  0  0
   45.1460   30.7330   48.9350 C   0  0  0  0  0  0  0  0  0  0  0  0
   44.6250   31.4240   49.8840 O   0  0  0  0  0  0  0  0  0  0  0  0
   45.0880   29.3080   48.9090 N   0  0  0  0  0  0  0  0  0  0  0  0
   45.1490   31.2030   46.9830 H   0  0  0  0  0  0  0  0  0  0  0  0
   44.7400   28.6860   48.1430 H   0  0  0  0  0  0  0  0  0  0  0  0
   45.4110   28.6880   49.7080 H   0  0  0  0  0  0  0  0  0  0  0  0
   47.2170   34.2120   42.1230 C   0  0  0  0  0  0  0  0  0  0  0  0
   48.2230   35.1230   41.8960 C   0  0  0  0  0  0  0  0  0  0  0  0
   48.7410   35.4420   40.6690 C   0  0  0  0  0  0  0  0  0  0  0  0
   48.1700   34.7640   39.6230 C   0  0  0  0  0  0  0  0  0  0  0  0
   47.1470   33.8330   39.8150 C   0  0  0  0  0  0  0  0  0  0  0  0
   46.6790   33.5650   41.0770 N   0  0  0  0  0  0  0  0  0  0  0  0
   48.6330   35.6290   42.7840 H   0  0  0  0  0  0  0  0  0  0  0  0
   49.5320   36.1620   40.5120 H   0  0  0  0  0  0  0  0  0  0  0  0
   48.4910   34.9260   38.6010 H   0  0  0  0  0  0  0  0  0  0  0  0
   46.4960   33.0780   38.7490 C   0  0  0  0  0  0  0  0  0  0  0  0
   46.8150   33.4310   37.4740 N   0  0  0  0  0  0  0  0  0  0  0  0
   46.1460   32.6570   36.5950 C   0  0  0  0  0  0  0  0  0  0  0  0
   46.1610   32.6640   35.5130 H   0  0  0  0  0  0  0  0  0  0  0  0
   45.4000   31.8080   37.3590 N   0  0  0  0  0  0  0  0  0  0  0  0
   44.7590   31.0720   36.9990 H   0  0  0  0  0  0  0  0  0  0  0  0
   45.6100   32.0610   38.6610 N   0  0  0  0  0  0  0  0  0  0  0  0
  1  2  1  0  0  0  0
  1  9  1  0  0  0  0
  2  7  1  0  0  0  0
  3  8  1  0  0  0  0
  3  2  2  0  0  0  0
  4  3  1  0  0  0  0
  5  4  2  0  0  0  0
  5  6  1  0  0  0  0
  6  1  2  0  0  0  0
  9 15  1  6  0  0  0
  9 14  1  0  0  0  0
 10  9  1  0  0  0  0
 10 11  1  0  0  0  0
 11 12  1  0  0  0  0
 12 21  1  0  0  0  0
 12 13  1  0  0  0  0
 12 20  1  0  0  0  0
 13 22  1  0  0  0  0
 14 25  1  0  0  0  0
 14 24  1  1  0  0  0
 14 13  1  0  0  0  0
 16 10  1  0  0  0  0
 17 10  1  0  0  0  0
 18 11  1  0  0  0  0
 19 11  1  0  0  0  0
 23 13  1  0  0  0  0
 25 26  1  0  0  0  0
 26 27  2  0  0  0  0
 28 26  1  0  0  0  0
 28 31  1  0  0  0  0
 29 25  1  0  0  0  0
 30 28  1  0  0  0  0
 32  5  1  0  0  0  0
 33 32  1  0  0  0  0
 33 38  1  0  0  0  0
 34 33  2  0  0  0  0
 35 36  2  0  0  0  0
 35 34  1  0  0  0  0
 36 37  1  0  0  0  0
 37 32  2  0  0  0  0
 39 34  1  0  0  0  0
 40 35  1  0  0  0  0
 41 36  1  0  0  0  0
 42 41  1  0  0  0  0
 43 45  1  0  0  0  0
 43 42  2  0  0  0  0
 44 43  1  0  0  0  0
 45 47  1  0  0  0  0
 46 45  1  0  0  0  0
 47 41  2  0  0  0  0
M  END
>  <minimizedAffinity>
-6.33828259

>  <minimizedRMSD>
0.189880729

$$$$
