
 OpenBabel03252506553D

 36 40  0  0  0  0  0  0  0  0999 V2000
   47.3020   31.2540   45.2440 C   0  0  0  0  0  0  0  0  0  0  0  0
   46.9450   32.5820   45.1470 C   0  0  0  0  0  0  0  0  0  0  0  0
   46.3270   33.2640   46.1710 C   0  0  0  0  0  0  0  0  0  0  0  0
   46.0310   32.6170   47.3750 C   0  0  0  0  0  0  0  0  0  0  0  0
   45.4510   32.9600   48.5530 N   0  0  0  0  0  0  0  0  0  0  0  0
   45.4500   31.8640   49.3600 C   0  0  0  0  0  0  0  0  0  0  0  0
   46.0310   30.8640   48.6610 N   0  0  0  0  0  0  0  0  0  0  0  0
   46.3980   31.2920   47.4430 C   0  0  0  0  0  0  0  0  0  0  0  0
   47.0080   30.5960   46.4510 C   0  0  0  0  0  0  0  0  0  0  0  0
   47.7880   30.7210   44.4400 H   0  0  0  0  0  0  0  0  0  0  0  0
   46.0310   34.3130   46.1300 H   0  0  0  0  0  0  0  0  0  0  0  0
   45.0960   33.9450   48.7020 H   0  0  0  0  0  0  0  0  0  0  0  0
   45.0420   31.8720   50.3580 H   0  0  0  0  0  0  0  0  0  0  0  0
   46.7120   35.0250   42.4050 C   0  0  0  0  0  0  0  0  0  0  0  0
   47.7860   34.6680   41.5900 C   0  0  0  0  0  0  0  0  0  0  0  0
   48.5900   33.5860   41.9860 C   0  0  0  0  0  0  0  0  0  0  0  0
   48.2830   32.9310   43.1510 N   0  0  0  0  0  0  0  0  0  0  0  0
   47.2280   33.3120   43.9150 C   0  0  0  0  0  0  0  0  0  0  0  0
   46.4620   34.3420   43.5420 N   0  0  0  0  0  0  0  0  0  0  0  0
   46.1080   35.8640   42.0760 H   0  0  0  0  0  0  0  0  0  0  0  0
   48.0680   35.1520   40.6640 H   0  0  0  0  0  0  0  0  0  0  0  0
   49.4290   33.2320   41.4430 H   0  0  0  0  0  0  0  0  0  0  0  0
   47.3610   29.1770   46.6240 C   0  0  0  0  0  0  0  0  0  0  0  0
   48.5940   28.6320   46.3130 C   0  0  0  0  0  0  0  0  0  0  0  0
   48.4540   27.2780   46.6410 C   0  0  0  0  0  0  0  0  0  0  0  0
   47.1610   27.0790   47.1270 C   0  0  0  0  0  0  0  0  0  0  0  0
   46.5450   28.2590   47.0950 O   0  0  0  0  0  0  0  0  0  0  0  0
   49.4540   29.1270   45.9150 H   0  0  0  0  0  0  0  0  0  0  0  0
   49.2050   26.5070   46.5430 H   0  0  0  0  0  0  0  0  0  0  0  0
   46.6530   25.7870   47.5700 C   0  0  0  0  0  0  0  0  0  0  0  0
   45.7810   24.8480   47.1450 N   0  0  0  0  0  0  0  0  0  0  0  0
   45.7540   23.8390   48.0390 C   0  0  0  0  0  0  0  0  0  0  0  0
   45.1650   22.9440   47.9920 H   0  0  0  0  0  0  0  0  0  0  0  0
   46.6220   24.1530   49.0360 N   0  0  0  0  0  0  0  0  0  0  0  0
   46.8330   23.5660   49.8930 H   0  0  0  0  0  0  0  0  0  0  0  0
   47.1500   25.3260   48.7340 N   0  0  0  0  0  0  0  0  0  0  0  0
  1  9  1  0  0  0  0
  2  1  2  0  0  0  0
  2  3  1  0  0  0  0
  3  4  2  0  0  0  0
  4  8  1  0  0  0  0
  4  5  1  0  0  0  0
  5 12  1  0  0  0  0
  5  6  1  0  0  0  0
  6 13  1  0  0  0  0
  7  6  2  0  0  0  0
  8  7  1  0  0  0  0
  9 23  1  0  0  0  0
  9  8  2  0  0  0  0
 10  1  1  0  0  0  0
 11  3  1  0  0  0  0
 14 19  1  0  0  0  0
 15 16  1  0  0  0  0
 15 14  2  0  0  0  0
 16 17  2  0  0  0  0
 17 18  1  0  0  0  0
 18  2  1  0  0  0  0
 19 18  2  0  0  0  0
 20 14  1  0  0  0  0
 21 15  1  0  0  0  0
 22 16  1  0  0  0  0
 23 27  1  0  0  0  0
 24 23  2  0  0  0  0
 24 25  1  0  0  0  0
 25 26  2  0  0  0  0
 26 30  1  0  0  0  0
 27 26  1  0  0  0  0
 28 24  1  0  0  0  0
 29 25  1  0  0  0  0
 30 36  2  0  0  0  0
 31 30  1  0  0  0  0
 31 32  2  0  0  0  0
 32 34  1  0  0  0  0
 33 32  1  0  0  0  0
 34 35  1  0  0  0  0
 36 34  1  0  0  0  0
M  END
>  <minimizedAffinity>
-5.55961037

>  <minimizedRMSD>
0.816792607

$$$$
