
 OpenBabel03252501323D

 22 23  0  0  0  0  0  0  0  0999 V2000
   45.4180   34.4780   43.6360 C   0  0  0  0  0  0  0  0  0  0  0  0
   45.2380   34.4700   45.0060 C   0  0  0  0  0  0  0  0  0  0  0  0
   46.0970   33.6570   45.7350 C   0  0  0  0  0  0  0  0  0  0  0  0
   47.0220   32.9520   45.0700 N   0  0  0  0  0  0  0  0  0  0  0  0
   47.1700   32.9830   43.7320 C   0  0  0  0  0  0  0  0  0  0  0  0
   46.3540   33.7620   42.9800 N   0  0  0  0  0  0  0  0  0  0  0  0
   45.9460   33.6600   46.7990 H   0  0  0  0  0  0  0  0  0  0  0  0
   47.9580   32.3620   43.3430 H   0  0  0  0  0  0  0  0  0  0  0  0
   43.6950   34.3760   42.0440 C   0  0  0  0  0  0  0  0  0  0  0  0
   43.8150   33.1770   42.4370 O   0  0  0  0  0  0  0  0  0  0  0  0
   44.6290   35.2570   42.6930 N   0  0  0  0  0  0  0  0  0  0  0  0
   44.6670   36.2550   42.4730 H   0  0  0  0  0  0  0  0  0  0  0  0
   42.7460   34.8770   41.0550 C   0  0  0  0  0  0  0  0  0  0  0  0
   42.7350   34.9050   39.7120 N   0  0  0  0  0  0  0  0  0  0  0  0
   41.5840   35.5000   39.2840 C   0  0  0  0  0  0  0  0  0  0  0  0
   41.5560   35.5320   38.1990 H   0  0  0  0  0  0  0  0  0  0  0  0
   40.8920   35.8350   40.3970 N   0  0  0  0  0  0  0  0  0  0  0  0
   39.9820   36.3030   40.1920 H   0  0  0  0  0  0  0  0  0  0  0  0
   41.5980   35.4560   41.4590 N   0  0  0  0  0  0  0  0  0  0  0  0
   44.2000   35.2880   45.5210 N   0  0  0  0  0  0  0  0  0  0  0  0
   43.3140   35.3780   44.9760 H   0  0  0  0  0  0  0  0  0  0  0  0
   44.1800   35.8390   46.3980 H   0  0  0  0  0  0  0  0  0  0  0  0
  1  2  1  0  0  0  0
  2 20  1  0  0  0  0
  2  3  2  0  0  0  0
  3  7  1  0  0  0  0
  4  3  1  0  0  0  0
  5  4  2  0  0  0  0
  6  1  2  0  0  0  0
  6  5  1  0  0  0  0
  8  5  1  0  0  0  0
  9 10  2  0  0  0  0
  9 11  1  0  0  0  0
 11  1  1  0  0  0  0
 12 11  1  0  0  0  0
 13 19  2  0  0  0  0
 13  9  1  0  0  0  0
 14 13  1  0  0  0  0
 15 14  2  0  0  0  0
 15 17  1  0  0  0  0
 16 15  1  0  0  0  0
 17 19  1  0  0  0  0
 18 17  1  0  0  0  0
 20 22  1  0  0  0  0
 21 20  1  0  0  0  0
M  END
>  <minimizedAffinity>
-4.34297657

>  <minimizedRMSD>
1.8452847

$$$$
