
 OpenBabel03252502453D

 29 31  0  0  1  0  0  0  0  0999 V2000
   36.5910   28.0000   41.2150 C   0  0  0  0  0  0  0  0  0  0  0  0
   36.3310   26.9590   41.0410 H   0  0  0  0  0  0  0  0  0  0  0  0
   37.5570   28.2590   40.6770 H   0  0  0  0  0  0  0  0  0  0  0  0
   36.9010   28.3210   42.6490 C   0  0  1  0  0  0  0  0  0  0  0  0
   36.3750   27.3650   43.6800 C   0  0  0  0  0  0  0  0  0  0  0  0
   37.8020   27.5190   43.4170 C   0  0  1  0  0  0  0  0  0  0  0  0
   36.7430   29.4330   42.7900 H   0  0  0  0  0  0  0  0  0  0  0  0
   35.8140   27.9040   44.4980 H   0  0  0  0  0  0  0  0  0  0  0  0
   35.7450   26.4920   43.4200 H   0  0  0  0  0  0  0  0  0  0  0  0
   38.2160   28.1980   44.2480 H   0  0  0  0  0  0  0  0  0  0  0  0
   38.8940   26.6210   43.2760 C   0  0  0  0  0  0  0  0  0  0  0  0
   40.1530   26.8320   43.6790 N   0  0  0  0  0  0  0  0  0  0  0  0
   40.8730   25.7160   43.3510 C   0  0  0  0  0  0  0  0  0  0  0  0
   41.9290   25.6000   43.5570 H   0  0  0  0  0  0  0  0  0  0  0  0
   40.0300   24.8550   42.7560 N   0  0  0  0  0  0  0  0  0  0  0  0
   40.2700   23.9080   42.3870 H   0  0  0  0  0  0  0  0  0  0  0  0
   38.8200   25.3790   42.6970 N   0  0  0  0  0  0  0  0  0  0  0  0
   35.5460   29.0000   40.8360 C   0  0  0  0  0  0  0  0  0  0  0  0
   34.6690   28.6630   40.3350 H   0  0  0  0  0  0  0  0  0  0  0  0
   35.4010   29.6340   41.7630 H   0  0  0  0  0  0  0  0  0  0  0  0
   37.1240   31.0390   38.1120 C   0  0  0  0  0  0  0  0  0  0  0  0
   36.4560   29.9610   38.7530 C   0  0  0  0  0  0  0  0  0  0  0  0
   36.1850   30.1160   40.0850 C   0  0  0  0  0  0  0  0  0  0  0  0
   36.5490   31.2620   40.7350 N   0  0  0  0  0  0  0  0  0  0  0  0
   37.1700   32.2480   40.1100 C   0  0  0  0  0  0  0  0  0  0  0  0
   37.4590   32.1430   38.8100 N   0  0  0  0  0  0  0  0  0  0  0  0
   37.3930   31.0350   37.0690 H   0  0  0  0  0  0  0  0  0  0  0  0
   36.2390   29.1530   38.0780 H   0  0  0  0  0  0  0  0  0  0  0  0
   37.4290   33.1230   40.6860 H   0  0  0  0  0  0  0  0  0  0  0  0
  1  4  1  0  0  0  0
  2  1  1  0  0  0  0
  3  1  1  0  0  0  0
  4  7  1  1  0  0  0
  4  6  1  0  0  0  0
  4  5  1  0  0  0  0
  5  8  1  0  0  0  0
  6  5  1  0  0  0  0
  6 10  1  1  0  0  0
  9  5  1  0  0  0  0
 11  6  1  0  0  0  0
 11 12  1  0  0  0  0
 13 14  1  0  0  0  0
 13 12  2  0  0  0  0
 15 13  1  0  0  0  0
 16 15  1  0  0  0  0
 17 15  1  0  0  0  0
 17 11  2  0  0  0  0
 18  1  1  0  0  0  0
 18 20  1  0  0  0  0
 19 18  1  0  0  0  0
 21 22  2  0  0  0  0
 21 26  1  0  0  0  0
 22 23  1  0  0  0  0
 23 24  2  0  0  0  0
 23 18  1  0  0  0  0
 25 29  1  0  0  0  0
 25 24  1  0  0  0  0
 26 25  2  0  0  0  0
 27 21  1  0  0  0  0
 28 22  1  0  0  0  0
M  END
>  <minimizedAffinity>
-4.65535259

$$$$

 OpenBabel03252502453D

 29 31  0  0  1  0  0  0  0  0999 V2000
   36.5000   28.5750   41.4010 C   0  0  0  0  0  0  0  0  0  0  0  0
   35.5210   28.1280   41.2480 H   0  0  0  0  0  0  0  0  0  0  0  0
   37.2070   28.2670   40.5670 H   0  0  0  0  0  0  0  0  0  0  0  0
   37.2040   28.0980   42.6390 C   0  0  1  0  0  0  0  0  0  0  0  0
   36.3700   27.3530   43.6400 C   0  0  0  0  0  0  0  0  0  0  0  0
   37.4350   26.7070   42.8800 C   0  0  1  0  0  0  0  0  0  0  0  0
   37.8780   28.9370   42.9910 H   0  0  0  0  0  0  0  0  0  0  0  0
   36.4930   27.7750   44.6800 H   0  0  0  0  0  0  0  0  0  0  0  0
   35.2800   27.1980   43.5150 H   0  0  0  0  0  0  0  0  0  0  0  0
   38.3450   26.6450   43.5800 H   0  0  0  0  0  0  0  0  0  0  0  0
   37.5680   25.4660   42.2030 C   0  0  0  0  0  0  0  0  0  0  0  0
   36.7900   25.0130   41.2120 N   0  0  0  0  0  0  0  0  0  0  0  0
   37.2710   23.7840   40.8520 C   0  0  0  0  0  0  0  0  0  0  0  0
   36.8370   23.1750   40.0700 H   0  0  0  0  0  0  0  0  0  0  0  0
   38.3300   23.5220   41.6360 N   0  0  0  0  0  0  0  0  0  0  0  0
   38.9210   22.6620   41.6110 H   0  0  0  0  0  0  0  0  0  0  0  0
   38.5350   24.5270   42.4660 N   0  0  0  0  0  0  0  0  0  0  0  0
   36.5190   30.0650   41.5230 C   0  0  0  0  0  0  0  0  0  0  0  0
   35.6970   30.5530   41.9900 H   0  0  0  0  0  0  0  0  0  0  0  0
   37.5540   30.3120   41.9070 H   0  0  0  0  0  0  0  0  0  0  0  0
   37.1800   30.4770   37.8530 C   0  0  0  0  0  0  0  0  0  0  0  0
   36.8480   29.8520   39.0860 C   0  0  0  0  0  0  0  0  0  0  0  0
   36.7940   30.6620   40.1870 C   0  0  0  0  0  0  0  0  0  0  0  0
   37.0480   32.0000   40.0720 N   0  0  0  0  0  0  0  0  0  0  0  0
   37.3540   32.5540   38.9100 C   0  0  0  0  0  0  0  0  0  0  0  0
   37.4220   31.8030   37.8070 N   0  0  0  0  0  0  0  0  0  0  0  0
   37.2550   29.9460   36.9200 H   0  0  0  0  0  0  0  0  0  0  0  0
   36.6700   28.7980   38.9760 H   0  0  0  0  0  0  0  0  0  0  0  0
   37.5440   33.6150   38.8930 H   0  0  0  0  0  0  0  0  0  0  0  0
  1 18  1  0  0  0  0
  1  4  1  0  0  0  0
  2  1  1  0  0  0  0
  3  1  1  0  0  0  0
  4  6  1  0  0  0  0
  4  7  1  1  0  0  0
  4  5  1  0  0  0  0
  5  8  1  0  0  0  0
  6 10  1  1  0  0  0
  6  5  1  0  0  0  0
  9  5  1  0  0  0  0
 11 17  2  0  0  0  0
 11  6  1  0  0  0  0
 12 11  1  0  0  0  0
 13 12  2  0  0  0  0
 13 15  1  0  0  0  0
 14 13  1  0  0  0  0
 15 17  1  0  0  0  0
 16 15  1  0  0  0  0
 18 20  1  0  0  0  0
 18 19  1  0  0  0  0
 21 22  1  0  0  0  0
 22 23  2  0  0  0  0
 23 18  1  0  0  0  0
 24 23  1  0  0  0  0
 25 24  2  0  0  0  0
 26 21  2  0  0  0  0
 26 25  1  0  0  0  0
 27 21  1  0  0  0  0
 28 22  1  0  0  0  0
 29 25  1  0  0  0  0
M  END
>  <minimizedAffinity>
-4.53946781

$$$$

 OpenBabel03252502453D

 29 31  0  0  1  0  0  0  0  0999 V2000
   36.5410   26.3030   39.6470 C   0  0  0  0  0  0  0  0  0  0  0  0
   36.2340   25.2830   39.4290 H   0  0  0  0  0  0  0  0  0  0  0  0
   35.8120   26.7860   40.3710 H   0  0  0  0  0  0  0  0  0  0  0  0
   36.5020   27.2200   38.4590 C   0  0  1  0  0  0  0  0  0  0  0  0
   35.1530   27.7390   38.0560 C   0  0  0  0  0  0  0  0  0  0  0  0
   36.1910   28.6090   38.5960 C   0  0  1  0  0  0  0  0  0  0  0  0
   37.1890   26.7850   37.6700 H   0  0  0  0  0  0  0  0  0  0  0  0
   34.9590   27.5820   36.9540 H   0  0  0  0  0  0  0  0  0  0  0  0
   34.2170   27.4320   38.5630 H   0  0  0  0  0  0  0  0  0  0  0  0
   36.6730   29.1420   37.6980 H   0  0  0  0  0  0  0  0  0  0  0  0
   36.2140   29.6690   39.5420 C   0  0  0  0  0  0  0  0  0  0  0  0
   37.0100   30.7450   39.5100 N   0  0  0  0  0  0  0  0  0  0  0  0
   36.7000   31.5070   40.6030 C   0  0  0  0  0  0  0  0  0  0  0  0
   37.1870   32.4450   40.8390 H   0  0  0  0  0  0  0  0  0  0  0  0
   35.7220   30.8730   41.2710 N   0  0  0  0  0  0  0  0  0  0  0  0
   35.2620   31.1950   42.1510 H   0  0  0  0  0  0  0  0  0  0  0  0
   35.4060   29.7530   40.6480 N   0  0  0  0  0  0  0  0  0  0  0  0
   37.9280   26.4600   40.1830 C   0  0  0  0  0  0  0  0  0  0  0  0
   38.5360   25.5950   40.2990 H   0  0  0  0  0  0  0  0  0  0  0  0
   38.3670   27.3280   39.6030 H   0  0  0  0  0  0  0  0  0  0  0  0
   36.9210   27.7350   43.5640 C   0  0  0  0  0  0  0  0  0  0  0  0
   36.9580   26.9100   42.4070 C   0  0  0  0  0  0  0  0  0  0  0  0
   37.8780   27.2410   41.4510 C   0  0  0  0  0  0  0  0  0  0  0  0
   38.7060   28.3130   41.6300 N   0  0  0  0  0  0  0  0  0  0  0  0
   38.6480   29.0630   42.7180 C   0  0  0  0  0  0  0  0  0  0  0  0
   37.7640   28.7820   43.6800 N   0  0  0  0  0  0  0  0  0  0  0  0
   36.2410   27.5790   44.3840 H   0  0  0  0  0  0  0  0  0  0  0  0
   36.2420   26.1090   42.4530 H   0  0  0  0  0  0  0  0  0  0  0  0
   39.3310   29.8950   42.7930 H   0  0  0  0  0  0  0  0  0  0  0  0
  1 18  1  0  0  0  0
  1  3  1  0  0  0  0
  2  1  1  0  0  0  0
  4  7  1  6  0  0  0
  4  6  1  0  0  0  0
  4  1  1  0  0  0  0
  5  4  1  0  0  0  0
  5  9  1  0  0  0  0
  5  6  1  0  0  0  0
  6 10  1  6  0  0  0
  6 11  1  0  0  0  0
  8  5  1  0  0  0  0
 11 17  2  0  0  0  0
 12 11  1  0  0  0  0
 12 13  2  0  0  0  0
 13 14  1  0  0  0  0
 13 15  1  0  0  0  0
 15 16  1  0  0  0  0
 17 15  1  0  0  0  0
 18 19  1  0  0  0  0
 18 23  1  0  0  0  0
 20 18  1  0  0  0  0
 21 26  1  0  0  0  0
 21 27  1  0  0  0  0
 22 28  1  0  0  0  0
 22 21  2  0  0  0  0
 23 24  2  0  0  0  0
 23 22  1  0  0  0  0
 24 25  1  0  0  0  0
 25 29  1  0  0  0  0
 25 26  2  0  0  0  0
M  END
>  <minimizedAffinity>
-4.45729733

$$$$

 OpenBabel03252502453D

 29 31  0  0  1  0  0  0  0  0999 V2000
   39.0910   29.0060   41.9630 C   0  0  0  0  0  0  0  0  0  0  0  0
   39.7070   28.3820   41.3210 H   0  0  0  0  0  0  0  0  0  0  0  0
   38.2150   29.4290   41.3750 H   0  0  0  0  0  0  0  0  0  0  0  0
   39.7870   30.2350   42.4720 C   0  0  1  0  0  0  0  0  0  0  0  0
   40.8490   30.8200   41.5880 C   0  0  0  0  0  0  0  0  0  0  0  0
   39.5940   31.5130   41.8590 C   0  0  1  0  0  0  0  0  0  0  0  0
   40.0070   30.0710   43.5710 H   0  0  0  0  0  0  0  0  0  0  0  0
   41.8110   30.9950   42.1530 H   0  0  0  0  0  0  0  0  0  0  0  0
   41.1540   30.3540   40.6300 H   0  0  0  0  0  0  0  0  0  0  0  0
   39.8220   32.3000   42.6660 H   0  0  0  0  0  0  0  0  0  0  0  0
   38.6650   32.2420   41.0700 C   0  0  0  0  0  0  0  0  0  0  0  0
   38.8840   33.4180   40.4690 N   0  0  0  0  0  0  0  0  0  0  0  0
   37.7300   33.7570   39.8160 C   0  0  0  0  0  0  0  0  0  0  0  0
   37.6110   34.6650   39.2390 H   0  0  0  0  0  0  0  0  0  0  0  0
   36.8400   32.7750   40.0370 N   0  0  0  0  0  0  0  0  0  0  0  0
   35.8620   32.7320   39.6740 H   0  0  0  0  0  0  0  0  0  0  0  0
   37.3810   31.8400   40.7950 N   0  0  0  0  0  0  0  0  0  0  0  0
   38.5680   28.3460   43.1980 C   0  0  0  0  0  0  0  0  0  0  0  0
   39.0060   28.5900   44.1370 H   0  0  0  0  0  0  0  0  0  0  0  0
   37.4420   28.4260   43.1160 H   0  0  0  0  0  0  0  0  0  0  0  0
   39.5710   24.7320   43.1070 C   0  0  0  0  0  0  0  0  0  0  0  0
   39.6260   26.1240   43.3890 C   0  0  0  0  0  0  0  0  0  0  0  0
   38.5490   26.8700   42.9950 C   0  0  0  0  0  0  0  0  0  0  0  0
   37.4900   26.2770   42.3680 N   0  0  0  0  0  0  0  0  0  0  0  0
   37.4670   24.9780   42.1200 C   0  0  0  0  0  0  0  0  0  0  0  0
   38.4960   24.2070   42.4830 N   0  0  0  0  0  0  0  0  0  0  0  0
   40.3560   24.0420   43.3660 H   0  0  0  0  0  0  0  0  0  0  0  0
   40.5300   26.4030   43.8990 H   0  0  0  0  0  0  0  0  0  0  0  0
   36.5990   24.5760   41.6200 H   0  0  0  0  0  0  0  0  0  0  0  0
  1  4  1  0  0  0  0
  1 18  1  0  0  0  0
  2  1  1  0  0  0  0
  3  1  1  0  0  0  0
  4  7  1  1  0  0  0
  5  6  1  0  0  0  0
  5  8  1  0  0  0  0
  5  4  1  0  0  0  0
  6  4  1  0  0  0  0
  6 10  1  1  0  0  0
  9  5  1  0  0  0  0
 11  6  1  0  0  0  0
 12 11  1  0  0  0  0
 13 15  1  0  0  0  0
 13 12  2  0  0  0  0
 14 13  1  0  0  0  0
 15 17  1  0  0  0  0
 16 15  1  0  0  0  0
 17 11  2  0  0  0  0
 18 19  1  0  0  0  0
 20 18  1  0  0  0  0
 21 27  1  0  0  0  0
 21 22  1  0  0  0  0
 22 28  1  0  0  0  0
 23 18  1  0  0  0  0
 23 22  2  0  0  0  0
 24 23  1  0  0  0  0
 25 24  2  0  0  0  0
 25 26  1  0  0  0  0
 26 21  2  0  0  0  0
 29 25  1  0  0  0  0
M  END
>  <minimizedAffinity>
-4.44078827

$$$$

 OpenBabel03252502453D

 29 31  0  0  1  0  0  0  0  0999 V2000
   36.7850   31.4990   40.6500 C   0  0  0  0  0  0  0  0  0  0  0  0
   35.8320   31.8430   41.0440 H   0  0  0  0  0  0  0  0  0  0  0  0
   37.6180   31.7180   41.3910 H   0  0  0  0  0  0  0  0  0  0  0  0
   37.2310   32.2200   39.4100 C   0  0  1  0  0  0  0  0  0  0  0  0
   37.1480   33.7190   39.4390 C   0  0  0  0  0  0  0  0  0  0  0  0
   38.4230   33.0110   39.3930 C   0  0  1  0  0  0  0  0  0  0  0  0
   36.8150   31.6570   38.5210 H   0  0  0  0  0  0  0  0  0  0  0  0
   36.6070   34.1220   38.5330 H   0  0  0  0  0  0  0  0  0  0  0  0
   36.7320   34.2790   40.3000 H   0  0  0  0  0  0  0  0  0  0  0  0
   38.7760   33.0440   38.3000 H   0  0  0  0  0  0  0  0  0  0  0  0
   39.6720   33.1600   40.0530 C   0  0  0  0  0  0  0  0  0  0  0  0
   40.5960   34.0950   39.8020 N   0  0  0  0  0  0  0  0  0  0  0  0
   41.6360   33.8760   40.6640 C   0  0  0  0  0  0  0  0  0  0  0  0
   42.5320   34.4810   40.6910 H   0  0  0  0  0  0  0  0  0  0  0  0
   41.3140   32.8100   41.4170 N   0  0  0  0  0  0  0  0  0  0  0  0
   41.8980   32.3860   42.1710 H   0  0  0  0  0  0  0  0  0  0  0  0
   40.1250   32.3550   41.0680 N   0  0  0  0  0  0  0  0  0  0  0  0
   36.8440   30.0540   40.2720 C   0  0  0  0  0  0  0  0  0  0  0  0
   36.0300   29.6290   39.7340 H   0  0  0  0  0  0  0  0  0  0  0  0
   37.8810   29.9090   39.8410 H   0  0  0  0  0  0  0  0  0  0  0  0
   38.5770   28.6330   43.2790 C   0  0  0  0  0  0  0  0  0  0  0  0
   38.3100   29.4850   42.1740 C   0  0  0  0  0  0  0  0  0  0  0  0
   37.1550   29.2430   41.4810 C   0  0  0  0  0  0  0  0  0  0  0  0
   36.3230   28.2270   41.8600 N   0  0  0  0  0  0  0  0  0  0  0  0
   36.5990   27.4500   42.8940 C   0  0  0  0  0  0  0  0  0  0  0  0
   37.7160   27.6460   43.6000 N   0  0  0  0  0  0  0  0  0  0  0  0
   39.4520   28.7220   43.9000 H   0  0  0  0  0  0  0  0  0  0  0  0
   39.0700   30.2330   42.0400 H   0  0  0  0  0  0  0  0  0  0  0  0
   35.8980   26.6670   43.1350 H   0  0  0  0  0  0  0  0  0  0  0  0
  1  2  1  0  0  0  0
  1  3  1  0  0  0  0
  4  7  1  6  0  0  0
  4  5  1  0  0  0  0
  4  1  1  0  0  0  0
  5  9  1  0  0  0  0
  6 10  1  6  0  0  0
  6  4  1  0  0  0  0
  6  5  1  0  0  0  0
  6 11  1  0  0  0  0
  8  5  1  0  0  0  0
 11 17  2  0  0  0  0
 12 11  1  0  0  0  0
 12 13  2  0  0  0  0
 13 14  1  0  0  0  0
 13 15  1  0  0  0  0
 15 16  1  0  0  0  0
 17 15  1  0  0  0  0
 18  1  1  0  0  0  0
 18 23  1  0  0  0  0
 19 18  1  0  0  0  0
 20 18  1  0  0  0  0
 21 26  1  0  0  0  0
 21 27  1  0  0  0  0
 22 21  2  0  0  0  0
 23 24  2  0  0  0  0
 23 22  1  0  0  0  0
 24 25  1  0  0  0  0
 25 29  1  0  0  0  0
 25 26  2  0  0  0  0
 28 22  1  0  0  0  0
M  END
>  <minimizedAffinity>
-4.43727779

$$$$

 OpenBabel03252502453D

 29 31  0  0  1  0  0  0  0  0999 V2000
   35.8520   30.1330   40.2970 C   0  0  0  0  0  0  0  0  0  0  0  0
   34.9980   30.7050   39.9440 H   0  0  0  0  0  0  0  0  0  0  0  0
   36.4080   30.7130   41.1010 H   0  0  0  0  0  0  0  0  0  0  0  0
   36.9060   29.9010   39.2530 C   0  0  1  0  0  0  0  0  0  0  0  0
   36.6850   30.5530   37.9200 C   0  0  0  0  0  0  0  0  0  0  0  0
   37.7670   30.9530   38.8120 C   0  0  1  0  0  0  0  0  0  0  0  0
   37.1910   28.8050   39.2950 H   0  0  0  0  0  0  0  0  0  0  0  0
   36.7950   29.8150   37.0720 H   0  0  0  0  0  0  0  0  0  0  0  0
   35.7730   31.1370   37.6820 H   0  0  0  0  0  0  0  0  0  0  0  0
   38.7220   30.4490   38.4150 H   0  0  0  0  0  0  0  0  0  0  0  0
   38.3110   32.1980   39.2280 C   0  0  0  0  0  0  0  0  0  0  0  0
   37.7070   33.1090   40.0010 N   0  0  0  0  0  0  0  0  0  0  0  0
   38.5830   34.1490   40.1560 C   0  0  0  0  0  0  0  0  0  0  0  0
   38.3660   35.0370   40.7360 H   0  0  0  0  0  0  0  0  0  0  0  0
   39.6980   33.8410   39.4700 N   0  0  0  0  0  0  0  0  0  0  0  0
   40.5570   34.4280   39.3890 H   0  0  0  0  0  0  0  0  0  0  0  0
   39.5610   32.6600   38.8970 N   0  0  0  0  0  0  0  0  0  0  0  0
   35.5450   28.7650   40.8150 C   0  0  0  0  0  0  0  0  0  0  0  0
   34.5930   28.5830   41.2560 H   0  0  0  0  0  0  0  0  0  0  0  0
   35.8780   28.0620   39.9930 H   0  0  0  0  0  0  0  0  0  0  0  0
   38.3360   28.7830   43.3210 C   0  0  0  0  0  0  0  0  0  0  0  0
   37.2590   29.2540   42.5230 C   0  0  0  0  0  0  0  0  0  0  0  0
   36.6380   28.3290   41.7280 C   0  0  0  0  0  0  0  0  0  0  0  0
   37.0540   27.0280   41.7290 N   0  0  0  0  0  0  0  0  0  0  0  0
   38.0600   26.6190   42.4840 C   0  0  0  0  0  0  0  0  0  0  0  0
   38.7000   27.4860   43.2750 N   0  0  0  0  0  0  0  0  0  0  0  0
   38.9030   29.4140   43.9850 H   0  0  0  0  0  0  0  0  0  0  0  0
   37.0690   30.3020   42.6670 H   0  0  0  0  0  0  0  0  0  0  0  0
   38.3370   25.5780   42.4330 H   0  0  0  0  0  0  0  0  0  0  0  0
  1 18  1  0  0  0  0
  1  3  1  0  0  0  0
  2  1  1  0  0  0  0
  4  7  1  6  0  0  0
  4  1  1  0  0  0  0
  5  6  1  0  0  0  0
  5  4  1  0  0  0  0
  6 10  1  6  0  0  0
  6 11  1  0  0  0  0
  6  4  1  0  0  0  0
  8  5  1  0  0  0  0
  9  5  1  0  0  0  0
 11 12  1  0  0  0  0
 12 13  2  0  0  0  0
 13 14  1  0  0  0  0
 15 13  1  0  0  0  0
 16 15  1  0  0  0  0
 17 11  2  0  0  0  0
 17 15  1  0  0  0  0
 18 19  1  0  0  0  0
 18 23  1  0  0  0  0
 20 18  1  0  0  0  0
 21 27  1  0  0  0  0
 22 28  1  0  0  0  0
 22 21  2  0  0  0  0
 23 24  2  0  0  0  0
 23 22  1  0  0  0  0
 24 25  1  0  0  0  0
 25 26  2  0  0  0  0
 26 21  1  0  0  0  0
 29 25  1  0  0  0  0
M  END
>  <minimizedAffinity>
-4.42273855

$$$$

 OpenBabel03252502453D

 29 31  0  0  1  0  0  0  0  0999 V2000
   37.2700   26.2370   41.7320 C   0  0  0  0  0  0  0  0  0  0  0  0
   38.2670   26.2370   41.2990 H   0  0  0  0  0  0  0  0  0  0  0  0
   36.5280   26.7070   41.0110 H   0  0  0  0  0  0  0  0  0  0  0  0
   37.1380   27.0890   42.9620 C   0  0  1  0  0  0  0  0  0  0  0  0
   38.4010   27.7000   43.4940 C   0  0  0  0  0  0  0  0  0  0  0  0
   37.3320   28.5050   42.9150 C   0  0  1  0  0  0  0  0  0  0  0  0
   36.4360   26.5550   43.6720 H   0  0  0  0  0  0  0  0  0  0  0  0
   38.5250   27.5010   44.5990 H   0  0  0  0  0  0  0  0  0  0  0  0
   39.3960   27.5020   43.0480 H   0  0  0  0  0  0  0  0  0  0  0  0
   36.7380   28.9450   43.7970 H   0  0  0  0  0  0  0  0  0  0  0  0
   37.2840   29.6090   42.0220 C   0  0  0  0  0  0  0  0  0  0  0  0
   36.2150   30.0300   41.3350 N   0  0  0  0  0  0  0  0  0  0  0  0
   36.6080   31.1170   40.6040 C   0  0  0  0  0  0  0  0  0  0  0  0
   35.9490   31.6700   39.9480 H   0  0  0  0  0  0  0  0  0  0  0  0
   37.9090   31.3290   40.8670 N   0  0  0  0  0  0  0  0  0  0  0  0
   38.5070   32.0850   40.4670 H   0  0  0  0  0  0  0  0  0  0  0  0
   38.3460   30.4270   41.7260 N   0  0  0  0  0  0  0  0  0  0  0  0
   36.7490   24.9020   42.1570 C   0  0  0  0  0  0  0  0  0  0  0  0
   37.0770   24.4920   43.0830 H   0  0  0  0  0  0  0  0  0  0  0  0
   35.6320   24.9570   41.9820 H   0  0  0  0  0  0  0  0  0  0  0  0
   36.1780   22.7510   39.1370 C   0  0  0  0  0  0  0  0  0  0  0  0
   35.9530   23.7450   40.1270 C   0  0  0  0  0  0  0  0  0  0  0  0
   36.9460   23.9240   41.0510 C   0  0  0  0  0  0  0  0  0  0  0  0
   38.0850   23.1710   40.9940 N   0  0  0  0  0  0  0  0  0  0  0  0
   38.2670   22.2530   40.0590 C   0  0  0  0  0  0  0  0  0  0  0  0
   37.3250   22.0400   39.1370 N   0  0  0  0  0  0  0  0  0  0  0  0
   35.4720   22.5170   38.3590 H   0  0  0  0  0  0  0  0  0  0  0  0
   35.0080   24.2410   40.0010 H   0  0  0  0  0  0  0  0  0  0  0  0
   39.1900   21.6950   40.0760 H   0  0  0  0  0  0  0  0  0  0  0  0
  1 18  1  0  0  0  0
  1  4  1  0  0  0  0
  2  1  1  0  0  0  0
  3  1  1  0  0  0  0
  4  5  1  0  0  0  0
  4  7  1  1  0  0  0
  5  8  1  0  0  0  0
  6  4  1  0  0  0  0
  6  5  1  0  0  0  0
  6 10  1  1  0  0  0
  9  5  1  0  0  0  0
 11  6  1  0  0  0  0
 12 11  1  0  0  0  0
 13 15  1  0  0  0  0
 13 12  2  0  0  0  0
 14 13  1  0  0  0  0
 15 17  1  0  0  0  0
 16 15  1  0  0  0  0
 17 11  2  0  0  0  0
 18 19  1  0  0  0  0
 20 18  1  0  0  0  0
 21 22  1  0  0  0  0
 22 23  2  0  0  0  0
 23 18  1  0  0  0  0
 24 23  1  0  0  0  0
 25 29  1  0  0  0  0
 25 24  2  0  0  0  0
 26 21  2  0  0  0  0
 26 25  1  0  0  0  0
 27 21  1  0  0  0  0
 28 22  1  0  0  0  0
M  END
>  <minimizedAffinity>
-4.40987635

$$$$

 OpenBabel03252502453D

 29 31  0  0  1  0  0  0  0  0999 V2000
   37.0660   29.5910   37.5250 C   0  0  0  0  0  0  0  0  0  0  0  0
   37.1900   28.9450   36.6590 H   0  0  0  0  0  0  0  0  0  0  0  0
   37.6990   29.2130   38.3900 H   0  0  0  0  0  0  0  0  0  0  0  0
   35.6760   29.5920   38.0940 C   0  0  1  0  0  0  0  0  0  0  0  0
   35.0740   28.2500   38.3960 C   0  0  0  0  0  0  0  0  0  0  0  0
   35.4210   29.2010   39.4460 C   0  0  1  0  0  0  0  0  0  0  0  0
   35.0720   30.3550   37.5150 H   0  0  0  0  0  0  0  0  0  0  0  0
   34.0450   28.1460   37.9430 H   0  0  0  0  0  0  0  0  0  0  0  0
   35.5910   27.2970   38.1690 H   0  0  0  0  0  0  0  0  0  0  0  0
   34.4420   29.7190   39.7560 H   0  0  0  0  0  0  0  0  0  0  0  0
   36.0500   29.1010   40.7160 C   0  0  0  0  0  0  0  0  0  0  0  0
   36.4070   27.9720   41.3390 N   0  0  0  0  0  0  0  0  0  0  0  0
   36.9800   28.3320   42.5280 C   0  0  0  0  0  0  0  0  0  0  0  0
   37.3660   27.6220   43.2480 H   0  0  0  0  0  0  0  0  0  0  0  0
   36.9560   29.6740   42.5950 N   0  0  0  0  0  0  0  0  0  0  0  0
   37.3190   30.2620   43.3780 H   0  0  0  0  0  0  0  0  0  0  0  0
   36.3970   30.1690   41.5070 N   0  0  0  0  0  0  0  0  0  0  0  0
   37.3690   31.0380   37.3020 C   0  0  0  0  0  0  0  0  0  0  0  0
   37.9780   31.3140   36.4740 H   0  0  0  0  0  0  0  0  0  0  0  0
   36.3720   31.5630   37.4090 H   0  0  0  0  0  0  0  0  0  0  0  0
   37.9230   33.3190   40.2270 C   0  0  0  0  0  0  0  0  0  0  0  0
   37.3310   32.7720   39.0570 C   0  0  0  0  0  0  0  0  0  0  0  0
   37.8960   31.6290   38.5630 C   0  0  0  0  0  0  0  0  0  0  0  0
   38.9730   31.0650   39.1880 N   0  0  0  0  0  0  0  0  0  0  0  0
   39.5020   31.5970   40.2780 C   0  0  0  0  0  0  0  0  0  0  0  0
   38.9870   32.7150   40.7960 N   0  0  0  0  0  0  0  0  0  0  0  0
   37.5700   34.2150   40.7090 H   0  0  0  0  0  0  0  0  0  0  0  0
   36.4870   33.3460   38.7190 H   0  0  0  0  0  0  0  0  0  0  0  0
   40.3520   31.0990   40.7180 H   0  0  0  0  0  0  0  0  0  0  0  0
  1  4  1  0  0  0  0
  1  3  1  0  0  0  0
  2  1  1  0  0  0  0
  4  7  1  6  0  0  0
  4  5  1  0  0  0  0
  4  6  1  0  0  0  0
  5  6  1  0  0  0  0
  6 10  1  1  0  0  0
  6 11  1  0  0  0  0
  8  5  1  0  0  0  0
  9  5  1  0  0  0  0
 11 12  1  0  0  0  0
 11 17  2  0  0  0  0
 12 13  2  0  0  0  0
 13 15  1  0  0  0  0
 13 14  1  0  0  0  0
 15 16  1  0  0  0  0
 17 15  1  0  0  0  0
 18 20  1  0  0  0  0
 18  1  1  0  0  0  0
 18 23  1  0  0  0  0
 19 18  1  0  0  0  0
 21 27  1  0  0  0  0
 21 26  1  0  0  0  0
 22 21  2  0  0  0  0
 23 22  1  0  0  0  0
 23 24  2  0  0  0  0
 24 25  1  0  0  0  0
 25 29  1  0  0  0  0
 25 26  2  0  0  0  0
 28 22  1  0  0  0  0
M  END
>  <minimizedAffinity>
-4.39738369

$$$$

 OpenBabel03252502453D

 29 31  0  0  1  0  0  0  0  0999 V2000
   38.1170   27.6360   43.6020 C   0  0  0  0  0  0  0  0  0  0  0  0
   37.9960   27.4140   44.6590 H   0  0  0  0  0  0  0  0  0  0  0  0
   37.2640   27.1800   43.0050 H   0  0  0  0  0  0  0  0  0  0  0  0
   39.3370   27.0180   42.9830 C   0  0  1  0  0  0  0  0  0  0  0  0
   39.9090   25.8180   43.6800 C   0  0  0  0  0  0  0  0  0  0  0  0
   39.2900   25.7300   42.3610 C   0  0  1  0  0  0  0  0  0  0  0  0
   40.0260   27.8620   42.6730 H   0  0  0  0  0  0  0  0  0  0  0  0
   41.0180   25.9310   43.8600 H   0  0  0  0  0  0  0  0  0  0  0  0
   39.4970   25.4250   44.6310 H   0  0  0  0  0  0  0  0  0  0  0  0
   40.1500   25.7060   41.5970 H   0  0  0  0  0  0  0  0  0  0  0  0
   38.3910   24.8250   41.7380 C   0  0  0  0  0  0  0  0  0  0  0  0
   38.7120   23.6710   41.1420 N   0  0  0  0  0  0  0  0  0  0  0  0
   37.5480   23.1180   40.6820 C   0  0  0  0  0  0  0  0  0  0  0  0
   37.4980   22.1750   40.1530 H   0  0  0  0  0  0  0  0  0  0  0  0
   36.5480   23.9530   41.0120 N   0  0  0  0  0  0  0  0  0  0  0  0
   35.5340   23.8190   40.8050 H   0  0  0  0  0  0  0  0  0  0  0  0
   37.0310   24.9990   41.6560 N   0  0  0  0  0  0  0  0  0  0  0  0
   38.2270   29.0860   43.2540 C   0  0  0  0  0  0  0  0  0  0  0  0
   38.1090   29.8100   44.0250 H   0  0  0  0  0  0  0  0  0  0  0  0
   39.1550   29.1600   42.6110 H   0  0  0  0  0  0  0  0  0  0  0  0
   36.5020   30.8330   40.4180 C   0  0  0  0  0  0  0  0  0  0  0  0
   37.4370   30.5840   41.4590 C   0  0  0  0  0  0  0  0  0  0  0  0
   37.3230   29.3860   42.1090 C   0  0  0  0  0  0  0  0  0  0  0  0
   36.3500   28.4950   41.7510 N   0  0  0  0  0  0  0  0  0  0  0  0
   35.4930   28.7550   40.7770 C   0  0  0  0  0  0  0  0  0  0  0  0
   35.5630   29.9130   40.1140 N   0  0  0  0  0  0  0  0  0  0  0  0
   36.4890   31.7380   39.8350 H   0  0  0  0  0  0  0  0  0  0  0  0
   38.1330   31.3930   41.5860 H   0  0  0  0  0  0  0  0  0  0  0  0
   34.7500   28.0070   40.5480 H   0  0  0  0  0  0  0  0  0  0  0  0
  1  2  1  0  0  0  0
  3  1  1  0  0  0  0
  4  7  1  6  0  0  0
  4  1  1  0  0  0  0
  4  5  1  0  0  0  0
  5  8  1  0  0  0  0
  5  9  1  0  0  0  0
  6 10  1  6  0  0  0
  6  4  1  0  0  0  0
  6  5  1  0  0  0  0
 11  6  1  0  0  0  0
 12 11  1  0  0  0  0
 13 15  1  0  0  0  0
 13 12  2  0  0  0  0
 14 13  1  0  0  0  0
 15 17  1  0  0  0  0
 16 15  1  0  0  0  0
 17 11  2  0  0  0  0
 18  1  1  0  0  0  0
 18 19  1  0  0  0  0
 20 18  1  0  0  0  0
 21 22  1  0  0  0  0
 22 28  1  0  0  0  0
 22 23  2  0  0  0  0
 23 18  1  0  0  0  0
 24 23  1  0  0  0  0
 25 24  2  0  0  0  0
 26 21  2  0  0  0  0
 26 25  1  0  0  0  0
 27 21  1  0  0  0  0
 29 25  1  0  0  0  0
M  END
>  <minimizedAffinity>
-4.38536167

$$$$
