REMARK  Name = 
REMARK  3 active torsions:
REMARK  status: ('A' for Active; 'I' for Inactive)
REMARK    1  A    between atoms: C_2  and  C_14
REMARK    2  A    between atoms: C_3  and  S_16
REMARK    3  A    between atoms: S_16  and  C_24
REMARK                            x       y       z     vdW  Elec       q    Type
REMARK                         _______ _______ _______ _____ _____    ______ ____
ROOT
ATOM      1  C   UNL     1      47.456  31.678  44.824  0.00  0.00    +0.000 A 
ATOM      2  C   UNL     1      46.776  32.861  44.542  0.00  0.00    +0.000 A 
ATOM      3  C   UNL     1      45.911  33.451  45.422  0.00  0.00    +0.000 A 
ATOM      4  C   UNL     1      45.690  32.846  46.670  0.00  0.00    +0.000 A 
ATOM      5  N   UNL     1      44.927  33.141  47.759  0.00  0.00    +0.000 N 
ATOM      6  C   UNL     1      45.115  32.186  48.691  0.00  0.00    +0.000 A 
ATOM      7  N   UNL     1      45.999  31.308  48.159  0.00  0.00    +0.000 NA
ATOM      8  C   UNL     1      46.364  31.688  46.929  0.00  0.00    +0.000 A 
ATOM      9  C   UNL     1      47.240  31.072  46.064  0.00  0.00    +0.000 A 
ATOM     10  H   UNL     1      48.143  31.196  44.145  0.00  0.00    +0.000 HD
ATOM     11  H   UNL     1      44.316  33.994  47.788  0.00  0.00    +0.000 HD
ATOM     12  H   UNL     1      44.578  32.270  49.625  0.00  0.00    +0.000 HD
ATOM     13  H   UNL     1      47.748  30.162  46.310  0.00  0.00    +0.000 HD
ENDROOT
BRANCH   2  18
ATOM     14  C   UNL     1      46.384  33.812  41.012  0.00  0.00    +0.000 A 
ATOM     15  C   UNL     1      47.425  34.717  40.820  0.00  0.00    +0.000 A 
ATOM     16  C   UNL     1      48.255  34.995  41.905  0.00  0.00    +0.000 A 
ATOM     17  N   UNL     1      48.019  34.376  43.104  0.00  0.00    +0.000 NA
ATOM     18  C   UNL     1      46.999  33.504  43.250  0.00  0.00    +0.000 A 
ATOM     19  N   UNL     1      46.184  33.221  42.211  0.00  0.00    +0.000 NA
ATOM     20  H   UNL     1      45.718  33.569  40.194  0.00  0.00    +0.000 HD
ATOM     21  H   UNL     1      47.594  35.190  39.877  0.00  0.00    +0.000 HD
ATOM     22  H   UNL     1      49.075  35.686  41.817  0.00  0.00    +0.000 HD
ENDBRANCH   2  18
BRANCH   3  23
ATOM     23  S   UNL     1      45.051  34.963  45.057  0.00  0.00    +0.000 S 
BRANCH  23  24
ATOM     24  C   UNL     1      43.484  34.694  44.257  0.00  0.00    +0.000 A 
ATOM     25  N   UNL     1      42.612  35.673  43.877  0.00  0.00    +0.000 NA
ATOM     26  C   UNL     1      41.544  35.072  43.302  0.00  0.00    +0.000 A 
ATOM     27  H   UNL     1      40.727  35.669  42.926  0.00  0.00    +0.000 HD
ATOM     28  N   UNL     1      41.735  33.726  43.318  0.00  0.00    +0.000 N 
ATOM     29  H   UNL     1      41.052  33.034  42.932  0.00  0.00    +0.000 HD
ATOM     30  N   UNL     1      42.892  33.539  43.889  0.00  0.00    +0.000 NA
ENDBRANCH  23  24
ENDBRANCH   3  23
TORSDOF 3
