
 OpenBabel03242516333D

 42 45  0  0  1  0  0  0  0  0999 V2000
   48.0710   34.5580   41.9950 C   0  0  2  0  0  0  0  0  0  0  0  0
   46.7320   33.8190   42.2540 C   0  0  1  0  0  0  0  0  0  0  0  0
   47.2180   32.5890   42.5800 O   0  0  0  0  0  0  0  0  0  0  0  0
   48.1060   32.2870   41.5270 C   0  0  0  0  0  0  0  0  0  0  0  0
   48.5470   33.6270   40.9020 C   0  0  1  0  0  0  0  0  0  0  0  0
   47.9010   35.5830   41.6580 H   0  0  0  0  0  0  0  0  0  0  0  0
   46.2200   33.7850   41.2630 H   0  0  0  0  0  0  0  0  0  0  0  0
   48.9770   31.7010   41.8680 H   0  0  0  0  0  0  0  0  0  0  0  0
   47.5230   31.7360   40.7670 H   0  0  0  0  0  0  0  0  0  0  0  0
   49.6390   33.6940   40.7670 H   0  0  0  0  0  0  0  0  0  0  0  0
   44.5460   36.0670   44.4050 C   0  0  0  0  0  0  0  0  0  0  0  0
   45.2150   35.6520   43.2530 C   0  0  0  0  0  0  0  0  0  0  0  0
   45.9570   34.4930   43.3030 C   0  0  0  0  0  0  0  0  0  0  0  0
   45.9860   33.8160   44.5030 N   0  0  0  0  0  0  0  0  0  0  0  0
   45.3310   34.2380   45.5970 C   0  0  0  0  0  0  0  0  0  0  0  0
   44.6090   35.3700   45.5420 N   0  0  0  0  0  0  0  0  0  0  0  0
   43.9850   36.9990   44.2640 H   0  0  0  0  0  0  0  0  0  0  0  0
   45.2410   36.1200   42.2900 H   0  0  0  0  0  0  0  0  0  0  0  0
   45.3830   33.6720   46.5210 H   0  0  0  0  0  0  0  0  0  0  0  0
   48.9290   34.3930   43.0480 O   0  0  0  0  0  0  0  0  0  0  0  0
   48.7680   33.5140   43.4660 H   0  0  0  0  0  0  0  0  0  0  0  0
   47.8210   33.8080   39.7620 O   0  0  0  0  0  0  0  0  0  0  0  0
   49.0350   32.7300   38.0520 C   0  0  1  0  0  0  0  0  0  0  0  0
   48.5510   34.1570   38.6280 C   0  0  1  0  0  0  0  0  0  0  0  0
   47.7090   34.4840   37.6330 O   0  0  0  0  0  0  0  0  0  0  0  0
   46.8140   33.3770   37.6990 C   0  0  0  0  0  0  0  0  0  0  0  0
   47.7570   32.2190   37.4620 C   0  0  1  0  0  0  0  0  0  0  0  0
   49.4760   32.1630   38.8520 H   0  0  0  0  0  0  0  0  0  0  0  0
   49.5180   34.6150   38.8020 H   0  0  0  0  0  0  0  0  0  0  0  0
   46.3060   33.3430   38.6660 H   0  0  0  0  0  0  0  0  0  0  0  0
   46.0720   33.4770   36.8920 H   0  0  0  0  0  0  0  0  0  0  0  0
   47.3700   31.3300   38.0040 H   0  0  0  0  0  0  0  0  0  0  0  0
   49.8870   33.0600   36.9900 O   0  0  0  0  0  0  0  0  0  0  0  0
   49.3700   33.2690   36.1930 H   0  0  0  0  0  0  0  0  0  0  0  0
   47.8580   31.9950   36.1040 O   0  0  0  0  0  0  0  0  0  0  0  0
   46.6960   31.7660   35.3780 C   0  0  0  0  0  0  0  0  0  0  0  0
   45.7420   30.8360   35.6400 N   0  0  0  0  0  0  0  0  0  0  0  0
   44.7520   30.9130   34.7090 C   0  0  0  0  0  0  0  0  0  0  0  0
   43.9380   30.2100   34.8290 H   0  0  0  0  0  0  0  0  0  0  0  0
   45.1120   31.9100   33.8610 N   0  0  0  0  0  0  0  0  0  0  0  0
   44.4700   32.1230   33.0670 H   0  0  0  0  0  0  0  0  0  0  0  0
   46.2600   32.3960   34.2770 N   0  0  0  0  0  0  0  0  0  0  0  0
  1  6  1  6  0  0  0
  1  2  1  0  0  0  0
  1 20  1  0  0  0  0
  2  7  1  6  0  0  0
  2  3  1  0  0  0  0
  2 13  1  0  0  0  0
  4  8  1  0  0  0  0
  4  3  1  0  0  0  0
  5 10  1  6  0  0  0
  5  4  1  0  0  0  0
  5  1  1  0  0  0  0
  9  4  1  0  0  0  0
 11 16  1  0  0  0  0
 12 13  1  0  0  0  0
 12 11  2  0  0  0  0
 13 14  2  0  0  0  0
 14 15  1  0  0  0  0
 15 19  1  0  0  0  0
 16 15  2  0  0  0  0
 17 11  1  0  0  0  0
 18 12  1  0  0  0  0
 20 21  1  0  0  0  0
 22  5  1  0  0  0  0
 23 24  1  0  0  0  0
 23 28  1  1  0  0  0
 24 29  1  1  0  0  0
 24 22  1  0  0  0  0
 25 26  1  0  0  0  0
 25 24  1  0  0  0  0
 26 30  1  0  0  0  0
 27 26  1  0  0  0  0
 27 32  1  1  0  0  0
 27 23  1  0  0  0  0
 31 26  1  0  0  0  0
 33 23  1  0  0  0  0
 34 33  1  0  0  0  0
 35 27  1  0  0  0  0
 36 37  1  0  0  0  0
 36 35  1  0  0  0  0
 38 39  1  0  0  0  0
 38 37  2  0  0  0  0
 40 42  1  0  0  0  0
 40 38  1  0  0  0  0
 41 40  1  0  0  0  0
 42 36  2  0  0  0  0
M  END
>  <minimizedAffinity>
-5.63362455

>  <minimizedRMSD>
1.45648074

$$$$
