
 OpenBabel03242520133D

 32 34  0  0  0  0  0  0  0  0999 V2000
   39.8210   30.3240   41.9870 C   0  0  0  0  0  0  0  0  0  0  0  0
   41.0230   29.7060   42.1200 C   0  0  0  0  0  0  0  0  0  0  0  0
   41.0730   28.4950   42.7850 C   0  0  0  0  0  0  0  0  0  0  0  0
   39.9210   27.9270   43.3050 C   0  0  0  0  0  0  0  0  0  0  0  0
   38.6990   28.6020   43.1440 C   0  0  0  0  0  0  0  0  0  0  0  0
   38.6960   29.7480   42.5070 N   0  0  0  0  0  0  0  0  0  0  0  0
   41.9020   30.1790   41.7010 H   0  0  0  0  0  0  0  0  0  0  0  0
   42.0170   27.9760   42.9080 H   0  0  0  0  0  0  0  0  0  0  0  0
   39.9360   26.9810   43.8290 H   0  0  0  0  0  0  0  0  0  0  0  0
   38.2150   33.1260   40.2970 C   0  0  0  0  0  0  0  0  0  0  0  0
   39.3200   33.9740   40.0500 C   0  0  0  0  0  0  0  0  0  0  0  0
   40.6100   33.5970   40.4550 C   0  0  0  0  0  0  0  0  0  0  0  0
   40.6710   32.4020   41.0710 N   0  0  0  0  0  0  0  0  0  0  0  0
   39.6360   31.6140   41.3010 C   0  0  0  0  0  0  0  0  0  0  0  0
   38.4200   31.9730   40.9170 N   0  0  0  0  0  0  0  0  0  0  0  0
   36.9320   33.5700   39.8540 N   0  0  0  0  0  0  0  0  0  0  0  0
   39.2000   34.9130   39.5530 H   0  0  0  0  0  0  0  0  0  0  0  0
   41.4570   34.2190   40.2790 H   0  0  0  0  0  0  0  0  0  0  0  0
   36.8590   34.3170   39.1310 H   0  0  0  0  0  0  0  0  0  0  0  0
   36.0910   33.0990   40.3000 H   0  0  0  0  0  0  0  0  0  0  0  0
   37.4660   28.0430   43.6740 C   0  0  0  0  0  3  0  0  0  0  0  0
   36.6310   27.3150   42.9470 C   0  0  0  0  0  3  0  0  0  0  0  0
   36.8900   27.0040   41.5100 C   0  0  0  0  0  0  0  0  0  0  0  0
   37.5690   27.7650   41.1060 H   0  0  0  0  0  0  0  0  0  0  0  0
   35.9530   26.9140   40.9490 H   0  0  0  0  0  0  0  0  0  0  0  0
   37.5380   25.6460   41.5190 C   0  0  0  0  0  0  0  0  0  0  0  0
   38.6520   25.3130   40.8510 N   0  0  0  0  0  0  0  0  0  0  0  0
   38.9080   24.0280   41.1100 C   0  0  0  0  0  0  0  0  0  0  0  0
   39.7300   23.4580   40.7280 H   0  0  0  0  0  0  0  0  0  0  0  0
   37.9390   23.5860   41.9410 N   0  0  0  0  0  0  0  0  0  0  0  0
   37.8080   22.6400   42.3570 H   0  0  0  0  0  0  0  0  0  0  0  0
   37.0880   24.5790   42.2000 N   0  0  0  0  0  0  0  0  0  0  0  0
  1  2  2  0  0  0  0
  1  6  1  0  0  0  0
  2  3  1  0  0  0  0
  3  8  1  0  0  0  0
  3  4  2  0  0  0  0
  4  9  1  0  0  0  0
  5  4  1  0  0  0  0
  5 21  1  0  0  0  0
  6  5  2  0  0  0  0
  7  2  1  0  0  0  0
 10 15  1  0  0  0  0
 11 10  2  0  0  0  0
 11 12  1  0  0  0  0
 12 13  2  0  0  0  0
 13 14  1  0  0  0  0
 14  1  1  0  0  0  0
 15 14  2  0  0  0  0
 16 10  1  0  0  0  0
 16 20  1  0  0  0  0
 17 11  1  0  0  0  0
 18 12  1  0  0  0  0
 19 16  1  0  0  0  0
 22 21  2  0  0  0  0
 23 26  1  0  0  0  0
 23 22  1  0  0  0  0
 24 23  1  0  0  0  0
 25 23  1  0  0  0  0
 26 32  2  0  0  0  0
 27 28  2  0  0  0  0
 27 26  1  0  0  0  0
 28 30  1  0  0  0  0
 29 28  1  0  0  0  0
 30 32  1  0  0  0  0
 30 31  1  0  0  0  0
M  END
>  <minimizedAffinity>
-6.03172207

$$$$

 OpenBabel03242520133D

 32 34  0  0  0  0  0  0  0  0999 V2000
   37.6790   30.4910   40.4380 C   0  0  0  0  0  0  0  0  0  0  0  0
   36.5860   30.1250   39.7190 C   0  0  0  0  0  0  0  0  0  0  0  0
   35.7360   29.1720   40.2490 C   0  0  0  0  0  0  0  0  0  0  0  0
   35.9960   28.6040   41.4860 C   0  0  0  0  0  0  0  0  0  0  0  0
   37.1390   29.0130   42.1940 C   0  0  0  0  0  0  0  0  0  0  0  0
   37.9180   29.9190   41.6550 N   0  0  0  0  0  0  0  0  0  0  0  0
   36.4160   30.5890   38.7560 H   0  0  0  0  0  0  0  0  0  0  0  0
   34.8560   28.8570   39.7010 H   0  0  0  0  0  0  0  0  0  0  0  0
   35.3460   27.8560   41.9200 H   0  0  0  0  0  0  0  0  0  0  0  0
   39.9170   32.3820   38.2690 C   0  0  0  0  0  0  0  0  0  0  0  0
   40.4440   33.3340   39.1730 C   0  0  0  0  0  0  0  0  0  0  0  0
   40.0420   33.3360   40.5180 C   0  0  0  0  0  0  0  0  0  0  0  0
   39.1480   32.3800   40.8310 N   0  0  0  0  0  0  0  0  0  0  0  0
   38.6580   31.4930   39.9830 C   0  0  0  0  0  0  0  0  0  0  0  0
   39.0390   31.4950   38.7150 N   0  0  0  0  0  0  0  0  0  0  0  0
   40.3730   32.4340   36.9170 N   0  0  0  0  0  0  0  0  0  0  0  0
   41.1540   34.0670   38.8560 H   0  0  0  0  0  0  0  0  0  0  0  0
   40.4260   34.0430   41.2160 H   0  0  0  0  0  0  0  0  0  0  0  0
   41.2550   32.9360   36.6830 H   0  0  0  0  0  0  0  0  0  0  0  0
   39.7670   31.9420   36.1960 H   0  0  0  0  0  0  0  0  0  0  0  0
   37.4500   28.4430   43.4950 C   0  0  0  0  0  3  0  0  0  0  0  0
   38.3770   27.5150   43.6740 C   0  0  0  0  0  3  0  0  0  0  0  0
   39.1900   26.9720   42.5450 C   0  0  0  0  0  0  0  0  0  0  0  0
   40.2360   26.9080   42.8690 H   0  0  0  0  0  0  0  0  0  0  0  0
   39.0510   27.5670   41.6360 H   0  0  0  0  0  0  0  0  0  0  0  0
   38.6170   25.6060   42.2780 C   0  0  0  0  0  0  0  0  0  0  0  0
   37.3920   25.3600   41.7930 N   0  0  0  0  0  0  0  0  0  0  0  0
   37.2550   24.0350   41.6970 C   0  0  0  0  0  0  0  0  0  0  0  0
   36.3910   23.5130   41.3430 H   0  0  0  0  0  0  0  0  0  0  0  0
   38.4090   23.4810   42.1300 N   0  0  0  0  0  0  0  0  0  0  0  0
   38.6730   22.4750   42.1990 H   0  0  0  0  0  0  0  0  0  0  0  0
   39.2570   24.4440   42.4910 N   0  0  0  0  0  0  0  0  0  0  0  0
  1  6  1  0  0  0  0
  2  3  1  0  0  0  0
  2  1  2  0  0  0  0
  3  4  2  0  0  0  0
  4  9  1  0  0  0  0
  4  5  1  0  0  0  0
  5 21  1  0  0  0  0
  6  5  2  0  0  0  0
  7  2  1  0  0  0  0
  8  3  1  0  0  0  0
 10 15  2  0  0  0  0
 10 11  1  0  0  0  0
 11 12  2  0  0  0  0
 12 13  1  0  0  0  0
 12 18  1  0  0  0  0
 14  1  1  0  0  0  0
 14 13  2  0  0  0  0
 15 14  1  0  0  0  0
 16 10  1  0  0  0  0
 17 11  1  0  0  0  0
 19 16  1  0  0  0  0
 20 16  1  0  0  0  0
 21 22  2  0  0  0  0
 23 24  1  0  0  0  0
 23 22  1  0  0  0  0
 25 23  1  0  0  0  0
 26 32  2  0  0  0  0
 26 23  1  0  0  0  0
 27 26  1  0  0  0  0
 28 27  2  0  0  0  0
 28 30  1  0  0  0  0
 29 28  1  0  0  0  0
 30 31  1  0  0  0  0
 30 32  1  0  0  0  0
M  END
>  <minimizedAffinity>
-5.89316368

$$$$

 OpenBabel03242520133D

 32 34  0  0  0  0  0  0  0  0999 V2000
   38.3650   24.9640   41.9540 C   0  0  0  0  0  0  0  0  0  0  0  0
   39.5940   24.8130   42.5130 C   0  0  0  0  0  0  0  0  0  0  0  0
   40.0470   25.7870   43.3850 C   0  0  0  0  0  0  0  0  0  0  0  0
   39.2620   26.8910   43.6780 C   0  0  0  0  0  0  0  0  0  0  0  0
   37.9980   27.0050   43.0760 C   0  0  0  0  0  0  0  0  0  0  0  0
   37.6070   26.0600   42.2560 N   0  0  0  0  0  0  0  0  0  0  0  0
   40.1780   23.9380   42.2610 H   0  0  0  0  0  0  0  0  0  0  0  0
   41.0220   25.6970   43.8480 H   0  0  0  0  0  0  0  0  0  0  0  0
   39.5960   27.6650   44.3570 H   0  0  0  0  0  0  0  0  0  0  0  0
   36.0400   23.4330   39.6010 C   0  0  0  0  0  0  0  0  0  0  0  0
   36.7060   22.2220   39.2970 C   0  0  0  0  0  0  0  0  0  0  0  0
   37.9430   21.9230   39.8900 C   0  0  0  0  0  0  0  0  0  0  0  0
   38.3960   22.8680   40.7340 N   0  0  0  0  0  0  0  0  0  0  0  0
   37.7720   23.9980   41.0140 C   0  0  0  0  0  0  0  0  0  0  0  0
   36.6050   24.2770   40.4520 N   0  0  0  0  0  0  0  0  0  0  0  0
   34.7840   23.6700   38.9660 N   0  0  0  0  0  0  0  0  0  0  0  0
   36.2870   21.5130   38.6160 H   0  0  0  0  0  0  0  0  0  0  0  0
   38.4620   21.0170   39.6770 H   0  0  0  0  0  0  0  0  0  0  0  0
   34.2510   22.8780   38.5500 H   0  0  0  0  0  0  0  0  0  0  0  0
   34.4470   24.6780   38.9500 H   0  0  0  0  0  0  0  0  0  0  0  0
   37.1420   28.1470   43.3550 C   0  0  0  0  0  3  0  0  0  0  0  0
   37.1790   29.2680   42.6510 C   0  0  0  0  0  3  0  0  0  0  0  0
   38.1110   29.4540   41.4990 C   0  0  0  0  0  0  0  0  0  0  0  0
   37.8270   28.7520   40.7060 H   0  0  0  0  0  0  0  0  0  0  0  0
   39.1550   29.3550   41.8140 H   0  0  0  0  0  0  0  0  0  0  0  0
   37.9070   30.8800   41.0630 C   0  0  0  0  0  0  0  0  0  0  0  0
   38.8650   31.8150   40.9980 N   0  0  0  0  0  0  0  0  0  0  0  0
   38.2970   32.9450   40.5700 C   0  0  0  0  0  0  0  0  0  0  0  0
   38.7920   33.8810   40.4110 H   0  0  0  0  0  0  0  0  0  0  0  0
   36.9850   32.6850   40.3780 N   0  0  0  0  0  0  0  0  0  0  0  0
   36.2280   33.3210   40.0480 H   0  0  0  0  0  0  0  0  0  0  0  0
   36.7350   31.4110   40.6790 N   0  0  0  0  0  0  0  0  0  0  0  0
  1  6  2  0  0  0  0
  1  2  1  0  0  0  0
  2  3  2  0  0  0  0
  3  4  1  0  0  0  0
  3  8  1  0  0  0  0
  4  9  1  0  0  0  0
  5 21  1  0  0  0  0
  5  4  2  0  0  0  0
  6  5  1  0  0  0  0
  7  2  1  0  0  0  0
 10 15  1  0  0  0  0
 11 10  2  0  0  0  0
 11 12  1  0  0  0  0
 12 13  2  0  0  0  0
 13 14  1  0  0  0  0
 14  1  1  0  0  0  0
 15 14  2  0  0  0  0
 16 10  1  0  0  0  0
 17 11  1  0  0  0  0
 18 12  1  0  0  0  0
 19 16  1  0  0  0  0
 20 16  1  0  0  0  0
 22 21  2  0  0  0  0
 23 25  1  0  0  0  0
 23 22  1  0  0  0  0
 24 23  1  0  0  0  0
 26 23  1  0  0  0  0
 27 26  1  0  0  0  0
 28 27  2  0  0  0  0
 29 28  1  0  0  0  0
 30 28  1  0  0  0  0
 30 32  1  0  0  0  0
 31 30  1  0  0  0  0
 32 26  2  0  0  0  0
M  END
>  <minimizedAffinity>
-5.4751296

$$$$

 OpenBabel03242520133D

 32 34  0  0  0  0  0  0  0  0999 V2000
   37.2810   28.3180   41.0710 C   0  0  0  0  0  0  0  0  0  0  0  0
   35.9440   28.2950   41.3090 C   0  0  0  0  0  0  0  0  0  0  0  0
   35.1120   29.0160   40.4730 C   0  0  0  0  0  0  0  0  0  0  0  0
   35.6330   29.7450   39.4160 C   0  0  0  0  0  0  0  0  0  0  0  0
   37.0220   29.7390   39.2070 C   0  0  0  0  0  0  0  0  0  0  0  0
   37.7750   29.0430   40.0230 N   0  0  0  0  0  0  0  0  0  0  0  0
   35.5730   27.7150   42.1440 H   0  0  0  0  0  0  0  0  0  0  0  0
   34.0400   29.0190   40.6360 H   0  0  0  0  0  0  0  0  0  0  0  0
   35.0010   30.3170   38.7490 H   0  0  0  0  0  0  0  0  0  0  0  0
   39.0780   25.5840   42.6790 C   0  0  0  0  0  0  0  0  0  0  0  0
   40.0840   26.2870   43.3830 C   0  0  0  0  0  0  0  0  0  0  0  0
   40.1540   27.6870   43.3140 C   0  0  0  0  0  0  0  0  0  0  0  0
   39.2060   28.2530   42.5440 N   0  0  0  0  0  0  0  0  0  0  0  0
   38.2690   27.5930   41.8870 C   0  0  0  0  0  0  0  0  0  0  0  0
   38.2060   26.2710   41.9540 N   0  0  0  0  0  0  0  0  0  0  0  0
   39.0620   24.1610   42.7970 N   0  0  0  0  0  0  0  0  0  0  0  0
   40.8070   25.7720   43.9780 H   0  0  0  0  0  0  0  0  0  0  0  0
   40.9030   28.2370   43.8360 H   0  0  0  0  0  0  0  0  0  0  0  0
   39.5610   23.6980   43.5850 H   0  0  0  0  0  0  0  0  0  0  0  0
   38.5240   23.6330   42.0490 H   0  0  0  0  0  0  0  0  0  0  0  0
   37.6120   30.4910   38.1100 C   0  0  0  0  0  3  0  0  0  0  0  0
   37.7880   31.8030   38.1450 C   0  0  0  0  0  3  0  0  0  0  0  0
   37.3940   32.6280   39.3260 C   0  0  0  0  0  0  0  0  0  0  0  0
   36.8060   32.0020   40.0070 H   0  0  0  0  0  0  0  0  0  0  0  0
   36.8740   33.5410   39.0140 H   0  0  0  0  0  0  0  0  0  0  0  0
   38.6950   33.0470   39.9570 C   0  0  0  0  0  0  0  0  0  0  0  0
   39.8500   32.3730   39.8720 N   0  0  0  0  0  0  0  0  0  0  0  0
   40.7680   33.0590   40.5580 C   0  0  0  0  0  0  0  0  0  0  0  0
   41.7950   32.7880   40.6850 H   0  0  0  0  0  0  0  0  0  0  0  0
   40.1570   34.1550   41.0580 N   0  0  0  0  0  0  0  0  0  0  0  0
   40.5530   34.9220   41.6430 H   0  0  0  0  0  0  0  0  0  0  0  0
   38.8750   34.1570   40.6920 N   0  0  0  0  0  0  0  0  0  0  0  0
  1  2  1  0  0  0  0
  1 14  1  0  0  0  0
  2  7  1  0  0  0  0
  3  8  1  0  0  0  0
  3  2  2  0  0  0  0
  4  3  1  0  0  0  0
  5  4  2  0  0  0  0
  5  6  1  0  0  0  0
  6  1  2  0  0  0  0
  9  4  1  0  0  0  0
 10 16  1  0  0  0  0
 10 11  1  0  0  0  0
 11 17  1  0  0  0  0
 12 11  2  0  0  0  0
 12 18  1  0  0  0  0
 13 12  1  0  0  0  0
 14 15  1  0  0  0  0
 14 13  2  0  0  0  0
 15 10  2  0  0  0  0
 16 19  1  0  0  0  0
 20 16  1  0  0  0  0
 21 22  2  0  0  0  0
 21  5  1  0  0  0  0
 22 23  1  0  0  0  0
 23 26  1  0  0  0  0
 23 24  1  0  0  0  0
 25 23  1  0  0  0  0
 26 32  2  0  0  0  0
 27 26  1  0  0  0  0
 27 28  2  0  0  0  0
 28 29  1  0  0  0  0
 28 30  1  0  0  0  0
 30 31  1  0  0  0  0
 32 30  1  0  0  0  0
M  END
>  <minimizedAffinity>
-5.4735446

$$$$

 OpenBabel03242520133D

 32 34  0  0  0  0  0  0  0  0999 V2000
   37.2970   26.8560   41.6060 C   0  0  0  0  0  0  0  0  0  0  0  0
   37.7220   26.8380   42.8970 C   0  0  0  0  0  0  0  0  0  0  0  0
   37.8640   28.0420   43.5620 C   0  0  0  0  0  0  0  0  0  0  0  0
   37.5790   29.2380   42.9230 C   0  0  0  0  0  0  0  0  0  0  0  0
   37.1430   29.2080   41.5880 C   0  0  0  0  0  0  0  0  0  0  0  0
   37.0220   28.0460   40.9950 N   0  0  0  0  0  0  0  0  0  0  0  0
   37.9360   25.8850   43.3620 H   0  0  0  0  0  0  0  0  0  0  0  0
   38.2010   28.0630   44.5910 H   0  0  0  0  0  0  0  0  0  0  0  0
   37.6830   30.1920   43.4240 H   0  0  0  0  0  0  0  0  0  0  0  0
   37.5220   23.3980   40.4740 C   0  0  0  0  0  0  0  0  0  0  0  0
   36.7440   23.4390   39.2930 C   0  0  0  0  0  0  0  0  0  0  0  0
   36.1430   24.6380   38.8800 C   0  0  0  0  0  0  0  0  0  0  0  0
   36.3800   25.6860   39.6910 N   0  0  0  0  0  0  0  0  0  0  0  0
   37.1060   25.6430   40.7930 C   0  0  0  0  0  0  0  0  0  0  0  0
   37.6720   24.5100   41.1800 N   0  0  0  0  0  0  0  0  0  0  0  0
   38.1080   22.1460   40.8340 N   0  0  0  0  0  0  0  0  0  0  0  0
   36.5970   22.5660   38.6950 H   0  0  0  0  0  0  0  0  0  0  0  0
   35.5530   24.6930   37.9940 H   0  0  0  0  0  0  0  0  0  0  0  0
   38.2110   21.3940   40.1210 H   0  0  0  0  0  0  0  0  0  0  0  0
   38.4180   22.0450   41.8450 H   0  0  0  0  0  0  0  0  0  0  0  0
   36.8330   30.4400   40.8800 C   0  0  0  0  0  3  0  0  0  0  0  0
   37.7120   31.0790   40.1230 C   0  0  0  0  0  3  0  0  0  0  0  0
   39.1070   30.5840   39.9310 C   0  0  0  0  0  0  0  0  0  0  0  0
   39.0680   29.5070   39.7280 H   0  0  0  0  0  0  0  0  0  0  0  0
   39.7410   30.8430   40.7860 H   0  0  0  0  0  0  0  0  0  0  0  0
   39.6270   31.3440   38.7410 C   0  0  0  0  0  0  0  0  0  0  0  0
   40.8650   31.8440   38.6210 N   0  0  0  0  0  0  0  0  0  0  0  0
   40.9430   32.4460   37.4310 C   0  0  0  0  0  0  0  0  0  0  0  0
   41.8000   32.9450   37.0300 H   0  0  0  0  0  0  0  0  0  0  0  0
   39.7400   32.3060   36.8330 N   0  0  0  0  0  0  0  0  0  0  0  0
   39.4240   32.6440   35.8980 H   0  0  0  0  0  0  0  0  0  0  0  0
   38.9200   31.6260   37.6340 N   0  0  0  0  0  0  0  0  0  0  0  0
  1  2  1  0  0  0  0
  2  7  1  0  0  0  0
  2  3  2  0  0  0  0
  3  8  1  0  0  0  0
  4  9  1  0  0  0  0
  4  3  1  0  0  0  0
  5  4  2  0  0  0  0
  6  5  1  0  0  0  0
  6  1  2  0  0  0  0
 10 16  1  0  0  0  0
 10 15  1  0  0  0  0
 11 10  2  0  0  0  0
 12 11  1  0  0  0  0
 12 13  2  0  0  0  0
 13 14  1  0  0  0  0
 14 15  2  0  0  0  0
 14  1  1  0  0  0  0
 16 20  1  0  0  0  0
 17 11  1  0  0  0  0
 18 12  1  0  0  0  0
 19 16  1  0  0  0  0
 21  5  1  0  0  0  0
 22 21  2  0  0  0  0
 23 22  1  0  0  0  0
 23 25  1  0  0  0  0
 24 23  1  0  0  0  0
 26 23  1  0  0  0  0
 27 26  1  0  0  0  0
 28 27  2  0  0  0  0
 29 28  1  0  0  0  0
 30 28  1  0  0  0  0
 30 32  1  0  0  0  0
 31 30  1  0  0  0  0
 32 26  2  0  0  0  0
M  END
>  <minimizedAffinity>
-5.45998859

$$$$

 OpenBabel03242520133D

 32 34  0  0  0  0  0  0  0  0999 V2000
   37.9030   26.3480   42.0200 C   0  0  0  0  0  0  0  0  0  0  0  0
   36.8110   26.4070   42.8250 C   0  0  0  0  0  0  0  0  0  0  0  0
   36.6280   27.5320   43.6090 C   0  0  0  0  0  0  0  0  0  0  0  0
   37.5410   28.5740   43.5710 C   0  0  0  0  0  0  0  0  0  0  0  0
   38.6560   28.4690   42.7230 C   0  0  0  0  0  0  0  0  0  0  0  0
   38.7910   27.3860   41.9980 N   0  0  0  0  0  0  0  0  0  0  0  0
   36.1200   25.5740   42.8290 H   0  0  0  0  0  0  0  0  0  0  0  0
   35.7670   27.6100   44.2620 H   0  0  0  0  0  0  0  0  0  0  0  0
   37.4180   29.4630   44.1750 H   0  0  0  0  0  0  0  0  0  0  0  0
   39.1920   24.4140   39.2110 C   0  0  0  0  0  0  0  0  0  0  0  0
   38.7570   23.1100   39.5470 C   0  0  0  0  0  0  0  0  0  0  0  0
   38.0260   22.8860   40.7230 C   0  0  0  0  0  0  0  0  0  0  0  0
   37.7990   23.9920   41.4550 N   0  0  0  0  0  0  0  0  0  0  0  0
   38.2080   25.2080   41.1400 C   0  0  0  0  0  0  0  0  0  0  0  0
   38.8980   25.4160   40.0280 N   0  0  0  0  0  0  0  0  0  0  0  0
   39.9270   24.5720   37.9980 N   0  0  0  0  0  0  0  0  0  0  0  0
   38.9720   22.2740   38.9170 H   0  0  0  0  0  0  0  0  0  0  0  0
   37.6880   21.9120   40.9950 H   0  0  0  0  0  0  0  0  0  0  0  0
   39.8820   23.8380   37.2610 H   0  0  0  0  0  0  0  0  0  0  0  0
   40.5020   25.4610   37.9070 H   0  0  0  0  0  0  0  0  0  0  0  0
   39.6390   29.5390   42.6530 C   0  0  0  0  0  3  0  0  0  0  0  0
   39.6360   30.4620   41.7030 C   0  0  0  0  0  3  0  0  0  0  0  0
   38.6120   30.4830   40.6160 C   0  0  0  0  0  0  0  0  0  0  0  0
   37.7380   29.9120   40.9510 H   0  0  0  0  0  0  0  0  0  0  0  0
   39.0320   30.1230   39.6700 H   0  0  0  0  0  0  0  0  0  0  0  0
   38.2740   31.9380   40.4310 C   0  0  0  0  0  0  0  0  0  0  0  0
   39.0890   32.9650   40.7130 N   0  0  0  0  0  0  0  0  0  0  0  0
   38.4340   34.0910   40.4160 C   0  0  0  0  0  0  0  0  0  0  0  0
   38.8090   35.0870   40.5270 H   0  0  0  0  0  0  0  0  0  0  0  0
   37.2160   33.7360   39.9530 N   0  0  0  0  0  0  0  0  0  0  0  0
   36.4340   34.3400   39.6240 H   0  0  0  0  0  0  0  0  0  0  0  0
   37.1080   32.4070   39.9580 N   0  0  0  0  0  0  0  0  0  0  0  0
  1  2  1  0  0  0  0
  2  7  1  0  0  0  0
  2  3  2  0  0  0  0
  3  8  1  0  0  0  0
  4  3  1  0  0  0  0
  4  9  1  0  0  0  0
  5  4  2  0  0  0  0
  6  1  2  0  0  0  0
  6  5  1  0  0  0  0
 10 11  2  0  0  0  0
 10 15  1  0  0  0  0
 11 12  1  0  0  0  0
 12 18  1  0  0  0  0
 12 13  2  0  0  0  0
 14 13  1  0  0  0  0
 14  1  1  0  0  0  0
 15 14  2  0  0  0  0
 16 10  1  0  0  0  0
 17 11  1  0  0  0  0
 19 16  1  0  0  0  0
 20 16  1  0  0  0  0
 21  5  1  0  0  0  0
 22 21  2  0  0  0  0
 23 24  1  0  0  0  0
 23 22  1  0  0  0  0
 25 23  1  0  0  0  0
 26 23  1  0  0  0  0
 26 27  1  0  0  0  0
 28 29  1  0  0  0  0
 28 27  2  0  0  0  0
 30 32  1  0  0  0  0
 30 28  1  0  0  0  0
 31 30  1  0  0  0  0
 32 26  2  0  0  0  0
M  END
>  <minimizedAffinity>
-5.39174509

$$$$

 OpenBabel03242520133D

 32 34  0  0  0  0  0  0  0  0999 V2000
   36.5380   26.9020   39.7650 C   0  0  0  0  0  0  0  0  0  0  0  0
   36.7960   25.5680   39.7750 C   0  0  0  0  0  0  0  0  0  0  0  0
   37.0890   24.9610   40.9820 C   0  0  0  0  0  0  0  0  0  0  0  0
   37.1190   25.6990   42.1540 C   0  0  0  0  0  0  0  0  0  0  0  0
   36.8460   27.0760   42.0960 C   0  0  0  0  0  0  0  0  0  0  0  0
   36.5730   27.6120   40.9320 N   0  0  0  0  0  0  0  0  0  0  0  0
   36.7640   25.0240   38.8400 H   0  0  0  0  0  0  0  0  0  0  0  0
   37.3000   23.8990   41.0240 H   0  0  0  0  0  0  0  0  0  0  0  0
   37.3470   25.2450   43.1100 H   0  0  0  0  0  0  0  0  0  0  0  0
   36.8200   28.3490   36.4320 C   0  0  0  0  0  0  0  0  0  0  0  0
   35.5990   29.0560   36.3290 C   0  0  0  0  0  0  0  0  0  0  0  0
   34.6790   29.0430   37.3900 C   0  0  0  0  0  0  0  0  0  0  0  0
   35.0720   28.3220   38.4560 N   0  0  0  0  0  0  0  0  0  0  0  0
   36.2130   27.6620   38.5470 C   0  0  0  0  0  0  0  0  0  0  0  0
   37.0780   27.6770   37.5440 N   0  0  0  0  0  0  0  0  0  0  0  0
   37.7110   28.4090   35.3180 N   0  0  0  0  0  0  0  0  0  0  0  0
   35.3500   29.6110   35.4500 H   0  0  0  0  0  0  0  0  0  0  0  0
   33.7540   29.5680   37.3350 H   0  0  0  0  0  0  0  0  0  0  0  0
   37.6090   29.1650   34.6080 H   0  0  0  0  0  0  0  0  0  0  0  0
   38.4570   27.6540   35.2700 H   0  0  0  0  0  0  0  0  0  0  0  0
   36.8680   27.8890   43.3020 C   0  0  0  0  0  3  0  0  0  0  0  0
   37.9210   28.5990   43.6770 C   0  0  0  0  0  3  0  0  0  0  0  0
   39.1860   28.6260   42.8850 C   0  0  0  0  0  0  0  0  0  0  0  0
   39.1110   27.8810   42.0840 H   0  0  0  0  0  0  0  0  0  0  0  0
   40.0610   28.4840   43.5300 H   0  0  0  0  0  0  0  0  0  0  0  0
   39.2630   30.0210   42.3260 C   0  0  0  0  0  0  0  0  0  0  0  0
   38.5110   30.4980   41.3240 N   0  0  0  0  0  0  0  0  0  0  0  0
   38.8720   31.7670   41.1190 C   0  0  0  0  0  0  0  0  0  0  0  0
   38.4600   32.4310   40.3870 H   0  0  0  0  0  0  0  0  0  0  0  0
   39.8500   32.0540   42.0050 N   0  0  0  0  0  0  0  0  0  0  0  0
   40.3740   32.9440   42.1440 H   0  0  0  0  0  0  0  0  0  0  0  0
   40.0990   30.9810   42.7560 N   0  0  0  0  0  0  0  0  0  0  0  0
  1  2  2  0  0  0  0
  1  6  1  0  0  0  0
  2  3  1  0  0  0  0
  3  8  1  0  0  0  0
  3  4  2  0  0  0  0
  4  9  1  0  0  0  0
  5  4  1  0  0  0  0
  5 21  1  0  0  0  0
  6  5  2  0  0  0  0
  7  2  1  0  0  0  0
 10 15  1  0  0  0  0
 11 10  2  0  0  0  0
 11 12  1  0  0  0  0
 12 13  2  0  0  0  0
 13 14  1  0  0  0  0
 14  1  1  0  0  0  0
 15 14  2  0  0  0  0
 16 10  1  0  0  0  0
 17 11  1  0  0  0  0
 18 12  1  0  0  0  0
 19 16  1  0  0  0  0
 20 16  1  0  0  0  0
 21 22  2  0  0  0  0
 23 25  1  0  0  0  0
 23 22  1  0  0  0  0
 24 23  1  0  0  0  0
 26 32  2  0  0  0  0
 26 23  1  0  0  0  0
 27 26  1  0  0  0  0
 28 27  2  0  0  0  0
 28 30  1  0  0  0  0
 29 28  1  0  0  0  0
 30 31  1  0  0  0  0
 30 32  1  0  0  0  0
M  END
>  <minimizedAffinity>
-5.37267494

$$$$

 OpenBabel03242520133D

 32 34  0  0  0  0  0  0  0  0999 V2000
   41.0690   30.6860   42.0260 C   0  0  0  0  0  0  0  0  0  0  0  0
   42.0730   30.9200   42.9100 C   0  0  0  0  0  0  0  0  0  0  0  0
   42.6900   29.8370   43.5100 C   0  0  0  0  0  0  0  0  0  0  0  0
   42.2890   28.5440   43.2140 C   0  0  0  0  0  0  0  0  0  0  0  0
   41.2460   28.3500   42.2940 C   0  0  0  0  0  0  0  0  0  0  0  0
   40.6890   29.4030   41.7480 N   0  0  0  0  0  0  0  0  0  0  0  0
   42.3590   31.9430   43.1160 H   0  0  0  0  0  0  0  0  0  0  0  0
   43.4940   29.9890   44.2200 H   0  0  0  0  0  0  0  0  0  0  0  0
   42.7570   27.6820   43.6720 H   0  0  0  0  0  0  0  0  0  0  0  0
   38.3210   32.6190   40.6090 C   0  0  0  0  0  0  0  0  0  0  0  0
   39.0150   33.7090   40.0330 C   0  0  0  0  0  0  0  0  0  0  0  0
   40.4130   33.7900   40.1230 C   0  0  0  0  0  0  0  0  0  0  0  0
   40.9870   32.7670   40.7840 N   0  0  0  0  0  0  0  0  0  0  0  0
   40.3360   31.7510   41.3210 C   0  0  0  0  0  0  0  0  0  0  0  0
   39.0160   31.6790   41.2350 N   0  0  0  0  0  0  0  0  0  0  0  0
   36.9000   32.5970   40.4770 N   0  0  0  0  0  0  0  0  0  0  0  0
   38.4950   34.4890   39.5200 H   0  0  0  0  0  0  0  0  0  0  0  0
   40.9560   34.6010   39.6960 H   0  0  0  0  0  0  0  0  0  0  0  0
   36.4350   33.1780   39.7470 H   0  0  0  0  0  0  0  0  0  0  0  0
   36.3730   31.9700   41.1530 H   0  0  0  0  0  0  0  0  0  0  0  0
   40.7940   27.0100   41.9550 C   0  0  0  0  0  3  0  0  0  0  0  0
   39.7880   26.4090   42.5720 C   0  0  0  0  0  3  0  0  0  0  0  0
   39.0260   27.0630   43.6770 C   0  0  0  0  0  0  0  0  0  0  0  0
   39.7260   27.6550   44.2790 H   0  0  0  0  0  0  0  0  0  0  0  0
   38.4650   26.3260   44.2620 H   0  0  0  0  0  0  0  0  0  0  0  0
   38.0210   27.9440   42.9850 C   0  0  0  0  0  0  0  0  0  0  0  0
   37.3470   27.6250   41.8720 N   0  0  0  0  0  0  0  0  0  0  0  0
   36.5560   28.6590   41.5690 C   0  0  0  0  0  0  0  0  0  0  0  0
   35.8880   28.7210   40.7360 H   0  0  0  0  0  0  0  0  0  0  0  0
   36.7590   29.6060   42.5110 N   0  0  0  0  0  0  0  0  0  0  0  0
   36.3200   30.5460   42.6060 H   0  0  0  0  0  0  0  0  0  0  0  0
   37.6630   29.1740   43.3910 N   0  0  0  0  0  0  0  0  0  0  0  0
  1  2  1  0  0  0  0
  2  7  1  0  0  0  0
  2  3  2  0  0  0  0
  3  8  1  0  0  0  0
  4  3  1  0  0  0  0
  4  9  1  0  0  0  0
  5  4  2  0  0  0  0
  6  1  2  0  0  0  0
  6  5  1  0  0  0  0
 10 15  1  0  0  0  0
 11 12  1  0  0  0  0
 11 10  2  0  0  0  0
 12 13  2  0  0  0  0
 13 14  1  0  0  0  0
 14  1  1  0  0  0  0
 15 14  2  0  0  0  0
 16 10  1  0  0  0  0
 16 20  1  0  0  0  0
 17 11  1  0  0  0  0
 18 12  1  0  0  0  0
 19 16  1  0  0  0  0
 21  5  1  0  0  0  0
 21 22  2  0  0  0  0
 22 23  1  0  0  0  0
 23 25  1  0  0  0  0
 23 24  1  0  0  0  0
 26 32  2  0  0  0  0
 26 23  1  0  0  0  0
 27 26  1  0  0  0  0
 28 27  2  0  0  0  0
 28 30  1  0  0  0  0
 29 28  1  0  0  0  0
 30 31  1  0  0  0  0
 30 32  1  0  0  0  0
M  END
>  <minimizedAffinity>
-5.36993361

$$$$

 OpenBabel03242520133D

 32 34  0  0  0  0  0  0  0  0999 V2000
   38.4240   31.4780   38.6190 C   0  0  0  0  0  0  0  0  0  0  0  0
   37.9530   31.1610   37.3850 C   0  0  0  0  0  0  0  0  0  0  0  0
   36.8220   30.3710   37.2930 C   0  0  0  0  0  0  0  0  0  0  0  0
   36.1850   29.9150   38.4360 C   0  0  0  0  0  0  0  0  0  0  0  0
   36.7080   30.2680   39.6910 C   0  0  0  0  0  0  0  0  0  0  0  0
   37.7820   31.0180   39.7340 N   0  0  0  0  0  0  0  0  0  0  0  0
   38.4760   31.5350   36.5150 H   0  0  0  0  0  0  0  0  0  0  0  0
   36.4200   30.1000   36.3240 H   0  0  0  0  0  0  0  0  0  0  0  0
   35.2990   29.2960   38.3880 H   0  0  0  0  0  0  0  0  0  0  0  0
   41.4440   33.4180   37.9820 C   0  0  0  0  0  0  0  0  0  0  0  0
   41.7910   33.8320   39.2900 C   0  0  0  0  0  0  0  0  0  0  0  0
   41.0040   33.4530   40.3880 C   0  0  0  0  0  0  0  0  0  0  0  0
   39.9390   32.6940   40.0710 N   0  0  0  0  0  0  0  0  0  0  0  0
   39.6170   32.3100   38.8490 C   0  0  0  0  0  0  0  0  0  0  0  0
   40.3630   32.6690   37.8150 N   0  0  0  0  0  0  0  0  0  0  0  0
   42.2920   33.8350   36.9120 N   0  0  0  0  0  0  0  0  0  0  0  0
   42.6540   34.4370   39.4700 H   0  0  0  0  0  0  0  0  0  0  0  0
   41.2460   33.7530   41.3810 H   0  0  0  0  0  0  0  0  0  0  0  0
   43.2610   34.1600   37.1100 H   0  0  0  0  0  0  0  0  0  0  0  0
   41.8740   33.7910   35.9360 H   0  0  0  0  0  0  0  0  0  0  0  0
   36.0720   29.8110   40.9170 C   0  0  0  0  0  3  0  0  0  0  0  0
   36.2830   28.6110   41.4370 C   0  0  0  0  0  3  0  0  0  0  0  0
   37.2020   27.6190   40.8040 C   0  0  0  0  0  0  0  0  0  0  0  0
   37.6050   28.0570   39.8830 H   0  0  0  0  0  0  0  0  0  0  0  0
   36.6990   26.6580   40.6450 H   0  0  0  0  0  0  0  0  0  0  0  0
   38.2880   27.3930   41.8210 C   0  0  0  0  0  0  0  0  0  0  0  0
   39.5980   27.3070   41.5510 N   0  0  0  0  0  0  0  0  0  0  0  0
   40.2350   27.1050   42.7070 C   0  0  0  0  0  0  0  0  0  0  0  0
   41.2920   26.9930   42.8350 H   0  0  0  0  0  0  0  0  0  0  0  0
   39.2990   27.0700   43.6790 N   0  0  0  0  0  0  0  0  0  0  0  0
   39.4180   26.9320   44.7050 H   0  0  0  0  0  0  0  0  0  0  0  0
   38.0920   27.2470   43.1420 N   0  0  0  0  0  0  0  0  0  0  0  0
  1 14  1  0  0  0  0
  1  6  1  0  0  0  0
  2  1  2  0  0  0  0
  3  2  1  0  0  0  0
  3  4  2  0  0  0  0
  4  5  1  0  0  0  0
  5  6  2  0  0  0  0
  5 21  1  0  0  0  0
  7  2  1  0  0  0  0
  8  3  1  0  0  0  0
  9  4  1  0  0  0  0
 10 11  1  0  0  0  0
 11 17  1  0  0  0  0
 11 12  2  0  0  0  0
 12 18  1  0  0  0  0
 13 12  1  0  0  0  0
 14 13  2  0  0  0  0
 15 10  2  0  0  0  0
 15 14  1  0  0  0  0
 16 19  1  0  0  0  0
 16 10  1  0  0  0  0
 20 16  1  0  0  0  0
 21 22  2  0  0  0  0
 23 22  1  0  0  0  0
 23 26  1  0  0  0  0
 24 23  1  0  0  0  0
 25 23  1  0  0  0  0
 26 32  2  0  0  0  0
 27 26  1  0  0  0  0
 27 28  2  0  0  0  0
 28 29  1  0  0  0  0
 28 30  1  0  0  0  0
 30 31  1  0  0  0  0
 32 30  1  0  0  0  0
M  END
>  <minimizedAffinity>
-5.29020548

$$$$
