
 OpenBabel03252508083D

 42 45  0  0  0  0  0  0  0  0999 V2000
   45.3260   35.8910   42.7440 C   0  0  0  0  0  0  0  0  0  0  0  0
   45.5500   34.5250   42.7960 C   0  0  0  0  0  0  0  0  0  0  0  0
   45.3010   33.8280   43.9540 C   0  0  0  0  0  0  0  0  0  0  0  0
   44.8260   34.5550   45.0270 N   0  0  0  0  0  0  0  0  0  0  0  0
   44.6120   35.8690   44.9720 C   0  0  0  0  0  0  0  0  0  0  0  0
   44.8680   36.5240   43.8200 N   0  0  0  0  0  0  0  0  0  0  0  0
   45.5110   36.4830   41.8460 H   0  0  0  0  0  0  0  0  0  0  0  0
   44.2430   36.4180   45.8140 H   0  0  0  0  0  0  0  0  0  0  0  0
   45.4760   32.4430   44.1680 C   0  0  0  0  0  0  0  0  0  0  0  0
   45.0050   31.4510   43.3030 C   0  0  0  0  0  0  0  0  0  0  0  0
   45.1180   30.1040   43.5400 C   0  0  0  0  0  0  0  0  0  0  0  0
   45.7290   29.6630   44.6940 C   0  0  0  0  0  0  0  0  0  0  0  0
   46.2180   30.6610   45.5890 C   0  0  0  0  0  0  0  0  0  0  0  0
   46.8250   30.2310   46.7390 C   0  0  0  0  0  0  0  0  0  0  0  0
   47.3230   31.1420   47.6480 C   0  0  0  0  0  0  0  0  0  0  0  0
   47.2020   32.5140   47.3820 C   0  0  0  0  0  0  0  0  0  0  0  0
   46.5700   32.9040   46.1880 C   0  0  0  0  0  0  0  0  0  0  0  0
   46.0820   31.9780   45.3060 C   0  0  0  0  0  0  0  0  0  0  0  0
   44.5220   31.7680   42.3890 H   0  0  0  0  0  0  0  0  0  0  0  0
   44.7410   29.3690   42.8460 H   0  0  0  0  0  0  0  0  0  0  0  0
   45.8460   28.6180   44.9380 H   0  0  0  0  0  0  0  0  0  0  0  0
   46.9240   29.1780   46.9520 H   0  0  0  0  0  0  0  0  0  0  0  0
   47.7930   30.7510   48.5430 H   0  0  0  0  0  0  0  0  0  0  0  0
   47.6190   33.1350   48.1450 H   0  0  0  0  0  0  0  0  0  0  0  0
   46.5970   33.9720   46.1600 H   0  0  0  0  0  0  0  0  0  0  0  0
   46.0180   33.9250   41.6590 O   0  0  0  0  0  0  0  0  0  0  0  0
   48.0280   32.3630   41.0450 O   0  0  0  0  0  0  0  0  0  0  0  0
   47.6530   33.7880   41.2460 P   0  0  1  0  0  0  0  0  0  0  0  0
   47.9790   34.5930   39.7920 O   0  0  0  0  0  0  0  0  0  0  0  0
   47.7150   33.9220   38.6040 C   0  0  0  0  0  0  0  0  0  0  0  0
   48.5980   33.8440   37.5750 N   0  0  0  0  0  0  0  0  0  0  0  0
   48.0570   33.1330   36.5670 C   0  0  0  0  0  0  0  0  0  0  0  0
   48.5030   32.8900   35.6070 H   0  0  0  0  0  0  0  0  0  0  0  0
   46.8250   32.7610   36.9640 N   0  0  0  0  0  0  0  0  0  0  0  0
   46.1130   32.1870   36.4200 H   0  0  0  0  0  0  0  0  0  0  0  0
   46.6390   33.2400   38.1800 N   0  0  0  0  0  0  0  0  0  0  0  0
   48.5660   34.4920   42.4670 O   0  0  0  0  0  0  0  0  0  0  0  0
   49.7490   35.1950   42.3170 C   0  0  0  0  0  0  0  0  0  0  0  0
   49.4040   36.3100   41.8850 O   0  0  0  0  0  0  0  0  0  0  0  0
   50.8800   34.3890   42.7070 N   0  0  0  0  0  0  0  0  0  0  0  0
   50.9430   34.1120   43.7230 H   0  0  0  0  0  0  0  0  0  0  0  0
   51.6670   34.0280   42.1230 H   0  0  0  0  0  0  0  0  0  0  0  0
  1  2  2  0  0  0  0
  1  6  1  0  0  0  0
  2  3  1  0  0  0  0
  3  9  1  0  0  0  0
  3  4  2  0  0  0  0
  5  4  1  0  0  0  0
  5  8  1  0  0  0  0
  6  5  2  0  0  0  0
  7  1  1  0  0  0  0
  9 18  1  0  0  0  0
 10 11  1  0  0  0  0
 10  9  2  0  0  0  0
 11 12  2  0  0  0  0
 12 21  1  0  0  0  0
 12 13  1  0  0  0  0
 13 14  1  0  0  0  0
 14 22  1  0  0  0  0
 14 15  2  0  0  0  0
 15 23  1  0  0  0  0
 16 15  1  0  0  0  0
 16 24  1  0  0  0  0
 17 16  2  0  0  0  0
 18 13  2  0  0  0  0
 18 17  1  0  0  0  0
 19 10  1  0  0  0  0
 20 11  1  0  0  0  0
 25 17  1  0  0  0  0
 26  2  1  0  0  0  0
 28 27  2  6  0  0  0
 28 26  1  0  0  0  0
 28 37  1  0  0  0  0
 29 28  1  0  0  0  0
 30 29  1  0  0  0  0
 31 30  1  0  0  0  0
 32 34  1  0  0  0  0
 32 31  2  0  0  0  0
 33 32  1  0  0  0  0
 34 36  1  0  0  0  0
 35 34  1  0  0  0  0
 36 30  2  0  0  0  0
 38 37  1  0  0  0  0
 38 40  1  0  0  0  0
 39 38  2  0  0  0  0
 40 41  1  0  0  0  0
 42 40  1  0  0  0  0
M  END
>  <minimizedAffinity>
-6.02987242

>  <minimizedRMSD>
0.799910605

$$$$
