
 OpenBabel03252509043D

 46 48  0  0  1  0  0  0  0  0999 V2000
   46.7220   34.4630   43.6190 N   0  0  0  0  0  0  0  0  0  0  0  0
   46.2800   35.5260   42.7940 C   0  0  0  0  0  0  0  0  0  0  0  0
   44.7890   35.7430   42.7890 C   0  0  0  0  0  0  0  0  0  0  0  0
   44.1030   35.4350   44.1000 C   0  0  0  0  0  0  0  0  0  0  0  0
   45.1060   35.0570   45.1670 C   0  0  0  0  0  0  0  0  0  0  0  0
   45.8750   33.8490   44.5210 C   0  0  2  0  0  0  0  0  0  0  0  0
   46.7050   36.4750   43.2290 H   0  0  0  0  0  0  0  0  0  0  0  0
   46.6130   35.5110   41.7550 H   0  0  0  0  0  0  0  0  0  0  0  0
   44.5680   36.7760   42.4390 H   0  0  0  0  0  0  0  0  0  0  0  0
   44.3790   35.0630   42.0020 H   0  0  0  0  0  0  0  0  0  0  0  0
   43.5620   36.3680   44.4250 H   0  0  0  0  0  0  0  0  0  0  0  0
   43.3580   34.6460   44.0080 H   0  0  0  0  0  0  0  0  0  0  0  0
   45.8370   35.8450   45.3670 H   0  0  0  0  0  0  0  0  0  0  0  0
   44.5530   34.6800   46.0460 H   0  0  0  0  0  0  0  0  0  0  0  0
   45.0740   33.1870   44.1340 H   0  0  0  0  0  0  0  0  0  0  0  0
   47.8020   33.6930   43.0570 C   0  0  0  0  0  0  0  0  0  0  0  0
   48.5470   34.3580   42.5860 H   0  0  0  0  0  0  0  0  0  0  0  0
   48.3090   33.2080   43.9390 H   0  0  0  0  0  0  0  0  0  0  0  0
   47.2460   32.6460   42.1680 C   0  0  0  0  0  0  0  0  0  0  0  0
   47.4450   31.6330   42.5440 H   0  0  0  0  0  0  0  0  0  0  0  0
   46.1230   32.7040   42.0870 H   0  0  0  0  0  0  0  0  0  0  0  0
   49.3260   32.1260   39.0840 C   0  0  0  0  0  0  0  0  0  0  0  0
   48.8000   31.9850   40.3810 C   0  0  0  0  0  0  0  0  0  0  0  0
   47.7900   32.8040   40.7970 C   0  0  0  0  0  0  0  0  0  0  0  0
   47.3400   33.7210   39.9300 N   0  0  0  0  0  0  0  0  0  0  0  0
   47.8390   33.8570   38.6900 C   0  0  0  0  0  0  0  0  0  0  0  0
   48.8310   33.0680   38.2520 N   0  0  0  0  0  0  0  0  0  0  0  0
   50.1330   31.4100   38.8640 H   0  0  0  0  0  0  0  0  0  0  0  0
   49.1800   31.2350   41.0690 H   0  0  0  0  0  0  0  0  0  0  0  0
   47.4800   34.6020   37.9730 H   0  0  0  0  0  0  0  0  0  0  0  0
   46.5490   33.3400   45.6190 O   0  0  0  0  0  0  0  0  0  0  0  0
   45.5300   31.0640   44.7120 O   0  0  0  0  0  0  0  0  0  0  0  0
   46.1640   31.7250   45.9310 P   0  0  2  0  0  0  0  0  0  0  0  0
   44.9660   31.7380   47.1380 O   0  0  0  0  0  0  0  0  0  0  0  0
   44.1070   32.0730   46.8040 H   0  0  0  0  0  0  0  0  0  0  0  0
   47.4750   30.8570   46.4960 O   0  0  0  0  0  0  0  0  0  0  0  0
   47.4670   29.5880   45.9580 C   0  0  0  0  0  0  0  0  0  0  0  0
   48.4780   29.3310   45.6310 H   0  0  0  0  0  0  0  0  0  0  0  0
   46.8660   29.6610   45.0040 H   0  0  0  0  0  0  0  0  0  0  0  0
   46.8500   28.5580   46.8200 C   0  0  0  0  0  0  0  0  0  0  0  0
   45.5160   28.5610   47.0420 N   0  0  0  0  0  0  0  0  0  0  0  0
   45.1810   27.5330   47.8560 C   0  0  0  0  0  0  0  0  0  0  0  0
   44.1430   27.3530   48.1630 H   0  0  0  0  0  0  0  0  0  0  0  0
   46.3390   26.8850   48.1390 N   0  0  0  0  0  0  0  0  0  0  0  0
   46.3740   26.0430   48.7540 H   0  0  0  0  0  0  0  0  0  0  0  0
   47.3100   27.5080   47.5160 N   0  0  0  0  0  0  0  0  0  0  0  0
  1  6  1  0  0  0  0
  2  7  1  0  0  0  0
  2  1  1  0  0  0  0
  3  2  1  0  0  0  0
  3  4  1  0  0  0  0
  4 11  1  0  0  0  0
  4  5  1  0  0  0  0
  5 13  1  0  0  0  0
  5 14  1  0  0  0  0
  6 15  1  6  0  0  0
  6  5  1  0  0  0  0
  6 31  1  0  0  0  0
  8  2  1  0  0  0  0
  9  3  1  0  0  0  0
 10  3  1  0  0  0  0
 12  4  1  0  0  0  0
 16  1  1  0  0  0  0
 16 18  1  0  0  0  0
 17 16  1  0  0  0  0
 19 20  1  0  0  0  0
 19 16  1  0  0  0  0
 21 19  1  0  0  0  0
 22 23  1  0  0  0  0
 23 24  2  0  0  0  0
 23 29  1  0  0  0  0
 24 19  1  0  0  0  0
 25 24  1  0  0  0  0
 26 25  2  0  0  0  0
 27 26  1  0  0  0  0
 27 22  2  0  0  0  0
 28 22  1  0  0  0  0
 30 26  1  0  0  0  0
 31 33  1  0  0  0  0
 33 32  2  6  0  0  0
 33 36  1  0  0  0  0
 33 34  1  0  0  0  0
 35 34  1  0  0  0  0
 37 36  1  0  0  0  0
 37 40  1  0  0  0  0
 38 37  1  0  0  0  0
 39 37  1  0  0  0  0
 40 41  1  0  0  0  0
 40 46  2  0  0  0  0
 41 42  2  0  0  0  0
 42 44  1  0  0  0  0
 42 43  1  0  0  0  0
 44 45  1  0  0  0  0
 46 44  1  0  0  0  0
M  END
>  <minimizedAffinity>
-4.29495907

>  <minimizedRMSD>
1.28292489

$$$$
