
 OpenBabel03252506583D

 36 40  0  0  0  0  0  0  0  0999 V2000
   36.9390   25.7940   40.6380 C   0  0  0  0  0  0  0  0  0  0  0  0
   37.3780   24.5180   40.9150 C   0  0  0  0  0  0  0  0  0  0  0  0
   38.3260   24.2480   41.8750 C   0  0  0  0  0  0  0  0  0  0  0  0
   38.8930   25.2860   42.6220 C   0  0  0  0  0  0  0  0  0  0  0  0
   39.8180   25.3890   43.6110 N   0  0  0  0  0  0  0  0  0  0  0  0
   39.9460   26.7040   43.9360 C   0  0  0  0  0  0  0  0  0  0  0  0
   39.0960   27.3880   43.1380 N   0  0  0  0  0  0  0  0  0  0  0  0
   38.4360   26.5500   42.3240 C   0  0  0  0  0  0  0  0  0  0  0  0
   37.5030   26.8450   41.3840 C   0  0  0  0  0  0  0  0  0  0  0  0
   36.1940   26.0040   39.8840 H   0  0  0  0  0  0  0  0  0  0  0  0
   38.6970   23.2520   42.1220 H   0  0  0  0  0  0  0  0  0  0  0  0
   40.2920   24.5210   43.9840 H   0  0  0  0  0  0  0  0  0  0  0  0
   40.6220   27.0550   44.6980 H   0  0  0  0  0  0  0  0  0  0  0  0
   37.0670   21.2610   39.2290 C   0  0  0  0  0  0  0  0  0  0  0  0
   35.7520   21.2860   38.7630 C   0  0  0  0  0  0  0  0  0  0  0  0
   34.9740   22.4260   39.0300 C   0  0  0  0  0  0  0  0  0  0  0  0
   35.5400   23.4580   39.7330 N   0  0  0  0  0  0  0  0  0  0  0  0
   36.8240   23.3920   40.1700 C   0  0  0  0  0  0  0  0  0  0  0  0
   37.5660   22.3090   39.9180 N   0  0  0  0  0  0  0  0  0  0  0  0
   37.6440   20.3700   39.0100 H   0  0  0  0  0  0  0  0  0  0  0  0
   35.2610   20.4990   38.2050 H   0  0  0  0  0  0  0  0  0  0  0  0
   33.9670   22.5500   38.7230 H   0  0  0  0  0  0  0  0  0  0  0  0
   37.0810   28.2330   41.1400 C   0  0  0  0  0  0  0  0  0  0  0  0
   35.7680   28.6390   40.9870 C   0  0  0  0  0  0  0  0  0  0  0  0
   35.8650   30.0200   40.7800 C   0  0  0  0  0  0  0  0  0  0  0  0
   37.2150   30.3720   40.8200 C   0  0  0  0  0  0  0  0  0  0  0  0
   37.9050   29.2550   41.0400 O   0  0  0  0  0  0  0  0  0  0  0  0
   34.8830   28.0380   41.0180 H   0  0  0  0  0  0  0  0  0  0  0  0
   35.0490   30.7100   40.6170 H   0  0  0  0  0  0  0  0  0  0  0  0
   37.7010   31.7340   40.6430 C   0  0  0  0  0  0  0  0  0  0  0  0
   38.8030   32.4570   40.9330 N   0  0  0  0  0  0  0  0  0  0  0  0
   38.6320   33.7170   40.4890 C   0  0  0  0  0  0  0  0  0  0  0  0
   39.3230   34.5350   40.5630 H   0  0  0  0  0  0  0  0  0  0  0  0
   37.4040   33.7830   39.9130 N   0  0  0  0  0  0  0  0  0  0  0  0
   36.9640   34.6370   39.4650 H   0  0  0  0  0  0  0  0  0  0  0  0
   36.8620   32.5830   40.0170 N   0  0  0  0  0  0  0  0  0  0  0  0
  1  2  2  0  0  0  0
  1  9  1  0  0  0  0
  2  3  1  0  0  0  0
  3 11  1  0  0  0  0
  3  4  2  0  0  0  0
  4  5  1  0  0  0  0
  5  6  1  0  0  0  0
  5 12  1  0  0  0  0
  6 13  1  0  0  0  0
  7  6  2  0  0  0  0
  8  4  1  0  0  0  0
  8  7  1  0  0  0  0
  9  8  2  0  0  0  0
 10  1  1  0  0  0  0
 14 19  1  0  0  0  0
 15 16  1  0  0  0  0
 15 14  2  0  0  0  0
 16 17  2  0  0  0  0
 17 18  1  0  0  0  0
 18  2  1  0  0  0  0
 19 18  2  0  0  0  0
 20 14  1  0  0  0  0
 21 15  1  0  0  0  0
 22 16  1  0  0  0  0
 23  9  1  0  0  0  0
 24 28  1  0  0  0  0
 24 23  2  0  0  0  0
 25 26  2  0  0  0  0
 25 24  1  0  0  0  0
 26 27  1  0  0  0  0
 27 23  1  0  0  0  0
 29 25  1  0  0  0  0
 30 26  1  0  0  0  0
 30 31  1  0  0  0  0
 32 33  1  0  0  0  0
 32 31  2  0  0  0  0
 34 36  1  0  0  0  0
 34 32  1  0  0  0  0
 35 34  1  0  0  0  0
 36 30  2  0  0  0  0
M  END
>  <minimizedAffinity>
-6.39890862

$$$$

 OpenBabel03252506583D

 36 40  0  0  0  0  0  0  0  0999 V2000
   36.5490   30.5600   38.5820 C   0  0  0  0  0  0  0  0  0  0  0  0
   35.6700   29.5020   38.6730 C   0  0  0  0  0  0  0  0  0  0  0  0
   35.5580   28.7220   39.8020 C   0  0  0  0  0  0  0  0  0  0  0  0
   36.3520   28.9810   40.9240 C   0  0  0  0  0  0  0  0  0  0  0  0
   36.5060   28.4430   42.1600 N   0  0  0  0  0  0  0  0  0  0  0  0
   37.4610   29.1560   42.8170 C   0  0  0  0  0  0  0  0  0  0  0  0
   37.8790   30.1220   41.9700 N   0  0  0  0  0  0  0  0  0  0  0  0
   37.2200   30.0440   40.8040 C   0  0  0  0  0  0  0  0  0  0  0  0
   37.3510   30.8280   39.7050 C   0  0  0  0  0  0  0  0  0  0  0  0
   36.6350   31.1710   37.6950 H   0  0  0  0  0  0  0  0  0  0  0  0
   34.8750   27.8790   39.9110 H   0  0  0  0  0  0  0  0  0  0  0  0
   35.9230   27.6090   42.4510 H   0  0  0  0  0  0  0  0  0  0  0  0
   37.7720   28.9280   43.8240 H   0  0  0  0  0  0  0  0  0  0  0  0
   32.7170   28.5950   36.6730 C   0  0  0  0  0  0  0  0  0  0  0  0
   33.2250   28.5800   35.3740 C   0  0  0  0  0  0  0  0  0  0  0  0
   34.5850   28.8820   35.1890 C   0  0  0  0  0  0  0  0  0  0  0  0
   35.3490   29.1770   36.2890 N   0  0  0  0  0  0  0  0  0  0  0  0
   34.8130   29.1810   37.5360 C   0  0  0  0  0  0  0  0  0  0  0  0
   33.5200   28.8940   37.7160 N   0  0  0  0  0  0  0  0  0  0  0  0
   31.6650   28.3580   36.7870 H   0  0  0  0  0  0  0  0  0  0  0  0
   32.6650   28.3540   34.4760 H   0  0  0  0  0  0  0  0  0  0  0  0
   35.0730   28.8990   34.2470 H   0  0  0  0  0  0  0  0  0  0  0  0
   38.3120   31.9430   39.6760 C   0  0  0  0  0  0  0  0  0  0  0  0
   38.1600   33.1280   40.3720 C   0  0  0  0  0  0  0  0  0  0  0  0
   39.3020   33.8640   40.0380 C   0  0  0  0  0  0  0  0  0  0  0  0
   40.0770   33.0930   39.1690 C   0  0  0  0  0  0  0  0  0  0  0  0
   39.4310   31.9430   38.9850 O   0  0  0  0  0  0  0  0  0  0  0  0
   37.3550   33.4180   41.0160 H   0  0  0  0  0  0  0  0  0  0  0  0
   39.5590   34.8560   40.3820 H   0  0  0  0  0  0  0  0  0  0  0  0
   41.3470   33.5360   38.6090 C   0  0  0  0  0  0  0  0  0  0  0  0
   42.5080   34.0710   39.0410 N   0  0  0  0  0  0  0  0  0  0  0  0
   43.3240   34.2600   37.9860 C   0  0  0  0  0  0  0  0  0  0  0  0
   44.3170   34.6670   37.9950 H   0  0  0  0  0  0  0  0  0  0  0  0
   42.6640   33.8360   36.8780 N   0  0  0  0  0  0  0  0  0  0  0  0
   43.0300   33.8490   35.8840 H   0  0  0  0  0  0  0  0  0  0  0  0
   41.4790   33.4060   37.2740 N   0  0  0  0  0  0  0  0  0  0  0  0
  1  2  2  0  0  0  0
  1  9  1  0  0  0  0
  2  3  1  0  0  0  0
  3 11  1  0  0  0  0
  3  4  2  0  0  0  0
  4  5  1  0  0  0  0
  5 12  1  0  0  0  0
  5  6  1  0  0  0  0
  6 13  1  0  0  0  0
  7  6  2  0  0  0  0
  8  4  1  0  0  0  0
  8  7  1  0  0  0  0
  9  8  2  0  0  0  0
 10  1  1  0  0  0  0
 14 20  1  0  0  0  0
 14 19  1  0  0  0  0
 15 14  2  0  0  0  0
 16 15  1  0  0  0  0
 16 17  2  0  0  0  0
 17 18  1  0  0  0  0
 18 19  2  0  0  0  0
 18  2  1  0  0  0  0
 21 15  1  0  0  0  0
 22 16  1  0  0  0  0
 23  9  1  0  0  0  0
 23 24  2  0  0  0  0
 24 28  1  0  0  0  0
 25 24  1  0  0  0  0
 25 29  1  0  0  0  0
 26 25  2  0  0  0  0
 27 26  1  0  0  0  0
 27 23  1  0  0  0  0
 30 31  1  0  0  0  0
 30 26  1  0  0  0  0
 32 33  1  0  0  0  0
 32 31  2  0  0  0  0
 34 36  1  0  0  0  0
 34 32  1  0  0  0  0
 35 34  1  0  0  0  0
 36 30  2  0  0  0  0
M  END
>  <minimizedAffinity>
-6.34109688

$$$$

 OpenBabel03252506583D

 36 40  0  0  0  0  0  0  0  0999 V2000
   37.0380   26.4720   40.4060 C   0  0  0  0  0  0  0  0  0  0  0  0
   36.8150   25.1330   40.1720 C   0  0  0  0  0  0  0  0  0  0  0  0
   37.4650   24.1360   40.8640 C   0  0  0  0  0  0  0  0  0  0  0  0
   38.4000   24.4560   41.8550 C   0  0  0  0  0  0  0  0  0  0  0  0
   39.2000   23.7650   42.7050 N   0  0  0  0  0  0  0  0  0  0  0  0
   39.9030   24.6620   43.4490 C   0  0  0  0  0  0  0  0  0  0  0  0
   39.5210   25.8920   43.0400 N   0  0  0  0  0  0  0  0  0  0  0  0
   38.6020   25.8020   42.0670 C   0  0  0  0  0  0  0  0  0  0  0  0
   37.9760   26.8040   41.4000 C   0  0  0  0  0  0  0  0  0  0  0  0
   36.5260   27.2530   39.8620 H   0  0  0  0  0  0  0  0  0  0  0  0
   37.3140   23.0680   40.7060 H   0  0  0  0  0  0  0  0  0  0  0  0
   39.1920   22.7080   42.6980 H   0  0  0  0  0  0  0  0  0  0  0  0
   40.6140   24.3660   44.2030 H   0  0  0  0  0  0  0  0  0  0  0  0
   34.4380   23.1220   38.2090 C   0  0  0  0  0  0  0  0  0  0  0  0
   34.0370   24.0140   37.2140 C   0  0  0  0  0  0  0  0  0  0  0  0
   34.5870   25.3080   37.2200 C   0  0  0  0  0  0  0  0  0  0  0  0
   35.4890   25.6340   38.2000 N   0  0  0  0  0  0  0  0  0  0  0  0
   35.8510   24.7340   39.1510 C   0  0  0  0  0  0  0  0  0  0  0  0
   35.3300   23.5030   39.1470 N   0  0  0  0  0  0  0  0  0  0  0  0
   33.9980   22.1310   38.1800 H   0  0  0  0  0  0  0  0  0  0  0  0
   33.3310   23.8050   36.4210 H   0  0  0  0  0  0  0  0  0  0  0  0
   34.3520   26.0630   36.5130 H   0  0  0  0  0  0  0  0  0  0  0  0
   38.2640   28.2150   41.7030 C   0  0  0  0  0  0  0  0  0  0  0  0
   38.8820   28.6600   42.8580 C   0  0  0  0  0  0  0  0  0  0  0  0
   38.9360   30.0490   42.6960 C   0  0  0  0  0  0  0  0  0  0  0  0
   38.3560   30.3670   41.4670 C   0  0  0  0  0  0  0  0  0  0  0  0
   37.9680   29.2210   40.9090 O   0  0  0  0  0  0  0  0  0  0  0  0
   39.2350   28.0780   43.6840 H   0  0  0  0  0  0  0  0  0  0  0  0
   39.3510   30.7670   43.3900 H   0  0  0  0  0  0  0  0  0  0  0  0
   38.2350   31.7260   40.9570 C   0  0  0  0  0  0  0  0  0  0  0  0
   39.0090   32.8230   40.8170 N   0  0  0  0  0  0  0  0  0  0  0  0
   38.2810   33.8050   40.2500 C   0  0  0  0  0  0  0  0  0  0  0  0
   38.6040   34.7980   40.0050 H   0  0  0  0  0  0  0  0  0  0  0  0
   37.0340   33.3140   40.0310 N   0  0  0  0  0  0  0  0  0  0  0  0
   36.2190   33.8350   39.5980 H   0  0  0  0  0  0  0  0  0  0  0  0
   37.0280   32.0650   40.4630 N   0  0  0  0  0  0  0  0  0  0  0  0
  1  9  1  0  0  0  0
  2  1  2  0  0  0  0
  2  3  1  0  0  0  0
  3  4  2  0  0  0  0
  4  8  1  0  0  0  0
  4  5  1  0  0  0  0
  5  6  1  0  0  0  0
  6 13  1  0  0  0  0
  7  6  2  0  0  0  0
  8  7  1  0  0  0  0
  9 23  1  0  0  0  0
  9  8  2  0  0  0  0
 10  1  1  0  0  0  0
 11  3  1  0  0  0  0
 12  5  1  0  0  0  0
 14 19  1  0  0  0  0
 15 16  1  0  0  0  0
 15 14  2  0  0  0  0
 16 17  2  0  0  0  0
 17 18  1  0  0  0  0
 18  2  1  0  0  0  0
 19 18  2  0  0  0  0
 20 14  1  0  0  0  0
 21 15  1  0  0  0  0
 22 16  1  0  0  0  0
 23 24  2  0  0  0  0
 24 28  1  0  0  0  0
 25 24  1  0  0  0  0
 25 29  1  0  0  0  0
 26 25  2  0  0  0  0
 27 26  1  0  0  0  0
 27 23  1  0  0  0  0
 30 26  1  0  0  0  0
 31 30  1  0  0  0  0
 32 31  2  0  0  0  0
 33 32  1  0  0  0  0
 34 32  1  0  0  0  0
 34 36  1  0  0  0  0
 35 34  1  0  0  0  0
 36 30  2  0  0  0  0
M  END
>  <minimizedAffinity>
-6.26954842

$$$$

 OpenBabel03252506583D

 36 40  0  0  0  0  0  0  0  0999 V2000
   36.4340   30.5470   38.8560 C   0  0  0  0  0  0  0  0  0  0  0  0
   35.6140   29.4400   38.8280 C   0  0  0  0  0  0  0  0  0  0  0  0
   35.5050   28.5670   39.8870 C   0  0  0  0  0  0  0  0  0  0  0  0
   36.2410   28.7780   41.0580 C   0  0  0  0  0  0  0  0  0  0  0  0
   36.3800   28.1520   42.2530 N   0  0  0  0  0  0  0  0  0  0  0  0
   37.2680   28.8600   43.0030 C   0  0  0  0  0  0  0  0  0  0  0  0
   37.6610   29.9120   42.2510 N   0  0  0  0  0  0  0  0  0  0  0  0
   37.0510   29.8920   41.0560 C   0  0  0  0  0  0  0  0  0  0  0  0
   37.1780   30.7680   40.0280 C   0  0  0  0  0  0  0  0  0  0  0  0
   36.5180   31.2310   38.0240 H   0  0  0  0  0  0  0  0  0  0  0  0
   34.8680   27.6820   39.9010 H   0  0  0  0  0  0  0  0  0  0  0  0
   35.8360   27.2670   42.4530 H   0  0  0  0  0  0  0  0  0  0  0  0
   37.5540   28.5690   44.0000 H   0  0  0  0  0  0  0  0  0  0  0  0
   32.7700   28.6350   36.6360 C   0  0  0  0  0  0  0  0  0  0  0  0
   33.3510   28.6510   35.3680 C   0  0  0  0  0  0  0  0  0  0  0  0
   34.7230   28.9400   35.2700 C   0  0  0  0  0  0  0  0  0  0  0  0
   35.4260   29.1910   36.4200 N   0  0  0  0  0  0  0  0  0  0  0  0
   34.8200   29.1650   37.6350 C   0  0  0  0  0  0  0  0  0  0  0  0
   33.5150   28.8920   37.7320 N   0  0  0  0  0  0  0  0  0  0  0  0
   31.7100   28.4100   36.6830 H   0  0  0  0  0  0  0  0  0  0  0  0
   32.8400   28.4600   34.4330 H   0  0  0  0  0  0  0  0  0  0  0  0
   35.2640   28.9780   34.3580 H   0  0  0  0  0  0  0  0  0  0  0  0
   38.0730   31.9320   40.1270 C   0  0  0  0  0  0  0  0  0  0  0  0
   37.6670   33.2480   40.0030 C   0  0  0  0  0  0  0  0  0  0  0  0
   38.8480   33.9810   40.1660 C   0  0  0  0  0  0  0  0  0  0  0  0
   39.8930   33.0810   40.3790 C   0  0  0  0  0  0  0  0  0  0  0  0
   39.3690   31.8570   40.3450 O   0  0  0  0  0  0  0  0  0  0  0  0
   36.6800   33.6200   39.8230 H   0  0  0  0  0  0  0  0  0  0  0  0
   38.9530   35.0560   40.1380 H   0  0  0  0  0  0  0  0  0  0  0  0
   41.2770   33.4840   40.5910 C   0  0  0  0  0  0  0  0  0  0  0  0
   42.1040   34.4840   40.2220 N   0  0  0  0  0  0  0  0  0  0  0  0
   43.3170   34.2770   40.7720 C   0  0  0  0  0  0  0  0  0  0  0  0
   44.1910   34.8910   40.6730 H   0  0  0  0  0  0  0  0  0  0  0  0
   43.2470   33.1310   41.4950 N   0  0  0  0  0  0  0  0  0  0  0  0
   44.0330   32.6880   42.0520 H   0  0  0  0  0  0  0  0  0  0  0  0
   42.0140   32.6700   41.3730 N   0  0  0  0  0  0  0  0  0  0  0  0
  1  9  1  0  0  0  0
  2  1  2  0  0  0  0
  2  3  1  0  0  0  0
  3 11  1  0  0  0  0
  3  4  2  0  0  0  0
  4  5  1  0  0  0  0
  5 12  1  0  0  0  0
  5  6  1  0  0  0  0
  6 13  1  0  0  0  0
  7  6  2  0  0  0  0
  8  4  1  0  0  0  0
  8  7  1  0  0  0  0
  9 23  1  0  0  0  0
  9  8  2  0  0  0  0
 10  1  1  0  0  0  0
 14 20  1  0  0  0  0
 14 19  1  0  0  0  0
 15 14  2  0  0  0  0
 16 15  1  0  0  0  0
 16 17  2  0  0  0  0
 17 18  1  0  0  0  0
 18 19  2  0  0  0  0
 18  2  1  0  0  0  0
 21 15  1  0  0  0  0
 22 16  1  0  0  0  0
 23 27  1  0  0  0  0
 24 23  2  0  0  0  0
 24 25  1  0  0  0  0
 25 26  2  0  0  0  0
 26 30  1  0  0  0  0
 27 26  1  0  0  0  0
 28 24  1  0  0  0  0
 29 25  1  0  0  0  0
 30 36  2  0  0  0  0
 31 30  1  0  0  0  0
 31 32  2  0  0  0  0
 32 34  1  0  0  0  0
 33 32  1  0  0  0  0
 34 35  1  0  0  0  0
 36 34  1  0  0  0  0
M  END
>  <minimizedAffinity>
-6.02925301

$$$$

 OpenBabel03252506583D

 36 40  0  0  0  0  0  0  0  0999 V2000
   36.8160   26.9300   40.2230 C   0  0  0  0  0  0  0  0  0  0  0  0
   37.0160   25.5830   40.4290 C   0  0  0  0  0  0  0  0  0  0  0  0
   37.8290   25.0940   41.4260 C   0  0  0  0  0  0  0  0  0  0  0  0
   38.5000   25.9700   42.2870 C   0  0  0  0  0  0  0  0  0  0  0  0
   39.3480   25.8500   43.3380 N   0  0  0  0  0  0  0  0  0  0  0  0
   39.6660   27.1010   43.7720 C   0  0  0  0  0  0  0  0  0  0  0  0
   39.0050   27.9690   42.9750 N   0  0  0  0  0  0  0  0  0  0  0  0
   38.2820   27.3100   42.0560 C   0  0  0  0  0  0  0  0  0  0  0  0
   37.4860   27.8190   41.0830 C   0  0  0  0  0  0  0  0  0  0  0  0
   36.1770   27.3120   39.4400 H   0  0  0  0  0  0  0  0  0  0  0  0
   38.0100   24.0360   41.6190 H   0  0  0  0  0  0  0  0  0  0  0  0
   39.6430   24.8920   43.6750 H   0  0  0  0  0  0  0  0  0  0  0  0
   40.3300   27.2810   44.6010 H   0  0  0  0  0  0  0  0  0  0  0  0
   35.0900   24.1350   37.6470 C   0  0  0  0  0  0  0  0  0  0  0  0
   35.0870   22.7750   37.9570 C   0  0  0  0  0  0  0  0  0  0  0  0
   35.7480   22.3580   39.1250 C   0  0  0  0  0  0  0  0  0  0  0  0
   36.3640   23.3030   39.9040 N   0  0  0  0  0  0  0  0  0  0  0  0
   36.3430   24.6180   39.5650 C   0  0  0  0  0  0  0  0  0  0  0  0
   35.7160   25.0170   38.4540 N   0  0  0  0  0  0  0  0  0  0  0  0
   34.5730   24.4290   36.7400 H   0  0  0  0  0  0  0  0  0  0  0  0
   34.6160   21.9930   37.3750 H   0  0  0  0  0  0  0  0  0  0  0  0
   35.8070   21.3510   39.4530 H   0  0  0  0  0  0  0  0  0  0  0  0
   37.3190   29.2720   40.9190 C   0  0  0  0  0  0  0  0  0  0  0  0
   36.1060   29.9350   40.9810 C   0  0  0  0  0  0  0  0  0  0  0  0
   36.4450   31.2760   40.7710 C   0  0  0  0  0  0  0  0  0  0  0  0
   37.8280   31.3530   40.5960 C   0  0  0  0  0  0  0  0  0  0  0  0
   38.3050   30.1140   40.6960 O   0  0  0  0  0  0  0  0  0  0  0  0
   35.1340   29.5190   41.1500 H   0  0  0  0  0  0  0  0  0  0  0  0
   35.7690   32.1190   40.7450 H   0  0  0  0  0  0  0  0  0  0  0  0
   38.5440   32.5990   40.3540 C   0  0  0  0  0  0  0  0  0  0  0  0
   39.8140   33.0530   40.3820 N   0  0  0  0  0  0  0  0  0  0  0  0
   39.8220   34.3570   40.0430 C   0  0  0  0  0  0  0  0  0  0  0  0
   40.6730   35.0070   39.9710 H   0  0  0  0  0  0  0  0  0  0  0  0
   38.5380   34.7230   39.7980 N   0  0  0  0  0  0  0  0  0  0  0  0
   38.2020   35.6850   39.5080 H   0  0  0  0  0  0  0  0  0  0  0  0
   37.7870   33.6530   39.9910 N   0  0  0  0  0  0  0  0  0  0  0  0
  1  2  2  0  0  0  0
  1  9  1  0  0  0  0
  2  3  1  0  0  0  0
  3 11  1  0  0  0  0
  3  4  2  0  0  0  0
  4  5  1  0  0  0  0
  5 12  1  0  0  0  0
  5  6  1  0  0  0  0
  6 13  1  0  0  0  0
  7  6  2  0  0  0  0
  8  4  1  0  0  0  0
  8  7  1  0  0  0  0
  9  8  2  0  0  0  0
 10  1  1  0  0  0  0
 14 15  2  0  0  0  0
 14 19  1  0  0  0  0
 15 16  1  0  0  0  0
 16 22  1  0  0  0  0
 16 17  2  0  0  0  0
 18 17  1  0  0  0  0
 18  2  1  0  0  0  0
 19 18  2  0  0  0  0
 20 14  1  0  0  0  0
 21 15  1  0  0  0  0
 23 24  2  0  0  0  0
 23  9  1  0  0  0  0
 24 28  1  0  0  0  0
 25 24  1  0  0  0  0
 26 27  1  0  0  0  0
 26 25  2  0  0  0  0
 27 23  1  0  0  0  0
 29 25  1  0  0  0  0
 30 31  1  0  0  0  0
 30 26  1  0  0  0  0
 32 31  2  0  0  0  0
 33 32  1  0  0  0  0
 34 36  1  0  0  0  0
 34 32  1  0  0  0  0
 35 34  1  0  0  0  0
 36 30  2  0  0  0  0
M  END
>  <minimizedAffinity>
-5.95630884

$$$$

 OpenBabel03252506583D

 36 40  0  0  0  0  0  0  0  0999 V2000
   37.0580   29.0210   39.7910 C   0  0  0  0  0  0  0  0  0  0  0  0
   36.5240   29.9090   38.8820 C   0  0  0  0  0  0  0  0  0  0  0  0
   36.8590   31.2440   38.8590 C   0  0  0  0  0  0  0  0  0  0  0  0
   37.7760   31.7600   39.7810 C   0  0  0  0  0  0  0  0  0  0  0  0
   38.3210   32.9740   40.0440 N   0  0  0  0  0  0  0  0  0  0  0  0
   39.1740   32.8370   41.0960 C   0  0  0  0  0  0  0  0  0  0  0  0
   39.1370   31.5370   41.4610 N   0  0  0  0  0  0  0  0  0  0  0  0
   38.2920   30.8500   40.6770 C   0  0  0  0  0  0  0  0  0  0  0  0
   37.9810   29.5310   40.7220 C   0  0  0  0  0  0  0  0  0  0  0  0
   36.7940   27.9740   39.8070 H   0  0  0  0  0  0  0  0  0  0  0  0
   36.4580   31.9750   38.1560 H   0  0  0  0  0  0  0  0  0  0  0  0
   38.0500   33.8140   39.4610 H   0  0  0  0  0  0  0  0  0  0  0  0
   39.7370   33.6610   41.5030 H   0  0  0  0  0  0  0  0  0  0  0  0
   33.4590   28.5450   37.3680 C   0  0  0  0  0  0  0  0  0  0  0  0
   33.7710   28.5390   36.0080 C   0  0  0  0  0  0  0  0  0  0  0  0
   35.0360   29.0060   35.6150 C   0  0  0  0  0  0  0  0  0  0  0  0
   35.9060   29.4440   36.5810 N   0  0  0  0  0  0  0  0  0  0  0  0
   35.5610   29.4320   37.8940 C   0  0  0  0  0  0  0  0  0  0  0  0
   34.3580   28.9890   38.2720 N   0  0  0  0  0  0  0  0  0  0  0  0
   32.4760   28.1800   37.6440 H   0  0  0  0  0  0  0  0  0  0  0  0
   33.1210   28.2050   35.2100 H   0  0  0  0  0  0  0  0  0  0  0  0
   35.3750   29.0460   34.6100 H   0  0  0  0  0  0  0  0  0  0  0  0
   38.5900   28.6390   41.7210 C   0  0  0  0  0  0  0  0  0  0  0  0
   37.9560   28.1950   42.8680 C   0  0  0  0  0  0  0  0  0  0  0  0
   38.9150   27.3890   43.4910 C   0  0  0  0  0  0  0  0  0  0  0  0
   40.0630   27.3860   42.6980 C   0  0  0  0  0  0  0  0  0  0  0  0
   39.8120   28.1570   41.6420 O   0  0  0  0  0  0  0  0  0  0  0  0
   36.9640   28.4170   43.2020 H   0  0  0  0  0  0  0  0  0  0  0  0
   38.8040   26.8520   44.4230 H   0  0  0  0  0  0  0  0  0  0  0  0
   41.2750   26.6490   43.0320 C   0  0  0  0  0  0  0  0  0  0  0  0
   42.4950   26.8980   43.5540 N   0  0  0  0  0  0  0  0  0  0  0  0
   43.1920   25.7460   43.6090 C   0  0  0  0  0  0  0  0  0  0  0  0
   44.1920   25.6060   43.9730 H   0  0  0  0  0  0  0  0  0  0  0  0
   42.3970   24.7640   43.1130 N   0  0  0  0  0  0  0  0  0  0  0  0
   42.6490   23.7380   43.0170 H   0  0  0  0  0  0  0  0  0  0  0  0
   41.2520   25.3270   42.7720 N   0  0  0  0  0  0  0  0  0  0  0  0
  1 10  1  0  0  0  0
  1  9  1  0  0  0  0
  2  1  2  0  0  0  0
  3  2  1  0  0  0  0
  3  4  2  0  0  0  0
  4  5  1  0  0  0  0
  4  8  1  0  0  0  0
  5  6  1  0  0  0  0
  6  7  2  0  0  0  0
  6 13  1  0  0  0  0
  8  9  2  0  0  0  0
  8  7  1  0  0  0  0
  9 23  1  0  0  0  0
 11  3  1  0  0  0  0
 12  5  1  0  0  0  0
 14 20  1  0  0  0  0
 14 19  1  0  0  0  0
 15 14  2  0  0  0  0
 16 15  1  0  0  0  0
 16 17  2  0  0  0  0
 17 18  1  0  0  0  0
 18 19  2  0  0  0  0
 18  2  1  0  0  0  0
 21 15  1  0  0  0  0
 22 16  1  0  0  0  0
 23 24  2  0  0  0  0
 24 28  1  0  0  0  0
 24 25  1  0  0  0  0
 25 29  1  0  0  0  0
 26 30  1  0  0  0  0
 26 25  2  0  0  0  0
 27 23  1  0  0  0  0
 27 26  1  0  0  0  0
 30 31  1  0  0  0  0
 31 32  2  0  0  0  0
 32 33  1  0  0  0  0
 34 32  1  0  0  0  0
 35 34  1  0  0  0  0
 36 30  2  0  0  0  0
 36 34  1  0  0  0  0
M  END
>  <minimizedAffinity>
-5.76993418

$$$$

 OpenBabel03252506583D

 36 40  0  0  0  0  0  0  0  0999 V2000
   37.1500   27.2230   39.5680 C   0  0  0  0  0  0  0  0  0  0  0  0
   36.8950   26.0510   40.2470 C   0  0  0  0  0  0  0  0  0  0  0  0
   36.9040   25.9700   41.6210 C   0  0  0  0  0  0  0  0  0  0  0  0
   37.1790   27.1010   42.3960 C   0  0  0  0  0  0  0  0  0  0  0  0
   37.2700   27.3820   43.7210 N   0  0  0  0  0  0  0  0  0  0  0  0
   37.5760   28.7010   43.8550 C   0  0  0  0  0  0  0  0  0  0  0  0
   37.6680   29.2090   42.6060 N   0  0  0  0  0  0  0  0  0  0  0  0
   37.4300   28.2570   41.6910 C   0  0  0  0  0  0  0  0  0  0  0  0
   37.4280   28.3660   40.3390 C   0  0  0  0  0  0  0  0  0  0  0  0
   37.1420   27.2850   38.4890 H   0  0  0  0  0  0  0  0  0  0  0  0
   36.7060   25.0620   42.1920 H   0  0  0  0  0  0  0  0  0  0  0  0
   37.1100   26.6190   44.4360 H   0  0  0  0  0  0  0  0  0  0  0  0
   37.7050   29.1770   44.8130 H   0  0  0  0  0  0  0  0  0  0  0  0
   35.7360   23.7850   37.5890 C   0  0  0  0  0  0  0  0  0  0  0  0
   36.0580   22.5280   38.1020 C   0  0  0  0  0  0  0  0  0  0  0  0
   36.6740   22.4630   39.3640 C   0  0  0  0  0  0  0  0  0  0  0  0
   36.9300   23.6330   40.0320 N   0  0  0  0  0  0  0  0  0  0  0  0
   36.6000   24.8360   39.4950 C   0  0  0  0  0  0  0  0  0  0  0  0
   36.0150   24.9010   38.2950 N   0  0  0  0  0  0  0  0  0  0  0  0
   35.2620   23.8060   36.6140 H   0  0  0  0  0  0  0  0  0  0  0  0
   35.8770   21.5780   37.6150 H   0  0  0  0  0  0  0  0  0  0  0  0
   36.9600   21.5630   39.8460 H   0  0  0  0  0  0  0  0  0  0  0  0
   37.7100   29.6510   39.6790 C   0  0  0  0  0  0  0  0  0  0  0  0
   36.7520   30.4590   39.0930 C   0  0  0  0  0  0  0  0  0  0  0  0
   37.4840   31.5490   38.6070 C   0  0  0  0  0  0  0  0  0  0  0  0
   38.8280   31.3460   38.9220 C   0  0  0  0  0  0  0  0  0  0  0  0
   38.9070   30.1840   39.5680 O   0  0  0  0  0  0  0  0  0  0  0  0
   35.6970   30.2910   39.0260 H   0  0  0  0  0  0  0  0  0  0  0  0
   37.0940   32.4080   38.0790 H   0  0  0  0  0  0  0  0  0  0  0  0
   39.8910   32.2790   38.5720 C   0  0  0  0  0  0  0  0  0  0  0  0
   40.6190   33.2470   39.1670 N   0  0  0  0  0  0  0  0  0  0  0  0
   41.4810   33.7630   38.2700 C   0  0  0  0  0  0  0  0  0  0  0  0
   42.1970   34.5460   38.4290 H   0  0  0  0  0  0  0  0  0  0  0  0
   41.2890   33.1080   37.0960 N   0  0  0  0  0  0  0  0  0  0  0  0
   41.8100   33.2760   36.1890 H   0  0  0  0  0  0  0  0  0  0  0  0
   40.3300   32.2220   37.3000 N   0  0  0  0  0  0  0  0  0  0  0  0
  1  2  2  0  0  0  0
  1  9  1  0  0  0  0
  2  3  1  0  0  0  0
  3 11  1  0  0  0  0
  3  4  2  0  0  0  0
  4  5  1  0  0  0  0
  5  6  1  0  0  0  0
  5 12  1  0  0  0  0
  6 13  1  0  0  0  0
  7  6  2  0  0  0  0
  8  4  1  0  0  0  0
  8  7  1  0  0  0  0
  9  8  2  0  0  0  0
 10  1  1  0  0  0  0
 14 15  2  0  0  0  0
 14 19  1  0  0  0  0
 15 16  1  0  0  0  0
 16 22  1  0  0  0  0
 16 17  2  0  0  0  0
 18 17  1  0  0  0  0
 18  2  1  0  0  0  0
 19 18  2  0  0  0  0
 20 14  1  0  0  0  0
 21 15  1  0  0  0  0
 23  9  1  0  0  0  0
 24 23  2  0  0  0  0
 25 26  2  0  0  0  0
 25 24  1  0  0  0  0
 26 27  1  0  0  0  0
 27 23  1  0  0  0  0
 28 24  1  0  0  0  0
 29 25  1  0  0  0  0
 30 26  1  0  0  0  0
 30 31  1  0  0  0  0
 32 33  1  0  0  0  0
 32 31  2  0  0  0  0
 34 36  1  0  0  0  0
 34 32  1  0  0  0  0
 35 34  1  0  0  0  0
 36 30  2  0  0  0  0
M  END
>  <minimizedAffinity>
-5.73369169

$$$$

 OpenBabel03252506583D

 36 40  0  0  0  0  0  0  0  0999 V2000
   36.8250   25.6810   40.3740 C   0  0  0  0  0  0  0  0  0  0  0  0
   37.0340   24.3240   40.4840 C   0  0  0  0  0  0  0  0  0  0  0  0
   37.9250   23.7770   41.3790 C   0  0  0  0  0  0  0  0  0  0  0  0
   38.6700   24.6010   42.2300 C   0  0  0  0  0  0  0  0  0  0  0  0
   39.6030   24.4200   43.1980 N   0  0  0  0  0  0  0  0  0  0  0  0
   39.9620   25.6430   43.6760 C   0  0  0  0  0  0  0  0  0  0  0  0
   39.2410   26.5560   42.9890 N   0  0  0  0  0  0  0  0  0  0  0  0
   38.4400   25.9530   42.0980 C   0  0  0  0  0  0  0  0  0  0  0  0
   37.5680   26.5180   41.2250 C   0  0  0  0  0  0  0  0  0  0  0  0
   36.1240   26.1080   39.6710 H   0  0  0  0  0  0  0  0  0  0  0  0
   38.1170   22.7100   41.4940 H   0  0  0  0  0  0  0  0  0  0  0  0
   39.9200   23.4430   43.4520 H   0  0  0  0  0  0  0  0  0  0  0  0
   40.6940   25.7740   44.4560 H   0  0  0  0  0  0  0  0  0  0  0  0
   34.4760   22.9830   38.2030 C   0  0  0  0  0  0  0  0  0  0  0  0
   34.9020   21.6680   38.0100 C   0  0  0  0  0  0  0  0  0  0  0  0
   36.0700   21.2450   38.6670 C   0  0  0  0  0  0  0  0  0  0  0  0
   36.7370   22.1400   39.4650 N   0  0  0  0  0  0  0  0  0  0  0  0
   36.2870   23.4110   39.6240 C   0  0  0  0  0  0  0  0  0  0  0  0
   35.1760   23.8160   39.0000 N   0  0  0  0  0  0  0  0  0  0  0  0
   33.5720   23.2820   37.6840 H   0  0  0  0  0  0  0  0  0  0  0  0
   34.4120   20.9260   37.3930 H   0  0  0  0  0  0  0  0  0  0  0  0
   36.4820   20.2710   38.5910 H   0  0  0  0  0  0  0  0  0  0  0  0
   37.3950   27.9780   41.1620 C   0  0  0  0  0  0  0  0  0  0  0  0
   36.2200   28.6430   41.4590 C   0  0  0  0  0  0  0  0  0  0  0  0
   36.5360   29.9910   41.2580 C   0  0  0  0  0  0  0  0  0  0  0  0
   37.8700   30.0700   40.8560 C   0  0  0  0  0  0  0  0  0  0  0  0
   38.3410   28.8250   40.8150 O   0  0  0  0  0  0  0  0  0  0  0  0
   35.2850   28.2250   41.7690 H   0  0  0  0  0  0  0  0  0  0  0  0
   35.8770   30.8380   41.3870 H   0  0  0  0  0  0  0  0  0  0  0  0
   38.5520   31.3220   40.5550 C   0  0  0  0  0  0  0  0  0  0  0  0
   38.6810   32.1760   39.5180 N   0  0  0  0  0  0  0  0  0  0  0  0
   39.4840   33.1940   39.8850 C   0  0  0  0  0  0  0  0  0  0  0  0
   39.7820   34.0360   39.2900 H   0  0  0  0  0  0  0  0  0  0  0  0
   39.8620   32.9730   41.1700 N   0  0  0  0  0  0  0  0  0  0  0  0
   40.4960   33.5900   41.7550 H   0  0  0  0  0  0  0  0  0  0  0  0
   39.2920   31.8440   41.5530 N   0  0  0  0  0  0  0  0  0  0  0  0
  1  2  2  0  0  0  0
  1  9  1  0  0  0  0
  2  3  1  0  0  0  0
  3 11  1  0  0  0  0
  3  4  2  0  0  0  0
  4  5  1  0  0  0  0
  5 12  1  0  0  0  0
  5  6  1  0  0  0  0
  6 13  1  0  0  0  0
  7  6  2  0  0  0  0
  8  4  1  0  0  0  0
  8  7  1  0  0  0  0
  9  8  2  0  0  0  0
 10  1  1  0  0  0  0
 14 19  1  0  0  0  0
 15 14  2  0  0  0  0
 15 16  1  0  0  0  0
 16 17  2  0  0  0  0
 17 18  1  0  0  0  0
 18  2  1  0  0  0  0
 19 18  2  0  0  0  0
 20 14  1  0  0  0  0
 21 15  1  0  0  0  0
 22 16  1  0  0  0  0
 23  9  1  0  0  0  0
 23 24  2  0  0  0  0
 24 28  1  0  0  0  0
 25 29  1  0  0  0  0
 25 24  1  0  0  0  0
 26 25  2  0  0  0  0
 27 26  1  0  0  0  0
 27 23  1  0  0  0  0
 30 26  1  0  0  0  0
 30 36  2  0  0  0  0
 31 32  2  0  0  0  0
 31 30  1  0  0  0  0
 32 34  1  0  0  0  0
 33 32  1  0  0  0  0
 34 36  1  0  0  0  0
 34 35  1  0  0  0  0
M  END
>  <minimizedAffinity>
-5.71584368

$$$$

 OpenBabel03252506583D

 36 40  0  0  0  0  0  0  0  0999 V2000
   40.6770   30.4720   41.3880 C   0  0  0  0  0  0  0  0  0  0  0  0
   40.6930   31.8000   41.0220 C   0  0  0  0  0  0  0  0  0  0  0  0
   39.5480   32.5070   40.7310 C   0  0  0  0  0  0  0  0  0  0  0  0
   38.2960   31.8860   40.7980 C   0  0  0  0  0  0  0  0  0  0  0  0
   37.0070   32.2550   40.5880 N   0  0  0  0  0  0  0  0  0  0  0  0
   36.2130   31.1750   40.8210 C   0  0  0  0  0  0  0  0  0  0  0  0
   37.0310   30.1570   41.1700 N   0  0  0  0  0  0  0  0  0  0  0  0
   38.3110   30.5590   41.1670 C   0  0  0  0  0  0  0  0  0  0  0  0
   39.4240   29.8390   41.4590 C   0  0  0  0  0  0  0  0  0  0  0  0
   41.5770   29.9200   41.6160 H   0  0  0  0  0  0  0  0  0  0  0  0
   39.5210   33.5570   40.4380 H   0  0  0  0  0  0  0  0  0  0  0  0
   36.7820   33.2460   40.2950 H   0  0  0  0  0  0  0  0  0  0  0  0
   35.1400   31.2050   40.7220 H   0  0  0  0  0  0  0  0  0  0  0  0
   44.2790   32.4850   40.5560 C   0  0  0  0  0  0  0  0  0  0  0  0
   44.3550   33.8610   40.7750 C   0  0  0  0  0  0  0  0  0  0  0  0
   43.1700   34.5510   41.0830 C   0  0  0  0  0  0  0  0  0  0  0  0
   41.9970   33.8440   41.1550 N   0  0  0  0  0  0  0  0  0  0  0  0
   41.9680   32.5050   40.9340 C   0  0  0  0  0  0  0  0  0  0  0  0
   43.0930   31.8460   40.6400 N   0  0  0  0  0  0  0  0  0  0  0  0
   45.2080   31.9780   40.3200 H   0  0  0  0  0  0  0  0  0  0  0  0
   45.2540   34.4620   40.7300 H   0  0  0  0  0  0  0  0  0  0  0  0
   43.1140   35.5940   41.2670 H   0  0  0  0  0  0  0  0  0  0  0  0
   39.3330   28.4210   41.8430 C   0  0  0  0  0  0  0  0  0  0  0  0
   39.4940   27.9460   43.1320 C   0  0  0  0  0  0  0  0  0  0  0  0
   39.3230   26.5630   43.0040 C   0  0  0  0  0  0  0  0  0  0  0  0
   39.0690   26.2780   41.6610 C   0  0  0  0  0  0  0  0  0  0  0  0
   39.0870   27.4370   41.0060 O   0  0  0  0  0  0  0  0  0  0  0  0
   39.7020   28.5040   44.0210 H   0  0  0  0  0  0  0  0  0  0  0  0
   39.3730   25.8270   43.7950 H   0  0  0  0  0  0  0  0  0  0  0  0
   38.8370   24.9340   41.1490 C   0  0  0  0  0  0  0  0  0  0  0  0
   39.1410   24.2060   40.0540 N   0  0  0  0  0  0  0  0  0  0  0  0
   38.6130   22.9740   40.1850 C   0  0  0  0  0  0  0  0  0  0  0  0
   38.6760   22.1600   39.4890 H   0  0  0  0  0  0  0  0  0  0  0  0
   37.9690   22.9310   41.3800 N   0  0  0  0  0  0  0  0  0  0  0  0
   37.4470   22.1020   41.7840 H   0  0  0  0  0  0  0  0  0  0  0  0
   38.1160   24.1170   41.9420 N   0  0  0  0  0  0  0  0  0  0  0  0
  1  9  1  0  0  0  0
  1 10  1  0  0  0  0
  2  1  2  0  0  0  0
  3  4  2  0  0  0  0
  3  2  1  0  0  0  0
  4  8  1  0  0  0  0
  5  4  1  0  0  0  0
  5  6  1  0  0  0  0
  6  7  2  0  0  0  0
  8  7  1  0  0  0  0
  8  9  2  0  0  0  0
  9 23  1  0  0  0  0
 11  3  1  0  0  0  0
 12  5  1  0  0  0  0
 13  6  1  0  0  0  0
 14 19  2  0  0  0  0
 14 15  1  0  0  0  0
 15 16  2  0  0  0  0
 16 17  1  0  0  0  0
 16 22  1  0  0  0  0
 18  2  1  0  0  0  0
 18 17  2  0  0  0  0
 19 18  1  0  0  0  0
 20 14  1  0  0  0  0
 21 15  1  0  0  0  0
 23 24  2  0  0  0  0
 24 28  1  0  0  0  0
 25 24  1  0  0  0  0
 25 29  1  0  0  0  0
 26 25  2  0  0  0  0
 27 26  1  0  0  0  0
 27 23  1  0  0  0  0
 30 26  1  0  0  0  0
 30 36  2  0  0  0  0
 31 32  2  0  0  0  0
 31 30  1  0  0  0  0
 32 34  1  0  0  0  0
 33 32  1  0  0  0  0
 34 35  1  0  0  0  0
 34 36  1  0  0  0  0
M  END
>  <minimizedAffinity>
-5.65040302

$$$$
