
 OpenBabel03252501323D

 22 23  0  0  0  0  0  0  0  0999 V2000
   45.4180   34.4760   43.6360 C   0  0  0  0  0  0  0  0  0  0  0  0
   45.2380   34.4690   45.0070 C   0  0  0  0  0  0  0  0  0  0  0  0
   46.0970   33.6550   45.7350 C   0  0  0  0  0  0  0  0  0  0  0  0
   47.0210   32.9500   45.0710 N   0  0  0  0  0  0  0  0  0  0  0  0
   47.1700   32.9800   43.7320 C   0  0  0  0  0  0  0  0  0  0  0  0
   46.3540   33.7600   42.9810 N   0  0  0  0  0  0  0  0  0  0  0  0
   45.9460   33.6590   46.8000 H   0  0  0  0  0  0  0  0  0  0  0  0
   47.9570   32.3590   43.3440 H   0  0  0  0  0  0  0  0  0  0  0  0
   43.6950   34.3750   42.0440 C   0  0  0  0  0  0  0  0  0  0  0  0
   43.8140   33.1760   42.4380 O   0  0  0  0  0  0  0  0  0  0  0  0
   44.6300   35.2560   42.6940 N   0  0  0  0  0  0  0  0  0  0  0  0
   44.6680   36.2540   42.4730 H   0  0  0  0  0  0  0  0  0  0  0  0
   42.7460   34.8760   41.0560 C   0  0  0  0  0  0  0  0  0  0  0  0
   42.7350   34.9040   39.7130 N   0  0  0  0  0  0  0  0  0  0  0  0
   41.5850   35.4990   39.2840 C   0  0  0  0  0  0  0  0  0  0  0  0
   41.5570   35.5320   38.2000 H   0  0  0  0  0  0  0  0  0  0  0  0
   40.8930   35.8340   40.3980 N   0  0  0  0  0  0  0  0  0  0  0  0
   39.9820   36.3030   40.1920 H   0  0  0  0  0  0  0  0  0  0  0  0
   41.5990   35.4550   41.4590 N   0  0  0  0  0  0  0  0  0  0  0  0
   44.2010   35.2880   45.5220 N   0  0  0  0  0  0  0  0  0  0  0  0
   43.3150   35.3780   44.9770 H   0  0  0  0  0  0  0  0  0  0  0  0
   44.1810   35.8390   46.3980 H   0  0  0  0  0  0  0  0  0  0  0  0
  1  2  1  0  0  0  0
  2 20  1  0  0  0  0
  2  3  2  0  0  0  0
  3  7  1  0  0  0  0
  4  3  1  0  0  0  0
  5  4  2  0  0  0  0
  6  1  2  0  0  0  0
  6  5  1  0  0  0  0
  8  5  1  0  0  0  0
  9 10  2  0  0  0  0
  9 11  1  0  0  0  0
 11  1  1  0  0  0  0
 12 11  1  0  0  0  0
 13 19  2  0  0  0  0
 13  9  1  0  0  0  0
 14 13  1  0  0  0  0
 15 14  2  0  0  0  0
 15 17  1  0  0  0  0
 16 15  1  0  0  0  0
 17 19  1  0  0  0  0
 18 17  1  0  0  0  0
 20 22  1  0  0  0  0
 21 20  1  0  0  0  0
M  END
>  <minimizedAffinity>
-4.34013033

>  <minimizedRMSD>
1.85460865

$$$$
