REMARK  Name = 
REMARK  5 active torsions:
REMARK  status: ('A' for Active; 'I' for Inactive)
REMARK    1  A    between atoms: C_1  and  C_11
REMARK    2  A    between atoms: C_3  and  S_13
REMARK    3  A    between atoms: S_13  and  C_14
REMARK    4  A    between atoms: C_22  and  C_24
REMARK    5  A    between atoms: C_24  and  C_38
REMARK                            x       y       z     vdW  Elec       q    Type
REMARK                         _______ _______ _______ _____ _____    ______ ____
ROOT
ATOM      1  C   UNL     1      49.909  30.499  49.669  0.00  0.00    +0.000 A 
ATOM      2  N   UNL     1      50.108  31.777  50.109  0.00  0.00    +0.000 NA
ATOM      3  C   UNL     1      50.827  32.085  51.183  0.00  0.00    +0.000 A 
ATOM      4  N   UNL     1      51.381  31.079  51.863  0.00  0.00    +0.000 NA
ATOM      5  C   UNL     1      51.237  29.802  51.504  0.00  0.00    +0.000 A 
ATOM      6  C   UNL     1      51.819  28.747  52.197  0.00  0.00    +0.000 A 
ATOM      7  C   UNL     1      51.667  27.458  51.807  0.00  0.00    +0.000 A 
ATOM      8  C   UNL     1      50.926  27.164  50.708  0.00  0.00    +0.000 A 
ATOM      9  C   UNL     1      50.314  28.183  49.969  0.00  0.00    +0.000 A 
ATOM     10  C   UNL     1      50.478  29.476  50.372  0.00  0.00    +0.000 A 
ATOM     11  H   UNL     1      50.938  33.121  51.467  0.00  0.00    +0.000 HD
ATOM     12  H   UNL     1      52.393  29.047  53.059  0.00  0.00    +0.000 HD
ATOM     13  H   UNL     1      52.149  26.672  52.391  0.00  0.00    +0.000 HD
ATOM     14  H   UNL     1      50.840  26.113  50.445  0.00  0.00    +0.000 HD
ENDROOT
BRANCH   9  15
ATOM     15  C   UNL     1      49.500  27.743  48.814  0.00  0.00    +0.000 C 
ATOM     16  H   UNL     1      48.422  27.880  48.916  0.00  0.00    +0.000 HD
ATOM     17  H   UNL     1      49.953  27.953  47.825  0.00  0.00    +0.000 HD
BRANCH  15  18
ATOM     18  C   UNL     1      49.505  26.221  48.734  0.00  0.00    +0.000 A 
ATOM     19  N   UNL     1      49.943  25.417  47.718  0.00  0.00    +0.000 NA
ATOM     20  C   UNL     1      49.771  24.128  48.033  0.00  0.00    +0.000 A 
ATOM     21  H   UNL     1      50.052  23.324  47.365  0.00  0.00    +0.000 HD
ATOM     22  N   UNL     1      49.220  24.091  49.255  0.00  0.00    +0.000 N 
ATOM     23  H   UNL     1      48.962  23.230  49.784  0.00  0.00    +0.000 HD
ATOM     24  N   UNL     1      49.068  25.320  49.659  0.00  0.00    +0.000 NA
ENDBRANCH  15  18
ENDBRANCH   9  15
BRANCH   1  25
ATOM     25  S   UNL     1      49.008  30.162  48.240  0.00  0.00    +0.000 S 
BRANCH  25  28
ATOM     26  C   UNL     1      46.139  32.649  46.978  0.00  0.00    +0.000 A 
ATOM     27  C   UNL     1      47.303  31.898  47.077  0.00  0.00    +0.000 A 
ATOM     28  C   UNL     1      47.512  31.069  48.149  0.00  0.00    +0.000 A 
ATOM     29  C   UNL     1      46.569  30.967  49.145  0.00  0.00    +0.000 A 
ATOM     30  C   UNL     1      45.412  31.684  49.091  0.00  0.00    +0.000 A 
ATOM     31  C   UNL     1      45.221  32.514  48.003  0.00  0.00    +0.000 A 
ATOM     32  H   UNL     1      48.016  32.007  46.275  0.00  0.00    +0.000 HD
ATOM     33  H   UNL     1      46.769  30.306  49.968  0.00  0.00    +0.000 HD
ATOM     34  H   UNL     1      44.675  31.598  49.879  0.00  0.00    +0.000 HD
ATOM     35  H   UNL     1      44.314  33.078  47.957  0.00  0.00    +0.000 HD
BRANCH  26  40
ATOM     36  C   UNL     1      44.721  35.318  44.927  0.00  0.00    +0.000 A 
ATOM     37  C   UNL     1      45.462  35.237  43.722  0.00  0.00    +0.000 A 
ATOM     38  C   UNL     1      46.450  34.262  43.618  0.00  0.00    +0.000 A 
ATOM     39  N   UNL     1      46.684  33.411  44.667  0.00  0.00    +0.000 NA
ATOM     40  C   UNL     1      45.931  33.533  45.822  0.00  0.00    +0.000 A 
ATOM     41  N   UNL     1      44.961  34.474  45.950  0.00  0.00    +0.000 NA
ATOM     42  H   UNL     1      43.942  36.051  45.070  0.00  0.00    +0.000 HD
ATOM     43  H   UNL     1      45.245  35.928  42.919  0.00  0.00    +0.000 HD
ATOM     44  H   UNL     1      47.038  34.168  42.716  0.00  0.00    +0.000 HD
ENDBRANCH  26  40
ENDBRANCH  25  28
ENDBRANCH   1  25
TORSDOF 5
