
 OpenBabel03242515593D

 26 28  0  0  0  0  0  0  0  0999 V2000
   44.8120   33.0660   41.2050 Cl  0  0  0  0  0  0  0  0  0  0  0  0
   46.3140   33.9280   40.9970 C   0  0  0  0  0  0  0  0  0  0  0  0
   46.8300   34.7210   41.9860 C   0  0  0  0  0  0  0  0  0  0  0  0
   48.0190   35.3570   41.7210 C   0  0  0  0  0  0  0  0  0  0  0  0
   48.6770   35.2190   40.5270 C   0  0  0  0  0  0  0  0  0  0  0  0
   48.1560   34.4270   39.5450 C   0  0  0  0  0  0  0  0  0  0  0  0
   46.9720   33.7850   39.7890 C   0  0  0  0  0  0  0  0  0  0  0  0
   48.4210   35.9820   42.5110 H   0  0  0  0  0  0  0  0  0  0  0  0
   49.6100   35.7480   40.3830 H   0  0  0  0  0  0  0  0  0  0  0  0
   48.6880   34.3230   38.5940 H   0  0  0  0  0  0  0  0  0  0  0  0
   44.4790   35.9530   44.6960 C   0  0  0  0  0  0  0  0  0  0  0  0
   45.1800   35.8510   43.4950 C   0  0  0  0  0  0  0  0  0  0  0  0
   46.0920   34.8350   43.2400 C   0  0  0  0  0  0  0  0  0  0  0  0
   46.2720   33.9290   44.2430 N   0  0  0  0  0  0  0  0  0  0  0  0
   45.5880   34.0360   45.4050 C   0  0  0  0  0  0  0  0  0  0  0  0
   44.7110   35.0180   45.6380 N   0  0  0  0  0  0  0  0  0  0  0  0
   43.8160   36.8020   44.7150 H   0  0  0  0  0  0  0  0  0  0  0  0
   45.0720   36.5440   42.6730 H   0  0  0  0  0  0  0  0  0  0  0  0
   45.7230   33.3110   46.2200 H   0  0  0  0  0  0  0  0  0  0  0  0
   46.4110   32.9370   38.7430 C   0  0  0  0  0  0  0  0  0  0  0  0
   45.5520   33.3280   37.7930 N   0  0  0  0  0  0  0  0  0  0  0  0
   45.2850   32.2410   37.0290 C   0  0  0  0  0  0  0  0  0  0  0  0
   44.6820   31.9870   36.1590 H   0  0  0  0  0  0  0  0  0  0  0  0
   45.9870   31.1780   37.5150 N   0  0  0  0  0  0  0  0  0  0  0  0
   46.0840   30.1730   37.2480 H   0  0  0  0  0  0  0  0  0  0  0  0
   46.6730   31.6290   38.5700 N   0  0  0  0  0  0  0  0  0  0  0  0
  2  1  1  0  0  0  0
  2  3  1  0  0  0  0
  3 13  1  0  0  0  0
  4  3  2  0  0  0  0
  4  8  1  0  0  0  0
  5  4  1  0  0  0  0
  6  7  1  0  0  0  0
  6  5  2  0  0  0  0
  7  2  2  0  0  0  0
  9  5  1  0  0  0  0
 10  6  1  0  0  0  0
 11 17  1  0  0  0  0
 11 16  1  0  0  0  0
 12 11  2  0  0  0  0
 13 12  1  0  0  0  0
 13 14  2  0  0  0  0
 14 15  1  0  0  0  0
 15 16  2  0  0  0  0
 15 19  1  0  0  0  0
 18 12  1  0  0  0  0
 20  7  1  0  0  0  0
 21 20  1  0  0  0  0
 22 24  1  0  0  0  0
 22 21  2  0  0  0  0
 23 22  1  0  0  0  0
 24 26  1  0  0  0  0
 25 24  1  0  0  0  0
 26 20  2  0  0  0  0
M  END
>  <minimizedAffinity>
-5.36300325

>  <minimizedRMSD>
0.528092682

$$$$
