
 OpenBabel03252509033D

 46 48  0  0  1  0  0  0  0  0999 V2000
   46.7340   34.4880   43.5730 N   0  0  0  0  0  0  0  0  0  0  0  0
   46.2600   35.5490   42.7630 C   0  0  0  0  0  0  0  0  0  0  0  0
   44.7670   35.7450   42.7940 C   0  0  0  0  0  0  0  0  0  0  0  0
   44.1150   35.4220   44.1190 C   0  0  0  0  0  0  0  0  0  0  0  0
   45.1470   35.0530   45.1610 C   0  0  0  0  0  0  0  0  0  0  0  0
   45.9160   33.8580   44.4920 C   0  0  2  0  0  0  0  0  0  0  0  0
   46.6820   36.5010   43.1940 H   0  0  0  0  0  0  0  0  0  0  0  0
   46.5690   35.5420   41.7170 H   0  0  0  0  0  0  0  0  0  0  0  0
   44.5230   36.7770   42.4550 H   0  0  0  0  0  0  0  0  0  0  0  0
   44.3470   35.0640   42.0140 H   0  0  0  0  0  0  0  0  0  0  0  0
   43.5690   36.3460   44.4610 H   0  0  0  0  0  0  0  0  0  0  0  0
   43.3780   34.6240   44.0400 H   0  0  0  0  0  0  0  0  0  0  0  0
   45.8720   35.8490   45.3480 H   0  0  0  0  0  0  0  0  0  0  0  0
   44.6200   34.6640   46.0500 H   0  0  0  0  0  0  0  0  0  0  0  0
   45.1160   33.1880   44.1190 H   0  0  0  0  0  0  0  0  0  0  0  0
   47.8120   33.7340   42.9820 C   0  0  0  0  0  0  0  0  0  0  0  0
   48.5390   34.4120   42.5020 H   0  0  0  0  0  0  0  0  0  0  0  0
   48.3430   33.2480   43.8500 H   0  0  0  0  0  0  0  0  0  0  0  0
   47.2490   32.6880   42.0960 C   0  0  0  0  0  0  0  0  0  0  0  0
   47.4500   31.6750   42.4710 H   0  0  0  0  0  0  0  0  0  0  0  0
   46.1260   32.7470   42.0220 H   0  0  0  0  0  0  0  0  0  0  0  0
   49.0700   31.9910   38.8860 C   0  0  0  0  0  0  0  0  0  0  0  0
   48.5540   31.8530   40.1880 C   0  0  0  0  0  0  0  0  0  0  0  0
   47.7860   32.8470   40.7230 C   0  0  0  0  0  0  0  0  0  0  0  0
   47.5560   33.9270   39.9650 N   0  0  0  0  0  0  0  0  0  0  0  0
   48.0470   34.0620   38.7210 C   0  0  0  0  0  0  0  0  0  0  0  0
   48.8040   33.1040   38.1680 N   0  0  0  0  0  0  0  0  0  0  0  0
   49.6710   31.1260   38.5650 H   0  0  0  0  0  0  0  0  0  0  0  0
   48.7530   30.9680   40.7850 H   0  0  0  0  0  0  0  0  0  0  0  0
   47.8660   34.9390   38.0930 H   0  0  0  0  0  0  0  0  0  0  0  0
   46.6230   33.3540   45.5710 O   0  0  0  0  0  0  0  0  0  0  0  0
   45.5540   31.0620   44.7630 O   0  0  0  0  0  0  0  0  0  0  0  0
   46.1760   31.7720   45.9620 P   0  0  2  0  0  0  0  0  0  0  0  0
   44.9460   31.8910   47.1300 O   0  0  0  0  0  0  0  0  0  0  0  0
   44.1080   32.2330   46.7520 H   0  0  0  0  0  0  0  0  0  0  0  0
   47.4410   30.8970   46.6130 O   0  0  0  0  0  0  0  0  0  0  0  0
   47.3710   29.5840   46.1950 C   0  0  0  0  0  0  0  0  0  0  0  0
   48.3840   29.1940   46.0680 H   0  0  0  0  0  0  0  0  0  0  0  0
   46.9410   29.6160   45.1510 H   0  0  0  0  0  0  0  0  0  0  0  0
   46.5090   28.7190   47.0280 C   0  0  0  0  0  0  0  0  0  0  0  0
   46.6310   27.3720   46.9690 N   0  0  0  0  0  0  0  0  0  0  0  0
   45.7460   26.7910   47.8120 C   0  0  0  0  0  0  0  0  0  0  0  0
   45.6780   25.7020   47.9180 H   0  0  0  0  0  0  0  0  0  0  0  0
   45.0660   27.8070   48.4010 N   0  0  0  0  0  0  0  0  0  0  0  0
   44.3130   27.6430   49.1050 H   0  0  0  0  0  0  0  0  0  0  0  0
   45.5340   28.9340   47.9220 N   0  0  0  0  0  0  0  0  0  0  0  0
  1  6  1  0  0  0  0
  2  3  1  0  0  0  0
  2  7  1  0  0  0  0
  2  1  1  0  0  0  0
  3  4  1  0  0  0  0
  4 11  1  0  0  0  0
  4  5  1  0  0  0  0
  5 13  1  0  0  0  0
  5 14  1  0  0  0  0
  6 15  1  6  0  0  0
  6  5  1  0  0  0  0
  6 31  1  0  0  0  0
  8  2  1  0  0  0  0
  9  3  1  0  0  0  0
 10  3  1  0  0  0  0
 12  4  1  0  0  0  0
 16  1  1  0  0  0  0
 16 18  1  0  0  0  0
 17 16  1  0  0  0  0
 19 20  1  0  0  0  0
 19 16  1  0  0  0  0
 21 19  1  0  0  0  0
 22 23  1  0  0  0  0
 23 24  2  0  0  0  0
 23 29  1  0  0  0  0
 24 19  1  0  0  0  0
 25 24  1  0  0  0  0
 26 25  2  0  0  0  0
 27 26  1  0  0  0  0
 27 22  2  0  0  0  0
 28 22  1  0  0  0  0
 30 26  1  0  0  0  0
 31 33  1  0  0  0  0
 33 32  2  6  0  0  0
 33 36  1  0  0  0  0
 33 34  1  0  0  0  0
 35 34  1  0  0  0  0
 37 36  1  0  0  0  0
 37 40  1  0  0  0  0
 38 37  1  0  0  0  0
 39 37  1  0  0  0  0
 40 46  2  0  0  0  0
 41 40  1  0  0  0  0
 41 42  2  0  0  0  0
 42 43  1  0  0  0  0
 42 44  1  0  0  0  0
 44 45  1  0  0  0  0
 46 44  1  0  0  0  0
M  END
>  <minimizedAffinity>
-4.32644224

>  <minimizedRMSD>
1.26936316

$$$$
