
 OpenBabel03242519163D

 40 43  0  0  1  0  0  0  0  0999 V2000
   48.4040   34.1380   40.9560 C   0  0  0  0  0  0  0  0  0  0  0  0
   47.8140   34.3370   39.7280 C   0  0  0  0  0  0  0  0  0  0  0  0
   48.0940   33.5440   38.6050 C   0  0  0  0  0  0  0  0  0  0  0  0
   49.0010   32.5480   38.8110 N   0  0  0  0  0  0  0  0  0  0  0  0
   49.5690   32.3620   40.0110 C   0  0  0  0  0  0  0  0  0  0  0  0
   49.2770   33.1420   41.0570 N   0  0  0  0  0  0  0  0  0  0  0  0
   47.1030   35.1490   39.6480 H   0  0  0  0  0  0  0  0  0  0  0  0
   47.6120   33.7300   37.6590 H   0  0  0  0  0  0  0  0  0  0  0  0
   50.5470   31.2500   40.2480 C   0  0  2  0  0  0  0  0  0  0  0  0
   50.9490   30.9390   41.6550 C   0  0  0  0  0  0  0  0  0  0  0  0
   51.9120   31.6500   40.6880 C   0  0  1  0  0  0  0  0  0  0  0  0
   50.5030   30.4830   39.4490 H   0  0  0  0  0  0  0  0  0  0  0  0
   50.4720   31.5600   42.4470 H   0  0  0  0  0  0  0  0  0  0  0  0
   51.1180   29.8820   41.8970 H   0  0  0  0  0  0  0  0  0  0  0  0
   52.1300   32.6940   40.9650 H   0  0  0  0  0  0  0  0  0  0  0  0
   53.0840   30.8040   40.3350 C   0  0  0  0  0  0  0  0  0  0  0  0
   53.8470   30.0730   41.1490 N   0  0  0  0  0  0  0  0  0  0  0  0
   54.8280   29.4340   40.4510 C   0  0  0  0  0  0  0  0  0  0  0  0
   55.4820   28.8230   41.0580 H   0  0  0  0  0  0  0  0  0  0  0  0
   54.6390   29.8030   39.1640 N   0  0  0  0  0  0  0  0  0  0  0  0
   55.3160   29.4000   38.4730 H   0  0  0  0  0  0  0  0  0  0  0  0
   53.5950   30.6210   39.1040 N   0  0  0  0  0  0  0  0  0  0  0  0
   48.0910   34.9610   42.0960 C   0  0  0  0  0  0  0  0  0  0  0  0
   48.3170   36.0330   41.8210 H   0  0  0  0  0  0  0  0  0  0  0  0
   48.7380   34.7590   42.9730 H   0  0  0  0  0  0  0  0  0  0  0  0
   46.6560   34.8970   42.4290 C   0  0  0  0  0  0  0  0  0  0  0  0
   46.0970   34.2490   41.6950 H   0  0  0  0  0  0  0  0  0  0  0  0
   46.1150   35.8760   42.3790 H   0  0  0  0  0  0  0  0  0  0  0  0
   44.6740   36.3310   44.1210 Cl  0  0  0  0  0  0  0  0  0  0  0  0
   45.4840   34.8760   44.6420 C   0  0  0  0  0  0  0  0  0  0  0  0
   46.3780   34.3050   43.7750 C   0  0  0  0  0  0  0  0  0  0  0  0
   47.0200   33.1560   44.1840 C   0  0  0  0  0  0  0  0  0  0  0  0
   46.7720   32.6010   45.4220 C   0  0  0  0  0  0  0  0  0  0  0  0
   45.8560   33.1990   46.2930 C   0  0  0  0  0  0  0  0  0  0  0  0
   45.2150   34.3550   45.8720 C   0  0  0  0  0  0  0  0  0  0  0  0
   47.7380   32.6540   43.5480 H   0  0  0  0  0  0  0  0  0  0  0  0
   47.2270   31.7200   45.8020 H   0  0  0  0  0  0  0  0  0  0  0  0
   45.6440   32.7840   47.2680 H   0  0  0  0  0  0  0  0  0  0  0  0
   44.2820   35.0250   46.6750 O   0  0  0  0  0  0  0  0  0  0  0  0
   43.4720   34.5040   46.9950 H   0  0  0  0  0  0  0  0  0  0  0  0
  1  6  1  0  0  0  0
  1 23  1  0  0  0  0
  2  1  2  0  0  0  0
  3  4  2  0  0  0  0
  3  2  1  0  0  0  0
  4  5  1  0  0  0  0
  5  9  1  0  0  0  0
  5  6  2  0  0  0  0
  7  2  1  0  0  0  0
  8  3  1  0  0  0  0
  9 12  1  6  0  0  0
  9 11  1  0  0  0  0
  9 10  1  0  0  0  0
 10 14  1  0  0  0  0
 10 13  1  0  0  0  0
 11 15  1  1  0  0  0
 11 10  1  0  0  0  0
 16 11  1  0  0  0  0
 16 17  1  0  0  0  0
 18 19  1  0  0  0  0
 18 17  2  0  0  0  0
 20 18  1  0  0  0  0
 21 20  1  0  0  0  0
 22 20  1  0  0  0  0
 22 16  2  0  0  0  0
 23 26  1  0  0  0  0
 23 25  1  0  0  0  0
 24 23  1  0  0  0  0
 26 31  1  0  0  0  0
 27 26  1  0  0  0  0
 28 26  1  0  0  0  0
 29 30  1  0  0  0  0
 30 35  1  0  0  0  0
 31 32  1  0  0  0  0
 31 30  2  0  0  0  0
 32 33  2  0  0  0  0
 33 37  1  0  0  0  0
 33 34  1  0  0  0  0
 34 38  1  0  0  0  0
 35 34  2  0  0  0  0
 35 39  1  0  0  0  0
 36 32  1  0  0  0  0
 39 40  1  0  0  0  0
M  END
>  <minimizedAffinity>
-5.80362272

>  <minimizedRMSD>
0.273548454

$$$$
