
 OpenBabel03252508373D

 39 42  0  0  0  0  0  0  0  0999 V2000
   45.1430   33.9540   40.6970 C   0  0  0  0  0  0  0  0  0  0  0  0
   44.0970   33.6390   39.8760 C   0  0  0  0  0  0  0  0  0  0  0  0
   44.3950   33.1480   38.6420 C   0  0  0  0  0  0  0  0  0  0  0  0
   45.6790   32.9530   38.1810 C   0  0  0  0  0  0  0  0  0  0  0  0
   46.7070   33.2790   39.0300 C   0  0  0  0  0  0  0  0  0  0  0  0
   46.4570   33.7800   40.2880 C   0  0  0  0  0  0  0  0  0  0  0  0
   43.5710   32.8940   37.9830 H   0  0  0  0  0  0  0  0  0  0  0  0
   45.8990   32.5570   37.1870 H   0  0  0  0  0  0  0  0  0  0  0  0
   47.7140   33.1250   38.6650 H   0  0  0  0  0  0  0  0  0  0  0  0
   40.8130   35.2680   40.7900 C   0  0  0  0  0  0  0  0  0  0  0  0
   42.1080   35.0930   40.2730 C   0  0  0  0  0  0  0  0  0  0  0  0
   42.7630   33.8570   40.3960 C   0  0  0  0  0  0  0  0  0  0  0  0
   42.0490   32.8970   41.0360 N   0  0  0  0  0  0  0  0  0  0  0  0
   40.8200   33.0760   41.5220 C   0  0  0  0  0  0  0  0  0  0  0  0
   40.2060   34.2630   41.3960 N   0  0  0  0  0  0  0  0  0  0  0  0
   40.2050   36.5270   40.6380 N   0  0  0  0  0  0  0  0  0  0  0  0
   42.6760   35.8620   39.7620 H   0  0  0  0  0  0  0  0  0  0  0  0
   40.3930   32.2040   42.0040 H   0  0  0  0  0  0  0  0  0  0  0  0
   40.7390   37.2620   41.1490 H   0  0  0  0  0  0  0  0  0  0  0  0
   39.3260   36.6920   40.0760 H   0  0  0  0  0  0  0  0  0  0  0  0
   47.6240   34.0960   41.1130 C   0  0  0  0  0  0  0  0  0  0  0  0
   48.1380   35.3540   40.9540 C   0  0  0  0  0  0  0  0  0  0  0  0
   49.2450   35.8210   41.6580 C   0  0  0  0  0  0  0  0  0  0  0  0
   49.8400   34.9500   42.5620 C   0  0  0  0  0  0  0  0  0  0  0  0
   49.3370   33.6850   42.7350 C   0  0  0  0  0  0  0  0  0  0  0  0
   48.2360   33.2490   42.0200 C   0  0  0  0  0  0  0  0  0  0  0  0
   47.7340   36.0910   40.2710 H   0  0  0  0  0  0  0  0  0  0  0  0
   49.6510   36.7970   41.5400 H   0  0  0  0  0  0  0  0  0  0  0  0
   50.7040   35.2230   43.1550 H   0  0  0  0  0  0  0  0  0  0  0  0
   49.7590   32.9650   43.4240 H   0  0  0  0  0  0  0  0  0  0  0  0
   47.6450   31.9100   42.1540 C   0  0  0  0  0  0  0  0  0  0  0  0
   46.6690   31.4840   42.9880 N   0  0  0  0  0  0  0  0  0  0  0  0
   46.4530   30.1620   42.7480 C   0  0  0  0  0  0  0  0  0  0  0  0
   45.6720   29.7760   43.4010 H   0  0  0  0  0  0  0  0  0  0  0  0
   47.3070   29.8110   41.7690 N   0  0  0  0  0  0  0  0  0  0  0  0
   47.2270   28.7940   41.4980 H   0  0  0  0  0  0  0  0  0  0  0  0
   48.0220   30.8400   41.4050 N   0  0  0  0  0  0  0  0  0  0  0  0
   44.7390   34.8930   43.0950 N   0  0  0  0  0  0  0  0  0  0  0  0
   44.9230   34.4780   42.0130 C   0  0  0  0  0  0  0  0  0  0  0  0
  1 39  1  0  0  0  0
  2 12  1  0  0  0  0
  2  1  2  0  0  0  0
  3  2  1  0  0  0  0
  4  3  2  0  0  0  0
  4  5  1  0  0  0  0
  5  6  2  0  0  0  0
  6  1  1  0  0  0  0
  6 21  1  0  0  0  0
  7  3  1  0  0  0  0
  8  4  1  0  0  0  0
  9  5  1  0  0  0  0
 10 15  1  0  0  0  0
 11 12  1  0  0  0  0
 11 10  2  0  0  0  0
 12 13  2  0  0  0  0
 13 14  1  0  0  0  0
 14 18  1  0  0  0  0
 15 14  2  0  0  0  0
 16 10  1  0  0  0  0
 16 19  1  0  0  0  0
 17 11  1  0  0  0  0
 20 16  1  0  0  0  0
 21 26  1  0  0  0  0
 22 21  2  0  0  0  0
 22 23  1  0  0  0  0
 23 24  2  0  0  0  0
 24 25  1  0  0  0  0
 24 29  1  0  0  0  0
 25 30  1  0  0  0  0
 26 31  1  0  0  0  0
 26 25  2  0  0  0  0
 27 22  1  0  0  0  0
 28 23  1  0  0  0  0
 31 32  1  0  0  0  0
 33 32  2  0  0  0  0
 33 34  1  0  0  0  0
 35 33  1  0  0  0  0
 36 35  1  0  0  0  0
 37 35  1  0  0  0  0
 37 31  2  0  0  0  0
 39 38  3  0  0  0  0
M  END
>  <minimizedAffinity>
-5.90826273

>  <minimizedRMSD>
0.0491481721

$$$$
