
 OpenBabel03242520123D

 32 34  0  0  0  0  0  0  0  0999 V2000
   46.1380   32.5740   46.9350 C   0  0  0  0  0  0  0  0  0  0  0  0
   45.2130   32.5860   47.9310 C   0  0  0  0  0  0  0  0  0  0  0  0
   45.4090   31.7610   49.0230 C   0  0  0  0  0  0  0  0  0  0  0  0
   46.5240   30.9410   49.0980 C   0  0  0  0  0  0  0  0  0  0  0  0
   47.4530   30.9620   48.0450 C   0  0  0  0  0  0  0  0  0  0  0  0
   47.2300   31.7590   47.0280 N   0  0  0  0  0  0  0  0  0  0  0  0
   44.3550   33.2390   47.8380 H   0  0  0  0  0  0  0  0  0  0  0  0
   44.6900   31.7460   49.8340 H   0  0  0  0  0  0  0  0  0  0  0  0
   46.6970   30.2880   49.9430 H   0  0  0  0  0  0  0  0  0  0  0  0
   44.9240   35.0300   44.5300 C   0  0  0  0  0  0  0  0  0  0  0  0
   45.8900   34.9160   43.5030 C   0  0  0  0  0  0  0  0  0  0  0  0
   46.9520   34.0060   43.6230 C   0  0  0  0  0  0  0  0  0  0  0  0
   46.9460   33.2950   44.7660 N   0  0  0  0  0  0  0  0  0  0  0  0
   46.0430   33.4050   45.7240 C   0  0  0  0  0  0  0  0  0  0  0  0
   45.0420   34.2650   45.6060 N   0  0  0  0  0  0  0  0  0  0  0  0
   43.8680   35.9720   44.3400 N   0  0  0  0  0  0  0  0  0  0  0  0
   45.8340   35.5140   42.6190 H   0  0  0  0  0  0  0  0  0  0  0  0
   47.6910   33.9030   42.8620 H   0  0  0  0  0  0  0  0  0  0  0  0
   43.6510   36.3260   43.3850 H   0  0  0  0  0  0  0  0  0  0  0  0
   43.3420   36.2720   45.2130 H   0  0  0  0  0  0  0  0  0  0  0  0
   48.6370   30.1180   48.0820 C   0  0  0  0  0  3  0  0  0  0  0  0
   49.6730   30.3600   48.8700 C   0  0  0  0  0  3  0  0  0  0  0  0
   49.7130   31.5300   49.7980 C   0  0  0  0  0  0  0  0  0  0  0  0
   49.4800   31.1780   50.8100 H   0  0  0  0  0  0  0  0  0  0  0  0
   49.0500   32.3320   49.4520 H   0  0  0  0  0  0  0  0  0  0  0  0
   51.1240   32.0460   49.7100 C   0  0  0  0  0  0  0  0  0  0  0  0
   52.1560   31.3900   49.1610 N   0  0  0  0  0  0  0  0  0  0  0  0
   53.2350   32.1700   49.2760 C   0  0  0  0  0  0  0  0  0  0  0  0
   54.2220   31.9370   48.9350 H   0  0  0  0  0  0  0  0  0  0  0  0
   52.8450   33.3030   49.9000 N   0  0  0  0  0  0  0  0  0  0  0  0
   53.4090   34.1400   50.1600 H   0  0  0  0  0  0  0  0  0  0  0  0
   51.5420   33.2360   50.1720 N   0  0  0  0  0  0  0  0  0  0  0  0
  1  6  2  0  0  0  0
  1  2  1  0  0  0  0
  2  3  2  0  0  0  0
  3  4  1  0  0  0  0
  3  8  1  0  0  0  0
  4  9  1  0  0  0  0
  5 21  1  0  0  0  0
  5  4  2  0  0  0  0
  6  5  1  0  0  0  0
  7  2  1  0  0  0  0
 10 15  1  0  0  0  0
 11 12  1  0  0  0  0
 11 10  2  0  0  0  0
 12 13  2  0  0  0  0
 13 14  1  0  0  0  0
 14  1  1  0  0  0  0
 15 14  2  0  0  0  0
 16 10  1  0  0  0  0
 16 20  1  0  0  0  0
 17 11  1  0  0  0  0
 18 12  1  0  0  0  0
 19 16  1  0  0  0  0
 21 22  2  0  0  0  0
 22 23  1  0  0  0  0
 23 24  1  0  0  0  0
 25 23  1  0  0  0  0
 26 23  1  0  0  0  0
 26 32  2  0  0  0  0
 27 28  2  0  0  0  0
 27 26  1  0  0  0  0
 28 30  1  0  0  0  0
 29 28  1  0  0  0  0
 30 31  1  0  0  0  0
 30 32  1  0  0  0  0
M  END
>  <minimizedAffinity>
-6.2788558

>  <minimizedRMSD>
0.804422855

$$$$
