
 OpenBabel03252506563D

 36 40  0  0  0  0  0  0  0  0999 V2000
   47.2250   31.2350   45.2090 C   0  0  0  0  0  0  0  0  0  0  0  0
   46.9200   32.5770   45.1450 C   0  0  0  0  0  0  0  0  0  0  0  0
   46.3480   33.2620   46.1940 C   0  0  0  0  0  0  0  0  0  0  0  0
   46.0480   32.6040   47.3910 C   0  0  0  0  0  0  0  0  0  0  0  0
   45.5030   32.9450   48.5860 N   0  0  0  0  0  0  0  0  0  0  0  0
   45.4720   31.8330   49.3700 C   0  0  0  0  0  0  0  0  0  0  0  0
   46.0000   30.8260   48.6410 N   0  0  0  0  0  0  0  0  0  0  0  0
   46.3630   31.2630   47.4250 C   0  0  0  0  0  0  0  0  0  0  0  0
   46.9260   30.5640   46.4090 C   0  0  0  0  0  0  0  0  0  0  0  0
   47.6740   30.6990   44.3860 H   0  0  0  0  0  0  0  0  0  0  0  0
   46.0940   34.3230   46.1800 H   0  0  0  0  0  0  0  0  0  0  0  0
   45.1910   33.9400   48.7600 H   0  0  0  0  0  0  0  0  0  0  0  0
   45.0830   31.8380   50.3750 H   0  0  0  0  0  0  0  0  0  0  0  0
   46.6960   35.0430   42.4230 C   0  0  0  0  0  0  0  0  0  0  0  0
   47.7820   34.7030   41.6160 C   0  0  0  0  0  0  0  0  0  0  0  0
   48.5900   33.6230   42.0110 C   0  0  0  0  0  0  0  0  0  0  0  0
   48.2770   32.9550   43.1680 N   0  0  0  0  0  0  0  0  0  0  0  0
   47.2100   33.3210   43.9230 C   0  0  0  0  0  0  0  0  0  0  0  0
   46.4400   34.3480   43.5510 N   0  0  0  0  0  0  0  0  0  0  0  0
   46.0900   35.8800   42.0950 H   0  0  0  0  0  0  0  0  0  0  0  0
   48.0700   35.1970   40.6970 H   0  0  0  0  0  0  0  0  0  0  0  0
   49.4380   33.2800   41.4740 H   0  0  0  0  0  0  0  0  0  0  0  0
   47.2240   29.1290   46.5460 C   0  0  0  0  0  0  0  0  0  0  0  0
   48.3880   28.5240   46.1080 C   0  0  0  0  0  0  0  0  0  0  0  0
   48.2170   27.1780   46.4520 C   0  0  0  0  0  0  0  0  0  0  0  0
   46.9750   27.0420   47.0740 C   0  0  0  0  0  0  0  0  0  0  0  0
   46.4180   28.2520   47.1040 O   0  0  0  0  0  0  0  0  0  0  0  0
   49.2250   28.9770   45.6180 H   0  0  0  0  0  0  0  0  0  0  0  0
   48.9140   26.3700   46.2760 H   0  0  0  0  0  0  0  0  0  0  0  0
   46.4530   25.7760   47.5710 C   0  0  0  0  0  0  0  0  0  0  0  0
   45.5620   24.8360   47.1940 N   0  0  0  0  0  0  0  0  0  0  0  0
   45.5310   23.8620   48.1250 C   0  0  0  0  0  0  0  0  0  0  0  0
   44.9270   22.9750   48.1210 H   0  0  0  0  0  0  0  0  0  0  0  0
   46.4170   24.1980   49.0980 N   0  0  0  0  0  0  0  0  0  0  0  0
   46.6320   23.6410   49.9730 H   0  0  0  0  0  0  0  0  0  0  0  0
   46.9600   25.3500   48.7450 N   0  0  0  0  0  0  0  0  0  0  0  0
  1  9  1  0  0  0  0
  2  1  2  0  0  0  0
  2  3  1  0  0  0  0
  3  4  2  0  0  0  0
  4  8  1  0  0  0  0
  4  5  1  0  0  0  0
  5 12  1  0  0  0  0
  5  6  1  0  0  0  0
  6 13  1  0  0  0  0
  7  6  2  0  0  0  0
  8  7  1  0  0  0  0
  9 23  1  0  0  0  0
  9  8  2  0  0  0  0
 10  1  1  0  0  0  0
 11  3  1  0  0  0  0
 14 19  1  0  0  0  0
 15 16  1  0  0  0  0
 15 14  2  0  0  0  0
 16 17  2  0  0  0  0
 17 18  1  0  0  0  0
 18  2  1  0  0  0  0
 19 18  2  0  0  0  0
 20 14  1  0  0  0  0
 21 15  1  0  0  0  0
 22 16  1  0  0  0  0
 23 27  1  0  0  0  0
 24 25  1  0  0  0  0
 24 23  2  0  0  0  0
 25 26  2  0  0  0  0
 26 27  1  0  0  0  0
 26 30  1  0  0  0  0
 28 24  1  0  0  0  0
 29 25  1  0  0  0  0
 30 36  2  0  0  0  0
 31 30  1  0  0  0  0
 31 32  2  0  0  0  0
 32 34  1  0  0  0  0
 33 32  1  0  0  0  0
 34 35  1  0  0  0  0
 36 34  1  0  0  0  0
M  END
>  <minimizedAffinity>
-5.60093784

>  <minimizedRMSD>
0.833051443

$$$$
