
 OpenBabel03242520123D

 32 34  0  0  0  0  0  0  0  0999 V2000
   46.2160   32.5570   47.0070 C   0  0  0  0  0  0  0  0  0  0  0  0
   45.2660   32.5150   47.9770 C   0  0  0  0  0  0  0  0  0  0  0  0
   45.4860   31.7140   49.0820 C   0  0  0  0  0  0  0  0  0  0  0  0
   46.6500   30.9700   49.1940 C   0  0  0  0  0  0  0  0  0  0  0  0
   47.6040   31.0430   48.1650 C   0  0  0  0  0  0  0  0  0  0  0  0
   47.3560   31.8150   47.1350 N   0  0  0  0  0  0  0  0  0  0  0  0
   44.3700   33.1100   47.8560 H   0  0  0  0  0  0  0  0  0  0  0  0
   44.7490   31.6580   49.8740 H   0  0  0  0  0  0  0  0  0  0  0  0
   46.8430   30.3350   50.0490 H   0  0  0  0  0  0  0  0  0  0  0  0
   44.9610   34.9800   44.5900 C   0  0  0  0  0  0  0  0  0  0  0  0
   45.9070   34.8490   43.5460 C   0  0  0  0  0  0  0  0  0  0  0  0
   46.9700   33.9390   43.6590 C   0  0  0  0  0  0  0  0  0  0  0  0
   46.9840   33.2450   44.8120 N   0  0  0  0  0  0  0  0  0  0  0  0
   46.1000   33.3710   45.7850 C   0  0  0  0  0  0  0  0  0  0  0  0
   45.0990   34.2300   45.6740 N   0  0  0  0  0  0  0  0  0  0  0  0
   43.9030   35.9210   44.4060 N   0  0  0  0  0  0  0  0  0  0  0  0
   45.8350   35.4340   42.6540 H   0  0  0  0  0  0  0  0  0  0  0  0
   47.6930   33.8240   42.8850 H   0  0  0  0  0  0  0  0  0  0  0  0
   43.6680   36.2630   43.4500 H   0  0  0  0  0  0  0  0  0  0  0  0
   43.3940   36.2350   45.2840 H   0  0  0  0  0  0  0  0  0  0  0  0
   48.8390   30.2790   48.2410 C   0  0  0  0  0  3  0  0  0  0  0  0
   49.8650   30.6370   48.9980 C   0  0  0  0  0  3  0  0  0  0  0  0
   49.8390   31.8650   49.8470 C   0  0  0  0  0  0  0  0  0  0  0  0
   49.5020   31.5850   50.8520 H   0  0  0  0  0  0  0  0  0  0  0  0
   49.2310   32.6510   49.3870 H   0  0  0  0  0  0  0  0  0  0  0  0
   51.2630   32.3530   49.8650 C   0  0  0  0  0  0  0  0  0  0  0  0
   51.7470   33.3000   50.6780 N   0  0  0  0  0  0  0  0  0  0  0  0
   53.0430   33.4530   50.3940 C   0  0  0  0  0  0  0  0  0  0  0  0
   53.7190   34.1340   50.8660 H   0  0  0  0  0  0  0  0  0  0  0  0
   53.3390   32.5880   49.3990 N   0  0  0  0  0  0  0  0  0  0  0  0
   54.2480   32.4220   48.9170 H   0  0  0  0  0  0  0  0  0  0  0  0
   52.2450   31.9030   49.0650 N   0  0  0  0  0  0  0  0  0  0  0  0
  1  6  2  0  0  0  0
  1  2  1  0  0  0  0
  2  3  2  0  0  0  0
  3  4  1  0  0  0  0
  3  8  1  0  0  0  0
  4  9  1  0  0  0  0
  5 21  1  0  0  0  0
  5  4  2  0  0  0  0
  6  5  1  0  0  0  0
  7  2  1  0  0  0  0
 10 15  1  0  0  0  0
 11 12  1  0  0  0  0
 11 10  2  0  0  0  0
 12 13  2  0  0  0  0
 13 14  1  0  0  0  0
 14  1  1  0  0  0  0
 15 14  2  0  0  0  0
 16 10  1  0  0  0  0
 16 20  1  0  0  0  0
 17 11  1  0  0  0  0
 18 12  1  0  0  0  0
 19 16  1  0  0  0  0
 21 22  2  0  0  0  0
 22 23  1  0  0  0  0
 23 26  1  0  0  0  0
 23 24  1  0  0  0  0
 25 23  1  0  0  0  0
 26 27  1  0  0  0  0
 28 27  2  0  0  0  0
 28 29  1  0  0  0  0
 30 28  1  0  0  0  0
 31 30  1  0  0  0  0
 32 30  1  0  0  0  0
 32 26  2  0  0  0  0
M  END
>  <minimizedAffinity>
-6.1813159

>  <minimizedRMSD>
0.834715605

$$$$
