
 OpenBabel03242511513D

 25 27  0  0  1  0  0  0  0  0999 V2000
   44.6670   34.0270   41.3010 C   0  0  1  0  0  0  0  0  0  0  0  0
   45.8850   34.0600   40.4360 C   0  0  2  0  0  0  0  0  0  0  0  0
   45.2410   32.7680   40.7490 C   0  0  0  0  0  0  0  0  0  0  0  0
   43.7770   34.5150   40.8630 H   0  0  0  0  0  0  0  0  0  0  0  0
   45.6570   34.4890   39.4140 H   0  0  0  0  0  0  0  0  0  0  0  0
   44.6400   32.2190   39.9970 H   0  0  0  0  0  0  0  0  0  0  0  0
   45.7240   32.0760   41.4830 H   0  0  0  0  0  0  0  0  0  0  0  0
   44.4630   35.6050   43.2040 C   0  0  0  0  0  0  0  0  0  0  0  0
   44.7870   34.3190   42.7600 C   0  0  0  0  0  0  0  0  0  0  0  0
   45.2070   33.3830   43.6940 C   0  0  0  0  0  0  0  0  0  0  0  0
   45.2820   33.7750   45.0060 N   0  0  0  0  0  0  0  0  0  0  0  0
   44.9610   35.0260   45.3930 C   0  0  0  0  0  0  0  0  0  0  0  0
   44.5420   35.9670   44.4840 N   0  0  0  0  0  0  0  0  0  0  0  0
   44.1240   36.3990   42.5490 H   0  0  0  0  0  0  0  0  0  0  0  0
   45.4520   32.4010   43.3470 H   0  0  0  0  0  0  0  0  0  0  0  0
   45.0440   35.2690   46.4570 H   0  0  0  0  0  0  0  0  0  0  0  0
   47.1730   34.3590   41.0070 C   0  0  0  0  0  0  0  0  0  0  0  0
   47.9600   34.7690   40.1510 O   0  0  0  0  0  0  0  0  0  0  0  0
   48.3270   34.5580   41.8760 C   0  0  0  0  0  0  0  0  0  0  0  0
   49.2970   34.7810   42.6630 N   0  0  0  0  0  0  0  0  0  0  0  0
   50.4260   34.1050   42.5420 C   0  0  0  0  0  0  0  0  0  0  0  0
   51.0900   34.4860   43.3340 H   0  0  0  0  0  0  0  0  0  0  0  0
   50.1890   33.2990   41.5170 N   0  0  0  0  0  0  0  0  0  0  0  0
   51.1120   32.7480   41.4040 H   0  0  0  0  0  0  0  0  0  0  0  0
   48.9780   33.6210   41.2000 N   0  0  0  0  0  0  0  0  0  0  0  0
  1  4  1  6  0  0  0
  1  9  1  0  0  0  0
  2  5  1  6  0  0  0
  2  3  1  0  0  0  0
  2 17  1  0  0  0  0
  2  1  1  0  0  0  0
  3  1  1  0  0  0  0
  3  7  1  0  0  0  0
  6  3  1  0  0  0  0
  8 13  1  0  0  0  0
  9  8  2  0  0  0  0
  9 10  1  0  0  0  0
 10 11  2  0  0  0  0
 11 12  1  0  0  0  0
 12 16  1  0  0  0  0
 13 12  2  0  0  0  0
 14  8  1  0  0  0  0
 15 10  1  0  0  0  0
 17 19  1  0  0  0  0
 18 17  2  0  0  0  0
 19 20  1  0  0  0  0
 21 20  2  0  0  0  0
 21 22  1  0  0  0  0
 23 21  1  0  0  0  0
 24 23  1  0  0  0  0
 25 23  1  0  0  0  0
 25 19  2  0  0  0  0
M  END
>  <minimizedAffinity>
-4.4860487

>  <minimizedRMSD>
1.77263641

$$$$
