
 OpenBabel03252509033D

 46 48  0  0  1  0  0  0  0  0999 V2000
   47.2050   34.1050   43.0780 N   0  0  0  0  0  0  0  0  0  0  0  0
   46.7190   35.3090   42.5120 C   0  0  0  0  0  0  0  0  0  0  0  0
   45.2510   35.5640   42.7360 C   0  0  0  0  0  0  0  0  0  0  0  0
   44.7150   35.0460   44.0510 C   0  0  0  0  0  0  0  0  0  0  0  0
   45.8200   34.4580   44.9000 C   0  0  0  0  0  0  0  0  0  0  0  0
   46.4440   33.3630   43.9620 C   0  0  2  0  0  0  0  0  0  0  0  0
   47.2400   36.1530   43.0470 H   0  0  0  0  0  0  0  0  0  0  0  0
   46.9220   35.4690   41.4520 H   0  0  0  0  0  0  0  0  0  0  0  0
   45.0400   36.6480   42.6020 H   0  0  0  0  0  0  0  0  0  0  0  0
   44.7150   35.0450   41.9030 H   0  0  0  0  0  0  0  0  0  0  0  0
   44.2640   35.9210   44.5990 H   0  0  0  0  0  0  0  0  0  0  0  0
   43.9260   34.3070   43.9210 H   0  0  0  0  0  0  0  0  0  0  0  0
   46.6080   35.1780   45.1370 H   0  0  0  0  0  0  0  0  0  0  0  0
   45.3600   33.9470   45.7630 H   0  0  0  0  0  0  0  0  0  0  0  0
   45.5710   32.8030   43.5720 H   0  0  0  0  0  0  0  0  0  0  0  0
   48.1700   33.4170   42.2570 C   0  0  0  0  0  0  0  0  0  0  0  0
   48.9150   34.1280   41.8600 H   0  0  0  0  0  0  0  0  0  0  0  0
   48.7180   32.7280   42.9610 H   0  0  0  0  0  0  0  0  0  0  0  0
   47.4590   32.6160   41.2330 C   0  0  0  0  0  0  0  0  0  0  0  0
   47.5140   31.5380   41.4370 H   0  0  0  0  0  0  0  0  0  0  0  0
   46.3550   32.8440   41.2010 H   0  0  0  0  0  0  0  0  0  0  0  0
   49.3580   32.2820   38.0100 C   0  0  0  0  0  0  0  0  0  0  0  0
   48.8320   32.0090   39.2860 C   0  0  0  0  0  0  0  0  0  0  0  0
   48.0060   32.9150   39.8880 C   0  0  0  0  0  0  0  0  0  0  0  0
   47.7310   34.0430   39.2170 N   0  0  0  0  0  0  0  0  0  0  0  0
   48.2310   34.3050   37.9990 C   0  0  0  0  0  0  0  0  0  0  0  0
   49.0450   33.4360   37.3820 N   0  0  0  0  0  0  0  0  0  0  0  0
   50.0080   31.4790   37.6300 H   0  0  0  0  0  0  0  0  0  0  0  0
   49.0670   31.0890   39.8120 H   0  0  0  0  0  0  0  0  0  0  0  0
   48.0140   35.2220   37.4420 H   0  0  0  0  0  0  0  0  0  0  0  0
   47.2210   32.6500   44.8600 O   0  0  0  0  0  0  0  0  0  0  0  0
   45.9900   30.4640   43.9940 O   0  0  0  0  0  0  0  0  0  0  0  0
   46.5650   31.1400   45.2350 P   0  0  2  0  0  0  0  0  0  0  0  0
   45.2450   31.4290   46.2690 O   0  0  0  0  0  0  0  0  0  0  0  0
   44.4920   31.8480   45.8000 H   0  0  0  0  0  0  0  0  0  0  0  0
   47.6520   30.1530   46.0300 O   0  0  0  0  0  0  0  0  0  0  0  0
   47.3390   28.8290   45.8070 C   0  0  0  0  0  0  0  0  0  0  0  0
   48.2620   28.2660   45.6410 H   0  0  0  0  0  0  0  0  0  0  0  0
   46.8040   28.8030   44.8120 H   0  0  0  0  0  0  0  0  0  0  0  0
   46.4580   28.2240   46.8260 C   0  0  0  0  0  0  0  0  0  0  0  0
   46.3720   26.8780   46.9450 N   0  0  0  0  0  0  0  0  0  0  0  0
   45.5090   26.5560   47.9370 C   0  0  0  0  0  0  0  0  0  0  0  0
   45.2940   25.5130   48.2000 H   0  0  0  0  0  0  0  0  0  0  0  0
   45.0560   27.7340   48.4380 N   0  0  0  0  0  0  0  0  0  0  0  0
   44.3690   27.7820   49.2220 H   0  0  0  0  0  0  0  0  0  0  0  0
   45.6290   28.7030   47.7650 N   0  0  0  0  0  0  0  0  0  0  0  0
  1  6  1  0  0  0  0
  2  3  1  0  0  0  0
  2  7  1  0  0  0  0
  2  1  1  0  0  0  0
  3  4  1  0  0  0  0
  4 11  1  0  0  0  0
  4  5  1  0  0  0  0
  5 13  1  0  0  0  0
  5 14  1  0  0  0  0
  6 15  1  6  0  0  0
  6 31  1  0  0  0  0
  6  5  1  0  0  0  0
  8  2  1  0  0  0  0
  9  3  1  0  0  0  0
 10  3  1  0  0  0  0
 12  4  1  0  0  0  0
 16 18  1  0  0  0  0
 16  1  1  0  0  0  0
 17 16  1  0  0  0  0
 19 20  1  0  0  0  0
 19 16  1  0  0  0  0
 21 19  1  0  0  0  0
 22 23  1  0  0  0  0
 23 29  1  0  0  0  0
 23 24  2  0  0  0  0
 24 19  1  0  0  0  0
 25 24  1  0  0  0  0
 26 25  2  0  0  0  0
 27 26  1  0  0  0  0
 27 22  2  0  0  0  0
 28 22  1  0  0  0  0
 30 26  1  0  0  0  0
 31 33  1  0  0  0  0
 33 32  2  6  0  0  0
 33 36  1  0  0  0  0
 33 34  1  0  0  0  0
 35 34  1  0  0  0  0
 37 36  1  0  0  0  0
 37 40  1  0  0  0  0
 38 37  1  0  0  0  0
 39 37  1  0  0  0  0
 40 41  1  0  0  0  0
 40 46  2  0  0  0  0
 41 42  2  0  0  0  0
 42 43  1  0  0  0  0
 42 44  1  0  0  0  0
 44 45  1  0  0  0  0
 46 44  1  0  0  0  0
M  END
>  <minimizedAffinity>
-4.16633177

>  <minimizedRMSD>
0.988419116

$$$$
