
 OpenBabel03252503303D

 35 37  0  0  1  0  0  0  0  0999 V2000
   45.3840   34.6640   42.3520 C   0  0  0  0  0  0  0  0  0  0  0  0
   46.5040   35.2740   41.7220 C   0  0  0  0  0  0  0  0  0  0  0  0
   47.7670   34.9150   42.1900 C   0  0  0  0  0  0  0  0  0  0  0  0
   47.8310   34.0190   43.2010 N   0  0  0  0  0  0  0  0  0  0  0  0
   46.7510   33.4600   43.7760 C   0  0  0  0  0  0  0  0  0  0  0  0
   45.5170   33.7910   43.3400 N   0  0  0  0  0  0  0  0  0  0  0  0
   43.7480   34.3340   40.7060 C   0  0  0  0  0  0  0  0  0  0  0  0
   44.6230   33.6350   40.1510 O   0  0  0  0  0  0  0  0  0  0  0  0
   44.0590   34.9720   41.9360 N   0  0  0  0  0  0  0  0  0  0  0  0
   42.4870   34.4290   40.0410 N   0  0  0  0  0  0  0  0  0  0  0  0
   42.3280   34.0060   38.6680 C   0  0  0  0  0  0  0  0  0  0  0  0
   41.2820   34.9900   38.1670 C   0  0  0  0  0  0  0  0  0  0  0  0
   40.7870   35.7730   39.3550 C   0  0  0  0  0  0  0  0  0  0  0  0
   41.2060   34.9200   40.5310 C   0  0  1  0  0  0  0  0  0  0  0  0
   46.3160   35.9900   40.9070 H   0  0  0  0  0  0  0  0  0  0  0  0
   46.8890   32.7450   44.5870 H   0  0  0  0  0  0  0  0  0  0  0  0
   43.3270   35.5620   42.3760 H   0  0  0  0  0  0  0  0  0  0  0  0
   43.2580   34.0700   38.0760 H   0  0  0  0  0  0  0  0  0  0  0  0
   41.9060   32.9880   38.5620 H   0  0  0  0  0  0  0  0  0  0  0  0
   41.7960   35.6850   37.4910 H   0  0  0  0  0  0  0  0  0  0  0  0
   40.4760   34.4950   37.5930 H   0  0  0  0  0  0  0  0  0  0  0  0
   39.7060   35.9160   39.2590 H   0  0  0  0  0  0  0  0  0  0  0  0
   41.2870   36.7610   39.4270 H   0  0  0  0  0  0  0  0  0  0  0  0
   41.4260   35.5900   41.3640 H   0  0  0  0  0  0  0  0  0  0  0  0
   40.2520   33.8660   40.8690 C   0  0  0  0  0  0  0  0  0  0  0  0
   40.4740   32.7070   41.4860 N   0  0  0  0  0  0  0  0  0  0  0  0
   39.2640   32.0800   41.5640 C   0  0  0  0  0  0  0  0  0  0  0  0
   38.9180   31.1340   41.9680 H   0  0  0  0  0  0  0  0  0  0  0  0
   38.3210   32.8440   41.0060 N   0  0  0  0  0  0  0  0  0  0  0  0
   37.2950   32.7400   40.8610 H   0  0  0  0  0  0  0  0  0  0  0  0
   38.9210   33.9500   40.5740 N   0  0  0  0  0  0  0  0  0  0  0  0
   48.8860   35.5580   41.5250 C   0  0  0  0  0  0  0  0  0  0  0  0
   50.0650   34.8980   41.8480 F   0  0  0  0  0  0  0  0  0  0  0  0
   49.0280   36.8290   42.0910 F   0  0  0  0  0  0  0  0  0  0  0  0
   48.7730   35.5720   40.1600 F   0  0  0  0  0  0  0  0  0  0  0  0
  1  6  1  0  0  0  0
  2  3  1  0  0  0  0
  2  1  2  0  0  0  0
  3  4  2  0  0  0  0
  4  5  1  0  0  0  0
  5 16  1  0  0  0  0
  6  5  2  0  0  0  0
  7  9  1  0  0  0  0
  8  7  2  0  0  0  0
  9  1  1  0  0  0  0
  9 17  1  0  0  0  0
 10 14  1  0  0  0  0
 10  7  1  0  0  0  0
 11 10  1  0  0  0  0
 12 11  1  0  0  0  0
 12 13  1  0  0  0  0
 13 23  1  0  0  0  0
 13 14  1  0  0  0  0
 14 25  1  0  0  0  0
 14 24  1  1  0  0  0
 15  2  1  0  0  0  0
 18 11  1  0  0  0  0
 19 11  1  0  0  0  0
 20 12  1  0  0  0  0
 21 12  1  0  0  0  0
 22 13  1  0  0  0  0
 25 26  1  0  0  0  0
 26 27  2  0  0  0  0
 27 28  1  0  0  0  0
 29 27  1  0  0  0  0
 30 29  1  0  0  0  0
 31 25  2  0  0  0  0
 31 29  1  0  0  0  0
 32 33  1  0  0  0  0
 32 34  1  0  0  0  0
 32  3  1  0  0  0  0
 35 32  1  0  0  0  0
M  END
>  <minimizedAffinity>
-7.14723873

>  <minimizedRMSD>
1.31490052

$$$$
