
 OpenBabel03242518193D

 28 30  0  0  0  0  0  0  0  0999 V2000
   47.5570   34.1210   43.3100 C   0  0  0  0  0  0  0  0  0  0  0  0
   48.2470   34.0190   42.4560 H   0  0  0  0  0  0  0  0  0  0  0  0
   47.9780   34.9110   43.9680 H   0  0  0  0  0  0  0  0  0  0  0  0
   44.2170   35.6410   43.3950 C   0  0  0  0  0  0  0  0  0  0  0  0
   43.7290   35.4310   42.1060 C   0  0  0  0  0  0  0  0  0  0  0  0
   44.5430   34.7670   41.2030 C   0  0  0  0  0  0  0  0  0  0  0  0
   45.7580   34.3580   41.6080 N   0  0  0  0  0  0  0  0  0  0  0  0
   46.2040   34.5790   42.8710 C   0  0  0  0  0  0  0  0  0  0  0  0
   45.4170   35.2300   43.7710 N   0  0  0  0  0  0  0  0  0  0  0  0
   43.6540   36.1530   44.1770 H   0  0  0  0  0  0  0  0  0  0  0  0
   44.1560   34.6070   40.2060 H   0  0  0  0  0  0  0  0  0  0  0  0
   42.4280   35.9180   41.8250 N   0  0  0  0  0  0  0  0  0  0  0  0
   42.2190   36.8700   41.4510 H   0  0  0  0  0  0  0  0  0  0  0  0
   41.7370   35.1720   42.0550 H   0  0  0  0  0  0  0  0  0  0  0  0
   47.4480   32.8350   44.0680 C   0  0  0  0  0  0  0  0  0  0  0  0
   47.6370   31.5950   43.5150 C   0  0  0  0  0  0  0  0  0  0  0  0
   47.4550   30.6500   44.5140 C   0  0  0  0  0  0  0  0  0  0  0  0
   47.1570   31.3840   45.6480 C   0  0  0  0  0  0  0  0  0  0  0  0
   47.1680   32.6360   45.3320 O   0  0  0  0  0  0  0  0  0  0  0  0
   47.8810   31.2830   42.5150 H   0  0  0  0  0  0  0  0  0  0  0  0
   47.4930   29.5730   44.5810 H   0  0  0  0  0  0  0  0  0  0  0  0
   46.8540   31.0630   47.0430 C   0  0  0  0  0  0  0  0  0  0  0  0
   47.8170   31.3930   47.9250 N   0  0  0  0  0  0  0  0  0  0  0  0
   47.3930   31.0360   49.1540 C   0  0  0  0  0  0  0  0  0  0  0  0
   47.9560   31.1750   50.0890 H   0  0  0  0  0  0  0  0  0  0  0  0
   46.1790   30.4920   49.0220 N   0  0  0  0  0  0  0  0  0  0  0  0
   45.6050   30.1240   49.8110 H   0  0  0  0  0  0  0  0  0  0  0  0
   45.8490   30.5100   47.7210 N   0  0  0  0  0  0  0  0  0  0  0  0
  1  3  1  0  0  0  0
  1 15  1  0  0  0  0
  2  1  1  0  0  0  0
  4  9  1  0  0  0  0
  4 10  1  0  0  0  0
  5  4  2  0  0  0  0
  6  7  2  0  0  0  0
  6  5  1  0  0  0  0
  7  8  1  0  0  0  0
  8  1  1  0  0  0  0
  8  9  2  0  0  0  0
 11  6  1  0  0  0  0
 12 14  1  0  0  0  0
 12  5  1  0  0  0  0
 13 12  1  0  0  0  0
 15 19  1  0  0  0  0
 16 15  2  0  0  0  0
 16 17  1  0  0  0  0
 17 21  1  0  0  0  0
 17 18  2  0  0  0  0
 18 22  1  0  0  0  0
 19 18  1  0  0  0  0
 20 16  1  0  0  0  0
 22 28  2  0  0  0  0
 22 23  1  0  0  0  0
 23 24  2  0  0  0  0
 24 25  1  0  0  0  0
 26 24  1  0  0  0  0
 26 27  1  0  0  0  0
 28 26  1  0  0  0  0
M  END
>  <minimizedAffinity>
-4.66462803

>  <minimizedRMSD>
3.26040483

$$$$
