
 OpenBabel03242510303D

 32 34  0  0  1  0  0  0  0  0999 V2000
   36.5470   28.3280   41.1420 C   0  0  1  0  0  0  0  0  0  0  0  0
   36.7420   26.9750   41.7770 C   0  0  0  0  0  0  0  0  0  0  0  0
   36.6470   27.2200   43.2790 C   0  0  0  0  0  0  0  0  0  0  0  0
   37.8800   28.0020   43.6780 C   0  0  0  0  0  0  0  0  0  0  0  0
   38.0440   29.2720   42.9190 C   0  0  0  0  0  0  0  0  0  0  0  0
   37.7260   29.2210   41.4690 C   0  0  2  0  0  0  0  0  0  0  0  0
   35.6340   28.7710   41.5770 H   0  0  0  0  0  0  0  0  0  0  0  0
   36.0080   26.2410   41.4460 H   0  0  0  0  0  0  0  0  0  0  0  0
   37.7830   26.5890   41.6240 H   0  0  0  0  0  0  0  0  0  0  0  0
   36.7240   26.2310   43.7490 H   0  0  0  0  0  0  0  0  0  0  0  0
   35.7340   27.7650   43.5230 H   0  0  0  0  0  0  0  0  0  0  0  0
   38.7460   27.3030   43.6210 H   0  0  0  0  0  0  0  0  0  0  0  0
   37.7660   28.2500   44.7590 H   0  0  0  0  0  0  0  0  0  0  0  0
   37.4010   30.0570   43.3860 H   0  0  0  0  0  0  0  0  0  0  0  0
   39.0940   29.6180   43.0250 H   0  0  0  0  0  0  0  0  0  0  0  0
   38.6080   28.7790   40.9540 H   0  0  0  0  0  0  0  0  0  0  0  0
   35.2440   28.4690   37.5800 C   0  0  0  0  0  0  0  0  0  0  0  0
   35.2500   28.5970   38.9670 C   0  0  0  0  0  0  0  0  0  0  0  0
   36.4140   28.2420   39.6760 C   0  0  0  0  0  0  0  0  0  0  0  0
   37.4600   27.7930   38.9290 N   0  0  0  0  0  0  0  0  0  0  0  0
   37.4340   27.6770   37.5960 C   0  0  0  0  0  0  0  0  0  0  0  0
   36.3330   28.0110   36.9060 N   0  0  0  0  0  0  0  0  0  0  0  0
   34.3560   28.7400   37.0370 H   0  0  0  0  0  0  0  0  0  0  0  0
   34.4150   28.9530   39.5360 H   0  0  0  0  0  0  0  0  0  0  0  0
   38.3100   27.3100   37.0710 H   0  0  0  0  0  0  0  0  0  0  0  0
   37.4710   30.5680   40.9520 C   0  0  0  0  0  0  0  0  0  0  0  0
   38.4280   31.2370   40.2810 N   0  0  0  0  0  0  0  0  0  0  0  0
   37.9360   32.4530   39.9160 C   0  0  0  0  0  0  0  0  0  0  0  0
   38.4080   33.2750   39.3600 H   0  0  0  0  0  0  0  0  0  0  0  0
   36.6830   32.4740   40.3860 N   0  0  0  0  0  0  0  0  0  0  0  0
   35.9680   33.2190   40.3210 H   0  0  0  0  0  0  0  0  0  0  0  0
   36.3840   31.3310   41.0210 N   0  0  0  0  0  0  0  0  0  0  0  0
  1  6  1  0  0  0  0
  1  7  1  1  0  0  0
  1  2  1  0  0  0  0
  2  3  1  0  0  0  0
  3 11  1  0  0  0  0
  3  4  1  0  0  0  0
  3 10  1  0  0  0  0
  4 13  1  0  0  0  0
  5 15  1  0  0  0  0
  5 14  1  0  0  0  0
  5  4  1  0  0  0  0
  6 16  1  6  0  0  0
  6  5  1  0  0  0  0
  8  2  1  0  0  0  0
  9  2  1  0  0  0  0
 12  4  1  0  0  0  0
 17 18  1  0  0  0  0
 18 24  1  0  0  0  0
 18 19  2  0  0  0  0
 19  1  1  0  0  0  0
 20 19  1  0  0  0  0
 21 20  2  0  0  0  0
 22 17  2  0  0  0  0
 22 21  1  0  0  0  0
 23 17  1  0  0  0  0
 25 21  1  0  0  0  0
 26 32  2  0  0  0  0
 26  6  1  0  0  0  0
 27 26  1  0  0  0  0
 28 27  2  0  0  0  0
 28 30  1  0  0  0  0
 29 28  1  0  0  0  0
 30 32  1  0  0  0  0
 31 30  1  0  0  0  0
M  END
>  <minimizedAffinity>
-5.05635834

$$$$

 OpenBabel03242510303D

 32 34  0  0  1  0  0  0  0  0999 V2000
   36.7620   28.0290   39.7010 C   0  0  1  0  0  0  0  0  0  0  0  0
   36.2420   26.6560   39.3580 C   0  0  0  0  0  0  0  0  0  0  0  0
   35.8710   26.7260   37.8810 C   0  0  0  0  0  0  0  0  0  0  0  0
   34.6570   27.6240   37.7720 C   0  0  0  0  0  0  0  0  0  0  0  0
   34.8700   28.9770   38.3540 C   0  0  0  0  0  0  0  0  0  0  0  0
   35.6330   29.0350   39.6270 C   0  0  2  0  0  0  0  0  0  0  0  0
   37.5250   28.2940   38.9470 H   0  0  0  0  0  0  0  0  0  0  0  0
   36.9690   25.8670   39.5480 H   0  0  0  0  0  0  0  0  0  0  0  0
   35.2740   26.4350   39.8770 H   0  0  0  0  0  0  0  0  0  0  0  0
   35.5500   25.7130   37.6040 H   0  0  0  0  0  0  0  0  0  0  0  0
   36.7040   27.1120   37.2920 H   0  0  0  0  0  0  0  0  0  0  0  0
   33.7920   27.0610   38.1930 H   0  0  0  0  0  0  0  0  0  0  0  0
   34.4400   27.7380   36.6840 H   0  0  0  0  0  0  0  0  0  0  0  0
   35.4010   29.6130   37.6040 H   0  0  0  0  0  0  0  0  0  0  0  0
   33.8810   29.4510   38.5280 H   0  0  0  0  0  0  0  0  0  0  0  0
   34.9260   28.7760   40.4470 H   0  0  0  0  0  0  0  0  0  0  0  0
   37.3170   27.8570   43.4520 C   0  0  0  0  0  0  0  0  0  0  0  0
   36.6500   27.7680   42.2320 C   0  0  0  0  0  0  0  0  0  0  0  0
   37.3520   28.0800   41.0510 C   0  0  0  0  0  0  0  0  0  0  0  0
   38.6530   28.4510   41.2050 N   0  0  0  0  0  0  0  0  0  0  0  0
   39.2760   28.5310   42.3860 C   0  0  0  0  0  0  0  0  0  0  0  0
   38.6220   28.2360   43.5200 N   0  0  0  0  0  0  0  0  0  0  0  0
   36.7830   27.6190   44.3540 H   0  0  0  0  0  0  0  0  0  0  0  0
   35.6250   27.4730   42.1330 H   0  0  0  0  0  0  0  0  0  0  0  0
   40.3170   28.8350   42.4260 H   0  0  0  0  0  0  0  0  0  0  0  0
   36.1700   30.3820   39.8420 C   0  0  0  0  0  0  0  0  0  0  0  0
   36.7980   31.0360   38.8460 N   0  0  0  0  0  0  0  0  0  0  0  0
   37.1950   32.2540   39.3060 C   0  0  0  0  0  0  0  0  0  0  0  0
   37.7320   33.0680   38.7990 H   0  0  0  0  0  0  0  0  0  0  0  0
   36.7870   32.2920   40.5810 N   0  0  0  0  0  0  0  0  0  0  0  0
   36.8930   33.0420   41.2840 H   0  0  0  0  0  0  0  0  0  0  0  0
   36.1590   31.1560   40.9230 N   0  0  0  0  0  0  0  0  0  0  0  0
  1  7  1  6  0  0  0
  1 19  1  0  0  0  0
  2  8  1  0  0  0  0
  2  1  1  0  0  0  0
  2  9  1  0  0  0  0
  3  2  1  0  0  0  0
  4  3  1  0  0  0  0
  4 12  1  0  0  0  0
  4  5  1  0  0  0  0
  5 15  1  0  0  0  0
  5  6  1  0  0  0  0
  6  1  1  0  0  0  0
  6 26  1  0  0  0  0
  6 16  1  1  0  0  0
 10  3  1  0  0  0  0
 11  3  1  0  0  0  0
 13  4  1  0  0  0  0
 14  5  1  0  0  0  0
 17 22  1  0  0  0  0
 17 23  1  0  0  0  0
 18 17  2  0  0  0  0
 19 20  2  0  0  0  0
 19 18  1  0  0  0  0
 20 21  1  0  0  0  0
 21 25  1  0  0  0  0
 21 22  2  0  0  0  0
 24 18  1  0  0  0  0
 26 32  2  0  0  0  0
 27 28  2  0  0  0  0
 27 26  1  0  0  0  0
 28 30  1  0  0  0  0
 29 28  1  0  0  0  0
 30 32  1  0  0  0  0
 30 31  1  0  0  0  0
M  END
>  <minimizedAffinity>
-5.03402233

$$$$

 OpenBabel03242510303D

 32 34  0  0  1  0  0  0  0  0999 V2000
   36.7300   27.8400   39.5510 C   0  0  1  0  0  0  0  0  0  0  0  0
   36.2260   26.4750   39.1590 C   0  0  0  0  0  0  0  0  0  0  0  0
   35.7810   26.6130   37.7080 C   0  0  0  0  0  0  0  0  0  0  0  0
   34.5430   27.4840   37.7040 C   0  0  0  0  0  0  0  0  0  0  0  0
   34.7540   28.8110   38.3480 C   0  0  0  0  0  0  0  0  0  0  0  0
   35.5760   28.8210   39.5840 C   0  0  2  0  0  0  0  0  0  0  0  0
   37.4490   28.1640   38.7770 H   0  0  0  0  0  0  0  0  0  0  0  0
   36.9790   25.6960   39.2730 H   0  0  0  0  0  0  0  0  0  0  0  0
   35.2890   26.2030   39.7120 H   0  0  0  0  0  0  0  0  0  0  0  0
   35.4710   25.6080   37.3920 H   0  0  0  0  0  0  0  0  0  0  0  0
   36.5760   27.0500   37.1010 H   0  0  0  0  0  0  0  0  0  0  0  0
   33.7130   26.8780   38.1350 H   0  0  0  0  0  0  0  0  0  0  0  0
   34.2710   27.6490   36.6360 H   0  0  0  0  0  0  0  0  0  0  0  0
   35.2330   29.4980   37.6080 H   0  0  0  0  0  0  0  0  0  0  0  0
   33.7640   29.2490   38.5930 H   0  0  0  0  0  0  0  0  0  0  0  0
   34.9160   28.5010   40.4210 H   0  0  0  0  0  0  0  0  0  0  0  0
   39.2350   28.1450   42.3860 C   0  0  0  0  0  0  0  0  0  0  0  0
   38.7290   28.1920   41.0880 C   0  0  0  0  0  0  0  0  0  0  0  0
   37.3830   27.8360   40.8720 C   0  0  0  0  0  0  0  0  0  0  0  0
   36.6740   27.4680   41.9740 N   0  0  0  0  0  0  0  0  0  0  0  0
   37.1790   27.4300   43.2130 C   0  0  0  0  0  0  0  0  0  0  0  0
   38.4580   27.7660   43.4350 N   0  0  0  0  0  0  0  0  0  0  0  0
   40.2620   28.4170   42.5520 H   0  0  0  0  0  0  0  0  0  0  0  0
   39.3050   28.4850   40.2340 H   0  0  0  0  0  0  0  0  0  0  0  0
   36.5480   27.1260   44.0420 H   0  0  0  0  0  0  0  0  0  0  0  0
   36.0930   30.1680   39.8440 C   0  0  0  0  0  0  0  0  0  0  0  0
   36.7240   30.8590   38.8770 N   0  0  0  0  0  0  0  0  0  0  0  0
   37.0990   32.0680   39.3770 C   0  0  0  0  0  0  0  0  0  0  0  0
   37.6310   32.9030   38.9000 H   0  0  0  0  0  0  0  0  0  0  0  0
   36.6750   32.0630   40.6470 N   0  0  0  0  0  0  0  0  0  0  0  0
   36.7620   32.7940   41.3730 H   0  0  0  0  0  0  0  0  0  0  0  0
   36.0580   30.9090   40.9480 N   0  0  0  0  0  0  0  0  0  0  0  0
  1  7  1  6  0  0  0
  1  6  1  0  0  0  0
  1 19  1  0  0  0  0
  2  8  1  0  0  0  0
  2  1  1  0  0  0  0
  2  9  1  0  0  0  0
  3  2  1  0  0  0  0
  4  3  1  0  0  0  0
  4 12  1  0  0  0  0
  4  5  1  0  0  0  0
  5 15  1  0  0  0  0
  5  6  1  0  0  0  0
  6 26  1  0  0  0  0
  6 16  1  1  0  0  0
 10  3  1  0  0  0  0
 11  3  1  0  0  0  0
 13  4  1  0  0  0  0
 14  5  1  0  0  0  0
 17 23  1  0  0  0  0
 17 22  1  0  0  0  0
 18 17  2  0  0  0  0
 19 18  1  0  0  0  0
 19 20  2  0  0  0  0
 20 21  1  0  0  0  0
 21 22  2  0  0  0  0
 21 25  1  0  0  0  0
 24 18  1  0  0  0  0
 26 32  2  0  0  0  0
 27 28  2  0  0  0  0
 27 26  1  0  0  0  0
 28 30  1  0  0  0  0
 29 28  1  0  0  0  0
 30 32  1  0  0  0  0
 30 31  1  0  0  0  0
M  END
>  <minimizedAffinity>
-4.85079527

$$$$

 OpenBabel03242510303D

 32 34  0  0  1  0  0  0  0  0999 V2000
   36.6150   26.3340   40.2980 C   0  0  1  0  0  0  0  0  0  0  0  0
   36.6390   25.0880   39.4520 C   0  0  0  0  0  0  0  0  0  0  0  0
   36.2890   23.9500   40.4040 C   0  0  0  0  0  0  0  0  0  0  0  0
   37.4610   23.7850   41.3470 C   0  0  0  0  0  0  0  0  0  0  0  0
   37.8090   25.0340   42.0800 C   0  0  0  0  0  0  0  0  0  0  0  0
   37.7510   26.2950   41.2990 C   0  0  2  0  0  0  0  0  0  0  0  0
   35.6570   26.3440   40.8490 H   0  0  0  0  0  0  0  0  0  0  0  0
   35.9470   25.1320   38.6120 H   0  0  0  0  0  0  0  0  0  0  0  0
   37.6750   24.8450   39.0980 H   0  0  0  0  0  0  0  0  0  0  0  0
   36.2420   23.0440   39.7840 H   0  0  0  0  0  0  0  0  0  0  0  0
   35.3700   24.1720   40.9480 H   0  0  0  0  0  0  0  0  0  0  0  0
   38.2960   23.3350   40.7600 H   0  0  0  0  0  0  0  0  0  0  0  0
   37.1670   23.0090   42.0910 H   0  0  0  0  0  0  0  0  0  0  0  0
   37.1250   25.1380   42.9570 H   0  0  0  0  0  0  0  0  0  0  0  0
   38.8360   24.9330   42.4890 H   0  0  0  0  0  0  0  0  0  0  0  0
   38.6920   26.3600   40.7080 H   0  0  0  0  0  0  0  0  0  0  0  0
   35.9750   29.6620   38.5880 C   0  0  0  0  0  0  0  0  0  0  0  0
   35.7390   28.5450   39.3880 C   0  0  0  0  0  0  0  0  0  0  0  0
   36.7410   27.5600   39.4900 C   0  0  0  0  0  0  0  0  0  0  0  0
   37.8810   27.7870   38.7810 N   0  0  0  0  0  0  0  0  0  0  0  0
   38.0880   28.8660   38.0170 C   0  0  0  0  0  0  0  0  0  0  0  0
   37.1440   29.8130   37.9110 N   0  0  0  0  0  0  0  0  0  0  0  0
   35.2110   30.4150   38.5100 H   0  0  0  0  0  0  0  0  0  0  0  0
   34.8340   28.3870   39.9380 H   0  0  0  0  0  0  0  0  0  0  0  0
   39.0260   28.9750   37.4820 H   0  0  0  0  0  0  0  0  0  0  0  0
   37.6460   27.4490   42.1960 C   0  0  0  0  0  0  0  0  0  0  0  0
   38.6400   28.3550   42.2670 N   0  0  0  0  0  0  0  0  0  0  0  0
   38.2930   29.3150   43.1680 C   0  0  0  0  0  0  0  0  0  0  0  0
   38.8350   30.2120   43.4980 H   0  0  0  0  0  0  0  0  0  0  0  0
   37.0850   28.9490   43.6140 N   0  0  0  0  0  0  0  0  0  0  0  0
   36.4730   29.4080   44.3090 H   0  0  0  0  0  0  0  0  0  0  0  0
   36.6760   27.8110   43.0310 N   0  0  0  0  0  0  0  0  0  0  0  0
  1  7  1  1  0  0  0
  1  6  1  0  0  0  0
  2  1  1  0  0  0  0
  2  3  1  0  0  0  0
  3 11  1  0  0  0  0
  3  4  1  0  0  0  0
  4  5  1  0  0  0  0
  4 13  1  0  0  0  0
  5 15  1  0  0  0  0
  5 14  1  0  0  0  0
  6 16  1  6  0  0  0
  6  5  1  0  0  0  0
  6 26  1  0  0  0  0
  8  2  1  0  0  0  0
  9  2  1  0  0  0  0
 10  3  1  0  0  0  0
 12  4  1  0  0  0  0
 17 18  1  0  0  0  0
 18 19  2  0  0  0  0
 18 24  1  0  0  0  0
 19  1  1  0  0  0  0
 20 19  1  0  0  0  0
 21 20  2  0  0  0  0
 22 21  1  0  0  0  0
 22 17  2  0  0  0  0
 23 17  1  0  0  0  0
 25 21  1  0  0  0  0
 26 27  1  0  0  0  0
 26 32  2  0  0  0  0
 27 28  2  0  0  0  0
 28 29  1  0  0  0  0
 28 30  1  0  0  0  0
 30 31  1  0  0  0  0
 32 30  1  0  0  0  0
M  END
>  <minimizedAffinity>
-4.77347183

$$$$

 OpenBabel03242510303D

 32 34  0  0  1  0  0  0  0  0999 V2000
   36.9180   27.3390   39.8140 C   0  0  1  0  0  0  0  0  0  0  0  0
   35.9950   26.8270   38.7380 C   0  0  0  0  0  0  0  0  0  0  0  0
   35.5560   28.0650   37.9630 C   0  0  0  0  0  0  0  0  0  0  0  0
   34.6550   28.8640   38.8800 C   0  0  0  0  0  0  0  0  0  0  0  0
   35.2980   29.2200   40.1750 C   0  0  0  0  0  0  0  0  0  0  0  0
   36.1330   28.1680   40.8080 C   0  0  2  0  0  0  0  0  0  0  0  0
   37.6690   27.9870   39.3270 H   0  0  0  0  0  0  0  0  0  0  0  0
   36.4700   26.0960   38.0840 H   0  0  0  0  0  0  0  0  0  0  0  0
   35.0440   26.4160   39.1660 H   0  0  0  0  0  0  0  0  0  0  0  0
   34.9330   27.6960   37.1370 H   0  0  0  0  0  0  0  0  0  0  0  0
   36.4220   28.6490   37.6480 H   0  0  0  0  0  0  0  0  0  0  0  0
   33.6950   28.3050   38.9680 H   0  0  0  0  0  0  0  0  0  0  0  0
   34.4040   29.8070   38.3390 H   0  0  0  0  0  0  0  0  0  0  0  0
   35.9370   30.1240   40.0240 H   0  0  0  0  0  0  0  0  0  0  0  0
   34.5060   29.5090   40.8980 H   0  0  0  0  0  0  0  0  0  0  0  0
   35.4410   27.4660   41.3250 H   0  0  0  0  0  0  0  0  0  0  0  0
   37.6640   24.2510   41.8900 C   0  0  0  0  0  0  0  0  0  0  0  0
   36.9150   25.2310   41.2410 C   0  0  0  0  0  0  0  0  0  0  0  0
   37.5910   26.2470   40.5370 C   0  0  0  0  0  0  0  0  0  0  0  0
   38.9510   26.1850   40.5520 N   0  0  0  0  0  0  0  0  0  0  0  0
   39.6530   25.2360   41.1820 C   0  0  0  0  0  0  0  0  0  0  0  0
   39.0240   24.2610   41.8560 N   0  0  0  0  0  0  0  0  0  0  0  0
   37.1490   23.4750   42.4270 H   0  0  0  0  0  0  0  0  0  0  0  0
   35.8440   25.2600   41.2420 H   0  0  0  0  0  0  0  0  0  0  0  0
   40.7370   25.2550   41.1470 H   0  0  0  0  0  0  0  0  0  0  0  0
   37.0560   28.7620   41.7800 C   0  0  0  0  0  0  0  0  0  0  0  0
   38.0060   29.6280   41.3810 N   0  0  0  0  0  0  0  0  0  0  0  0
   38.7200   30.0250   42.4700 C   0  0  0  0  0  0  0  0  0  0  0  0
   39.5690   30.7190   42.5520 H   0  0  0  0  0  0  0  0  0  0  0  0
   38.1660   29.3760   43.5010 N   0  0  0  0  0  0  0  0  0  0  0  0
   38.4140   29.4010   44.5050 H   0  0  0  0  0  0  0  0  0  0  0  0
   37.1480   28.6010   43.0960 N   0  0  0  0  0  0  0  0  0  0  0  0
  1  7  1  6  0  0  0
  1 19  1  0  0  0  0
  1  6  1  0  0  0  0
  2  9  1  0  0  0  0
  2  1  1  0  0  0  0
  3  2  1  0  0  0  0
  3  4  1  0  0  0  0
  4 12  1  0  0  0  0
  4  5  1  0  0  0  0
  5  6  1  0  0  0  0
  5 15  1  0  0  0  0
  6 16  1  1  0  0  0
  6 26  1  0  0  0  0
  8  2  1  0  0  0  0
 10  3  1  0  0  0  0
 11  3  1  0  0  0  0
 13  4  1  0  0  0  0
 14  5  1  0  0  0  0
 17 23  1  0  0  0  0
 18 24  1  0  0  0  0
 18 17  2  0  0  0  0
 19 20  2  0  0  0  0
 19 18  1  0  0  0  0
 20 21  1  0  0  0  0
 21 22  2  0  0  0  0
 22 17  1  0  0  0  0
 25 21  1  0  0  0  0
 26 32  2  0  0  0  0
 27 26  1  0  0  0  0
 27 28  2  0  0  0  0
 28 29  1  0  0  0  0
 28 30  1  0  0  0  0
 30 31  1  0  0  0  0
 32 30  1  0  0  0  0
M  END
>  <minimizedAffinity>
-4.66807079

$$$$

 OpenBabel03242510303D

 32 34  0  0  1  0  0  0  0  0999 V2000
   36.5460   30.0570   39.1810 C   0  0  1  0  0  0  0  0  0  0  0  0
   36.1580   29.8380   37.7410 C   0  0  0  0  0  0  0  0  0  0  0  0
   35.0330   28.8100   37.7820 C   0  0  0  0  0  0  0  0  0  0  0  0
   35.6490   27.4950   38.2070 C   0  0  0  0  0  0  0  0  0  0  0  0
   36.3720   27.5760   39.5070 C   0  0  0  0  0  0  0  0  0  0  0  0
   37.1810   28.8000   39.7360 C   0  0  2  0  0  0  0  0  0  0  0  0
   35.6210   30.2670   39.7470 H   0  0  0  0  0  0  0  0  0  0  0  0
   35.8440   30.7540   37.2420 H   0  0  0  0  0  0  0  0  0  0  0  0
   36.9750   29.3330   37.1620 H   0  0  0  0  0  0  0  0  0  0  0  0
   34.6990   28.6900   36.7420 H   0  0  0  0  0  0  0  0  0  0  0  0
   34.2490   29.1250   38.4720 H   0  0  0  0  0  0  0  0  0  0  0  0
   36.2590   27.1240   37.3510 H   0  0  0  0  0  0  0  0  0  0  0  0
   34.8100   26.7690   38.3150 H   0  0  0  0  0  0  0  0  0  0  0  0
   35.6300   27.4920   40.3380 H   0  0  0  0  0  0  0  0  0  0  0  0
   37.0470   26.6990   39.5940 H   0  0  0  0  0  0  0  0  0  0  0  0
   38.1420   28.6660   39.1910 H   0  0  0  0  0  0  0  0  0  0  0  0
   38.2030   33.3290   40.1560 C   0  0  0  0  0  0  0  0  0  0  0  0
   37.2250   32.3390   40.0830 C   0  0  0  0  0  0  0  0  0  0  0  0
   37.4950   31.1740   39.3390 C   0  0  0  0  0  0  0  0  0  0  0  0
   38.7160   31.1120   38.7400 N   0  0  0  0  0  0  0  0  0  0  0  0
   39.6430   32.0740   38.8230 C   0  0  0  0  0  0  0  0  0  0  0  0
   39.4010   33.1900   39.5280 N   0  0  0  0  0  0  0  0  0  0  0  0
   37.9990   34.2190   40.7240 H   0  0  0  0  0  0  0  0  0  0  0  0
   36.2700   32.4080   40.5620 H   0  0  0  0  0  0  0  0  0  0  0  0
   40.5940   31.9500   38.3170 H   0  0  0  0  0  0  0  0  0  0  0  0
   37.4430   28.9800   41.1670 C   0  0  0  0  0  0  0  0  0  0  0  0
   38.6930   28.8680   41.6550 N   0  0  0  0  0  0  0  0  0  0  0  0
   38.6570   29.0790   42.9990 C   0  0  0  0  0  0  0  0  0  0  0  0
   39.4660   29.0730   43.7440 H   0  0  0  0  0  0  0  0  0  0  0  0
   37.3690   29.3140   43.2780 N   0  0  0  0  0  0  0  0  0  0  0  0
   36.9190   29.5200   44.1860 H   0  0  0  0  0  0  0  0  0  0  0  0
   36.6150   29.2570   42.1700 N   0  0  0  0  0  0  0  0  0  0  0  0
  1 19  1  0  0  0  0
  1  6  1  0  0  0  0
  1  7  1  1  0  0  0
  2  3  1  0  0  0  0
  2  1  1  0  0  0  0
  3  4  1  0  0  0  0
  3 11  1  0  0  0  0
  4 13  1  0  0  0  0
  4  5  1  0  0  0  0
  5 15  1  0  0  0  0
  5  6  1  0  0  0  0
  5 14  1  0  0  0  0
  6 16  1  6  0  0  0
  6 26  1  0  0  0  0
  8  2  1  0  0  0  0
  9  2  1  0  0  0  0
 10  3  1  0  0  0  0
 12  4  1  0  0  0  0
 17 23  1  0  0  0  0
 18 17  1  0  0  0  0
 18 24  1  0  0  0  0
 19 18  2  0  0  0  0
 20 21  2  0  0  0  0
 20 19  1  0  0  0  0
 21 22  1  0  0  0  0
 22 17  2  0  0  0  0
 25 21  1  0  0  0  0
 26 27  1  0  0  0  0
 26 32  2  0  0  0  0
 27 28  2  0  0  0  0
 28 30  1  0  0  0  0
 28 29  1  0  0  0  0
 30 31  1  0  0  0  0
 32 30  1  0  0  0  0
M  END
>  <minimizedAffinity>
-4.65527487

$$$$

 OpenBabel03242510303D

 32 34  0  0  1  0  0  0  0  0999 V2000
   38.2280   29.1270   41.3570 C   0  0  1  0  0  0  0  0  0  0  0  0
   38.9590   29.2720   42.6670 C   0  0  0  0  0  0  0  0  0  0  0  0
   38.9660   27.8750   43.2790 C   0  0  0  0  0  0  0  0  0  0  0  0
   37.5400   27.5610   43.6800 C   0  0  0  0  0  0  0  0  0  0  0  0
   36.5740   27.6670   42.5520 C   0  0  0  0  0  0  0  0  0  0  0  0
   36.7710   28.8050   41.6190 C   0  0  2  0  0  0  0  0  0  0  0  0
   38.6860   28.2820   40.8120 H   0  0  0  0  0  0  0  0  0  0  0  0
   39.9700   29.6590   42.5480 H   0  0  0  0  0  0  0  0  0  0  0  0
   38.3820   29.8930   43.4000 H   0  0  0  0  0  0  0  0  0  0  0  0
   39.5520   27.9560   44.2040 H   0  0  0  0  0  0  0  0  0  0  0  0
   39.3490   27.1440   42.5660 H   0  0  0  0  0  0  0  0  0  0  0  0
   37.3000   28.1920   44.5670 H   0  0  0  0  0  0  0  0  0  0  0  0
   37.5360   26.5090   44.0500 H   0  0  0  0  0  0  0  0  0  0  0  0
   36.6090   26.7220   41.9570 H   0  0  0  0  0  0  0  0  0  0  0  0
   35.5470   27.7410   42.9680 H   0  0  0  0  0  0  0  0  0  0  0  0
   36.3320   29.7070   42.1020 H   0  0  0  0  0  0  0  0  0  0  0  0
   38.9800   31.6530   38.6260 C   0  0  0  0  0  0  0  0  0  0  0  0
   38.9790   30.4370   39.3070 C   0  0  0  0  0  0  0  0  0  0  0  0
   38.3010   30.3500   40.5390 C   0  0  0  0  0  0  0  0  0  0  0  0
   37.6900   31.4880   40.9700 N   0  0  0  0  0  0  0  0  0  0  0  0
   37.7030   32.6470   40.3010 C   0  0  0  0  0  0  0  0  0  0  0  0
   38.3440   32.7450   39.1270 N   0  0  0  0  0  0  0  0  0  0  0  0
   39.4970   31.7200   37.6860 H   0  0  0  0  0  0  0  0  0  0  0  0
   39.4660   29.5530   38.9490 H   0  0  0  0  0  0  0  0  0  0  0  0
   37.1910   33.5110   40.7120 H   0  0  0  0  0  0  0  0  0  0  0  0
   36.0960   28.5460   40.3440 C   0  0  0  0  0  0  0  0  0  0  0  0
   35.0330   29.2820   39.9680 N   0  0  0  0  0  0  0  0  0  0  0  0
   34.6000   28.8380   38.7560 C   0  0  0  0  0  0  0  0  0  0  0  0
   33.7670   29.1810   38.1270 H   0  0  0  0  0  0  0  0  0  0  0  0
   35.4290   27.8360   38.4400 N   0  0  0  0  0  0  0  0  0  0  0  0
   35.4420   27.2320   37.6000 H   0  0  0  0  0  0  0  0  0  0  0  0
   36.3480   27.6450   39.3990 N   0  0  0  0  0  0  0  0  0  0  0  0
  1  7  1  6  0  0  0
  1  6  1  0  0  0  0
  1  2  1  0  0  0  0
  2  3  1  0  0  0  0
  2  9  1  0  0  0  0
  3  4  1  0  0  0  0
  3 10  1  0  0  0  0
  4 13  1  0  0  0  0
  4 12  1  0  0  0  0
  5 15  1  0  0  0  0
  5  4  1  0  0  0  0
  6 16  1  1  0  0  0
  6  5  1  0  0  0  0
  8  2  1  0  0  0  0
 11  3  1  0  0  0  0
 14  5  1  0  0  0  0
 17 22  2  0  0  0  0
 17 18  1  0  0  0  0
 18 19  2  0  0  0  0
 19 20  1  0  0  0  0
 19  1  1  0  0  0  0
 21 25  1  0  0  0  0
 21 20  2  0  0  0  0
 22 21  1  0  0  0  0
 23 17  1  0  0  0  0
 24 18  1  0  0  0  0
 26  6  1  0  0  0  0
 27 26  1  0  0  0  0
 28 27  2  0  0  0  0
 29 28  1  0  0  0  0
 30 28  1  0  0  0  0
 30 32  1  0  0  0  0
 31 30  1  0  0  0  0
 32 26  2  0  0  0  0
M  END
>  <minimizedAffinity>
-4.61534023

$$$$

 OpenBabel03242510303D

 32 34  0  0  1  0  0  0  0  0999 V2000
   36.7350   26.2940   39.7150 C   0  0  1  0  0  0  0  0  0  0  0  0
   37.2140   24.8660   39.7420 C   0  0  0  0  0  0  0  0  0  0  0  0
   36.4900   24.2220   40.9180 C   0  0  0  0  0  0  0  0  0  0  0  0
   37.0630   24.8320   42.1790 C   0  0  0  0  0  0  0  0  0  0  0  0
   36.9640   26.3170   42.2130 C   0  0  0  0  0  0  0  0  0  0  0  0
   37.2440   27.0270   40.9390 C   0  0  2  0  0  0  0  0  0  0  0  0
   35.6300   26.2750   39.7460 H   0  0  0  0  0  0  0  0  0  0  0  0
   37.0150   24.3340   38.8120 H   0  0  0  0  0  0  0  0  0  0  0  0
   38.3000   24.7960   40.0120 H   0  0  0  0  0  0  0  0  0  0  0  0
   36.7830   23.1630   40.9080 H   0  0  0  0  0  0  0  0  0  0  0  0
   35.4140   24.3910   40.8480 H   0  0  0  0  0  0  0  0  0  0  0  0
   38.0940   24.4260   42.3020 H   0  0  0  0  0  0  0  0  0  0  0  0
   36.4750   24.4190   43.0310 H   0  0  0  0  0  0  0  0  0  0  0  0
   35.9370   26.6020   42.5480 H   0  0  0  0  0  0  0  0  0  0  0  0
   37.6670   26.7040   42.9800 H   0  0  0  0  0  0  0  0  0  0  0  0
   38.3500   27.0870   40.8310 H   0  0  0  0  0  0  0  0  0  0  0  0
   38.8490   27.9340   37.0230 C   0  0  0  0  0  0  0  0  0  0  0  0
   38.5430   27.2370   38.1900 C   0  0  0  0  0  0  0  0  0  0  0  0
   37.1900   27.0130   38.5120 C   0  0  0  0  0  0  0  0  0  0  0  0
   36.2740   27.5090   37.6350 N   0  0  0  0  0  0  0  0  0  0  0  0
   36.5880   28.1760   36.5190 C   0  0  0  0  0  0  0  0  0  0  0  0
   37.8710   28.3970   36.1980 N   0  0  0  0  0  0  0  0  0  0  0  0
   39.8810   28.1060   36.7760 H   0  0  0  0  0  0  0  0  0  0  0  0
   39.2800   26.8550   38.8670 H   0  0  0  0  0  0  0  0  0  0  0  0
   35.7980   28.5400   35.8690 H   0  0  0  0  0  0  0  0  0  0  0  0
   36.6730   28.3770   40.9680 C   0  0  0  0  0  0  0  0  0  0  0  0
   37.4690   29.4540   41.1000 N   0  0  0  0  0  0  0  0  0  0  0  0
   36.6930   30.5730   41.0980 C   0  0  0  0  0  0  0  0  0  0  0  0
   36.9700   31.6330   41.1850 H   0  0  0  0  0  0  0  0  0  0  0  0
   35.4390   30.1240   40.9620 N   0  0  0  0  0  0  0  0  0  0  0  0
   34.5520   30.6520   40.9170 H   0  0  0  0  0  0  0  0  0  0  0  0
   35.4100   28.7840   40.8810 N   0  0  0  0  0  0  0  0  0  0  0  0
  1  2  1  0  0  0  0
  1  7  1  1  0  0  0
  1  6  1  0  0  0  0
  2  9  1  0  0  0  0
  2  3  1  0  0  0  0
  3  4  1  0  0  0  0
  4  5  1  0  0  0  0
  4 12  1  0  0  0  0
  4 13  1  0  0  0  0
  5 14  1  0  0  0  0
  5 15  1  0  0  0  0
  6 16  1  6  0  0  0
  6 26  1  0  0  0  0
  6  5  1  0  0  0  0
  8  2  1  0  0  0  0
 10  3  1  0  0  0  0
 11  3  1  0  0  0  0
 17 18  1  0  0  0  0
 18 19  2  0  0  0  0
 18 24  1  0  0  0  0
 19  1  1  0  0  0  0
 20 19  1  0  0  0  0
 21 20  2  0  0  0  0
 22 21  1  0  0  0  0
 22 17  2  0  0  0  0
 23 17  1  0  0  0  0
 25 21  1  0  0  0  0
 26 27  1  0  0  0  0
 28 27  2  0  0  0  0
 28 29  1  0  0  0  0
 30 28  1  0  0  0  0
 31 30  1  0  0  0  0
 32 30  1  0  0  0  0
 32 26  2  0  0  0  0
M  END
>  <minimizedAffinity>
-4.61205149

$$$$

 OpenBabel03242510303D

 32 34  0  0  1  0  0  0  0  0999 V2000
   38.0430   29.2550   41.2940 C   0  0  1  0  0  0  0  0  0  0  0  0
   38.7340   29.5390   42.6020 C   0  0  0  0  0  0  0  0  0  0  0  0
   38.8910   28.1810   43.2760 C   0  0  0  0  0  0  0  0  0  0  0  0
   37.5050   27.7230   43.6770 C   0  0  0  0  0  0  0  0  0  0  0  0
   36.5490   27.6690   42.5370 C   0  0  0  0  0  0  0  0  0  0  0  0
   36.6290   28.7810   41.5560 C   0  0  2  0  0  0  0  0  0  0  0  0
   38.6010   28.4450   40.7910 H   0  0  0  0  0  0  0  0  0  0  0  0
   39.6970   30.0330   42.4750 H   0  0  0  0  0  0  0  0  0  0  0  0
   38.0800   30.1220   43.3010 H   0  0  0  0  0  0  0  0  0  0  0  0
   39.4510   28.3680   44.2020 H   0  0  0  0  0  0  0  0  0  0  0  0
   39.3650   27.4670   42.6000 H   0  0  0  0  0  0  0  0  0  0  0  0
   37.1820   28.3610   44.5330 H   0  0  0  0  0  0  0  0  0  0  0  0
   37.6150   26.6950   44.0950 H   0  0  0  0  0  0  0  0  0  0  0  0
   36.7000   26.7100   41.9850 H   0  0  0  0  0  0  0  0  0  0  0  0
   35.5150   27.6440   42.9400 H   0  0  0  0  0  0  0  0  0  0  0  0
   36.0830   29.6470   41.9940 H   0  0  0  0  0  0  0  0  0  0  0  0
   37.2720   32.6620   39.8090 C   0  0  0  0  0  0  0  0  0  0  0  0
   37.2470   31.6040   40.7160 C   0  0  0  0  0  0  0  0  0  0  0  0
   37.9880   30.4420   40.4220 C   0  0  0  0  0  0  0  0  0  0  0  0
   38.6820   30.4520   39.2510 N   0  0  0  0  0  0  0  0  0  0  0  0
   38.6940   31.4790   38.3930 C   0  0  0  0  0  0  0  0  0  0  0  0
   37.9930   32.5920   38.6590 N   0  0  0  0  0  0  0  0  0  0  0  0
   36.7070   33.5490   40.0320 H   0  0  0  0  0  0  0  0  0  0  0  0
   36.6930   31.6170   41.6330 H   0  0  0  0  0  0  0  0  0  0  0  0
   39.2730   31.4100   37.4790 H   0  0  0  0  0  0  0  0  0  0  0  0
   36.0060   28.3900   40.2880 C   0  0  0  0  0  0  0  0  0  0  0  0
   36.4760   27.3420   39.5870 N   0  0  0  0  0  0  0  0  0  0  0  0
   35.7260   27.1970   38.4610 C   0  0  0  0  0  0  0  0  0  0  0  0
   35.7970   26.4630   37.6450 H   0  0  0  0  0  0  0  0  0  0  0  0
   34.8160   28.1770   38.5230 N   0  0  0  0  0  0  0  0  0  0  0  0
   34.0590   28.4160   37.8600 H   0  0  0  0  0  0  0  0  0  0  0  0
   34.9740   28.9150   39.6330 N   0  0  0  0  0  0  0  0  0  0  0  0
  1  7  1  6  0  0  0
  1  6  1  0  0  0  0
  1  2  1  0  0  0  0
  2  3  1  0  0  0  0
  2  9  1  0  0  0  0
  3  4  1  0  0  0  0
  3 10  1  0  0  0  0
  4 13  1  0  0  0  0
  4 12  1  0  0  0  0
  5 15  1  0  0  0  0
  5  4  1  0  0  0  0
  6 16  1  1  0  0  0
  6  5  1  0  0  0  0
  8  2  1  0  0  0  0
 11  3  1  0  0  0  0
 14  5  1  0  0  0  0
 17 23  1  0  0  0  0
 17 18  1  0  0  0  0
 18 24  1  0  0  0  0
 19 18  2  0  0  0  0
 19  1  1  0  0  0  0
 20 19  1  0  0  0  0
 21 22  1  0  0  0  0
 21 20  2  0  0  0  0
 22 17  2  0  0  0  0
 25 21  1  0  0  0  0
 26  6  1  0  0  0  0
 27 26  1  0  0  0  0
 28 30  1  0  0  0  0
 28 27  2  0  0  0  0
 29 28  1  0  0  0  0
 30 32  1  0  0  0  0
 31 30  1  0  0  0  0
 32 26  2  0  0  0  0
M  END
>  <minimizedAffinity>
-4.58367014

$$$$
