
 OpenBabel03252501323D

 22 23  0  0  0  0  0  0  0  0999 V2000
   45.5280   34.1920   43.7970 C   0  0  0  0  0  0  0  0  0  0  0  0
   45.3090   34.2970   45.1580 C   0  0  0  0  0  0  0  0  0  0  0  0
   46.1370   33.5370   45.9750 C   0  0  0  0  0  0  0  0  0  0  0  0
   47.0710   32.7720   45.3970 N   0  0  0  0  0  0  0  0  0  0  0  0
   47.2590   32.6930   44.0660 C   0  0  0  0  0  0  0  0  0  0  0  0
   46.4740   33.4160   43.2300 N   0  0  0  0  0  0  0  0  0  0  0  0
   45.9550   33.6280   47.0310 H   0  0  0  0  0  0  0  0  0  0  0  0
   48.0490   32.0340   43.7520 H   0  0  0  0  0  0  0  0  0  0  0  0
   43.8650   33.9730   42.1540 C   0  0  0  0  0  0  0  0  0  0  0  0
   43.9680   32.8060   42.6380 O   0  0  0  0  0  0  0  0  0  0  0  0
   44.7760   34.9000   42.7720 N   0  0  0  0  0  0  0  0  0  0  0  0
   44.8240   35.8800   42.4820 H   0  0  0  0  0  0  0  0  0  0  0  0
   42.9540   34.4000   41.0970 C   0  0  0  0  0  0  0  0  0  0  0  0
   43.0950   35.1750   40.0090 N   0  0  0  0  0  0  0  0  0  0  0  0
   41.9020   35.2470   39.3510 C   0  0  0  0  0  0  0  0  0  0  0  0
   41.9960   35.8700   38.4660 H   0  0  0  0  0  0  0  0  0  0  0  0
   41.0290   34.4970   40.0620 N   0  0  0  0  0  0  0  0  0  0  0  0
   40.0710   34.4780   39.6480 H   0  0  0  0  0  0  0  0  0  0  0  0
   41.6710   33.9910   41.1120 N   0  0  0  0  0  0  0  0  0  0  0  0
   44.2670   35.1650   45.5750 N   0  0  0  0  0  0  0  0  0  0  0  0
   43.3980   35.2190   44.9980 H   0  0  0  0  0  0  0  0  0  0  0  0
   44.2290   35.7850   46.4030 H   0  0  0  0  0  0  0  0  0  0  0  0
  1  2  1  0  0  0  0
  2 20  1  0  0  0  0
  2  3  2  0  0  0  0
  3  7  1  0  0  0  0
  4  3  1  0  0  0  0
  5  4  2  0  0  0  0
  6  1  2  0  0  0  0
  6  5  1  0  0  0  0
  8  5  1  0  0  0  0
  9 10  2  0  0  0  0
  9 11  1  0  0  0  0
 11  1  1  0  0  0  0
 12 11  1  0  0  0  0
 13 19  2  0  0  0  0
 13  9  1  0  0  0  0
 14 13  1  0  0  0  0
 15 14  2  0  0  0  0
 15 17  1  0  0  0  0
 16 15  1  0  0  0  0
 17 19  1  0  0  0  0
 18 17  1  0  0  0  0
 20 22  1  0  0  0  0
 21 20  1  0  0  0  0
M  END
>  <minimizedAffinity>
-4.15093422

>  <minimizedRMSD>
2.01307917

$$$$
