
 OpenBabel03252509323D

 25 26  0  0  0  0  0  0  0  0999 V2000
   36.9060   29.7720   39.3120 O   0  0  0  0  0  0  0  0  0  0  0  0
   36.7440   31.0300   38.7540 C   0  0  0  0  0  0  0  0  0  0  0  0
   35.7230   31.3720   39.0010 H   0  0  0  0  0  0  0  0  0  0  0  0
   36.7680   31.0180   37.6340 H   0  0  0  0  0  0  0  0  0  0  0  0
   40.0550   32.7280   38.9140 C   0  0  0  0  0  0  0  0  0  0  0  0
   39.0380   31.8390   38.5120 C   0  0  0  0  0  0  0  0  0  0  0  0
   37.8140   31.9420   39.1530 C   0  0  0  0  0  0  0  0  0  0  0  0
   37.6600   32.8910   40.1290 N   0  0  0  0  0  0  0  0  0  0  0  0
   38.6610   33.7250   40.4850 C   0  0  0  0  0  0  0  0  0  0  0  0
   39.8430   33.6360   39.8760 N   0  0  0  0  0  0  0  0  0  0  0  0
   41.0370   32.7260   38.4760 H   0  0  0  0  0  0  0  0  0  0  0  0
   39.2400   31.1280   37.7420 H   0  0  0  0  0  0  0  0  0  0  0  0
   38.3400   34.4010   41.2740 H   0  0  0  0  0  0  0  0  0  0  0  0
   34.3650   29.2780   39.6690 O   0  0  0  0  0  0  0  0  0  0  0  0
   35.6340   29.5520   40.4200 P   0  0  2  0  0  0  0  0  0  0  0  0
   35.5680   30.9400   41.3770 O   0  0  0  0  0  0  0  0  0  0  0  0
   35.5390   30.7580   42.3420 H   0  0  0  0  0  0  0  0  0  0  0  0
   36.0010   28.2170   41.3700 O   0  0  0  0  0  0  0  0  0  0  0  0
   37.1080   28.0700   42.1920 C   0  0  0  0  0  0  0  0  0  0  0  0
   37.6780   27.0150   42.8030 N   0  0  0  0  0  0  0  0  0  0  0  0
   38.7570   27.4060   43.4990 C   0  0  0  0  0  0  0  0  0  0  0  0
   39.4360   26.8140   44.0990 H   0  0  0  0  0  0  0  0  0  0  0  0
   38.8150   28.7330   43.2850 N   0  0  0  0  0  0  0  0  0  0  0  0
   39.5630   29.3480   43.7030 H   0  0  0  0  0  0  0  0  0  0  0  0
   37.8430   29.1740   42.5050 N   0  0  0  0  0  0  0  0  0  0  0  0
  1 15  1  0  0  0  0
  2  3  1  0  0  0  0
  2  7  1  0  0  0  0
  2  1  1  0  0  0  0
  4  2  1  0  0  0  0
  5 10  1  0  0  0  0
  6  5  2  0  0  0  0
  6  7  1  0  0  0  0
  7  8  2  0  0  0  0
  8  9  1  0  0  0  0
  9 13  1  0  0  0  0
 10  9  2  0  0  0  0
 11  5  1  0  0  0  0
 12  6  1  0  0  0  0
 15 14  2  6  0  0  0
 15 18  1  0  0  0  0
 15 16  1  0  0  0  0
 16 17  1  0  0  0  0
 18 19  1  0  0  0  0
 19 25  2  0  0  0  0
 19 20  1  0  0  0  0
 20 21  2  0  0  0  0
 21 22  1  0  0  0  0
 23 21  1  0  0  0  0
 23 24  1  0  0  0  0
 25 23  1  0  0  0  0
M  END
>  <minimizedAffinity>
-4.63187218

$$$$

 OpenBabel03252509323D

 25 26  0  0  0  0  0  0  0  0999 V2000
   36.1280   28.2330   41.8030 O   0  0  0  0  0  0  0  0  0  0  0  0
   36.8470   27.6930   42.8570 C   0  0  0  0  0  0  0  0  0  0  0  0
   36.1380   27.5240   43.6890 H   0  0  0  0  0  0  0  0  0  0  0  0
   37.6040   28.4010   43.2800 H   0  0  0  0  0  0  0  0  0  0  0  0
   37.6740   24.2010   41.8610 C   0  0  0  0  0  0  0  0  0  0  0  0
   36.9210   25.3240   42.2560 C   0  0  0  0  0  0  0  0  0  0  0  0
   37.6070   26.5140   42.4470 C   0  0  0  0  0  0  0  0  0  0  0  0
   38.9610   26.5330   42.2430 N   0  0  0  0  0  0  0  0  0  0  0  0
   39.6460   25.4320   41.8630 C   0  0  0  0  0  0  0  0  0  0  0  0
   38.9990   24.2830   41.6770 N   0  0  0  0  0  0  0  0  0  0  0  0
   37.2340   23.2360   41.6880 H   0  0  0  0  0  0  0  0  0  0  0  0
   35.8670   25.2250   42.3930 H   0  0  0  0  0  0  0  0  0  0  0  0
   40.7060   25.6550   41.7550 H   0  0  0  0  0  0  0  0  0  0  0  0
   37.9730   29.9930   42.3750 O   0  0  0  0  0  0  0  0  0  0  0  0
   36.8730   29.7060   41.3960 P   0  0  2  0  0  0  0  0  0  0  0  0
   35.6630   30.8810   41.3740 O   0  0  0  0  0  0  0  0  0  0  0  0
   35.6600   31.4370   40.5630 H   0  0  0  0  0  0  0  0  0  0  0  0
   37.5400   29.5430   39.8630 O   0  0  0  0  0  0  0  0  0  0  0  0
   37.5920   30.5170   38.8790 C   0  0  0  0  0  0  0  0  0  0  0  0
   37.7880   30.4840   37.5480 N   0  0  0  0  0  0  0  0  0  0  0  0
   37.7460   31.7260   37.0390 C   0  0  0  0  0  0  0  0  0  0  0  0
   37.8640   32.0490   36.0130 H   0  0  0  0  0  0  0  0  0  0  0  0
   37.5170   32.5060   38.1110 N   0  0  0  0  0  0  0  0  0  0  0  0
   37.4280   33.5550   38.0470 H   0  0  0  0  0  0  0  0  0  0  0  0
   37.4180   31.8210   39.2370 N   0  0  0  0  0  0  0  0  0  0  0  0
  1  2  1  0  0  0  0
  2  4  1  0  0  0  0
  2  3  1  0  0  0  0
  5  6  1  0  0  0  0
  6 12  1  0  0  0  0
  6  7  2  0  0  0  0
  7  2  1  0  0  0  0
  8  7  1  0  0  0  0
  9  8  2  0  0  0  0
 10  5  2  0  0  0  0
 10  9  1  0  0  0  0
 11  5  1  0  0  0  0
 13  9  1  0  0  0  0
 15  1  1  0  0  0  0
 15 14  2  1  0  0  0
 16 15  1  0  0  0  0
 17 16  1  0  0  0  0
 18 15  1  0  0  0  0
 19 25  2  0  0  0  0
 19 18  1  0  0  0  0
 20 19  1  0  0  0  0
 21 20  2  0  0  0  0
 21 23  1  0  0  0  0
 22 21  1  0  0  0  0
 23 25  1  0  0  0  0
 24 23  1  0  0  0  0
M  END
>  <minimizedAffinity>
-4.58588028

$$$$

 OpenBabel03252509323D

 25 26  0  0  0  0  0  0  0  0999 V2000
   36.4740   28.4360   40.5100 O   0  0  0  0  0  0  0  0  0  0  0  0
   37.6740   27.8040   40.2240 C   0  0  0  0  0  0  0  0  0  0  0  0
   38.4850   28.5200   40.4500 H   0  0  0  0  0  0  0  0  0  0  0  0
   37.8010   27.5770   39.1350 H   0  0  0  0  0  0  0  0  0  0  0  0
   37.0880   24.2430   41.1450 C   0  0  0  0  0  0  0  0  0  0  0  0
   36.9670   25.4770   40.4760 C   0  0  0  0  0  0  0  0  0  0  0  0
   37.7820   26.5140   40.9030 C   0  0  0  0  0  0  0  0  0  0  0  0
   38.6490   26.2860   41.9380 N   0  0  0  0  0  0  0  0  0  0  0  0
   38.7350   25.0860   42.5530 C   0  0  0  0  0  0  0  0  0  0  0  0
   37.9570   24.0820   42.1530 N   0  0  0  0  0  0  0  0  0  0  0  0
   36.5010   23.3810   40.8870 H   0  0  0  0  0  0  0  0  0  0  0  0
   36.2650   25.5720   39.6780 H   0  0  0  0  0  0  0  0  0  0  0  0
   39.4800   25.1100   43.3460 H   0  0  0  0  0  0  0  0  0  0  0  0
   37.3580   29.4610   42.7450 O   0  0  0  0  0  0  0  0  0  0  0  0
   36.8490   29.8440   41.3870 P   0  0  2  0  0  0  0  0  0  0  0  0
   35.4500   30.7850   41.4300 O   0  0  0  0  0  0  0  0  0  0  0  0
   35.5910   31.7230   41.1710 H   0  0  0  0  0  0  0  0  0  0  0  0
   38.0630   30.6590   40.5620 O   0  0  0  0  0  0  0  0  0  0  0  0
   38.1740   32.0320   40.4040 C   0  0  0  0  0  0  0  0  0  0  0  0
   39.1360   32.9270   40.6930 N   0  0  0  0  0  0  0  0  0  0  0  0
   38.7490   34.1610   40.3360 C   0  0  0  0  0  0  0  0  0  0  0  0
   39.2810   35.0990   40.4280 H   0  0  0  0  0  0  0  0  0  0  0  0
   37.5190   33.9770   39.8220 N   0  0  0  0  0  0  0  0  0  0  0  0
   36.9330   34.7680   39.4440 H   0  0  0  0  0  0  0  0  0  0  0  0
   37.1340   32.7130   39.8430 N   0  0  0  0  0  0  0  0  0  0  0  0
  1 15  1  0  0  0  0
  2  3  1  0  0  0  0
  2  1  1  0  0  0  0
  2  7  1  0  0  0  0
  4  2  1  0  0  0  0
  5 10  1  0  0  0  0
  6  7  1  0  0  0  0
  6  5  2  0  0  0  0
  7  8  2  0  0  0  0
  8  9  1  0  0  0  0
  9 13  1  0  0  0  0
 10  9  2  0  0  0  0
 11  5  1  0  0  0  0
 12  6  1  0  0  0  0
 15 16  1  0  0  0  0
 15 14  2  1  0  0  0
 17 16  1  0  0  0  0
 18 15  1  0  0  0  0
 19 18  1  0  0  0  0
 19 20  1  0  0  0  0
 21 22  1  0  0  0  0
 21 20  2  0  0  0  0
 23 25  1  0  0  0  0
 23 21  1  0  0  0  0
 24 23  1  0  0  0  0
 25 19  2  0  0  0  0
M  END
>  <minimizedAffinity>
-4.51697826

$$$$

 OpenBabel03252509323D

 25 26  0  0  0  0  0  0  0  0999 V2000
   40.4390   31.2440   41.1950 O   0  0  0  0  0  0  0  0  0  0  0  0
   39.8210   31.1650   42.4330 C   0  0  0  0  0  0  0  0  0  0  0  0
   39.0110   31.9180   42.4460 H   0  0  0  0  0  0  0  0  0  0  0  0
   40.4920   31.4660   43.2770 H   0  0  0  0  0  0  0  0  0  0  0  0
   39.9170   27.4820   42.9770 C   0  0  0  0  0  0  0  0  0  0  0  0
   40.3460   28.7900   42.6760 C   0  0  0  0  0  0  0  0  0  0  0  0
   39.3990   29.8000   42.7420 C   0  0  0  0  0  0  0  0  0  0  0  0
   38.1150   29.4770   43.0920 N   0  0  0  0  0  0  0  0  0  0  0  0
   37.7450   28.2090   43.3740 C   0  0  0  0  0  0  0  0  0  0  0  0
   38.6450   27.2290   43.3140 N   0  0  0  0  0  0  0  0  0  0  0  0
   40.5760   26.6330   42.9540 H   0  0  0  0  0  0  0  0  0  0  0  0
   41.3660   28.9570   42.4110 H   0  0  0  0  0  0  0  0  0  0  0  0
   36.6880   28.1620   43.6290 H   0  0  0  0  0  0  0  0  0  0  0  0
   40.5150   33.0680   39.3260 O   0  0  0  0  0  0  0  0  0  0  0  0
   39.5780   32.3900   40.2800 P   0  0  2  0  0  0  0  0  0  0  0  0
   38.8470   33.4450   41.3750 O   0  0  0  0  0  0  0  0  0  0  0  0
   37.8890   33.5930   41.2090 H   0  0  0  0  0  0  0  0  0  0  0  0
   38.4040   31.5740   39.4000 O   0  0  0  0  0  0  0  0  0  0  0  0
   37.2900   30.9260   39.9140 C   0  0  0  0  0  0  0  0  0  0  0  0
   36.7110   29.7370   39.6680 N   0  0  0  0  0  0  0  0  0  0  0  0
   35.6310   29.5740   40.4480 C   0  0  0  0  0  0  0  0  0  0  0  0
   34.9450   28.7380   40.5020 H   0  0  0  0  0  0  0  0  0  0  0  0
   35.5810   30.7070   41.1710 N   0  0  0  0  0  0  0  0  0  0  0  0
   34.8330   30.8950   41.8900 H   0  0  0  0  0  0  0  0  0  0  0  0
   36.5590   31.5490   40.8820 N   0  0  0  0  0  0  0  0  0  0  0  0
  1  2  1  0  0  0  0
  2  3  1  0  0  0  0
  2  7  1  0  0  0  0
  2  4  1  0  0  0  0
  5 10  1  0  0  0  0
  6  7  1  0  0  0  0
  6  5  2  0  0  0  0
  7  8  2  0  0  0  0
  8  9  1  0  0  0  0
  9 13  1  0  0  0  0
 10  9  2  0  0  0  0
 11  5  1  0  0  0  0
 12  6  1  0  0  0  0
 15 14  2  6  0  0  0
 15  1  1  0  0  0  0
 15 16  1  0  0  0  0
 17 16  1  0  0  0  0
 18 19  1  0  0  0  0
 18 15  1  0  0  0  0
 19 25  2  0  0  0  0
 20 19  1  0  0  0  0
 20 21  2  0  0  0  0
 21 22  1  0  0  0  0
 21 23  1  0  0  0  0
 23 24  1  0  0  0  0
 25 23  1  0  0  0  0
M  END
>  <minimizedAffinity>
-4.51503611

$$$$

 OpenBabel03252509323D

 25 26  0  0  0  0  0  0  0  0999 V2000
   37.9740   28.7860   40.4710 O   0  0  0  0  0  0  0  0  0  0  0  0
   37.4410   29.6870   39.5630 C   0  0  0  0  0  0  0  0  0  0  0  0
   36.3550   29.4880   39.4990 H   0  0  0  0  0  0  0  0  0  0  0  0
   37.8130   29.5270   38.5180 H   0  0  0  0  0  0  0  0  0  0  0  0
   37.4500   33.4110   39.6210 C   0  0  0  0  0  0  0  0  0  0  0  0
   37.0880   32.0900   39.2880 C   0  0  0  0  0  0  0  0  0  0  0  0
   37.7980   31.0650   39.8940 C   0  0  0  0  0  0  0  0  0  0  0  0
   38.7970   31.3870   40.7720 N   0  0  0  0  0  0  0  0  0  0  0  0
   39.1120   32.6670   41.0660 C   0  0  0  0  0  0  0  0  0  0  0  0
   38.4380   33.6610   40.4900 N   0  0  0  0  0  0  0  0  0  0  0  0
   36.9590   34.2710   39.2050 H   0  0  0  0  0  0  0  0  0  0  0  0
   36.2960   31.9250   38.5920 H   0  0  0  0  0  0  0  0  0  0  0  0
   39.9300   32.7100   41.7820 H   0  0  0  0  0  0  0  0  0  0  0  0
   35.4200   28.6950   41.0190 O   0  0  0  0  0  0  0  0  0  0  0  0
   36.7710   28.4830   41.6350 P   0  0  2  0  0  0  0  0  0  0  0  0
   37.0860   29.4990   42.9440 O   0  0  0  0  0  0  0  0  0  0  0  0
   37.0900   29.0400   43.8140 H   0  0  0  0  0  0  0  0  0  0  0  0
   36.9040   26.8770   42.1100 O   0  0  0  0  0  0  0  0  0  0  0  0
   38.0450   26.2520   42.5890 C   0  0  0  0  0  0  0  0  0  0  0  0
   38.5550   25.0150   42.4480 N   0  0  0  0  0  0  0  0  0  0  0  0
   39.7080   24.9050   43.1260 C   0  0  0  0  0  0  0  0  0  0  0  0
   40.3680   24.0530   43.2220 H   0  0  0  0  0  0  0  0  0  0  0  0
   39.8740   26.1210   43.6800 N   0  0  0  0  0  0  0  0  0  0  0  0
   40.7010   26.3660   44.2860 H   0  0  0  0  0  0  0  0  0  0  0  0
   38.8970   26.9610   43.3830 N   0  0  0  0  0  0  0  0  0  0  0  0
  1 15  1  0  0  0  0
  2  7  1  0  0  0  0
  2  1  1  0  0  0  0
  3  2  1  0  0  0  0
  4  2  1  0  0  0  0
  5 10  1  0  0  0  0
  6  5  2  0  0  0  0
  6  7  1  0  0  0  0
  7  8  2  0  0  0  0
  8  9  1  0  0  0  0
  9 13  1  0  0  0  0
 10  9  2  0  0  0  0
 11  5  1  0  0  0  0
 12  6  1  0  0  0  0
 15 14  2  6  0  0  0
 15 18  1  0  0  0  0
 15 16  1  0  0  0  0
 16 17  1  0  0  0  0
 18 19  1  0  0  0  0
 19 25  2  0  0  0  0
 20 19  1  0  0  0  0
 20 21  2  0  0  0  0
 21 22  1  0  0  0  0
 21 23  1  0  0  0  0
 23 24  1  0  0  0  0
 25 23  1  0  0  0  0
M  END
>  <minimizedAffinity>
-4.38372946

$$$$

 OpenBabel03252509323D

 25 26  0  0  0  0  0  0  0  0999 V2000
   36.8590   27.1620   42.0110 O   0  0  0  0  0  0  0  0  0  0  0  0
   37.3940   25.9400   42.3850 C   0  0  0  0  0  0  0  0  0  0  0  0
   36.7220   25.5040   43.1460 H   0  0  0  0  0  0  0  0  0  0  0  0
   38.3790   26.0360   42.9100 H   0  0  0  0  0  0  0  0  0  0  0  0
   37.7060   22.9160   40.2330 C   0  0  0  0  0  0  0  0  0  0  0  0
   37.4480   23.7210   41.3610 C   0  0  0  0  0  0  0  0  0  0  0  0
   37.6540   25.0850   41.2280 C   0  0  0  0  0  0  0  0  0  0  0  0
   38.0900   25.5710   40.0250 N   0  0  0  0  0  0  0  0  0  0  0  0
   38.3250   24.7650   38.9660 C   0  0  0  0  0  0  0  0  0  0  0  0
   38.1310   23.4520   39.0810 N   0  0  0  0  0  0  0  0  0  0  0  0
   37.5750   21.8500   40.2370 H   0  0  0  0  0  0  0  0  0  0  0  0
   37.1100   23.2630   42.2630 H   0  0  0  0  0  0  0  0  0  0  0  0
   38.6640   25.3420   38.1080 H   0  0  0  0  0  0  0  0  0  0  0  0
   39.0890   27.7180   43.2550 O   0  0  0  0  0  0  0  0  0  0  0  0
   37.9010   28.3660   42.6080 P   0  0  2  0  0  0  0  0  0  0  0  0
   36.9950   29.3240   43.6610 O   0  0  0  0  0  0  0  0  0  0  0  0
   37.0760   30.2890   43.4940 H   0  0  0  0  0  0  0  0  0  0  0  0
   38.4280   29.2870   41.3060 O   0  0  0  0  0  0  0  0  0  0  0  0
   37.9740   30.5480   40.9510 C   0  0  0  0  0  0  0  0  0  0  0  0
   38.5800   31.6630   40.5040 N   0  0  0  0  0  0  0  0  0  0  0  0
   37.6790   32.6360   40.3020 C   0  0  0  0  0  0  0  0  0  0  0  0
   37.8310   33.6470   39.9490 H   0  0  0  0  0  0  0  0  0  0  0  0
   36.5080   32.0660   40.6420 N   0  0  0  0  0  0  0  0  0  0  0  0
   35.5870   32.5780   40.5940 H   0  0  0  0  0  0  0  0  0  0  0  0
   36.6390   30.8120   41.0380 N   0  0  0  0  0  0  0  0  0  0  0  0
  1  2  1  0  0  0  0
  1 15  1  0  0  0  0
  2  4  1  0  0  0  0
  2  3  1  0  0  0  0
  5 11  1  0  0  0  0
  5  6  1  0  0  0  0
  6 12  1  0  0  0  0
  7  6  2  0  0  0  0
  7  2  1  0  0  0  0
  8  7  1  0  0  0  0
  9 10  1  0  0  0  0
  9  8  2  0  0  0  0
 10  5  2  0  0  0  0
 13  9  1  0  0  0  0
 15 14  2  1  0  0  0
 15 16  1  0  0  0  0
 17 16  1  0  0  0  0
 18 15  1  0  0  0  0
 19 25  2  0  0  0  0
 19 18  1  0  0  0  0
 20 19  1  0  0  0  0
 21 20  2  0  0  0  0
 21 23  1  0  0  0  0
 22 21  1  0  0  0  0
 23 25  1  0  0  0  0
 24 23  1  0  0  0  0
M  END
>  <minimizedAffinity>
-4.31773806

$$$$

 OpenBabel03252509323D

 25 26  0  0  0  0  0  0  0  0999 V2000
   37.1240   29.8940   42.2350 O   0  0  0  0  0  0  0  0  0  0  0  0
   38.3280   30.2170   41.6300 C   0  0  0  0  0  0  0  0  0  0  0  0
   38.5880   29.3880   40.9470 H   0  0  0  0  0  0  0  0  0  0  0  0
   39.1830   30.2580   42.3530 H   0  0  0  0  0  0  0  0  0  0  0  0
   37.2250   33.0980   39.5440 C   0  0  0  0  0  0  0  0  0  0  0  0
   37.2460   31.8190   40.1340 C   0  0  0  0  0  0  0  0  0  0  0  0
   38.2850   31.5390   41.0070 C   0  0  0  0  0  0  0  0  0  0  0  0
   39.2220   32.5080   41.2480 N   0  0  0  0  0  0  0  0  0  0  0  0
   39.1650   33.7240   40.6630 C   0  0  0  0  0  0  0  0  0  0  0  0
   38.1720   34.0050   39.8210 N   0  0  0  0  0  0  0  0  0  0  0  0
   36.4610   33.4090   38.8550 H   0  0  0  0  0  0  0  0  0  0  0  0
   36.4770   31.1190   39.8920 H   0  0  0  0  0  0  0  0  0  0  0  0
   39.9970   34.3470   40.9840 H   0  0  0  0  0  0  0  0  0  0  0  0
   36.0910   28.0420   40.7070 O   0  0  0  0  0  0  0  0  0  0  0  0
   36.8670   28.2330   41.9760 P   0  0  2  0  0  0  0  0  0  0  0  0
   36.0820   27.6370   43.3460 O   0  0  0  0  0  0  0  0  0  0  0  0
   36.4920   26.8260   43.7200 H   0  0  0  0  0  0  0  0  0  0  0  0
   38.3680   27.4970   41.8110 O   0  0  0  0  0  0  0  0  0  0  0  0
   38.6820   26.1850   42.1320 C   0  0  0  0  0  0  0  0  0  0  0  0
   39.8410   25.5190   42.2890 N   0  0  0  0  0  0  0  0  0  0  0  0
   39.6030   24.2370   42.6070 C   0  0  0  0  0  0  0  0  0  0  0  0
   40.3060   23.4380   42.8000 H   0  0  0  0  0  0  0  0  0  0  0  0
   38.2600   24.1560   42.6370 N   0  0  0  0  0  0  0  0  0  0  0  0
   37.7460   23.2640   42.8610 H   0  0  0  0  0  0  0  0  0  0  0  0
   37.6670   25.3040   42.3570 N   0  0  0  0  0  0  0  0  0  0  0  0
  2  1  1  0  0  0  0
  2  4  1  0  0  0  0
  3  2  1  0  0  0  0
  5 10  2  0  0  0  0
  5  6  1  0  0  0  0
  6  7  2  0  0  0  0
  7  8  1  0  0  0  0
  7  2  1  0  0  0  0
  9 13  1  0  0  0  0
  9  8  2  0  0  0  0
 10  9  1  0  0  0  0
 11  5  1  0  0  0  0
 12  6  1  0  0  0  0
 15 14  2  6  0  0  0
 15  1  1  0  0  0  0
 15 16  1  0  0  0  0
 16 17  1  0  0  0  0
 18 15  1  0  0  0  0
 18 19  1  0  0  0  0
 19 20  1  0  0  0  0
 19 25  2  0  0  0  0
 20 21  2  0  0  0  0
 21 23  1  0  0  0  0
 21 22  1  0  0  0  0
 23 24  1  0  0  0  0
 25 23  1  0  0  0  0
M  END
>  <minimizedAffinity>
-4.28567266

$$$$

 OpenBabel03252509323D

 25 26  0  0  0  0  0  0  0  0999 V2000
   36.4300   27.9760   40.8470 O   0  0  0  0  0  0  0  0  0  0  0  0
   35.6320   29.1090   40.8410 C   0  0  0  0  0  0  0  0  0  0  0  0
   35.3580   29.3250   41.8890 H   0  0  0  0  0  0  0  0  0  0  0  0
   34.6500   28.9490   40.3250 H   0  0  0  0  0  0  0  0  0  0  0  0
   37.1970   31.1180   38.1240 C   0  0  0  0  0  0  0  0  0  0  0  0
   36.5850   30.0390   38.7900 C   0  0  0  0  0  0  0  0  0  0  0  0
   36.2670   30.2160   40.1280 C   0  0  0  0  0  0  0  0  0  0  0  0
   36.5610   31.4140   40.7210 N   0  0  0  0  0  0  0  0  0  0  0  0
   37.1490   32.4260   40.0460 C   0  0  0  0  0  0  0  0  0  0  0  0
   37.4590   32.2680   38.7600 N   0  0  0  0  0  0  0  0  0  0  0  0
   37.4800   31.0780   37.0880 H   0  0  0  0  0  0  0  0  0  0  0  0
   36.3900   29.1370   38.2540 H   0  0  0  0  0  0  0  0  0  0  0  0
   37.2960   33.2880   40.6920 H   0  0  0  0  0  0  0  0  0  0  0  0
   37.3870   26.7210   42.9300 O   0  0  0  0  0  0  0  0  0  0  0  0
   37.3950   28.0550   42.2460 P   0  0  2  0  0  0  0  0  0  0  0  0
   36.7820   29.3070   43.1960 O   0  0  0  0  0  0  0  0  0  0  0  0
   37.4640   29.9420   43.5100 H   0  0  0  0  0  0  0  0  0  0  0  0
   38.9660   28.4130   41.7720 O   0  0  0  0  0  0  0  0  0  0  0  0
   39.5240   29.6760   41.6550 C   0  0  0  0  0  0  0  0  0  0  0  0
   40.1480   30.3290   40.6570 N   0  0  0  0  0  0  0  0  0  0  0  0
   40.5080   31.5590   41.0560 C   0  0  0  0  0  0  0  0  0  0  0  0
   41.0220   32.3350   40.5040 H   0  0  0  0  0  0  0  0  0  0  0  0
   40.0780   31.6230   42.3300 N   0  0  0  0  0  0  0  0  0  0  0  0
   40.2100   32.4760   42.9360 H   0  0  0  0  0  0  0  0  0  0  0  0
   39.4820   30.5130   42.7310 N   0  0  0  0  0  0  0  0  0  0  0  0
  1 15  1  0  0  0  0
  2  1  1  0  0  0  0
  2  3  1  0  0  0  0
  4  2  1  0  0  0  0
  5 10  2  0  0  0  0
  5  6  1  0  0  0  0
  6  7  2  0  0  0  0
  7  8  1  0  0  0  0
  7  2  1  0  0  0  0
  9 13  1  0  0  0  0
  9  8  2  0  0  0  0
 10  9  1  0  0  0  0
 11  5  1  0  0  0  0
 12  6  1  0  0  0  0
 15 14  2  1  0  0  0
 15 16  1  0  0  0  0
 16 17  1  0  0  0  0
 18 15  1  0  0  0  0
 19 18  1  0  0  0  0
 19 25  2  0  0  0  0
 20 21  2  0  0  0  0
 20 19  1  0  0  0  0
 21 23  1  0  0  0  0
 22 21  1  0  0  0  0
 23 25  1  0  0  0  0
 23 24  1  0  0  0  0
M  END
>  <minimizedAffinity>
-4.25360727

$$$$

 OpenBabel03252509323D

 25 26  0  0  0  0  0  0  0  0999 V2000
   35.8510   28.4490   40.9950 O   0  0  0  0  0  0  0  0  0  0  0  0
   34.9630   29.1580   40.2020 C   0  0  0  0  0  0  0  0  0  0  0  0
   35.2400   30.2260   40.2700 H   0  0  0  0  0  0  0  0  0  0  0  0
   33.9100   29.1210   40.5830 H   0  0  0  0  0  0  0  0  0  0  0  0
   33.7230   28.3350   36.7880 C   0  0  0  0  0  0  0  0  0  0  0  0
   33.7600   28.8620   38.0940 C   0  0  0  0  0  0  0  0  0  0  0  0
   34.9010   28.6210   38.8440 C   0  0  0  0  0  0  0  0  0  0  0  0
   35.9170   27.8950   38.2820 N   0  0  0  0  0  0  0  0  0  0  0  0
   35.8410   27.4070   37.0240 C   0  0  0  0  0  0  0  0  0  0  0  0
   34.7500   27.6310   36.2940 N   0  0  0  0  0  0  0  0  0  0  0  0
   32.8830   28.4690   36.1300 H   0  0  0  0  0  0  0  0  0  0  0  0
   32.9250   29.4190   38.4580 H   0  0  0  0  0  0  0  0  0  0  0  0
   36.7460   26.8610   36.7660 H   0  0  0  0  0  0  0  0  0  0  0  0
   38.3440   29.2220   40.8680 O   0  0  0  0  0  0  0  0  0  0  0  0
   37.0350   29.5500   41.5230 P   0  0  2  0  0  0  0  0  0  0  0  0
   37.0790   29.4560   43.2070 O   0  0  0  0  0  0  0  0  0  0  0  0
   37.0350   30.3280   43.6570 H   0  0  0  0  0  0  0  0  0  0  0  0
   36.5600   31.0880   41.0470 O   0  0  0  0  0  0  0  0  0  0  0  0
   37.3700   32.0660   40.4920 C   0  0  0  0  0  0  0  0  0  0  0  0
   38.4920   32.6870   40.9000 N   0  0  0  0  0  0  0  0  0  0  0  0
   38.8970   33.5750   39.9790 C   0  0  0  0  0  0  0  0  0  0  0  0
   39.7550   34.2340   39.9940 H   0  0  0  0  0  0  0  0  0  0  0  0
   37.9780   33.4660   39.0020 N   0  0  0  0  0  0  0  0  0  0  0  0
   38.0120   34.0410   38.1180 H   0  0  0  0  0  0  0  0  0  0  0  0
   37.0420   32.5710   39.2680 N   0  0  0  0  0  0  0  0  0  0  0  0
  1 15  1  0  0  0  0
  2  3  1  0  0  0  0
  2  4  1  0  0  0  0
  2  1  1  0  0  0  0
  5  6  1  0  0  0  0
  6 12  1  0  0  0  0
  6  7  2  0  0  0  0
  7  2  1  0  0  0  0
  8  7  1  0  0  0  0
  9  8  2  0  0  0  0
 10  5  2  0  0  0  0
 10  9  1  0  0  0  0
 11  5  1  0  0  0  0
 13  9  1  0  0  0  0
 15 14  2  6  0  0  0
 15 16  1  0  0  0  0
 16 17  1  0  0  0  0
 18 15  1  0  0  0  0
 19 20  1  0  0  0  0
 19 18  1  0  0  0  0
 21 22  1  0  0  0  0
 21 20  2  0  0  0  0
 23 25  1  0  0  0  0
 23 21  1  0  0  0  0
 24 23  1  0  0  0  0
 25 19  2  0  0  0  0
M  END
>  <minimizedAffinity>
-4.16621685

$$$$
