
 OpenBabel03242519163D

 40 43  0  0  1  0  0  0  0  0999 V2000
   48.3290   34.2270   40.9230 C   0  0  0  0  0  0  0  0  0  0  0  0
   47.8850   34.3670   39.6270 C   0  0  0  0  0  0  0  0  0  0  0  0
   48.2590   33.4990   38.5900 C   0  0  0  0  0  0  0  0  0  0  0  0
   49.1040   32.4920   38.9540 N   0  0  0  0  0  0  0  0  0  0  0  0
   49.5300   32.3650   40.2180 C   0  0  0  0  0  0  0  0  0  0  0  0
   49.1500   33.2150   41.1780 N   0  0  0  0  0  0  0  0  0  0  0  0
   47.2160   35.1920   39.4210 H   0  0  0  0  0  0  0  0  0  0  0  0
   47.8910   33.6400   37.5870 H   0  0  0  0  0  0  0  0  0  0  0  0
   50.4370   31.2430   40.6270 C   0  0  2  0  0  0  0  0  0  0  0  0
   51.1780   31.3580   41.9220 C   0  0  0  0  0  0  0  0  0  0  0  0
   51.8990   31.5180   40.5710 C   0  0  1  0  0  0  0  0  0  0  0  0
   50.1110   30.2720   40.2020 H   0  0  0  0  0  0  0  0  0  0  0  0
   50.9900   32.2840   42.5110 H   0  0  0  0  0  0  0  0  0  0  0  0
   51.3170   30.4330   42.4950 H   0  0  0  0  0  0  0  0  0  0  0  0
   52.2720   32.5380   40.3840 H   0  0  0  0  0  0  0  0  0  0  0  0
   52.8530   30.4090   40.3060 C   0  0  0  0  0  0  0  0  0  0  0  0
   52.6600   29.3180   39.5640 N   0  0  0  0  0  0  0  0  0  0  0  0
   53.7740   28.5300   39.5600 C   0  0  0  0  0  0  0  0  0  0  0  0
   53.6790   27.6250   38.9730 H   0  0  0  0  0  0  0  0  0  0  0  0
   54.6680   29.1840   40.3330 N   0  0  0  0  0  0  0  0  0  0  0  0
   55.5990   28.7170   40.4450 H   0  0  0  0  0  0  0  0  0  0  0  0
   54.1100   30.3060   40.7750 N   0  0  0  0  0  0  0  0  0  0  0  0
   47.9200   35.1270   41.9710 C   0  0  0  0  0  0  0  0  0  0  0  0
   48.0470   36.1820   41.5890 H   0  0  0  0  0  0  0  0  0  0  0  0
   48.5700   35.0770   42.8680 H   0  0  0  0  0  0  0  0  0  0  0  0
   46.4930   34.9570   42.3000 C   0  0  0  0  0  0  0  0  0  0  0  0
   45.9930   34.2450   41.5850 H   0  0  0  0  0  0  0  0  0  0  0  0
   45.8760   35.8880   42.2190 H   0  0  0  0  0  0  0  0  0  0  0  0
   44.5720   36.4250   44.0340 Cl  0  0  0  0  0  0  0  0  0  0  0  0
   45.3920   34.9740   44.5500 C   0  0  0  0  0  0  0  0  0  0  0  0
   46.2560   34.3860   43.6630 C   0  0  0  0  0  0  0  0  0  0  0  0
   46.9050   33.2400   44.0670 C   0  0  0  0  0  0  0  0  0  0  0  0
   46.6940   32.7040   45.3210 C   0  0  0  0  0  0  0  0  0  0  0  0
   45.8080   33.3190   46.2120 C   0  0  0  0  0  0  0  0  0  0  0  0
   45.1600   34.4710   45.7950 C   0  0  0  0  0  0  0  0  0  0  0  0
   47.6000   32.7250   43.4170 H   0  0  0  0  0  0  0  0  0  0  0  0
   47.1570   31.8260   45.6990 H   0  0  0  0  0  0  0  0  0  0  0  0
   45.6260   32.9180   47.1990 H   0  0  0  0  0  0  0  0  0  0  0  0
   44.2560   35.1570   46.6170 O   0  0  0  0  0  0  0  0  0  0  0  0
   43.4540   34.6450   46.9690 H   0  0  0  0  0  0  0  0  0  0  0  0
  1  6  1  0  0  0  0
  1 23  1  0  0  0  0
  2  1  2  0  0  0  0
  3  4  2  0  0  0  0
  3  2  1  0  0  0  0
  4  5  1  0  0  0  0
  5  9  1  0  0  0  0
  5  6  2  0  0  0  0
  7  2  1  0  0  0  0
  8  3  1  0  0  0  0
  9 12  1  6  0  0  0
  9 10  1  0  0  0  0
 10 14  1  0  0  0  0
 10 13  1  0  0  0  0
 11 15  1  6  0  0  0
 11  9  1  0  0  0  0
 11 10  1  0  0  0  0
 16 11  1  0  0  0  0
 16 22  2  0  0  0  0
 17 16  1  0  0  0  0
 18 17  2  0  0  0  0
 18 20  1  0  0  0  0
 19 18  1  0  0  0  0
 20 21  1  0  0  0  0
 20 22  1  0  0  0  0
 23 26  1  0  0  0  0
 23 25  1  0  0  0  0
 24 23  1  0  0  0  0
 26 31  1  0  0  0  0
 27 26  1  0  0  0  0
 28 26  1  0  0  0  0
 29 30  1  0  0  0  0
 30 35  1  0  0  0  0
 31 32  1  0  0  0  0
 31 30  2  0  0  0  0
 32 33  2  0  0  0  0
 33 37  1  0  0  0  0
 33 34  1  0  0  0  0
 34 38  1  0  0  0  0
 35 34  2  0  0  0  0
 35 39  1  0  0  0  0
 36 32  1  0  0  0  0
 39 40  1  0  0  0  0
M  END
>  <minimizedAffinity>
-5.72416687

>  <minimizedRMSD>
0.200148985

$$$$
