
 OpenBabel03252507413D

 23 24  0  0  0  0  0  0  0  0999 V2000
   44.4940   32.6630   41.8660 C   0  0  0  0  0  0  0  0  0  0  0  0
   44.6650   33.2520   40.9410 H   0  0  0  0  0  0  0  0  0  0  0  0
   45.2550   31.8590   41.8460 H   0  0  0  0  0  0  0  0  0  0  0  0
   44.6800   33.5970   42.9920 C   0  0  0  0  0  0  0  0  0  0  0  0
   44.2820   34.9070   42.7570 C   0  0  0  0  0  0  0  0  0  0  0  0
   44.4320   35.8370   43.7800 C   0  0  0  0  0  0  0  0  0  0  0  0
   44.9670   35.4280   44.9800 N   0  0  0  0  0  0  0  0  0  0  0  0
   45.3400   34.1460   45.1620 C   0  0  0  0  0  0  0  0  0  0  0  0
   45.2040   33.2290   44.1870 N   0  0  0  0  0  0  0  0  0  0  0  0
   44.1340   36.8650   43.6380 H   0  0  0  0  0  0  0  0  0  0  0  0
   45.7560   33.8090   46.0830 H   0  0  0  0  0  0  0  0  0  0  0  0
   43.5920   35.4160   41.1980 S   0  0  0  0  0  0  0  0  0  0  0  0
   42.4040   36.1360   41.5000 H   0  0  0  0  0  0  0  0  0  0  0  0
   43.0990   32.0970   41.7840 C   0  0  0  0  0  0  0  0  0  0  0  0
   42.3780   32.8670   42.1650 H   0  0  0  0  0  0  0  0  0  0  0  0
   42.8530   31.9750   40.6960 H   0  0  0  0  0  0  0  0  0  0  0  0
   43.0000   30.8290   42.5180 C   0  0  0  0  0  0  0  0  0  0  0  0
   41.8800   30.2100   42.9230 N   0  0  0  0  0  0  0  0  0  0  0  0
   42.2270   29.0770   43.5600 C   0  0  0  0  0  0  0  0  0  0  0  0
   41.7840   28.2310   44.0650 H   0  0  0  0  0  0  0  0  0  0  0  0
   43.5850   28.9980   43.5480 N   0  0  0  0  0  0  0  0  0  0  0  0
   44.3410   28.3380   43.8950 H   0  0  0  0  0  0  0  0  0  0  0  0
   44.0620   30.0700   42.9100 N   0  0  0  0  0  0  0  0  0  0  0  0
  1  4  1  0  0  0  0
  2  1  1  0  0  0  0
  3  1  1  0  0  0  0
  4  9  1  0  0  0  0
  5  4  2  0  0  0  0
  5  6  1  0  0  0  0
  6  7  2  0  0  0  0
  7  8  1  0  0  0  0
  8 11  1  0  0  0  0
  9  8  2  0  0  0  0
 10  6  1  0  0  0  0
 12 13  1  0  0  0  0
 12  5  1  0  0  0  0
 14  1  1  0  0  0  0
 14 15  1  0  0  0  0
 14 17  1  0  0  0  0
 16 14  1  0  0  0  0
 17 23  2  0  0  0  0
 17 18  1  0  0  0  0
 18 19  2  0  0  0  0
 19 20  1  0  0  0  0
 21 19  1  0  0  0  0
 21 22  1  0  0  0  0
 23 21  1  0  0  0  0
M  END
>  <minimizedAffinity>
-2.87779188

>  <minimizedRMSD>
7.24269485

$$$$
