
 OpenBabel03252506563D

 36 40  0  0  0  0  0  0  0  0999 V2000
   47.2040   31.2150   45.2130 C   0  0  0  0  0  0  0  0  0  0  0  0
   46.9200   32.5620   45.1520 C   0  0  0  0  0  0  0  0  0  0  0  0
   46.3600   33.2530   46.2030 C   0  0  0  0  0  0  0  0  0  0  0  0
   46.0520   32.5970   47.3990 C   0  0  0  0  0  0  0  0  0  0  0  0
   45.5150   32.9430   48.5960 N   0  0  0  0  0  0  0  0  0  0  0  0
   45.4690   31.8310   49.3790 C   0  0  0  0  0  0  0  0  0  0  0  0
   45.9800   30.8170   48.6460 N   0  0  0  0  0  0  0  0  0  0  0  0
   46.3470   31.2520   47.4300 C   0  0  0  0  0  0  0  0  0  0  0  0
   46.8980   30.5460   46.4110 C   0  0  0  0  0  0  0  0  0  0  0  0
   47.6440   30.6740   44.3870 H   0  0  0  0  0  0  0  0  0  0  0  0
   46.1220   34.3170   46.1910 H   0  0  0  0  0  0  0  0  0  0  0  0
   45.2190   33.9430   48.7730 H   0  0  0  0  0  0  0  0  0  0  0  0
   45.0820   31.8390   50.3840 H   0  0  0  0  0  0  0  0  0  0  0  0
   46.7210   35.0300   42.4300 C   0  0  0  0  0  0  0  0  0  0  0  0
   47.8060   34.6810   41.6250 C   0  0  0  0  0  0  0  0  0  0  0  0
   48.6050   33.5950   42.0220 C   0  0  0  0  0  0  0  0  0  0  0  0
   48.2840   32.9300   43.1770 N   0  0  0  0  0  0  0  0  0  0  0  0
   47.2180   33.3040   43.9310 C   0  0  0  0  0  0  0  0  0  0  0  0
   46.4560   34.3360   43.5570 N   0  0  0  0  0  0  0  0  0  0  0  0
   46.1220   35.8720   42.1000 H   0  0  0  0  0  0  0  0  0  0  0  0
   48.1000   35.1730   40.7070 H   0  0  0  0  0  0  0  0  0  0  0  0
   49.4520   33.2460   41.4870 H   0  0  0  0  0  0  0  0  0  0  0  0
   47.1750   29.1070   46.5460 C   0  0  0  0  0  0  0  0  0  0  0  0
   48.3140   28.4790   46.0750 C   0  0  0  0  0  0  0  0  0  0  0  0
   48.1300   27.1380   46.4290 C   0  0  0  0  0  0  0  0  0  0  0  0
   46.9050   27.0270   47.0890 C   0  0  0  0  0  0  0  0  0  0  0  0
   46.3710   28.2460   47.1310 O   0  0  0  0  0  0  0  0  0  0  0  0
   49.1430   28.9160   45.5580 H   0  0  0  0  0  0  0  0  0  0  0  0
   48.8070   26.3180   46.2360 H   0  0  0  0  0  0  0  0  0  0  0  0
   46.3770   25.7710   47.6070 C   0  0  0  0  0  0  0  0  0  0  0  0
   46.6020   24.4480   47.4670 N   0  0  0  0  0  0  0  0  0  0  0  0
   45.7410   23.7710   48.2510 C   0  0  0  0  0  0  0  0  0  0  0  0
   45.6630   22.7070   48.3670 H   0  0  0  0  0  0  0  0  0  0  0  0
   44.9660   24.6840   48.8910 N   0  0  0  0  0  0  0  0  0  0  0  0
   44.1880   24.4770   49.5800 H   0  0  0  0  0  0  0  0  0  0  0  0
   45.3640   25.8780   48.4900 N   0  0  0  0  0  0  0  0  0  0  0  0
  1  9  1  0  0  0  0
  2  1  2  0  0  0  0
  2  3  1  0  0  0  0
  3  4  2  0  0  0  0
  4  8  1  0  0  0  0
  4  5  1  0  0  0  0
  5 12  1  0  0  0  0
  5  6  1  0  0  0  0
  6 13  1  0  0  0  0
  7  6  2  0  0  0  0
  8  7  1  0  0  0  0
  9 23  1  0  0  0  0
  9  8  2  0  0  0  0
 10  1  1  0  0  0  0
 11  3  1  0  0  0  0
 14 19  1  0  0  0  0
 15 16  1  0  0  0  0
 15 14  2  0  0  0  0
 16 17  2  0  0  0  0
 17 18  1  0  0  0  0
 18  2  1  0  0  0  0
 19 18  2  0  0  0  0
 20 14  1  0  0  0  0
 21 15  1  0  0  0  0
 22 16  1  0  0  0  0
 23 27  1  0  0  0  0
 24 25  1  0  0  0  0
 24 23  2  0  0  0  0
 25 26  2  0  0  0  0
 26 27  1  0  0  0  0
 26 30  1  0  0  0  0
 28 24  1  0  0  0  0
 29 25  1  0  0  0  0
 30 36  2  0  0  0  0
 31 30  1  0  0  0  0
 31 32  2  0  0  0  0
 32 33  1  0  0  0  0
 32 34  1  0  0  0  0
 34 35  1  0  0  0  0
 36 34  1  0  0  0  0
M  END
>  <minimizedAffinity>
-5.7737608

>  <minimizedRMSD>
0.991342247

$$$$
