REMARK  Name = 
REMARK  4 active torsions:
REMARK  status: ('A' for Active; 'I' for Inactive)
REMARK    1  A    between atoms: C_1  and  C_6
REMARK    2  A    between atoms: C_3  and  C_14
REMARK    3  A    between atoms: C_4  and  C_10
REMARK    4  A    between atoms: C_17  and  C_27
REMARK                            x       y       z     vdW  Elec       q    Type
REMARK                         _______ _______ _______ _____ _____    ______ ____
ROOT
ATOM      1  C   UNL     1      46.631  32.524  44.072  0.00  0.00    +0.000 C 
ATOM      2  C   UNL     1      46.065  33.853  44.391  0.00  0.00    +0.000 C 
ATOM      3  C   UNL     1      47.562  33.641  43.937  0.00  0.00    +0.000 C 
ATOM      4  H   UNL     1      46.255  32.056  43.113  0.00  0.00    +0.000 HD
ATOM      5  H   UNL     1      45.962  34.193  45.434  0.00  0.00    +0.000 HD
ATOM      6  H   UNL     1      45.416  34.380  43.683  0.00  0.00    +0.000 HD
ATOM      7  H   UNL     1      48.292  33.831  44.723  0.00  0.00    +0.000 HD
ENDROOT
BRANCH   1  10
ATOM      8  C   UNL     1      46.151  30.798  47.376  0.00  0.00    +0.000 A 
ATOM      9  C   UNL     1      45.944  31.706  46.351  0.00  0.00    +0.000 A 
ATOM     10  C   UNL     1      46.759  31.594  45.238  0.00  0.00    +0.000 A 
ATOM     11  N   UNL     1      47.704  30.628  45.192  0.00  0.00    +0.000 NA
ATOM     12  C   UNL     1      47.874  29.758  46.222  0.00  0.00    +0.000 A 
ATOM     13  N   UNL     1      47.087  29.852  47.317  0.00  0.00    +0.000 NA
ATOM     14  H   UNL     1      45.195  32.465  46.397  0.00  0.00    +0.000 HD
ATOM     15  H   UNL     1      48.632  28.990  46.176  0.00  0.00    +0.000 HD
BRANCH   8  16
ATOM     16  C   UNL     1      45.270  30.896  48.585  0.00  0.00    +0.000 C 
ATOM     17  F   UNL     1      46.057  31.311  49.634  0.00  0.00    +0.000 F 
ATOM     18  F   UNL     1      44.823  29.622  48.866  0.00  0.00    +0.000 F 
ATOM     19  F   UNL     1      44.251  31.782  48.389  0.00  0.00    +0.000 F 
ENDBRANCH   8  16
ENDBRANCH   1  10
BRANCH   3  20
ATOM     20  C   UNL     1      47.809  34.135  42.558  0.00  0.00    +0.000 A 
ATOM     21  C   UNL     1      47.302  33.610  41.374  0.00  0.00    +0.000 A 
ATOM     22  C   UNL     1      47.829  34.430  40.408  0.00  0.00    +0.000 A 
ATOM     23  C   UNL     1      48.630  35.420  41.015  0.00  0.00    +0.000 A 
ATOM     24  O   UNL     1      48.555  35.160  42.291  0.00  0.00    +0.000 OA
ATOM     25  H   UNL     1      46.651  32.760  41.246  0.00  0.00    +0.000 HD
ATOM     26  H   UNL     1      47.666  34.346  39.342  0.00  0.00    +0.000 HD
BRANCH  23  27
ATOM     27  C   UNL     1      49.346  36.462  40.286  0.00  0.00    +0.000 A 
ATOM     28  N   UNL     1      49.427  37.672  40.905  0.00  0.00    +0.000 NA
ATOM     29  C   UNL     1      50.122  38.507  40.081  0.00  0.00    +0.000 A 
ATOM     30  H   UNL     1      50.403  39.546  40.199  0.00  0.00    +0.000 HD
ATOM     31  N   UNL     1      50.449  37.789  38.982  0.00  0.00    +0.000 N 
ATOM     32  H   UNL     1      50.992  38.120  38.133  0.00  0.00    +0.000 HD
ATOM     33  N   UNL     1      49.984  36.534  39.084  0.00  0.00    +0.000 NA
ENDBRANCH  23  27
ENDBRANCH   3  20
TORSDOF 4
