
 OpenBabel03242515213D

 37 39  0  0  0  0  0  0  0  0999 V2000
   36.4800   30.5270   39.0460 C   0  0  0  0  0  0  0  0  0  0  0  0
   36.1690   30.6920   40.0730 H   0  0  0  0  0  0  0  0  0  0  0  0
   35.7050   31.0370   38.4100 H   0  0  0  0  0  0  0  0  0  0  0  0
   39.8330   31.1820   37.6140 C   0  0  0  0  0  0  0  0  0  0  0  0
   40.2840   32.2560   38.4480 C   0  0  0  0  0  0  0  0  0  0  0  0
   39.4300   32.6720   39.4250 C   0  0  0  0  0  0  0  0  0  0  0  0
   38.2520   32.0340   39.5070 N   0  0  0  0  0  0  0  0  0  0  0  0
   37.8310   31.0440   38.7400 C   0  0  0  0  0  0  0  0  0  0  0  0
   38.6340   30.6250   37.7930 N   0  0  0  0  0  0  0  0  0  0  0  0
   40.4220   30.7660   36.8080 H   0  0  0  0  0  0  0  0  0  0  0  0
   41.6220   32.7890   38.1130 C   0  0  0  0  0  0  0  0  0  0  0  0
   42.8630   32.5070   38.5100 N   0  0  0  0  0  0  0  0  0  0  0  0
   43.7660   33.2770   37.9060 C   0  0  0  0  0  0  0  0  0  0  0  0
   44.8360   33.2410   38.0580 H   0  0  0  0  0  0  0  0  0  0  0  0
   43.0840   34.0830   37.0910 N   0  0  0  0  0  0  0  0  0  0  0  0
   43.4220   34.8170   36.4580 H   0  0  0  0  0  0  0  0  0  0  0  0
   41.8360   33.7760   37.2320 N   0  0  0  0  0  0  0  0  0  0  0  0
   39.8740   33.7610   40.2740 C   0  0  0  0  0  0  0  0  0  0  0  0
   38.8570   34.0850   41.1930 F   0  0  0  0  0  0  0  0  0  0  0  0
   39.9250   34.9070   39.4620 F   0  0  0  0  0  0  0  0  0  0  0  0
   41.0180   33.5110   40.9430 F   0  0  0  0  0  0  0  0  0  0  0  0
   36.3330   29.0600   38.7610 C   0  0  0  0  0  0  0  0  0  0  0  0
   35.3370   28.7760   38.3560 H   0  0  0  0  0  0  0  0  0  0  0  0
   37.0720   28.8080   37.9580 H   0  0  0  0  0  0  0  0  0  0  0  0
   36.6950   28.2350   39.9260 C   0  0  0  0  0  0  0  0  0  0  0  0
   37.0330   26.9210   39.9810 C   0  0  0  0  0  0  0  0  0  0  0  0
   37.2790   26.6290   41.3000 C   0  0  0  0  0  0  0  0  0  0  0  0
   37.0930   27.7360   42.0100 N   0  0  0  0  0  0  0  0  0  0  0  0
   36.7410   28.6960   41.1680 N   0  0  0  0  0  0  0  0  0  0  0  0
   37.0860   26.2600   39.1160 H   0  0  0  0  0  0  0  0  0  0  0  0
   37.2370   27.9170   43.4610 C   0  0  0  0  0  0  0  0  0  0  0  0
   38.4410   27.3430   43.9010 F   0  0  0  0  0  0  0  0  0  0  0  0
   36.1450   27.4080   44.1040 F   0  0  0  0  0  0  0  0  0  0  0  0
   37.3280   29.2790   43.7140 F   0  0  0  0  0  0  0  0  0  0  0  0
   37.6730   25.3260   41.8210 C   0  0  0  0  0  0  0  0  0  0  0  0
   36.8620   24.5000   42.3340 O   0  0  0  0  0  0  0  0  0  0  0  0
   38.6320   24.8380   41.8770 H   0  0  0  0  0  0  0  0  0  0  0  0
  1  2  1  0  0  0  0
  3  1  1  0  0  0  0
  4  9  2  0  0  0  0
  4  5  1  0  0  0  0
  5  6  2  0  0  0  0
  6  7  1  0  0  0  0
  6 18  1  0  0  0  0
  8  1  1  0  0  0  0
  8  7  2  0  0  0  0
  9  8  1  0  0  0  0
 10  4  1  0  0  0  0
 11  5  1  0  0  0  0
 11 12  1  0  0  0  0
 13 14  1  0  0  0  0
 13 12  2  0  0  0  0
 15 17  1  0  0  0  0
 15 13  1  0  0  0  0
 16 15  1  0  0  0  0
 17 11  2  0  0  0  0
 18 21  1  0  0  0  0
 18 19  1  0  0  0  0
 20 18  1  0  0  0  0
 22  1  1  0  0  0  0
 22 25  1  0  0  0  0
 23 22  1  0  0  0  0
 24 22  1  0  0  0  0
 25 26  1  0  0  0  0
 25 29  2  0  0  0  0
 26 27  2  0  0  0  0
 27 35  1  0  0  0  0
 27 28  1  0  0  0  0
 28 31  1  0  0  0  0
 29 28  1  0  0  0  0
 30 26  1  0  0  0  0
 31 34  1  0  0  0  0
 31 32  1  0  0  0  0
 31 33  1  0  0  0  0
 35 37  1  0  0  0  0
 35 36  2  0  0  0  0
M  END
>  <minimizedAffinity>
-6.19781923

$$$$

 OpenBabel03242515213D

 37 39  0  0  0  0  0  0  0  0999 V2000
   36.7590   30.3330   38.9910 C   0  0  0  0  0  0  0  0  0  0  0  0
   35.9410   30.7770   38.4290 H   0  0  0  0  0  0  0  0  0  0  0  0
   36.7550   29.2420   38.7170 H   0  0  0  0  0  0  0  0  0  0  0  0
   40.0790   31.2200   37.6090 C   0  0  0  0  0  0  0  0  0  0  0  0
   40.4490   32.3110   38.4610 C   0  0  0  0  0  0  0  0  0  0  0  0
   39.5590   32.6600   39.4310 C   0  0  0  0  0  0  0  0  0  0  0  0
   38.4240   31.9460   39.4900 N   0  0  0  0  0  0  0  0  0  0  0  0
   38.0770   30.9400   38.7080 C   0  0  0  0  0  0  0  0  0  0  0  0
   38.9170   30.5850   37.7670 N   0  0  0  0  0  0  0  0  0  0  0  0
   40.7040   30.8520   36.8060 H   0  0  0  0  0  0  0  0  0  0  0  0
   41.7550   32.9330   38.1480 C   0  0  0  0  0  0  0  0  0  0  0  0
   42.9830   32.8260   38.6570 N   0  0  0  0  0  0  0  0  0  0  0  0
   43.8540   33.6070   38.0210 C   0  0  0  0  0  0  0  0  0  0  0  0
   44.9080   33.6970   38.2440 H   0  0  0  0  0  0  0  0  0  0  0  0
   43.1640   34.2380   37.0690 N   0  0  0  0  0  0  0  0  0  0  0  0
   43.4810   34.9230   36.3710 H   0  0  0  0  0  0  0  0  0  0  0  0
   41.9430   33.8260   37.1660 N   0  0  0  0  0  0  0  0  0  0  0  0
   39.9220   33.7660   40.2970 C   0  0  0  0  0  0  0  0  0  0  0  0
   38.8490   34.0560   41.1620 F   0  0  0  0  0  0  0  0  0  0  0  0
   39.9730   34.9110   39.4840 F   0  0  0  0  0  0  0  0  0  0  0  0
   41.0380   33.5570   41.0240 F   0  0  0  0  0  0  0  0  0  0  0  0
   36.3860   30.3860   40.4440 C   0  0  0  0  0  0  0  0  0  0  0  0
   36.6720   31.3340   40.9500 H   0  0  0  0  0  0  0  0  0  0  0  0
   35.2680   30.3390   40.4960 H   0  0  0  0  0  0  0  0  0  0  0  0
   36.8820   29.2120   41.1810 C   0  0  0  0  0  0  0  0  0  0  0  0
   37.6110   29.1560   42.3260 C   0  0  0  0  0  0  0  0  0  0  0  0
   37.8190   27.8270   42.6000 C   0  0  0  0  0  0  0  0  0  0  0  0
   37.2330   27.1120   41.6480 N   0  0  0  0  0  0  0  0  0  0  0  0
   36.6720   27.9600   40.8000 N   0  0  0  0  0  0  0  0  0  0  0  0
   37.9470   30.0290   42.8880 H   0  0  0  0  0  0  0  0  0  0  0  0
   37.1840   25.6490   41.5120 C   0  0  0  0  0  0  0  0  0  0  0  0
   36.5030   25.0870   42.6050 F   0  0  0  0  0  0  0  0  0  0  0  0
   38.4480   25.1530   41.3670 F   0  0  0  0  0  0  0  0  0  0  0  0
   36.4370   25.3500   40.3810 F   0  0  0  0  0  0  0  0  0  0  0  0
   38.5600   27.3030   43.7410 C   0  0  0  0  0  0  0  0  0  0  0  0
   39.8120   27.1170   43.7390 O   0  0  0  0  0  0  0  0  0  0  0  0
   38.2390   26.9940   44.7220 H   0  0  0  0  0  0  0  0  0  0  0  0
  1 22  1  0  0  0  0
  2  1  1  0  0  0  0
  3  1  1  0  0  0  0
  4  9  2  0  0  0  0
  4  5  1  0  0  0  0
  5  6  2  0  0  0  0
  6  7  1  0  0  0  0
  6 18  1  0  0  0  0
  8  1  1  0  0  0  0
  8  7  2  0  0  0  0
  9  8  1  0  0  0  0
 10  4  1  0  0  0  0
 11  5  1  0  0  0  0
 11 12  1  0  0  0  0
 13 14  1  0  0  0  0
 13 12  2  0  0  0  0
 15 17  1  0  0  0  0
 15 13  1  0  0  0  0
 16 15  1  0  0  0  0
 17 11  2  0  0  0  0
 18 21  1  0  0  0  0
 18 19  1  0  0  0  0
 20 18  1  0  0  0  0
 22 24  1  0  0  0  0
 22 23  1  0  0  0  0
 22 25  1  0  0  0  0
 25 26  1  0  0  0  0
 26 27  2  0  0  0  0
 26 30  1  0  0  0  0
 27 35  1  0  0  0  0
 28 27  1  0  0  0  0
 29 25  2  0  0  0  0
 29 28  1  0  0  0  0
 31 28  1  0  0  0  0
 31 32  1  0  0  0  0
 33 31  1  0  0  0  0
 34 31  1  0  0  0  0
 35 37  1  0  0  0  0
 36 35  2  0  0  0  0
M  END
>  <minimizedAffinity>
-5.98809719

$$$$

 OpenBabel03242515213D

 37 39  0  0  0  0  0  0  0  0999 V2000
   36.1890   29.6800   37.9450 C   0  0  0  0  0  0  0  0  0  0  0  0
   35.5940   30.0530   37.1170 H   0  0  0  0  0  0  0  0  0  0  0  0
   36.7080   28.7620   37.5540 H   0  0  0  0  0  0  0  0  0  0  0  0
   37.9120   32.4570   39.6900 C   0  0  0  0  0  0  0  0  0  0  0  0
   39.2570   32.2780   39.2300 C   0  0  0  0  0  0  0  0  0  0  0  0
   39.4790   31.2450   38.3710 C   0  0  0  0  0  0  0  0  0  0  0  0
   38.4140   30.4970   38.0420 N   0  0  0  0  0  0  0  0  0  0  0  0
   37.1720   30.6570   38.4630 C   0  0  0  0  0  0  0  0  0  0  0  0
   36.9330   31.6440   39.2900 N   0  0  0  0  0  0  0  0  0  0  0  0
   37.6150   33.2420   40.3730 H   0  0  0  0  0  0  0  0  0  0  0  0
   40.2380   33.2390   39.7800 C   0  0  0  0  0  0  0  0  0  0  0  0
   40.7290   34.4090   39.3670 N   0  0  0  0  0  0  0  0  0  0  0  0
   41.6110   34.9100   40.2290 C   0  0  0  0  0  0  0  0  0  0  0  0
   42.1450   35.8440   40.1210 H   0  0  0  0  0  0  0  0  0  0  0  0
   41.6930   34.0330   41.2320 N   0  0  0  0  0  0  0  0  0  0  0  0
   42.2650   34.0620   42.0850 H   0  0  0  0  0  0  0  0  0  0  0  0
   40.8820   33.0700   40.9440 N   0  0  0  0  0  0  0  0  0  0  0  0
   40.8380   31.0530   37.9010 C   0  0  0  0  0  0  0  0  0  0  0  0
   40.9030   29.8850   37.1170 F   0  0  0  0  0  0  0  0  0  0  0  0
   41.6050   30.7060   39.0260 F   0  0  0  0  0  0  0  0  0  0  0  0
   41.3320   32.0920   37.1970 F   0  0  0  0  0  0  0  0  0  0  0  0
   35.2380   29.1880   38.9970 C   0  0  0  0  0  0  0  0  0  0  0  0
   34.6280   29.9910   39.4670 H   0  0  0  0  0  0  0  0  0  0  0  0
   34.5080   28.5100   38.4850 H   0  0  0  0  0  0  0  0  0  0  0  0
   35.9190   28.3670   40.0130 C   0  0  0  0  0  0  0  0  0  0  0  0
   36.4130   27.1050   39.9130 C   0  0  0  0  0  0  0  0  0  0  0  0
   36.9490   26.7910   41.1370 C   0  0  0  0  0  0  0  0  0  0  0  0
   36.7800   27.8320   41.9430 N   0  0  0  0  0  0  0  0  0  0  0  0
   36.1570   28.7750   41.2510 N   0  0  0  0  0  0  0  0  0  0  0  0
   36.3710   26.4940   39.0100 H   0  0  0  0  0  0  0  0  0  0  0  0
   37.1870   27.9680   43.3480 C   0  0  0  0  0  0  0  0  0  0  0  0
   36.2470   27.3410   44.1830 F   0  0  0  0  0  0  0  0  0  0  0  0
   37.3690   29.2860   43.6550 F   0  0  0  0  0  0  0  0  0  0  0  0
   38.3840   27.2850   43.5130 F   0  0  0  0  0  0  0  0  0  0  0  0
   37.5890   25.5280   41.4830 C   0  0  0  0  0  0  0  0  0  0  0  0
   36.9680   24.5330   41.9610 O   0  0  0  0  0  0  0  0  0  0  0  0
   38.6150   25.2030   41.4150 H   0  0  0  0  0  0  0  0  0  0  0  0
  1  8  1  0  0  0  0
  1 22  1  0  0  0  0
  2  1  1  0  0  0  0
  3  1  1  0  0  0  0
  4 10  1  0  0  0  0
  5  4  2  0  0  0  0
  5 11  1  0  0  0  0
  6  5  1  0  0  0  0
  7  6  2  0  0  0  0
  7  8  1  0  0  0  0
  8  9  2  0  0  0  0
  9  4  1  0  0  0  0
 11 17  2  0  0  0  0
 12 11  1  0  0  0  0
 12 13  2  0  0  0  0
 13 15  1  0  0  0  0
 14 13  1  0  0  0  0
 15 16  1  0  0  0  0
 17 15  1  0  0  0  0
 18  6  1  0  0  0  0
 18 20  1  0  0  0  0
 19 18  1  0  0  0  0
 21 18  1  0  0  0  0
 22 23  1  0  0  0  0
 22 25  1  0  0  0  0
 24 22  1  0  0  0  0
 25 29  2  0  0  0  0
 26 25  1  0  0  0  0
 26 27  2  0  0  0  0
 27 35  1  0  0  0  0
 27 28  1  0  0  0  0
 28 31  1  0  0  0  0
 29 28  1  0  0  0  0
 30 26  1  0  0  0  0
 31 34  1  0  0  0  0
 31 33  1  0  0  0  0
 31 32  1  0  0  0  0
 35 36  2  0  0  0  0
 37 35  1  0  0  0  0
M  END
>  <minimizedAffinity>
-5.9655571

$$$$

 OpenBabel03242515213D

 37 39  0  0  0  0  0  0  0  0999 V2000
   36.5940   31.3820   40.4960 C   0  0  0  0  0  0  0  0  0  0  0  0
   35.5770   31.6840   40.7280 H   0  0  0  0  0  0  0  0  0  0  0  0
   37.2420   31.8900   41.2620 H   0  0  0  0  0  0  0  0  0  0  0  0
   37.0880   27.8120   39.6380 C   0  0  0  0  0  0  0  0  0  0  0  0
   37.2120   27.2310   40.9410 C   0  0  0  0  0  0  0  0  0  0  0  0
   37.1180   28.0790   42.0030 C   0  0  0  0  0  0  0  0  0  0  0  0
   36.9180   29.3760   41.7200 N   0  0  0  0  0  0  0  0  0  0  0  0
   36.8030   29.9180   40.5200 C   0  0  0  0  0  0  0  0  0  0  0  0
   36.8900   29.1220   39.4830 N   0  0  0  0  0  0  0  0  0  0  0  0
   37.1450   27.2390   38.7220 H   0  0  0  0  0  0  0  0  0  0  0  0
   37.4550   25.7710   40.9540 C   0  0  0  0  0  0  0  0  0  0  0  0
   36.6670   24.6960   40.9700 N   0  0  0  0  0  0  0  0  0  0  0  0
   37.3690   23.5650   40.9740 C   0  0  0  0  0  0  0  0  0  0  0  0
   36.9610   22.5630   40.9850 H   0  0  0  0  0  0  0  0  0  0  0  0
   38.6540   23.9230   40.9610 N   0  0  0  0  0  0  0  0  0  0  0  0
   39.4990   23.3390   40.9590 H   0  0  0  0  0  0  0  0  0  0  0  0
   38.6750   25.2150   40.9490 N   0  0  0  0  0  0  0  0  0  0  0  0
   37.2460   27.5020   43.3270 C   0  0  0  0  0  0  0  0  0  0  0  0
   36.1800   26.6100   43.5550 F   0  0  0  0  0  0  0  0  0  0  0  0
   36.9780   28.5350   44.2420 F   0  0  0  0  0  0  0  0  0  0  0  0
   38.4150   26.8650   43.5440 F   0  0  0  0  0  0  0  0  0  0  0  0
   36.9600   32.0070   39.1810 C   0  0  0  0  0  0  0  0  0  0  0  0
   36.8310   31.3300   38.3070 H   0  0  0  0  0  0  0  0  0  0  0  0
   36.2490   32.8560   39.0150 H   0  0  0  0  0  0  0  0  0  0  0  0
   38.3080   32.5980   39.2100 C   0  0  0  0  0  0  0  0  0  0  0  0
   38.8310   33.5140   40.0660 C   0  0  0  0  0  0  0  0  0  0  0  0
   40.1250   33.7370   39.6670 C   0  0  0  0  0  0  0  0  0  0  0  0
   40.3670   32.9780   38.6050 N   0  0  0  0  0  0  0  0  0  0  0  0
   39.2630   32.2970   38.3410 N   0  0  0  0  0  0  0  0  0  0  0  0
   38.2880   33.9610   40.9000 H   0  0  0  0  0  0  0  0  0  0  0  0
   41.6110   32.8750   37.8280 C   0  0  0  0  0  0  0  0  0  0  0  0
   42.6230   32.3030   38.6160 F   0  0  0  0  0  0  0  0  0  0  0  0
   41.9550   34.1010   37.3360 F   0  0  0  0  0  0  0  0  0  0  0  0
   41.3840   32.0010   36.7740 F   0  0  0  0  0  0  0  0  0  0  0  0
   41.0630   34.6530   40.3040 C   0  0  0  0  0  0  0  0  0  0  0  0
   42.0370   34.2760   41.0200 O   0  0  0  0  0  0  0  0  0  0  0  0
   41.1240   35.7290   40.3050 H   0  0  0  0  0  0  0  0  0  0  0  0
  1  8  1  0  0  0  0
  1  2  1  0  0  0  0
  1  3  1  0  0  0  0
  4  5  1  0  0  0  0
  5 11  1  0  0  0  0
  5  6  2  0  0  0  0
  6 18  1  0  0  0  0
  7  6  1  0  0  0  0
  8  7  2  0  0  0  0
  9  4  2  0  0  0  0
  9  8  1  0  0  0  0
 10  4  1  0  0  0  0
 11 12  1  0  0  0  0
 12 13  2  0  0  0  0
 13 14  1  0  0  0  0
 15 13  1  0  0  0  0
 16 15  1  0  0  0  0
 17 11  2  0  0  0  0
 17 15  1  0  0  0  0
 18 21  1  0  0  0  0
 18 19  1  0  0  0  0
 18 20  1  0  0  0  0
 22 25  1  0  0  0  0
 22  1  1  0  0  0  0
 23 22  1  0  0  0  0
 24 22  1  0  0  0  0
 25 26  1  0  0  0  0
 26 30  1  0  0  0  0
 27 26  2  0  0  0  0
 27 35  1  0  0  0  0
 28 27  1  0  0  0  0
 29 28  1  0  0  0  0
 29 25  2  0  0  0  0
 31 28  1  0  0  0  0
 31 32  1  0  0  0  0
 33 31  1  0  0  0  0
 34 31  1  0  0  0  0
 35 37  1  0  0  0  0
 35 36  2  0  0  0  0
M  END
>  <minimizedAffinity>
-5.94139338

$$$$

 OpenBabel03242515213D

 37 39  0  0  0  0  0  0  0  0999 V2000
   35.5000   29.3060   38.9830 C   0  0  0  0  0  0  0  0  0  0  0  0
   34.5990   28.8900   38.5410 H   0  0  0  0  0  0  0  0  0  0  0  0
   35.1460   30.0930   39.7050 H   0  0  0  0  0  0  0  0  0  0  0  0
   37.6650   26.4310   39.8600 C   0  0  0  0  0  0  0  0  0  0  0  0
   37.8720   26.6600   41.2590 C   0  0  0  0  0  0  0  0  0  0  0  0
   37.2680   27.7560   41.7970 C   0  0  0  0  0  0  0  0  0  0  0  0
   36.5400   28.5120   40.9610 N   0  0  0  0  0  0  0  0  0  0  0  0
   36.3450   28.3070   39.6710 C   0  0  0  0  0  0  0  0  0  0  0  0
   36.9150   27.2580   39.1300 N   0  0  0  0  0  0  0  0  0  0  0  0
   38.0910   25.5950   39.3240 H   0  0  0  0  0  0  0  0  0  0  0  0
   38.7470   25.6740   41.9300 C   0  0  0  0  0  0  0  0  0  0  0  0
   40.0600   25.5900   42.1490 N   0  0  0  0  0  0  0  0  0  0  0  0
   40.3840   24.4850   42.8170 C   0  0  0  0  0  0  0  0  0  0  0  0
   41.3810   24.1910   43.1150 H   0  0  0  0  0  0  0  0  0  0  0  0
   39.2410   23.8330   43.0370 N   0  0  0  0  0  0  0  0  0  0  0  0
   39.0740   22.9420   43.5200 H   0  0  0  0  0  0  0  0  0  0  0  0
   38.3030   24.5490   42.5090 N   0  0  0  0  0  0  0  0  0  0  0  0
   37.4740   27.9990   43.2130 C   0  0  0  0  0  0  0  0  0  0  0  0
   36.5460   27.2470   43.9580 F   0  0  0  0  0  0  0  0  0  0  0  0
   37.0590   29.3200   43.4560 F   0  0  0  0  0  0  0  0  0  0  0  0
   38.7220   27.7260   43.6460 F   0  0  0  0  0  0  0  0  0  0  0  0
   36.2290   30.0500   37.9020 C   0  0  0  0  0  0  0  0  0  0  0  0
   36.6790   29.3920   37.1260 H   0  0  0  0  0  0  0  0  0  0  0  0
   35.4690   30.6760   37.3680 H   0  0  0  0  0  0  0  0  0  0  0  0
   37.2200   30.9880   38.4530 C   0  0  0  0  0  0  0  0  0  0  0  0
   37.0530   31.9860   39.3610 C   0  0  0  0  0  0  0  0  0  0  0  0
   38.2830   32.5700   39.5390 C   0  0  0  0  0  0  0  0  0  0  0  0
   39.1570   31.9410   38.7620 N   0  0  0  0  0  0  0  0  0  0  0  0
   38.5010   30.9900   38.1140 N   0  0  0  0  0  0  0  0  0  0  0  0
   36.1030   32.2390   39.8330 H   0  0  0  0  0  0  0  0  0  0  0  0
   40.5940   32.2080   38.6110 C   0  0  0  0  0  0  0  0  0  0  0  0
   41.2570   31.9720   39.8260 F   0  0  0  0  0  0  0  0  0  0  0  0
   40.7840   33.4770   38.1440 F   0  0  0  0  0  0  0  0  0  0  0  0
   41.1030   31.2980   37.6950 F   0  0  0  0  0  0  0  0  0  0  0  0
   38.5690   33.6880   40.4290 C   0  0  0  0  0  0  0  0  0  0  0  0
   38.4870   34.9030   40.0790 O   0  0  0  0  0  0  0  0  0  0  0  0
   38.8780   33.7210   41.4610 H   0  0  0  0  0  0  0  0  0  0  0  0
  1  8  1  0  0  0  0
  1  3  1  0  0  0  0
  2  1  1  0  0  0  0
  4  5  1  0  0  0  0
  5  6  2  0  0  0  0
  5 11  1  0  0  0  0
  6 18  1  0  0  0  0
  7  6  1  0  0  0  0
  8  7  2  0  0  0  0
  9  8  1  0  0  0  0
  9  4  2  0  0  0  0
 10  4  1  0  0  0  0
 11 12  1  0  0  0  0
 11 17  2  0  0  0  0
 12 13  2  0  0  0  0
 13 15  1  0  0  0  0
 13 14  1  0  0  0  0
 15 16  1  0  0  0  0
 17 15  1  0  0  0  0
 18 20  1  0  0  0  0
 18 21  1  0  0  0  0
 18 19  1  0  0  0  0
 22 25  1  0  0  0  0
 22  1  1  0  0  0  0
 23 22  1  0  0  0  0
 24 22  1  0  0  0  0
 25 26  1  0  0  0  0
 26 27  2  0  0  0  0
 26 30  1  0  0  0  0
 27 35  1  0  0  0  0
 28 27  1  0  0  0  0
 29 25  2  0  0  0  0
 29 28  1  0  0  0  0
 31 28  1  0  0  0  0
 31 32  1  0  0  0  0
 33 31  1  0  0  0  0
 34 31  1  0  0  0  0
 35 37  1  0  0  0  0
 36 35  2  0  0  0  0
M  END
>  <minimizedAffinity>
-5.84195757

$$$$

 OpenBabel03242515213D

 37 39  0  0  0  0  0  0  0  0999 V2000
   36.7300   31.0500   39.6930 C   0  0  0  0  0  0  0  0  0  0  0  0
   35.8900   31.5710   39.2430 H   0  0  0  0  0  0  0  0  0  0  0  0
   36.7380   30.0270   39.2240 H   0  0  0  0  0  0  0  0  0  0  0  0
   39.5980   33.3940   39.7290 C   0  0  0  0  0  0  0  0  0  0  0  0
   40.5490   32.6780   38.9330 C   0  0  0  0  0  0  0  0  0  0  0  0
   40.1540   31.4680   38.4470 C   0  0  0  0  0  0  0  0  0  0  0  0
   38.9110   31.0700   38.7620 N   0  0  0  0  0  0  0  0  0  0  0  0
   38.0300   31.7260   39.4950 C   0  0  0  0  0  0  0  0  0  0  0  0
   38.3870   32.8930   39.9740 N   0  0  0  0  0  0  0  0  0  0  0  0
   39.7970   34.3630   40.1670 H   0  0  0  0  0  0  0  0  0  0  0  0
   41.8580   33.3480   38.7690 C   0  0  0  0  0  0  0  0  0  0  0  0
   43.0610   33.1880   39.3210 N   0  0  0  0  0  0  0  0  0  0  0  0
   43.9490   34.0530   38.8360 C   0  0  0  0  0  0  0  0  0  0  0  0
   44.9900   34.1240   39.1230 H   0  0  0  0  0  0  0  0  0  0  0  0
   43.2960   34.7960   37.9410 N   0  0  0  0  0  0  0  0  0  0  0  0
   43.6350   35.5690   37.3550 H   0  0  0  0  0  0  0  0  0  0  0  0
   42.0790   34.3630   37.9230 N   0  0  0  0  0  0  0  0  0  0  0  0
   41.1110   30.7320   37.6420 C   0  0  0  0  0  0  0  0  0  0  0  0
   40.5030   29.5630   37.1430 F   0  0  0  0  0  0  0  0  0  0  0  0
   42.0700   30.2180   38.5320 F   0  0  0  0  0  0  0  0  0  0  0  0
   41.6320   31.4370   36.6180 F   0  0  0  0  0  0  0  0  0  0  0  0
   36.3980   30.8260   41.1400 C   0  0  0  0  0  0  0  0  0  0  0  0
   36.6660   31.6780   41.8020 H   0  0  0  0  0  0  0  0  0  0  0  0
   35.2840   30.7280   41.2070 H   0  0  0  0  0  0  0  0  0  0  0  0
   36.9530   29.5580   41.6420 C   0  0  0  0  0  0  0  0  0  0  0  0
   37.8040   29.3380   42.6780 C   0  0  0  0  0  0  0  0  0  0  0  0
   38.0190   27.9840   42.7350 C   0  0  0  0  0  0  0  0  0  0  0  0
   37.3180   27.4120   41.7630 N   0  0  0  0  0  0  0  0  0  0  0  0
   36.6800   28.3740   41.1120 N   0  0  0  0  0  0  0  0  0  0  0  0
   38.2140   30.1210   43.3170 H   0  0  0  0  0  0  0  0  0  0  0  0
   37.2300   25.9840   41.4260 C   0  0  0  0  0  0  0  0  0  0  0  0
   36.6520   25.2740   42.4920 F   0  0  0  0  0  0  0  0  0  0  0  0
   38.4640   25.5110   41.0840 F   0  0  0  0  0  0  0  0  0  0  0  0
   36.3680   25.8530   40.3460 F   0  0  0  0  0  0  0  0  0  0  0  0
   38.8720   27.3000   43.6990 C   0  0  0  0  0  0  0  0  0  0  0  0
   40.1370   27.3570   43.6810 O   0  0  0  0  0  0  0  0  0  0  0  0
   38.6390   26.6700   44.5410 H   0  0  0  0  0  0  0  0  0  0  0  0
  1 22  1  0  0  0  0
  2  1  1  0  0  0  0
  3  1  1  0  0  0  0
  4  9  1  0  0  0  0
  4 10  1  0  0  0  0
  5  4  2  0  0  0  0
  6  7  2  0  0  0  0
  6  5  1  0  0  0  0
  7  8  1  0  0  0  0
  8  1  1  0  0  0  0
  8  9  2  0  0  0  0
 11  5  1  0  0  0  0
 11 12  1  0  0  0  0
 13 14  1  0  0  0  0
 13 12  2  0  0  0  0
 15 13  1  0  0  0  0
 16 15  1  0  0  0  0
 17 15  1  0  0  0  0
 17 11  2  0  0  0  0
 18  6  1  0  0  0  0
 18 20  1  0  0  0  0
 19 18  1  0  0  0  0
 21 18  1  0  0  0  0
 22 24  1  0  0  0  0
 22 25  1  0  0  0  0
 22 23  1  0  0  0  0
 25 26  1  0  0  0  0
 26 27  2  0  0  0  0
 26 30  1  0  0  0  0
 27 35  1  0  0  0  0
 28 27  1  0  0  0  0
 29 25  2  0  0  0  0
 29 28  1  0  0  0  0
 31 28  1  0  0  0  0
 31 32  1  0  0  0  0
 33 31  1  0  0  0  0
 34 31  1  0  0  0  0
 35 37  1  0  0  0  0
 36 35  2  0  0  0  0
M  END
>  <minimizedAffinity>
-5.78376532

$$$$

 OpenBabel03242515213D

 37 39  0  0  0  0  0  0  0  0999 V2000
   35.0230   28.3810   36.4340 C   0  0  0  0  0  0  0  0  0  0  0  0
   34.8160   28.6950   35.4160 H   0  0  0  0  0  0  0  0  0  0  0  0
   35.5620   27.3980   36.3430 H   0  0  0  0  0  0  0  0  0  0  0  0
   37.3300   31.0660   37.5270 C   0  0  0  0  0  0  0  0  0  0  0  0
   37.1600   31.0130   38.9490 C   0  0  0  0  0  0  0  0  0  0  0  0
   36.2890   30.0810   39.4270 C   0  0  0  0  0  0  0  0  0  0  0  0
   35.6780   29.3060   38.5180 N   0  0  0  0  0  0  0  0  0  0  0  0
   35.8300   29.3510   37.2060 C   0  0  0  0  0  0  0  0  0  0  0  0
   36.6630   30.2390   36.7220 N   0  0  0  0  0  0  0  0  0  0  0  0
   37.9930   31.7620   37.0320 H   0  0  0  0  0  0  0  0  0  0  0  0
   37.9460   32.0090   39.7090 C   0  0  0  0  0  0  0  0  0  0  0  0
   39.1350   31.9940   40.3120 N   0  0  0  0  0  0  0  0  0  0  0  0
   39.4210   33.1650   40.8780 C   0  0  0  0  0  0  0  0  0  0  0  0
   40.3230   33.4040   41.4240 H   0  0  0  0  0  0  0  0  0  0  0  0
   38.3800   33.9620   40.6320 N   0  0  0  0  0  0  0  0  0  0  0  0
   38.2230   34.9410   40.9030 H   0  0  0  0  0  0  0  0  0  0  0  0
   37.5350   33.2630   39.9490 N   0  0  0  0  0  0  0  0  0  0  0  0
   36.1070   30.0200   40.8660 C   0  0  0  0  0  0  0  0  0  0  0  0
   37.2870   29.5440   41.4690 F   0  0  0  0  0  0  0  0  0  0  0  0
   35.1990   28.9760   41.1100 F   0  0  0  0  0  0  0  0  0  0  0  0
   35.7590   31.1950   41.4300 F   0  0  0  0  0  0  0  0  0  0  0  0
   33.7080   28.0620   37.0830 C   0  0  0  0  0  0  0  0  0  0  0  0
   33.3540   27.0230   36.8990 H   0  0  0  0  0  0  0  0  0  0  0  0
   33.8630   28.1380   38.1900 H   0  0  0  0  0  0  0  0  0  0  0  0
   32.6730   29.0520   36.7430 C   0  0  0  0  0  0  0  0  0  0  0  0
   32.3940   29.6330   35.5480 C   0  0  0  0  0  0  0  0  0  0  0  0
   31.3390   30.4870   35.7570 C   0  0  0  0  0  0  0  0  0  0  0  0
   30.9990   30.4170   37.0390 N   0  0  0  0  0  0  0  0  0  0  0  0
   31.8120   29.5480   37.6210 N   0  0  0  0  0  0  0  0  0  0  0  0
   32.9320   29.4300   34.6210 H   0  0  0  0  0  0  0  0  0  0  0  0
   29.9290   31.1460   37.7350 C   0  0  0  0  0  0  0  0  0  0  0  0
   30.2240   32.5190   37.7650 F   0  0  0  0  0  0  0  0  0  0  0  0
   29.7420   30.6200   38.9810 F   0  0  0  0  0  0  0  0  0  0  0  0
   28.7640   31.0040   36.9940 F   0  0  0  0  0  0  0  0  0  0  0  0
   30.7090   31.3220   34.7430 C   0  0  0  0  0  0  0  0  0  0  0  0
   30.7930   31.1000   33.4990 O   0  0  0  0  0  0  0  0  0  0  0  0
   30.1040   32.2100   34.8210 H   0  0  0  0  0  0  0  0  0  0  0  0
  1 22  1  0  0  0  0
  1  8  1  0  0  0  0
  2  1  1  0  0  0  0
  3  1  1  0  0  0  0
  4  5  1  0  0  0  0
  5  6  2  0  0  0  0
  5 11  1  0  0  0  0
  6 18  1  0  0  0  0
  7  6  1  0  0  0  0
  8  7  2  0  0  0  0
  9  8  1  0  0  0  0
  9  4  2  0  0  0  0
 10  4  1  0  0  0  0
 11 17  2  0  0  0  0
 11 12  1  0  0  0  0
 12 13  2  0  0  0  0
 13 14  1  0  0  0  0
 15 13  1  0  0  0  0
 15 16  1  0  0  0  0
 17 15  1  0  0  0  0
 18 20  1  0  0  0  0
 18 21  1  0  0  0  0
 18 19  1  0  0  0  0
 22 24  1  0  0  0  0
 23 22  1  0  0  0  0
 25 22  1  0  0  0  0
 25 29  2  0  0  0  0
 26 27  2  0  0  0  0
 26 25  1  0  0  0  0
 27 28  1  0  0  0  0
 28 29  1  0  0  0  0
 28 31  1  0  0  0  0
 30 26  1  0  0  0  0
 31 32  1  0  0  0  0
 31 33  1  0  0  0  0
 34 31  1  0  0  0  0
 35 37  1  0  0  0  0
 35 27  1  0  0  0  0
 36 35  2  0  0  0  0
M  END
>  <minimizedAffinity>
-5.73602629

$$$$

 OpenBabel03242515213D

 37 39  0  0  0  0  0  0  0  0999 V2000
   36.1190   29.3640   38.2630 C   0  0  0  0  0  0  0  0  0  0  0  0
   35.3000   28.9680   37.6690 H   0  0  0  0  0  0  0  0  0  0  0  0
   35.6630   30.1620   38.9110 H   0  0  0  0  0  0  0  0  0  0  0  0
   37.9530   26.3990   39.5150 C   0  0  0  0  0  0  0  0  0  0  0  0
   38.0170   26.6860   40.9170 C   0  0  0  0  0  0  0  0  0  0  0  0
   37.4380   27.8480   41.3310 C   0  0  0  0  0  0  0  0  0  0  0  0
   36.8670   28.6070   40.3820 N   0  0  0  0  0  0  0  0  0  0  0  0
   36.8050   28.3470   39.0880 C   0  0  0  0  0  0  0  0  0  0  0  0
   37.3540   27.2350   38.6660 N   0  0  0  0  0  0  0  0  0  0  0  0
   38.3740   25.5080   39.0700 H   0  0  0  0  0  0  0  0  0  0  0  0
   38.7350   25.6800   41.7290 C   0  0  0  0  0  0  0  0  0  0  0  0
   40.0050   25.5200   42.1040 N   0  0  0  0  0  0  0  0  0  0  0  0
   40.1680   24.4320   42.8530 C   0  0  0  0  0  0  0  0  0  0  0  0
   41.1010   24.0870   43.2790 H   0  0  0  0  0  0  0  0  0  0  0  0
   38.9630   23.8710   42.9660 N   0  0  0  0  0  0  0  0  0  0  0  0
   38.6780   23.0190   43.4650 H   0  0  0  0  0  0  0  0  0  0  0  0
   38.1460   24.6200   42.3000 N   0  0  0  0  0  0  0  0  0  0  0  0
   37.5000   28.1520   42.7480 C   0  0  0  0  0  0  0  0  0  0  0  0
   36.6040   27.3190   43.4460 F   0  0  0  0  0  0  0  0  0  0  0  0
   36.9220   29.4220   42.9110 F   0  0  0  0  0  0  0  0  0  0  0  0
   38.7310   28.0340   43.2870 F   0  0  0  0  0  0  0  0  0  0  0  0
   37.0450   30.0850   37.3270 C   0  0  0  0  0  0  0  0  0  0  0  0
   37.5760   29.4170   36.6130 H   0  0  0  0  0  0  0  0  0  0  0  0
   36.4110   30.7610   36.6980 H   0  0  0  0  0  0  0  0  0  0  0  0
   37.9860   30.9570   38.0490 C   0  0  0  0  0  0  0  0  0  0  0  0
   39.3300   30.8350   38.2060 C   0  0  0  0  0  0  0  0  0  0  0  0
   39.7400   31.9040   38.9630 C   0  0  0  0  0  0  0  0  0  0  0  0
   38.6740   32.6410   39.2500 N   0  0  0  0  0  0  0  0  0  0  0  0
   37.6240   32.0580   38.6920 N   0  0  0  0  0  0  0  0  0  0  0  0
   39.9290   30.0240   37.7900 H   0  0  0  0  0  0  0  0  0  0  0  0
   38.6140   33.8820   40.0350 C   0  0  0  0  0  0  0  0  0  0  0  0
   39.5480   34.8080   39.5440 F   0  0  0  0  0  0  0  0  0  0  0  0
   38.7940   33.6030   41.3600 F   0  0  0  0  0  0  0  0  0  0  0  0
   37.3590   34.4450   39.8490 F   0  0  0  0  0  0  0  0  0  0  0  0
   41.1110   32.1730   39.3780 C   0  0  0  0  0  0  0  0  0  0  0  0
   41.9290   32.8610   38.6980 O   0  0  0  0  0  0  0  0  0  0  0  0
   41.6650   31.8780   40.2540 H   0  0  0  0  0  0  0  0  0  0  0  0
  1  3  1  0  0  0  0
  1  8  1  0  0  0  0
  2  1  1  0  0  0  0
  4  5  1  0  0  0  0
  5  6  2  0  0  0  0
  5 11  1  0  0  0  0
  6 18  1  0  0  0  0
  7  6  1  0  0  0  0
  8  7  2  0  0  0  0
  9  8  1  0  0  0  0
  9  4  2  0  0  0  0
 10  4  1  0  0  0  0
 11 12  1  0  0  0  0
 11 17  2  0  0  0  0
 12 13  2  0  0  0  0
 13 15  1  0  0  0  0
 13 14  1  0  0  0  0
 15 16  1  0  0  0  0
 17 15  1  0  0  0  0
 18 20  1  0  0  0  0
 18 21  1  0  0  0  0
 18 19  1  0  0  0  0
 22 25  1  0  0  0  0
 22  1  1  0  0  0  0
 23 22  1  0  0  0  0
 24 22  1  0  0  0  0
 25 26  1  0  0  0  0
 25 29  2  0  0  0  0
 26 27  2  0  0  0  0
 27 28  1  0  0  0  0
 27 35  1  0  0  0  0
 28 31  1  0  0  0  0
 29 28  1  0  0  0  0
 30 26  1  0  0  0  0
 31 33  1  0  0  0  0
 32 31  1  0  0  0  0
 34 31  1  0  0  0  0
 35 37  1  0  0  0  0
 36 35  2  0  0  0  0
M  END
>  <minimizedAffinity>
-5.63603067

$$$$

 OpenBabel03242515213D

 37 39  0  0  0  0  0  0  0  0999 V2000
   37.5790   28.3890   43.2530 C   0  0  0  0  0  0  0  0  0  0  0  0
   37.4230   28.5190   44.3200 H   0  0  0  0  0  0  0  0  0  0  0  0
   36.5650   28.1570   42.8250 H   0  0  0  0  0  0  0  0  0  0  0  0
   39.7480   31.1970   42.1880 C   0  0  0  0  0  0  0  0  0  0  0  0
   38.9720   31.7540   41.1210 C   0  0  0  0  0  0  0  0  0  0  0  0
   37.7840   31.1470   40.8450 C   0  0  0  0  0  0  0  0  0  0  0  0
   37.4610   30.0870   41.6020 N   0  0  0  0  0  0  0  0  0  0  0  0
   38.1720   29.5680   42.5870 C   0  0  0  0  0  0  0  0  0  0  0  0
   39.3190   30.1350   42.8720 N   0  0  0  0  0  0  0  0  0  0  0  0
   40.7050   31.5930   42.4990 H   0  0  0  0  0  0  0  0  0  0  0  0
   39.5890   32.9130   40.4390 C   0  0  0  0  0  0  0  0  0  0  0  0
   39.6200   34.2250   40.6760 N   0  0  0  0  0  0  0  0  0  0  0  0
   40.3250   34.8800   39.7560 C   0  0  0  0  0  0  0  0  0  0  0  0
   40.4980   35.9470   39.7280 H   0  0  0  0  0  0  0  0  0  0  0  0
   40.7640   33.9590   38.8960 N   0  0  0  0  0  0  0  0  0  0  0  0
   41.3400   34.0690   38.0520 H   0  0  0  0  0  0  0  0  0  0  0  0
   40.3200   32.8220   39.3190 N   0  0  0  0  0  0  0  0  0  0  0  0
   36.9920   31.7010   39.7630 C   0  0  0  0  0  0  0  0  0  0  0  0
   35.7490   31.0410   39.7060 F   0  0  0  0  0  0  0  0  0  0  0  0
   37.6060   31.2940   38.5670 F   0  0  0  0  0  0  0  0  0  0  0  0
   36.7870   33.0320   39.8520 F   0  0  0  0  0  0  0  0  0  0  0  0
   38.3890   27.1390   43.0660 C   0  0  0  0  0  0  0  0  0  0  0  0
   39.4860   27.3160   43.0000 H   0  0  0  0  0  0  0  0  0  0  0  0
   38.2370   26.5120   43.9820 H   0  0  0  0  0  0  0  0  0  0  0  0
   37.9050   26.3340   41.9320 C   0  0  0  0  0  0  0  0  0  0  0  0
   37.0740   26.6870   40.9160 C   0  0  0  0  0  0  0  0  0  0  0  0
   36.9310   25.5790   40.1180 C   0  0  0  0  0  0  0  0  0  0  0  0
   37.6540   24.5960   40.6410 N   0  0  0  0  0  0  0  0  0  0  0  0
   38.2360   25.0660   41.7340 N   0  0  0  0  0  0  0  0  0  0  0  0
   36.6280   27.6750   40.7970 H   0  0  0  0  0  0  0  0  0  0  0  0
   37.8150   23.2230   40.1410 C   0  0  0  0  0  0  0  0  0  0  0  0
   36.5570   22.6210   39.9770 F   0  0  0  0  0  0  0  0  0  0  0  0
   38.6320   22.5170   40.9760 F   0  0  0  0  0  0  0  0  0  0  0  0
   38.3920   23.2920   38.8800 F   0  0  0  0  0  0  0  0  0  0  0  0
   36.1210   25.5040   38.9080 C   0  0  0  0  0  0  0  0  0  0  0  0
   35.6540   26.5190   38.3120 O   0  0  0  0  0  0  0  0  0  0  0  0
   35.7830   24.6650   38.3240 H   0  0  0  0  0  0  0  0  0  0  0  0
  1  2  1  0  0  0  0
  3  1  1  0  0  0  0
  4 10  1  0  0  0  0
  4  9  1  0  0  0  0
  5  4  2  0  0  0  0
  6  5  1  0  0  0  0
  6  7  2  0  0  0  0
  7  8  1  0  0  0  0
  8  9  2  0  0  0  0
  8  1  1  0  0  0  0
 11 12  1  0  0  0  0
 11  5  1  0  0  0  0
 13 12  2  0  0  0  0
 14 13  1  0  0  0  0
 15 17  1  0  0  0  0
 15 13  1  0  0  0  0
 16 15  1  0  0  0  0
 17 11  2  0  0  0  0
 18 21  1  0  0  0  0
 18  6  1  0  0  0  0
 19 18  1  0  0  0  0
 20 18  1  0  0  0  0
 22  1  1  0  0  0  0
 22 24  1  0  0  0  0
 23 22  1  0  0  0  0
 25 22  1  0  0  0  0
 26 25  1  0  0  0  0
 27 28  1  0  0  0  0
 27 26  2  0  0  0  0
 28 29  1  0  0  0  0
 29 25  2  0  0  0  0
 30 26  1  0  0  0  0
 31 28  1  0  0  0  0
 31 33  1  0  0  0  0
 32 31  1  0  0  0  0
 34 31  1  0  0  0  0
 35 27  1  0  0  0  0
 36 35  2  0  0  0  0
 37 35  1  0  0  0  0
M  END
>  <minimizedAffinity>
-5.63070869

$$$$
