
 OpenBabel03252509313D

 25 26  0  0  0  0  0  0  0  0999 V2000
   48.3140   33.3400   43.4680 O   0  0  0  0  0  0  0  0  0  0  0  0
   47.0140   33.3210   42.9900 C   0  0  0  0  0  0  0  0  0  0  0  0
   46.7120   32.2610   42.8980 H   0  0  0  0  0  0  0  0  0  0  0  0
   46.9240   33.7250   41.9490 H   0  0  0  0  0  0  0  0  0  0  0  0
   44.9700   34.5350   45.8570 C   0  0  0  0  0  0  0  0  0  0  0  0
   45.8300   33.7230   45.0910 C   0  0  0  0  0  0  0  0  0  0  0  0
   46.1250   34.1470   43.8040 C   0  0  0  0  0  0  0  0  0  0  0  0
   45.5730   35.3170   43.3540 N   0  0  0  0  0  0  0  0  0  0  0  0
   44.7530   36.0670   44.1220 C   0  0  0  0  0  0  0  0  0  0  0  0
   44.4620   35.6710   45.3590 N   0  0  0  0  0  0  0  0  0  0  0  0
   44.6830   34.2910   46.8630 H   0  0  0  0  0  0  0  0  0  0  0  0
   46.2170   32.8240   45.5170 H   0  0  0  0  0  0  0  0  0  0  0  0
   44.4230   36.9530   43.5840 H   0  0  0  0  0  0  0  0  0  0  0  0
   50.0450   33.0490   41.5320 O   0  0  0  0  0  0  0  0  0  0  0  0
   49.2700   34.0930   42.2790 P   0  0  2  0  0  0  0  0  0  0  0  0
   50.2420   35.2220   43.0710 O   0  0  0  0  0  0  0  0  0  0  0  0
   50.2300   36.1160   42.6630 H   0  0  0  0  0  0  0  0  0  0  0  0
   48.2410   34.8760   41.2070 O   0  0  0  0  0  0  0  0  0  0  0  0
   48.0730   34.5820   39.8630 C   0  0  0  0  0  0  0  0  0  0  0  0
   48.7540   34.9080   38.7490 N   0  0  0  0  0  0  0  0  0  0  0  0
   48.1720   34.3610   37.6700 C   0  0  0  0  0  0  0  0  0  0  0  0
   48.4620   34.4240   36.6290 H   0  0  0  0  0  0  0  0  0  0  0  0
   47.1180   33.6940   38.1740 N   0  0  0  0  0  0  0  0  0  0  0  0
   46.4460   33.1470   37.5740 H   0  0  0  0  0  0  0  0  0  0  0  0
   47.0210   33.8000   39.4890 N   0  0  0  0  0  0  0  0  0  0  0  0
  2  1  1  0  0  0  0
  2  7  1  0  0  0  0
  3  2  1  0  0  0  0
  4  2  1  0  0  0  0
  5 11  1  0  0  0  0
  6 12  1  0  0  0  0
  6  5  2  0  0  0  0
  7  6  1  0  0  0  0
  8  7  2  0  0  0  0
  8  9  1  0  0  0  0
  9 10  2  0  0  0  0
 10  5  1  0  0  0  0
 13  9  1  0  0  0  0
 15 14  2  6  0  0  0
 15 16  1  0  0  0  0
 15  1  1  0  0  0  0
 17 16  1  0  0  0  0
 18 15  1  0  0  0  0
 19 18  1  0  0  0  0
 20 19  1  0  0  0  0
 21 23  1  0  0  0  0
 21 20  2  0  0  0  0
 22 21  1  0  0  0  0
 23 25  1  0  0  0  0
 24 23  1  0  0  0  0
 25 19  2  0  0  0  0
M  END
>  <minimizedAffinity>
-4.88641596

>  <minimizedRMSD>
1.07853949

$$$$
