REMARK  Name = 
REMARK  5 active torsions:
REMARK  status: ('A' for Active; 'I' for Inactive)
REMARK    1  A    between atoms: C_1  and  N_2
REMARK    2  A    between atoms: C_1  and  C_9
REMARK    3  A    between atoms: C_7  and  S_8
REMARK    4  A    between atoms: C_9  and  C_10
REMARK    5  A    between atoms: C_14  and  C_30
REMARK                            x       y       z     vdW  Elec       q    Type
REMARK                         _______ _______ _______ _____ _____    ______ ____
ROOT
ATOM      1  C   UNL     1      44.766  34.482  40.459  0.00  0.00    +0.000 C 
ATOM      2  H   UNL     1      44.844  34.506  39.347  0.00  0.00    +0.000 HD
ATOM      3  H   UNL     1      44.361  35.527  40.667  0.00  0.00    +0.000 HD
ENDROOT
BRANCH   1   4
ATOM      4  N   UNL     1      45.922  34.121  41.007  0.00  0.00    +0.000 N 
ATOM      5  C   UNL     1      46.835  33.131  40.564  0.00  0.00    +0.000 C 
ATOM      6  C   UNL     1      47.906  34.056  39.939  0.00  0.00    +0.000 C 
ATOM      7  C   UNL     1      48.505  34.983  40.901  0.00  0.00    +0.000 C 
ATOM      8  C   UNL     1      47.758  35.320  42.114  0.00  0.00    +0.000 C 
ATOM      9  C   UNL     1      46.324  34.876  42.197  0.00  0.00    +0.000 C 
ATOM     10  H   UNL     1      46.410  32.590  39.676  0.00  0.00    +0.000 HD
ATOM     11  H   UNL     1      47.261  32.432  41.257  0.00  0.00    +0.000 HD
ATOM     12  H   UNL     1      47.442  34.550  39.040  0.00  0.00    +0.000 HD
ATOM     13  H   UNL     1      48.675  33.366  39.534  0.00  0.00    +0.000 HD
ATOM     14  H   UNL     1      48.718  35.951  40.372  0.00  0.00    +0.000 HD
ATOM     15  H   UNL     1      49.508  34.615  41.254  0.00  0.00    +0.000 HD
ATOM     16  H   UNL     1      48.105  35.868  42.950  0.00  0.00    +0.000 HD
BRANCH   9  17
ATOM     17  S   UNL     1      45.304  35.295  43.570  0.00  0.00    +0.000 S 
ATOM     18  H   UNL     1      44.273  36.150  43.151  0.00  0.00    +0.000 HD
ENDBRANCH   9  17
ENDBRANCH   1   4
BRANCH   1  19
ATOM     19  C   UNL     1      43.639  33.544  40.773  0.00  0.00    +0.000 C 
ATOM     20  H   UNL     1      43.656  32.700  40.030  0.00  0.00    +0.000 HD
ATOM     21  H   UNL     1      43.634  33.126  41.780  0.00  0.00    +0.000 HD
BRANCH  19  22
ATOM     22  C   UNL     1      42.375  34.295  40.542  0.00  0.00    +0.000 A 
ATOM     23  C   UNL     1      41.631  34.138  39.387  0.00  0.00    +0.000 A 
ATOM     24  C   UNL     1      40.470  34.892  39.253  0.00  0.00    +0.000 A 
ATOM     25  N   UNL     1      40.115  35.749  40.263  0.00  0.00    +0.000 NA
ATOM     26  C   UNL     1      40.875  35.857  41.357  0.00  0.00    +0.000 A 
ATOM     27  N   UNL     1      41.980  35.140  41.484  0.00  0.00    +0.000 NA
ATOM     28  H   UNL     1      41.953  33.448  38.618  0.00  0.00    +0.000 HD
ATOM     29  H   UNL     1      39.875  34.781  38.351  0.00  0.00    +0.000 HD
BRANCH  26  30
ATOM     30  C   UNL     1      40.483  36.779  42.430  0.00  0.00    +0.000 A 
ATOM     31  N   UNL     1      40.632  36.644  43.760  0.00  0.00    +0.000 NA
ATOM     32  C   UNL     1      40.121  37.748  44.368  0.00  0.00    +0.000 A 
ATOM     33  H   UNL     1      40.058  38.004  45.418  0.00  0.00    +0.000 HD
ATOM     34  N   UNL     1      39.660  38.555  43.416  0.00  0.00    +0.000 N 
ATOM     35  H   UNL     1      39.197  39.485  43.405  0.00  0.00    +0.000 HD
ATOM     36  N   UNL     1      39.877  37.977  42.265  0.00  0.00    +0.000 NA
ENDBRANCH  26  30
ENDBRANCH  19  22
ENDBRANCH   1  19
TORSDOF 5
