
 OpenBabel03242521473D

 45 48  0  0  1  0  0  0  0  0999 V2000
   37.7940   32.8670   40.2870 C   0  0  0  0  0  0  0  0  0  0  0  0
   37.1590   33.2890   41.0860 H   0  0  0  0  0  0  0  0  0  0  0  0
   37.2390   32.6700   39.3690 H   0  0  0  0  0  0  0  0  0  0  0  0
   38.9090   33.8550   40.0270 C   0  0  0  0  0  0  0  0  0  0  0  0
   40.1510   33.3520   39.6050 C   0  0  0  0  0  0  0  0  0  0  0  0
   41.2040   34.2470   39.3470 C   0  0  0  0  0  0  0  0  0  0  0  0
   40.9650   35.5340   39.5170 N   0  0  0  0  0  0  0  0  0  0  0  0
   39.7620   36.0060   39.9250 C   0  0  0  0  0  0  0  0  0  0  0  0
   38.7260   35.1640   40.1820 N   0  0  0  0  0  0  0  0  0  0  0  0
   40.2110   32.2790   39.5060 H   0  0  0  0  0  0  0  0  0  0  0  0
   39.5940   37.0620   40.0570 H   0  0  0  0  0  0  0  0  0  0  0  0
   42.6140   33.4170   37.4720 C   0  0  2  0  0  0  0  0  0  0  0  0
   42.4490   33.6380   38.9180 C   0  0  2  0  0  0  0  0  0  0  0  0
   42.6610   32.3120   39.4390 O   0  0  0  0  0  0  0  0  0  0  0  0
   43.8560   31.9760   38.8240 C   0  0  0  0  0  0  0  0  0  0  0  0
   43.9720   32.6770   37.5090 C   0  0  1  0  0  0  0  0  0  0  0  0
   41.9070   32.6290   37.1270 H   0  0  0  0  0  0  0  0  0  0  0  0
   43.3220   34.2250   39.3230 H   0  0  0  0  0  0  0  0  0  0  0  0
   43.9420   30.8770   38.7630 H   0  0  0  0  0  0  0  0  0  0  0  0
   44.6750   32.3140   39.4870 H   0  0  0  0  0  0  0  0  0  0  0  0
   44.7900   33.3950   37.4230 H   0  0  0  0  0  0  0  0  0  0  0  0
   42.6030   34.5210   36.6960 O   0  0  0  0  0  0  0  0  0  0  0  0
   42.9480   35.3110   37.2200 H   0  0  0  0  0  0  0  0  0  0  0  0
   44.0360   31.8140   36.4100 O   0  0  0  0  0  0  0  0  0  0  0  0
   44.9440   31.6080   36.1280 H   0  0  0  0  0  0  0  0  0  0  0  0
   37.8150   30.5040   41.3520 C   0  0  0  0  0  0  0  0  0  0  0  0
   36.5590   30.4940   41.3210 O   0  0  0  0  0  0  0  0  0  0  0  0
   38.4350   31.6640   40.8090 N   0  0  0  0  0  0  0  0  0  0  0  0
   39.4880   31.6610   40.7780 H   0  0  0  0  0  0  0  0  0  0  0  0
   38.6400   29.4240   41.8940 C   0  0  0  0  0  0  0  0  0  0  0  0
   39.8130   29.7160   42.5060 C   0  0  0  0  0  0  0  0  0  0  0  0
   40.5360   28.6240   42.9950 C   0  0  0  0  0  0  0  0  0  0  0  0
   40.1210   27.3050   42.8880 C   0  0  0  0  0  0  0  0  0  0  0  0
   38.9290   27.1120   42.2580 C   0  0  0  0  0  0  0  0  0  0  0  0
   38.1990   28.1330   41.7700 N   0  0  0  0  0  0  0  0  0  0  0  0
   40.1970   30.7170   42.6250 H   0  0  0  0  0  0  0  0  0  0  0  0
   41.4820   28.8270   43.4910 H   0  0  0  0  0  0  0  0  0  0  0  0
   40.7000   26.4940   43.2740 H   0  0  0  0  0  0  0  0  0  0  0  0
   38.3580   25.7830   42.0660 C   0  0  0  0  0  0  0  0  0  0  0  0
   37.1680   25.6630   41.4620 N   0  0  0  0  0  0  0  0  0  0  0  0
   36.8260   24.3460   41.3870 C   0  0  0  0  0  0  0  0  0  0  0  0
   35.9090   23.9320   40.9460 H   0  0  0  0  0  0  0  0  0  0  0  0
   37.8470   23.6570   41.9660 N   0  0  0  0  0  0  0  0  0  0  0  0
   37.9050   22.6130   42.0760 H   0  0  0  0  0  0  0  0  0  0  0  0
   38.7760   24.5280   42.3780 N   0  0  0  0  0  0  0  0  0  0  0  0
  1 28  1  0  0  0  0
  1  2  1  0  0  0  0
  3  1  1  0  0  0  0
  4  9  1  0  0  0  0
  4  1  1  0  0  0  0
  5  4  2  0  0  0  0
  6  7  2  0  0  0  0
  6  5  1  0  0  0  0
  7  8  1  0  0  0  0
  8 11  1  0  0  0  0
  8  9  2  0  0  0  0
 10  5  1  0  0  0  0
 12 17  1  6  0  0  0
 12 16  1  0  0  0  0
 12 13  1  0  0  0  0
 13 18  1  1  0  0  0
 13  6  1  0  0  0  0
 13 14  1  0  0  0  0
 15 14  1  0  0  0  0
 15 20  1  0  0  0  0
 16 21  1  6  0  0  0
 16 15  1  0  0  0  0
 19 15  1  0  0  0  0
 22 23  1  0  0  0  0
 22 12  1  0  0  0  0
 24 16  1  0  0  0  0
 25 24  1  0  0  0  0
 26 30  1  0  0  0  0
 27 26  2  0  0  0  0
 28 26  1  0  0  0  0
 29 28  1  0  0  0  0
 30 31  1  0  0  0  0
 31 36  1  0  0  0  0
 31 32  2  0  0  0  0
 32 37  1  0  0  0  0
 33 32  1  0  0  0  0
 33 38  1  0  0  0  0
 34 33  2  0  0  0  0
 35 30  2  0  0  0  0
 35 34  1  0  0  0  0
 39 34  1  0  0  0  0
 39 45  2  0  0  0  0
 40 39  1  0  0  0  0
 41 40  2  0  0  0  0
 41 43  1  0  0  0  0
 42 41  1  0  0  0  0
 43 44  1  0  0  0  0
 43 45  1  0  0  0  0
M  END
>  <minimizedAffinity>
-7.22736359

$$$$

 OpenBabel03242521473D

 45 48  0  0  1  0  0  0  0  0999 V2000
   43.5810   30.9390   42.6930 C   0  0  0  0  0  0  0  0  0  0  0  0
   44.1470   30.4190   41.8990 H   0  0  0  0  0  0  0  0  0  0  0  0
   44.1770   31.1130   43.5900 H   0  0  0  0  0  0  0  0  0  0  0  0
   43.1000   32.2530   42.1190 C   0  0  0  0  0  0  0  0  0  0  0  0
   41.8970   32.2540   41.3910 C   0  0  0  0  0  0  0  0  0  0  0  0
   41.4200   33.4620   40.8530 C   0  0  0  0  0  0  0  0  0  0  0  0
   42.1400   34.5480   41.0630 N   0  0  0  0  0  0  0  0  0  0  0  0
   43.2980   34.5330   41.7660 C   0  0  0  0  0  0  0  0  0  0  0  0
   43.7840   33.3800   42.2980 N   0  0  0  0  0  0  0  0  0  0  0  0
   41.4100   31.2960   41.2940 H   0  0  0  0  0  0  0  0  0  0  0  0
   43.8660   35.4350   41.9220 H   0  0  0  0  0  0  0  0  0  0  0  0
   38.9370   33.6170   40.8740 C   0  0  2  0  0  0  0  0  0  0  0  0
   40.1740   33.3660   40.1160 C   0  0  2  0  0  0  0  0  0  0  0  0
   39.9170   32.0580   39.5690 O   0  0  0  0  0  0  0  0  0  0  0  0
   38.6690   32.2530   38.9990 C   0  0  0  0  0  0  0  0  0  0  0  0
   37.9170   33.3010   39.7550 C   0  0  1  0  0  0  0  0  0  0  0  0
   38.7690   32.7950   41.6080 H   0  0  0  0  0  0  0  0  0  0  0  0
   40.2140   34.0320   39.2070 H   0  0  0  0  0  0  0  0  0  0  0  0
   38.1460   31.2850   38.9210 H   0  0  0  0  0  0  0  0  0  0  0  0
   38.8300   32.6020   37.9610 H   0  0  0  0  0  0  0  0  0  0  0  0
   37.6810   34.2110   39.1990 H   0  0  0  0  0  0  0  0  0  0  0  0
   38.8080   34.8480   41.4130 O   0  0  0  0  0  0  0  0  0  0  0  0
   39.3100   35.5210   40.8530 H   0  0  0  0  0  0  0  0  0  0  0  0
   36.7380   32.8360   40.3480 O   0  0  0  0  0  0  0  0  0  0  0  0
   35.9460   32.9770   39.8030 H   0  0  0  0  0  0  0  0  0  0  0  0
   42.0090   28.8930   42.4400 C   0  0  0  0  0  0  0  0  0  0  0  0
   42.8520   28.3580   41.6760 O   0  0  0  0  0  0  0  0  0  0  0  0
   42.3800   30.1590   42.9750 N   0  0  0  0  0  0  0  0  0  0  0  0
   41.7080   30.5920   43.6600 H   0  0  0  0  0  0  0  0  0  0  0  0
   40.7190   28.3030   42.7950 C   0  0  0  0  0  0  0  0  0  0  0  0
   40.6710   27.2580   43.6560 C   0  0  0  0  0  0  0  0  0  0  0  0
   39.3970   26.7560   43.9390 C   0  0  0  0  0  0  0  0  0  0  0  0
   38.2250   27.2620   43.3980 C   0  0  0  0  0  0  0  0  0  0  0  0
   38.3740   28.3120   42.5430 C   0  0  0  0  0  0  0  0  0  0  0  0
   39.5810   28.8270   42.2420 N   0  0  0  0  0  0  0  0  0  0  0  0
   41.5420   26.8150   44.1140 H   0  0  0  0  0  0  0  0  0  0  0  0
   39.3270   25.9180   44.6270 H   0  0  0  0  0  0  0  0  0  0  0  0
   37.2660   26.8520   43.6370 H   0  0  0  0  0  0  0  0  0  0  0  0
   37.2360   28.9520   41.8930 C   0  0  0  0  0  0  0  0  0  0  0  0
   36.3350   28.1930   41.2560 N   0  0  0  0  0  0  0  0  0  0  0  0
   35.3630   28.9870   40.7250 C   0  0  0  0  0  0  0  0  0  0  0  0
   34.4890   28.6560   40.1470 H   0  0  0  0  0  0  0  0  0  0  0  0
   35.6960   30.2640   41.0580 N   0  0  0  0  0  0  0  0  0  0  0  0
   35.1560   31.1300   40.8050 H   0  0  0  0  0  0  0  0  0  0  0  0
   36.8310   30.2430   41.7660 N   0  0  0  0  0  0  0  0  0  0  0  0
  1 28  1  0  0  0  0
  1  3  1  0  0  0  0
  2  1  1  0  0  0  0
  4  9  1  0  0  0  0
  4  1  1  0  0  0  0
  5  4  2  0  0  0  0
  6  7  2  0  0  0  0
  6  5  1  0  0  0  0
  7  8  1  0  0  0  0
  8 11  1  0  0  0  0
  8  9  2  0  0  0  0
 10  5  1  0  0  0  0
 12 22  1  0  0  0  0
 12 17  1  1  0  0  0
 13 18  1  6  0  0  0
 13  6  1  0  0  0  0
 13 12  1  0  0  0  0
 14 13  1  0  0  0  0
 15 14  1  0  0  0  0
 15 16  1  0  0  0  0
 16 21  1  6  0  0  0
 16 24  1  0  0  0  0
 16 12  1  0  0  0  0
 19 15  1  0  0  0  0
 20 15  1  0  0  0  0
 23 22  1  0  0  0  0
 25 24  1  0  0  0  0
 26 30  1  0  0  0  0
 26 28  1  0  0  0  0
 27 26  2  0  0  0  0
 28 29  1  0  0  0  0
 30 31  1  0  0  0  0
 31 32  2  0  0  0  0
 31 36  1  0  0  0  0
 32 37  1  0  0  0  0
 33 38  1  0  0  0  0
 33 32  1  0  0  0  0
 34 33  2  0  0  0  0
 35 34  1  0  0  0  0
 35 30  2  0  0  0  0
 39 34  1  0  0  0  0
 40 39  1  0  0  0  0
 41 43  1  0  0  0  0
 41 40  2  0  0  0  0
 42 41  1  0  0  0  0
 43 45  1  0  0  0  0
 44 43  1  0  0  0  0
 45 39  2  0  0  0  0
M  END
>  <minimizedAffinity>
-7.16632652

$$$$

 OpenBabel03242521473D

 45 48  0  0  1  0  0  0  0  0999 V2000
   37.6340   31.8680   39.3650 C   0  0  0  0  0  0  0  0  0  0  0  0
   36.5920   32.2350   39.3810 H   0  0  0  0  0  0  0  0  0  0  0  0
   37.9040   31.4070   38.4150 H   0  0  0  0  0  0  0  0  0  0  0  0
   38.5330   33.0510   39.6500 C   0  0  0  0  0  0  0  0  0  0  0  0
   39.9040   32.9210   39.3680 C   0  0  0  0  0  0  0  0  0  0  0  0
   40.7620   34.0070   39.6140 C   0  0  0  0  0  0  0  0  0  0  0  0
   40.2250   35.1090   40.1040 N   0  0  0  0  0  0  0  0  0  0  0  0
   38.9020   35.2210   40.3710 C   0  0  0  0  0  0  0  0  0  0  0  0
   38.0480   34.1880   40.1440 N   0  0  0  0  0  0  0  0  0  0  0  0
   40.2100   31.9660   38.9710 H   0  0  0  0  0  0  0  0  0  0  0  0
   38.4900   36.1320   40.7720 H   0  0  0  0  0  0  0  0  0  0  0  0
   42.6410   34.3210   38.0130 C   0  0  2  0  0  0  0  0  0  0  0  0
   42.1590   33.7810   39.2950 C   0  0  2  0  0  0  0  0  0  0  0  0
   42.5140   32.3900   39.1730 O   0  0  0  0  0  0  0  0  0  0  0  0
   43.8470   32.4900   38.8120 C   0  0  0  0  0  0  0  0  0  0  0  0
   44.0810   33.7590   38.0560 C   0  0  1  0  0  0  0  0  0  0  0  0
   42.1770   33.7620   37.1680 H   0  0  0  0  0  0  0  0  0  0  0  0
   42.8090   34.1480   40.1400 H   0  0  0  0  0  0  0  0  0  0  0  0
   44.1510   31.5760   38.2710 H   0  0  0  0  0  0  0  0  0  0  0  0
   44.4430   32.5090   39.7440 H   0  0  0  0  0  0  0  0  0  0  0  0
   44.7480   34.4800   38.5330 H   0  0  0  0  0  0  0  0  0  0  0  0
   42.5710   35.6610   37.8680 O   0  0  0  0  0  0  0  0  0  0  0  0
   42.6510   36.1080   38.7690 H   0  0  0  0  0  0  0  0  0  0  0  0
   44.5200   33.5640   36.7420 O   0  0  0  0  0  0  0  0  0  0  0  0
   45.4880   33.5900   36.6470 H   0  0  0  0  0  0  0  0  0  0  0  0
   38.3230   29.6260   40.4680 C   0  0  0  0  0  0  0  0  0  0  0  0
   38.7350   29.2200   39.3520 O   0  0  0  0  0  0  0  0  0  0  0  0
   37.8070   30.9520   40.4880 N   0  0  0  0  0  0  0  0  0  0  0  0
   37.5100   31.3240   41.4270 H   0  0  0  0  0  0  0  0  0  0  0  0
   38.3490   28.8360   41.6990 C   0  0  0  0  0  0  0  0  0  0  0  0
   37.3430   28.9580   42.5980 C   0  0  0  0  0  0  0  0  0  0  0  0
   37.4480   28.1650   43.7450 C   0  0  0  0  0  0  0  0  0  0  0  0
   38.4950   27.2920   43.9930 C   0  0  0  0  0  0  0  0  0  0  0  0
   39.4580   27.2370   43.0320 C   0  0  0  0  0  0  0  0  0  0  0  0
   39.3990   27.9820   41.9120 N   0  0  0  0  0  0  0  0  0  0  0  0
   36.4980   29.6170   42.4700 H   0  0  0  0  0  0  0  0  0  0  0  0
   36.6550   28.2420   44.4850 H   0  0  0  0  0  0  0  0  0  0  0  0
   38.5420   26.7000   44.8830 H   0  0  0  0  0  0  0  0  0  0  0  0
   40.6230   26.3660   43.1480 C   0  0  0  0  0  0  0  0  0  0  0  0
   41.7170   26.8200   43.7730 N   0  0  0  0  0  0  0  0  0  0  0  0
   42.6780   25.8530   43.7680 C   0  0  0  0  0  0  0  0  0  0  0  0
   43.6840   25.9260   44.2050 H   0  0  0  0  0  0  0  0  0  0  0  0
   42.1370   24.7870   43.1170 N   0  0  0  0  0  0  0  0  0  0  0  0
   42.6130   23.8670   42.9360 H   0  0  0  0  0  0  0  0  0  0  0  0
   40.8920   25.0980   42.7410 N   0  0  0  0  0  0  0  0  0  0  0  0
  1  2  1  0  0  0  0
  1  4  1  0  0  0  0
  1 28  1  0  0  0  0
  3  1  1  0  0  0  0
  4  9  1  0  0  0  0
  5  6  1  0  0  0  0
  5  4  2  0  0  0  0
  6  7  2  0  0  0  0
  7  8  1  0  0  0  0
  8 11  1  0  0  0  0
  9  8  2  0  0  0  0
 10  5  1  0  0  0  0
 12 17  1  6  0  0  0
 12 16  1  0  0  0  0
 12 13  1  0  0  0  0
 13  6  1  0  0  0  0
 13 18  1  1  0  0  0
 14 13  1  0  0  0  0
 15 14  1  0  0  0  0
 15 20  1  0  0  0  0
 16 21  1  1  0  0  0
 16 15  1  0  0  0  0
 19 15  1  0  0  0  0
 22 12  1  0  0  0  0
 22 23  1  0  0  0  0
 24 16  1  0  0  0  0
 25 24  1  0  0  0  0
 26 28  1  0  0  0  0
 26 30  1  0  0  0  0
 27 26  2  0  0  0  0
 28 29  1  0  0  0  0
 30 35  2  0  0  0  0
 30 31  1  0  0  0  0
 31 32  2  0  0  0  0
 32 33  1  0  0  0  0
 32 37  1  0  0  0  0
 33 38  1  0  0  0  0
 34 39  1  0  0  0  0
 34 33  2  0  0  0  0
 35 34  1  0  0  0  0
 36 31  1  0  0  0  0
 39 40  1  0  0  0  0
 41 40  2  0  0  0  0
 41 42  1  0  0  0  0
 43 41  1  0  0  0  0
 44 43  1  0  0  0  0
 45 43  1  0  0  0  0
 45 39  2  0  0  0  0
M  END
>  <minimizedAffinity>
-7.14107037

$$$$

 OpenBabel03242521473D

 45 48  0  0  1  0  0  0  0  0999 V2000
   37.3720   28.4120   43.9840 C   0  0  0  0  0  0  0  0  0  0  0  0
   36.3450   28.1600   44.3030 H   0  0  0  0  0  0  0  0  0  0  0  0
   37.9690   28.8420   44.7890 H   0  0  0  0  0  0  0  0  0  0  0  0
   38.0120   27.1400   43.4750 C   0  0  0  0  0  0  0  0  0  0  0  0
   37.2870   26.3570   42.5610 C   0  0  0  0  0  0  0  0  0  0  0  0
   37.8600   25.1730   42.0630 C   0  0  0  0  0  0  0  0  0  0  0  0
   39.0680   24.8560   42.4890 N   0  0  0  0  0  0  0  0  0  0  0  0
   39.7570   25.6210   43.3700 C   0  0  0  0  0  0  0  0  0  0  0  0
   39.2280   26.7700   43.8690 N   0  0  0  0  0  0  0  0  0  0  0  0
   36.3100   26.7310   42.2980 H   0  0  0  0  0  0  0  0  0  0  0  0
   40.7420   25.3380   43.7010 H   0  0  0  0  0  0  0  0  0  0  0  0
   37.6920   23.3260   40.4050 C   0  0  2  0  0  0  0  0  0  0  0  0
   37.0380   24.4290   41.1270 C   0  0  2  0  0  0  0  0  0  0  0  0
   36.5250   25.2230   40.0400 O   0  0  0  0  0  0  0  0  0  0  0  0
   35.8580   24.2580   39.3030 C   0  0  0  0  0  0  0  0  0  0  0  0
   36.5150   22.9270   39.4840 C   0  0  1  0  0  0  0  0  0  0  0  0
   38.4430   23.7340   39.6910 H   0  0  0  0  0  0  0  0  0  0  0  0
   36.1090   24.0570   41.6460 H   0  0  0  0  0  0  0  0  0  0  0  0
   35.7800   24.5870   38.2520 H   0  0  0  0  0  0  0  0  0  0  0  0
   34.8220   24.2060   39.6870 H   0  0  0  0  0  0  0  0  0  0  0  0
   35.9070   22.1600   39.9690 H   0  0  0  0  0  0  0  0  0  0  0  0
   38.1710   22.3180   41.1640 O   0  0  0  0  0  0  0  0  0  0  0  0
   37.6230   22.2350   42.0070 H   0  0  0  0  0  0  0  0  0  0  0  0
   37.0370   22.3870   38.3050 O   0  0  0  0  0  0  0  0  0  0  0  0
   36.4300   21.7760   37.8530 H   0  0  0  0  0  0  0  0  0  0  0  0
   38.2970   30.1320   42.2790 C   0  0  0  0  0  0  0  0  0  0  0  0
   39.4300   30.0320   42.8140 O   0  0  0  0  0  0  0  0  0  0  0  0
   37.2790   29.3050   42.8330 N   0  0  0  0  0  0  0  0  0  0  0  0
   36.3400   29.3380   42.3590 H   0  0  0  0  0  0  0  0  0  0  0  0
   37.9850   31.0180   41.1580 C   0  0  0  0  0  0  0  0  0  0  0  0
   36.9940   30.6880   40.2940 C   0  0  0  0  0  0  0  0  0  0  0  0
   36.7630   31.5920   39.2530 C   0  0  0  0  0  0  0  0  0  0  0  0
   37.4750   32.7680   39.0730 C   0  0  0  0  0  0  0  0  0  0  0  0
   38.4510   33.0140   39.9920 C   0  0  0  0  0  0  0  0  0  0  0  0
   38.7080   32.1710   41.0100 N   0  0  0  0  0  0  0  0  0  0  0  0
   36.4000   29.7910   40.3740 H   0  0  0  0  0  0  0  0  0  0  0  0
   35.9750   31.3540   38.5450 H   0  0  0  0  0  0  0  0  0  0  0  0
   37.2710   33.4370   38.2640 H   0  0  0  0  0  0  0  0  0  0  0  0
   39.2860   34.2090   39.9360 C   0  0  0  0  0  0  0  0  0  0  0  0
   38.7340   35.4040   40.1840 N   0  0  0  0  0  0  0  0  0  0  0  0
   39.6850   36.3760   40.0800 C   0  0  0  0  0  0  0  0  0  0  0  0
   39.5380   37.4540   40.2270 H   0  0  0  0  0  0  0  0  0  0  0  0
   40.8430   35.7370   39.7590 N   0  0  0  0  0  0  0  0  0  0  0  0
   41.7780   36.1920   39.6040 H   0  0  0  0  0  0  0  0  0  0  0  0
   40.6020   34.4240   39.6730 N   0  0  0  0  0  0  0  0  0  0  0  0
  1  2  1  0  0  0  0
  1  3  1  0  0  0  0
  4  9  1  0  0  0  0
  4  1  1  0  0  0  0
  5  4  2  0  0  0  0
  6  7  2  0  0  0  0
  6  5  1  0  0  0  0
  7  8  1  0  0  0  0
  8 11  1  0  0  0  0
  8  9  2  0  0  0  0
 10  5  1  0  0  0  0
 12 17  1  6  0  0  0
 12 13  1  0  0  0  0
 12 22  1  0  0  0  0
 13 18  1  1  0  0  0
 13  6  1  0  0  0  0
 14 13  1  0  0  0  0
 15 16  1  0  0  0  0
 15 20  1  0  0  0  0
 15 14  1  0  0  0  0
 16 21  1  1  0  0  0
 16 12  1  0  0  0  0
 19 15  1  0  0  0  0
 22 23  1  0  0  0  0
 24 16  1  0  0  0  0
 25 24  1  0  0  0  0
 26 27  2  0  0  0  0
 26 28  1  0  0  0  0
 28  1  1  0  0  0  0
 29 28  1  0  0  0  0
 30 26  1  0  0  0  0
 31 36  1  0  0  0  0
 31 30  2  0  0  0  0
 32 31  1  0  0  0  0
 33 32  2  0  0  0  0
 33 34  1  0  0  0  0
 34 35  2  0  0  0  0
 35 30  1  0  0  0  0
 37 32  1  0  0  0  0
 38 33  1  0  0  0  0
 39 34  1  0  0  0  0
 39 40  1  0  0  0  0
 41 40  2  0  0  0  0
 41 42  1  0  0  0  0
 43 41  1  0  0  0  0
 44 43  1  0  0  0  0
 45 43  1  0  0  0  0
 45 39  2  0  0  0  0
M  END
>  <minimizedAffinity>
-7.04276037

$$$$

 OpenBabel03242521473D

 45 48  0  0  1  0  0  0  0  0999 V2000
   37.6110   32.8470   39.8250 C   0  0  0  0  0  0  0  0  0  0  0  0
   36.8010   33.3440   40.3880 H   0  0  0  0  0  0  0  0  0  0  0  0
   37.3170   32.5840   38.8080 H   0  0  0  0  0  0  0  0  0  0  0  0
   38.7920   33.7910   39.8060 C   0  0  0  0  0  0  0  0  0  0  0  0
   40.0340   33.2860   39.3830 C   0  0  0  0  0  0  0  0  0  0  0  0
   41.1480   34.1420   39.3460 C   0  0  0  0  0  0  0  0  0  0  0  0
   40.9650   35.3960   39.7160 N   0  0  0  0  0  0  0  0  0  0  0  0
   39.7620   35.8700   40.1210 C   0  0  0  0  0  0  0  0  0  0  0  0
   38.6670   35.0660   40.1680 N   0  0  0  0  0  0  0  0  0  0  0  0
   40.0440   32.2420   39.1100 H   0  0  0  0  0  0  0  0  0  0  0  0
   39.6400   36.8990   40.4170 H   0  0  0  0  0  0  0  0  0  0  0  0
   42.5590   33.3720   37.4470 C   0  0  2  0  0  0  0  0  0  0  0  0
   42.3870   33.5340   38.9000 C   0  0  2  0  0  0  0  0  0  0  0  0
   42.5760   32.1830   39.3650 O   0  0  0  0  0  0  0  0  0  0  0  0
   43.7700   31.8570   38.7440 C   0  0  0  0  0  0  0  0  0  0  0  0
   43.9060   32.6110   37.4600 C   0  0  1  0  0  0  0  0  0  0  0  0
   41.8420   32.6100   37.0630 H   0  0  0  0  0  0  0  0  0  0  0  0
   43.2650   34.0900   39.3350 H   0  0  0  0  0  0  0  0  0  0  0  0
   43.8410   30.7600   38.6360 H   0  0  0  0  0  0  0  0  0  0  0  0
   44.5900   32.1540   39.4260 H   0  0  0  0  0  0  0  0  0  0  0  0
   44.7340   33.3200   37.4110 H   0  0  0  0  0  0  0  0  0  0  0  0
   42.5690   34.5090   36.7180 O   0  0  0  0  0  0  0  0  0  0  0  0
   42.9220   35.2700   37.2780 H   0  0  0  0  0  0  0  0  0  0  0  0
   43.9650   31.7950   36.3260 O   0  0  0  0  0  0  0  0  0  0  0  0
   44.8710   31.5880   36.0420 H   0  0  0  0  0  0  0  0  0  0  0  0
   37.2330   30.6440   41.1390 C   0  0  0  0  0  0  0  0  0  0  0  0
   36.0050   30.7160   40.8790 O   0  0  0  0  0  0  0  0  0  0  0  0
   38.0400   31.6800   40.5900 N   0  0  0  0  0  0  0  0  0  0  0  0
   39.0770   31.6010   40.7530 H   0  0  0  0  0  0  0  0  0  0  0  0
   37.8500   29.5900   41.9430 C   0  0  0  0  0  0  0  0  0  0  0  0
   37.0700   28.6600   42.5460 C   0  0  0  0  0  0  0  0  0  0  0  0
   37.7420   27.6900   43.2950 C   0  0  0  0  0  0  0  0  0  0  0  0
   39.1200   27.6370   43.4410 C   0  0  0  0  0  0  0  0  0  0  0  0
   39.8190   28.6140   42.7980 C   0  0  0  0  0  0  0  0  0  0  0  0
   39.2140   29.5680   42.0670 N   0  0  0  0  0  0  0  0  0  0  0  0
   35.9930   28.6400   42.4750 H   0  0  0  0  0  0  0  0  0  0  0  0
   37.1430   26.9300   43.7900 H   0  0  0  0  0  0  0  0  0  0  0  0
   39.6010   26.8790   44.0220 H   0  0  0  0  0  0  0  0  0  0  0  0
   41.2750   28.6930   42.8570 C   0  0  0  0  0  0  0  0  0  0  0  0
   41.9460   27.8300   43.6300 N   0  0  0  0  0  0  0  0  0  0  0  0
   43.2830   28.0790   43.5380 C   0  0  0  0  0  0  0  0  0  0  0  0
   44.0870   27.5380   44.0550 H   0  0  0  0  0  0  0  0  0  0  0  0
   43.4120   29.1280   42.6800 N   0  0  0  0  0  0  0  0  0  0  0  0
   44.3160   29.5770   42.3850 H   0  0  0  0  0  0  0  0  0  0  0  0
   42.1960   29.5000   42.2670 N   0  0  0  0  0  0  0  0  0  0  0  0
  1  2  1  0  0  0  0
  1 28  1  0  0  0  0
  3  1  1  0  0  0  0
  4  1  1  0  0  0  0
  4  9  1  0  0  0  0
  5  4  2  0  0  0  0
  6  5  1  0  0  0  0
  6  7  2  0  0  0  0
  7  8  1  0  0  0  0
  8  9  2  0  0  0  0
  8 11  1  0  0  0  0
 10  5  1  0  0  0  0
 12 17  1  6  0  0  0
 12 16  1  0  0  0  0
 12 13  1  0  0  0  0
 13 18  1  1  0  0  0
 13  6  1  0  0  0  0
 13 14  1  0  0  0  0
 15 14  1  0  0  0  0
 15 20  1  0  0  0  0
 16 21  1  1  0  0  0
 16 15  1  0  0  0  0
 19 15  1  0  0  0  0
 22 23  1  0  0  0  0
 22 12  1  0  0  0  0
 24 16  1  0  0  0  0
 25 24  1  0  0  0  0
 26 30  1  0  0  0  0
 27 26  2  0  0  0  0
 28 29  1  0  0  0  0
 28 26  1  0  0  0  0
 30 35  2  0  0  0  0
 30 31  1  0  0  0  0
 31 32  2  0  0  0  0
 32 33  1  0  0  0  0
 32 37  1  0  0  0  0
 33 38  1  0  0  0  0
 34 39  1  0  0  0  0
 34 33  2  0  0  0  0
 35 34  1  0  0  0  0
 36 31  1  0  0  0  0
 39 40  1  0  0  0  0
 41 40  2  0  0  0  0
 41 42  1  0  0  0  0
 43 41  1  0  0  0  0
 44 43  1  0  0  0  0
 45 43  1  0  0  0  0
 45 39  2  0  0  0  0
M  END
>  <minimizedAffinity>
-6.91508627

$$$$

 OpenBabel03242521473D

 45 48  0  0  1  0  0  0  0  0999 V2000
   38.0510   32.4190   39.3150 C   0  0  0  0  0  0  0  0  0  0  0  0
   37.0220   32.8190   39.2810 H   0  0  0  0  0  0  0  0  0  0  0  0
   38.3980   32.0650   38.3440 H   0  0  0  0  0  0  0  0  0  0  0  0
   38.9490   33.5250   39.8250 C   0  0  0  0  0  0  0  0  0  0  0  0
   40.3210   33.2510   39.9600 C   0  0  0  0  0  0  0  0  0  0  0  0
   41.1810   34.2630   40.4220 C   0  0  0  0  0  0  0  0  0  0  0  0
   40.6450   35.4340   40.7090 N   0  0  0  0  0  0  0  0  0  0  0  0
   39.3200   35.6840   40.5750 C   0  0  0  0  0  0  0  0  0  0  0  0
   38.4640   34.7260   40.1300 N   0  0  0  0  0  0  0  0  0  0  0  0
   40.6260   32.2520   39.6910 H   0  0  0  0  0  0  0  0  0  0  0  0
   38.9080   36.6500   40.8170 H   0  0  0  0  0  0  0  0  0  0  0  0
   43.4260   34.7420   41.3820 C   0  0  2  0  0  0  0  0  0  0  0  0
   42.5790   33.8900   40.5320 C   0  0  2  0  0  0  0  0  0  0  0  0
   43.2940   33.9280   39.2820 O   0  0  0  0  0  0  0  0  0  0  0  0
   44.5730   33.5990   39.7010 C   0  0  0  0  0  0  0  0  0  0  0  0
   44.7850   34.0560   41.1090 C   0  0  1  0  0  0  0  0  0  0  0  0
   43.5490   35.7430   40.9110 H   0  0  0  0  0  0  0  0  0  0  0  0
   42.6630   32.8130   40.8540 H   0  0  0  0  0  0  0  0  0  0  0  0
   45.3090   33.9940   38.9790 H   0  0  0  0  0  0  0  0  0  0  0  0
   44.6610   32.4970   39.6610 H   0  0  0  0  0  0  0  0  0  0  0  0
   44.9580   33.2670   41.8430 H   0  0  0  0  0  0  0  0  0  0  0  0
   43.0870   34.8040   42.6880 O   0  0  0  0  0  0  0  0  0  0  0  0
   42.6380   33.9450   42.9660 H   0  0  0  0  0  0  0  0  0  0  0  0
   45.7990   35.0100   41.2490 O   0  0  0  0  0  0  0  0  0  0  0  0
   46.6640   34.6280   41.4770 H   0  0  0  0  0  0  0  0  0  0  0  0
   37.9080   29.9680   40.1480 C   0  0  0  0  0  0  0  0  0  0  0  0
   37.7490   29.5890   38.9610 O   0  0  0  0  0  0  0  0  0  0  0  0
   38.0930   31.3680   40.3280 N   0  0  0  0  0  0  0  0  0  0  0  0
   38.2830   31.6930   41.3110 H   0  0  0  0  0  0  0  0  0  0  0  0
   37.9150   29.0780   41.3090 C   0  0  0  0  0  0  0  0  0  0  0  0
   37.9730   29.6010   42.5580 C   0  0  0  0  0  0  0  0  0  0  0  0
   37.9740   28.6780   43.6080 C   0  0  0  0  0  0  0  0  0  0  0  0
   37.9200   27.3040   43.4360 C   0  0  0  0  0  0  0  0  0  0  0  0
   37.8640   26.8730   42.1440 C   0  0  0  0  0  0  0  0  0  0  0  0
   37.8600   27.7260   41.1020 N   0  0  0  0  0  0  0  0  0  0  0  0
   38.0160   30.6590   42.7660 H   0  0  0  0  0  0  0  0  0  0  0  0
   38.0200   29.0680   44.6210 H   0  0  0  0  0  0  0  0  0  0  0  0
   37.9230   26.6270   44.2630 H   0  0  0  0  0  0  0  0  0  0  0  0
   37.8030   25.4570   41.8000 C   0  0  0  0  0  0  0  0  0  0  0  0
   36.8850   25.0370   40.9200 N   0  0  0  0  0  0  0  0  0  0  0  0
   37.0030   23.6900   40.7450 C   0  0  0  0  0  0  0  0  0  0  0  0
   36.3920   23.0590   40.0850 H   0  0  0  0  0  0  0  0  0  0  0  0
   38.0280   23.2950   41.5480 N   0  0  0  0  0  0  0  0  0  0  0  0
   38.3860   22.3120   41.6550 H   0  0  0  0  0  0  0  0  0  0  0  0
   38.5130   24.3650   42.1880 N   0  0  0  0  0  0  0  0  0  0  0  0
  1  4  1  0  0  0  0
  1 28  1  0  0  0  0
  2  1  1  0  0  0  0
  3  1  1  0  0  0  0
  4  5  2  0  0  0  0
  4  9  1  0  0  0  0
  5  6  1  0  0  0  0
  6 13  1  0  0  0  0
  6  7  2  0  0  0  0
  8  7  1  0  0  0  0
  8 11  1  0  0  0  0
  9  8  2  0  0  0  0
 10  5  1  0  0  0  0
 12 17  1  6  0  0  0
 12 22  1  0  0  0  0
 13 18  1  1  0  0  0
 13 12  1  0  0  0  0
 14 15  1  0  0  0  0
 14 13  1  0  0  0  0
 15 16  1  0  0  0  0
 16 24  1  0  0  0  0
 16 12  1  0  0  0  0
 16 21  1  1  0  0  0
 19 15  1  0  0  0  0
 20 15  1  0  0  0  0
 22 23  1  0  0  0  0
 24 25  1  0  0  0  0
 26 28  1  0  0  0  0
 26 30  1  0  0  0  0
 27 26  2  0  0  0  0
 28 29  1  0  0  0  0
 30 31  1  0  0  0  0
 31 36  1  0  0  0  0
 31 32  2  0  0  0  0
 32 37  1  0  0  0  0
 33 32  1  0  0  0  0
 33 38  1  0  0  0  0
 34 33  2  0  0  0  0
 35 30  2  0  0  0  0
 35 34  1  0  0  0  0
 39 34  1  0  0  0  0
 39 45  2  0  0  0  0
 40 39  1  0  0  0  0
 41 40  2  0  0  0  0
 41 43  1  0  0  0  0
 42 41  1  0  0  0  0
 43 44  1  0  0  0  0
 43 45  1  0  0  0  0
M  END
>  <minimizedAffinity>
-6.75751352

$$$$

 OpenBabel03242521473D

 45 48  0  0  1  0  0  0  0  0999 V2000
   38.5730   30.3430   39.5350 C   0  0  0  0  0  0  0  0  0  0  0  0
   39.2180   29.8060   38.8170 H   0  0  0  0  0  0  0  0  0  0  0  0
   37.5480   30.4530   39.1800 H   0  0  0  0  0  0  0  0  0  0  0  0
   38.6010   29.5690   40.8340 C   0  0  0  0  0  0  0  0  0  0  0  0
   39.4080   28.4200   40.8990 C   0  0  0  0  0  0  0  0  0  0  0  0
   39.4610   27.6850   42.0970 C   0  0  0  0  0  0  0  0  0  0  0  0
   38.7380   28.1220   43.1120 N   0  0  0  0  0  0  0  0  0  0  0  0
   37.9660   29.2310   43.0350 C   0  0  0  0  0  0  0  0  0  0  0  0
   37.8940   29.9620   41.8900 N   0  0  0  0  0  0  0  0  0  0  0  0
   39.9450   28.1750   39.9970 H   0  0  0  0  0  0  0  0  0  0  0  0
   37.3850   29.5650   43.8790 H   0  0  0  0  0  0  0  0  0  0  0  0
   40.9900   26.1590   43.3310 C   0  0  2  0  0  0  0  0  0  0  0  0
   40.3170   26.5140   42.0710 C   0  0  2  0  0  0  0  0  0  0  0  0
   41.4340   26.6250   41.1680 O   0  0  0  0  0  0  0  0  0  0  0  0
   42.0820   25.4240   41.4040 C   0  0  0  0  0  0  0  0  0  0  0  0
   41.8400   24.9760   42.8100 C   0  0  1  0  0  0  0  0  0  0  0  0
   41.7560   26.9290   43.5810 H   0  0  0  0  0  0  0  0  0  0  0  0
   39.7420   25.6280   41.6750 H   0  0  0  0  0  0  0  0  0  0  0  0
   43.1490   25.5240   41.1360 H   0  0  0  0  0  0  0  0  0  0  0  0
   41.6580   24.6760   40.7080 H   0  0  0  0  0  0  0  0  0  0  0  0
   41.2860   24.0420   42.9220 H   0  0  0  0  0  0  0  0  0  0  0  0
   40.1850   25.8510   44.3700 O   0  0  0  0  0  0  0  0  0  0  0  0
   39.3200   25.4620   44.0280 H   0  0  0  0  0  0  0  0  0  0  0  0
   43.0010   24.8880   43.5850 O   0  0  0  0  0  0  0  0  0  0  0  0
   43.3900   23.9970   43.6040 H   0  0  0  0  0  0  0  0  0  0  0  0
   38.5610   32.8960   39.9850 C   0  0  0  0  0  0  0  0  0  0  0  0
   37.3050   32.8850   39.9350 O   0  0  0  0  0  0  0  0  0  0  0  0
   39.1950   31.6330   39.8210 N   0  0  0  0  0  0  0  0  0  0  0  0
   40.2430   31.6200   39.9160 H   0  0  0  0  0  0  0  0  0  0  0  0
   39.3710   34.0950   40.1960 C   0  0  0  0  0  0  0  0  0  0  0  0
   38.8080   35.3200   40.0610 C   0  0  0  0  0  0  0  0  0  0  0  0
   39.6550   36.4110   40.2810 C   0  0  0  0  0  0  0  0  0  0  0  0
   40.9950   36.2990   40.6210 C   0  0  0  0  0  0  0  0  0  0  0  0
   41.4700   35.0270   40.7340 C   0  0  0  0  0  0  0  0  0  0  0  0
   40.6910   33.9480   40.5300 N   0  0  0  0  0  0  0  0  0  0  0  0
   37.7740   35.4820   39.7990 H   0  0  0  0  0  0  0  0  0  0  0  0
   39.2320   37.4060   40.1800 H   0  0  0  0  0  0  0  0  0  0  0  0
   41.6130   37.1560   40.7820 H   0  0  0  0  0  0  0  0  0  0  0  0
   42.8580   34.7450   41.0840 C   0  0  0  0  0  0  0  0  0  0  0  0
   43.3190   35.1250   42.2830 N   0  0  0  0  0  0  0  0  0  0  0  0
   44.6290   34.7660   42.4020 C   0  0  0  0  0  0  0  0  0  0  0  0
   45.2800   34.9420   43.2700 H   0  0  0  0  0  0  0  0  0  0  0  0
   44.9590   34.1520   41.2330 N   0  0  0  0  0  0  0  0  0  0  0  0
   45.9000   33.7500   40.9900 H   0  0  0  0  0  0  0  0  0  0  0  0
   43.8860   34.1380   40.4350 N   0  0  0  0  0  0  0  0  0  0  0  0
  1 28  1  0  0  0  0
  1  4  1  0  0  0  0
  2  1  1  0  0  0  0
  3  1  1  0  0  0  0
  4  5  2  0  0  0  0
  4  9  1  0  0  0  0
  5  6  1  0  0  0  0
  6  7  2  0  0  0  0
  8  7  1  0  0  0  0
  8 11  1  0  0  0  0
  9  8  2  0  0  0  0
 10  5  1  0  0  0  0
 12 17  1  1  0  0  0
 12 22  1  0  0  0  0
 13 18  1  6  0  0  0
 13  6  1  0  0  0  0
 13 12  1  0  0  0  0
 14 15  1  0  0  0  0
 14 13  1  0  0  0  0
 15 16  1  0  0  0  0
 16 21  1  1  0  0  0
 16 12  1  0  0  0  0
 16 24  1  0  0  0  0
 19 15  1  0  0  0  0
 20 15  1  0  0  0  0
 23 22  1  0  0  0  0
 24 25  1  0  0  0  0
 26 30  1  0  0  0  0
 27 26  2  0  0  0  0
 28 29  1  0  0  0  0
 28 26  1  0  0  0  0
 30 35  1  0  0  0  0
 31 30  2  0  0  0  0
 31 32  1  0  0  0  0
 32 33  2  0  0  0  0
 33 34  1  0  0  0  0
 33 38  1  0  0  0  0
 34 39  1  0  0  0  0
 35 34  2  0  0  0  0
 36 31  1  0  0  0  0
 37 32  1  0  0  0  0
 39 40  1  0  0  0  0
 40 41  2  0  0  0  0
 41 42  1  0  0  0  0
 43 41  1  0  0  0  0
 44 43  1  0  0  0  0
 45 39  2  0  0  0  0
 45 43  1  0  0  0  0
M  END
>  <minimizedAffinity>
-6.66852379

$$$$

 OpenBabel03242521473D

 45 48  0  0  1  0  0  0  0  0999 V2000
   37.4030   30.5990   41.2190 C   0  0  0  0  0  0  0  0  0  0  0  0
   37.4780   31.1820   42.1550 H   0  0  0  0  0  0  0  0  0  0  0  0
   36.3990   30.6120   40.7940 H   0  0  0  0  0  0  0  0  0  0  0  0
   38.3970   31.1840   40.2410 C   0  0  0  0  0  0  0  0  0  0  0  0
   38.8620   32.4900   40.4760 C   0  0  0  0  0  0  0  0  0  0  0  0
   39.7940   33.0570   39.5890 C   0  0  0  0  0  0  0  0  0  0  0  0
   40.1880   32.3210   38.5660 N   0  0  0  0  0  0  0  0  0  0  0  0
   39.7320   31.0640   38.3520 C   0  0  0  0  0  0  0  0  0  0  0  0
   38.8310   30.4890   39.1930 N   0  0  0  0  0  0  0  0  0  0  0  0
   38.4580   32.9800   41.3480 H   0  0  0  0  0  0  0  0  0  0  0  0
   40.0700   30.4850   37.5090 H   0  0  0  0  0  0  0  0  0  0  0  0
   41.3990   34.5450   40.7720 C   0  0  2  0  0  0  0  0  0  0  0  0
   40.2150   34.4090   39.9080 C   0  0  2  0  0  0  0  0  0  0  0  0
   39.2340   35.1690   40.6400 O   0  0  0  0  0  0  0  0  0  0  0  0
   39.9230   36.3520   40.8510 C   0  0  0  0  0  0  0  0  0  0  0  0
   41.3930   36.0850   40.9240 C   0  0  1  0  0  0  0  0  0  0  0  0
   41.1600   34.1890   41.8000 H   0  0  0  0  0  0  0  0  0  0  0  0
   40.3560   35.0000   38.9590 H   0  0  0  0  0  0  0  0  0  0  0  0
   39.5100   36.8650   41.7360 H   0  0  0  0  0  0  0  0  0  0  0  0
   39.7190   37.0130   39.9870 H   0  0  0  0  0  0  0  0  0  0  0  0
   41.9980   36.5390   40.1370 H   0  0  0  0  0  0  0  0  0  0  0  0
   42.5520   34.0390   40.2860 O   0  0  0  0  0  0  0  0  0  0  0  0
   42.5440   34.0750   39.2780 H   0  0  0  0  0  0  0  0  0  0  0  0
   41.9680   36.4110   42.1570 O   0  0  0  0  0  0  0  0  0  0  0  0
   42.3550   37.3020   42.1830 H   0  0  0  0  0  0  0  0  0  0  0  0
   37.1010   28.0400   41.5040 C   0  0  0  0  0  0  0  0  0  0  0  0
   35.8950   28.1590   41.1720 O   0  0  0  0  0  0  0  0  0  0  0  0
   37.8640   29.2410   41.4970 N   0  0  0  0  0  0  0  0  0  0  0  0
   38.8880   29.1470   41.7200 H   0  0  0  0  0  0  0  0  0  0  0  0
   37.7350   26.7770   41.8820 C   0  0  0  0  0  0  0  0  0  0  0  0
   37.0870   25.6070   41.6660 C   0  0  0  0  0  0  0  0  0  0  0  0
   37.7670   24.4500   42.0570 C   0  0  0  0  0  0  0  0  0  0  0  0
   39.0280   24.4460   42.6320 C   0  0  0  0  0  0  0  0  0  0  0  0
   39.5990   25.6690   42.8090 C   0  0  0  0  0  0  0  0  0  0  0  0
   38.9820   26.8100   42.4490 N   0  0  0  0  0  0  0  0  0  0  0  0
   36.1060   25.5360   41.2220 H   0  0  0  0  0  0  0  0  0  0  0  0
   37.2710   23.4960   41.8950 H   0  0  0  0  0  0  0  0  0  0  0  0
   39.5180   23.5400   42.9190 H   0  0  0  0  0  0  0  0  0  0  0  0
   40.9220   25.8300   43.4030 C   0  0  0  0  0  0  0  0  0  0  0  0
   41.1040   26.7570   44.3520 N   0  0  0  0  0  0  0  0  0  0  0  0
   42.4030   26.7380   44.7660 C   0  0  0  0  0  0  0  0  0  0  0  0
   42.8560   27.3810   45.5330 H   0  0  0  0  0  0  0  0  0  0  0  0
   43.0160   25.7650   44.0370 N   0  0  0  0  0  0  0  0  0  0  0  0
   44.0270   25.4860   44.1060 H   0  0  0  0  0  0  0  0  0  0  0  0
   42.1190   25.2140   43.2120 N   0  0  0  0  0  0  0  0  0  0  0  0
  1 28  1  0  0  0  0
  1  2  1  0  0  0  0
  3  1  1  0  0  0  0
  4  5  1  0  0  0  0
  4  1  1  0  0  0  0
  5 10  1  0  0  0  0
  6 13  1  0  0  0  0
  6  5  2  0  0  0  0
  7  6  1  0  0  0  0
  8  7  2  0  0  0  0
  8  9  1  0  0  0  0
  9  4  2  0  0  0  0
 11  8  1  0  0  0  0
 12 16  1  0  0  0  0
 12 17  1  1  0  0  0
 13 18  1  6  0  0  0
 13 14  1  0  0  0  0
 13 12  1  0  0  0  0
 14 15  1  0  0  0  0
 15 16  1  0  0  0  0
 15 19  1  0  0  0  0
 16 21  1  6  0  0  0
 16 24  1  0  0  0  0
 20 15  1  0  0  0  0
 22 12  1  0  0  0  0
 23 22  1  0  0  0  0
 24 25  1  0  0  0  0
 26 30  1  0  0  0  0
 27 26  2  0  0  0  0
 28 26  1  0  0  0  0
 28 29  1  0  0  0  0
 30 35  1  0  0  0  0
 31 30  2  0  0  0  0
 31 32  1  0  0  0  0
 32 33  2  0  0  0  0
 33 34  1  0  0  0  0
 33 38  1  0  0  0  0
 34 39  1  0  0  0  0
 35 34  2  0  0  0  0
 36 31  1  0  0  0  0
 37 32  1  0  0  0  0
 39 40  1  0  0  0  0
 40 41  2  0  0  0  0
 41 42  1  0  0  0  0
 43 44  1  0  0  0  0
 43 41  1  0  0  0  0
 45 39  2  0  0  0  0
 45 43  1  0  0  0  0
M  END
>  <minimizedAffinity>
-6.52582979

$$$$

 OpenBabel03242521473D

 45 48  0  0  1  0  0  0  0  0999 V2000
   38.4020   28.6100   36.6480 C   0  0  0  0  0  0  0  0  0  0  0  0
   39.4690   28.3370   36.7330 H   0  0  0  0  0  0  0  0  0  0  0  0
   38.0560   28.6390   35.6140 H   0  0  0  0  0  0  0  0  0  0  0  0
   37.6120   27.5910   37.4390 C   0  0  0  0  0  0  0  0  0  0  0  0
   37.6060   27.7030   38.8400 C   0  0  0  0  0  0  0  0  0  0  0  0
   36.8740   26.7760   39.6010 C   0  0  0  0  0  0  0  0  0  0  0  0
   36.2190   25.8340   38.9490 N   0  0  0  0  0  0  0  0  0  0  0  0
   36.2330   25.7370   37.5980 C   0  0  0  0  0  0  0  0  0  0  0  0
   36.9330   26.6190   36.8350 N   0  0  0  0  0  0  0  0  0  0  0  0
   38.1840   28.5200   39.2450 H   0  0  0  0  0  0  0  0  0  0  0  0
   35.6900   24.9570   37.0900 H   0  0  0  0  0  0  0  0  0  0  0  0
   36.6280   28.3210   41.5360 C   0  0  2  0  0  0  0  0  0  0  0  0
   36.9280   26.9690   41.0390 C   0  0  2  0  0  0  0  0  0  0  0  0
   38.2280   26.7320   41.6120 O   0  0  0  0  0  0  0  0  0  0  0  0
   37.9910   27.0480   42.9400 C   0  0  0  0  0  0  0  0  0  0  0  0
   36.9120   28.0800   43.0370 C   0  0  1  0  0  0  0  0  0  0  0  0
   37.4390   29.0240   41.2360 H   0  0  0  0  0  0  0  0  0  0  0  0
   36.2690   26.2110   41.5510 H   0  0  0  0  0  0  0  0  0  0  0  0
   38.9400   27.3370   43.4240 H   0  0  0  0  0  0  0  0  0  0  0  0
   37.6540   26.1240   43.4450 H   0  0  0  0  0  0  0  0  0  0  0  0
   35.9980   27.7640   43.5430 H   0  0  0  0  0  0  0  0  0  0  0  0
   35.3900   28.7910   41.2740 O   0  0  0  0  0  0  0  0  0  0  0  0
   34.7390   28.0230   41.2080 H   0  0  0  0  0  0  0  0  0  0  0  0
   37.3310   29.2860   43.6090 O   0  0  0  0  0  0  0  0  0  0  0  0
   37.1640   29.3420   44.5650 H   0  0  0  0  0  0  0  0  0  0  0  0
   39.1920   30.7230   37.9240 C   0  0  0  0  0  0  0  0  0  0  0  0
   40.3820   30.3400   37.7930 O   0  0  0  0  0  0  0  0  0  0  0  0
   38.2070   29.8870   37.3280 N   0  0  0  0  0  0  0  0  0  0  0  0
   37.2120   30.2250   37.3820 H   0  0  0  0  0  0  0  0  0  0  0  0
   38.7860   31.9390   38.6270 C   0  0  0  0  0  0  0  0  0  0  0  0
   37.4710   32.2490   38.7320 C   0  0  0  0  0  0  0  0  0  0  0  0
   37.1730   33.4280   39.4210 C   0  0  0  0  0  0  0  0  0  0  0  0
   38.1270   34.2630   39.9820 C   0  0  0  0  0  0  0  0  0  0  0  0
   39.4210   33.8690   39.8250 C   0  0  0  0  0  0  0  0  0  0  0  0
   39.7550   32.7420   39.1690 N   0  0  0  0  0  0  0  0  0  0  0  0
   36.6760   31.6460   38.3210 H   0  0  0  0  0  0  0  0  0  0  0  0
   36.1260   33.7030   39.5210 H   0  0  0  0  0  0  0  0  0  0  0  0
   37.8620   35.1590   40.5030 H   0  0  0  0  0  0  0  0  0  0  0  0
   40.5390   34.6410   40.3580 C   0  0  0  0  0  0  0  0  0  0  0  0
   40.2970   35.8250   40.9370 N   0  0  0  0  0  0  0  0  0  0  0  0
   41.4710   36.3730   41.3620 C   0  0  0  0  0  0  0  0  0  0  0  0
   41.5970   37.3370   41.8730 H   0  0  0  0  0  0  0  0  0  0  0  0
   42.4460   35.4840   41.0230 N   0  0  0  0  0  0  0  0  0  0  0  0
   43.4750   35.5970   41.2060 H   0  0  0  0  0  0  0  0  0  0  0  0
   41.8810   34.4350   40.4160 N   0  0  0  0  0  0  0  0  0  0  0  0
  1  2  1  0  0  0  0
  1 28  1  0  0  0  0
  1  4  1  0  0  0  0
  3  1  1  0  0  0  0
  4  5  1  0  0  0  0
  5 10  1  0  0  0  0
  5  6  2  0  0  0  0
  6 13  1  0  0  0  0
  7  6  1  0  0  0  0
  8  7  2  0  0  0  0
  9  4  2  0  0  0  0
  9  8  1  0  0  0  0
 11  8  1  0  0  0  0
 12 17  1  6  0  0  0
 12 16  1  0  0  0  0
 13 12  1  0  0  0  0
 13 18  1  1  0  0  0
 13 14  1  0  0  0  0
 14 15  1  0  0  0  0
 15 16  1  0  0  0  0
 15 19  1  0  0  0  0
 15 20  1  0  0  0  0
 16 21  1  1  0  0  0
 16 24  1  0  0  0  0
 22 12  1  0  0  0  0
 23 22  1  0  0  0  0
 24 25  1  0  0  0  0
 26 30  1  0  0  0  0
 27 26  2  0  0  0  0
 28 29  1  0  0  0  0
 28 26  1  0  0  0  0
 30 31  2  0  0  0  0
 30 35  1  0  0  0  0
 31 32  1  0  0  0  0
 32 37  1  0  0  0  0
 32 33  2  0  0  0  0
 33 38  1  0  0  0  0
 34 33  1  0  0  0  0
 34 39  1  0  0  0  0
 35 34  2  0  0  0  0
 36 31  1  0  0  0  0
 39 45  2  0  0  0  0
 39 40  1  0  0  0  0
 40 41  2  0  0  0  0
 41 42  1  0  0  0  0
 43 44  1  0  0  0  0
 43 41  1  0  0  0  0
 45 43  1  0  0  0  0
M  END
>  <minimizedAffinity>
-6.51774311

$$$$
