
 OpenBabel03252507373D

 36 40  0  0  0  0  0  0  0  0999 V2000
   45.7020   34.7650   43.5010 C   0  0  0  0  0  0  0  0  0  0  0  0
   46.4130   33.7020   44.1030 C   0  0  0  0  0  0  0  0  0  0  0  0
   46.1730   33.4590   45.4440 C   0  0  0  0  0  0  0  0  0  0  0  0
   45.2850   34.2360   46.1000 N   0  0  0  0  0  0  0  0  0  0  0  0
   44.6160   35.2510   45.5000 C   0  0  0  0  0  0  0  0  0  0  0  0
   44.8360   35.4970   44.2100 N   0  0  0  0  0  0  0  0  0  0  0  0
   47.1130   33.0860   43.5910 H   0  0  0  0  0  0  0  0  0  0  0  0
   43.9290   35.8020   46.1370 H   0  0  0  0  0  0  0  0  0  0  0  0
   47.0500   32.6420   47.5670 C   0  0  0  0  0  0  0  0  0  0  0  0
   46.8150   32.4080   46.2160 C   0  0  0  0  0  0  0  0  0  0  0  0
   47.2000   31.2050   45.6960 C   0  0  0  0  0  0  0  0  0  0  0  0
   47.8070   30.2200   46.4490 C   0  0  0  0  0  0  0  0  0  0  0  0
   48.2630   28.9850   46.1560 N   0  0  0  0  0  0  0  0  0  0  0  0
   48.7810   28.4490   47.3220 C   0  0  0  0  0  0  0  0  0  0  0  0
   48.6340   29.3570   48.2920 N   0  0  0  0  0  0  0  0  0  0  0  0
   48.0400   30.4490   47.7820 C   0  0  0  0  0  0  0  0  0  0  0  0
   47.6620   31.6570   48.3360 C   0  0  0  0  0  0  0  0  0  0  0  0
   46.7760   33.5630   48.0520 H   0  0  0  0  0  0  0  0  0  0  0  0
   47.0100   31.0350   44.6350 H   0  0  0  0  0  0  0  0  0  0  0  0
   48.2300   28.5200   45.2190 H   0  0  0  0  0  0  0  0  0  0  0  0
   49.2050   27.4540   47.3140 H   0  0  0  0  0  0  0  0  0  0  0  0
   47.8620   31.8050   49.3990 H   0  0  0  0  0  0  0  0  0  0  0  0
   45.9340   35.0190   42.1580 O   0  0  0  0  0  0  0  0  0  0  0  0
   45.0610   34.5860   41.1840 C   0  0  0  0  0  0  0  0  0  0  0  0
   45.7980   33.7260   40.4380 C   0  0  0  0  0  0  0  0  0  0  0  0
   44.5390   33.1830   39.1350 S   0  0  0  0  0  0  0  0  0  0  0  0
   43.2190   34.2970   39.9240 C   0  0  0  0  0  0  0  0  0  0  0  0
   43.8130   34.7240   40.7570 N   0  0  0  0  0  0  0  0  0  0  0  0
   46.7220   33.2160   40.2300 H   0  0  0  0  0  0  0  0  0  0  0  0
   41.7780   34.5320   39.5290 C   0  0  0  0  0  0  0  0  0  0  0  0
   41.2770   34.2820   38.2860 N   0  0  0  0  0  0  0  0  0  0  0  0
   39.9760   34.6090   38.3100 C   0  0  0  0  0  0  0  0  0  0  0  0
   39.2620   34.5420   37.5040 H   0  0  0  0  0  0  0  0  0  0  0  0
   39.7030   35.0490   39.5510 N   0  0  0  0  0  0  0  0  0  0  0  0
   38.7860   35.3930   39.9470 H   0  0  0  0  0  0  0  0  0  0  0  0
   40.8070   35.0020   40.2960 N   0  0  0  0  0  0  0  0  0  0  0  0
  1  2  2  0  0  0  0
  1  6  1  0  0  0  0
  2  3  1  0  0  0  0
  3  4  2  0  0  0  0
  3 10  1  0  0  0  0
  5  4  1  0  0  0  0
  5  8  1  0  0  0  0
  6  5  2  0  0  0  0
  7  2  1  0  0  0  0
  9 18  1  0  0  0  0
  9 17  1  0  0  0  0
 10  9  2  0  0  0  0
 11 10  1  0  0  0  0
 11 12  2  0  0  0  0
 12 16  1  0  0  0  0
 13 12  1  0  0  0  0
 13 14  1  0  0  0  0
 14 15  2  0  0  0  0
 16 15  1  0  0  0  0
 16 17  2  0  0  0  0
 17 22  1  0  0  0  0
 19 11  1  0  0  0  0
 20 13  1  0  0  0  0
 21 14  1  0  0  0  0
 23  1  1  0  0  0  0
 24 23  1  0  0  0  0
 25 24  2  0  0  0  0
 26 27  1  0  0  0  0
 26 25  1  0  0  0  0
 27 28  2  0  0  0  0
 28 24  1  0  0  0  0
 29 25  1  0  0  0  0
 30 27  1  0  0  0  0
 30 36  2  0  0  0  0
 31 32  2  0  0  0  0
 31 30  1  0  0  0  0
 32 34  1  0  0  0  0
 33 32  1  0  0  0  0
 34 35  1  0  0  0  0
 34 36  1  0  0  0  0
M  END
>  <minimizedAffinity>
-6.19075918

>  <minimizedRMSD>
0.836736441

$$$$
