
 OpenBabel03252508083D

 42 45  0  0  0  0  0  0  0  0999 V2000
   45.8910   35.5650   42.1990 C   0  0  0  0  0  0  0  0  0  0  0  0
   45.9500   34.1980   42.4180 C   0  0  0  0  0  0  0  0  0  0  0  0
   45.4100   33.6590   43.5610 C   0  0  0  0  0  0  0  0  0  0  0  0
   44.8210   34.5400   44.4460 N   0  0  0  0  0  0  0  0  0  0  0  0
   44.7660   35.8530   44.2290 C   0  0  0  0  0  0  0  0  0  0  0  0
   45.3080   36.3510   43.0980 N   0  0  0  0  0  0  0  0  0  0  0  0
   46.3080   36.0350   41.3060 H   0  0  0  0  0  0  0  0  0  0  0  0
   44.3050   36.5230   44.9270 H   0  0  0  0  0  0  0  0  0  0  0  0
   45.3890   32.2960   43.9310 C   0  0  0  0  0  0  0  0  0  0  0  0
   44.7640   31.2910   43.1860 C   0  0  0  0  0  0  0  0  0  0  0  0
   44.6870   29.9780   43.5750 C   0  0  0  0  0  0  0  0  0  0  0  0
   45.2500   29.5860   44.7700 C   0  0  0  0  0  0  0  0  0  0  0  0
   45.8950   30.5970   45.5440 C   0  0  0  0  0  0  0  0  0  0  0  0
   46.4550   30.2160   46.7340 C   0  0  0  0  0  0  0  0  0  0  0  0
   47.0950   31.1410   47.5320 C   0  0  0  0  0  0  0  0  0  0  0  0
   47.1680   32.4780   47.1120 C   0  0  0  0  0  0  0  0  0  0  0  0
   46.5760   32.8180   45.8830 C   0  0  0  0  0  0  0  0  0  0  0  0
   45.9440   31.8800   45.1140 C   0  0  0  0  0  0  0  0  0  0  0  0
   44.3140   31.5700   42.2430 H   0  0  0  0  0  0  0  0  0  0  0  0
   44.1960   29.2320   42.9700 H   0  0  0  0  0  0  0  0  0  0  0  0
   45.2210   28.5690   45.1310 H   0  0  0  0  0  0  0  0  0  0  0  0
   46.4060   29.1890   47.0660 H   0  0  0  0  0  0  0  0  0  0  0  0
   47.5220   30.7890   48.4650 H   0  0  0  0  0  0  0  0  0  0  0  0
   47.6840   33.1140   47.7980 H   0  0  0  0  0  0  0  0  0  0  0  0
   46.7550   33.8610   45.7330 H   0  0  0  0  0  0  0  0  0  0  0  0
   46.5590   33.4360   41.4580 O   0  0  0  0  0  0  0  0  0  0  0  0
   48.0670   31.3510   41.9420 O   0  0  0  0  0  0  0  0  0  0  0  0
   48.1190   32.7940   41.5850 P   0  0  1  0  0  0  0  0  0  0  0  0
   48.9420   32.9070   40.1090 O   0  0  0  0  0  0  0  0  0  0  0  0
   48.2140   33.2810   38.9860 C   0  0  0  0  0  0  0  0  0  0  0  0
   47.2860   32.4850   38.3950 N   0  0  0  0  0  0  0  0  0  0  0  0
   46.7510   33.1220   37.3350 C   0  0  0  0  0  0  0  0  0  0  0  0
   45.9870   32.7600   36.6530 H   0  0  0  0  0  0  0  0  0  0  0  0
   47.3480   34.3270   37.2580 N   0  0  0  0  0  0  0  0  0  0  0  0
   47.1730   35.0940   36.5410 H   0  0  0  0  0  0  0  0  0  0  0  0
   48.2160   34.4030   38.2500 N   0  0  0  0  0  0  0  0  0  0  0  0
   48.9600   33.6770   42.7390 O   0  0  0  0  0  0  0  0  0  0  0  0
   50.1390   34.3780   42.5490 C   0  0  0  0  0  0  0  0  0  0  0  0
   49.7940   35.5730   42.4910 O   0  0  0  0  0  0  0  0  0  0  0  0
   51.2690   33.4820   42.4950 N   0  0  0  0  0  0  0  0  0  0  0  0
   51.4980   32.9460   43.3750 H   0  0  0  0  0  0  0  0  0  0  0  0
   51.9110   33.2760   41.6970 H   0  0  0  0  0  0  0  0  0  0  0  0
  1  2  2  0  0  0  0
  1  6  1  0  0  0  0
  2  3  1  0  0  0  0
  3  9  1  0  0  0  0
  3  4  2  0  0  0  0
  5  4  1  0  0  0  0
  5  8  1  0  0  0  0
  6  5  2  0  0  0  0
  7  1  1  0  0  0  0
  9 18  1  0  0  0  0
 10 11  1  0  0  0  0
 10  9  2  0  0  0  0
 11 12  2  0  0  0  0
 12 21  1  0  0  0  0
 12 13  1  0  0  0  0
 13 14  1  0  0  0  0
 14 22  1  0  0  0  0
 14 15  2  0  0  0  0
 15 23  1  0  0  0  0
 16 15  1  0  0  0  0
 16 24  1  0  0  0  0
 17 16  2  0  0  0  0
 18 13  2  0  0  0  0
 18 17  1  0  0  0  0
 19 10  1  0  0  0  0
 20 11  1  0  0  0  0
 25 17  1  0  0  0  0
 26 28  1  0  0  0  0
 26  2  1  0  0  0  0
 28 27  2  1  0  0  0
 28 37  1  0  0  0  0
 29 28  1  0  0  0  0
 30 29  1  0  0  0  0
 31 30  1  0  0  0  0
 32 31  2  0  0  0  0
 33 32  1  0  0  0  0
 34 32  1  0  0  0  0
 34 36  1  0  0  0  0
 35 34  1  0  0  0  0
 36 30  2  0  0  0  0
 38 37  1  0  0  0  0
 39 38  2  0  0  0  0
 40 38  1  0  0  0  0
 40 41  1  0  0  0  0
 42 40  1  0  0  0  0
M  END
>  <minimizedAffinity>
-5.85336781

>  <minimizedRMSD>
1.13928652

$$$$
