
 OpenBabel03252508383D

 39 42  0  0  0  0  0  0  0  0999 V2000
   45.1830   33.9820   40.7350 C   0  0  0  0  0  0  0  0  0  0  0  0
   44.1260   33.6720   39.9250 C   0  0  0  0  0  0  0  0  0  0  0  0
   44.4070   33.1720   38.6910 C   0  0  0  0  0  0  0  0  0  0  0  0
   45.6850   32.9640   38.2190 C   0  0  0  0  0  0  0  0  0  0  0  0
   46.7240   33.2850   39.0560 C   0  0  0  0  0  0  0  0  0  0  0  0
   46.4910   33.7940   40.3140 C   0  0  0  0  0  0  0  0  0  0  0  0
   43.5750   32.9230   38.0410 H   0  0  0  0  0  0  0  0  0  0  0  0
   45.8930   32.5610   37.2250 H   0  0  0  0  0  0  0  0  0  0  0  0
   47.7260   33.1200   38.6820 H   0  0  0  0  0  0  0  0  0  0  0  0
   40.9410   35.3760   41.0320 C   0  0  0  0  0  0  0  0  0  0  0  0
   42.2310   35.1880   40.5100 C   0  0  0  0  0  0  0  0  0  0  0  0
   42.7990   33.9050   40.4560 C   0  0  0  0  0  0  0  0  0  0  0  0
   42.0080   32.9140   40.9400 N   0  0  0  0  0  0  0  0  0  0  0  0
   40.7840   33.1060   41.4340 C   0  0  0  0  0  0  0  0  0  0  0  0
   40.2550   34.3390   41.4770 N   0  0  0  0  0  0  0  0  0  0  0  0
   40.4230   36.6830   41.0610 N   0  0  0  0  0  0  0  0  0  0  0  0
   42.8620   35.9820   40.1240 H   0  0  0  0  0  0  0  0  0  0  0  0
   40.2880   32.2040   41.7770 H   0  0  0  0  0  0  0  0  0  0  0  0
   40.9940   37.2970   41.6810 H   0  0  0  0  0  0  0  0  0  0  0  0
   39.5690   36.9900   40.5200 H   0  0  0  0  0  0  0  0  0  0  0  0
   47.6680   34.1030   41.1270 C   0  0  0  0  0  0  0  0  0  0  0  0
   48.1770   35.3650   40.9750 C   0  0  0  0  0  0  0  0  0  0  0  0
   49.2930   35.8260   41.6690 C   0  0  0  0  0  0  0  0  0  0  0  0
   49.9020   34.9460   42.5550 C   0  0  0  0  0  0  0  0  0  0  0  0
   49.4050   33.6780   42.7190 C   0  0  0  0  0  0  0  0  0  0  0  0
   48.2950   33.2470   42.0150 C   0  0  0  0  0  0  0  0  0  0  0  0
   47.7620   36.1080   40.3070 H   0  0  0  0  0  0  0  0  0  0  0  0
   49.6950   36.8040   41.5570 H   0  0  0  0  0  0  0  0  0  0  0  0
   50.7740   35.2150   43.1390 H   0  0  0  0  0  0  0  0  0  0  0  0
   49.8380   32.9510   43.3940 H   0  0  0  0  0  0  0  0  0  0  0  0
   47.7090   31.9050   42.1420 C   0  0  0  0  0  0  0  0  0  0  0  0
   47.9460   30.7940   41.4100 N   0  0  0  0  0  0  0  0  0  0  0  0
   47.1680   29.7900   41.8970 C   0  0  0  0  0  0  0  0  0  0  0  0
   47.3290   28.8710   41.3330 H   0  0  0  0  0  0  0  0  0  0  0  0
   46.4700   30.3160   42.9220 N   0  0  0  0  0  0  0  0  0  0  0  0
   45.8250   29.6180   43.3800 H   0  0  0  0  0  0  0  0  0  0  0  0
   46.7800   31.5730   43.0780 N   0  0  0  0  0  0  0  0  0  0  0  0
   44.8090   34.9360   43.1320 N   0  0  0  0  0  0  0  0  0  0  0  0
   44.9800   34.5140   42.0510 C   0  0  0  0  0  0  0  0  0  0  0  0
  1 39  1  0  0  0  0
  2 12  1  0  0  0  0
  2  1  2  0  0  0  0
  3  2  1  0  0  0  0
  4  3  2  0  0  0  0
  4  5  1  0  0  0  0
  5  6  2  0  0  0  0
  6  1  1  0  0  0  0
  6 21  1  0  0  0  0
  7  3  1  0  0  0  0
  8  4  1  0  0  0  0
  9  5  1  0  0  0  0
 10 16  1  0  0  0  0
 10 15  1  0  0  0  0
 11 10  2  0  0  0  0
 12 11  1  0  0  0  0
 12 13  2  0  0  0  0
 13 14  1  0  0  0  0
 14 15  2  0  0  0  0
 14 18  1  0  0  0  0
 16 19  1  0  0  0  0
 17 11  1  0  0  0  0
 20 16  1  0  0  0  0
 21 26  1  0  0  0  0
 22 21  2  0  0  0  0
 22 23  1  0  0  0  0
 23 24  2  0  0  0  0
 24 25  1  0  0  0  0
 24 29  1  0  0  0  0
 25 30  1  0  0  0  0
 26 31  1  0  0  0  0
 26 25  2  0  0  0  0
 27 22  1  0  0  0  0
 28 23  1  0  0  0  0
 31 37  2  0  0  0  0
 32 33  2  0  0  0  0
 32 31  1  0  0  0  0
 33 35  1  0  0  0  0
 34 33  1  0  0  0  0
 35 37  1  0  0  0  0
 35 36  1  0  0  0  0
 39 38  3  0  0  0  0
M  END
>  <minimizedAffinity>
-5.89656925

>  <minimizedRMSD>
0.484614789

$$$$
