
     RDKit          3D

 37 40  0  0  0  0  0  0  0  0999 V2000
   47.1559   31.2901   46.7204 C   0  0  0  0  0  0  0  0  0  0  0  0
   46.7752   31.7713   48.0940 C   0  0  1  0  0  0  0  0  0  0  0  0
   46.1804   30.7556   49.0047 C   0  0  0  0  0  0  0  0  0  0  0  0
   47.5116   31.2647   49.2761 C   0  0  1  0  0  0  0  0  0  0  0  0
   48.7653   30.5117   49.0411 C   0  0  0  0  0  0  0  0  0  0  0  0
   49.5938   30.2181   50.3162 C   0  0  0  0  0  0  0  0  0  0  0  0
   50.0772   31.2632   49.3730 C   0  0  0  0  0  0  0  0  0  0  0  0
   45.9365   33.1440   45.9116 C   0  0  0  0  0  0  0  0  0  0  0  0
   46.9540   32.4011   45.7047 C   0  0  0  0  0  0  0  0  0  0  0  0
   44.5148   36.1636   44.3547 C   0  0  0  0  0  0  0  0  0  0  0  0
   45.1103   36.1862   43.1017 C   0  0  0  0  0  0  0  0  0  0  0  0
   45.9889   35.1811   42.8288 C   0  0  0  0  0  0  0  0  0  0  0  0
   46.2407   34.2251   43.7633 N   0  0  0  0  0  0  0  0  0  0  0  0
   45.6478   34.2254   44.9725 C   0  0  0  0  0  0  0  0  0  0  0  0
   44.7857   35.2127   45.2413 N   0  0  0  0  0  0  0  0  0  0  0  0
   48.1923   30.9307   46.6953 H   0  0  0  0  0  0  0  0  0  0  0  0
   46.4929   30.4724   46.3557 H   0  0  0  0  0  0  0  0  0  0  0  0
   46.4306   32.8174   48.1684 H   0  0  0  0  0  0  0  0  0  0  0  0
   46.0012   29.7302   48.5837 H   0  0  0  0  0  0  0  0  0  0  0  0
   45.2999   31.0816   49.6089 H   0  0  0  0  0  0  0  0  0  0  0  0
   47.5734   31.9530   50.1730 H   0  0  0  0  0  0  0  0  0  0  0  0
   48.8125   29.7496   48.2402 H   0  0  0  0  0  0  0  0  0  0  0  0
   49.1600   30.5275   51.2784 H   0  0  0  0  0  0  0  0  0  0  0  0
   50.1273   29.2320   50.2864 H   0  0  0  0  0  0  0  0  0  0  0  0
   50.9283   30.9920   48.6819 H   0  0  0  0  0  0  0  0  0  0  0  0
   49.9601   32.3153   49.6366 H   0  0  0  0  0  0  0  0  0  0  0  0
   45.1853   33.0967   46.7180 H   0  0  0  0  0  0  0  0  0  0  0  0
   47.6146   32.5634   44.8631 H   0  0  0  0  0  0  0  0  0  0  0  0
   43.8012   36.8874   44.7184 H   0  0  0  0  0  0  0  0  0  0  0  0
   44.8568   36.9691   42.4323 H   0  0  0  0  0  0  0  0  0  0  0  0
   46.6532   35.1427   41.5284 C   0  0  0  0  0  0  0  0  0  0  0  0
   46.0420   34.7409   40.3867 N   0  0  0  0  0  0  0  0  0  0  0  0
   46.9487   34.8312   39.3744 C   0  0  0  0  0  0  0  0  0  0  0  0
   46.7828   34.5845   38.3280 H   0  0  0  0  0  0  0  0  0  0  0  0
   48.1126   35.2868   39.8929 N   0  0  0  0  0  0  0  0  0  0  0  0
   49.0183   35.4703   39.3815 H   0  0  0  0  0  0  0  0  0  0  0  0
   47.9167   35.4718   41.2062 N   0  0  0  0  0  0  0  0  0  0  0  0
  1  2  1  0
  2  3  1  0
  2  4  1  0
  3  4  1  0
  5  4  1  0
  5  7  1  0
  5  6  1  0
  7  6  1  0
  9  8  2  0
  9  1  1  0
 10 15  2  0
 11 10  1  0
 12 11  2  0
 12 13  1  0
 13 14  2  0
 14 15  1  0
 14  8  1  0
  1 16  1  0
  1 17  1  0
  2 18  1  6
  3 19  1  0
  3 20  1  0
  4 21  1  1
  5 22  1  0
  6 23  1  0
  6 24  1  0
  7 25  1  0
  7 26  1  0
  8 27  1  0
  9 28  1  0
 10 29  1  0
 11 30  1  0
 31 32  1  0
 32 33  2  0
 33 34  1  0
 33 35  1  0
 35 36  1  0
 35 37  1  0
 37 31  2  0
 12 31  1  0
M  ISO  8  16   8  17   8  18  13  19  13  20  13  21  13  22  13  23  13
M  ISO  7  24  13  25  13  26  13  29  14  30  14  34  14  36   9
M  END
>  <DihAtoms>  (1) 
10,11,30,31

>  <DihDeg>  (1) 
-46.08627079098066

$$$$
