
 OpenBabel03242510413D

 29 31  0  0  0  0  0  0  0  0999 V2000
   40.3230   29.4490   40.0670 Cl  0  0  0  0  0  0  0  0  0  0  0  0
   38.7630   30.2140   40.3560 C   0  0  0  0  0  0  0  0  0  0  0  0
   37.8910   29.5980   41.2480 C   0  0  0  0  0  0  0  0  0  0  0  0
   36.6910   30.1820   41.4660 C   0  0  0  0  0  0  0  0  0  0  0  0
   36.3870   31.3740   40.7850 C   0  0  0  0  0  0  0  0  0  0  0  0
   37.2520   31.9730   39.9080 C   0  0  0  0  0  0  0  0  0  0  0  0
   38.4780   31.3800   39.6830 C   0  0  0  0  0  0  0  0  0  0  0  0
   35.9700   29.7450   42.1520 H   0  0  0  0  0  0  0  0  0  0  0  0
   35.4360   31.8760   40.9300 H   0  0  0  0  0  0  0  0  0  0  0  0
   37.0380   32.8810   39.3820 H   0  0  0  0  0  0  0  0  0  0  0  0
   39.6340   27.2980   43.4860 C   0  0  0  0  0  0  0  0  0  0  0  0
   39.1050   26.0300   43.1450 C   0  0  0  0  0  0  0  0  0  0  0  0
   38.1360   26.0130   42.1280 C   0  0  0  0  0  0  0  0  0  0  0  0
   37.7810   27.1860   41.5510 N   0  0  0  0  0  0  0  0  0  0  0  0
   38.3090   28.3640   41.9050 C   0  0  0  0  0  0  0  0  0  0  0  0
   39.2370   28.4230   42.8730 N   0  0  0  0  0  0  0  0  0  0  0  0
   40.3850   27.3380   44.2700 H   0  0  0  0  0  0  0  0  0  0  0  0
   39.4370   25.1320   43.6500 H   0  0  0  0  0  0  0  0  0  0  0  0
   37.6190   24.6860   41.8090 C   0  0  0  0  0  0  0  0  0  0  0  0
   37.2470   24.6670   40.4580 F   0  0  0  0  0  0  0  0  0  0  0  0
   36.4600   24.5170   42.5110 F   0  0  0  0  0  0  0  0  0  0  0  0
   38.5450   23.6780   41.9800 F   0  0  0  0  0  0  0  0  0  0  0  0
   39.4500   31.9640   38.7610 C   0  0  0  0  0  0  0  0  0  0  0  0
   40.5290   32.7340   39.0100 N   0  0  0  0  0  0  0  0  0  0  0  0
   41.1480   33.0520   37.8370 C   0  0  0  0  0  0  0  0  0  0  0  0
   42.0320   33.6700   37.9200 H   0  0  0  0  0  0  0  0  0  0  0  0
   40.4230   32.4600   36.8700 N   0  0  0  0  0  0  0  0  0  0  0  0
   40.7420   32.5880   35.8850 H   0  0  0  0  0  0  0  0  0  0  0  0
   39.4090   31.8110   37.4180 N   0  0  0  0  0  0  0  0  0  0  0  0
  1  2  1  0  0  0  0
  2  3  1  0  0  0  0
  3  4  2  0  0  0  0
  3 15  1  0  0  0  0
  4  8  1  0  0  0  0
  5  9  1  0  0  0  0
  5  4  1  0  0  0  0
  6  5  2  0  0  0  0
  7  6  1  0  0  0  0
  7  2  2  0  0  0  0
 10  6  1  0  0  0  0
 11 17  1  0  0  0  0
 12 11  1  0  0  0  0
 12 18  1  0  0  0  0
 13 12  2  0  0  0  0
 14 15  2  0  0  0  0
 14 13  1  0  0  0  0
 15 16  1  0  0  0  0
 16 11  2  0  0  0  0
 19 22  1  0  0  0  0
 19 13  1  0  0  0  0
 19 21  1  0  0  0  0
 20 19  1  0  0  0  0
 23 24  1  0  0  0  0
 23  7  1  0  0  0  0
 25 26  1  0  0  0  0
 25 24  2  0  0  0  0
 27 29  1  0  0  0  0
 27 25  1  0  0  0  0
 28 27  1  0  0  0  0
 29 23  2  0  0  0  0
M  END
>  <minimizedAffinity>
-5.93840933

$$$$

 OpenBabel03242510413D

 29 31  0  0  0  0  0  0  0  0999 V2000
   37.1960   29.5150   37.2810 Cl  0  0  0  0  0  0  0  0  0  0  0  0
   35.4460   29.3110   37.2780 C   0  0  0  0  0  0  0  0  0  0  0  0
   34.8030   29.1930   38.5050 C   0  0  0  0  0  0  0  0  0  0  0  0
   33.4600   29.0310   38.5040 C   0  0  0  0  0  0  0  0  0  0  0  0
   32.7860   28.9910   37.2700 C   0  0  0  0  0  0  0  0  0  0  0  0
   33.4290   29.1090   36.0660 C   0  0  0  0  0  0  0  0  0  0  0  0
   34.8000   29.2730   36.0630 C   0  0  0  0  0  0  0  0  0  0  0  0
   32.9050   28.9330   39.4330 H   0  0  0  0  0  0  0  0  0  0  0  0
   31.7100   28.8630   37.2230 H   0  0  0  0  0  0  0  0  0  0  0  0
   32.9330   29.0810   35.1170 H   0  0  0  0  0  0  0  0  0  0  0  0
   36.7420   30.5210   41.3000 C   0  0  0  0  0  0  0  0  0  0  0  0
   37.1060   29.3680   42.0360 C   0  0  0  0  0  0  0  0  0  0  0  0
   36.6540   28.1380   41.5290 C   0  0  0  0  0  0  0  0  0  0  0  0
   35.9180   28.1360   40.3930 N   0  0  0  0  0  0  0  0  0  0  0  0
   35.5970   29.2530   39.7280 C   0  0  0  0  0  0  0  0  0  0  0  0
   36.0090   30.4480   40.1790 N   0  0  0  0  0  0  0  0  0  0  0  0
   37.0800   31.4850   41.6710 H   0  0  0  0  0  0  0  0  0  0  0  0
   37.6990   29.4460   42.9390 H   0  0  0  0  0  0  0  0  0  0  0  0
   37.0530   26.9770   42.3200 C   0  0  0  0  0  0  0  0  0  0  0  0
   36.2850   26.9540   43.4910 F   0  0  0  0  0  0  0  0  0  0  0  0
   38.3390   27.1790   42.7270 F   0  0  0  0  0  0  0  0  0  0  0  0
   36.8350   25.7740   41.6790 F   0  0  0  0  0  0  0  0  0  0  0  0
   35.5490   29.4050   34.8160 C   0  0  0  0  0  0  0  0  0  0  0  0
   35.9780   30.5110   34.1740 N   0  0  0  0  0  0  0  0  0  0  0  0
   36.6410   30.1540   33.0370 C   0  0  0  0  0  0  0  0  0  0  0  0
   37.0310   30.9680   32.4400 H   0  0  0  0  0  0  0  0  0  0  0  0
   36.6060   28.8100   33.0010 N   0  0  0  0  0  0  0  0  0  0  0  0
   37.0690   28.3390   32.1920 H   0  0  0  0  0  0  0  0  0  0  0  0
   35.9550   28.3600   34.0610 N   0  0  0  0  0  0  0  0  0  0  0  0
  2  1  1  0  0  0  0
  2  3  1  0  0  0  0
  3 15  1  0  0  0  0
  4  3  2  0  0  0  0
  4  8  1  0  0  0  0
  5  4  1  0  0  0  0
  6  5  2  0  0  0  0
  7  6  1  0  0  0  0
  7  2  2  0  0  0  0
  9  5  1  0  0  0  0
 10  6  1  0  0  0  0
 11 17  1  0  0  0  0
 11 12  1  0  0  0  0
 12 18  1  0  0  0  0
 13 12  2  0  0  0  0
 13 19  1  0  0  0  0
 14 13  1  0  0  0  0
 15 16  1  0  0  0  0
 15 14  2  0  0  0  0
 16 11  2  0  0  0  0
 19 21  1  0  0  0  0
 19 20  1  0  0  0  0
 22 19  1  0  0  0  0
 23  7  1  0  0  0  0
 24 23  1  0  0  0  0
 25 24  2  0  0  0  0
 26 25  1  0  0  0  0
 27 25  1  0  0  0  0
 27 29  1  0  0  0  0
 28 27  1  0  0  0  0
 29 23  2  0  0  0  0
M  END
>  <minimizedAffinity>
-5.6485858

$$$$

 OpenBabel03242510413D

 29 31  0  0  0  0  0  0  0  0999 V2000
   40.2860   28.3810   40.8390 Cl  0  0  0  0  0  0  0  0  0  0  0  0
   38.8640   27.9710   41.7940 C   0  0  0  0  0  0  0  0  0  0  0  0
   37.6800   28.6470   41.5220 C   0  0  0  0  0  0  0  0  0  0  0  0
   36.5890   28.3370   42.2580 C   0  0  0  0  0  0  0  0  0  0  0  0
   36.7060   27.3520   43.2560 C   0  0  0  0  0  0  0  0  0  0  0  0
   37.8770   26.6920   43.5170 C   0  0  0  0  0  0  0  0  0  0  0  0
   38.9930   27.0060   42.7670 C   0  0  0  0  0  0  0  0  0  0  0  0
   35.6370   28.8330   42.0900 H   0  0  0  0  0  0  0  0  0  0  0  0
   35.8560   27.0720   43.8700 H   0  0  0  0  0  0  0  0  0  0  0  0
   37.9850   25.9390   44.2720 H   0  0  0  0  0  0  0  0  0  0  0  0
   37.3810   30.1680   38.2150 C   0  0  0  0  0  0  0  0  0  0  0  0
   37.6470   31.5390   38.4490 C   0  0  0  0  0  0  0  0  0  0  0  0
   37.9250   31.9010   39.7780 C   0  0  0  0  0  0  0  0  0  0  0  0
   37.9220   30.9350   40.7270 N   0  0  0  0  0  0  0  0  0  0  0  0
   37.6660   29.6480   40.4600 C   0  0  0  0  0  0  0  0  0  0  0  0
   37.3950   29.2620   39.2040 N   0  0  0  0  0  0  0  0  0  0  0  0
   37.1640   29.8620   37.1950 H   0  0  0  0  0  0  0  0  0  0  0  0
   37.6320   32.2570   37.6390 H   0  0  0  0  0  0  0  0  0  0  0  0
   38.1930   33.3230   39.9730 C   0  0  0  0  0  0  0  0  0  0  0  0
   39.3190   33.6690   39.2160 F   0  0  0  0  0  0  0  0  0  0  0  0
   38.5580   33.4970   41.2760 F   0  0  0  0  0  0  0  0  0  0  0  0
   37.1640   34.1390   39.5520 F   0  0  0  0  0  0  0  0  0  0  0  0
   40.2750   26.3410   42.9920 C   0  0  0  0  0  0  0  0  0  0  0  0
   41.3580   26.7560   43.6800 N   0  0  0  0  0  0  0  0  0  0  0  0
   42.3320   25.8020   43.6220 C   0  0  0  0  0  0  0  0  0  0  0  0
   43.2520   26.0310   44.1430 H   0  0  0  0  0  0  0  0  0  0  0  0
   41.8170   24.8000   42.8850 N   0  0  0  0  0  0  0  0  0  0  0  0
   42.4200   23.9630   42.7250 H   0  0  0  0  0  0  0  0  0  0  0  0
   40.5900   25.1190   42.5080 N   0  0  0  0  0  0  0  0  0  0  0  0
  1  2  1  0  0  0  0
  2  7  1  0  0  0  0
  3  2  2  0  0  0  0
  3  4  1  0  0  0  0
  4  5  2  0  0  0  0
  5  6  1  0  0  0  0
  5  9  1  0  0  0  0
  6 10  1  0  0  0  0
  7 23  1  0  0  0  0
  7  6  2  0  0  0  0
  8  4  1  0  0  0  0
 11 12  2  0  0  0  0
 11 16  1  0  0  0  0
 12 13  1  0  0  0  0
 13 19  1  0  0  0  0
 13 14  2  0  0  0  0
 15 14  1  0  0  0  0
 15  3  1  0  0  0  0
 16 15  2  0  0  0  0
 17 11  1  0  0  0  0
 18 12  1  0  0  0  0
 19 21  1  0  0  0  0
 20 19  1  0  0  0  0
 22 19  1  0  0  0  0
 23 24  1  0  0  0  0
 25 24  2  0  0  0  0
 25 26  1  0  0  0  0
 27 25  1  0  0  0  0
 28 27  1  0  0  0  0
 29 27  1  0  0  0  0
 29 23  2  0  0  0  0
M  END
>  <minimizedAffinity>
-5.59269381

$$$$

 OpenBabel03242510413D

 29 31  0  0  0  0  0  0  0  0999 V2000
   38.6410   28.3160   38.0970 Cl  0  0  0  0  0  0  0  0  0  0  0  0
   37.5500   29.1820   39.1760 C   0  0  0  0  0  0  0  0  0  0  0  0
   36.6100   28.4410   39.8840 C   0  0  0  0  0  0  0  0  0  0  0  0
   35.7690   29.1050   40.7080 C   0  0  0  0  0  0  0  0  0  0  0  0
   35.8860   30.5030   40.8070 C   0  0  0  0  0  0  0  0  0  0  0  0
   36.8150   31.2250   40.1050 C   0  0  0  0  0  0  0  0  0  0  0  0
   37.6760   30.5500   39.2630 C   0  0  0  0  0  0  0  0  0  0  0  0
   35.0140   28.5780   41.2860 H   0  0  0  0  0  0  0  0  0  0  0  0
   35.2310   31.0770   41.4560 H   0  0  0  0  0  0  0  0  0  0  0  0
   36.9190   32.2890   40.1690 H   0  0  0  0  0  0  0  0  0  0  0  0
   35.8690   25.1450   38.4970 C   0  0  0  0  0  0  0  0  0  0  0  0
   36.5090   24.2520   39.3890 C   0  0  0  0  0  0  0  0  0  0  0  0
   37.1960   24.8350   40.4670 C   0  0  0  0  0  0  0  0  0  0  0  0
   37.1990   26.1840   40.5800 N   0  0  0  0  0  0  0  0  0  0  0  0
   36.5780   26.9920   39.7120 C   0  0  0  0  0  0  0  0  0  0  0  0
   35.9110   26.4740   38.6680 N   0  0  0  0  0  0  0  0  0  0  0  0
   35.3300   24.7190   37.6550 H   0  0  0  0  0  0  0  0  0  0  0  0
   36.4650   23.1810   39.2350 H   0  0  0  0  0  0  0  0  0  0  0  0
   37.8410   23.8770   41.3610 C   0  0  0  0  0  0  0  0  0  0  0  0
   39.2290   24.0160   41.2320 F   0  0  0  0  0  0  0  0  0  0  0  0
   37.5530   22.6260   40.8990 F   0  0  0  0  0  0  0  0  0  0  0  0
   37.5430   24.0800   42.6920 F   0  0  0  0  0  0  0  0  0  0  0  0
   38.6910   31.2560   38.4840 C   0  0  0  0  0  0  0  0  0  0  0  0
   39.9660   31.5630   38.7970 N   0  0  0  0  0  0  0  0  0  0  0  0
   40.5450   32.2330   37.7610 C   0  0  0  0  0  0  0  0  0  0  0  0
   41.5760   32.5300   37.9040 H   0  0  0  0  0  0  0  0  0  0  0  0
   39.5960   32.3270   36.8120 N   0  0  0  0  0  0  0  0  0  0  0  0
   39.8510   32.8150   35.9240 H   0  0  0  0  0  0  0  0  0  0  0  0
   38.4890   31.7450   37.2410 N   0  0  0  0  0  0  0  0  0  0  0  0
  1  2  1  0  0  0  0
  2  7  2  0  0  0  0
  2  3  1  0  0  0  0
  3  4  2  0  0  0  0
  4  5  1  0  0  0  0
  4  8  1  0  0  0  0
  5  9  1  0  0  0  0
  6 10  1  0  0  0  0
  6  5  2  0  0  0  0
  7  6  1  0  0  0  0
 11 16  2  0  0  0  0
 11 12  1  0  0  0  0
 12 13  2  0  0  0  0
 13 14  1  0  0  0  0
 13 19  1  0  0  0  0
 15  3  1  0  0  0  0
 15 14  2  0  0  0  0
 16 15  1  0  0  0  0
 17 11  1  0  0  0  0
 18 12  1  0  0  0  0
 19 22  1  0  0  0  0
 20 19  1  0  0  0  0
 21 19  1  0  0  0  0
 23 24  1  0  0  0  0
 23  7  1  0  0  0  0
 25 26  1  0  0  0  0
 25 24  2  0  0  0  0
 27 29  1  0  0  0  0
 27 25  1  0  0  0  0
 28 27  1  0  0  0  0
 29 23  2  0  0  0  0
M  END
>  <minimizedAffinity>
-5.56676388

$$$$

 OpenBabel03242510413D

 29 31  0  0  0  0  0  0  0  0999 V2000
   40.1460   29.6540   38.9200 Cl  0  0  0  0  0  0  0  0  0  0  0  0
   39.1340   31.0290   39.3530 C   0  0  0  0  0  0  0  0  0  0  0  0
   37.8800   30.7690   39.8960 C   0  0  0  0  0  0  0  0  0  0  0  0
   37.1010   31.8250   40.2240 C   0  0  0  0  0  0  0  0  0  0  0  0
   37.5930   33.1230   40.0020 C   0  0  0  0  0  0  0  0  0  0  0  0
   38.8310   33.3690   39.4660 C   0  0  0  0  0  0  0  0  0  0  0  0
   39.6290   32.2940   39.1300 C   0  0  0  0  0  0  0  0  0  0  0  0
   36.1110   31.6820   40.6510 H   0  0  0  0  0  0  0  0  0  0  0  0
   37.0020   33.9980   40.2500 H   0  0  0  0  0  0  0  0  0  0  0  0
   39.2230   34.3500   39.2910 H   0  0  0  0  0  0  0  0  0  0  0  0
   36.7010   27.3870   39.1870 C   0  0  0  0  0  0  0  0  0  0  0  0
   36.6810   26.7630   40.4580 C   0  0  0  0  0  0  0  0  0  0  0  0
   37.0880   27.5540   41.5450 C   0  0  0  0  0  0  0  0  0  0  0  0
   37.4640   28.8340   41.3110 N   0  0  0  0  0  0  0  0  0  0  0  0
   37.4680   29.3830   40.0900 C   0  0  0  0  0  0  0  0  0  0  0  0
   37.0860   28.6610   39.0250 N   0  0  0  0  0  0  0  0  0  0  0  0
   36.3900   26.7970   38.3290 H   0  0  0  0  0  0  0  0  0  0  0  0
   36.3670   25.7330   40.5690 H   0  0  0  0  0  0  0  0  0  0  0  0
   37.0510   26.8710   42.8350 C   0  0  0  0  0  0  0  0  0  0  0  0
   36.7290   25.5260   42.6150 F   0  0  0  0  0  0  0  0  0  0  0  0
   36.0060   27.3890   43.5430 F   0  0  0  0  0  0  0  0  0  0  0  0
   38.2590   26.8870   43.5010 F   0  0  0  0  0  0  0  0  0  0  0  0
   40.9590   32.4830   38.5550 C   0  0  0  0  0  0  0  0  0  0  0  0
   42.1580   32.5950   39.1620 N   0  0  0  0  0  0  0  0  0  0  0  0
   43.1340   32.7610   38.2240 C   0  0  0  0  0  0  0  0  0  0  0  0
   44.1430   32.8620   38.6010 H   0  0  0  0  0  0  0  0  0  0  0  0
   42.5030   32.7480   37.0350 N   0  0  0  0  0  0  0  0  0  0  0  0
   43.0900   32.8620   36.1790 H   0  0  0  0  0  0  0  0  0  0  0  0
   41.2060   32.5820   37.2300 N   0  0  0  0  0  0  0  0  0  0  0  0
  1  2  1  0  0  0  0
  2  3  1  0  0  0  0
  3 15  1  0  0  0  0
  3  4  2  0  0  0  0
  4  8  1  0  0  0  0
  5  4  1  0  0  0  0
  5  9  1  0  0  0  0
  6  5  2  0  0  0  0
  7  2  2  0  0  0  0
  7  6  1  0  0  0  0
 10  6  1  0  0  0  0
 11 12  1  0  0  0  0
 12 18  1  0  0  0  0
 12 13  2  0  0  0  0
 13 19  1  0  0  0  0
 14 13  1  0  0  0  0
 15 14  2  0  0  0  0
 16 11  2  0  0  0  0
 16 15  1  0  0  0  0
 17 11  1  0  0  0  0
 19 22  1  0  0  0  0
 19 21  1  0  0  0  0
 20 19  1  0  0  0  0
 23  7  1  0  0  0  0
 23 24  1  0  0  0  0
 25 26  1  0  0  0  0
 25 24  2  0  0  0  0
 27 29  1  0  0  0  0
 27 25  1  0  0  0  0
 28 27  1  0  0  0  0
 29 23  2  0  0  0  0
M  END
>  <minimizedAffinity>
-5.52174425

$$$$

 OpenBabel03242510413D

 29 31  0  0  0  0  0  0  0  0999 V2000
   39.4860   28.6120   39.2110 Cl  0  0  0  0  0  0  0  0  0  0  0  0
   38.1580   29.5290   39.9180 C   0  0  0  0  0  0  0  0  0  0  0  0
   37.2980   28.8650   40.7860 C   0  0  0  0  0  0  0  0  0  0  0  0
   36.2750   29.5660   41.3240 C   0  0  0  0  0  0  0  0  0  0  0  0
   36.1330   30.9230   40.9830 C   0  0  0  0  0  0  0  0  0  0  0  0
   36.9860   31.5690   40.1270 C   0  0  0  0  0  0  0  0  0  0  0  0
   38.0320   30.8560   39.5740 C   0  0  0  0  0  0  0  0  0  0  0  0
   35.5710   29.0990   42.0090 H   0  0  0  0  0  0  0  0  0  0  0  0
   35.3270   31.5240   41.3920 H   0  0  0  0  0  0  0  0  0  0  0  0
   36.8940   32.6010   39.8560 H   0  0  0  0  0  0  0  0  0  0  0  0
   38.6580   25.8380   42.3100 C   0  0  0  0  0  0  0  0  0  0  0  0
   37.9990   24.7890   41.6240 C   0  0  0  0  0  0  0  0  0  0  0  0
   37.0810   25.1750   40.6330 C   0  0  0  0  0  0  0  0  0  0  0  0
   36.8920   26.4960   40.4030 N   0  0  0  0  0  0  0  0  0  0  0  0
   37.5380   27.4550   41.0770 C   0  0  0  0  0  0  0  0  0  0  0  0
   38.4230   27.1290   42.0320 N   0  0  0  0  0  0  0  0  0  0  0  0
   39.3730   25.5660   43.0810 H   0  0  0  0  0  0  0  0  0  0  0  0
   38.2010   23.7530   41.8610 H   0  0  0  0  0  0  0  0  0  0  0  0
   36.4260   24.0620   39.9510 C   0  0  0  0  0  0  0  0  0  0  0  0
   35.8530   24.5430   38.7670 F   0  0  0  0  0  0  0  0  0  0  0  0
   35.3780   23.6630   40.7300 F   0  0  0  0  0  0  0  0  0  0  0  0
   37.2920   23.0500   39.5920 F   0  0  0  0  0  0  0  0  0  0  0  0
   38.9790   31.4810   38.6540 C   0  0  0  0  0  0  0  0  0  0  0  0
   40.2210   31.9550   38.8770 N   0  0  0  0  0  0  0  0  0  0  0  0
   40.7370   32.4560   37.7190 C   0  0  0  0  0  0  0  0  0  0  0  0
   41.7370   32.8650   37.7820 H   0  0  0  0  0  0  0  0  0  0  0  0
   39.7830   32.2760   36.7870 N   0  0  0  0  0  0  0  0  0  0  0  0
   39.9920   32.5990   35.8170 H   0  0  0  0  0  0  0  0  0  0  0  0
   38.7330   31.6950   37.3420 N   0  0  0  0  0  0  0  0  0  0  0  0
  1  2  1  0  0  0  0
  2  3  1  0  0  0  0
  3 15  1  0  0  0  0
  3  4  2  0  0  0  0
  4  8  1  0  0  0  0
  5  4  1  0  0  0  0
  5  9  1  0  0  0  0
  6  5  2  0  0  0  0
  7  2  2  0  0  0  0
  7  6  1  0  0  0  0
 10  6  1  0  0  0  0
 11 17  1  0  0  0  0
 12 18  1  0  0  0  0
 12 11  2  0  0  0  0
 13 12  1  0  0  0  0
 14 13  2  0  0  0  0
 14 15  1  0  0  0  0
 15 16  2  0  0  0  0
 16 11  1  0  0  0  0
 19 13  1  0  0  0  0
 19 21  1  0  0  0  0
 20 19  1  0  0  0  0
 22 19  1  0  0  0  0
 23 24  1  0  0  0  0
 23  7  1  0  0  0  0
 25 26  1  0  0  0  0
 25 24  2  0  0  0  0
 27 29  1  0  0  0  0
 27 25  1  0  0  0  0
 28 27  1  0  0  0  0
 29 23  2  0  0  0  0
M  END
>  <minimizedAffinity>
-5.46989536

$$$$

 OpenBabel03242510413D

 29 31  0  0  0  0  0  0  0  0999 V2000
   38.7830   26.9430   39.7480 Cl  0  0  0  0  0  0  0  0  0  0  0  0
   38.0350   27.2900   41.3050 C   0  0  0  0  0  0  0  0  0  0  0  0
   38.0070   28.6130   41.7330 C   0  0  0  0  0  0  0  0  0  0  0  0
   37.4370   28.8800   42.9300 C   0  0  0  0  0  0  0  0  0  0  0  0
   36.9040   27.8140   43.6760 C   0  0  0  0  0  0  0  0  0  0  0  0
   36.9360   26.5140   43.2460 C   0  0  0  0  0  0  0  0  0  0  0  0
   37.5180   26.2370   42.0240 C   0  0  0  0  0  0  0  0  0  0  0  0
   37.3870   29.8950   43.3150 H   0  0  0  0  0  0  0  0  0  0  0  0
   36.4380   27.9820   44.6420 H   0  0  0  0  0  0  0  0  0  0  0  0
   36.5350   25.6890   43.8000 H   0  0  0  0  0  0  0  0  0  0  0  0
   40.3660   31.0410   40.3630 C   0  0  0  0  0  0  0  0  0  0  0  0
   39.6720   31.6020   39.2640 C   0  0  0  0  0  0  0  0  0  0  0  0
   38.3800   31.1070   39.0250 C   0  0  0  0  0  0  0  0  0  0  0  0
   37.8910   30.1470   39.8470 N   0  0  0  0  0  0  0  0  0  0  0  0
   38.5840   29.6450   40.8770 C   0  0  0  0  0  0  0  0  0  0  0  0
   39.8220   30.0910   41.1380 N   0  0  0  0  0  0  0  0  0  0  0  0
   41.3680   31.4080   40.5700 H   0  0  0  0  0  0  0  0  0  0  0  0
   40.1270   32.3680   38.6490 H   0  0  0  0  0  0  0  0  0  0  0  0
   37.7020   31.7130   37.8830 C   0  0  0  0  0  0  0  0  0  0  0  0
   38.6710   32.1000   36.9480 F   0  0  0  0  0  0  0  0  0  0  0  0
   37.1250   32.8710   38.3150 F   0  0  0  0  0  0  0  0  0  0  0  0
   36.8440   30.8510   37.2320 F   0  0  0  0  0  0  0  0  0  0  0  0
   37.5860   24.8740   41.5040 C   0  0  0  0  0  0  0  0  0  0  0  0
   36.7510   24.2200   40.6720 N   0  0  0  0  0  0  0  0  0  0  0  0
   37.2130   22.9550   40.4570 C   0  0  0  0  0  0  0  0  0  0  0  0
   36.6160   22.3370   39.8000 H   0  0  0  0  0  0  0  0  0  0  0  0
   38.3460   22.8540   41.1760 N   0  0  0  0  0  0  0  0  0  0  0  0
   38.8580   21.9440   41.1400 H   0  0  0  0  0  0  0  0  0  0  0  0
   38.5710   23.9970   41.8010 N   0  0  0  0  0  0  0  0  0  0  0  0
  1  2  1  0  0  0  0
  2  3  2  0  0  0  0
  2  7  1  0  0  0  0
  3  4  1  0  0  0  0
  4  8  1  0  0  0  0
  4  5  2  0  0  0  0
  5  9  1  0  0  0  0
  6  5  1  0  0  0  0
  6 10  1  0  0  0  0
  7  6  2  0  0  0  0
 11 17  1  0  0  0  0
 11 16  1  0  0  0  0
 12 11  2  0  0  0  0
 13 12  1  0  0  0  0
 13 14  2  0  0  0  0
 14 15  1  0  0  0  0
 15 16  2  0  0  0  0
 15  3  1  0  0  0  0
 18 12  1  0  0  0  0
 19 21  1  0  0  0  0
 19 13  1  0  0  0  0
 20 19  1  0  0  0  0
 22 19  1  0  0  0  0
 23 29  2  0  0  0  0
 23  7  1  0  0  0  0
 24 23  1  0  0  0  0
 25 24  2  0  0  0  0
 25 27  1  0  0  0  0
 26 25  1  0  0  0  0
 27 29  1  0  0  0  0
 28 27  1  0  0  0  0
M  END
>  <minimizedAffinity>
-5.42851686

$$$$

 OpenBabel03242510413D

 29 31  0  0  0  0  0  0  0  0999 V2000
   37.4510   28.3280   39.2950 Cl  0  0  0  0  0  0  0  0  0  0  0  0
   37.6030   28.0870   41.0330 C   0  0  0  0  0  0  0  0  0  0  0  0
   37.6640   26.7800   41.5060 C   0  0  0  0  0  0  0  0  0  0  0  0
   37.7750   26.5940   42.8410 C   0  0  0  0  0  0  0  0  0  0  0  0
   37.8240   27.7230   43.6780 C   0  0  0  0  0  0  0  0  0  0  0  0
   37.7630   29.0060   43.2030 C   0  0  0  0  0  0  0  0  0  0  0  0
   37.6490   29.2000   41.8400 C   0  0  0  0  0  0  0  0  0  0  0  0
   37.8270   25.5950   43.2670 H   0  0  0  0  0  0  0  0  0  0  0  0
   37.9130   27.6200   44.7550 H   0  0  0  0  0  0  0  0  0  0  0  0
   37.7990   29.8780   43.8250 H   0  0  0  0  0  0  0  0  0  0  0  0
   38.7160   24.2570   39.0850 C   0  0  0  0  0  0  0  0  0  0  0  0
   37.5100   23.6030   38.7340 C   0  0  0  0  0  0  0  0  0  0  0  0
   36.3440   24.0670   39.3650 C   0  0  0  0  0  0  0  0  0  0  0  0
   36.4470   25.0900   40.2470 N   0  0  0  0  0  0  0  0  0  0  0  0
   37.6110   25.6800   40.5490 C   0  0  0  0  0  0  0  0  0  0  0  0
   38.7470   25.2650   39.9690 N   0  0  0  0  0  0  0  0  0  0  0  0
   39.6320   23.9170   38.6110 H   0  0  0  0  0  0  0  0  0  0  0  0
   37.5030   22.7910   38.0180 H   0  0  0  0  0  0  0  0  0  0  0  0
   35.1250   23.3650   38.9730 C   0  0  0  0  0  0  0  0  0  0  0  0
   34.3300   24.2420   38.2240 F   0  0  0  0  0  0  0  0  0  0  0  0
   34.4160   23.1080   40.1110 F   0  0  0  0  0  0  0  0  0  0  0  0
   35.3570   22.2620   38.1790 F   0  0  0  0  0  0  0  0  0  0  0  0
   37.5790   30.5420   41.2650 C   0  0  0  0  0  0  0  0  0  0  0  0
   38.5680   31.3940   40.9290 N   0  0  0  0  0  0  0  0  0  0  0  0
   38.0340   32.5420   40.4240 C   0  0  0  0  0  0  0  0  0  0  0  0
   38.7420   33.3020   40.1190 H   0  0  0  0  0  0  0  0  0  0  0  0
   36.6990   32.3700   40.4590 N   0  0  0  0  0  0  0  0  0  0  0  0
   36.1040   33.1530   40.1070 H   0  0  0  0  0  0  0  0  0  0  0  0
   36.4250   31.1780   40.9610 N   0  0  0  0  0  0  0  0  0  0  0  0
  1  2  1  0  0  0  0
  2  3  2  0  0  0  0
  2  7  1  0  0  0  0
  3  4  1  0  0  0  0
  4  8  1  0  0  0  0
  4  5  2  0  0  0  0
  5  9  1  0  0  0  0
  6  5  1  0  0  0  0
  6 10  1  0  0  0  0
  7  6  2  0  0  0  0
 11 16  1  0  0  0  0
 12 11  2  0  0  0  0
 12 13  1  0  0  0  0
 13 14  2  0  0  0  0
 14 15  1  0  0  0  0
 15  3  1  0  0  0  0
 16 15  2  0  0  0  0
 17 11  1  0  0  0  0
 18 12  1  0  0  0  0
 19 13  1  0  0  0  0
 19 21  1  0  0  0  0
 20 19  1  0  0  0  0
 22 19  1  0  0  0  0
 23  7  1  0  0  0  0
 24 23  1  0  0  0  0
 25 27  1  0  0  0  0
 25 24  2  0  0  0  0
 26 25  1  0  0  0  0
 27 29  1  0  0  0  0
 28 27  1  0  0  0  0
 29 23  2  0  0  0  0
M  END
>  <minimizedAffinity>
-5.41607714

$$$$

 OpenBabel03242510413D

 29 31  0  0  0  0  0  0  0  0999 V2000
   40.0370   30.0660   38.9360 Cl  0  0  0  0  0  0  0  0  0  0  0  0
   39.6970   31.6890   39.5300 C   0  0  0  0  0  0  0  0  0  0  0  0
   38.5150   31.8910   40.2330 C   0  0  0  0  0  0  0  0  0  0  0  0
   38.2510   33.1380   40.6850 C   0  0  0  0  0  0  0  0  0  0  0  0
   39.1790   34.1610   40.4230 C   0  0  0  0  0  0  0  0  0  0  0  0
   40.3420   33.9520   39.7290 C   0  0  0  0  0  0  0  0  0  0  0  0
   40.6150   32.6810   39.2660 C   0  0  0  0  0  0  0  0  0  0  0  0
   37.3420   33.3540   41.2410 H   0  0  0  0  0  0  0  0  0  0  0  0
   39.0080   35.1760   40.7670 H   0  0  0  0  0  0  0  0  0  0  0  0
   41.0610   34.7190   39.5200 H   0  0  0  0  0  0  0  0  0  0  0  0
   35.7260   29.5650   39.8460 C   0  0  0  0  0  0  0  0  0  0  0  0
   35.9310   28.6190   40.8790 C   0  0  0  0  0  0  0  0  0  0  0  0
   37.0570   28.8200   41.6940 C   0  0  0  0  0  0  0  0  0  0  0  0
   37.8550   29.8860   41.4440 N   0  0  0  0  0  0  0  0  0  0  0  0
   37.6230   30.7580   40.4550 C   0  0  0  0  0  0  0  0  0  0  0  0
   36.5580   30.6000   39.6540 N   0  0  0  0  0  0  0  0  0  0  0  0
   34.8610   29.4320   39.2020 H   0  0  0  0  0  0  0  0  0  0  0  0
   35.2490   27.7900   41.0190 H   0  0  0  0  0  0  0  0  0  0  0  0
   37.2290   27.8210   42.7440 C   0  0  0  0  0  0  0  0  0  0  0  0
   38.1470   28.3150   43.6800 F   0  0  0  0  0  0  0  0  0  0  0  0
   37.8280   26.7320   42.1810 F   0  0  0  0  0  0  0  0  0  0  0  0
   36.0670   27.5440   43.4350 F   0  0  0  0  0  0  0  0  0  0  0  0
   41.8360   32.3870   38.5180 C   0  0  0  0  0  0  0  0  0  0  0  0
   43.0430   31.9780   38.9560 N   0  0  0  0  0  0  0  0  0  0  0  0
   43.8900   31.8290   37.8980 C   0  0  0  0  0  0  0  0  0  0  0  0
   44.8940   31.5010   38.1350 H   0  0  0  0  0  0  0  0  0  0  0  0
   43.1720   32.1570   36.8080 N   0  0  0  0  0  0  0  0  0  0  0  0
   43.6530   32.1050   35.8820 H   0  0  0  0  0  0  0  0  0  0  0  0
   41.9460   32.4900   37.1750 N   0  0  0  0  0  0  0  0  0  0  0  0
  1  2  1  0  0  0  0
  2  3  1  0  0  0  0
  3 15  1  0  0  0  0
  3  4  2  0  0  0  0
  4  8  1  0  0  0  0
  5  4  1  0  0  0  0
  5  9  1  0  0  0  0
  6  5  2  0  0  0  0
  7  2  2  0  0  0  0
  7  6  1  0  0  0  0
 10  6  1  0  0  0  0
 11 12  1  0  0  0  0
 12 18  1  0  0  0  0
 12 13  2  0  0  0  0
 13 19  1  0  0  0  0
 14 13  1  0  0  0  0
 15 14  2  0  0  0  0
 16 11  2  0  0  0  0
 16 15  1  0  0  0  0
 17 11  1  0  0  0  0
 19 22  1  0  0  0  0
 19 20  1  0  0  0  0
 21 19  1  0  0  0  0
 23 24  1  0  0  0  0
 23  7  1  0  0  0  0
 25 26  1  0  0  0  0
 25 24  2  0  0  0  0
 27 29  1  0  0  0  0
 27 25  1  0  0  0  0
 28 27  1  0  0  0  0
 29 23  2  0  0  0  0
M  END
>  <minimizedAffinity>
-5.38270044

$$$$
