
 OpenBabel03242518313D

 26 28  0  0  0  0  0  0  0  0999 V2000
   47.1940   33.8340   39.9380 C   0  0  0  0  0  0  0  0  0  0  0  0
   48.2990   34.3900   39.3590 C   0  0  0  0  0  0  0  0  0  0  0  0
   48.2290   34.1990   37.9920 C   0  0  0  0  0  0  0  0  0  0  0  0
   47.0500   33.5160   37.7970 C   0  0  0  0  0  0  0  0  0  0  0  0
   46.4580   33.3130   38.9650 O   0  0  0  0  0  0  0  0  0  0  0  0
   49.0880   34.8950   39.9030 H   0  0  0  0  0  0  0  0  0  0  0  0
   48.9200   34.5020   37.2270 H   0  0  0  0  0  0  0  0  0  0  0  0
   46.4550   33.0420   36.5510 C   0  0  0  0  0  0  0  0  0  0  0  0
   47.2370   32.3930   35.6390 N   0  0  0  0  0  0  0  0  0  0  0  0
   46.4680   32.0560   34.5770 C   0  0  0  0  0  0  0  0  0  0  0  0
   46.7120   31.5350   33.6540 H   0  0  0  0  0  0  0  0  0  0  0  0
   45.2150   32.4950   34.8340 N   0  0  0  0  0  0  0  0  0  0  0  0
   44.3120   32.4490   34.2890 H   0  0  0  0  0  0  0  0  0  0  0  0
   45.1950   33.0970   36.0310 N   0  0  0  0  0  0  0  0  0  0  0  0
   46.8030   33.7640   41.2820 O   0  0  0  0  0  0  0  0  0  0  0  0
   47.0700   34.7980   42.1750 C   0  0  0  0  0  0  0  0  0  0  0  0
   47.9960   35.5790   41.8480 O   0  0  0  0  0  0  0  0  0  0  0  0
   46.2560   34.8360   43.3450 C   0  0  0  0  0  0  0  0  0  0  0  0
   45.3670   35.8910   43.3560 C   0  0  0  0  0  0  0  0  0  0  0  0
   44.5270   35.9900   44.4870 C   0  0  0  0  0  0  0  0  0  0  0  0
   44.6390   35.0740   45.4660 N   0  0  0  0  0  0  0  0  0  0  0  0
   45.5310   34.0610   45.4000 C   0  0  0  0  0  0  0  0  0  0  0  0
   46.3390   33.9440   44.3340 N   0  0  0  0  0  0  0  0  0  0  0  0
   45.2440   36.6480   42.5940 H   0  0  0  0  0  0  0  0  0  0  0  0
   43.7960   36.8110   44.5560 H   0  0  0  0  0  0  0  0  0  0  0  0
   45.5690   33.3550   46.2260 H   0  0  0  0  0  0  0  0  0  0  0  0
  1 15  1  0  0  0  0
  2  6  1  0  0  0  0
  2  1  2  0  0  0  0
  3  2  1  0  0  0  0
  4  3  2  0  0  0  0
  4  5  1  0  0  0  0
  5  1  1  0  0  0  0
  7  3  1  0  0  0  0
  8  4  1  0  0  0  0
  9  8  1  0  0  0  0
 10 12  1  0  0  0  0
 10  9  2  0  0  0  0
 11 10  1  0  0  0  0
 12 14  1  0  0  0  0
 13 12  1  0  0  0  0
 14  8  2  0  0  0  0
 15 16  1  0  0  0  0
 16 18  1  0  0  0  0
 17 16  2  0  0  0  0
 18 19  2  0  0  0  0
 18 23  1  0  0  0  0
 19 20  1  0  0  0  0
 20 25  1  0  0  0  0
 20 21  2  0  0  0  0
 22 21  1  0  0  0  0
 22 26  1  0  0  0  0
 23 22  2  0  0  0  0
 24 19  1  0  0  0  0
M  END
>  <minimizedAffinity>
-5.04510069

>  <minimizedRMSD>
0.550413668

$$$$
