
 OpenBabel03252500293D

 26 28  0  0  1  0  0  0  0  0999 V2000
   46.8410   34.9640   41.8540 C   0  0  1  0  0  0  0  0  0  0  0  0
   47.4800   33.7440   41.4170 C   0  0  0  0  0  0  0  0  0  0  0  0
   46.2360   34.1380   40.7170 C   0  0  1  0  0  0  0  0  0  0  0  0
   47.1850   35.9760   41.5300 H   0  0  0  0  0  0  0  0  0  0  0  0
   48.4450   33.8700   40.8500 H   0  0  0  0  0  0  0  0  0  0  0  0
   47.5030   32.8260   42.0290 H   0  0  0  0  0  0  0  0  0  0  0  0
   46.3610   34.5780   39.6940 H   0  0  0  0  0  0  0  0  0  0  0  0
   46.2630   34.0490   44.1340 C   0  0  0  0  0  0  0  0  0  0  0  0
   46.0760   35.0460   43.1290 C   0  0  0  0  0  0  0  0  0  0  0  0
   45.1760   36.0680   43.3650 C   0  0  0  0  0  0  0  0  0  0  0  0
   44.5140   36.0620   44.5590 N   0  0  0  0  0  0  0  0  0  0  0  0
   44.7050   35.1070   45.5030 C   0  0  0  0  0  0  0  0  0  0  0  0
   45.5860   34.0800   45.3040 N   0  0  0  0  0  0  0  0  0  0  0  0
   46.9690   33.2570   43.9320 H   0  0  0  0  0  0  0  0  0  0  0  0
   45.0220   36.8250   42.6230 H   0  0  0  0  0  0  0  0  0  0  0  0
   44.1080   35.2390   46.3950 H   0  0  0  0  0  0  0  0  0  0  0  0
   44.9670   33.4180   40.9470 C   0  0  0  0  0  0  0  0  0  0  0  0
   44.6670   33.3910   42.0350 H   0  0  0  0  0  0  0  0  0  0  0  0
   45.0490   32.3270   40.6770 H   0  0  0  0  0  0  0  0  0  0  0  0
   43.8570   34.0310   40.1760 C   0  0  0  0  0  0  0  0  0  0  0  0
   43.3400   33.5450   39.0430 N   0  0  0  0  0  0  0  0  0  0  0  0
   42.3520   34.3030   38.5700 C   0  0  0  0  0  0  0  0  0  0  0  0
   41.8470   34.0250   37.6590 H   0  0  0  0  0  0  0  0  0  0  0  0
   42.2440   35.3250   39.4630 N   0  0  0  0  0  0  0  0  0  0  0  0
   41.5240   36.0740   39.3150 H   0  0  0  0  0  0  0  0  0  0  0  0
   43.1580   35.1490   40.4270 N   0  0  0  0  0  0  0  0  0  0  0  0
  1  4  1  6  0  0  0
  1  9  1  0  0  0  0
  2  1  1  0  0  0  0
  2  6  1  0  0  0  0
  3  7  1  6  0  0  0
  3 17  1  0  0  0  0
  3  2  1  0  0  0  0
  3  1  1  0  0  0  0
  5  2  1  0  0  0  0
  8 13  1  0  0  0  0
  9 10  1  0  0  0  0
  9  8  2  0  0  0  0
 10 11  2  0  0  0  0
 11 12  1  0  0  0  0
 12 16  1  0  0  0  0
 13 12  2  0  0  0  0
 14  8  1  0  0  0  0
 15 10  1  0  0  0  0
 17 18  1  0  0  0  0
 19 17  1  0  0  0  0
 20 26  2  0  0  0  0
 20 17  1  0  0  0  0
 21 20  1  0  0  0  0
 22 21  2  0  0  0  0
 22 24  1  0  0  0  0
 23 22  1  0  0  0  0
 24 26  1  0  0  0  0
 25 24  1  0  0  0  0
M  END
>  <minimizedAffinity>
-4.3068881

>  <minimizedRMSD>
5.99288511

$$$$
