
 OpenBabel03252507433D

 29 31  0  0  0  0  0  0  0  0999 V2000
   45.8910   34.6080   41.6420 C   0  0  0  0  0  0  0  0  0  0  0  0
   45.8880   33.8260   42.4300 H   0  0  0  0  0  0  0  0  0  0  0  0
   46.1090   35.5870   42.1130 H   0  0  0  0  0  0  0  0  0  0  0  0
   44.5100   34.6090   41.0820 C   0  0  0  0  0  0  0  0  0  0  0  0
   43.5700   35.6060   41.4720 C   0  0  0  0  0  0  0  0  0  0  0  0
   42.0640   35.1270   40.4910 S   0  0  0  0  0  0  0  0  0  0  0  0
   42.9940   33.6610   39.7340 C   0  0  0  0  0  0  0  0  0  0  0  0
   44.0180   33.7500   40.2180 N   0  0  0  0  0  0  0  0  0  0  0  0
   43.7250   36.4120   42.1580 H   0  0  0  0  0  0  0  0  0  0  0  0
   42.4340   32.6920   38.7580 C   0  0  0  0  0  0  0  0  0  0  0  0
   43.0750   31.8820   37.9150 N   0  0  0  0  0  0  0  0  0  0  0  0
   42.2000   31.1580   37.1970 C   0  0  0  0  0  0  0  0  0  0  0  0
   42.5840   30.4580   36.4720 H   0  0  0  0  0  0  0  0  0  0  0  0
   40.9590   31.5410   37.6170 N   0  0  0  0  0  0  0  0  0  0  0  0
   40.1170   31.0990   37.1860 H   0  0  0  0  0  0  0  0  0  0  0  0
   41.1180   32.4680   38.5600 N   0  0  0  0  0  0  0  0  0  0  0  0
   46.9590   34.2720   40.6680 C   0  0  0  0  0  0  0  0  0  0  0  0
   46.6900   33.4590   40.0050 H   0  0  0  0  0  0  0  0  0  0  0  0
   47.1000   35.1660   39.9920 H   0  0  0  0  0  0  0  0  0  0  0  0
   48.2950   34.0720   41.2830 C   0  0  0  0  0  0  0  0  0  0  0  0
   48.9450   32.8700   41.0180 C   0  0  0  0  0  0  0  0  0  0  0  0
   50.1920   32.6280   41.5620 C   0  0  0  0  0  0  0  0  0  0  0  0
   50.7420   33.6040   42.3540 N   0  0  0  0  0  0  0  0  0  0  0  0
   50.0780   34.7590   42.5870 C   0  0  0  0  0  0  0  0  0  0  0  0
   48.8850   34.9780   42.0600 N   0  0  0  0  0  0  0  0  0  0  0  0
   50.7260   31.6940   41.3720 H   0  0  0  0  0  0  0  0  0  0  0  0
   50.5960   35.4770   43.2320 H   0  0  0  0  0  0  0  0  0  0  0  0
   48.1660   31.6290   39.9680 S   0  0  0  0  0  0  0  0  0  0  0  0
   46.9450   31.3040   40.6090 H   0  0  0  0  0  0  0  0  0  0  0  0
  1  3  1  0  0  0  0
  1  2  1  0  0  0  0
  4  5  2  0  0  0  0
  4  1  1  0  0  0  0
  5  9  1  0  0  0  0
  6  5  1  0  0  0  0
  7  8  2  0  0  0  0
  7  6  1  0  0  0  0
  8  4  1  0  0  0  0
 10  7  1  0  0  0  0
 11 10  1  0  0  0  0
 12 14  1  0  0  0  0
 12 11  2  0  0  0  0
 13 12  1  0  0  0  0
 14 16  1  0  0  0  0
 15 14  1  0  0  0  0
 16 10  2  0  0  0  0
 17 20  1  0  0  0  0
 17  1  1  0  0  0  0
 18 17  1  0  0  0  0
 19 17  1  0  0  0  0
 20 25  1  0  0  0  0
 21 20  2  0  0  0  0
 21 22  1  0  0  0  0
 22 23  2  0  0  0  0
 23 24  1  0  0  0  0
 24 27  1  0  0  0  0
 25 24  2  0  0  0  0
 26 22  1  0  0  0  0
 28 29  1  0  0  0  0
 28 21  1  0  0  0  0
M  END
>  <minimizedAffinity>
-4.13876581

>  <minimizedRMSD>
0.719630837

$$$$
