
 OpenBabel03242519173D

 40 43  0  0  1  0  0  0  0  0999 V2000
   48.3410   34.2180   40.9340 C   0  0  0  0  0  0  0  0  0  0  0  0
   47.8690   34.3630   39.6480 C   0  0  0  0  0  0  0  0  0  0  0  0
   48.2300   33.5060   38.5980 C   0  0  0  0  0  0  0  0  0  0  0  0
   49.0920   32.5060   38.9360 N   0  0  0  0  0  0  0  0  0  0  0  0
   49.5450   32.3740   40.1910 C   0  0  0  0  0  0  0  0  0  0  0  0
   49.1770   33.2130   41.1650 N   0  0  0  0  0  0  0  0  0  0  0  0
   47.1880   35.1830   39.4620 H   0  0  0  0  0  0  0  0  0  0  0  0
   47.8400   33.6500   37.6030 H   0  0  0  0  0  0  0  0  0  0  0  0
   50.4710   31.2580   40.5730 C   0  0  2  0  0  0  0  0  0  0  0  0
   51.1960   31.3450   41.8800 C   0  0  0  0  0  0  0  0  0  0  0  0
   51.9280   31.5660   40.5440 C   0  0  1  0  0  0  0  0  0  0  0  0
   50.1720   30.2950   40.1120 H   0  0  0  0  0  0  0  0  0  0  0  0
   50.9800   32.2460   42.4970 H   0  0  0  0  0  0  0  0  0  0  0  0
   51.3470   30.4040   42.4230 H   0  0  0  0  0  0  0  0  0  0  0  0
   52.2810   32.5980   40.3960 H   0  0  0  0  0  0  0  0  0  0  0  0
   52.9090   30.4860   40.2530 C   0  0  0  0  0  0  0  0  0  0  0  0
   54.1000   30.2820   40.8180 N   0  0  0  0  0  0  0  0  0  0  0  0
   54.7100   29.1870   40.2840 C   0  0  0  0  0  0  0  0  0  0  0  0
   55.6830   28.9680   40.7030 H   0  0  0  0  0  0  0  0  0  0  0  0
   53.8430   28.7190   39.3600 N   0  0  0  0  0  0  0  0  0  0  0  0
   54.1520   27.8640   38.8390 H   0  0  0  0  0  0  0  0  0  0  0  0
   52.7690   29.5010   39.3470 N   0  0  0  0  0  0  0  0  0  0  0  0
   47.9450   35.1060   41.9970 C   0  0  0  0  0  0  0  0  0  0  0  0
   48.0870   36.1660   41.6320 H   0  0  0  0  0  0  0  0  0  0  0  0
   48.5940   35.0330   42.8920 H   0  0  0  0  0  0  0  0  0  0  0  0
   46.5150   34.9520   42.3230 C   0  0  0  0  0  0  0  0  0  0  0  0
   46.0080   34.2470   41.6060 H   0  0  0  0  0  0  0  0  0  0  0  0
   45.9080   35.8900   42.2440 H   0  0  0  0  0  0  0  0  0  0  0  0
   44.5820   36.4160   44.0460 Cl  0  0  0  0  0  0  0  0  0  0  0  0
   45.4000   34.9660   44.5660 C   0  0  0  0  0  0  0  0  0  0  0  0
   46.2700   34.3800   43.6850 C   0  0  0  0  0  0  0  0  0  0  0  0
   46.9180   33.2340   44.0920 C   0  0  0  0  0  0  0  0  0  0  0  0
   46.7000   32.6970   45.3450 C   0  0  0  0  0  0  0  0  0  0  0  0
   45.8080   33.3100   46.2300 C   0  0  0  0  0  0  0  0  0  0  0  0
   45.1610   34.4620   45.8090 C   0  0  0  0  0  0  0  0  0  0  0  0
   47.6180   32.7200   43.4460 H   0  0  0  0  0  0  0  0  0  0  0  0
   47.1620   31.8190   45.7250 H   0  0  0  0  0  0  0  0  0  0  0  0
   45.6190   32.9090   47.2160 H   0  0  0  0  0  0  0  0  0  0  0  0
   44.2500   35.1460   46.6260 O   0  0  0  0  0  0  0  0  0  0  0  0
   43.4470   34.6330   46.9730 H   0  0  0  0  0  0  0  0  0  0  0  0
  1  6  1  0  0  0  0
  1 23  1  0  0  0  0
  2  1  2  0  0  0  0
  3  4  2  0  0  0  0
  3  2  1  0  0  0  0
  4  5  1  0  0  0  0
  5  9  1  0  0  0  0
  5  6  2  0  0  0  0
  7  2  1  0  0  0  0
  8  3  1  0  0  0  0
  9 12  1  6  0  0  0
  9 10  1  0  0  0  0
 10 14  1  0  0  0  0
 10 13  1  0  0  0  0
 11 15  1  6  0  0  0
 11  9  1  0  0  0  0
 11 10  1  0  0  0  0
 16 11  1  0  0  0  0
 16 17  1  0  0  0  0
 18 19  1  0  0  0  0
 18 17  2  0  0  0  0
 20 18  1  0  0  0  0
 21 20  1  0  0  0  0
 22 20  1  0  0  0  0
 22 16  2  0  0  0  0
 23 26  1  0  0  0  0
 23 25  1  0  0  0  0
 24 23  1  0  0  0  0
 26 31  1  0  0  0  0
 27 26  1  0  0  0  0
 28 26  1  0  0  0  0
 29 30  1  0  0  0  0
 30 35  1  0  0  0  0
 31 32  1  0  0  0  0
 31 30  2  0  0  0  0
 32 33  2  0  0  0  0
 33 37  1  0  0  0  0
 33 34  1  0  0  0  0
 34 38  1  0  0  0  0
 35 34  2  0  0  0  0
 35 39  1  0  0  0  0
 36 32  1  0  0  0  0
 39 40  1  0  0  0  0
M  END
>  <minimizedAffinity>
-5.73348141

>  <minimizedRMSD>
0.163451836

$$$$
