
     RDKit          3D

 22 23  0  0  0  0  0  0  0  0999 V2000
   45.3113   34.5575   45.0337 C   0  0  0  0  0  0  0  0  0  0  0  0
   45.2635   33.9396   46.2705 C   0  0  0  0  0  0  0  0  0  0  0  0
   46.1646   32.9023   46.4743 C   0  0  0  0  0  0  0  0  0  0  0  0
   46.9996   32.5803   45.4780 N   0  0  0  0  0  0  0  0  0  0  0  0
   47.0203   33.2027   44.2844 C   0  0  0  0  0  0  0  0  0  0  0  0
   46.1588   34.2214   44.0397 N   0  0  0  0  0  0  0  0  0  0  0  0
   43.9646   35.3785   43.2951 C   0  0  0  0  0  0  0  0  0  0  0  0
   44.4075   34.2812   42.8421 O   0  0  0  0  0  0  0  0  0  0  0  0
   44.4586   35.6596   44.6175 N   0  0  0  0  0  0  0  0  0  0  0  0
   44.3053   34.4279   47.1937 N   0  0  0  0  0  0  0  0  0  0  0  0
   46.1171   32.4308   47.4389 H   0  0  0  0  0  0  0  0  0  0  0  0
   47.7484   32.8306   43.5852 H   0  0  0  0  0  0  0  0  0  0  0  0
   44.2041   36.5167   45.1144 H   0  0  0  0  0  0  0  0  0  0  0  0
   43.3743   34.7361   46.8363 H   0  0  0  0  0  0  0  0  0  0  0  0
   44.3858   34.5333   48.2215 H   0  0  0  0  0  0  0  0  0  0  0  0
   43.0592   36.2991   42.6153 C   0  0  0  0  0  0  0  0  0  0  0  0
   43.1313   36.9909   41.4666 N   0  0  0  0  0  0  0  0  0  0  0  0
   41.9848   37.7130   41.3032 C   0  0  0  0  0  0  0  0  0  0  0  0
   42.0242   38.2805   40.3780 H   0  0  0  0  0  0  0  0  0  0  0  0
   41.2107   37.4454   42.3798 N   0  0  0  0  0  0  0  0  0  0  0  0
   40.2954   37.9485   42.3645 H   0  0  0  0  0  0  0  0  0  0  0  0
   41.8650   36.5936   43.1642 N   0  0  0  0  0  0  0  0  0  0  0  0
  1  2  2  0
  2  3  1  0
  2 10  1  0
  4  3  2  0
  5  4  1  0
  6  5  2  0
  6  1  1  0
  7  9  1  0
  8  7  2  0
  9  1  1  0
  3 11  1  0
  5 12  1  0
  9 13  1  0
 10 14  1  0
 10 15  1  0
 16 17  1  0
 17 18  2  0
 18 19  1  0
 18 20  1  0
 20 21  1  0
 20 22  1  0
 22 16  2  0
  7 16  1  0
M  ISO  4  11  14  12  14  19  14  21   9
M  END
>  <DihAtoms>  (1) 
8,6,15,16

>  <DihDeg>  (1) 
-0.006516263872884722

$$$$
