
     RDKit          3D

 29 31  0  0  0  0  0  0  0  0999 V2000
   46.6905   34.2524   40.6994 C   0  0  0  0  0  0  0  0  0  0  0  0
   48.0438   34.1838   41.3049 C   0  0  0  0  0  0  0  0  0  0  0  0
   48.7429   32.9867   41.1713 C   0  0  0  0  0  0  0  0  0  0  0  0
   50.0073   32.8641   41.7141 C   0  0  0  0  0  0  0  0  0  0  0  0
   50.5263   33.9504   42.3735 N   0  0  0  0  0  0  0  0  0  0  0  0
   49.8150   35.0958   42.4815 C   0  0  0  0  0  0  0  0  0  0  0  0
   48.6062   35.1998   41.9574 N   0  0  0  0  0  0  0  0  0  0  0  0
   48.0028   31.5977   40.2924 S   0  0  0  0  0  0  0  0  0  0  0  0
   45.6129   34.5741   41.6655 C   0  0  0  0  0  0  0  0  0  0  0  0
   44.2481   34.6673   41.0743 C   0  0  0  0  0  0  0  0  0  0  0  0
   43.2367   35.4502   41.7017 C   0  0  0  0  0  0  0  0  0  0  0  0
   41.7884   35.2043   40.5622 S   0  0  0  0  0  0  0  0  0  0  0  0
   42.8278   34.0826   39.4444 C   0  0  0  0  0  0  0  0  0  0  0  0
   43.8333   34.0788   39.9754 N   0  0  0  0  0  0  0  0  0  0  0  0
   46.4723   33.3825   40.0908 H   0  0  0  0  0  0  0  0  0  0  0  0
   46.7632   35.1104   39.9674 H   0  0  0  0  0  0  0  0  0  0  0  0
   50.5791   31.9376   41.6251 H   0  0  0  0  0  0  0  0  0  0  0  0
   50.3114   35.9065   43.0245 H   0  0  0  0  0  0  0  0  0  0  0  0
   46.8078   31.3009   40.9916 H   0  0  0  0  0  0  0  0  0  0  0  0
   45.5574   33.7478   42.4041 H   0  0  0  0  0  0  0  0  0  0  0  0
   45.8578   35.5135   42.2003 H   0  0  0  0  0  0  0  0  0  0  0  0
   43.3241   36.0231   42.6025 H   0  0  0  0  0  0  0  0  0  0  0  0
   42.3543   33.4197   38.2034 C   0  0  0  0  0  0  0  0  0  0  0  0
   42.9550   32.4840   37.4671 N   0  0  0  0  0  0  0  0  0  0  0  0
   42.1912   32.1456   36.4159 C   0  0  0  0  0  0  0  0  0  0  0  0
   42.5576   31.3955   35.7335 H   0  0  0  0  0  0  0  0  0  0  0  0
   41.0641   32.9088   36.5071 N   0  0  0  0  0  0  0  0  0  0  0  0
   40.3203   32.8082   35.7811 H   0  0  0  0  0  0  0  0  0  0  0  0
   41.1777   33.6737   37.5926 N   0  0  0  0  0  0  0  0  0  0  0  0
  1  2  1  0
  1  9  1  0
  2  7  1  0
  3  2  2  0
  3  4  1  0
  4  5  2  0
  5  6  1  0
  7  6  2  0
  8  3  1  0
 10  9  1  0
 10 11  2  0
 12 11  1  0
 13 14  2  0
 13 12  1  0
 14 10  1  0
  1 15  1  0
  1 16  1  0
  4 17  1  0
  6 18  1  0
  8 19  1  0
  9 20  1  0
  9 21  1  0
 11 22  1  0
 23 24  1  0
 24 25  2  0
 25 26  1  0
 25 27  1  0
 27 28  1  0
 27 29  1  0
 29 23  2  0
 13 23  1  0
M  ISO  8  15   8  16   8  17  14  18  14  19  11  20   8  21   8  22  14
M  ISO  2  26  14  28   9
M  END
>  <DihAtoms>  (1) 
13,12,22,23

>  <DihDeg>  (1) 
70.05011483889346

$$$$
