
     RDKit          3D

 42 45  0  0  0  0  0  0  0  0999 V2000
   45.1320   36.0168   42.9161 C   0  0  0  0  0  0  0  0  0  0  0  0
   45.3712   34.6519   42.9097 C   0  0  0  0  0  0  0  0  0  0  0  0
   45.2131   33.9192   44.0610 C   0  0  0  0  0  0  0  0  0  0  0  0
   44.8110   34.6091   45.1878 N   0  0  0  0  0  0  0  0  0  0  0  0
   44.5824   35.9206   45.1876 C   0  0  0  0  0  0  0  0  0  0  0  0
   44.7481   36.6127   44.0411 N   0  0  0  0  0  0  0  0  0  0  0  0
   45.4164   32.5300   44.2201 C   0  0  0  0  0  0  0  0  0  0  0  0
   44.9385   31.5620   43.3323 C   0  0  0  0  0  0  0  0  0  0  0  0
   45.0784   30.2102   43.5169 C   0  0  0  0  0  0  0  0  0  0  0  0
   45.7256   29.7382   44.6377 C   0  0  0  0  0  0  0  0  0  0  0  0
   46.2226   30.7109   45.5562 C   0  0  0  0  0  0  0  0  0  0  0  0
   46.8660   30.2497   46.6733 C   0  0  0  0  0  0  0  0  0  0  0  0
   47.3726   31.1347   47.6015 C   0  0  0  0  0  0  0  0  0  0  0  0
   47.2239   32.5140   47.3900 C   0  0  0  0  0  0  0  0  0  0  0  0
   46.5547   32.9359   46.2273 C   0  0  0  0  0  0  0  0  0  0  0  0
   46.0590   32.0348   45.3249 C   0  0  0  0  0  0  0  0  0  0  0  0
   45.7598   34.0906   41.7244 O   0  0  0  0  0  0  0  0  0  0  0  0
   47.6823   32.4293   41.0902 O   0  0  0  0  0  0  0  0  0  0  0  0
   47.3684   33.8747   41.2439 P   0  0  1  0  0  0  0  0  0  0  0  0
   47.6542   34.6038   39.7419 O   0  0  0  0  0  0  0  0  0  0  0  0
   48.3622   34.5946   42.3897 O   0  0  0  0  0  0  0  0  0  0  0  0
   49.5339   35.2923   42.1493 C   0  0  0  0  0  0  0  0  0  0  0  0
   49.2042   36.2126   41.3786 O   0  0  0  0  0  0  0  0  0  0  0  0
   50.6405   34.7014   42.8605 N   0  0  0  0  0  0  0  0  0  0  0  0
   45.2460   36.6373   42.0251 H   0  0  0  0  0  0  0  0  0  0  0  0
   44.2709   36.4415   46.0709 H   0  0  0  0  0  0  0  0  0  0  0  0
   44.4259   31.9039   42.4434 H   0  0  0  0  0  0  0  0  0  0  0  0
   44.6946   29.4940   42.8063 H   0  0  0  0  0  0  0  0  0  0  0  0
   45.8662   28.6870   44.8401 H   0  0  0  0  0  0  0  0  0  0  0  0
   46.9866   29.1909   46.8447 H   0  0  0  0  0  0  0  0  0  0  0  0
   47.8730   30.7195   48.4702 H   0  0  0  0  0  0  0  0  0  0  0  0
   47.6511   33.1142   48.1640 H   0  0  0  0  0  0  0  0  0  0  0  0
   46.5640   34.0046   46.2366 H   0  0  0  0  0  0  0  0  0  0  0  0
   50.6053   34.7344   43.9154 H   0  0  0  0  0  0  0  0  0  0  0  0
   51.4949   34.2328   42.4833 H   0  0  0  0  0  0  0  0  0  0  0  0
   46.7789   34.3154   38.7024 C   0  0  0  0  0  0  0  0  0  0  0  0
   46.4967   35.1844   37.6972 N   0  0  0  0  0  0  0  0  0  0  0  0
   45.6185   34.6213   36.8449 C   0  0  0  0  0  0  0  0  0  0  0  0
   45.1932   35.0516   35.9424 H   0  0  0  0  0  0  0  0  0  0  0  0
   45.3458   33.3898   37.3161 N   0  0  0  0  0  0  0  0  0  0  0  0
   44.6925   32.6635   36.8961 H   0  0  0  0  0  0  0  0  0  0  0  0
   46.0463   33.2255   38.4232 N   0  0  0  0  0  0  0  0  0  0  0  0
  1  6  2  0
  2  1  1  0
  2  3  2  0
  3  7  1  0
  3  4  1  0
  5  4  2  0
  6  5  1  0
  7 16  2  0
  8  9  2  0
  8  7  1  0
  9 10  1  0
 10 11  2  0
 11 12  1  0
 12 13  2  0
 14 13  1  0
 15 14  2  0
 16 11  1  0
 16 15  1  0
 17  2  1  0
 19 18  2  0
 19 17  1  1
 19 21  1  0
 20 19  1  0
 22 21  1  0
 22 24  1  0
 23 22  2  0
  1 25  1  0
  5 26  1  0
  8 27  1  0
  9 28  1  0
 10 29  1  0
 12 30  1  0
 13 31  1  0
 14 32  1  0
 15 33  1  0
 24 34  1  0
 24 35  1  0
 36 37  1  0
 37 38  2  0
 38 39  1  0
 38 40  1  0
 40 41  1  0
 40 42  1  0
 42 36  2  0
 20 36  1  0
M  ISO  8  25  14  26  14  27  14  28  14  29  14  30  14  31  14  32  14
M  ISO  3  33  14  39  14  41   9
M  END
>  <DihAtoms>  (1) 
18,19,35,36

>  <DihDeg>  (1) 
179.9997698812572

$$$$
