
 OpenBabel03252507393D

 36 40  0  0  0  0  0  0  0  0999 V2000
   36.5580   28.7220   41.9080 C   0  0  0  0  0  0  0  0  0  0  0  0
   37.4410   29.8240   41.8510 C   0  0  0  0  0  0  0  0  0  0  0  0
   37.2330   30.7510   40.8440 C   0  0  0  0  0  0  0  0  0  0  0  0
   36.2120   30.5600   39.9810 N   0  0  0  0  0  0  0  0  0  0  0  0
   35.3780   29.4930   40.0570 C   0  0  0  0  0  0  0  0  0  0  0  0
   35.5650   28.5930   41.0200 N   0  0  0  0  0  0  0  0  0  0  0  0
   38.2470   29.9800   42.5270 H   0  0  0  0  0  0  0  0  0  0  0  0
   34.5960   29.4550   39.3030 H   0  0  0  0  0  0  0  0  0  0  0  0
   37.4430   33.0460   40.0490 C   0  0  0  0  0  0  0  0  0  0  0  0
   38.0440   31.9400   40.6420 C   0  0  0  0  0  0  0  0  0  0  0  0
   39.3590   32.0370   41.0000 C   0  0  0  0  0  0  0  0  0  0  0  0
   40.1090   33.1790   40.7990 C   0  0  0  0  0  0  0  0  0  0  0  0
   41.3930   33.4960   41.0660 N   0  0  0  0  0  0  0  0  0  0  0  0
   41.5930   34.7970   40.6400 C   0  0  0  0  0  0  0  0  0  0  0  0
   40.4410   35.2440   40.1280 N   0  0  0  0  0  0  0  0  0  0  0  0
   39.5190   34.2700   40.2140 C   0  0  0  0  0  0  0  0  0  0  0  0
   38.1900   34.2010   39.8410 C   0  0  0  0  0  0  0  0  0  0  0  0
   36.4120   33.0480   39.7390 H   0  0  0  0  0  0  0  0  0  0  0  0
   39.8170   31.1630   41.4640 H   0  0  0  0  0  0  0  0  0  0  0  0
   42.1040   32.8720   41.5110 H   0  0  0  0  0  0  0  0  0  0  0  0
   42.5640   35.2590   40.7590 H   0  0  0  0  0  0  0  0  0  0  0  0
   37.7520   35.0880   39.3790 H   0  0  0  0  0  0  0  0  0  0  0  0
   36.7560   27.7860   42.9110 O   0  0  0  0  0  0  0  0  0  0  0  0
   37.8490   26.9460   42.9060 C   0  0  0  0  0  0  0  0  0  0  0  0
   37.4160   25.8440   42.2450 C   0  0  0  0  0  0  0  0  0  0  0  0
   38.9600   24.7520   42.2820 S   0  0  0  0  0  0  0  0  0  0  0  0
   39.9060   26.0960   43.2340 C   0  0  0  0  0  0  0  0  0  0  0  0
   39.1090   26.8630   43.3090 N   0  0  0  0  0  0  0  0  0  0  0  0
   36.6460   25.3010   41.7250 H   0  0  0  0  0  0  0  0  0  0  0  0
   41.3300   26.1120   43.7410 C   0  0  0  0  0  0  0  0  0  0  0  0
   41.8040   26.9990   44.6610 N   0  0  0  0  0  0  0  0  0  0  0  0
   43.0990   26.7100   44.8620 C   0  0  0  0  0  0  0  0  0  0  0  0
   43.7920   27.2050   45.5240 H   0  0  0  0  0  0  0  0  0  0  0  0
   43.3950   25.6630   44.0720 N   0  0  0  0  0  0  0  0  0  0  0  0
   44.3160   25.1570   43.9580 H   0  0  0  0  0  0  0  0  0  0  0  0
   42.3120   25.2980   43.3860 N   0  0  0  0  0  0  0  0  0  0  0  0
  1 23  1  0  0  0  0
  2  1  1  0  0  0  0
  2  7  1  0  0  0  0
  3  2  2  0  0  0  0
  4  5  2  0  0  0  0
  4  3  1  0  0  0  0
  5  6  1  0  0  0  0
  6  1  2  0  0  0  0
  8  5  1  0  0  0  0
  9 10  1  0  0  0  0
 10  3  1  0  0  0  0
 10 11  2  0  0  0  0
 11 19  1  0  0  0  0
 12 11  1  0  0  0  0
 12 13  1  0  0  0  0
 13 20  1  0  0  0  0
 14 21  1  0  0  0  0
 14 13  1  0  0  0  0
 15 16  1  0  0  0  0
 15 14  2  0  0  0  0
 16 12  2  0  0  0  0
 17  9  2  0  0  0  0
 17 16  1  0  0  0  0
 18  9  1  0  0  0  0
 22 17  1  0  0  0  0
 24 23  1  0  0  0  0
 24 28  1  0  0  0  0
 25 26  1  0  0  0  0
 25 24  2  0  0  0  0
 26 27  1  0  0  0  0
 27 28  2  0  0  0  0
 27 30  1  0  0  0  0
 29 25  1  0  0  0  0
 30 31  1  0  0  0  0
 31 32  2  0  0  0  0
 32 33  1  0  0  0  0
 34 32  1  0  0  0  0
 35 34  1  0  0  0  0
 36 30  2  0  0  0  0
 36 34  1  0  0  0  0
M  END
>  <minimizedAffinity>
-6.79118633

$$$$

 OpenBabel03252507393D

 36 40  0  0  0  0  0  0  0  0999 V2000
   36.7840   28.8390   41.7590 C   0  0  0  0  0  0  0  0  0  0  0  0
   36.6070   27.6580   41.0020 C   0  0  0  0  0  0  0  0  0  0  0  0
   37.2360   26.5130   41.4590 C   0  0  0  0  0  0  0  0  0  0  0  0
   37.9730   26.5790   42.5880 N   0  0  0  0  0  0  0  0  0  0  0  0
   38.1280   27.7240   43.2960 C   0  0  0  0  0  0  0  0  0  0  0  0
   37.5300   28.8340   42.8700 N   0  0  0  0  0  0  0  0  0  0  0  0
   36.0270   27.6000   40.1130 H   0  0  0  0  0  0  0  0  0  0  0  0
   38.7470   27.6460   44.1860 H   0  0  0  0  0  0  0  0  0  0  0  0
   36.3650   25.1090   39.6660 C   0  0  0  0  0  0  0  0  0  0  0  0
   37.1580   25.2170   40.8050 C   0  0  0  0  0  0  0  0  0  0  0  0
   37.8160   24.1010   41.2390 C   0  0  0  0  0  0  0  0  0  0  0  0
   37.7270   22.8810   40.6000 C   0  0  0  0  0  0  0  0  0  0  0  0
   38.2740   21.6720   40.8420 N   0  0  0  0  0  0  0  0  0  0  0  0
   37.8240   20.8100   39.8570 C   0  0  0  0  0  0  0  0  0  0  0  0
   37.0210   21.5020   39.0420 N   0  0  0  0  0  0  0  0  0  0  0  0
   36.9460   22.7720   39.4770 C   0  0  0  0  0  0  0  0  0  0  0  0
   36.2680   23.8840   39.0150 C   0  0  0  0  0  0  0  0  0  0  0  0
   35.8160   25.9410   39.2620 H   0  0  0  0  0  0  0  0  0  0  0  0
   38.4330   24.2010   42.1320 H   0  0  0  0  0  0  0  0  0  0  0  0
   38.9190   21.4320   41.6300 H   0  0  0  0  0  0  0  0  0  0  0  0
   38.1430   19.7770   39.8590 H   0  0  0  0  0  0  0  0  0  0  0  0
   35.6560   23.7610   38.1190 H   0  0  0  0  0  0  0  0  0  0  0  0
   36.1600   29.9930   41.3120 O   0  0  0  0  0  0  0  0  0  0  0  0
   36.8510   30.9580   40.6100 C   0  0  0  0  0  0  0  0  0  0  0  0
   36.4960   30.7450   39.3190 C   0  0  0  0  0  0  0  0  0  0  0  0
   37.4780   32.0960   38.4310 S   0  0  0  0  0  0  0  0  0  0  0  0
   38.1930   32.6870   40.0880 C   0  0  0  0  0  0  0  0  0  0  0  0
   37.6980   31.9660   40.7690 N   0  0  0  0  0  0  0  0  0  0  0  0
   35.9460   30.2000   38.5730 H   0  0  0  0  0  0  0  0  0  0  0  0
   39.1570   33.8120   40.3880 C   0  0  0  0  0  0  0  0  0  0  0  0
   38.8140   35.1320   40.3910 N   0  0  0  0  0  0  0  0  0  0  0  0
   39.9190   35.8290   40.6960 C   0  0  0  0  0  0  0  0  0  0  0  0
   40.0220   36.8990   40.7880 H   0  0  0  0  0  0  0  0  0  0  0  0
   40.9100   34.9380   40.8740 N   0  0  0  0  0  0  0  0  0  0  0  0
   41.9220   35.1110   41.1240 H   0  0  0  0  0  0  0  0  0  0  0  0
   40.4430   33.7040   40.6850 N   0  0  0  0  0  0  0  0  0  0  0  0
  1  6  1  0  0  0  0
  2  3  1  0  0  0  0
  2  1  2  0  0  0  0
  3  4  2  0  0  0  0
  4  5  1  0  0  0  0
  5  8  1  0  0  0  0
  6  5  2  0  0  0  0
  7  2  1  0  0  0  0
  9 10  1  0  0  0  0
 10 11  2  0  0  0  0
 10  3  1  0  0  0  0
 11 19  1  0  0  0  0
 12 13  1  0  0  0  0
 12 11  1  0  0  0  0
 13 20  1  0  0  0  0
 14 21  1  0  0  0  0
 14 13  1  0  0  0  0
 15 16  1  0  0  0  0
 15 14  2  0  0  0  0
 16 12  2  0  0  0  0
 17 16  1  0  0  0  0
 17  9  2  0  0  0  0
 18  9  1  0  0  0  0
 22 17  1  0  0  0  0
 23  1  1  0  0  0  0
 24 28  1  0  0  0  0
 24 23  1  0  0  0  0
 25 24  2  0  0  0  0
 26 25  1  0  0  0  0
 26 27  1  0  0  0  0
 27 30  1  0  0  0  0
 27 28  2  0  0  0  0
 29 25  1  0  0  0  0
 30 31  1  0  0  0  0
 30 36  2  0  0  0  0
 31 32  2  0  0  0  0
 32 33  1  0  0  0  0
 32 34  1  0  0  0  0
 34 35  1  0  0  0  0
 36 34  1  0  0  0  0
M  END
>  <minimizedAffinity>
-6.58620834

$$$$

 OpenBabel03252507393D

 36 40  0  0  0  0  0  0  0  0999 V2000
   37.5830   31.8020   40.0410 C   0  0  0  0  0  0  0  0  0  0  0  0
   37.6460   30.5860   40.7590 C   0  0  0  0  0  0  0  0  0  0  0  0
   37.2250   29.4410   40.1040 C   0  0  0  0  0  0  0  0  0  0  0  0
   36.7830   29.5410   38.8330 N   0  0  0  0  0  0  0  0  0  0  0  0
   36.7310   30.7200   38.1650 C   0  0  0  0  0  0  0  0  0  0  0  0
   37.1330   31.8300   38.7810 N   0  0  0  0  0  0  0  0  0  0  0  0
   37.9940   30.5010   41.7600 H   0  0  0  0  0  0  0  0  0  0  0  0
   36.3550   30.6670   37.1470 H   0  0  0  0  0  0  0  0  0  0  0  0
   36.9480   28.0020   42.0520 C   0  0  0  0  0  0  0  0  0  0  0  0
   37.2250   28.1120   40.6930 C   0  0  0  0  0  0  0  0  0  0  0  0
   37.4790   26.9670   39.9930 C   0  0  0  0  0  0  0  0  0  0  0  0
   37.4730   25.7140   40.5740 C   0  0  0  0  0  0  0  0  0  0  0  0
   37.6900   24.4740   40.0920 N   0  0  0  0  0  0  0  0  0  0  0  0
   37.5490   23.5900   41.1480 C   0  0  0  0  0  0  0  0  0  0  0  0
   37.2520   24.3010   42.2410 N   0  0  0  0  0  0  0  0  0  0  0  0
   37.2000   25.6030   41.9140 C   0  0  0  0  0  0  0  0  0  0  0  0
   36.9390   26.7450   42.6480 C   0  0  0  0  0  0  0  0  0  0  0  0
   36.7370   28.8560   42.6720 H   0  0  0  0  0  0  0  0  0  0  0  0
   37.6950   27.0680   38.9290 H   0  0  0  0  0  0  0  0  0  0  0  0
   37.9230   24.2270   39.1020 H   0  0  0  0  0  0  0  0  0  0  0  0
   37.6830   22.5290   40.9830 H   0  0  0  0  0  0  0  0  0  0  0  0
   36.7260   26.6190   43.7110 H   0  0  0  0  0  0  0  0  0  0  0  0
   38.0020   32.9560   40.6840 O   0  0  0  0  0  0  0  0  0  0  0  0
   39.0930   33.6710   40.2400 C   0  0  0  0  0  0  0  0  0  0  0  0
   38.8450   34.9400   40.6490 C   0  0  0  0  0  0  0  0  0  0  0  0
   40.3740   35.8490   40.0060 S   0  0  0  0  0  0  0  0  0  0  0  0
   41.0530   34.2270   39.2860 C   0  0  0  0  0  0  0  0  0  0  0  0
   40.2370   33.5380   39.5840 N   0  0  0  0  0  0  0  0  0  0  0  0
   38.2230   35.6630   41.1460 H   0  0  0  0  0  0  0  0  0  0  0  0
   42.3320   33.9580   38.5260 C   0  0  0  0  0  0  0  0  0  0  0  0
   43.3600   33.2010   39.0040 N   0  0  0  0  0  0  0  0  0  0  0  0
   44.3150   33.1880   38.0620 C   0  0  0  0  0  0  0  0  0  0  0  0
   45.2710   32.6880   38.0950 H   0  0  0  0  0  0  0  0  0  0  0  0
   43.8640   33.9270   37.0330 N   0  0  0  0  0  0  0  0  0  0  0  0
   44.3380   34.1450   36.1140 H   0  0  0  0  0  0  0  0  0  0  0  0
   42.6500   34.3990   37.3190 N   0  0  0  0  0  0  0  0  0  0  0  0
  1 23  1  0  0  0  0
  1  2  1  0  0  0  0
  2  7  1  0  0  0  0
  3 10  1  0  0  0  0
  3  2  2  0  0  0  0
  4  3  1  0  0  0  0
  5  6  1  0  0  0  0
  5  4  2  0  0  0  0
  6  1  2  0  0  0  0
  8  5  1  0  0  0  0
  9 17  1  0  0  0  0
  9 18  1  0  0  0  0
 10  9  2  0  0  0  0
 11 12  2  0  0  0  0
 11 10  1  0  0  0  0
 12 16  1  0  0  0  0
 13 12  1  0  0  0  0
 13 14  1  0  0  0  0
 14 15  2  0  0  0  0
 16 15  1  0  0  0  0
 16 17  2  0  0  0  0
 17 22  1  0  0  0  0
 19 11  1  0  0  0  0
 20 13  1  0  0  0  0
 21 14  1  0  0  0  0
 24 25  2  0  0  0  0
 24 23  1  0  0  0  0
 25 29  1  0  0  0  0
 26 25  1  0  0  0  0
 27 28  2  0  0  0  0
 27 26  1  0  0  0  0
 28 24  1  0  0  0  0
 30 31  1  0  0  0  0
 30 27  1  0  0  0  0
 32 33  1  0  0  0  0
 32 31  2  0  0  0  0
 34 36  1  0  0  0  0
 34 32  1  0  0  0  0
 35 34  1  0  0  0  0
 36 30  2  0  0  0  0
M  END
>  <minimizedAffinity>
-6.49724722

$$$$

 OpenBabel03252507393D

 36 40  0  0  0  0  0  0  0  0999 V2000
   37.2690   26.7810   42.4040 C   0  0  0  0  0  0  0  0  0  0  0  0
   38.5860   27.1180   42.7930 C   0  0  0  0  0  0  0  0  0  0  0  0
   39.5040   26.0850   42.8780 C   0  0  0  0  0  0  0  0  0  0  0  0
   39.1030   24.8290   42.5890 N   0  0  0  0  0  0  0  0  0  0  0  0
   37.8340   24.5320   42.2180 C   0  0  0  0  0  0  0  0  0  0  0  0
   36.9390   25.5130   42.1310 N   0  0  0  0  0  0  0  0  0  0  0  0
   38.9070   28.1050   43.0210 H   0  0  0  0  0  0  0  0  0  0  0  0
   37.6380   23.4830   42.0130 H   0  0  0  0  0  0  0  0  0  0  0  0
   41.2960   27.5020   43.7300 C   0  0  0  0  0  0  0  0  0  0  0  0
   40.8960   26.2550   43.2610 C   0  0  0  0  0  0  0  0  0  0  0  0
   41.8350   25.2640   43.1880 C   0  0  0  0  0  0  0  0  0  0  0  0
   43.1520   25.4490   43.5590 C   0  0  0  0  0  0  0  0  0  0  0  0
   44.2280   24.6360   43.5720 N   0  0  0  0  0  0  0  0  0  0  0  0
   45.2970   25.3740   44.0490 C   0  0  0  0  0  0  0  0  0  0  0  0
   44.8570   26.6090   44.3140 N   0  0  0  0  0  0  0  0  0  0  0  0
   43.5480   26.6790   44.0210 C   0  0  0  0  0  0  0  0  0  0  0  0
   42.6200   27.7000   44.1050 C   0  0  0  0  0  0  0  0  0  0  0  0
   40.6170   28.3330   43.8170 H   0  0  0  0  0  0  0  0  0  0  0  0
   41.5070   24.2920   42.8180 H   0  0  0  0  0  0  0  0  0  0  0  0
   44.2480   23.6330   43.2750 H   0  0  0  0  0  0  0  0  0  0  0  0
   46.2700   24.9120   44.1430 H   0  0  0  0  0  0  0  0  0  0  0  0
   42.9700   28.6640   44.4790 H   0  0  0  0  0  0  0  0  0  0  0  0
   36.3390   27.8050   42.3140 O   0  0  0  0  0  0  0  0  0  0  0  0
   36.5240   28.8720   41.4620 C   0  0  0  0  0  0  0  0  0  0  0  0
   35.8400   28.5240   40.3440 C   0  0  0  0  0  0  0  0  0  0  0  0
   36.1420   30.0260   39.2340 S   0  0  0  0  0  0  0  0  0  0  0  0
   37.1850   30.8410   40.5970 C   0  0  0  0  0  0  0  0  0  0  0  0
   37.1160   30.0560   41.3760 N   0  0  0  0  0  0  0  0  0  0  0  0
   35.2260   27.8320   39.7940 H   0  0  0  0  0  0  0  0  0  0  0  0
   37.9000   32.1730   40.6110 C   0  0  0  0  0  0  0  0  0  0  0  0
   37.4900   33.2680   39.9090 N   0  0  0  0  0  0  0  0  0  0  0  0
   38.3640   34.2530   40.1650 C   0  0  0  0  0  0  0  0  0  0  0  0
   38.3550   35.2620   39.7820 H   0  0  0  0  0  0  0  0  0  0  0  0
   39.2840   33.7550   41.0100 N   0  0  0  0  0  0  0  0  0  0  0  0
   40.1260   34.2330   41.4330 H   0  0  0  0  0  0  0  0  0  0  0  0
   38.9990   32.4810   41.2820 N   0  0  0  0  0  0  0  0  0  0  0  0
  1  2  1  0  0  0  0
  2  3  2  0  0  0  0
  2  7  1  0  0  0  0
  3 10  1  0  0  0  0
  4  3  1  0  0  0  0
  5  4  2  0  0  0  0
  6  5  1  0  0  0  0
  6  1  2  0  0  0  0
  8  5  1  0  0  0  0
  9 18  1  0  0  0  0
  9 17  1  0  0  0  0
 10  9  2  0  0  0  0
 11 10  1  0  0  0  0
 11 12  2  0  0  0  0
 12 13  1  0  0  0  0
 12 16  1  0  0  0  0
 13 14  1  0  0  0  0
 14 21  1  0  0  0  0
 14 15  2  0  0  0  0
 16 17  2  0  0  0  0
 16 15  1  0  0  0  0
 17 22  1  0  0  0  0
 19 11  1  0  0  0  0
 20 13  1  0  0  0  0
 23  1  1  0  0  0  0
 24 23  1  0  0  0  0
 25 24  2  0  0  0  0
 26 25  1  0  0  0  0
 26 27  1  0  0  0  0
 27 30  1  0  0  0  0
 27 28  2  0  0  0  0
 28 24  1  0  0  0  0
 29 25  1  0  0  0  0
 30 36  2  0  0  0  0
 31 32  2  0  0  0  0
 31 30  1  0  0  0  0
 32 34  1  0  0  0  0
 33 32  1  0  0  0  0
 34 36  1  0  0  0  0
 34 35  1  0  0  0  0
M  END
>  <minimizedAffinity>
-6.47486448

$$$$

 OpenBabel03252507393D

 36 40  0  0  0  0  0  0  0  0999 V2000
   36.9230   28.6470   42.0190 C   0  0  0  0  0  0  0  0  0  0  0  0
   37.6870   29.8260   41.8630 C   0  0  0  0  0  0  0  0  0  0  0  0
   37.2420   30.7500   40.9330 C   0  0  0  0  0  0  0  0  0  0  0  0
   36.1180   30.4840   40.2330 N   0  0  0  0  0  0  0  0  0  0  0  0
   35.4030   29.3440   40.4020 C   0  0  0  0  0  0  0  0  0  0  0  0
   35.8180   28.4460   41.2920 N   0  0  0  0  0  0  0  0  0  0  0  0
   38.5720   30.0410   42.4110 H   0  0  0  0  0  0  0  0  0  0  0  0
   34.5180   29.2490   39.7780 H   0  0  0  0  0  0  0  0  0  0  0  0
   37.1950   32.9740   39.9360 C   0  0  0  0  0  0  0  0  0  0  0  0
   37.9040   32.0120   40.6480 C   0  0  0  0  0  0  0  0  0  0  0  0
   39.1800   32.3110   41.0380 C   0  0  0  0  0  0  0  0  0  0  0  0
   39.7880   33.5170   40.7570 C   0  0  0  0  0  0  0  0  0  0  0  0
   41.0080   34.0210   41.0340 N   0  0  0  0  0  0  0  0  0  0  0  0
   41.0600   35.2950   40.4960 C   0  0  0  0  0  0  0  0  0  0  0  0
   39.8850   35.5410   39.9080 N   0  0  0  0  0  0  0  0  0  0  0  0
   39.0900   34.4680   40.0540 C   0  0  0  0  0  0  0  0  0  0  0  0
   37.7980   34.1940   39.6470 C   0  0  0  0  0  0  0  0  0  0  0  0
   36.1870   32.8150   39.5940 H   0  0  0  0  0  0  0  0  0  0  0  0
   39.7240   31.5470   41.5950 H   0  0  0  0  0  0  0  0  0  0  0  0
   41.7720   33.5360   41.5580 H   0  0  0  0  0  0  0  0  0  0  0  0
   41.9590   35.8870   40.6030 H   0  0  0  0  0  0  0  0  0  0  0  0
   37.2720   34.9720   39.0910 H   0  0  0  0  0  0  0  0  0  0  0  0
   37.3580   27.7130   42.9470 O   0  0  0  0  0  0  0  0  0  0  0  0
   37.8260   26.4770   42.5570 C   0  0  0  0  0  0  0  0  0  0  0  0
   39.0080   26.3500   43.2090 C   0  0  0  0  0  0  0  0  0  0  0  0
   39.5810   24.6450   42.6250 S   0  0  0  0  0  0  0  0  0  0  0  0
   38.0130   24.4640   41.5690 C   0  0  0  0  0  0  0  0  0  0  0  0
   37.5230   25.4310   41.7990 N   0  0  0  0  0  0  0  0  0  0  0  0
   39.7590   26.7340   43.8780 H   0  0  0  0  0  0  0  0  0  0  0  0
   37.5660   23.3300   40.6750 C   0  0  0  0  0  0  0  0  0  0  0  0
   38.2980   22.2020   40.4470 N   0  0  0  0  0  0  0  0  0  0  0  0
   37.5880   21.4310   39.6100 C   0  0  0  0  0  0  0  0  0  0  0  0
   37.8560   20.4640   39.2130 H   0  0  0  0  0  0  0  0  0  0  0  0
   36.4470   22.0880   39.3400 N   0  0  0  0  0  0  0  0  0  0  0  0
   35.6420   21.7960   38.7210 H   0  0  0  0  0  0  0  0  0  0  0  0
   36.4340   23.2510   39.9920 N   0  0  0  0  0  0  0  0  0  0  0  0
  1 23  1  0  0  0  0
  2  1  1  0  0  0  0
  2  7  1  0  0  0  0
  3  2  2  0  0  0  0
  4  5  2  0  0  0  0
  4  3  1  0  0  0  0
  5  6  1  0  0  0  0
  6  1  2  0  0  0  0
  8  5  1  0  0  0  0
  9 10  1  0  0  0  0
 10  3  1  0  0  0  0
 10 11  2  0  0  0  0
 11 19  1  0  0  0  0
 12 13  1  0  0  0  0
 12 11  1  0  0  0  0
 13 20  1  0  0  0  0
 14 21  1  0  0  0  0
 14 13  1  0  0  0  0
 15 16  1  0  0  0  0
 15 14  2  0  0  0  0
 16 12  2  0  0  0  0
 17  9  2  0  0  0  0
 17 16  1  0  0  0  0
 18  9  1  0  0  0  0
 22 17  1  0  0  0  0
 24 23  1  0  0  0  0
 24 25  2  0  0  0  0
 25 29  1  0  0  0  0
 26 25  1  0  0  0  0
 27 28  2  0  0  0  0
 27 26  1  0  0  0  0
 28 24  1  0  0  0  0
 30 27  1  0  0  0  0
 31 30  1  0  0  0  0
 32 31  2  0  0  0  0
 33 32  1  0  0  0  0
 34 32  1  0  0  0  0
 34 36  1  0  0  0  0
 35 34  1  0  0  0  0
 36 30  2  0  0  0  0
M  END
>  <minimizedAffinity>
-6.39624357

$$$$

 OpenBabel03252507393D

 36 40  0  0  0  0  0  0  0  0999 V2000
   37.3640   30.6390   40.0390 C   0  0  0  0  0  0  0  0  0  0  0  0
   38.4510   30.0940   40.7590 C   0  0  0  0  0  0  0  0  0  0  0  0
   38.1780   29.0390   41.6140 C   0  0  0  0  0  0  0  0  0  0  0  0
   36.9090   28.5900   41.7140 N   0  0  0  0  0  0  0  0  0  0  0  0
   35.8830   29.1310   41.0120 C   0  0  0  0  0  0  0  0  0  0  0  0
   36.1290   30.1460   40.1860 N   0  0  0  0  0  0  0  0  0  0  0  0
   39.4530   30.4430   40.6840 H   0  0  0  0  0  0  0  0  0  0  0  0
   34.9090   28.6800   41.1820 H   0  0  0  0  0  0  0  0  0  0  0  0
   38.7710   27.2600   43.1720 C   0  0  0  0  0  0  0  0  0  0  0  0
   39.1760   28.3620   42.4260 C   0  0  0  0  0  0  0  0  0  0  0  0
   40.4870   28.7420   42.5000 C   0  0  0  0  0  0  0  0  0  0  0  0
   41.4170   28.0820   43.2780 C   0  0  0  0  0  0  0  0  0  0  0  0
   42.7340   28.2730   43.5010 N   0  0  0  0  0  0  0  0  0  0  0  0
   43.1490   27.2930   44.3840 C   0  0  0  0  0  0  0  0  0  0  0  0
   42.0900   26.5310   44.6800 N   0  0  0  0  0  0  0  0  0  0  0  0
   41.0190   26.9950   44.0150 C   0  0  0  0  0  0  0  0  0  0  0  0
   39.6990   26.5880   43.9600 C   0  0  0  0  0  0  0  0  0  0  0  0
   37.7570   26.8990   43.1680 H   0  0  0  0  0  0  0  0  0  0  0  0
   40.7910   29.6080   41.9100 H   0  0  0  0  0  0  0  0  0  0  0  0
   43.3280   29.0250   43.0820 H   0  0  0  0  0  0  0  0  0  0  0  0
   44.1820   27.2590   44.7030 H   0  0  0  0  0  0  0  0  0  0  0  0
   39.4180   25.7200   44.5590 H   0  0  0  0  0  0  0  0  0  0  0  0
   37.6220   31.6960   39.1800 O   0  0  0  0  0  0  0  0  0  0  0  0
   38.4870   32.7100   39.5280 C   0  0  0  0  0  0  0  0  0  0  0  0
   37.6720   33.7410   39.8600 C   0  0  0  0  0  0  0  0  0  0  0  0
   38.9250   35.0810   40.3200 S   0  0  0  0  0  0  0  0  0  0  0  0
   40.3570   33.8910   39.9440 C   0  0  0  0  0  0  0  0  0  0  0  0
   39.7770   32.9970   39.6400 N   0  0  0  0  0  0  0  0  0  0  0  0
   36.6880   34.1600   39.9860 H   0  0  0  0  0  0  0  0  0  0  0  0
   41.8510   34.1050   40.0340 C   0  0  0  0  0  0  0  0  0  0  0  0
   42.5390   34.2110   41.2070 N   0  0  0  0  0  0  0  0  0  0  0  0
   43.8310   34.3950   40.8940 C   0  0  0  0  0  0  0  0  0  0  0  0
   44.6640   34.5180   41.5690 H   0  0  0  0  0  0  0  0  0  0  0  0
   43.9150   34.3980   39.5520 N   0  0  0  0  0  0  0  0  0  0  0  0
   44.7680   34.5170   38.9400 H   0  0  0  0  0  0  0  0  0  0  0  0
   42.7020   34.2220   39.0270 N   0  0  0  0  0  0  0  0  0  0  0  0
  1  6  2  0  0  0  0
  1  2  1  0  0  0  0
  2  3  2  0  0  0  0
  3  4  1  0  0  0  0
  3 10  1  0  0  0  0
  5  8  1  0  0  0  0
  5  4  2  0  0  0  0
  6  5  1  0  0  0  0
  7  2  1  0  0  0  0
  9 17  1  0  0  0  0
 10 11  1  0  0  0  0
 10  9  2  0  0  0  0
 11 12  2  0  0  0  0
 12 13  1  0  0  0  0
 12 16  1  0  0  0  0
 13 14  1  0  0  0  0
 14 15  2  0  0  0  0
 14 21  1  0  0  0  0
 16 15  1  0  0  0  0
 17 16  2  0  0  0  0
 17 22  1  0  0  0  0
 18  9  1  0  0  0  0
 19 11  1  0  0  0  0
 20 13  1  0  0  0  0
 23 24  1  0  0  0  0
 23  1  1  0  0  0  0
 24 28  1  0  0  0  0
 24 25  2  0  0  0  0
 25 29  1  0  0  0  0
 25 26  1  0  0  0  0
 27 30  1  0  0  0  0
 27 26  1  0  0  0  0
 28 27  2  0  0  0  0
 30 31  1  0  0  0  0
 32 31  2  0  0  0  0
 32 33  1  0  0  0  0
 34 32  1  0  0  0  0
 35 34  1  0  0  0  0
 36 34  1  0  0  0  0
 36 30  2  0  0  0  0
M  END
>  <minimizedAffinity>
-6.13157797

$$$$

 OpenBabel03252507393D

 36 40  0  0  0  0  0  0  0  0999 V2000
   37.7610   31.7600   40.3310 C   0  0  0  0  0  0  0  0  0  0  0  0
   36.9150   31.4310   39.2480 C   0  0  0  0  0  0  0  0  0  0  0  0
   36.7230   30.0860   38.9810 C   0  0  0  0  0  0  0  0  0  0  0  0
   37.3430   29.1710   39.7560 N   0  0  0  0  0  0  0  0  0  0  0  0
   38.1510   29.5120   40.7900 C   0  0  0  0  0  0  0  0  0  0  0  0
   38.3460   30.8010   41.0600 N   0  0  0  0  0  0  0  0  0  0  0  0
   36.4240   32.1470   38.6350 H   0  0  0  0  0  0  0  0  0  0  0  0
   38.5910   28.6820   41.3360 H   0  0  0  0  0  0  0  0  0  0  0  0
   36.3610   29.6750   36.6060 C   0  0  0  0  0  0  0  0  0  0  0  0
   35.8850   29.5740   37.9090 C   0  0  0  0  0  0  0  0  0  0  0  0
   34.6610   28.9990   38.1040 C   0  0  0  0  0  0  0  0  0  0  0  0
   33.8830   28.5190   37.0700 C   0  0  0  0  0  0  0  0  0  0  0  0
   32.6720   27.9270   37.0250 N   0  0  0  0  0  0  0  0  0  0  0  0
   32.3920   27.6590   35.6970 C   0  0  0  0  0  0  0  0  0  0  0  0
   33.4260   28.0880   34.9650 N   0  0  0  0  0  0  0  0  0  0  0  0
   34.3510   28.6180   35.7830 C   0  0  0  0  0  0  0  0  0  0  0  0
   35.5850   29.1950   35.5550 C   0  0  0  0  0  0  0  0  0  0  0  0
   37.3150   30.1140   36.3690 H   0  0  0  0  0  0  0  0  0  0  0  0
   34.3010   28.9270   39.1310 H   0  0  0  0  0  0  0  0  0  0  0  0
   32.0590   27.7120   37.8450 H   0  0  0  0  0  0  0  0  0  0  0  0
   31.4600   27.1800   35.4300 H   0  0  0  0  0  0  0  0  0  0  0  0
   35.9260   29.2570   34.5200 H   0  0  0  0  0  0  0  0  0  0  0  0
   37.9630   33.1030   40.6100 O   0  0  0  0  0  0  0  0  0  0  0  0
   39.1020   33.7590   40.1980 C   0  0  0  0  0  0  0  0  0  0  0  0
   38.9470   35.0200   40.6730 C   0  0  0  0  0  0  0  0  0  0  0  0
   40.5370   35.8480   40.0690 S   0  0  0  0  0  0  0  0  0  0  0  0
   41.0960   34.2220   39.2630 C   0  0  0  0  0  0  0  0  0  0  0  0
   40.2330   33.5790   39.5300 N   0  0  0  0  0  0  0  0  0  0  0  0
   38.3790   35.7600   41.2100 H   0  0  0  0  0  0  0  0  0  0  0  0
   42.3510   33.9010   38.4840 C   0  0  0  0  0  0  0  0  0  0  0  0
   43.3220   33.0480   38.9170 N   0  0  0  0  0  0  0  0  0  0  0  0
   44.2730   33.0150   37.9700 C   0  0  0  0  0  0  0  0  0  0  0  0
   45.1900   32.4460   37.9730 H   0  0  0  0  0  0  0  0  0  0  0  0
   43.8750   33.8370   36.9840 N   0  0  0  0  0  0  0  0  0  0  0  0
   44.3620   34.0690   36.0750 H   0  0  0  0  0  0  0  0  0  0  0  0
   42.6990   34.3800   37.2990 N   0  0  0  0  0  0  0  0  0  0  0  0
  1 23  1  0  0  0  0
  1  6  1  0  0  0  0
  2  1  2  0  0  0  0
  3  2  1  0  0  0  0
  3  4  2  0  0  0  0
  4  5  1  0  0  0  0
  5  6  2  0  0  0  0
  5  8  1  0  0  0  0
  7  2  1  0  0  0  0
  9 10  1  0  0  0  0
 10 11  2  0  0  0  0
 10  3  1  0  0  0  0
 11 19  1  0  0  0  0
 12 11  1  0  0  0  0
 13 12  1  0  0  0  0
 13 20  1  0  0  0  0
 14 13  1  0  0  0  0
 15 14  2  0  0  0  0
 15 16  1  0  0  0  0
 16 12  2  0  0  0  0
 17 16  1  0  0  0  0
 17  9  2  0  0  0  0
 18  9  1  0  0  0  0
 21 14  1  0  0  0  0
 22 17  1  0  0  0  0
 24 23  1  0  0  0  0
 24 25  2  0  0  0  0
 25 29  1  0  0  0  0
 26 25  1  0  0  0  0
 27 28  2  0  0  0  0
 27 26  1  0  0  0  0
 28 24  1  0  0  0  0
 30 31  1  0  0  0  0
 30 27  1  0  0  0  0
 32 33  1  0  0  0  0
 32 31  2  0  0  0  0
 34 36  1  0  0  0  0
 34 32  1  0  0  0  0
 35 34  1  0  0  0  0
 36 30  2  0  0  0  0
M  END
>  <minimizedAffinity>
-6.11760569

$$$$

 OpenBabel03252507393D

 36 40  0  0  0  0  0  0  0  0999 V2000
   37.9710   29.5860   42.3900 C   0  0  0  0  0  0  0  0  0  0  0  0
   38.9610   30.4430   41.8590 C   0  0  0  0  0  0  0  0  0  0  0  0
   38.5570   31.3590   40.9020 C   0  0  0  0  0  0  0  0  0  0  0  0
   37.2590   31.3880   40.5310 N   0  0  0  0  0  0  0  0  0  0  0  0
   36.3290   30.5540   41.0570 C   0  0  0  0  0  0  0  0  0  0  0  0
   36.7010   29.6670   41.9770 N   0  0  0  0  0  0  0  0  0  0  0  0
   39.9840   30.4250   42.1470 H   0  0  0  0  0  0  0  0  0  0  0  0
   35.3190   30.6770   40.6740 H   0  0  0  0  0  0  0  0  0  0  0  0
   39.4780   33.6120   40.7550 C   0  0  0  0  0  0  0  0  0  0  0  0
   39.4420   32.3140   40.2550 C   0  0  0  0  0  0  0  0  0  0  0  0
   40.2410   32.0140   39.1880 C   0  0  0  0  0  0  0  0  0  0  0  0
   41.0750   32.9370   38.5910 C   0  0  0  0  0  0  0  0  0  0  0  0
   41.9330   32.8690   37.5520 N   0  0  0  0  0  0  0  0  0  0  0  0
   42.5020   34.1210   37.4030 C   0  0  0  0  0  0  0  0  0  0  0  0
   41.9870   34.9210   38.3440 N   0  0  0  0  0  0  0  0  0  0  0  0
   41.1110   34.2180   39.0820 C   0  0  0  0  0  0  0  0  0  0  0  0
   40.3140   34.5510   40.1610 C   0  0  0  0  0  0  0  0  0  0  0  0
   38.8790   33.9270   41.5920 H   0  0  0  0  0  0  0  0  0  0  0  0
   40.2040   30.9920   38.8070 H   0  0  0  0  0  0  0  0  0  0  0  0
   42.1290   32.0230   36.9680 H   0  0  0  0  0  0  0  0  0  0  0  0
   43.2270   34.2930   36.6200 H   0  0  0  0  0  0  0  0  0  0  0  0
   40.3680   35.5790   40.5260 H   0  0  0  0  0  0  0  0  0  0  0  0
   38.3610   28.6630   43.3480 O   0  0  0  0  0  0  0  0  0  0  0  0
   38.5840   27.3420   43.0260 C   0  0  0  0  0  0  0  0  0  0  0  0
   39.6820   27.0060   43.7470 C   0  0  0  0  0  0  0  0  0  0  0  0
   39.9200   25.1960   43.2510 S   0  0  0  0  0  0  0  0  0  0  0  0
   38.4000   25.2920   42.1160 C   0  0  0  0  0  0  0  0  0  0  0  0
   38.1090   26.3480   42.2870 N   0  0  0  0  0  0  0  0  0  0  0  0
   40.4630   27.2580   44.4430 H   0  0  0  0  0  0  0  0  0  0  0  0
   37.7730   24.2350   41.2360 C   0  0  0  0  0  0  0  0  0  0  0  0
   38.4550   23.1840   40.7000 N   0  0  0  0  0  0  0  0  0  0  0  0
   37.5780   22.4650   39.9830 C   0  0  0  0  0  0  0  0  0  0  0  0
   37.7650   21.5630   39.4200 H   0  0  0  0  0  0  0  0  0  0  0  0
   36.3860   23.0770   40.0900 N   0  0  0  0  0  0  0  0  0  0  0  0
   35.4580   22.8050   39.6630 H   0  0  0  0  0  0  0  0  0  0  0  0
   36.5060   24.1620   40.8560 N   0  0  0  0  0  0  0  0  0  0  0  0
  1 23  1  0  0  0  0
  2  7  1  0  0  0  0
  2  1  2  0  0  0  0
  3  2  1  0  0  0  0
  4  3  2  0  0  0  0
  4  5  1  0  0  0  0
  5  6  2  0  0  0  0
  6  1  1  0  0  0  0
  8  5  1  0  0  0  0
  9 18  1  0  0  0  0
 10  9  1  0  0  0  0
 10  3  1  0  0  0  0
 11 10  2  0  0  0  0
 12 16  2  0  0  0  0
 12 11  1  0  0  0  0
 13 12  1  0  0  0  0
 14 13  1  0  0  0  0
 14 15  2  0  0  0  0
 15 16  1  0  0  0  0
 16 17  1  0  0  0  0
 17 22  1  0  0  0  0
 17  9  2  0  0  0  0
 19 11  1  0  0  0  0
 20 13  1  0  0  0  0
 21 14  1  0  0  0  0
 24 23  1  0  0  0  0
 24 25  2  0  0  0  0
 25 29  1  0  0  0  0
 26 25  1  0  0  0  0
 27 28  2  0  0  0  0
 27 26  1  0  0  0  0
 28 24  1  0  0  0  0
 30 27  1  0  0  0  0
 31 30  1  0  0  0  0
 32 34  1  0  0  0  0
 32 31  2  0  0  0  0
 33 32  1  0  0  0  0
 34 36  1  0  0  0  0
 35 34  1  0  0  0  0
 36 30  2  0  0  0  0
M  END
>  <minimizedAffinity>
-6.06382036

$$$$

 OpenBabel03252507393D

 36 40  0  0  0  0  0  0  0  0999 V2000
   37.3940   28.6830   41.6330 C   0  0  0  0  0  0  0  0  0  0  0  0
   38.7940   28.4990   41.6970 C   0  0  0  0  0  0  0  0  0  0  0  0
   39.2920   27.8130   42.7920 C   0  0  0  0  0  0  0  0  0  0  0  0
   38.4310   27.3600   43.7270 N   0  0  0  0  0  0  0  0  0  0  0  0
   37.0910   27.5510   43.6430 C   0  0  0  0  0  0  0  0  0  0  0  0
   36.5960   28.2080   42.5970 N   0  0  0  0  0  0  0  0  0  0  0  0
   39.4770   28.8520   40.9630 H   0  0  0  0  0  0  0  0  0  0  0  0
   36.5070   27.1380   44.4610 H   0  0  0  0  0  0  0  0  0  0  0  0
   41.5740   28.6150   43.0990 C   0  0  0  0  0  0  0  0  0  0  0  0
   40.7020   27.5350   43.0130 C   0  0  0  0  0  0  0  0  0  0  0  0
   41.2220   26.2770   43.1420 C   0  0  0  0  0  0  0  0  0  0  0  0
   42.5650   26.0380   43.3530 C   0  0  0  0  0  0  0  0  0  0  0  0
   43.2860   24.9090   43.5070 N   0  0  0  0  0  0  0  0  0  0  0  0
   44.6060   25.2840   43.6890 C   0  0  0  0  0  0  0  0  0  0  0  0
   44.6630   26.6190   43.6430 N   0  0  0  0  0  0  0  0  0  0  0  0
   43.4260   27.1030   43.4380 C   0  0  0  0  0  0  0  0  0  0  0  0
   42.9290   28.3860   43.3100 C   0  0  0  0  0  0  0  0  0  0  0  0
   41.2430   29.6350   43.0080 H   0  0  0  0  0  0  0  0  0  0  0  0
   40.5270   25.4400   43.0720 H   0  0  0  0  0  0  0  0  0  0  0  0
   42.9150   23.9310   43.4900 H   0  0  0  0  0  0  0  0  0  0  0  0
   45.3650   24.5270   43.8330 H   0  0  0  0  0  0  0  0  0  0  0  0
   43.6430   29.2090   43.3840 H   0  0  0  0  0  0  0  0  0  0  0  0
   36.8810   29.3680   40.5430 O   0  0  0  0  0  0  0  0  0  0  0  0
   37.5700   30.4090   39.9590 C   0  0  0  0  0  0  0  0  0  0  0  0
   37.6160   30.0780   38.6450 C   0  0  0  0  0  0  0  0  0  0  0  0
   38.5700   31.5420   37.9210 S   0  0  0  0  0  0  0  0  0  0  0  0
   38.7050   32.3260   39.6460 C   0  0  0  0  0  0  0  0  0  0  0  0
   38.1680   31.5590   40.2390 N   0  0  0  0  0  0  0  0  0  0  0  0
   37.3830   29.4100   37.8340 H   0  0  0  0  0  0  0  0  0  0  0  0
   39.3570   33.6190   40.0800 C   0  0  0  0  0  0  0  0  0  0  0  0
   40.5780   34.0430   39.6450 N   0  0  0  0  0  0  0  0  0  0  0  0
   40.8250   35.2200   40.2410 C   0  0  0  0  0  0  0  0  0  0  0  0
   41.6970   35.8460   40.1320 H   0  0  0  0  0  0  0  0  0  0  0  0
   39.7660   35.4960   41.0220 N   0  0  0  0  0  0  0  0  0  0  0  0
   39.5990   36.3340   41.6430 H   0  0  0  0  0  0  0  0  0  0  0  0
   38.8680   34.5150   40.9230 N   0  0  0  0  0  0  0  0  0  0  0  0
  1  2  2  0  0  0  0
  1  6  1  0  0  0  0
  2  3  1  0  0  0  0
  3 10  1  0  0  0  0
  3  4  2  0  0  0  0
  5  4  1  0  0  0  0
  5  8  1  0  0  0  0
  6  5  2  0  0  0  0
  7  2  1  0  0  0  0
  9 17  1  0  0  0  0
 10  9  2  0  0  0  0
 10 11  1  0  0  0  0
 11 12  2  0  0  0  0
 12 16  1  0  0  0  0
 12 13  1  0  0  0  0
 13 14  1  0  0  0  0
 14 21  1  0  0  0  0
 15 14  2  0  0  0  0
 16 15  1  0  0  0  0
 17 22  1  0  0  0  0
 17 16  2  0  0  0  0
 18  9  1  0  0  0  0
 19 11  1  0  0  0  0
 20 13  1  0  0  0  0
 23  1  1  0  0  0  0
 24 28  1  0  0  0  0
 24 23  1  0  0  0  0
 25 24  2  0  0  0  0
 26 25  1  0  0  0  0
 26 27  1  0  0  0  0
 27 30  1  0  0  0  0
 27 28  2  0  0  0  0
 29 25  1  0  0  0  0
 30 36  2  0  0  0  0
 31 30  1  0  0  0  0
 31 32  2  0  0  0  0
 32 34  1  0  0  0  0
 33 32  1  0  0  0  0
 34 35  1  0  0  0  0
 36 34  1  0  0  0  0
M  END
>  <minimizedAffinity>
-6.04385948

$$$$
