
 OpenBabel03252509033D

 46 48  0  0  1  0  0  0  0  0999 V2000
   46.9500   34.3480   43.3510 N   0  0  0  0  0  0  0  0  0  0  0  0
   46.5030   35.5340   42.7190 C   0  0  0  0  0  0  0  0  0  0  0  0
   45.0240   35.7930   42.8390 C   0  0  0  0  0  0  0  0  0  0  0  0
   44.4020   35.3140   44.1310 C   0  0  0  0  0  0  0  0  0  0  0  0
   45.4490   34.7530   45.0670 C   0  0  0  0  0  0  0  0  0  0  0  0
   46.1330   33.6320   44.2050 C   0  0  2  0  0  0  0  0  0  0  0  0
   46.9880   36.3950   43.2610 H   0  0  0  0  0  0  0  0  0  0  0  0
   46.7760   35.6630   41.6700 H   0  0  0  0  0  0  0  0  0  0  0  0
   44.8220   36.8730   42.6580 H   0  0  0  0  0  0  0  0  0  0  0  0
   44.5440   35.2490   41.9880 H   0  0  0  0  0  0  0  0  0  0  0  0
   43.9170   36.2040   44.6220 H   0  0  0  0  0  0  0  0  0  0  0  0
   43.6240   34.5700   43.9710 H   0  0  0  0  0  0  0  0  0  0  0  0
   46.2200   35.4810   45.3340 H   0  0  0  0  0  0  0  0  0  0  0  0
   44.9340   34.2670   45.9130 H   0  0  0  0  0  0  0  0  0  0  0  0
   45.2870   33.0590   43.7750 H   0  0  0  0  0  0  0  0  0  0  0  0
   47.9670   33.6380   42.6160 C   0  0  0  0  0  0  0  0  0  0  0  0
   48.6860   34.3470   42.1680 H   0  0  0  0  0  0  0  0  0  0  0  0
   48.5320   33.0460   43.3920 H   0  0  0  0  0  0  0  0  0  0  0  0
   47.3200   32.7110   41.6580 C   0  0  0  0  0  0  0  0  0  0  0  0
   47.4270   31.6600   41.9610 H   0  0  0  0  0  0  0  0  0  0  0  0
   46.2070   32.8760   41.5860 H   0  0  0  0  0  0  0  0  0  0  0  0
   49.2680   32.1660   38.4930 C   0  0  0  0  0  0  0  0  0  0  0  0
   48.7310   31.9830   39.7800 C   0  0  0  0  0  0  0  0  0  0  0  0
   47.8800   32.9160   40.3000 C   0  0  0  0  0  0  0  0  0  0  0  0
   47.5940   33.9830   39.5410 N   0  0  0  0  0  0  0  0  0  0  0  0
   48.1060   34.1600   38.3120 C   0  0  0  0  0  0  0  0  0  0  0  0
   48.9430   33.2620   37.7740 N   0  0  0  0  0  0  0  0  0  0  0  0
   49.9380   31.3480   38.1840 H   0  0  0  0  0  0  0  0  0  0  0  0
   48.9750   31.1100   40.3790 H   0  0  0  0  0  0  0  0  0  0  0  0
   47.8800   35.0270   37.6840 H   0  0  0  0  0  0  0  0  0  0  0  0
   46.8490   32.9470   45.1730 O   0  0  0  0  0  0  0  0  0  0  0  0
   45.4480   30.8860   44.2610 O   0  0  0  0  0  0  0  0  0  0  0  0
   46.2430   31.3970   45.4590 P   0  0  2  0  0  0  0  0  0  0  0  0
   45.1300   31.5410   46.7370 O   0  0  0  0  0  0  0  0  0  0  0  0
   44.3140   32.0130   46.4660 H   0  0  0  0  0  0  0  0  0  0  0  0
   47.4360   30.3210   45.9160 O   0  0  0  0  0  0  0  0  0  0  0  0
   47.1670   29.0710   45.3990 C   0  0  0  0  0  0  0  0  0  0  0  0
   48.1080   28.5330   45.2560 H   0  0  0  0  0  0  0  0  0  0  0  0
   46.7740   29.2470   44.3550 H   0  0  0  0  0  0  0  0  0  0  0  0
   46.1580   28.2980   46.1530 C   0  0  0  0  0  0  0  0  0  0  0  0
   45.9880   28.5040   47.4800 N   0  0  0  0  0  0  0  0  0  0  0  0
   45.0180   27.6880   47.9530 C   0  0  0  0  0  0  0  0  0  0  0  0
   44.7210   27.6950   49.0100 H   0  0  0  0  0  0  0  0  0  0  0  0
   44.5840   26.9640   46.8920 N   0  0  0  0  0  0  0  0  0  0  0  0
   43.8290   26.2480   46.9720 H   0  0  0  0  0  0  0  0  0  0  0  0
   45.2720   27.3420   45.8400 N   0  0  0  0  0  0  0  0  0  0  0  0
  1  6  1  0  0  0  0
  2  3  1  0  0  0  0
  2  7  1  0  0  0  0
  2  1  1  0  0  0  0
  3  4  1  0  0  0  0
  4 11  1  0  0  0  0
  4  5  1  0  0  0  0
  5 13  1  0  0  0  0
  5 14  1  0  0  0  0
  6 15  1  6  0  0  0
  6  5  1  0  0  0  0
  6 31  1  0  0  0  0
  8  2  1  0  0  0  0
  9  3  1  0  0  0  0
 10  3  1  0  0  0  0
 12  4  1  0  0  0  0
 16  1  1  0  0  0  0
 16 18  1  0  0  0  0
 17 16  1  0  0  0  0
 19 20  1  0  0  0  0
 19 16  1  0  0  0  0
 21 19  1  0  0  0  0
 22 23  1  0  0  0  0
 23 24  2  0  0  0  0
 23 29  1  0  0  0  0
 24 19  1  0  0  0  0
 25 24  1  0  0  0  0
 26 25  2  0  0  0  0
 27 26  1  0  0  0  0
 27 22  2  0  0  0  0
 28 22  1  0  0  0  0
 30 26  1  0  0  0  0
 31 33  1  0  0  0  0
 33 32  2  6  0  0  0
 33 36  1  0  0  0  0
 33 34  1  0  0  0  0
 35 34  1  0  0  0  0
 37 36  1  0  0  0  0
 37 40  1  0  0  0  0
 38 37  1  0  0  0  0
 39 37  1  0  0  0  0
 40 41  1  0  0  0  0
 41 42  2  0  0  0  0
 42 43  1  0  0  0  0
 44 45  1  0  0  0  0
 44 42  1  0  0  0  0
 46 40  2  0  0  0  0
 46 44  1  0  0  0  0
M  END
>  <minimizedAffinity>
-3.97335172

>  <minimizedRMSD>
0.739564121

$$$$
