
 OpenBabel03242511573D

 39 42  0  0  1  0  0  0  0  0999 V2000
   47.1360   34.0670   42.4770 C   0  0  2  0  0  0  0  0  0  0  0  0
   48.5040   34.6300   42.6050 C   0  0  0  0  0  0  0  0  0  0  0  0
   48.8330   35.6180   41.5420 C   0  0  0  0  0  0  0  0  0  0  0  0
   48.6270   35.1010   40.1510 C   0  0  0  0  0  0  0  0  0  0  0  0
   47.4040   34.2210   40.0060 C   0  0  0  0  0  0  0  0  0  0  0  0
   46.4590   34.3710   41.1710 C   0  0  1  0  0  0  0  0  0  0  0  0
   47.2010   32.9390   42.5710 H   0  0  0  0  0  0  0  0  0  0  0  0
   48.6410   35.1130   43.5880 H   0  0  0  0  0  0  0  0  0  0  0  0
   49.2550   33.8150   42.5410 H   0  0  0  0  0  0  0  0  0  0  0  0
   48.2680   36.5560   41.7410 H   0  0  0  0  0  0  0  0  0  0  0  0
   49.9130   35.8750   41.6490 H   0  0  0  0  0  0  0  0  0  0  0  0
   49.5370   34.6510   39.6960 H   0  0  0  0  0  0  0  0  0  0  0  0
   48.4330   36.0120   39.5150 H   0  0  0  0  0  0  0  0  0  0  0  0
   47.7720   33.1710   40.0340 H   0  0  0  0  0  0  0  0  0  0  0  0
   46.8210   34.4260   39.0990 H   0  0  0  0  0  0  0  0  0  0  0  0
   46.0250   35.3800   41.0910 H   0  0  0  0  0  0  0  0  0  0  0  0
   46.2440   34.4790   43.5820 C   0  0  0  0  0  0  0  0  0  0  0  0
   45.5740   35.6840   43.3680 C   0  0  0  0  0  0  0  0  0  0  0  0
   44.6930   36.1830   44.3400 C   0  0  0  0  0  0  0  0  0  0  0  0
   44.5570   35.4040   45.4810 N   0  0  0  0  0  0  0  0  0  0  0  0
   45.2220   34.2480   45.6520 C   0  0  0  0  0  0  0  0  0  0  0  0
   46.0620   33.7930   44.6980 N   0  0  0  0  0  0  0  0  0  0  0  0
   45.5690   36.4060   42.5670 H   0  0  0  0  0  0  0  0  0  0  0  0
   44.1120   37.0680   44.3360 H   0  0  0  0  0  0  0  0  0  0  0  0
   45.1120   33.6560   46.5300 H   0  0  0  0  0  0  0  0  0  0  0  0
   45.3700   33.3450   40.9820 C   0  0  2  0  0  0  0  0  0  0  0  0
   44.6250   33.3300   39.6630 C   0  0  0  0  0  0  0  0  0  0  0  0
   43.9420   33.7150   40.9220 C   0  0  1  0  0  0  0  0  0  0  0  0
   45.6600   32.3510   41.3870 H   0  0  0  0  0  0  0  0  0  0  0  0
   44.4480   32.3370   39.2120 H   0  0  0  0  0  0  0  0  0  0  0  0
   44.8730   34.0990   38.8930 H   0  0  0  0  0  0  0  0  0  0  0  0
   43.6360   34.7740   40.9950 H   0  0  0  0  0  0  0  0  0  0  0  0
   43.0130   32.7170   41.5160 C   0  0  0  0  0  0  0  0  0  0  0  0
   41.6950   32.5330   41.2560 N   0  0  0  0  0  0  0  0  0  0  0  0
   41.2190   31.5210   42.0110 C   0  0  0  0  0  0  0  0  0  0  0  0
   40.1980   31.1350   42.0280 H   0  0  0  0  0  0  0  0  0  0  0  0
   42.2480   31.0600   42.7570 N   0  0  0  0  0  0  0  0  0  0  0  0
   42.2540   30.2730   43.4660 H   0  0  0  0  0  0  0  0  0  0  0  0
   43.3320   31.7820   42.4590 N   0  0  0  0  0  0  0  0  0  0  0  0
  1  7  1  1  0  0  0
  1  2  1  0  0  0  0
  1 17  1  0  0  0  0
  2  8  1  0  0  0  0
  3 11  1  0  0  0  0
  3 10  1  0  0  0  0
  3  2  1  0  0  0  0
  4  3  1  0  0  0  0
  5 14  1  0  0  0  0
  5  4  1  0  0  0  0
  5  6  1  0  0  0  0
  6 16  1  1  0  0  0
  6  1  1  0  0  0  0
  9  2  1  0  0  0  0
 12  4  1  0  0  0  0
 13  4  1  0  0  0  0
 15  5  1  0  0  0  0
 17 22  1  0  0  0  0
 18 17  2  0  0  0  0
 18 19  1  0  0  0  0
 19 20  2  0  0  0  0
 20 21  1  0  0  0  0
 21 25  1  0  0  0  0
 22 21  2  0  0  0  0
 23 18  1  0  0  0  0
 24 19  1  0  0  0  0
 26  6  1  0  0  0  0
 26 29  1  1  0  0  0
 27 28  1  0  0  0  0
 27 26  1  0  0  0  0
 28 26  1  0  0  0  0
 28 32  1  1  0  0  0
 28 33  1  0  0  0  0
 30 27  1  0  0  0  0
 31 27  1  0  0  0  0
 33 39  2  0  0  0  0
 34 33  1  0  0  0  0
 34 35  2  0  0  0  0
 35 36  1  0  0  0  0
 35 37  1  0  0  0  0
 37 38  1  0  0  0  0
 39 37  1  0  0  0  0
M  END
>  <minimizedAffinity>
-6.12080526

>  <minimizedRMSD>
0.504388034

$$$$
