
 OpenBabel03242519453D

 30 32  0  0  1  0  0  0  0  0999 V2000
   47.4650   32.1000   44.7130 C   0  0  2  0  0  0  0  0  0  0  0  0
   46.3490   32.4190   43.7780 C   0  0  1  0  0  0  0  0  0  0  0  0
   45.3510   31.4120   44.0800 O   0  0  0  0  0  0  0  0  0  0  0  0
   46.2060   30.2820   43.8900 C   0  0  0  0  0  0  0  0  0  0  0  0
   47.2690   30.5850   44.9290 C   0  0  2  0  0  0  0  0  0  0  0  0
   48.4650   32.3030   44.2860 H   0  0  0  0  0  0  0  0  0  0  0  0
   46.6250   32.2240   42.7170 H   0  0  0  0  0  0  0  0  0  0  0  0
   45.6700   29.3420   44.1050 H   0  0  0  0  0  0  0  0  0  0  0  0
   46.6180   30.3690   42.8820 H   0  0  0  0  0  0  0  0  0  0  0  0
   48.2200   30.0690   44.7280 H   0  0  0  0  0  0  0  0  0  0  0  0
   44.6760   35.2290   45.4260 C   0  0  0  0  0  0  0  0  0  0  0  0
   44.7000   36.2400   44.4560 C   0  0  0  0  0  0  0  0  0  0  0  0
   45.3000   35.9570   43.1890 C   0  0  0  0  0  0  0  0  0  0  0  0
   45.8220   34.7120   42.9860 N   0  0  0  0  0  0  0  0  0  0  0  0
   45.7780   33.7600   43.9520 C   0  0  0  0  0  0  0  0  0  0  0  0
   45.2160   34.0080   45.1540 N   0  0  0  0  0  0  0  0  0  0  0  0
   44.2700   37.2090   44.6730 H   0  0  0  0  0  0  0  0  0  0  0  0
   45.3240   36.7250   42.4360 H   0  0  0  0  0  0  0  0  0  0  0  0
   44.1060   35.4480   46.6750 O   0  0  0  0  0  0  0  0  0  0  0  0
   43.3150   34.9210   47.0180 H   0  0  0  0  0  0  0  0  0  0  0  0
   47.2820   32.7770   45.9480 O   0  0  0  0  0  0  0  0  0  0  0  0
   48.0160   33.4040   46.1000 H   0  0  0  0  0  0  0  0  0  0  0  0
   46.7050   30.3550   46.1720 O   0  0  0  0  0  0  0  0  0  0  0  0
   47.3740   30.4840   47.3830 C   0  0  0  0  0  0  0  0  0  0  0  0
   48.6210   30.3930   47.9040 N   0  0  0  0  0  0  0  0  0  0  0  0
   48.5440   30.6580   49.2330 C   0  0  0  0  0  0  0  0  0  0  0  0
   49.4240   30.6420   49.8480 H   0  0  0  0  0  0  0  0  0  0  0  0
   47.2570   30.9110   49.5250 N   0  0  0  0  0  0  0  0  0  0  0  0
   46.9710   31.1410   50.4980 H   0  0  0  0  0  0  0  0  0  0  0  0
   46.5540   30.8070   48.4160 N   0  0  0  0  0  0  0  0  0  0  0  0
  1  6  1  6  0  0  0
  1  5  1  0  0  0  0
  1 21  1  0  0  0  0
  2  7  1  6  0  0  0
  2 15  1  0  0  0  0
  2  3  1  0  0  0  0
  2  1  1  0  0  0  0
  4  3  1  0  0  0  0
  4  8  1  0  0  0  0
  4  5  1  0  0  0  0
  5 10  1  6  0  0  0
  5 23  1  0  0  0  0
  9  4  1  0  0  0  0
 11 19  1  0  0  0  0
 12 17  1  0  0  0  0
 12 11  2  0  0  0  0
 13 12  1  0  0  0  0
 14 13  2  0  0  0  0
 14 15  1  0  0  0  0
 15 16  2  0  0  0  0
 16 11  1  0  0  0  0
 18 13  1  0  0  0  0
 19 20  1  0  0  0  0
 21 22  1  0  0  0  0
 23 24  1  0  0  0  0
 24 25  1  0  0  0  0
 24 30  2  0  0  0  0
 25 26  2  0  0  0  0
 26 28  1  0  0  0  0
 26 27  1  0  0  0  0
 28 29  1  0  0  0  0
 30 28  1  0  0  0  0
M  END
>  <minimizedAffinity>
-5.53650761

>  <minimizedRMSD>
3.75127578

$$$$
