REMARK  Name = 
REMARK  7 active torsions:
REMARK  status: ('A' for Active; 'I' for Inactive)
REMARK    1  A    between atoms: C_2  and  O_17
REMARK    2  A    between atoms: C_3  and  C_7
REMARK    3  A    between atoms: O_17  and  P_19
REMARK    4  A    between atoms: P_19  and  O_20
REMARK    5  A    between atoms: P_19  and  O_21
REMARK    6  A    between atoms: O_20  and  C_36
REMARK    7  A    between atoms: O_21  and  C_22
REMARK                            x       y       z     vdW  Elec       q    Type
REMARK                         _______ _______ _______ _____ _____    ______ ____
ROOT
ATOM      1  C   UNL     1      45.132  36.017  42.916  0.00  0.00    +0.000 A 
ATOM      2  C   UNL     1      45.371  34.652  42.910  0.00  0.00    +0.000 A 
ATOM      3  C   UNL     1      45.213  33.919  44.061  0.00  0.00    +0.000 A 
ATOM      4  N   UNL     1      44.811  34.609  45.188  0.00  0.00    +0.000 NA
ATOM      5  C   UNL     1      44.582  35.921  45.188  0.00  0.00    +0.000 A 
ATOM      6  N   UNL     1      44.748  36.613  44.041  0.00  0.00    +0.000 NA
ATOM      7  H   UNL     1      45.246  36.637  42.025  0.00  0.00    +0.000 HD
ATOM      8  H   UNL     1      44.271  36.441  46.071  0.00  0.00    +0.000 HD
ENDROOT
BRANCH   3   9
ATOM      9  C   UNL     1      45.416  32.530  44.220  0.00  0.00    +0.000 A 
ATOM     10  C   UNL     1      44.938  31.562  43.332  0.00  0.00    +0.000 A 
ATOM     11  C   UNL     1      45.078  30.210  43.517  0.00  0.00    +0.000 A 
ATOM     12  C   UNL     1      45.726  29.738  44.638  0.00  0.00    +0.000 A 
ATOM     13  C   UNL     1      46.223  30.711  45.556  0.00  0.00    +0.000 A 
ATOM     14  C   UNL     1      46.866  30.250  46.673  0.00  0.00    +0.000 A 
ATOM     15  C   UNL     1      47.373  31.135  47.602  0.00  0.00    +0.000 A 
ATOM     16  C   UNL     1      47.224  32.514  47.390  0.00  0.00    +0.000 A 
ATOM     17  C   UNL     1      46.555  32.936  46.227  0.00  0.00    +0.000 A 
ATOM     18  C   UNL     1      46.059  32.035  45.325  0.00  0.00    +0.000 A 
ATOM     19  H   UNL     1      44.426  31.904  42.443  0.00  0.00    +0.000 HD
ATOM     20  H   UNL     1      44.695  29.494  42.806  0.00  0.00    +0.000 HD
ATOM     21  H   UNL     1      45.866  28.687  44.840  0.00  0.00    +0.000 HD
ATOM     22  H   UNL     1      46.987  29.191  46.845  0.00  0.00    +0.000 HD
ATOM     23  H   UNL     1      47.873  30.720  48.470  0.00  0.00    +0.000 HD
ATOM     24  H   UNL     1      47.651  33.114  48.164  0.00  0.00    +0.000 HD
ATOM     25  H   UNL     1      46.564  34.005  46.237  0.00  0.00    +0.000 HD
ENDBRANCH   3   9
BRANCH   2  26
ATOM     26  O   UNL     1      45.760  34.091  41.724  0.00  0.00    +0.000 OA
BRANCH  26  28
ATOM     27  O   UNL     1      47.682  32.429  41.090  0.00  0.00    +0.000 OA
ATOM     28  P   UNL     1      47.368  33.875  41.244  0.00  0.00    +0.000 P 
BRANCH  28  29
ATOM     29  O   UNL     1      47.654  34.604  39.742  0.00  0.00    +0.000 OA
BRANCH  29  30
ATOM     30  C   UNL     1      46.779  34.315  38.702  0.00  0.00    +0.000 A 
ATOM     31  N   UNL     1      45.428  34.302  38.842  0.00  0.00    +0.000 NA
ATOM     32  C   UNL     1      44.854  33.990  37.664  0.00  0.00    +0.000 A 
ATOM     33  H   UNL     1      43.794  33.898  37.440  0.00  0.00    +0.000 HD
ATOM     34  N   UNL     1      45.849  33.806  36.777  0.00  0.00    +0.000 N 
ATOM     35  H   UNL     1      45.764  33.548  35.748  0.00  0.00    +0.000 HD
ATOM     36  N   UNL     1      46.989  34.004  37.414  0.00  0.00    +0.000 NA
ENDBRANCH  29  30
ENDBRANCH  28  29
BRANCH  28  37
ATOM     37  O   UNL     1      48.362  34.595  42.390  0.00  0.00    +0.000 OA
BRANCH  37  38
ATOM     38  C   UNL     1      49.534  35.292  42.149  0.00  0.00    +0.000 C 
ATOM     39  O   UNL     1      49.204  36.213  41.379  0.00  0.00    +0.000 OA
ATOM     40  N   UNL     1      50.641  34.701  42.861  0.00  0.00    +0.000 N 
ATOM     41  H   UNL     1      50.605  34.734  43.915  0.00  0.00    +0.000 HD
ATOM     42  H   UNL     1      51.495  34.233  42.483  0.00  0.00    +0.000 HD
ENDBRANCH  37  38
ENDBRANCH  28  37
ENDBRANCH  26  28
ENDBRANCH   2  26
TORSDOF 7
