
 OpenBabel03242511493D

 23 25  0  0  1  0  0  0  0  0999 V2000
   48.6790   33.9320   42.8890 C   0  0  1  0  0  0  0  0  0  0  0  0
   49.0720   33.4940   41.5570 C   0  0  2  0  0  0  0  0  0  0  0  0
   49.5100   34.8290   42.0040 C   0  0  0  0  0  0  0  0  0  0  0  0
   49.2390   33.5650   43.7950 H   0  0  0  0  0  0  0  0  0  0  0  0
   49.8780   32.7000   41.5400 H   0  0  0  0  0  0  0  0  0  0  0  0
   50.5860   34.9970   42.2290 H   0  0  0  0  0  0  0  0  0  0  0  0
   48.9870   35.7500   41.6870 H   0  0  0  0  0  0  0  0  0  0  0  0
   46.6300   33.6960   44.2800 C   0  0  0  0  0  0  0  0  0  0  0  0
   47.3030   34.3510   43.2210 C   0  0  0  0  0  0  0  0  0  0  0  0
   46.6040   35.3540   42.5410 C   0  0  0  0  0  0  0  0  0  0  0  0
   45.3340   35.6320   42.9360 N   0  0  0  0  0  0  0  0  0  0  0  0
   44.7190   34.9900   43.9480 C   0  0  0  0  0  0  0  0  0  0  0  0
   45.3780   34.0090   44.6280 N   0  0  0  0  0  0  0  0  0  0  0  0
   47.0460   32.9290   44.8800 H   0  0  0  0  0  0  0  0  0  0  0  0
   47.1120   35.8530   41.7370 H   0  0  0  0  0  0  0  0  0  0  0  0
   43.7060   35.2670   44.2060 H   0  0  0  0  0  0  0  0  0  0  0  0
   48.2160   33.5010   40.3550 C   0  0  0  0  0  0  0  0  0  0  0  0
   47.2490   32.6180   39.9590 N   0  0  0  0  0  0  0  0  0  0  0  0
   46.7090   32.9990   38.7930 C   0  0  0  0  0  0  0  0  0  0  0  0
   45.9250   32.4260   38.3170 H   0  0  0  0  0  0  0  0  0  0  0  0
   47.3380   34.1270   38.4500 N   0  0  0  0  0  0  0  0  0  0  0  0
   47.0890   34.6220   37.5670 H   0  0  0  0  0  0  0  0  0  0  0  0
   48.2290   34.4370   39.3590 N   0  0  0  0  0  0  0  0  0  0  0  0
  1  9  1  0  0  0  0
  1  4  1  1  0  0  0
  2  5  1  6  0  0  0
  2  3  1  0  0  0  0
  2  1  1  0  0  0  0
  3  6  1  0  0  0  0
  3  1  1  0  0  0  0
  7  3  1  0  0  0  0
  8 13  1  0  0  0  0
  8 14  1  0  0  0  0
  9  8  2  0  0  0  0
 10 11  2  0  0  0  0
 10  9  1  0  0  0  0
 11 12  1  0  0  0  0
 12 16  1  0  0  0  0
 12 13  2  0  0  0  0
 15 10  1  0  0  0  0
 17  2  1  0  0  0  0
 18 17  1  0  0  0  0
 19 18  2  0  0  0  0
 20 19  1  0  0  0  0
 21 19  1  0  0  0  0
 21 23  1  0  0  0  0
 22 21  1  0  0  0  0
 23 17  2  0  0  0  0
M  END
>  <minimizedAffinity>
-4.06660938

>  <minimizedRMSD>
3.65577102

$$$$
