
     RDKit          3D

 33 36  0  0  0  0  0  0  0  0999 V2000
   46.6308   32.5241   44.0721 C   0  0  1  0  0  0  0  0  0  0  0  0
   46.0651   33.8535   44.3906 C   0  0  0  0  0  0  0  0  0  0  0  0
   47.5621   33.6406   43.9365 C   0  0  2  0  0  0  0  0  0  0  0  0
   46.1514   30.7981   47.3757 C   0  0  0  0  0  0  0  0  0  0  0  0
   45.9441   31.7059   46.3507 C   0  0  0  0  0  0  0  0  0  0  0  0
   46.7587   31.5940   45.2381 C   0  0  0  0  0  0  0  0  0  0  0  0
   47.7043   30.6278   45.1923 N   0  0  0  0  0  0  0  0  0  0  0  0
   47.8744   29.7577   46.2216 C   0  0  0  0  0  0  0  0  0  0  0  0
   47.0866   29.8524   47.3167 N   0  0  0  0  0  0  0  0  0  0  0  0
   45.2695   30.8963   48.5852 C   0  0  0  0  0  0  0  0  0  0  0  0
   46.0568   31.3110   49.6339 F   0  0  0  0  0  0  0  0  0  0  0  0
   44.8232   29.6221   48.8657 F   0  0  0  0  0  0  0  0  0  0  0  0
   44.2507   31.7821   48.3893 F   0  0  0  0  0  0  0  0  0  0  0  0
   47.8086   34.1351   42.5581 C   0  0  0  0  0  0  0  0  0  0  0  0
   47.3021   33.6098   41.3738 C   0  0  0  0  0  0  0  0  0  0  0  0
   47.8291   34.4301   40.4084 C   0  0  0  0  0  0  0  0  0  0  0  0
   48.6303   35.4197   41.0150 C   0  0  0  0  0  0  0  0  0  0  0  0
   48.5551   35.1597   42.2912 O   0  0  0  0  0  0  0  0  0  0  0  0
   46.2549   32.0565   43.1133 H   0  0  0  0  0  0  0  0  0  0  0  0
   45.9615   34.1930   45.4341 H   0  0  0  0  0  0  0  0  0  0  0  0
   45.4159   34.3805   43.6833 H   0  0  0  0  0  0  0  0  0  0  0  0
   48.2921   33.8312   44.7230 H   0  0  0  0  0  0  0  0  0  0  0  0
   45.1954   32.4653   46.3965 H   0  0  0  0  0  0  0  0  0  0  0  0
   48.6323   28.9899   46.1760 H   0  0  0  0  0  0  0  0  0  0  0  0
   46.6507   32.7603   41.2464 H   0  0  0  0  0  0  0  0  0  0  0  0
   47.6660   34.3458   39.3423 H   0  0  0  0  0  0  0  0  0  0  0  0
   49.3456   36.4623   40.2865 C   0  0  0  0  0  0  0  0  0  0  0  0
   49.1632   37.7342   40.7350 N   0  0  0  0  0  0  0  0  0  0  0  0
   49.9020   38.5592   39.9394 C   0  0  0  0  0  0  0  0  0  0  0  0
   50.0311   39.6336   39.9594 H   0  0  0  0  0  0  0  0  0  0  0  0
   50.5167   37.7727   39.0259 N   0  0  0  0  0  0  0  0  0  0  0  0
   51.1716   38.0779   38.2479 H   0  0  0  0  0  0  0  0  0  0  0  0
   50.1918   36.4851   39.2177 N   0  0  0  0  0  0  0  0  0  0  0  0
  1  2  1  0
  1  6  1  0
  3  1  1  0
  3  2  1  0
  4 10  1  0
  5  4  2  0
  6  5  1  0
  7  6  2  0
  7  8  1  0
  8  9  2  0
  9  4  1  0
 10 12  1  0
 10 11  1  0
 13 10  1  0
 14  3  1  0
 15 14  2  0
 16 17  2  0
 16 15  1  0
 17 18  1  0
 18 14  1  0
  1 19  1  6
  2 20  1  0
  2 21  1  0
  3 22  1  1
  5 23  1  0
  8 24  1  0
 15 25  1  0
 16 26  1  0
 27 28  1  0
 28 29  2  0
 29 30  1  0
 29 31  1  0
 31 32  1  0
 31 33  1  0
 33 27  2  0
 17 27  1  0
M  ISO  8  19  13  20  13  21  13  22  13  23  14  24  14  25  14  26  14
M  ISO  2  30  14  32   9
M  END
>  <DihAtoms>  (1) 
15,16,26,27

>  <DihDeg>  (1) 
99.72182911359538

$$$$
