
 OpenBabel03252509123D

 30 33  0  0  0  0  0  0  0  0999 V2000
   47.6490   32.1450   43.9960 C   0  0  0  0  0  0  0  0  0  0  0  0
   47.0560   33.3050   43.5010 C   0  0  0  0  0  0  0  0  0  0  0  0
   46.1510   34.0420   44.2150 C   0  0  0  0  0  0  0  0  0  0  0  0
   45.7960   33.6200   45.5060 C   0  0  0  0  0  0  0  0  0  0  0  0
   44.9600   34.0880   46.4740 N   0  0  0  0  0  0  0  0  0  0  0  0
   45.0190   33.2610   47.5360 C   0  0  0  0  0  0  0  0  0  0  0  0
   45.8990   32.2850   47.2050 N   0  0  0  0  0  0  0  0  0  0  0  0
   46.3850   32.4810   45.9740 C   0  0  0  0  0  0  0  0  0  0  0  0
   47.2980   31.7200   45.2800 C   0  0  0  0  0  0  0  0  0  0  0  0
   48.3650   31.5490   43.4500 H   0  0  0  0  0  0  0  0  0  0  0  0
   44.3930   34.9610   46.3360 H   0  0  0  0  0  0  0  0  0  0  0  0
   44.4110   33.4910   48.3990 H   0  0  0  0  0  0  0  0  0  0  0  0
   47.7370   30.8330   45.6870 H   0  0  0  0  0  0  0  0  0  0  0  0
   47.2420   33.5450   39.8370 C   0  0  0  0  0  0  0  0  0  0  0  0
   48.1090   34.6180   39.6430 C   0  0  0  0  0  0  0  0  0  0  0  0
   48.6240   35.2520   40.7720 C   0  0  0  0  0  0  0  0  0  0  0  0
   48.2630   34.8020   42.0150 N   0  0  0  0  0  0  0  0  0  0  0  0
   47.4200   33.7590   42.1620 C   0  0  0  0  0  0  0  0  0  0  0  0
   46.9100   33.1310   41.0800 N   0  0  0  0  0  0  0  0  0  0  0  0
   46.8210   33.0260   38.9850 H   0  0  0  0  0  0  0  0  0  0  0  0
   48.3800   34.9540   38.6650 H   0  0  0  0  0  0  0  0  0  0  0  0
   49.2980   36.0860   40.6850 H   0  0  0  0  0  0  0  0  0  0  0  0
   45.4040   35.5240   43.5790 S   0  0  0  0  0  0  0  0  0  0  0  0
   43.9050   35.2100   42.6720 C   0  0  0  0  0  0  0  0  0  0  0  0
   43.7490   34.2530   41.7110 N   0  0  0  0  0  0  0  0  0  0  0  0
   42.4720   34.3270   41.2630 C   0  0  0  0  0  0  0  0  0  0  0  0
   42.1320   33.6510   40.4920 H   0  0  0  0  0  0  0  0  0  0  0  0
   41.8270   35.3180   41.9320 N   0  0  0  0  0  0  0  0  0  0  0  0
   40.8270   35.5790   41.7700 H   0  0  0  0  0  0  0  0  0  0  0  0
   42.7040   35.8180   42.7570 N   0  0  0  0  0  0  0  0  0  0  0  0
  1  9  1  0  0  0  0
  2  1  2  0  0  0  0
  2  3  1  0  0  0  0
  3  4  2  0  0  0  0
  4  8  1  0  0  0  0
  4  5  1  0  0  0  0
  5  6  1  0  0  0  0
  6 12  1  0  0  0  0
  7  6  2  0  0  0  0
  8  7  1  0  0  0  0
  9 13  1  0  0  0  0
  9  8  2  0  0  0  0
 10  1  1  0  0  0  0
 11  5  1  0  0  0  0
 14 19  1  0  0  0  0
 15 14  2  0  0  0  0
 15 16  1  0  0  0  0
 16 17  2  0  0  0  0
 17 18  1  0  0  0  0
 18  2  1  0  0  0  0
 19 18  2  0  0  0  0
 20 14  1  0  0  0  0
 21 15  1  0  0  0  0
 22 16  1  0  0  0  0
 23  3  1  0  0  0  0
 24 30  2  0  0  0  0
 24 23  1  0  0  0  0
 25 24  1  0  0  0  0
 26 25  2  0  0  0  0
 26 28  1  0  0  0  0
 27 26  1  0  0  0  0
 28 30  1  0  0  0  0
 29 28  1  0  0  0  0
M  END
>  <minimizedAffinity>
-4.98781013

>  <minimizedRMSD>
1.45686436

$$$$
