
     RDKit          3D

 39 42  0  0  0  0  0  0  0  0999 V2000
   45.1275   33.9468   40.6968 C   0  0  0  0  0  0  0  0  0  0  0  0
   44.0817   33.6370   39.8722 C   0  0  0  0  0  0  0  0  0  0  0  0
   44.3806   33.1557   38.6353 C   0  0  0  0  0  0  0  0  0  0  0  0
   45.6661   32.9658   38.1740 C   0  0  0  0  0  0  0  0  0  0  0  0
   46.6925   33.2865   39.0264 C   0  0  0  0  0  0  0  0  0  0  0  0
   46.4409   33.7769   40.2878 C   0  0  0  0  0  0  0  0  0  0  0  0
   40.7951   35.2557   40.7929 C   0  0  0  0  0  0  0  0  0  0  0  0
   42.0899   35.0859   40.2761 C   0  0  0  0  0  0  0  0  0  0  0  0
   42.7466   33.8502   40.3925 C   0  0  0  0  0  0  0  0  0  0  0  0
   42.0341   32.8849   41.0256 N   0  0  0  0  0  0  0  0  0  0  0  0
   40.8038   33.0596   41.5122 C   0  0  0  0  0  0  0  0  0  0  0  0
   40.1886   34.2472   41.3932 N   0  0  0  0  0  0  0  0  0  0  0  0
   40.1851   36.5153   40.6478 N   0  0  0  0  0  0  0  0  0  0  0  0
   47.6072   34.0874   41.1171 C   0  0  0  0  0  0  0  0  0  0  0  0
   48.1430   35.3336   40.9409 C   0  0  0  0  0  0  0  0  0  0  0  0
   49.2523   35.7944   41.6462 C   0  0  0  0  0  0  0  0  0  0  0  0
   49.8260   34.9285   42.5685 C   0  0  0  0  0  0  0  0  0  0  0  0
   49.3012   33.6749   42.7577 C   0  0  0  0  0  0  0  0  0  0  0  0
   48.1984   33.2450   42.0423 C   0  0  0  0  0  0  0  0  0  0  0  0
   44.7192   34.8658   43.1019 N   0  0  0  0  0  0  0  0  0  0  0  0
   44.9053   34.4598   42.0175 C   0  0  0  0  0  0  0  0  0  0  0  0
   43.5576   32.9069   37.9734 H   0  0  0  0  0  0  0  0  0  0  0  0
   45.8878   32.5779   37.1769 H   0  0  0  0  0  0  0  0  0  0  0  0
   47.7002   33.1360   38.6607 H   0  0  0  0  0  0  0  0  0  0  0  0
   42.6576   35.8592   39.7703 H   0  0  0  0  0  0  0  0  0  0  0  0
   40.3781   32.1842   41.9888 H   0  0  0  0  0  0  0  0  0  0  0  0
   40.7165   37.2482   41.1640 H   0  0  0  0  0  0  0  0  0  0  0  0
   39.3056   36.6818   40.0873 H   0  0  0  0  0  0  0  0  0  0  0  0
   47.7563   36.0658   40.2443 H   0  0  0  0  0  0  0  0  0  0  0  0
   49.6751   36.7606   41.5158 H   0  0  0  0  0  0  0  0  0  0  0  0
   50.6902   35.1970   43.1636 H   0  0  0  0  0  0  0  0  0  0  0  0
   49.7064   32.9595   43.4616 H   0  0  0  0  0  0  0  0  0  0  0  0
   47.5835   31.9178   42.1926 C   0  0  0  0  0  0  0  0  0  0  0  0
   46.4328   31.5733   42.8122 N   0  0  0  0  0  0  0  0  0  0  0  0
   46.2733   30.2272   42.6926 C   0  0  0  0  0  0  0  0  0  0  0  0
   45.3539   29.9039   43.1800 H   0  0  0  0  0  0  0  0  0  0  0  0
   47.3371   29.7803   41.9987 N   0  0  0  0  0  0  0  0  0  0  0  0
   47.3182   28.7368   41.8447 H   0  0  0  0  0  0  0  0  0  0  0  0
   48.1244   30.7745   41.6948 N   0  0  0  0  0  0  0  0  0  0  0  0
  1 21  1  0
  2  9  1  0
  2  1  2  0
  3  2  1  0
  4  3  2  0
  4  5  1  0
  5  6  2  0
  6  1  1  0
  6 14  1  0
  7 12  2  0
  8  9  2  0
  8  7  1  0
  9 10  1  0
 10 11  2  0
 12 11  1  0
 13  7  1  0
 14 19  1  0
 15 14  2  0
 15 16  1  0
 16 17  2  0
 17 18  1  0
 19 18  2  0
 21 20  3  0
  3 22  1  0
  4 23  1  0
  5 24  1  0
  8 25  1  0
 11 26  1  0
 13 27  1  0
 13 28  1  0
 15 29  1  0
 16 30  1  0
 17 31  1  0
 18 32  1  0
 33 34  1  0
 34 35  2  0
 35 36  1  0
 35 37  1  0
 37 38  1  0
 37 39  1  0
 39 33  2  0
 19 33  1  0
M  ISO  8  22  14  23  14  24  14  25  14  26  14  29  14  30  14  31  14
M  ISO  3  32  14  36  14  38   9
M  END
>  <DihAtoms>  (1) 
13,18,32,33

>  <DihDeg>  (1) 
0.0008231677494540864

$$$$
