
 OpenBabel03252506563D

 36 40  0  0  0  0  0  0  0  0999 V2000
   47.2470   31.2690   45.2010 C   0  0  0  0  0  0  0  0  0  0  0  0
   46.9150   32.6050   45.1320 C   0  0  0  0  0  0  0  0  0  0  0  0
   46.3240   33.2800   46.1760 C   0  0  0  0  0  0  0  0  0  0  0  0
   46.0320   32.6180   47.3730 C   0  0  0  0  0  0  0  0  0  0  0  0
   45.4760   32.9510   48.5650 N   0  0  0  0  0  0  0  0  0  0  0  0
   45.4650   31.8410   49.3530 C   0  0  0  0  0  0  0  0  0  0  0  0
   46.0160   30.8430   48.6280 N   0  0  0  0  0  0  0  0  0  0  0  0
   46.3750   31.2850   47.4130 C   0  0  0  0  0  0  0  0  0  0  0  0
   46.9570   30.5950   46.4000 C   0  0  0  0  0  0  0  0  0  0  0  0
   47.7110   30.7410   44.3800 H   0  0  0  0  0  0  0  0  0  0  0  0
   46.0480   34.3350   46.1580 H   0  0  0  0  0  0  0  0  0  0  0  0
   45.1430   33.9400   48.7360 H   0  0  0  0  0  0  0  0  0  0  0  0
   45.0710   31.8400   50.3560 H   0  0  0  0  0  0  0  0  0  0  0  0
   46.6580   35.0660   42.4090 C   0  0  0  0  0  0  0  0  0  0  0  0
   47.7480   34.7380   41.6010 C   0  0  0  0  0  0  0  0  0  0  0  0
   48.5690   33.6690   41.9960 C   0  0  0  0  0  0  0  0  0  0  0  0
   48.2650   32.9980   43.1530 N   0  0  0  0  0  0  0  0  0  0  0  0
   47.1940   33.3510   43.9090 C   0  0  0  0  0  0  0  0  0  0  0  0
   46.4110   34.3680   43.5370 N   0  0  0  0  0  0  0  0  0  0  0  0
   46.0410   35.8950   42.0800 H   0  0  0  0  0  0  0  0  0  0  0  0
   48.0290   35.2360   40.6820 H   0  0  0  0  0  0  0  0  0  0  0  0
   49.4210   33.3370   41.4580 H   0  0  0  0  0  0  0  0  0  0  0  0
   47.2850   29.1670   46.5430 C   0  0  0  0  0  0  0  0  0  0  0  0
   48.5020   28.6030   46.2060 C   0  0  0  0  0  0  0  0  0  0  0  0
   48.3400   27.2470   46.5110 C   0  0  0  0  0  0  0  0  0  0  0  0
   47.0500   27.0640   47.0120 C   0  0  0  0  0  0  0  0  0  0  0  0
   46.4570   28.2570   47.0090 O   0  0  0  0  0  0  0  0  0  0  0  0
   49.3660   29.0900   45.8040 H   0  0  0  0  0  0  0  0  0  0  0  0
   49.0740   26.4630   46.3890 H   0  0  0  0  0  0  0  0  0  0  0  0
   46.5230   25.7750   47.4390 C   0  0  0  0  0  0  0  0  0  0  0  0
   45.6500   25.2930   48.3480 N   0  0  0  0  0  0  0  0  0  0  0  0
   45.5990   23.9510   48.2400 C   0  0  0  0  0  0  0  0  0  0  0  0
   45.0020   23.2730   48.8190 H   0  0  0  0  0  0  0  0  0  0  0  0
   46.4520   23.5880   47.2470 N   0  0  0  0  0  0  0  0  0  0  0  0
   46.6440   22.6010   46.9120 H   0  0  0  0  0  0  0  0  0  0  0  0
   46.9970   24.6980   46.7800 N   0  0  0  0  0  0  0  0  0  0  0  0
  1  9  1  0  0  0  0
  2  1  2  0  0  0  0
  2  3  1  0  0  0  0
  3  4  2  0  0  0  0
  4  8  1  0  0  0  0
  4  5  1  0  0  0  0
  5 12  1  0  0  0  0
  5  6  1  0  0  0  0
  6 13  1  0  0  0  0
  7  6  2  0  0  0  0
  8  7  1  0  0  0  0
  9 23  1  0  0  0  0
  9  8  2  0  0  0  0
 10  1  1  0  0  0  0
 11  3  1  0  0  0  0
 14 19  1  0  0  0  0
 15 16  1  0  0  0  0
 15 14  2  0  0  0  0
 16 17  2  0  0  0  0
 17 18  1  0  0  0  0
 18  2  1  0  0  0  0
 19 18  2  0  0  0  0
 20 14  1  0  0  0  0
 21 15  1  0  0  0  0
 22 16  1  0  0  0  0
 23 27  1  0  0  0  0
 24 25  1  0  0  0  0
 24 23  2  0  0  0  0
 25 26  2  0  0  0  0
 26 30  1  0  0  0  0
 27 26  1  0  0  0  0
 28 24  1  0  0  0  0
 29 25  1  0  0  0  0
 30 31  1  0  0  0  0
 32 31  2  0  0  0  0
 32 33  1  0  0  0  0
 34 32  1  0  0  0  0
 35 34  1  0  0  0  0
 36 34  1  0  0  0  0
 36 30  2  0  0  0  0
M  END
>  <minimizedAffinity>
-5.4752121

>  <minimizedRMSD>
0.72472775

$$$$
