
 OpenBabel03252507343D

 47 50  0  0  1  0  0  0  0  0999 V2000
   37.5240   30.6500   40.8830 C   0  0  0  0  0  0  0  0  0  0  0  0
   36.2050   30.7860   40.4740 C   0  0  0  0  0  0  0  0  0  0  0  0
   35.3510   29.6580   40.4920 C   0  0  0  0  0  0  0  0  0  0  0  0
   35.9150   28.4610   40.9300 N   0  0  0  0  0  0  0  0  0  0  0  0
   37.1950   28.4000   41.3090 C   0  0  0  0  0  0  0  0  0  0  0  0
   37.9840   29.4720   41.2870 N   0  0  0  0  0  0  0  0  0  0  0  0
   35.5950   31.5720   40.0800 H   0  0  0  0  0  0  0  0  0  0  0  0
   34.3200   29.5890   40.2150 H   0  0  0  0  0  0  0  0  0  0  0  0
   38.3530   31.8390   40.8680 C   0  0  2  0  0  0  0  0  0  0  0  0
   37.6580   33.0130   40.1160 C   0  0  0  0  0  0  0  0  0  0  0  0
   38.4730   34.2510   40.2750 C   0  0  0  0  0  0  0  0  0  0  0  0
   39.9450   34.0920   40.0770 C   0  0  0  0  0  0  0  0  0  0  0  0
   40.4850   32.8640   40.6050 C   0  0  0  0  0  0  0  0  0  0  0  0
   39.6470   31.6140   40.2570 C   0  0  2  0  0  0  0  0  0  0  0  0
   38.4060   32.2380   41.9090 H   0  0  0  0  0  0  0  0  0  0  0  0
   36.6840   33.1220   40.6340 H   0  0  0  0  0  0  0  0  0  0  0  0
   37.4320   32.7470   39.0740 H   0  0  0  0  0  0  0  0  0  0  0  0
   38.1250   34.9790   39.4860 H   0  0  0  0  0  0  0  0  0  0  0  0
   38.1500   34.7040   41.2320 H   0  0  0  0  0  0  0  0  0  0  0  0
   40.4210   34.6580   39.2790 H   0  0  0  0  0  0  0  0  0  0  0  0
   40.3130   34.8240   40.9030 H   0  0  0  0  0  0  0  0  0  0  0  0
   41.4820   32.6520   40.1490 H   0  0  0  0  0  0  0  0  0  0  0  0
   40.6550   32.7750   41.7040 H   0  0  0  0  0  0  0  0  0  0  0  0
   40.2660   30.8230   40.6820 H   0  0  0  0  0  0  0  0  0  0  0  0
   39.5060   31.5390   38.8010 N   0  0  0  0  0  0  0  0  0  0  0  0
   40.4610   31.4410   37.7750 C   0  0  0  0  0  0  0  0  0  0  0  0
   41.0710   30.3470   37.4890 O   0  0  0  0  0  0  0  0  0  0  0  0
   40.6990   32.6550   37.0640 N   0  0  0  0  0  0  0  0  0  0  0  0
   38.5350   31.6260   38.3140 H   0  0  0  0  0  0  0  0  0  0  0  0
   40.0030   33.2820   36.5960 H   0  0  0  0  0  0  0  0  0  0  0  0
   41.6620   33.0800   36.9250 H   0  0  0  0  0  0  0  0  0  0  0  0
   37.7270   27.1030   41.7400 C   0  0  0  0  0  0  0  0  0  0  0  0
   36.9830   25.9520   41.6170 C   0  0  0  0  0  0  0  0  0  0  0  0
   37.3950   24.7000   41.9900 C   0  0  0  0  0  0  0  0  0  0  0  0
   38.6580   24.6570   42.5210 C   0  0  0  0  0  0  0  0  0  0  0  0
   39.4410   25.8040   42.6620 C   0  0  0  0  0  0  0  0  0  0  0  0
   38.9600   27.0270   42.2640 N   0  0  0  0  0  0  0  0  0  0  0  0
   35.9780   26.0640   41.1820 H   0  0  0  0  0  0  0  0  0  0  0  0
   36.7950   23.8070   41.8840 H   0  0  0  0  0  0  0  0  0  0  0  0
   39.1000   23.7250   42.8550 H   0  0  0  0  0  0  0  0  0  0  0  0
   40.7910   25.8300   43.2170 C   0  0  0  0  0  0  0  0  0  0  0  0
   41.0250   26.7460   44.1970 N   0  0  0  0  0  0  0  0  0  0  0  0
   42.3030   26.6620   44.6170 C   0  0  0  0  0  0  0  0  0  0  0  0
   42.8230   27.2330   45.3750 H   0  0  0  0  0  0  0  0  0  0  0  0
   42.8620   25.6650   43.8710 N   0  0  0  0  0  0  0  0  0  0  0  0
   43.8470   25.3370   43.9390 H   0  0  0  0  0  0  0  0  0  0  0  0
   41.9490   25.1610   43.0250 N   0  0  0  0  0  0  0  0  0  0  0  0
  1  6  1  0  0  0  0
  2  3  1  0  0  0  0
  2  1  2  0  0  0  0
  3  4  2  0  0  0  0
  4  5  1  0  0  0  0
  5 32  1  0  0  0  0
  6  5  2  0  0  0  0
  7  2  1  0  0  0  0
  8  3  1  0  0  0  0
  9  1  1  0  0  0  0
  9 15  1  1  0  0  0
 10 11  1  0  0  0  0
 10 16  1  0  0  0  0
 10  9  1  0  0  0  0
 11 19  1  0  0  0  0
 12 11  1  0  0  0  0
 12 13  1  0  0  0  0
 12 21  1  0  0  0  0
 13 23  1  0  0  0  0
 14 13  1  0  0  0  0
 14 24  1  1  0  0  0
 14  9  1  0  0  0  0
 17 10  1  0  0  0  0
 18 11  1  0  0  0  0
 20 12  1  0  0  0  0
 22 13  1  0  0  0  0
 25 14  1  0  0  0  0
 26 25  1  0  0  0  0
 27 26  2  0  0  0  0
 28 26  1  0  0  0  0
 29 25  1  0  0  0  0
 30 28  1  0  0  0  0
 31 28  1  0  0  0  0
 32 37  1  0  0  0  0
 33 32  2  0  0  0  0
 33 34  1  0  0  0  0
 34 35  2  0  0  0  0
 35 36  1  0  0  0  0
 35 40  1  0  0  0  0
 36 41  1  0  0  0  0
 37 36  2  0  0  0  0
 38 33  1  0  0  0  0
 39 34  1  0  0  0  0
 41 42  1  0  0  0  0
 42 43  2  0  0  0  0
 43 44  1  0  0  0  0
 45 46  1  0  0  0  0
 45 43  1  0  0  0  0
 47 41  2  0  0  0  0
 47 45  1  0  0  0  0
M  END
>  <minimizedAffinity>
-7.00365448

$$$$

 OpenBabel03252507343D

 47 50  0  0  1  0  0  0  0  0999 V2000
   38.1490   31.6310   40.8670 C   0  0  0  0  0  0  0  0  0  0  0  0
   36.8460   31.6590   40.3930 C   0  0  0  0  0  0  0  0  0  0  0  0
   36.0500   30.4920   40.4780 C   0  0  0  0  0  0  0  0  0  0  0  0
   36.6520   29.3700   41.0450 N   0  0  0  0  0  0  0  0  0  0  0  0
   37.9150   29.4130   41.4800 C   0  0  0  0  0  0  0  0  0  0  0  0
   38.6490   30.5200   41.3940 N   0  0  0  0  0  0  0  0  0  0  0  0
   36.2160   32.3730   39.9050 H   0  0  0  0  0  0  0  0  0  0  0  0
   35.0370   30.3430   40.1660 H   0  0  0  0  0  0  0  0  0  0  0  0
   38.9170   32.8570   40.7790 C   0  0  2  0  0  0  0  0  0  0  0  0
   38.0790   34.0150   40.1590 C   0  0  0  0  0  0  0  0  0  0  0  0
   38.8540   35.2860   40.2480 C   0  0  0  0  0  0  0  0  0  0  0  0
   40.2920   35.2010   39.8540 C   0  0  0  0  0  0  0  0  0  0  0  0
   40.9500   33.9860   40.2700 C   0  0  0  0  0  0  0  0  0  0  0  0
   40.1280   32.7080   39.9970 C   0  0  2  0  0  0  0  0  0  0  0  0
   39.0900   33.2330   41.8150 H   0  0  0  0  0  0  0  0  0  0  0  0
   37.1780   34.0670   40.8040 H   0  0  0  0  0  0  0  0  0  0  0  0
   37.7290   33.7650   39.1490 H   0  0  0  0  0  0  0  0  0  0  0  0
   38.3740   36.0160   39.5330 H   0  0  0  0  0  0  0  0  0  0  0  0
   38.6420   35.7000   41.2520 H   0  0  0  0  0  0  0  0  0  0  0  0
   40.6350   35.8070   39.0180 H   0  0  0  0  0  0  0  0  0  0  0  0
   40.7350   35.9290   40.6460 H   0  0  0  0  0  0  0  0  0  0  0  0
   41.8860   33.8320   39.6810 H   0  0  0  0  0  0  0  0  0  0  0  0
   41.2670   33.8800   41.3340 H   0  0  0  0  0  0  0  0  0  0  0  0
   40.8310   31.9360   40.3140 H   0  0  0  0  0  0  0  0  0  0  0  0
   39.7990   32.6610   38.5710 N   0  0  0  0  0  0  0  0  0  0  0  0
   39.9190   31.6340   37.6190 C   0  0  0  0  0  0  0  0  0  0  0  0
   39.1030   30.6450   37.5500 O   0  0  0  0  0  0  0  0  0  0  0  0
   41.0200   31.7790   36.7220 N   0  0  0  0  0  0  0  0  0  0  0  0
   39.4470   33.5420   38.0350 H   0  0  0  0  0  0  0  0  0  0  0  0
   41.2680   32.6010   36.1250 H   0  0  0  0  0  0  0  0  0  0  0  0
   41.7490   31.0250   36.5550 H   0  0  0  0  0  0  0  0  0  0  0  0
   38.4920   28.1900   42.0470 C   0  0  0  0  0  0  0  0  0  0  0  0
   39.4030   28.2430   43.0760 C   0  0  0  0  0  0  0  0  0  0  0  0
   39.9940   27.1580   43.6690 C   0  0  0  0  0  0  0  0  0  0  0  0
   39.6020   25.9510   43.1500 C   0  0  0  0  0  0  0  0  0  0  0  0
   38.6810   25.8580   42.1060 C   0  0  0  0  0  0  0  0  0  0  0  0
   38.1300   26.9920   41.5620 N   0  0  0  0  0  0  0  0  0  0  0  0
   39.6700   29.2470   43.4410 H   0  0  0  0  0  0  0  0  0  0  0  0
   40.7080   27.2220   44.4770 H   0  0  0  0  0  0  0  0  0  0  0  0
   39.9970   25.0170   43.5320 H   0  0  0  0  0  0  0  0  0  0  0  0
   38.2210   24.6080   41.5080 C   0  0  0  0  0  0  0  0  0  0  0  0
   37.0140   24.6460   40.8790 N   0  0  0  0  0  0  0  0  0  0  0  0
   36.7130   23.4330   40.3750 C   0  0  0  0  0  0  0  0  0  0  0  0
   35.8420   23.1080   39.8200 H   0  0  0  0  0  0  0  0  0  0  0  0
   37.7690   22.6330   40.7070 N   0  0  0  0  0  0  0  0  0  0  0  0
   37.8630   21.6250   40.4710 H   0  0  0  0  0  0  0  0  0  0  0  0
   38.6800   23.3430   41.3920 N   0  0  0  0  0  0  0  0  0  0  0  0
  1  6  1  0  0  0  0
  2  3  1  0  0  0  0
  2  1  2  0  0  0  0
  3  4  2  0  0  0  0
  4  5  1  0  0  0  0
  5 32  1  0  0  0  0
  6  5  2  0  0  0  0
  7  2  1  0  0  0  0
  8  3  1  0  0  0  0
  9  1  1  0  0  0  0
  9 15  1  1  0  0  0
 10 11  1  0  0  0  0
 10  9  1  0  0  0  0
 10 16  1  0  0  0  0
 11 19  1  0  0  0  0
 12 11  1  0  0  0  0
 12 13  1  0  0  0  0
 12 21  1  0  0  0  0
 13 23  1  0  0  0  0
 14 13  1  0  0  0  0
 14 24  1  1  0  0  0
 14  9  1  0  0  0  0
 17 10  1  0  0  0  0
 18 11  1  0  0  0  0
 20 12  1  0  0  0  0
 22 13  1  0  0  0  0
 25 14  1  0  0  0  0
 26 25  1  0  0  0  0
 27 26  2  0  0  0  0
 28 26  1  0  0  0  0
 29 25  1  0  0  0  0
 30 28  1  0  0  0  0
 31 28  1  0  0  0  0
 32 33  1  0  0  0  0
 33 38  1  0  0  0  0
 33 34  2  0  0  0  0
 34 39  1  0  0  0  0
 35 40  1  0  0  0  0
 35 34  1  0  0  0  0
 36 35  2  0  0  0  0
 37 32  2  0  0  0  0
 37 36  1  0  0  0  0
 41 36  1  0  0  0  0
 42 41  1  0  0  0  0
 43 45  1  0  0  0  0
 43 42  2  0  0  0  0
 44 43  1  0  0  0  0
 45 47  1  0  0  0  0
 46 45  1  0  0  0  0
 47 41  2  0  0  0  0
M  END
>  <minimizedAffinity>
-6.9112196

$$$$

 OpenBabel03252507343D

 47 50  0  0  1  0  0  0  0  0999 V2000
   37.8100   26.4840   41.7370 C   0  0  0  0  0  0  0  0  0  0  0  0
   36.8270   26.4570   42.7140 C   0  0  0  0  0  0  0  0  0  0  0  0
   36.6130   27.6010   43.5190 C   0  0  0  0  0  0  0  0  0  0  0  0
   37.4320   28.7000   43.2620 N   0  0  0  0  0  0  0  0  0  0  0  0
   38.3630   28.6570   42.3050 C   0  0  0  0  0  0  0  0  0  0  0  0
   38.5490   27.5720   41.5560 N   0  0  0  0  0  0  0  0  0  0  0  0
   36.1330   25.7360   43.0930 H   0  0  0  0  0  0  0  0  0  0  0  0
   35.9040   27.7490   44.3060 H   0  0  0  0  0  0  0  0  0  0  0  0
   37.9760   25.2950   40.9240 C   0  0  2  0  0  0  0  0  0  0  0  0
   37.2840   24.0580   41.5700 C   0  0  0  0  0  0  0  0  0  0  0  0
   37.3390   22.9110   40.6190 C   0  0  0  0  0  0  0  0  0  0  0  0
   38.6530   22.6820   39.9480 C   0  0  0  0  0  0  0  0  0  0  0  0
   39.3480   23.8910   39.5790 C   0  0  0  0  0  0  0  0  0  0  0  0
   39.3670   24.9640   40.6890 C   0  0  2  0  0  0  0  0  0  0  0  0
   37.3780   25.4270   39.9910 H   0  0  0  0  0  0  0  0  0  0  0  0
   36.2360   24.3870   41.7200 H   0  0  0  0  0  0  0  0  0  0  0  0
   37.6920   23.8420   42.5670 H   0  0  0  0  0  0  0  0  0  0  0  0
   37.1220   21.9780   41.2160 H   0  0  0  0  0  0  0  0  0  0  0  0
   36.4600   23.0270   39.9560 H   0  0  0  0  0  0  0  0  0  0  0  0
   39.1570   21.7320   40.1120 H   0  0  0  0  0  0  0  0  0  0  0  0
   38.2630   22.3670   38.8980 H   0  0  0  0  0  0  0  0  0  0  0  0
   40.4290   23.6750   39.3970 H   0  0  0  0  0  0  0  0  0  0  0  0
   39.0180   24.4490   38.6710 H   0  0  0  0  0  0  0  0  0  0  0  0
   39.9890   25.7310   40.2270 H   0  0  0  0  0  0  0  0  0  0  0  0
   39.9500   24.3750   41.8960 N   0  0  0  0  0  0  0  0  0  0  0  0
   40.6900   24.9420   42.9470 C   0  0  0  0  0  0  0  0  0  0  0  0
   40.1530   25.6340   43.8870 O   0  0  0  0  0  0  0  0  0  0  0  0
   42.0930   24.6840   42.8980 N   0  0  0  0  0  0  0  0  0  0  0  0
   39.9170   23.3020   42.0840 H   0  0  0  0  0  0  0  0  0  0  0  0
   42.5820   23.7630   42.8170 H   0  0  0  0  0  0  0  0  0  0  0  0
   42.8350   25.4420   42.9370 H   0  0  0  0  0  0  0  0  0  0  0  0
   39.2020   29.8430   42.1040 C   0  0  0  0  0  0  0  0  0  0  0  0
   40.5040   29.8770   42.5460 C   0  0  0  0  0  0  0  0  0  0  0  0
   41.3620   30.9360   42.4040 C   0  0  0  0  0  0  0  0  0  0  0  0
   40.8180   32.0180   41.7600 C   0  0  0  0  0  0  0  0  0  0  0  0
   39.5010   32.0200   41.2980 C   0  0  0  0  0  0  0  0  0  0  0  0
   38.7010   30.9190   41.4770 N   0  0  0  0  0  0  0  0  0  0  0  0
   40.8720   28.9730   43.0540 H   0  0  0  0  0  0  0  0  0  0  0  0
   42.3820   30.9430   42.7590 H   0  0  0  0  0  0  0  0  0  0  0  0
   41.3940   32.9190   41.5840 H   0  0  0  0  0  0  0  0  0  0  0  0
   38.8610   33.1340   40.6060 C   0  0  0  0  0  0  0  0  0  0  0  0
   39.4520   34.3530   40.7430 N   0  0  0  0  0  0  0  0  0  0  0  0
   38.7620   35.2850   40.0570 C   0  0  0  0  0  0  0  0  0  0  0  0
   38.9470   36.3460   39.9490 H   0  0  0  0  0  0  0  0  0  0  0  0
   37.7200   34.6140   39.4850 N   0  0  0  0  0  0  0  0  0  0  0  0
   36.9840   35.0350   38.8830 H   0  0  0  0  0  0  0  0  0  0  0  0
   37.7790   33.3130   39.8160 N   0  0  0  0  0  0  0  0  0  0  0  0
  1  2  1  0  0  0  0
  2  7  1  0  0  0  0
  2  3  2  0  0  0  0
  3  8  1  0  0  0  0
  4  3  1  0  0  0  0
  5  4  2  0  0  0  0
  6  1  2  0  0  0  0
  6  5  1  0  0  0  0
  9 15  1  6  0  0  0
  9 10  1  0  0  0  0
  9  1  1  0  0  0  0
 10 16  1  0  0  0  0
 10 17  1  0  0  0  0
 11 18  1  0  0  0  0
 11 10  1  0  0  0  0
 12 20  1  0  0  0  0
 12 11  1  0  0  0  0
 13 12  1  0  0  0  0
 13 14  1  0  0  0  0
 14 24  1  6  0  0  0
 14  9  1  0  0  0  0
 14 25  1  0  0  0  0
 19 11  1  0  0  0  0
 21 12  1  0  0  0  0
 22 13  1  0  0  0  0
 23 13  1  0  0  0  0
 25 29  1  0  0  0  0
 25 26  1  0  0  0  0
 26 27  2  0  0  0  0
 28 31  1  0  0  0  0
 28 26  1  0  0  0  0
 30 28  1  0  0  0  0
 32  5  1  0  0  0  0
 32 33  1  0  0  0  0
 33 38  1  0  0  0  0
 34 33  2  0  0  0  0
 34 39  1  0  0  0  0
 35 34  1  0  0  0  0
 36 37  1  0  0  0  0
 36 35  2  0  0  0  0
 37 32  2  0  0  0  0
 40 35  1  0  0  0  0
 41 42  1  0  0  0  0
 41 36  1  0  0  0  0
 43 42  2  0  0  0  0
 44 43  1  0  0  0  0
 45 47  1  0  0  0  0
 45 43  1  0  0  0  0
 46 45  1  0  0  0  0
 47 41  2  0  0  0  0
M  END
>  <minimizedAffinity>
-6.78484058

$$$$

 OpenBabel03252507343D

 47 50  0  0  1  0  0  0  0  0999 V2000
   38.8320   32.0700   40.3890 C   0  0  0  0  0  0  0  0  0  0  0  0
   37.8840   32.4630   39.4560 C   0  0  0  0  0  0  0  0  0  0  0  0
   36.7380   31.6600   39.2470 C   0  0  0  0  0  0  0  0  0  0  0  0
   36.6450   30.5000   40.0160 N   0  0  0  0  0  0  0  0  0  0  0  0
   37.5970   30.1810   40.8970 C   0  0  0  0  0  0  0  0  0  0  0  0
   38.6690   30.9490   41.0810 N   0  0  0  0  0  0  0  0  0  0  0  0
   37.7750   33.2640   38.7550 H   0  0  0  0  0  0  0  0  0  0  0  0
   35.9190   31.8160   38.5760 H   0  0  0  0  0  0  0  0  0  0  0  0
   39.9770   32.9370   40.5830 C   0  0  2  0  0  0  0  0  0  0  0  0
   39.6460   34.4140   40.2160 C   0  0  0  0  0  0  0  0  0  0  0  0
   40.7970   35.2840   40.5920 C   0  0  0  0  0  0  0  0  0  0  0  0
   42.1490   34.7760   40.2130 C   0  0  0  0  0  0  0  0  0  0  0  0
   42.3110   33.3510   40.3650 C   0  0  0  0  0  0  0  0  0  0  0  0
   41.1300   32.5260   39.8070 C   0  0  2  0  0  0  0  0  0  0  0  0
   40.1720   33.0140   41.6790 H   0  0  0  0  0  0  0  0  0  0  0  0
   38.7610   34.6520   40.8410 H   0  0  0  0  0  0  0  0  0  0  0  0
   39.3260   34.5090   39.1690 H   0  0  0  0  0  0  0  0  0  0  0  0
   40.6630   36.2630   40.0450 H   0  0  0  0  0  0  0  0  0  0  0  0
   40.6470   35.5400   41.6580 H   0  0  0  0  0  0  0  0  0  0  0  0
   42.7540   35.3750   39.5350 H   0  0  0  0  0  0  0  0  0  0  0  0
   42.7390   35.1290   41.1520 H   0  0  0  0  0  0  0  0  0  0  0  0
   43.1880   32.9960   39.7730 H   0  0  0  0  0  0  0  0  0  0  0  0
   42.4730   32.9310   41.3860 H   0  0  0  0  0  0  0  0  0  0  0  0
   41.4950   31.5100   39.9600 H   0  0  0  0  0  0  0  0  0  0  0  0
   40.9380   32.8820   38.4000 N   0  0  0  0  0  0  0  0  0  0  0  0
   41.7740   32.7400   37.2790 C   0  0  0  0  0  0  0  0  0  0  0  0
   41.9530   31.6190   36.6780 O   0  0  0  0  0  0  0  0  0  0  0  0
   42.4070   33.9450   36.8500 N   0  0  0  0  0  0  0  0  0  0  0  0
   40.0490   33.4110   38.0590 H   0  0  0  0  0  0  0  0  0  0  0  0
   41.9660   34.8660   36.6230 H   0  0  0  0  0  0  0  0  0  0  0  0
   43.4550   34.0440   36.7080 H   0  0  0  0  0  0  0  0  0  0  0  0
   37.4440   28.9360   41.6570 C   0  0  0  0  0  0  0  0  0  0  0  0
   37.4330   28.9390   43.0330 C   0  0  0  0  0  0  0  0  0  0  0  0
   37.2950   27.8300   43.8260 C   0  0  0  0  0  0  0  0  0  0  0  0
   37.1620   26.6550   43.1340 C   0  0  0  0  0  0  0  0  0  0  0  0
   37.1690   26.6130   41.7390 C   0  0  0  0  0  0  0  0  0  0  0  0
   37.3110   27.7680   41.0090 N   0  0  0  0  0  0  0  0  0  0  0  0
   37.5450   29.9190   43.5210 H   0  0  0  0  0  0  0  0  0  0  0  0
   37.2890   27.8540   44.9070 H   0  0  0  0  0  0  0  0  0  0  0  0
   37.0460   25.7070   43.6450 H   0  0  0  0  0  0  0  0  0  0  0  0
   37.0320   25.4000   40.9390 C   0  0  0  0  0  0  0  0  0  0  0  0
   37.6290   24.2790   41.4310 N   0  0  0  0  0  0  0  0  0  0  0  0
   37.4250   23.2390   40.5990 C   0  0  0  0  0  0  0  0  0  0  0  0
   37.7530   22.2100   40.6790 H   0  0  0  0  0  0  0  0  0  0  0  0
   36.6810   23.7420   39.5700 N   0  0  0  0  0  0  0  0  0  0  0  0
   36.3450   23.2040   38.7460 H   0  0  0  0  0  0  0  0  0  0  0  0
   36.4440   25.0470   39.7740 N   0  0  0  0  0  0  0  0  0  0  0  0
  1  9  1  0  0  0  0
  1  6  1  0  0  0  0
  2  1  2  0  0  0  0
  3  2  1  0  0  0  0
  3  4  2  0  0  0  0
  4  5  1  0  0  0  0
  5  6  2  0  0  0  0
  5 32  1  0  0  0  0
  7  2  1  0  0  0  0
  8  3  1  0  0  0  0
  9 15  1  1  0  0  0
 10  9  1  0  0  0  0
 10 11  1  0  0  0  0
 10 16  1  0  0  0  0
 11 19  1  0  0  0  0
 12 13  1  0  0  0  0
 12 11  1  0  0  0  0
 12 21  1  0  0  0  0
 13 23  1  0  0  0  0
 14 24  1  1  0  0  0
 14 13  1  0  0  0  0
 14  9  1  0  0  0  0
 17 10  1  0  0  0  0
 18 11  1  0  0  0  0
 20 12  1  0  0  0  0
 22 13  1  0  0  0  0
 25 14  1  0  0  0  0
 26 25  1  0  0  0  0
 27 26  2  0  0  0  0
 28 26  1  0  0  0  0
 29 25  1  0  0  0  0
 30 28  1  0  0  0  0
 31 28  1  0  0  0  0
 32 33  1  0  0  0  0
 33 38  1  0  0  0  0
 33 34  2  0  0  0  0
 34 39  1  0  0  0  0
 35 40  1  0  0  0  0
 35 34  1  0  0  0  0
 36 35  2  0  0  0  0
 37 32  2  0  0  0  0
 37 36  1  0  0  0  0
 41 42  1  0  0  0  0
 41 36  1  0  0  0  0
 43 44  1  0  0  0  0
 43 42  2  0  0  0  0
 45 47  1  0  0  0  0
 45 43  1  0  0  0  0
 46 45  1  0  0  0  0
 47 41  2  0  0  0  0
M  END
>  <minimizedAffinity>
-6.77887106

$$$$

 OpenBabel03252507343D

 47 50  0  0  1  0  0  0  0  0999 V2000
   37.8480   27.0890   41.7270 C   0  0  0  0  0  0  0  0  0  0  0  0
   37.5310   27.0820   43.0770 C   0  0  0  0  0  0  0  0  0  0  0  0
   37.3360   28.3100   43.7530 C   0  0  0  0  0  0  0  0  0  0  0  0
   37.4830   29.4670   42.9890 N   0  0  0  0  0  0  0  0  0  0  0  0
   37.7910   29.4010   41.6910 C   0  0  0  0  0  0  0  0  0  0  0  0
   37.9700   28.2360   41.0710 N   0  0  0  0  0  0  0  0  0  0  0  0
   37.4100   26.3410   43.8400 H   0  0  0  0  0  0  0  0  0  0  0  0
   37.0880   28.4830   44.7790 H   0  0  0  0  0  0  0  0  0  0  0  0
   38.0160   25.8050   41.0750 C   0  0  2  0  0  0  0  0  0  0  0  0
   37.2850   24.6690   41.8500 C   0  0  0  0  0  0  0  0  0  0  0  0
   37.3470   23.4100   41.0530 C   0  0  0  0  0  0  0  0  0  0  0  0
   38.6760   23.0810   40.4560 C   0  0  0  0  0  0  0  0  0  0  0  0
   39.4020   24.2240   39.9590 C   0  0  0  0  0  0  0  0  0  0  0  0
   39.4070   25.4280   40.9260 C   0  0  2  0  0  0  0  0  0  0  0  0
   37.4470   25.8270   40.1160 H   0  0  0  0  0  0  0  0  0  0  0  0
   36.2390   25.0270   41.9260 H   0  0  0  0  0  0  0  0  0  0  0  0
   37.6610   24.5750   42.8790 H   0  0  0  0  0  0  0  0  0  0  0  0
   37.0980   22.5620   41.7550 H   0  0  0  0  0  0  0  0  0  0  0  0
   36.4900   23.4530   40.3540 H   0  0  0  0  0  0  0  0  0  0  0  0
   39.1590   22.1530   40.7530 H   0  0  0  0  0  0  0  0  0  0  0  0
   38.3100   22.6420   39.4430 H   0  0  0  0  0  0  0  0  0  0  0  0
   40.4840   23.9730   39.8390 H   0  0  0  0  0  0  0  0  0  0  0  0
   39.1070   24.6680   38.9790 H   0  0  0  0  0  0  0  0  0  0  0  0
   40.0560   26.1230   40.3900 H   0  0  0  0  0  0  0  0  0  0  0  0
   39.9460   24.9880   42.2140 N   0  0  0  0  0  0  0  0  0  0  0  0
   40.9880   25.4920   43.0110 C   0  0  0  0  0  0  0  0  0  0  0  0
   40.8650   26.5420   43.7420 O   0  0  0  0  0  0  0  0  0  0  0  0
   42.2010   24.7410   42.9540 N   0  0  0  0  0  0  0  0  0  0  0  0
   39.5910   24.0830   42.7050 H   0  0  0  0  0  0  0  0  0  0  0  0
   42.3380   23.7170   43.1140 H   0  0  0  0  0  0  0  0  0  0  0  0
   43.1480   25.1640   42.7290 H   0  0  0  0  0  0  0  0  0  0  0  0
   37.9490   30.6590   40.9530 C   0  0  0  0  0  0  0  0  0  0  0  0
   36.9910   31.0880   40.0640 C   0  0  0  0  0  0  0  0  0  0  0  0
   37.0510   32.2450   39.3320 C   0  0  0  0  0  0  0  0  0  0  0  0
   38.1800   32.9900   39.5490 C   0  0  0  0  0  0  0  0  0  0  0  0
   39.1740   32.5870   40.4430 C   0  0  0  0  0  0  0  0  0  0  0  0
   39.0430   31.4130   41.1420 N   0  0  0  0  0  0  0  0  0  0  0  0
   36.1120   30.4370   39.9410 H   0  0  0  0  0  0  0  0  0  0  0  0
   36.2860   32.5640   38.6380 H   0  0  0  0  0  0  0  0  0  0  0  0
   38.3480   33.9280   39.0310 H   0  0  0  0  0  0  0  0  0  0  0  0
   40.3980   33.3300   40.7210 C   0  0  0  0  0  0  0  0  0  0  0  0
   40.3680   34.6670   40.4630 N   0  0  0  0  0  0  0  0  0  0  0  0
   41.5570   35.2270   40.7630 C   0  0  0  0  0  0  0  0  0  0  0  0
   41.8790   36.2570   40.6820 H   0  0  0  0  0  0  0  0  0  0  0  0
   42.3330   34.2000   41.2180 N   0  0  0  0  0  0  0  0  0  0  0  0
   43.3190   34.2820   41.5380 H   0  0  0  0  0  0  0  0  0  0  0  0
   41.6340   33.0540   41.1940 N   0  0  0  0  0  0  0  0  0  0  0  0
  1  2  1  0  0  0  0
  2  3  2  0  0  0  0
  2  7  1  0  0  0  0
  3  8  1  0  0  0  0
  4  3  1  0  0  0  0
  5  4  2  0  0  0  0
  6  5  1  0  0  0  0
  6  1  2  0  0  0  0
  9 15  1  6  0  0  0
  9  1  1  0  0  0  0
  9 10  1  0  0  0  0
 10 16  1  0  0  0  0
 10 17  1  0  0  0  0
 11 18  1  0  0  0  0
 11 10  1  0  0  0  0
 12 20  1  0  0  0  0
 12 11  1  0  0  0  0
 13 12  1  0  0  0  0
 13 14  1  0  0  0  0
 14 24  1  6  0  0  0
 14  9  1  0  0  0  0
 14 25  1  0  0  0  0
 19 11  1  0  0  0  0
 21 12  1  0  0  0  0
 22 13  1  0  0  0  0
 23 13  1  0  0  0  0
 25 29  1  0  0  0  0
 25 26  1  0  0  0  0
 26 27  2  0  0  0  0
 28 26  1  0  0  0  0
 28 30  1  0  0  0  0
 31 28  1  0  0  0  0
 32 37  1  0  0  0  0
 32  5  1  0  0  0  0
 33 32  2  0  0  0  0
 34 35  2  0  0  0  0
 34 33  1  0  0  0  0
 35 36  1  0  0  0  0
 36 41  1  0  0  0  0
 36 37  2  0  0  0  0
 38 33  1  0  0  0  0
 39 34  1  0  0  0  0
 40 35  1  0  0  0  0
 41 47  2  0  0  0  0
 42 41  1  0  0  0  0
 42 43  2  0  0  0  0
 43 45  1  0  0  0  0
 44 43  1  0  0  0  0
 45 46  1  0  0  0  0
 47 45  1  0  0  0  0
M  END
>  <minimizedAffinity>
-6.77194262

$$$$

 OpenBabel03252507343D

 47 50  0  0  1  0  0  0  0  0999 V2000
   37.6550   29.6560   40.5150 C   0  0  0  0  0  0  0  0  0  0  0  0
   36.7130   29.4480   39.5180 C   0  0  0  0  0  0  0  0  0  0  0  0
   36.5210   30.4360   38.5240 C   0  0  0  0  0  0  0  0  0  0  0  0
   37.3130   31.5790   38.6250 N   0  0  0  0  0  0  0  0  0  0  0  0
   38.2020   31.7160   39.6140 C   0  0  0  0  0  0  0  0  0  0  0  0
   38.3710   30.7750   40.5400 N   0  0  0  0  0  0  0  0  0  0  0  0
   35.9960   28.6910   39.2790 H   0  0  0  0  0  0  0  0  0  0  0  0
   35.8460   30.4350   37.6940 H   0  0  0  0  0  0  0  0  0  0  0  0
   37.8310   28.6050   41.4970 C   0  0  2  0  0  0  0  0  0  0  0  0
   37.4660   29.0930   42.9300 C   0  0  0  0  0  0  0  0  0  0  0  0
   37.5010   27.9350   43.8690 C   0  0  0  0  0  0  0  0  0  0  0  0
   38.6800   27.0260   43.7390 C   0  0  0  0  0  0  0  0  0  0  0  0
   39.1060   26.7990   42.3800 C   0  0  0  0  0  0  0  0  0  0  0  0
   39.1830   28.0850   41.5280 C   0  0  2  0  0  0  0  0  0  0  0  0
   37.0510   27.8280   41.3160 H   0  0  0  0  0  0  0  0  0  0  0  0
   36.4300   29.4750   42.8260 H   0  0  0  0  0  0  0  0  0  0  0  0
   38.0870   29.9470   43.2370 H   0  0  0  0  0  0  0  0  0  0  0  0
   37.5430   28.3590   44.9140 H   0  0  0  0  0  0  0  0  0  0  0  0
   36.5030   27.4610   43.8010 H   0  0  0  0  0  0  0  0  0  0  0  0
   39.3380   26.9110   44.5970 H   0  0  0  0  0  0  0  0  0  0  0  0
   38.1430   26.0130   43.9340 H   0  0  0  0  0  0  0  0  0  0  0  0
   40.1500   26.4040   42.3630 H   0  0  0  0  0  0  0  0  0  0  0  0
   38.5280   26.0890   41.7430 H   0  0  0  0  0  0  0  0  0  0  0  0
   39.5860   27.6910   40.5930 H   0  0  0  0  0  0  0  0  0  0  0  0
   40.0700   29.0370   42.2000 N   0  0  0  0  0  0  0  0  0  0  0  0
   41.4020   29.4080   41.9500 C   0  0  0  0  0  0  0  0  0  0  0  0
   41.7400   30.2000   40.9970 O   0  0  0  0  0  0  0  0  0  0  0  0
   42.3570   28.8420   42.8470 N   0  0  0  0  0  0  0  0  0  0  0  0
   39.7650   29.5630   43.1040 H   0  0  0  0  0  0  0  0  0  0  0  0
   42.3620   28.8670   43.8920 H   0  0  0  0  0  0  0  0  0  0  0  0
   43.2150   28.3010   42.5310 H   0  0  0  0  0  0  0  0  0  0  0  0
   38.9880   32.9530   39.6690 C   0  0  0  0  0  0  0  0  0  0  0  0
   38.5160   34.0670   40.3250 C   0  0  0  0  0  0  0  0  0  0  0  0
   39.1770   35.2620   40.4310 C   0  0  0  0  0  0  0  0  0  0  0  0
   40.4010   35.2860   39.8130 C   0  0  0  0  0  0  0  0  0  0  0  0
   40.9110   34.1760   39.1380 C   0  0  0  0  0  0  0  0  0  0  0  0
   40.1900   33.0090   39.0750 N   0  0  0  0  0  0  0  0  0  0  0  0
   37.5270   33.9740   40.7970 H   0  0  0  0  0  0  0  0  0  0  0  0
   38.7890   36.1270   40.9510 H   0  0  0  0  0  0  0  0  0  0  0  0
   41.0230   36.1740   39.8240 H   0  0  0  0  0  0  0  0  0  0  0  0
   42.2030   34.1320   38.4600 C   0  0  0  0  0  0  0  0  0  0  0  0
   43.3040   34.0740   39.2590 N   0  0  0  0  0  0  0  0  0  0  0  0
   44.4230   34.0380   38.5080 C   0  0  0  0  0  0  0  0  0  0  0  0
   45.4610   33.9900   38.8100 H   0  0  0  0  0  0  0  0  0  0  0  0
   43.9890   34.0750   37.2140 N   0  0  0  0  0  0  0  0  0  0  0  0
   44.5960   34.0630   36.3700 H   0  0  0  0  0  0  0  0  0  0  0  0
   42.6470   34.1320   37.1840 N   0  0  0  0  0  0  0  0  0  0  0  0
  1  6  1  0  0  0  0
  1  9  1  0  0  0  0
  2  1  2  0  0  0  0
  3  4  2  0  0  0  0
  3  2  1  0  0  0  0
  4  5  1  0  0  0  0
  5 32  1  0  0  0  0
  5  6  2  0  0  0  0
  7  2  1  0  0  0  0
  8  3  1  0  0  0  0
  9 15  1  6  0  0  0
  9 14  1  0  0  0  0
  9 10  1  0  0  0  0
 10 17  1  0  0  0  0
 10 11  1  0  0  0  0
 11 18  1  0  0  0  0
 12 11  1  0  0  0  0
 12 21  1  0  0  0  0
 12 20  1  0  0  0  0
 13 12  1  0  0  0  0
 14 24  1  6  0  0  0
 14 25  1  0  0  0  0
 14 13  1  0  0  0  0
 16 10  1  0  0  0  0
 19 11  1  0  0  0  0
 22 13  1  0  0  0  0
 23 13  1  0  0  0  0
 25 29  1  0  0  0  0
 26 25  1  0  0  0  0
 26 28  1  0  0  0  0
 27 26  2  0  0  0  0
 28 30  1  0  0  0  0
 31 28  1  0  0  0  0
 32 33  1  0  0  0  0
 33 34  2  0  0  0  0
 33 38  1  0  0  0  0
 34 39  1  0  0  0  0
 35 40  1  0  0  0  0
 35 34  1  0  0  0  0
 36 35  2  0  0  0  0
 37 36  1  0  0  0  0
 37 32  2  0  0  0  0
 41 36  1  0  0  0  0
 41 42  1  0  0  0  0
 43 44  1  0  0  0  0
 43 42  2  0  0  0  0
 45 43  1  0  0  0  0
 46 45  1  0  0  0  0
 47 45  1  0  0  0  0
 47 41  2  0  0  0  0
M  END
>  <minimizedAffinity>
-6.68961287

$$$$

 OpenBabel03252507343D

 47 50  0  0  1  0  0  0  0  0999 V2000
   38.8690   31.8080   40.2520 C   0  0  0  0  0  0  0  0  0  0  0  0
   37.8290   32.1040   39.3830 C   0  0  0  0  0  0  0  0  0  0  0  0
   36.8280   31.1340   39.1390 C   0  0  0  0  0  0  0  0  0  0  0  0
   36.9670   29.9190   39.8090 N   0  0  0  0  0  0  0  0  0  0  0  0
   37.9960   29.7000   40.6320 C   0  0  0  0  0  0  0  0  0  0  0  0
   38.9280   30.6250   40.8500 N   0  0  0  0  0  0  0  0  0  0  0  0
   37.5550   32.9270   38.7560 H   0  0  0  0  0  0  0  0  0  0  0  0
   35.9670   31.1980   38.5080 H   0  0  0  0  0  0  0  0  0  0  0  0
   39.8570   32.8420   40.4850 C   0  0  2  0  0  0  0  0  0  0  0  0
   39.3400   34.2410   40.0370 C   0  0  0  0  0  0  0  0  0  0  0  0
   40.3200   35.2850   40.4520 C   0  0  0  0  0  0  0  0  0  0  0  0
   41.7560   34.9730   40.1860 C   0  0  0  0  0  0  0  0  0  0  0  0
   42.1140   33.5940   40.4070 C   0  0  0  0  0  0  0  0  0  0  0  0
   41.1110   32.5860   39.8060 C   0  0  2  0  0  0  0  0  0  0  0  0
   39.9590   32.9810   41.5880 H   0  0  0  0  0  0  0  0  0  0  0  0
   38.3870   34.3640   40.5920 H   0  0  0  0  0  0  0  0  0  0  0  0
   39.0860   34.2550   38.9680 H   0  0  0  0  0  0  0  0  0  0  0  0
   40.0830   36.2150   39.8580 H   0  0  0  0  0  0  0  0  0  0  0  0
   40.0580   35.5480   41.4960 H   0  0  0  0  0  0  0  0  0  0  0  0
   42.3130   35.6350   39.5260 H   0  0  0  0  0  0  0  0  0  0  0  0
   42.2190   35.4390   41.1470 H   0  0  0  0  0  0  0  0  0  0  0  0
   43.0750   33.3560   39.8900 H   0  0  0  0  0  0  0  0  0  0  0  0
   42.2630   33.2340   41.4520 H   0  0  0  0  0  0  0  0  0  0  0  0
   41.6100   31.6400   40.0240 H   0  0  0  0  0  0  0  0  0  0  0  0
   40.9700   32.8650   38.3750 N   0  0  0  0  0  0  0  0  0  0  0  0
   41.8890   32.7860   37.3150 C   0  0  0  0  0  0  0  0  0  0  0  0
   42.2400   31.6750   36.7750 O   0  0  0  0  0  0  0  0  0  0  0  0
   42.4000   34.0430   36.8730 N   0  0  0  0  0  0  0  0  0  0  0  0
   40.0490   33.2690   37.9580 H   0  0  0  0  0  0  0  0  0  0  0  0
   41.8680   34.8950   36.5810 H   0  0  0  0  0  0  0  0  0  0  0  0
   43.4360   34.2640   36.7910 H   0  0  0  0  0  0  0  0  0  0  0  0
   38.0900   28.3910   41.2880 C   0  0  0  0  0  0  0  0  0  0  0  0
   36.9700   27.7560   41.7720 C   0  0  0  0  0  0  0  0  0  0  0  0
   36.9590   26.5360   42.3960 C   0  0  0  0  0  0  0  0  0  0  0  0
   38.1940   25.9540   42.5170 C   0  0  0  0  0  0  0  0  0  0  0  0
   39.3520   26.5690   42.0390 C   0  0  0  0  0  0  0  0  0  0  0  0
   39.2840   27.7940   41.4220 N   0  0  0  0  0  0  0  0  0  0  0  0
   36.0130   28.2830   41.6390 H   0  0  0  0  0  0  0  0  0  0  0  0
   36.0670   26.0530   42.7700 H   0  0  0  0  0  0  0  0  0  0  0  0
   38.3200   24.9890   42.9930 H   0  0  0  0  0  0  0  0  0  0  0  0
   40.6960   26.0080   42.1340 C   0  0  0  0  0  0  0  0  0  0  0  0
   41.2800   26.0390   43.3640 N   0  0  0  0  0  0  0  0  0  0  0  0
   42.5110   25.4920   43.3090 C   0  0  0  0  0  0  0  0  0  0  0  0
   43.2450   25.3540   44.0920 H   0  0  0  0  0  0  0  0  0  0  0  0
   42.6800   25.1160   42.0070 N   0  0  0  0  0  0  0  0  0  0  0  0
   43.5260   24.6580   41.6140 H   0  0  0  0  0  0  0  0  0  0  0  0
   41.5840   25.4270   41.2960 N   0  0  0  0  0  0  0  0  0  0  0  0
  1  9  1  0  0  0  0
  1  6  1  0  0  0  0
  2  1  2  0  0  0  0
  3  2  1  0  0  0  0
  3  4  2  0  0  0  0
  4  5  1  0  0  0  0
  5  6  2  0  0  0  0
  5 32  1  0  0  0  0
  7  2  1  0  0  0  0
  8  3  1  0  0  0  0
  9 15  1  1  0  0  0
 10 11  1  0  0  0  0
 10  9  1  0  0  0  0
 10 16  1  0  0  0  0
 11 19  1  0  0  0  0
 12 13  1  0  0  0  0
 12 11  1  0  0  0  0
 12 21  1  0  0  0  0
 13 23  1  0  0  0  0
 14 24  1  1  0  0  0
 14 13  1  0  0  0  0
 14  9  1  0  0  0  0
 17 10  1  0  0  0  0
 18 11  1  0  0  0  0
 20 12  1  0  0  0  0
 22 13  1  0  0  0  0
 25 14  1  0  0  0  0
 26 25  1  0  0  0  0
 27 26  2  0  0  0  0
 28 26  1  0  0  0  0
 29 25  1  0  0  0  0
 30 28  1  0  0  0  0
 31 28  1  0  0  0  0
 32 37  2  0  0  0  0
 32 33  1  0  0  0  0
 33 34  2  0  0  0  0
 34 35  1  0  0  0  0
 34 39  1  0  0  0  0
 35 40  1  0  0  0  0
 36 41  1  0  0  0  0
 36 35  2  0  0  0  0
 37 36  1  0  0  0  0
 38 33  1  0  0  0  0
 41 42  1  0  0  0  0
 43 42  2  0  0  0  0
 43 44  1  0  0  0  0
 45 43  1  0  0  0  0
 46 45  1  0  0  0  0
 47 45  1  0  0  0  0
 47 41  2  0  0  0  0
M  END
>  <minimizedAffinity>
-6.60952806

$$$$

 OpenBabel03252507343D

 47 50  0  0  1  0  0  0  0  0999 V2000
   39.8460   27.2600   41.0650 C   0  0  0  0  0  0  0  0  0  0  0  0
   41.1730   27.0170   41.3870 C   0  0  0  0  0  0  0  0  0  0  0  0
   42.0940   28.0910   41.4040 C   0  0  0  0  0  0  0  0  0  0  0  0
   41.5840   29.3490   41.0860 N   0  0  0  0  0  0  0  0  0  0  0  0
   40.2940   29.5120   40.7830 C   0  0  0  0  0  0  0  0  0  0  0  0
   39.4410   28.4900   40.7730 N   0  0  0  0  0  0  0  0  0  0  0  0
   41.7670   26.1570   41.6190 H   0  0  0  0  0  0  0  0  0  0  0  0
   43.1400   28.0790   41.6300 H   0  0  0  0  0  0  0  0  0  0  0  0
   38.9370   26.1310   41.0820 C   0  0  2  0  0  0  0  0  0  0  0  0
   37.8400   26.2620   39.9840 C   0  0  0  0  0  0  0  0  0  0  0  0
   37.0410   25.0040   39.9340 C   0  0  0  0  0  0  0  0  0  0  0  0
   36.6200   24.4470   41.2540 C   0  0  0  0  0  0  0  0  0  0  0  0
   37.6130   24.5680   42.2930 C   0  0  0  0  0  0  0  0  0  0  0  0
   38.2780   25.9600   42.3610 C   0  0  2  0  0  0  0  0  0  0  0  0
   39.4980   25.2300   40.7360 H   0  0  0  0  0  0  0  0  0  0  0  0
   38.4160   26.3910   39.0450 H   0  0  0  0  0  0  0  0  0  0  0  0
   37.2440   27.1750   40.1160 H   0  0  0  0  0  0  0  0  0  0  0  0
   36.0910   25.2390   39.3730 H   0  0  0  0  0  0  0  0  0  0  0  0
   37.5970   24.3200   39.2650 H   0  0  0  0  0  0  0  0  0  0  0  0
   35.5550   24.3510   41.4570 H   0  0  0  0  0  0  0  0  0  0  0  0
   36.7420   23.3150   41.0150 H   0  0  0  0  0  0  0  0  0  0  0  0
   37.1390   24.4480   43.2970 H   0  0  0  0  0  0  0  0  0  0  0  0
   38.4740   23.8580   42.3030 H   0  0  0  0  0  0  0  0  0  0  0  0
   38.9180   25.8430   43.2370 H   0  0  0  0  0  0  0  0  0  0  0  0
   37.2300   26.9690   42.5230 N   0  0  0  0  0  0  0  0  0  0  0  0
   37.0440   27.9750   43.4860 C   0  0  0  0  0  0  0  0  0  0  0  0
   37.7090   29.0740   43.4860 O   0  0  0  0  0  0  0  0  0  0  0  0
   36.0480   27.6860   44.4660 N   0  0  0  0  0  0  0  0  0  0  0  0
   36.3580   26.9990   41.8700 H   0  0  0  0  0  0  0  0  0  0  0  0
   35.0530   27.4010   44.3170 H   0  0  0  0  0  0  0  0  0  0  0  0
   36.2190   27.7300   45.5130 H   0  0  0  0  0  0  0  0  0  0  0  0
   39.8300   30.8610   40.4380 C   0  0  0  0  0  0  0  0  0  0  0  0
   38.5590   31.2790   40.7550 C   0  0  0  0  0  0  0  0  0  0  0  0
   38.0390   32.5150   40.4760 C   0  0  0  0  0  0  0  0  0  0  0  0
   38.9050   33.3570   39.8280 C   0  0  0  0  0  0  0  0  0  0  0  0
   40.2020   32.9670   39.4900 C   0  0  0  0  0  0  0  0  0  0  0  0
   40.6540   31.7100   39.8040 N   0  0  0  0  0  0  0  0  0  0  0  0
   37.9190   30.5490   41.2750 H   0  0  0  0  0  0  0  0  0  0  0  0
   37.0360   32.8250   40.7340 H   0  0  0  0  0  0  0  0  0  0  0  0
   38.6150   34.3640   39.5500 H   0  0  0  0  0  0  0  0  0  0  0  0
   41.1740   33.8110   38.8010 C   0  0  0  0  0  0  0  0  0  0  0  0
   41.8590   33.2330   37.7760 N   0  0  0  0  0  0  0  0  0  0  0  0
   42.7190   34.1180   37.2320 C   0  0  0  0  0  0  0  0  0  0  0  0
   43.4110   33.9970   36.4090 H   0  0  0  0  0  0  0  0  0  0  0  0
   42.5510   35.2680   37.9480 N   0  0  0  0  0  0  0  0  0  0  0  0
   43.0630   36.1600   37.7920 H   0  0  0  0  0  0  0  0  0  0  0  0
   41.6180   35.0840   38.8960 N   0  0  0  0  0  0  0  0  0  0  0  0
  1  9  1  0  0  0  0
  1  2  1  0  0  0  0
  2  3  2  0  0  0  0
  2  7  1  0  0  0  0
  3  8  1  0  0  0  0
  4  3  1  0  0  0  0
  5  4  2  0  0  0  0
  6  5  1  0  0  0  0
  6  1  2  0  0  0  0
  9 15  1  6  0  0  0
  9 14  1  0  0  0  0
 10 17  1  0  0  0  0
 10  9  1  0  0  0  0
 11 10  1  0  0  0  0
 11 12  1  0  0  0  0
 12 20  1  0  0  0  0
 12 13  1  0  0  0  0
 13 23  1  0  0  0  0
 13 14  1  0  0  0  0
 13 22  1  0  0  0  0
 14 25  1  0  0  0  0
 14 24  1  1  0  0  0
 16 10  1  0  0  0  0
 18 11  1  0  0  0  0
 19 11  1  0  0  0  0
 21 12  1  0  0  0  0
 25 26  1  0  0  0  0
 26 28  1  0  0  0  0
 27 26  2  0  0  0  0
 28 31  1  0  0  0  0
 29 25  1  0  0  0  0
 30 28  1  0  0  0  0
 32 33  1  0  0  0  0
 32  5  1  0  0  0  0
 33 38  1  0  0  0  0
 34 39  1  0  0  0  0
 34 33  2  0  0  0  0
 35 34  1  0  0  0  0
 36 37  1  0  0  0  0
 36 35  2  0  0  0  0
 37 32  2  0  0  0  0
 40 35  1  0  0  0  0
 41 47  2  0  0  0  0
 41 36  1  0  0  0  0
 42 41  1  0  0  0  0
 43 42  2  0  0  0  0
 43 45  1  0  0  0  0
 44 43  1  0  0  0  0
 45 47  1  0  0  0  0
 46 45  1  0  0  0  0
M  END
>  <minimizedAffinity>
-6.51497507

$$$$

 OpenBabel03252507343D

 47 50  0  0  1  0  0  0  0  0999 V2000
   37.5820   28.4970   40.8330 C   0  0  0  0  0  0  0  0  0  0  0  0
   36.3230   29.0150   41.0980 C   0  0  0  0  0  0  0  0  0  0  0  0
   36.0680   30.3850   40.8550 C   0  0  0  0  0  0  0  0  0  0  0  0
   37.1330   31.1340   40.3550 N   0  0  0  0  0  0  0  0  0  0  0  0
   38.3220   30.5710   40.1250 C   0  0  0  0  0  0  0  0  0  0  0  0
   38.5440   29.2790   40.3580 N   0  0  0  0  0  0  0  0  0  0  0  0
   35.4040   28.6440   41.5040 H   0  0  0  0  0  0  0  0  0  0  0  0
   35.1640   30.9390   41.0000 H   0  0  0  0  0  0  0  0  0  0  0  0
   37.7870   27.0830   41.0780 C   0  0  2  0  0  0  0  0  0  0  0  0
   36.8790   26.5640   42.2310 C   0  0  0  0  0  0  0  0  0  0  0  0
   37.0050   25.0800   42.3270 C   0  0  0  0  0  0  0  0  0  0  0  0
   38.3940   24.5390   42.2580 C   0  0  0  0  0  0  0  0  0  0  0  0
   39.2530   25.2230   41.3230 C   0  0  0  0  0  0  0  0  0  0  0  0
   39.1620   26.7630   41.4060 C   0  0  2  0  0  0  0  0  0  0  0  0
   37.3870   26.5190   40.2020 H   0  0  0  0  0  0  0  0  0  0  0  0
   35.8550   26.8440   41.9120 H   0  0  0  0  0  0  0  0  0  0  0  0
   37.0730   27.0980   43.1710 H   0  0  0  0  0  0  0  0  0  0  0  0
   36.5970   24.7790   43.3360 H   0  0  0  0  0  0  0  0  0  0  0  0
   36.2780   24.6680   41.6000 H   0  0  0  0  0  0  0  0  0  0  0  0
   38.7710   23.9770   43.1110 H   0  0  0  0  0  0  0  0  0  0  0  0
   38.1780   23.5780   41.6390 H   0  0  0  0  0  0  0  0  0  0  0  0
   40.3240   25.0060   41.5510 H   0  0  0  0  0  0  0  0  0  0  0  0
   39.1480   25.0060   40.2340 H   0  0  0  0  0  0  0  0  0  0  0  0
   39.9260   27.0560   40.6840 H   0  0  0  0  0  0  0  0  0  0  0  0
   39.4560   27.1730   42.7800 N   0  0  0  0  0  0  0  0  0  0  0  0
   40.6720   27.3290   43.4680 C   0  0  0  0  0  0  0  0  0  0  0  0
   41.4450   28.3410   43.3000 O   0  0  0  0  0  0  0  0  0  0  0  0
   40.9810   26.2750   44.3790 N   0  0  0  0  0  0  0  0  0  0  0  0
   38.6640   27.3580   43.5050 H   0  0  0  0  0  0  0  0  0  0  0  0
   40.3910   25.8900   45.1520 H   0  0  0  0  0  0  0  0  0  0  0  0
   41.8950   25.7350   44.3690 H   0  0  0  0  0  0  0  0  0  0  0  0
   39.4030   31.4230   39.6170 C   0  0  0  0  0  0  0  0  0  0  0  0
   39.5960   31.5990   38.2670 C   0  0  0  0  0  0  0  0  0  0  0  0
   40.5750   32.3730   37.7000 C   0  0  0  0  0  0  0  0  0  0  0  0
   41.3930   32.9960   38.6060 C   0  0  0  0  0  0  0  0  0  0  0  0
   41.2280   32.8420   39.9830 C   0  0  0  0  0  0  0  0  0  0  0  0
   40.2220   32.0480   40.4770 N   0  0  0  0  0  0  0  0  0  0  0  0
   38.9010   31.0670   37.6000 H   0  0  0  0  0  0  0  0  0  0  0  0
   40.7100   32.4980   36.6350 H   0  0  0  0  0  0  0  0  0  0  0  0
   42.2070   33.6370   38.2860 H   0  0  0  0  0  0  0  0  0  0  0  0
   42.0610   33.4750   41.0010 C   0  0  0  0  0  0  0  0  0  0  0  0
   42.1270   34.8340   40.9700 N   0  0  0  0  0  0  0  0  0  0  0  0
   42.9260   35.2840   41.9580 C   0  0  0  0  0  0  0  0  0  0  0  0
   43.1980   36.2980   42.2230 H   0  0  0  0  0  0  0  0  0  0  0  0
   43.3570   34.1650   42.6100 N   0  0  0  0  0  0  0  0  0  0  0  0
   43.9950   34.1500   43.4310 H   0  0  0  0  0  0  0  0  0  0  0  0
   42.8350   33.0710   42.0330 N   0  0  0  0  0  0  0  0  0  0  0  0
  1  9  1  0  0  0  0
  1  2  1  0  0  0  0
  2  7  1  0  0  0  0
  3  8  1  0  0  0  0
  3  2  2  0  0  0  0
  4  3  1  0  0  0  0
  5  4  2  0  0  0  0
  5  6  1  0  0  0  0
  6  1  2  0  0  0  0
  9 15  1  6  0  0  0
  9 14  1  0  0  0  0
  9 10  1  0  0  0  0
 10 11  1  0  0  0  0
 10 17  1  0  0  0  0
 11 18  1  0  0  0  0
 12 11  1  0  0  0  0
 12 20  1  0  0  0  0
 13 14  1  0  0  0  0
 13 22  1  0  0  0  0
 13 12  1  0  0  0  0
 14 24  1  6  0  0  0
 14 25  1  0  0  0  0
 16 10  1  0  0  0  0
 19 11  1  0  0  0  0
 21 12  1  0  0  0  0
 23 13  1  0  0  0  0
 25 26  1  0  0  0  0
 25 29  1  0  0  0  0
 26 28  1  0  0  0  0
 27 26  2  0  0  0  0
 28 30  1  0  0  0  0
 31 28  1  0  0  0  0
 32  5  1  0  0  0  0
 32 37  1  0  0  0  0
 33 32  2  0  0  0  0
 34 33  1  0  0  0  0
 34 35  2  0  0  0  0
 35 36  1  0  0  0  0
 36 37  2  0  0  0  0
 36 41  1  0  0  0  0
 38 33  1  0  0  0  0
 39 34  1  0  0  0  0
 40 35  1  0  0  0  0
 41 47  2  0  0  0  0
 42 41  1  0  0  0  0
 42 43  2  0  0  0  0
 43 44  1  0  0  0  0
 43 45  1  0  0  0  0
 45 46  1  0  0  0  0
 47 45  1  0  0  0  0
M  END
>  <minimizedAffinity>
-6.48895502

$$$$
