
 OpenBabel03252508143D

 35 38  0  0  1  0  0  0  0  0999 V2000
   46.1110   30.8830   46.8850 C   0  0  0  0  0  0  0  0  0  0  0  0
   47.0700   30.3550   46.8290 H   0  0  0  0  0  0  0  0  0  0  0  0
   45.2980   30.1590   46.6470 H   0  0  0  0  0  0  0  0  0  0  0  0
   45.9230   31.5380   48.2270 C   0  0  1  0  0  0  0  0  0  0  0  0
   45.6990   30.6240   49.3800 C   0  0  0  0  0  0  0  0  0  0  0  0
   46.9500   31.3550   49.2800 C   0  0  1  0  0  0  0  0  0  0  0  0
   45.4230   32.5220   48.2250 H   0  0  0  0  0  0  0  0  0  0  0  0
   45.6240   29.5260   49.1570 H   0  0  0  0  0  0  0  0  0  0  0  0
   44.9090   30.9240   50.1080 H   0  0  0  0  0  0  0  0  0  0  0  0
   47.0610   32.1910   50.0350 H   0  0  0  0  0  0  0  0  0  0  0  0
   48.2450   30.7560   48.8870 C   0  0  0  0  0  0  0  0  0  0  0  0
   49.1910   30.4250   50.0680 C   0  0  0  0  0  0  0  0  0  0  0  0
   49.5040   31.5990   49.2080 C   0  0  0  0  0  0  0  0  0  0  0  0
   48.3020   30.0830   48.0100 H   0  0  0  0  0  0  0  0  0  0  0  0
   48.8040   30.5950   51.0830 H   0  0  0  0  0  0  0  0  0  0  0  0
   49.8090   29.5040   49.9020 H   0  0  0  0  0  0  0  0  0  0  0  0
   50.3220   31.4810   48.4380 H   0  0  0  0  0  0  0  0  0  0  0  0
   49.3100   32.6030   49.5860 H   0  0  0  0  0  0  0  0  0  0  0  0
   45.7030   33.0970   46.1700 C   0  0  0  0  0  3  0  0  0  0  0  0
   46.0090   31.9200   45.7810 C   0  0  0  0  0  3  0  0  0  0  0  0
   44.5870   36.1240   44.3940 C   0  0  0  0  0  0  0  0  0  0  0  0
   45.2950   36.0720   43.2020 C   0  0  0  0  0  0  0  0  0  0  0  0
   46.1420   35.0170   43.0430 C   0  0  0  0  0  0  0  0  0  0  0  0
   46.2580   34.0840   44.0260 N   0  0  0  0  0  0  0  0  0  0  0  0
   45.5570   34.1560   45.1740 C   0  0  0  0  0  0  0  0  0  0  0  0
   44.7260   35.1940   45.3310 N   0  0  0  0  0  0  0  0  0  0  0  0
   43.8810   36.8940   44.6660 H   0  0  0  0  0  0  0  0  0  0  0  0
   45.1450   36.8420   42.4870 H   0  0  0  0  0  0  0  0  0  0  0  0
   46.9200   34.9000   41.8120 C   0  0  0  0  0  0  0  0  0  0  0  0
   48.1680   35.4110   41.6630 N   0  0  0  0  0  0  0  0  0  0  0  0
   48.5890   35.1200   40.4010 C   0  0  0  0  0  0  0  0  0  0  0  0
   49.5450   35.3850   39.9570 H   0  0  0  0  0  0  0  0  0  0  0  0
   47.6030   34.4330   39.7780 N   0  0  0  0  0  0  0  0  0  0  0  0
   47.6050   34.0570   38.7910 H   0  0  0  0  0  0  0  0  0  0  0  0
   46.5940   34.3070   40.6500 N   0  0  0  0  0  0  0  0  0  0  0  0
  1  4  1  0  0  0  0
  2  1  1  0  0  0  0
  3  1  1  0  0  0  0
  4  7  1  1  0  0  0
  4  6  1  0  0  0  0
  4  5  1  0  0  0  0
  5  9  1  0  0  0  0
  6  5  1  0  0  0  0
  6 10  1  1  0  0  0
  8  5  1  0  0  0  0
 11 13  1  0  0  0  0
 11  6  1  0  0  0  0
 11 12  1  0  0  0  0
 12 15  1  0  0  0  0
 13 18  1  0  0  0  0
 13 12  1  0  0  0  0
 14 11  1  0  0  0  0
 16 12  1  0  0  0  0
 17 13  1  0  0  0  0
 20 19  2  0  0  0  0
 20  1  1  0  0  0  0
 21 27  1  0  0  0  0
 21 26  1  0  0  0  0
 22 21  2  0  0  0  0
 23 22  1  0  0  0  0
 23 24  2  0  0  0  0
 24 25  1  0  0  0  0
 25 26  2  0  0  0  0
 25 19  1  0  0  0  0
 28 22  1  0  0  0  0
 29 23  1  0  0  0  0
 30 29  1  0  0  0  0
 31 30  2  0  0  0  0
 32 31  1  0  0  0  0
 33 31  1  0  0  0  0
 33 35  1  0  0  0  0
 34 33  1  0  0  0  0
 35 29  2  0  0  0  0
M  END
>  <minimizedAffinity>
-5.62978888

>  <minimizedRMSD>
0.702484071

$$$$
