
 OpenBabel03252507363D

 30 33  0  0  0  0  0  0  0  0999 V2000
   46.8800   33.4110   43.6420 C   0  0  0  0  0  0  0  0  0  0  0  0
   47.0090   33.6890   42.2580 C   0  0  0  0  0  0  0  0  0  0  0  0
   47.7870   32.8120   41.5030 C   0  0  0  0  0  0  0  0  0  0  0  0
   48.3630   31.7710   42.1130 N   0  0  0  0  0  0  0  0  0  0  0  0
   48.2250   31.5240   43.4360 C   0  0  0  0  0  0  0  0  0  0  0  0
   47.4870   32.3470   44.1810 N   0  0  0  0  0  0  0  0  0  0  0  0
   46.5500   34.5210   41.7680 H   0  0  0  0  0  0  0  0  0  0  0  0
   48.7030   30.6780   43.8860 H   0  0  0  0  0  0  0  0  0  0  0  0
   48.0650   34.2580   39.5790 C   0  0  0  0  0  0  0  0  0  0  0  0
   48.0130   32.9680   40.0690 C   0  0  0  0  0  0  0  0  0  0  0  0
   48.1740   31.9210   39.1890 C   0  0  0  0  0  0  0  0  0  0  0  0
   48.3840   32.1180   37.8440 C   0  0  0  0  0  0  0  0  0  0  0  0
   48.5660   31.2650   36.8040 N   0  0  0  0  0  0  0  0  0  0  0  0
   48.7310   32.0050   35.6680 C   0  0  0  0  0  0  0  0  0  0  0  0
   48.6500   33.3010   36.0230 N   0  0  0  0  0  0  0  0  0  0  0  0
   48.4370   33.4030   37.3500 C   0  0  0  0  0  0  0  0  0  0  0  0
   48.2790   34.4610   38.2120 C   0  0  0  0  0  0  0  0  0  0  0  0
   47.9520   35.1600   40.1730 H   0  0  0  0  0  0  0  0  0  0  0  0
   48.1240   30.9460   39.6260 H   0  0  0  0  0  0  0  0  0  0  0  0
   48.5620   30.2270   36.9590 H   0  0  0  0  0  0  0  0  0  0  0  0
   48.8880   31.4440   34.7580 H   0  0  0  0  0  0  0  0  0  0  0  0
   48.3270   35.4520   37.7850 H   0  0  0  0  0  0  0  0  0  0  0  0
   46.0990   34.2950   44.3910 O   0  0  0  0  0  0  0  0  0  0  0  0
   45.5980   33.9890   45.6270 C   0  0  0  0  0  0  0  0  0  0  0  0
   46.1280   32.8880   46.2280 N   0  0  0  0  0  0  0  0  0  0  0  0
   45.5200   32.7380   47.4320 C   0  0  0  0  0  0  0  0  0  0  0  0
   45.7430   31.9310   48.1460 H   0  0  0  0  0  0  0  0  0  0  0  0
   44.6300   33.7350   47.5650 N   0  0  0  0  0  0  0  0  0  0  0  0
   44.0090   33.8850   48.3890 H   0  0  0  0  0  0  0  0  0  0  0  0
   44.6820   34.4860   46.4740 N   0  0  0  0  0  0  0  0  0  0  0  0
  1  6  1  0  0  0  0
  1 23  1  0  0  0  0
  2  1  2  0  0  0  0
  3  4  2  0  0  0  0
  3  2  1  0  0  0  0
  4  5  1  0  0  0  0
  5  8  1  0  0  0  0
  5  6  2  0  0  0  0
  7  2  1  0  0  0  0
  9 10  1  0  0  0  0
  9 18  1  0  0  0  0
 10  3  1  0  0  0  0
 11 19  1  0  0  0  0
 11 10  2  0  0  0  0
 12 11  1  0  0  0  0
 13 20  1  0  0  0  0
 13 12  1  0  0  0  0
 14 15  2  0  0  0  0
 14 13  1  0  0  0  0
 15 16  1  0  0  0  0
 16 12  2  0  0  0  0
 16 17  1  0  0  0  0
 17  9  2  0  0  0  0
 21 14  1  0  0  0  0
 22 17  1  0  0  0  0
 23 24  1  0  0  0  0
 24 25  1  0  0  0  0
 24 30  2  0  0  0  0
 25 26  2  0  0  0  0
 26 28  1  0  0  0  0
 26 27  1  0  0  0  0
 28 29  1  0  0  0  0
 30 28  1  0  0  0  0
M  END
>  <minimizedAffinity>
-5.1572957

>  <minimizedRMSD>
2.844733

$$$$
