
 OpenBabel03252506563D

 36 40  0  0  0  0  0  0  0  0999 V2000
   47.2210   31.2300   45.2100 C   0  0  0  0  0  0  0  0  0  0  0  0
   46.9210   32.5740   45.1450 C   0  0  0  0  0  0  0  0  0  0  0  0
   46.3500   33.2610   46.1930 C   0  0  0  0  0  0  0  0  0  0  0  0
   46.0460   32.6030   47.3890 C   0  0  0  0  0  0  0  0  0  0  0  0
   45.5010   32.9460   48.5840 N   0  0  0  0  0  0  0  0  0  0  0  0
   45.4660   31.8350   49.3690 C   0  0  0  0  0  0  0  0  0  0  0  0
   45.9910   30.8260   48.6400 N   0  0  0  0  0  0  0  0  0  0  0  0
   46.3570   31.2620   47.4240 C   0  0  0  0  0  0  0  0  0  0  0  0
   46.9190   30.5610   46.4090 C   0  0  0  0  0  0  0  0  0  0  0  0
   47.6700   30.6930   44.3870 H   0  0  0  0  0  0  0  0  0  0  0  0
   46.1000   34.3220   46.1780 H   0  0  0  0  0  0  0  0  0  0  0  0
   45.1930   33.9430   48.7580 H   0  0  0  0  0  0  0  0  0  0  0  0
   45.0750   31.8410   50.3730 H   0  0  0  0  0  0  0  0  0  0  0  0
   46.7080   35.0400   42.4220 C   0  0  0  0  0  0  0  0  0  0  0  0
   47.7950   34.6960   41.6170 C   0  0  0  0  0  0  0  0  0  0  0  0
   48.5990   33.6140   42.0130 C   0  0  0  0  0  0  0  0  0  0  0  0
   48.2820   32.9470   43.1690 N   0  0  0  0  0  0  0  0  0  0  0  0
   47.2150   33.3170   43.9230 C   0  0  0  0  0  0  0  0  0  0  0  0
   46.4480   34.3450   43.5490 N   0  0  0  0  0  0  0  0  0  0  0  0
   46.1050   35.8790   42.0930 H   0  0  0  0  0  0  0  0  0  0  0  0
   48.0860   35.1890   40.6980 H   0  0  0  0  0  0  0  0  0  0  0  0
   49.4470   33.2690   41.4770 H   0  0  0  0  0  0  0  0  0  0  0  0
   47.2130   29.1250   46.5470 C   0  0  0  0  0  0  0  0  0  0  0  0
   48.3580   28.5090   46.0770 C   0  0  0  0  0  0  0  0  0  0  0  0
   48.1900   27.1670   46.4350 C   0  0  0  0  0  0  0  0  0  0  0  0
   46.9670   27.0440   47.0970 C   0  0  0  0  0  0  0  0  0  0  0  0
   46.4190   28.2570   47.1360 O   0  0  0  0  0  0  0  0  0  0  0  0
   49.1820   28.9540   45.5580 H   0  0  0  0  0  0  0  0  0  0  0  0
   48.8750   26.3540   46.2430 H   0  0  0  0  0  0  0  0  0  0  0  0
   46.4530   25.7840   47.6190 C   0  0  0  0  0  0  0  0  0  0  0  0
   46.7240   24.9230   48.6230 N   0  0  0  0  0  0  0  0  0  0  0  0
   45.8490   23.9000   48.5710 C   0  0  0  0  0  0  0  0  0  0  0  0
   45.7970   23.0530   49.2280 H   0  0  0  0  0  0  0  0  0  0  0  0
   45.0190   24.1240   47.5200 N   0  0  0  0  0  0  0  0  0  0  0  0
   44.2180   23.5050   47.2060 H   0  0  0  0  0  0  0  0  0  0  0  0
   45.4000   25.2600   46.9620 N   0  0  0  0  0  0  0  0  0  0  0  0
  1  9  1  0  0  0  0
  2  1  2  0  0  0  0
  2  3  1  0  0  0  0
  3  4  2  0  0  0  0
  4  8  1  0  0  0  0
  4  5  1  0  0  0  0
  5 12  1  0  0  0  0
  5  6  1  0  0  0  0
  6 13  1  0  0  0  0
  7  6  2  0  0  0  0
  8  7  1  0  0  0  0
  9 23  1  0  0  0  0
  9  8  2  0  0  0  0
 10  1  1  0  0  0  0
 11  3  1  0  0  0  0
 14 19  1  0  0  0  0
 15 16  1  0  0  0  0
 15 14  2  0  0  0  0
 16 17  2  0  0  0  0
 17 18  1  0  0  0  0
 18  2  1  0  0  0  0
 19 18  2  0  0  0  0
 20 14  1  0  0  0  0
 21 15  1  0  0  0  0
 22 16  1  0  0  0  0
 23 27  1  0  0  0  0
 24 25  1  0  0  0  0
 24 23  2  0  0  0  0
 25 26  2  0  0  0  0
 26 27  1  0  0  0  0
 26 30  1  0  0  0  0
 28 24  1  0  0  0  0
 29 25  1  0  0  0  0
 30 31  1  0  0  0  0
 32 31  2  0  0  0  0
 32 33  1  0  0  0  0
 34 32  1  0  0  0  0
 35 34  1  0  0  0  0
 36 34  1  0  0  0  0
 36 30  2  0  0  0  0
M  END
>  <minimizedAffinity>
-5.59025812

>  <minimizedRMSD>
0.914215565

$$$$
