
     RDKit          3D

 43 47  0  0  0  0  0  0  0  0999 V2000
   47.5327   32.6751   44.2702 C   0  0  0  0  0  0  0  0  0  0  0  0
   46.8402   33.6458   43.5528 C   0  0  0  0  0  0  0  0  0  0  0  0
   45.7841   34.3659   44.0941 C   0  0  0  0  0  0  0  0  0  0  0  0
   45.3894   34.1135   45.4186 C   0  0  0  0  0  0  0  0  0  0  0  0
   44.4444   34.5974   46.2483 N   0  0  0  0  0  0  0  0  0  0  0  0
   44.5243   33.9723   47.4349 C   0  0  0  0  0  0  0  0  0  0  0  0
   45.5322   33.0961   47.3249 N   0  0  0  0  0  0  0  0  0  0  0  0
   46.0920   33.1512   46.0981 C   0  0  0  0  0  0  0  0  0  0  0  0
   47.1484   32.4155   45.5896 C   0  0  0  0  0  0  0  0  0  0  0  0
   47.0693   33.4271   39.9083 C   0  0  0  0  0  0  0  0  0  0  0  0
   47.9723   34.4356   39.5799 C   0  0  0  0  0  0  0  0  0  0  0  0
   48.5013   35.1923   40.6329 C   0  0  0  0  0  0  0  0  0  0  0  0
   48.1186   34.9188   41.9272 N   0  0  0  0  0  0  0  0  0  0  0  0
   47.2358   33.9229   42.1733 C   0  0  0  0  0  0  0  0  0  0  0  0
   46.6866   33.1523   41.1925 N   0  0  0  0  0  0  0  0  0  0  0  0
   44.9147   35.5957   43.1695 S   0  0  0  0  0  0  0  0  0  0  0  0
   42.3243   35.6194   42.6973 N   0  0  0  0  0  0  0  0  0  0  0  0
   43.5169   34.9393   42.2169 C   0  0  1  0  0  0  0  0  0  0  0  0
   43.8045   35.3080   40.7598 C   0  0  0  0  0  0  0  0  0  0  0  0
   42.6808   35.3156   39.9598 O   0  0  0  0  0  0  0  0  0  0  0  0
   41.5529   34.7673   40.5254 C   0  0  0  0  0  0  0  0  0  0  0  0
   41.2182   35.5049   41.7928 C   0  0  1  0  0  0  0  0  0  0  0  0
   48.3441   32.1524   43.7887 H   0  0  0  0  0  0  0  0  0  0  0  0
   43.7588   35.3472   45.9925 H   0  0  0  0  0  0  0  0  0  0  0  0
   43.9131   34.1227   48.3215 H   0  0  0  0  0  0  0  0  0  0  0  0
   47.6697   31.6703   46.1610 H   0  0  0  0  0  0  0  0  0  0  0  0
   46.5916   32.7735   39.1811 H   0  0  0  0  0  0  0  0  0  0  0  0
   48.2194   34.5870   38.5555 H   0  0  0  0  0  0  0  0  0  0  0  0
   49.1998   35.9766   40.4110 H   0  0  0  0  0  0  0  0  0  0  0  0
   42.5741   36.6314   42.9095 H   0  0  0  0  0  0  0  0  0  0  0  0
   43.3851   33.8543   42.3172 H   0  0  0  0  0  0  0  0  0  0  0  0
   44.4571   34.5633   40.3142 H   0  0  0  0  0  0  0  0  0  0  0  0
   44.3053   36.2985   40.7094 H   0  0  0  0  0  0  0  0  0  0  0  0
   40.7290   34.8574   39.8229 H   0  0  0  0  0  0  0  0  0  0  0  0
   41.7881   33.7222   40.8064 H   0  0  0  0  0  0  0  0  0  0  0  0
   40.8635   36.5440   41.5732 H   0  0  0  0  0  0  0  0  0  0  0  0
   40.0657   34.7944   42.4228 C   0  0  0  0  0  0  0  0  0  0  0  0
   39.5983   35.0373   43.6813 N   0  0  0  0  0  0  0  0  0  0  0  0
   38.5464   34.1914   43.8836 C   0  0  0  0  0  0  0  0  0  0  0  0
   38.0002   34.1867   44.8089 H   0  0  0  0  0  0  0  0  0  0  0  0
   38.3662   33.4429   42.7785 N   0  0  0  0  0  0  0  0  0  0  0  0
   37.6266   32.7074   42.6549 H   0  0  0  0  0  0  0  0  0  0  0  0
   39.3038   33.8258   41.8972 N   0  0  0  0  0  0  0  0  0  0  0  0
  1  9  2  0
  2  3  2  0
  2  1  1  0
  3  4  1  0
  4  8  2  0
  4  5  1  0
  5  6  1  0
  7  6  2  0
  8  7  1  0
  9  8  1  0
 10 15  2  0
 11 10  1  0
 11 12  2  0
 12 13  1  0
 13 14  2  0
 14  2  1  0
 15 14  1  0
 16  3  1  0
 18 17  1  0
 18 16  1  0
 19 18  1  0
 20 21  1  0
 20 19  1  0
 21 22  1  0
 22 17  1  0
  1 23  1  0
  5 24  1  0
  6 25  1  0
  9 26  1  0
 10 27  1  0
 11 28  1  0
 12 29  1  0
 17 30  1  0
 18 31  1  6
 19 32  1  0
 19 33  1  0
 21 34  1  0
 21 35  1  0
 22 36  1  6
 37 38  1  0
 38 39  2  0
 39 40  1  0
 39 41  1  0
 41 42  1  0
 41 43  1  0
 43 37  2  0
 22 37  1  0
M  ISO  8  23  14  24   9  25  14  26  14  27  14  28  14  29  14  30   5
M  ISO  8  31  13  32  13  33  13  34  13  35  13  36  13  40  14  42   9
M  END
>  <DihAtoms>  (1) 
20,21,36,37

>  <DihDeg>  (1) 
79.78042126116236

$$$$
