
     RDKit          3D

 36 40  0  0  0  0  0  0  0  0999 V2000
   47.2663   31.3923   45.1466 C   0  0  0  0  0  0  0  0  0  0  0  0
   46.8745   32.7127   45.1289 C   0  0  0  0  0  0  0  0  0  0  0  0
   46.2408   33.3172   46.1923 C   0  0  0  0  0  0  0  0  0  0  0  0
   45.9657   32.5935   47.3572 C   0  0  0  0  0  0  0  0  0  0  0  0
   45.3808   32.8498   48.5539 N   0  0  0  0  0  0  0  0  0  0  0  0
   45.4117   31.7089   49.2947 C   0  0  0  0  0  0  0  0  0  0  0  0
   46.0175   30.7683   48.5367 N   0  0  0  0  0  0  0  0  0  0  0  0
   46.3686   31.2764   47.3465 C   0  0  0  0  0  0  0  0  0  0  0  0
   46.9941   30.6559   46.3139 C   0  0  0  0  0  0  0  0  0  0  0  0
   46.4785   35.1954   42.4405 C   0  0  0  0  0  0  0  0  0  0  0  0
   47.6498   35.0301   41.7019 C   0  0  0  0  0  0  0  0  0  0  0  0
   48.5747   34.0634   42.1309 C   0  0  0  0  0  0  0  0  0  0  0  0
   48.2857   33.3284   43.2524 N   0  0  0  0  0  0  0  0  0  0  0  0
   47.1331   33.5216   43.9424 C   0  0  0  0  0  0  0  0  0  0  0  0
   46.2506   34.4409   43.5367 N   0  0  0  0  0  0  0  0  0  0  0  0
   47.3849   29.2398   46.4019 C   0  0  0  0  0  0  0  0  0  0  0  0
   48.6761   28.7937   46.6187 C   0  0  0  0  0  0  0  0  0  0  0  0
   48.5541   27.3997   46.6233 C   0  0  0  0  0  0  0  0  0  0  0  0
   47.2124   27.0802   46.4119 C   0  0  0  0  0  0  0  0  0  0  0  0
   46.5508   28.2289   46.2847 O   0  0  0  0  0  0  0  0  0  0  0  0
   47.7632   30.9201   44.3115 H   0  0  0  0  0  0  0  0  0  0  0  0
   45.9168   34.3585   46.2140 H   0  0  0  0  0  0  0  0  0  0  0  0
   45.0009   33.8152   48.7614 H   0  0  0  0  0  0  0  0  0  0  0  0
   45.0073   31.6478   50.2920 H   0  0  0  0  0  0  0  0  0  0  0  0
   45.7817   35.9482   42.0876 H   0  0  0  0  0  0  0  0  0  0  0  0
   47.9226   35.5838   40.8129 H   0  0  0  0  0  0  0  0  0  0  0  0
   49.4949   33.8556   41.6450 H   0  0  0  0  0  0  0  0  0  0  0  0
   49.5635   29.3780   46.7520 H   0  0  0  0  0  0  0  0  0  0  0  0
   49.3482   26.6797   46.7644 H   0  0  0  0  0  0  0  0  0  0  0  0
   46.7052   25.7148   46.3537 C   0  0  0  0  0  0  0  0  0  0  0  0
   45.9282   24.8959   47.0930 N   0  0  0  0  0  0  0  0  0  0  0  0
   45.8328   23.7034   46.4729 C   0  0  0  0  0  0  0  0  0  0  0  0
   45.2887   22.8396   46.8017 H   0  0  0  0  0  0  0  0  0  0  0  0
   46.5613   23.7783   45.3288 N   0  0  0  0  0  0  0  0  0  0  0  0
   46.6915   23.0071   44.6137 H   0  0  0  0  0  0  0  0  0  0  0  0
   47.0762   24.9942   45.2770 N   0  0  0  0  0  0  0  0  0  0  0  0
  1  9  2  0
  2  1  1  0
  2  3  2  0
  3  4  1  0
  4  5  1  0
  5  6  1  0
  7  6  2  0
  8  4  2  0
  8  7  1  0
  9 16  1  0
  9  8  1  0
 10 15  2  0
 11 12  2  0
 11 10  1  0
 12 13  1  0
 13 14  2  0
 14  2  1  0
 15 14  1  0
 16 17  2  0
 17 18  1  0
 19 18  2  0
 20 16  1  0
 20 19  1  0
  1 21  1  0
  3 22  1  0
  5 23  1  0
  6 24  1  0
 10 25  1  0
 11 26  1  0
 12 27  1  0
 17 28  1  0
 18 29  1  0
 30 31  1  0
 31 32  2  0
 32 33  1  0
 32 34  1  0
 34 35  1  0
 34 36  1  0
 36 30  2  0
 19 30  1  0
M  ISO  8  21  14  22  14  23   9  24  14  25  14  26  14  27  14  28  14
M  ISO  3  29  14  33  14  35   9
M  END
>  <DihAtoms>  (1) 
17,18,29,30

>  <DihDeg>  (1) 
110.6478786377071

$$$$
