
 OpenBabel03242516363D

 42 45  0  0  1  0  0  0  0  0999 V2000
   37.6640   32.0580   40.5750 C   0  0  2  0  0  0  0  0  0  0  0  0
   38.6810   31.6040   39.4960 C   0  0  1  0  0  0  0  0  0  0  0  0
   37.8210   31.3870   38.4610 O   0  0  0  0  0  0  0  0  0  0  0  0
   36.8250   30.5600   39.0170 C   0  0  0  0  0  0  0  0  0  0  0  0
   36.8350   30.7940   40.5430 C   0  0  1  0  0  0  0  0  0  0  0  0
   38.1560   32.2390   41.5340 H   0  0  0  0  0  0  0  0  0  0  0  0
   39.0910   30.6360   39.8700 H   0  0  0  0  0  0  0  0  0  0  0  0
   35.8260   30.7620   38.5900 H   0  0  0  0  0  0  0  0  0  0  0  0
   37.1380   29.5170   38.8340 H   0  0  0  0  0  0  0  0  0  0  0  0
   35.8270   30.9670   40.9530 H   0  0  0  0  0  0  0  0  0  0  0  0
   41.5290   33.8260   38.3100 C   0  0  0  0  0  0  0  0  0  0  0  0
   40.6960   32.7070   38.3200 C   0  0  0  0  0  0  0  0  0  0  0  0
   39.7000   32.6360   39.2680 C   0  0  0  0  0  0  0  0  0  0  0  0
   39.5940   33.6900   40.1490 N   0  0  0  0  0  0  0  0  0  0  0  0
   40.4090   34.7570   40.1160 C   0  0  0  0  0  0  0  0  0  0  0  0
   41.3800   34.8200   39.1890 N   0  0  0  0  0  0  0  0  0  0  0  0
   42.2900   33.7890   37.5200 H   0  0  0  0  0  0  0  0  0  0  0  0
   40.7150   31.8530   37.6740 H   0  0  0  0  0  0  0  0  0  0  0  0
   40.2890   35.5640   40.8300 H   0  0  0  0  0  0  0  0  0  0  0  0
   36.8640   33.0620   40.0990 O   0  0  0  0  0  0  0  0  0  0  0  0
   36.7380   32.9450   39.1270 H   0  0  0  0  0  0  0  0  0  0  0  0
   37.5110   29.7570   41.1130 O   0  0  0  0  0  0  0  0  0  0  0  0
   37.0470   28.0060   42.6220 C   0  0  1  0  0  0  0  0  0  0  0  0
   37.3200   29.5890   42.4830 C   0  0  1  0  0  0  0  0  0  0  0  0
   38.5070   29.6300   43.1120 O   0  0  0  0  0  0  0  0  0  0  0  0
   39.2470   28.7300   42.2910 C   0  0  0  0  0  0  0  0  0  0  0  0
   38.4300   27.4650   42.4260 C   0  0  1  0  0  0  0  0  0  0  0  0
   36.2950   27.7170   41.9100 H   0  0  0  0  0  0  0  0  0  0  0  0
   36.3870   29.9660   42.8870 H   0  0  0  0  0  0  0  0  0  0  0  0
   39.3180   29.1040   41.2680 H   0  0  0  0  0  0  0  0  0  0  0  0
   40.2560   28.6170   42.7170 H   0  0  0  0  0  0  0  0  0  0  0  0
   38.5230   26.8810   41.4860 H   0  0  0  0  0  0  0  0  0  0  0  0
   36.7130   27.8320   43.9710 O   0  0  0  0  0  0  0  0  0  0  0  0
   37.5180   27.7980   44.5170 H   0  0  0  0  0  0  0  0  0  0  0  0
   38.8770   26.7570   43.5230 O   0  0  0  0  0  0  0  0  0  0  0  0
   40.1360   26.1710   43.4690 C   0  0  0  0  0  0  0  0  0  0  0  0
   41.2580   26.5930   44.1060 N   0  0  0  0  0  0  0  0  0  0  0  0
   42.2960   25.7620   43.8120 C   0  0  0  0  0  0  0  0  0  0  0  0
   43.2430   26.0130   44.2730 H   0  0  0  0  0  0  0  0  0  0  0  0
   41.7960   24.8170   42.9780 N   0  0  0  0  0  0  0  0  0  0  0  0
   42.4500   24.0800   42.6360 H   0  0  0  0  0  0  0  0  0  0  0  0
   40.5210   25.0800   42.7920 N   0  0  0  0  0  0  0  0  0  0  0  0
  1  6  1  1  0  0  0
  2  7  1  1  0  0  0
  2  1  1  0  0  0  0
  3  4  1  0  0  0  0
  3  2  1  0  0  0  0
  4  5  1  0  0  0  0
  5  1  1  0  0  0  0
  5 10  1  1  0  0  0
  5 22  1  0  0  0  0
  8  4  1  0  0  0  0
  9  4  1  0  0  0  0
 11 12  2  0  0  0  0
 11 16  1  0  0  0  0
 12 13  1  0  0  0  0
 13  2  1  0  0  0  0
 13 14  2  0  0  0  0
 15 14  1  0  0  0  0
 15 19  1  0  0  0  0
 16 15  2  0  0  0  0
 17 11  1  0  0  0  0
 18 12  1  0  0  0  0
 20  1  1  0  0  0  0
 21 20  1  0  0  0  0
 22 24  1  0  0  0  0
 23 28  1  6  0  0  0
 23 33  1  0  0  0  0
 24 23  1  0  0  0  0
 24 29  1  1  0  0  0
 24 25  1  0  0  0  0
 26 27  1  0  0  0  0
 26 31  1  0  0  0  0
 26 25  1  0  0  0  0
 27 32  1  6  0  0  0
 27 23  1  0  0  0  0
 27 35  1  0  0  0  0
 30 26  1  0  0  0  0
 33 34  1  0  0  0  0
 36 35  1  0  0  0  0
 36 37  1  0  0  0  0
 38 37  2  0  0  0  0
 38 39  1  0  0  0  0
 40 38  1  0  0  0  0
 41 40  1  0  0  0  0
 42 40  1  0  0  0  0
 42 36  2  0  0  0  0
M  END
>  <minimizedAffinity>
-6.29238272

$$$$

 OpenBabel03242516363D

 42 45  0  0  1  0  0  0  0  0999 V2000
   38.0680   32.4260   40.5910 C   0  0  2  0  0  0  0  0  0  0  0  0
   38.8860   31.9350   39.3690 C   0  0  1  0  0  0  0  0  0  0  0  0
   37.8820   31.8480   38.4520 O   0  0  0  0  0  0  0  0  0  0  0  0
   36.8910   31.0900   39.1070 C   0  0  0  0  0  0  0  0  0  0  0  0
   37.1230   31.2470   40.6240 C   0  0  1  0  0  0  0  0  0  0  0  0
   38.6960   32.5140   41.4810 H   0  0  0  0  0  0  0  0  0  0  0  0
   39.2460   30.9160   39.6490 H   0  0  0  0  0  0  0  0  0  0  0  0
   35.8700   31.4020   38.8250 H   0  0  0  0  0  0  0  0  0  0  0  0
   37.0750   30.0320   38.8450 H   0  0  0  0  0  0  0  0  0  0  0  0
   36.1980   31.4910   41.1720 H   0  0  0  0  0  0  0  0  0  0  0  0
   41.7860   33.9170   37.9160 C   0  0  0  0  0  0  0  0  0  0  0  0
   40.8670   32.8720   38.0070 C   0  0  0  0  0  0  0  0  0  0  0  0
   39.9630   32.8790   39.0450 C   0  0  0  0  0  0  0  0  0  0  0  0
   40.0290   33.9320   39.9300 N   0  0  0  0  0  0  0  0  0  0  0  0
   40.9240   34.9270   39.8170 C   0  0  0  0  0  0  0  0  0  0  0  0
   41.8050   34.9150   38.8030 N   0  0  0  0  0  0  0  0  0  0  0  0
   42.4640   33.8210   37.0570 H   0  0  0  0  0  0  0  0  0  0  0  0
   40.7540   32.0240   37.3630 H   0  0  0  0  0  0  0  0  0  0  0  0
   40.9400   35.7380   40.5390 H   0  0  0  0  0  0  0  0  0  0  0  0
   37.3140   33.5210   40.2630 O   0  0  0  0  0  0  0  0  0  0  0  0
   37.0520   33.4640   39.3140 H   0  0  0  0  0  0  0  0  0  0  0  0
   37.7630   30.1250   41.0610 O   0  0  0  0  0  0  0  0  0  0  0  0
   36.6090   28.2660   41.9380 C   0  0  1  0  0  0  0  0  0  0  0  0
   37.3630   29.6430   42.3050 C   0  0  1  0  0  0  0  0  0  0  0  0
   38.4190   29.1140   42.9450 O   0  0  0  0  0  0  0  0  0  0  0  0
   38.9480   28.2970   41.9030 C   0  0  0  0  0  0  0  0  0  0  0  0
   37.7770   27.3850   41.6180 C   0  0  1  0  0  0  0  0  0  0  0  0
   35.8990   28.4550   41.1530 H   0  0  0  0  0  0  0  0  0  0  0  0
   36.5450   30.1710   42.7830 H   0  0  0  0  0  0  0  0  0  0  0  0
   39.2540   28.9040   41.0490 H   0  0  0  0  0  0  0  0  0  0  0  0
   39.8150   27.7440   42.2970 H   0  0  0  0  0  0  0  0  0  0  0  0
   37.8040   27.0980   40.5450 H   0  0  0  0  0  0  0  0  0  0  0  0
   36.0740   27.8320   43.1580 O   0  0  0  0  0  0  0  0  0  0  0  0
   36.7580   27.3820   43.6860 H   0  0  0  0  0  0  0  0  0  0  0  0
   37.8500   26.2870   42.4510 O   0  0  0  0  0  0  0  0  0  0  0  0
   37.8380   25.0180   41.8840 C   0  0  0  0  0  0  0  0  0  0  0  0
   36.9160   24.5210   41.0210 N   0  0  0  0  0  0  0  0  0  0  0  0
   37.2410   23.2430   40.6840 C   0  0  0  0  0  0  0  0  0  0  0  0
   36.5640   22.7530   39.9950 H   0  0  0  0  0  0  0  0  0  0  0  0
   38.3830   22.9560   41.3560 N   0  0  0  0  0  0  0  0  0  0  0  0
   38.7950   22.0070   41.2250 H   0  0  0  0  0  0  0  0  0  0  0  0
   38.7150   24.0180   42.0560 N   0  0  0  0  0  0  0  0  0  0  0  0
  1  5  1  0  0  0  0
  1  6  1  1  0  0  0
  2  7  1  1  0  0  0
  2  1  1  0  0  0  0
  3  4  1  0  0  0  0
  3  2  1  0  0  0  0
  4  5  1  0  0  0  0
  5 22  1  0  0  0  0
  5 10  1  1  0  0  0
  8  4  1  0  0  0  0
  9  4  1  0  0  0  0
 11 12  2  0  0  0  0
 11 16  1  0  0  0  0
 12 13  1  0  0  0  0
 13  2  1  0  0  0  0
 13 14  2  0  0  0  0
 15 14  1  0  0  0  0
 15 19  1  0  0  0  0
 16 15  2  0  0  0  0
 17 11  1  0  0  0  0
 18 12  1  0  0  0  0
 20  1  1  0  0  0  0
 21 20  1  0  0  0  0
 22 24  1  0  0  0  0
 23 28  1  6  0  0  0
 23 24  1  0  0  0  0
 23 33  1  0  0  0  0
 24 29  1  1  0  0  0
 24 25  1  0  0  0  0
 26 31  1  0  0  0  0
 26 25  1  0  0  0  0
 27 32  1  6  0  0  0
 27 26  1  0  0  0  0
 27 23  1  0  0  0  0
 27 35  1  0  0  0  0
 30 26  1  0  0  0  0
 33 34  1  0  0  0  0
 36 42  2  0  0  0  0
 36 35  1  0  0  0  0
 37 36  1  0  0  0  0
 38 37  2  0  0  0  0
 38 40  1  0  0  0  0
 39 38  1  0  0  0  0
 40 42  1  0  0  0  0
 41 40  1  0  0  0  0
M  END
>  <minimizedAffinity>
-6.27423859

$$$$

 OpenBabel03242516363D

 42 45  0  0  1  0  0  0  0  0999 V2000
   36.9080   28.9490   41.7790 C   0  0  2  0  0  0  0  0  0  0  0  0
   37.9720   27.9920   41.1830 C   0  0  1  0  0  0  0  0  0  0  0  0
   38.9040   28.0530   42.1750 O   0  0  0  0  0  0  0  0  0  0  0  0
   39.0950   29.4350   42.3740 C   0  0  0  0  0  0  0  0  0  0  0  0
   37.8220   30.1500   41.8750 C   0  0  1  0  0  0  0  0  0  0  0  0
   36.0680   29.0880   41.0930 H   0  0  0  0  0  0  0  0  0  0  0  0
   38.3460   28.5060   40.2660 H   0  0  0  0  0  0  0  0  0  0  0  0
   39.3030   29.6820   43.4310 H   0  0  0  0  0  0  0  0  0  0  0  0
   39.9310   29.7390   41.7180 H   0  0  0  0  0  0  0  0  0  0  0  0
   37.4380   30.8880   42.5990 H   0  0  0  0  0  0  0  0  0  0  0  0
   36.4040   24.8150   39.8030 C   0  0  0  0  0  0  0  0  0  0  0  0
   36.8660   26.1320   39.7780 C   0  0  0  0  0  0  0  0  0  0  0  0
   37.4000   26.6640   40.9300 C   0  0  0  0  0  0  0  0  0  0  0  0
   37.4420   25.8480   42.0390 N   0  0  0  0  0  0  0  0  0  0  0  0
   36.9910   24.5830   42.0340 C   0  0  0  0  0  0  0  0  0  0  0  0
   36.4710   24.0690   40.9080 N   0  0  0  0  0  0  0  0  0  0  0  0
   35.9970   24.4840   38.8390 H   0  0  0  0  0  0  0  0  0  0  0  0
   36.8670   26.8250   38.9620 H   0  0  0  0  0  0  0  0  0  0  0  0
   37.0450   23.9760   42.9320 H   0  0  0  0  0  0  0  0  0  0  0  0
   36.5970   28.5920   43.0630 O   0  0  0  0  0  0  0  0  0  0  0  0
   37.3900   28.1900   43.4910 H   0  0  0  0  0  0  0  0  0  0  0  0
   38.0920   30.6540   40.6380 O   0  0  0  0  0  0  0  0  0  0  0  0
   38.8650   32.8510   41.0020 C   0  0  1  0  0  0  0  0  0  0  0  0
   37.6610   31.9580   40.4070 C   0  0  1  0  0  0  0  0  0  0  0  0
   37.8240   32.2650   39.1090 O   0  0  0  0  0  0  0  0  0  0  0  0
   39.1660   31.8210   38.9230 C   0  0  0  0  0  0  0  0  0  0  0  0
   39.9020   32.6670   39.9370 C   0  0  1  0  0  0  0  0  0  0  0  0
   39.1020   32.5030   41.9920 H   0  0  0  0  0  0  0  0  0  0  0  0
   36.8510   32.3140   41.0340 H   0  0  0  0  0  0  0  0  0  0  0  0
   39.2490   30.7460   39.0990 H   0  0  0  0  0  0  0  0  0  0  0  0
   39.4720   32.0540   37.8910 H   0  0  0  0  0  0  0  0  0  0  0  0
   40.7820   32.0960   40.3020 H   0  0  0  0  0  0  0  0  0  0  0  0
   38.3950   34.1680   40.9100 O   0  0  0  0  0  0  0  0  0  0  0  0
   38.5150   34.5070   40.0060 H   0  0  0  0  0  0  0  0  0  0  0  0
   40.2650   33.8600   39.3460 O   0  0  0  0  0  0  0  0  0  0  0  0
   41.5780   34.0190   38.9190 C   0  0  0  0  0  0  0  0  0  0  0  0
   42.6330   33.2180   39.2160 N   0  0  0  0  0  0  0  0  0  0  0  0
   43.7580   33.6940   38.6160 C   0  0  0  0  0  0  0  0  0  0  0  0
   44.6610   33.1220   38.7900 H   0  0  0  0  0  0  0  0  0  0  0  0
   43.3810   34.8090   37.9420 N   0  0  0  0  0  0  0  0  0  0  0  0
   44.1170   35.3230   37.4100 H   0  0  0  0  0  0  0  0  0  0  0  0
   42.0920   34.9780   38.1360 N   0  0  0  0  0  0  0  0  0  0  0  0
  1  6  1  6  0  0  0
  1  5  1  0  0  0  0
  1 20  1  0  0  0  0
  2  7  1  6  0  0  0
  2  1  1  0  0  0  0
  2  3  1  0  0  0  0
  3  4  1  0  0  0  0
  4  8  1  0  0  0  0
  5  4  1  0  0  0  0
  5 10  1  1  0  0  0
  9  4  1  0  0  0  0
 11 16  1  0  0  0  0
 12 11  2  0  0  0  0
 12 13  1  0  0  0  0
 13  2  1  0  0  0  0
 13 14  2  0  0  0  0
 15 14  1  0  0  0  0
 15 19  1  0  0  0  0
 16 15  2  0  0  0  0
 17 11  1  0  0  0  0
 18 12  1  0  0  0  0
 20 21  1  0  0  0  0
 22  5  1  0  0  0  0
 23 28  1  1  0  0  0
 24 22  1  0  0  0  0
 24 23  1  0  0  0  0
 24 29  1  1  0  0  0
 25 24  1  0  0  0  0
 26 30  1  0  0  0  0
 26 25  1  0  0  0  0
 26 27  1  0  0  0  0
 27 32  1  1  0  0  0
 27 23  1  0  0  0  0
 31 26  1  0  0  0  0
 33 23  1  0  0  0  0
 34 33  1  0  0  0  0
 35 27  1  0  0  0  0
 36 37  1  0  0  0  0
 36 35  1  0  0  0  0
 38 39  1  0  0  0  0
 38 37  2  0  0  0  0
 40 42  1  0  0  0  0
 40 38  1  0  0  0  0
 41 40  1  0  0  0  0
 42 36  2  0  0  0  0
M  END
>  <minimizedAffinity>
-6.00977612

$$$$

 OpenBabel03242516363D

 42 45  0  0  1  0  0  0  0  0999 V2000
   36.8220   28.1590   41.9830 C   0  0  2  0  0  0  0  0  0  0  0  0
   38.2530   27.5760   41.8520 C   0  0  1  0  0  0  0  0  0  0  0  0
   38.7560   27.9530   43.0620 O   0  0  0  0  0  0  0  0  0  0  0  0
   38.4580   29.3290   43.1370 C   0  0  0  0  0  0  0  0  0  0  0  0
   37.2610   29.5900   42.1980 C   0  0  1  0  0  0  0  0  0  0  0  0
   36.2460   28.0070   41.0680 H   0  0  0  0  0  0  0  0  0  0  0  0
   38.7330   28.1610   41.0320 H   0  0  0  0  0  0  0  0  0  0  0  0
   38.2330   29.6530   44.1690 H   0  0  0  0  0  0  0  0  0  0  0  0
   39.3310   29.8670   42.7270 H   0  0  0  0  0  0  0  0  0  0  0  0
   36.4660   30.1840   42.6780 H   0  0  0  0  0  0  0  0  0  0  0  0
   38.8670   23.8420   41.4870 C   0  0  0  0  0  0  0  0  0  0  0  0
   39.1810   25.1700   41.7780 C   0  0  0  0  0  0  0  0  0  0  0  0
   38.2090   26.1290   41.6070 C   0  0  0  0  0  0  0  0  0  0  0  0
   36.9790   25.7050   41.1540 N   0  0  0  0  0  0  0  0  0  0  0  0
   36.7040   24.4190   40.8820 C   0  0  0  0  0  0  0  0  0  0  0  0
   37.6560   23.4870   41.0510 N   0  0  0  0  0  0  0  0  0  0  0  0
   39.7060   23.1550   41.6540 H   0  0  0  0  0  0  0  0  0  0  0  0
   40.1080   25.5750   42.1310 H   0  0  0  0  0  0  0  0  0  0  0  0
   35.7200   24.1300   40.5280 H   0  0  0  0  0  0  0  0  0  0  0  0
   36.2360   27.7520   43.1510 O   0  0  0  0  0  0  0  0  0  0  0  0
   36.9310   27.6330   43.8410 H   0  0  0  0  0  0  0  0  0  0  0  0
   37.7530   30.1250   41.0440 O   0  0  0  0  0  0  0  0  0  0  0  0
   38.4750   32.3650   40.9210 C   0  0  1  0  0  0  0  0  0  0  0  0
   37.2330   31.3650   40.6820 C   0  0  1  0  0  0  0  0  0  0  0  0
   37.1750   31.4550   39.3420 O   0  0  0  0  0  0  0  0  0  0  0  0
   38.4890   31.0110   39.0130 C   0  0  0  0  0  0  0  0  0  0  0  0
   39.3370   32.0270   39.7440 C   0  0  1  0  0  0  0  0  0  0  0  0
   38.8800   32.1910   41.9010 H   0  0  0  0  0  0  0  0  0  0  0  0
   36.5170   31.8040   41.3670 H   0  0  0  0  0  0  0  0  0  0  0  0
   38.6460   29.9820   39.3430 H   0  0  0  0  0  0  0  0  0  0  0  0
   38.6170   31.0750   37.9210 H   0  0  0  0  0  0  0  0  0  0  0  0
   40.2890   31.5410   40.0470 H   0  0  0  0  0  0  0  0  0  0  0  0
   37.9370   33.6400   40.6970 O   0  0  0  0  0  0  0  0  0  0  0  0
   37.8970   33.8270   39.7420 H   0  0  0  0  0  0  0  0  0  0  0  0
   39.5480   33.1120   38.9180 O   0  0  0  0  0  0  0  0  0  0  0  0
   40.7640   33.2150   38.2520 C   0  0  0  0  0  0  0  0  0  0  0  0
   41.7690   34.0860   38.5240 N   0  0  0  0  0  0  0  0  0  0  0  0
   42.8000   33.8860   37.6580 C   0  0  0  0  0  0  0  0  0  0  0  0
   43.6580   34.5340   37.7910 H   0  0  0  0  0  0  0  0  0  0  0  0
   42.4140   32.8730   36.8420 N   0  0  0  0  0  0  0  0  0  0  0  0
   43.0820   32.5710   36.1000 H   0  0  0  0  0  0  0  0  0  0  0  0
   41.2110   32.4960   37.2130 N   0  0  0  0  0  0  0  0  0  0  0  0
  1  6  1  6  0  0  0
  1  5  1  0  0  0  0
  1 20  1  0  0  0  0
  2  7  1  6  0  0  0
  2  1  1  0  0  0  0
  2  3  1  0  0  0  0
  3  4  1  0  0  0  0
  4  8  1  0  0  0  0
  5 10  1  1  0  0  0
  5  4  1  0  0  0  0
  9  4  1  0  0  0  0
 11 17  1  0  0  0  0
 11 12  1  0  0  0  0
 12 18  1  0  0  0  0
 13 12  2  0  0  0  0
 13  2  1  0  0  0  0
 14 13  1  0  0  0  0
 15 16  1  0  0  0  0
 15 14  2  0  0  0  0
 16 11  2  0  0  0  0
 19 15  1  0  0  0  0
 20 21  1  0  0  0  0
 22  5  1  0  0  0  0
 23 28  1  1  0  0  0
 24 23  1  0  0  0  0
 24 22  1  0  0  0  0
 24 29  1  1  0  0  0
 25 24  1  0  0  0  0
 26 25  1  0  0  0  0
 26 30  1  0  0  0  0
 26 27  1  0  0  0  0
 27 32  1  1  0  0  0
 27 23  1  0  0  0  0
 31 26  1  0  0  0  0
 33 23  1  0  0  0  0
 34 33  1  0  0  0  0
 35 27  1  0  0  0  0
 36 37  1  0  0  0  0
 36 35  1  0  0  0  0
 38 39  1  0  0  0  0
 38 37  2  0  0  0  0
 40 42  1  0  0  0  0
 40 38  1  0  0  0  0
 41 40  1  0  0  0  0
 42 36  2  0  0  0  0
M  END
>  <minimizedAffinity>
-5.93180227

$$$$

 OpenBabel03242516363D

 42 45  0  0  1  0  0  0  0  0999 V2000
   37.7570   28.3890   40.4360 C   0  0  2  0  0  0  0  0  0  0  0  0
   38.3800   28.6100   41.8390 C   0  0  1  0  0  0  0  0  0  0  0  0
   37.2650   29.0050   42.5160 O   0  0  0  0  0  0  0  0  0  0  0  0
   36.7270   30.0290   41.7110 C   0  0  0  0  0  0  0  0  0  0  0  0
   37.2440   29.8020   40.2750 C   0  0  1  0  0  0  0  0  0  0  0  0
   38.5160   28.1090   39.7030 H   0  0  0  0  0  0  0  0  0  0  0  0
   39.0830   29.4670   41.7150 H   0  0  0  0  0  0  0  0  0  0  0  0
   35.6230   30.0480   41.7380 H   0  0  0  0  0  0  0  0  0  0  0  0
   37.1550   30.9800   42.0770 H   0  0  0  0  0  0  0  0  0  0  0  0
   36.4420   29.8530   39.5210 H   0  0  0  0  0  0  0  0  0  0  0  0
   40.0000   25.7830   43.7980 C   0  0  0  0  0  0  0  0  0  0  0  0
   39.4370   27.0430   43.5960 C   0  0  0  0  0  0  0  0  0  0  0  0
   39.0170   27.3810   42.3290 C   0  0  0  0  0  0  0  0  0  0  0  0
   39.1830   26.4380   41.3390 N   0  0  0  0  0  0  0  0  0  0  0  0
   39.7270   25.2310   41.5620 C   0  0  0  0  0  0  0  0  0  0  0  0
   40.1360   24.9060   42.8000 N   0  0  0  0  0  0  0  0  0  0  0  0
   40.3030   25.6090   44.8380 H   0  0  0  0  0  0  0  0  0  0  0  0
   39.2770   27.8250   44.3090 H   0  0  0  0  0  0  0  0  0  0  0  0
   39.8370   24.5180   40.7500 H   0  0  0  0  0  0  0  0  0  0  0  0
   36.6540   27.5820   40.5150 O   0  0  0  0  0  0  0  0  0  0  0  0
   36.2100   27.7200   41.3850 H   0  0  0  0  0  0  0  0  0  0  0  0
   38.2750   30.6710   40.0670 O   0  0  0  0  0  0  0  0  0  0  0  0
   39.2400   32.5930   41.0320 C   0  0  1  0  0  0  0  0  0  0  0  0
   37.9700   32.0210   40.2200 C   0  0  1  0  0  0  0  0  0  0  0  0
   38.1840   32.6660   39.0600 O   0  0  0  0  0  0  0  0  0  0  0  0
   39.4820   32.1690   38.7440 C   0  0  0  0  0  0  0  0  0  0  0  0
   40.2740   32.6220   39.9500 C   0  0  1  0  0  0  0  0  0  0  0  0
   39.4250   31.9590   41.8810 H   0  0  0  0  0  0  0  0  0  0  0  0
   37.1840   32.2590   40.9280 H   0  0  0  0  0  0  0  0  0  0  0  0
   39.4630   31.0860   38.6080 H   0  0  0  0  0  0  0  0  0  0  0  0
   39.8270   32.6550   37.8180 H   0  0  0  0  0  0  0  0  0  0  0  0
   41.0920   31.8920   40.1310 H   0  0  0  0  0  0  0  0  0  0  0  0
   38.8940   33.9190   41.3210 O   0  0  0  0  0  0  0  0  0  0  0  0
   39.0610   34.4880   40.5490 H   0  0  0  0  0  0  0  0  0  0  0  0
   40.7560   33.8940   39.7180 O   0  0  0  0  0  0  0  0  0  0  0  0
   41.8850   34.0440   38.9210 C   0  0  0  0  0  0  0  0  0  0  0  0
   43.1710   33.7970   39.2770 N   0  0  0  0  0  0  0  0  0  0  0  0
   43.9990   34.0590   38.2280 C   0  0  0  0  0  0  0  0  0  0  0  0
   45.0530   33.8930   38.4100 H   0  0  0  0  0  0  0  0  0  0  0  0
   43.2000   34.4760   37.2140 N   0  0  0  0  0  0  0  0  0  0  0  0
   43.6580   34.7280   36.3120 H   0  0  0  0  0  0  0  0  0  0  0  0
   41.9590   34.4580   37.6480 N   0  0  0  0  0  0  0  0  0  0  0  0
  1  6  1  6  0  0  0
  1 20  1  0  0  0  0
  1  2  1  0  0  0  0
  2  7  1  6  0  0  0
  2 13  1  0  0  0  0
  2  3  1  0  0  0  0
  4  8  1  0  0  0  0
  4  9  1  0  0  0  0
  4  3  1  0  0  0  0
  5 10  1  6  0  0  0
  5  1  1  0  0  0  0
  5  4  1  0  0  0  0
 11 17  1  0  0  0  0
 12 11  1  0  0  0  0
 12 18  1  0  0  0  0
 13 12  2  0  0  0  0
 14 15  2  0  0  0  0
 14 13  1  0  0  0  0
 15 16  1  0  0  0  0
 16 11  2  0  0  0  0
 19 15  1  0  0  0  0
 20 21  1  0  0  0  0
 22 24  1  0  0  0  0
 22  5  1  0  0  0  0
 23 33  1  0  0  0  0
 23 28  1  1  0  0  0
 24 29  1  1  0  0  0
 24 23  1  0  0  0  0
 25 24  1  0  0  0  0
 26 25  1  0  0  0  0
 26 27  1  0  0  0  0
 27 32  1  1  0  0  0
 27 23  1  0  0  0  0
 30 26  1  0  0  0  0
 31 26  1  0  0  0  0
 34 33  1  0  0  0  0
 35 27  1  0  0  0  0
 36 37  1  0  0  0  0
 36 35  1  0  0  0  0
 38 39  1  0  0  0  0
 38 37  2  0  0  0  0
 40 42  1  0  0  0  0
 40 38  1  0  0  0  0
 41 40  1  0  0  0  0
 42 36  2  0  0  0  0
M  END
>  <minimizedAffinity>
-5.88481092

$$$$

 OpenBabel03242516363D

 42 45  0  0  1  0  0  0  0  0999 V2000
   41.6870   33.4870   37.8550 C   0  0  2  0  0  0  0  0  0  0  0  0
   42.7140   32.5720   38.5720 C   0  0  1  0  0  0  0  0  0  0  0  0
   43.1230   31.8240   37.5090 O   0  0  0  0  0  0  0  0  0  0  0  0
   41.9190   31.3740   36.9310 C   0  0  0  0  0  0  0  0  0  0  0  0
   40.8110   32.3630   37.3490 C   0  0  1  0  0  0  0  0  0  0  0  0
   41.1860   34.1520   38.5620 H   0  0  0  0  0  0  0  0  0  0  0  0
   42.1100   31.9500   39.2760 H   0  0  0  0  0  0  0  0  0  0  0  0
   41.9870   31.2930   35.8310 H   0  0  0  0  0  0  0  0  0  0  0  0
   41.6900   30.3960   37.3920 H   0  0  0  0  0  0  0  0  0  0  0  0
   40.1910   32.6910   36.4990 H   0  0  0  0  0  0  0  0  0  0  0  0
   44.9960   34.5170   40.9090 C   0  0  0  0  0  0  0  0  0  0  0  0
   43.8750   33.7750   40.5370 C   0  0  0  0  0  0  0  0  0  0  0  0
   43.7580   33.3690   39.2270 C   0  0  0  0  0  0  0  0  0  0  0  0
   44.7710   33.7270   38.3650 N   0  0  0  0  0  0  0  0  0  0  0  0
   45.8410   34.4410   38.7500 C   0  0  0  0  0  0  0  0  0  0  0  0
   45.9490   34.8360   40.0300 N   0  0  0  0  0  0  0  0  0  0  0  0
   44.9960   34.7940   41.9710 H   0  0  0  0  0  0  0  0  0  0  0  0
   43.0500   33.4600   41.1440 H   0  0  0  0  0  0  0  0  0  0  0  0
   46.6160   34.7010   38.0360 H   0  0  0  0  0  0  0  0  0  0  0  0
   42.2450   34.0730   36.7520 O   0  0  0  0  0  0  0  0  0  0  0  0
   42.9220   33.4670   36.3670 H   0  0  0  0  0  0  0  0  0  0  0  0
   40.1160   31.7920   38.3730 O   0  0  0  0  0  0  0  0  0  0  0  0
   37.8720   31.7830   39.0990 C   0  0  1  0  0  0  0  0  0  0  0  0
   39.2410   32.6340   39.0560 C   0  0  1  0  0  0  0  0  0  0  0  0
   39.5210   32.6050   40.3700 O   0  0  0  0  0  0  0  0  0  0  0  0
   39.5940   31.1950   40.5700 C   0  0  0  0  0  0  0  0  0  0  0  0
   38.2100   30.7630   40.1420 C   0  0  1  0  0  0  0  0  0  0  0  0
   37.6520   31.4270   38.1080 H   0  0  0  0  0  0  0  0  0  0  0  0
   38.8920   33.5050   38.5130 H   0  0  0  0  0  0  0  0  0  0  0  0
   40.3980   30.7580   39.9740 H   0  0  0  0  0  0  0  0  0  0  0  0
   39.7750   31.0020   41.6390 H   0  0  0  0  0  0  0  0  0  0  0  0
   38.2730   29.7370   39.7210 H   0  0  0  0  0  0  0  0  0  0  0  0
   36.9370   32.6640   39.6570 O   0  0  0  0  0  0  0  0  0  0  0  0
   37.0240   32.6800   40.6260 H   0  0  0  0  0  0  0  0  0  0  0  0
   37.3640   30.8260   41.2310 O   0  0  0  0  0  0  0  0  0  0  0  0
   37.1720   29.6790   41.9920 C   0  0  0  0  0  0  0  0  0  0  0  0
   37.8270   29.3410   43.1320 N   0  0  0  0  0  0  0  0  0  0  0  0
   37.3660   28.1450   43.5920 C   0  0  0  0  0  0  0  0  0  0  0  0
   37.8260   27.7840   44.5030 H   0  0  0  0  0  0  0  0  0  0  0  0
   36.4130   27.7470   42.7130 N   0  0  0  0  0  0  0  0  0  0  0  0
   35.9360   26.8390   42.8980 H   0  0  0  0  0  0  0  0  0  0  0  0
   36.3180   28.6690   41.7800 N   0  0  0  0  0  0  0  0  0  0  0  0
  1  6  1  1  0  0  0
  1  2  1  0  0  0  0
  2 13  1  0  0  0  0
  2  7  1  1  0  0  0
  3  2  1  0  0  0  0
  4  5  1  0  0  0  0
  4  9  1  0  0  0  0
  4  3  1  0  0  0  0
  5 10  1  6  0  0  0
  5  1  1  0  0  0  0
  5 22  1  0  0  0  0
  8  4  1  0  0  0  0
 11 17  1  0  0  0  0
 12 11  1  0  0  0  0
 12 18  1  0  0  0  0
 13 12  2  0  0  0  0
 14 15  2  0  0  0  0
 14 13  1  0  0  0  0
 15 16  1  0  0  0  0
 16 11  2  0  0  0  0
 19 15  1  0  0  0  0
 20  1  1  0  0  0  0
 21 20  1  0  0  0  0
 22 24  1  0  0  0  0
 23 28  1  6  0  0  0
 23 33  1  0  0  0  0
 23 27  1  0  0  0  0
 24 29  1  6  0  0  0
 24 23  1  0  0  0  0
 24 25  1  0  0  0  0
 25 26  1  0  0  0  0
 26 31  1  0  0  0  0
 27 32  1  6  0  0  0
 27 26  1  0  0  0  0
 27 35  1  0  0  0  0
 30 26  1  0  0  0  0
 33 34  1  0  0  0  0
 35 36  1  0  0  0  0
 36 37  1  0  0  0  0
 37 38  2  0  0  0  0
 38 39  1  0  0  0  0
 40 41  1  0  0  0  0
 40 38  1  0  0  0  0
 42 36  2  0  0  0  0
 42 40  1  0  0  0  0
M  END
>  <minimizedAffinity>
-5.87884378

$$$$

 OpenBabel03242516363D

 42 45  0  0  1  0  0  0  0  0999 V2000
   37.0480   25.6870   41.4990 C   0  0  2  0  0  0  0  0  0  0  0  0
   38.5120   25.4820   41.0310 C   0  0  1  0  0  0  0  0  0  0  0  0
   39.1110   25.3210   42.2440 O   0  0  0  0  0  0  0  0  0  0  0  0
   38.6600   26.4260   42.9930 C   0  0  0  0  0  0  0  0  0  0  0  0
   37.3330   26.8970   42.3610 C   0  0  1  0  0  0  0  0  0  0  0  0
   36.3850   25.8930   40.6560 H   0  0  0  0  0  0  0  0  0  0  0  0
   38.8120   26.4560   40.5760 H   0  0  0  0  0  0  0  0  0  0  0  0
   38.5270   26.1820   44.0620 H   0  0  0  0  0  0  0  0  0  0  0  0
   39.4040   27.2310   42.8540 H   0  0  0  0  0  0  0  0  0  0  0  0
   36.5380   27.0520   43.1080 H   0  0  0  0  0  0  0  0  0  0  0  0
   38.9870   23.0590   38.1410 C   0  0  0  0  0  0  0  0  0  0  0  0
   38.9390   24.2990   38.7780 C   0  0  0  0  0  0  0  0  0  0  0  0
   38.6150   24.3390   40.1160 C   0  0  0  0  0  0  0  0  0  0  0  0
   38.3590   23.1370   40.7380 N   0  0  0  0  0  0  0  0  0  0  0  0
   38.4140   21.9570   40.0990 C   0  0  0  0  0  0  0  0  0  0  0  0
   38.7300   21.9230   38.7940 N   0  0  0  0  0  0  0  0  0  0  0  0
   39.2530   23.1320   37.0780 H   0  0  0  0  0  0  0  0  0  0  0  0
   39.1220   25.2700   38.3660 H   0  0  0  0  0  0  0  0  0  0  0  0
   38.2050   21.0330   40.6300 H   0  0  0  0  0  0  0  0  0  0  0  0
   36.6650   24.6850   42.3500 O   0  0  0  0  0  0  0  0  0  0  0  0
   37.4490   24.3720   42.8600 H   0  0  0  0  0  0  0  0  0  0  0  0
   37.6090   27.9870   41.5890 O   0  0  0  0  0  0  0  0  0  0  0  0
   36.7410   30.1740   41.7320 C   0  0  1  0  0  0  0  0  0  0  0  0
   36.5050   28.6980   41.1270 C   0  0  1  0  0  0  0  0  0  0  0  0
   36.6720   28.9990   39.8280 O   0  0  0  0  0  0  0  0  0  0  0  0
   37.9990   29.5190   39.8700 C   0  0  0  0  0  0  0  0  0  0  0  0
   37.8350   30.6700   40.8360 C   0  0  1  0  0  0  0  0  0  0  0  0
   36.9570   30.0900   42.7820 H   0  0  0  0  0  0  0  0  0  0  0  0
   35.5540   28.4650   41.5950 H   0  0  0  0  0  0  0  0  0  0  0  0
   38.7060   28.7570   40.2050 H   0  0  0  0  0  0  0  0  0  0  0  0
   38.2720   29.8640   38.8610 H   0  0  0  0  0  0  0  0  0  0  0  0
   38.7910   30.8140   41.3830 H   0  0  0  0  0  0  0  0  0  0  0  0
   35.5740   30.8730   41.3990 O   0  0  0  0  0  0  0  0  0  0  0  0
   35.6160   31.1830   40.4770 H   0  0  0  0  0  0  0  0  0  0  0  0
   37.4650   31.7980   40.1320 O   0  0  0  0  0  0  0  0  0  0  0  0
   38.1960   32.9660   40.3140 C   0  0  0  0  0  0  0  0  0  0  0  0
   37.8710   34.2060   39.8680 N   0  0  0  0  0  0  0  0  0  0  0  0
   38.8310   35.0970   40.2410 C   0  0  0  0  0  0  0  0  0  0  0  0
   38.6660   36.1220   39.9330 H   0  0  0  0  0  0  0  0  0  0  0  0
   39.7600   34.3840   40.9260 N   0  0  0  0  0  0  0  0  0  0  0  0
   40.5860   34.9000   41.2980 H   0  0  0  0  0  0  0  0  0  0  0  0
   39.3620   33.1310   40.9550 N   0  0  0  0  0  0  0  0  0  0  0  0
  1  6  1  6  0  0  0
  1 20  1  0  0  0  0
  1  5  1  0  0  0  0
  2  7  1  6  0  0  0
  2  1  1  0  0  0  0
  2  3  1  0  0  0  0
  3  4  1  0  0  0  0
  4  8  1  0  0  0  0
  5  4  1  0  0  0  0
  5 10  1  1  0  0  0
  9  4  1  0  0  0  0
 11 12  2  0  0  0  0
 11 16  1  0  0  0  0
 12 13  1  0  0  0  0
 13 14  2  0  0  0  0
 13  2  1  0  0  0  0
 15 19  1  0  0  0  0
 15 14  1  0  0  0  0
 16 15  2  0  0  0  0
 17 11  1  0  0  0  0
 18 12  1  0  0  0  0
 20 21  1  0  0  0  0
 22  5  1  0  0  0  0
 23 28  1  1  0  0  0
 24 22  1  0  0  0  0
 24 29  1  1  0  0  0
 24 23  1  0  0  0  0
 25 26  1  0  0  0  0
 25 24  1  0  0  0  0
 26 30  1  0  0  0  0
 26 27  1  0  0  0  0
 27 32  1  1  0  0  0
 27 23  1  0  0  0  0
 31 26  1  0  0  0  0
 33 23  1  0  0  0  0
 34 33  1  0  0  0  0
 35 36  1  0  0  0  0
 35 27  1  0  0  0  0
 36 42  2  0  0  0  0
 37 38  2  0  0  0  0
 37 36  1  0  0  0  0
 38 40  1  0  0  0  0
 39 38  1  0  0  0  0
 40 42  1  0  0  0  0
 40 41  1  0  0  0  0
M  END
>  <minimizedAffinity>
-5.79372072

$$$$

 OpenBabel03242516363D

 42 45  0  0  1  0  0  0  0  0999 V2000
   37.1550   27.7680   39.5880 C   0  0  2  0  0  0  0  0  0  0  0  0
   37.4390   27.9160   41.1060 C   0  0  1  0  0  0  0  0  0  0  0  0
   36.1630   28.0790   41.5540 O   0  0  0  0  0  0  0  0  0  0  0  0
   35.6460   29.1030   40.7350 C   0  0  0  0  0  0  0  0  0  0  0  0
   36.4720   29.1080   39.4320 C   0  0  1  0  0  0  0  0  0  0  0  0
   38.0820   27.6760   39.0170 H   0  0  0  0  0  0  0  0  0  0  0  0
   38.0110   28.8690   41.2040 H   0  0  0  0  0  0  0  0  0  0  0  0
   34.5700   28.9680   40.5250 H   0  0  0  0  0  0  0  0  0  0  0  0
   35.8370   30.0570   41.2590 H   0  0  0  0  0  0  0  0  0  0  0  0
   35.8400   29.1310   38.5290 H   0  0  0  0  0  0  0  0  0  0  0  0
   39.8760   25.3560   42.5080 C   0  0  0  0  0  0  0  0  0  0  0  0
   39.4560   26.5970   42.0290 C   0  0  0  0  0  0  0  0  0  0  0  0
   38.1480   26.7380   41.6230 C   0  0  0  0  0  0  0  0  0  0  0  0
   37.3360   25.6300   41.7210 N   0  0  0  0  0  0  0  0  0  0  0  0
   37.7660   24.4470   42.1880 C   0  0  0  0  0  0  0  0  0  0  0  0
   39.0440   24.3140   42.5820 N   0  0  0  0  0  0  0  0  0  0  0  0
   40.9320   25.3440   42.8050 H   0  0  0  0  0  0  0  0  0  0  0  0
   40.0240   27.4990   41.9220 H   0  0  0  0  0  0  0  0  0  0  0  0
   37.0900   23.6000   42.2480 H   0  0  0  0  0  0  0  0  0  0  0  0
   36.1990   26.8150   39.3630 O   0  0  0  0  0  0  0  0  0  0  0  0
   35.5720   26.7950   40.1240 H   0  0  0  0  0  0  0  0  0  0  0  0
   37.3750   30.1250   39.5210 O   0  0  0  0  0  0  0  0  0  0  0  0
   37.4040   32.3620   40.2650 C   0  0  1  0  0  0  0  0  0  0  0  0
   36.9300   31.3710   39.0850 C   0  0  1  0  0  0  0  0  0  0  0  0
   37.7440   31.8280   38.1180 O   0  0  0  0  0  0  0  0  0  0  0  0
   39.0070   31.6020   38.7400 C   0  0  0  0  0  0  0  0  0  0  0  0
   38.8750   32.4380   39.9920 C   0  0  1  0  0  0  0  0  0  0  0  0
   37.0930   31.9530   41.2100 H   0  0  0  0  0  0  0  0  0  0  0  0
   35.8600   31.5410   39.1300 H   0  0  0  0  0  0  0  0  0  0  0  0
   39.1620   30.5380   38.9320 H   0  0  0  0  0  0  0  0  0  0  0  0
   39.7980   31.9800   38.0730 H   0  0  0  0  0  0  0  0  0  0  0  0
   39.4750   31.9660   40.7990 H   0  0  0  0  0  0  0  0  0  0  0  0
   36.8460   33.6000   39.9190 O   0  0  0  0  0  0  0  0  0  0  0  0
   37.3960   34.0430   39.2490 H   0  0  0  0  0  0  0  0  0  0  0  0
   39.2920   33.7250   39.7190 O   0  0  0  0  0  0  0  0  0  0  0  0
   40.6390   34.0340   39.8690 C   0  0  0  0  0  0  0  0  0  0  0  0
   41.5120   33.4670   40.7400 N   0  0  0  0  0  0  0  0  0  0  0  0
   42.7430   34.0300   40.5920 C   0  0  0  0  0  0  0  0  0  0  0  0
   43.5160   33.6450   41.2450 H   0  0  0  0  0  0  0  0  0  0  0  0
   42.6160   34.9590   39.6120 N   0  0  0  0  0  0  0  0  0  0  0  0
   43.4650   35.5050   39.3520 H   0  0  0  0  0  0  0  0  0  0  0  0
   41.3670   34.9410   39.2020 N   0  0  0  0  0  0  0  0  0  0  0  0
  1  6  1  6  0  0  0
  1  2  1  0  0  0  0
  2  7  1  1  0  0  0
  2  3  1  0  0  0  0
  2 13  1  0  0  0  0
  4  9  1  0  0  0  0
  4  3  1  0  0  0  0
  5 10  1  6  0  0  0
  5 22  1  0  0  0  0
  5  1  1  0  0  0  0
  5  4  1  0  0  0  0
  8  4  1  0  0  0  0
 11 16  1  0  0  0  0
 11 17  1  0  0  0  0
 12 11  2  0  0  0  0
 13 14  2  0  0  0  0
 13 12  1  0  0  0  0
 14 15  1  0  0  0  0
 15 19  1  0  0  0  0
 15 16  2  0  0  0  0
 18 12  1  0  0  0  0
 20  1  1  0  0  0  0
 20 21  1  0  0  0  0
 23 28  1  1  0  0  0
 24 29  1  6  0  0  0
 24 22  1  0  0  0  0
 24 23  1  0  0  0  0
 25 26  1  0  0  0  0
 25 24  1  0  0  0  0
 26 30  1  0  0  0  0
 26 27  1  0  0  0  0
 27 23  1  0  0  0  0
 27 32  1  1  0  0  0
 31 26  1  0  0  0  0
 33 23  1  0  0  0  0
 34 33  1  0  0  0  0
 35 36  1  0  0  0  0
 35 27  1  0  0  0  0
 36 37  1  0  0  0  0
 38 37  2  0  0  0  0
 38 39  1  0  0  0  0
 40 38  1  0  0  0  0
 41 40  1  0  0  0  0
 42 40  1  0  0  0  0
 42 36  2  0  0  0  0
M  END
>  <minimizedAffinity>
-5.73092175

$$$$

 OpenBabel03242516363D

 42 45  0  0  1  0  0  0  0  0999 V2000
   36.6520   30.1700   41.4250 C   0  0  2  0  0  0  0  0  0  0  0  0
   37.4730   30.4330   40.1360 C   0  0  1  0  0  0  0  0  0  0  0  0
   36.4720   30.3470   39.2150 O   0  0  0  0  0  0  0  0  0  0  0  0
   35.8350   29.1270   39.5220 C   0  0  0  0  0  0  0  0  0  0  0  0
   36.1380   28.8130   41.0020 C   0  0  1  0  0  0  0  0  0  0  0  0
   37.2940   30.1440   42.3070 H   0  0  0  0  0  0  0  0  0  0  0  0
   38.1610   29.5590   40.0450 H   0  0  0  0  0  0  0  0  0  0  0  0
   34.7470   29.1640   39.3360 H   0  0  0  0  0  0  0  0  0  0  0  0
   36.3220   28.3500   38.9060 H   0  0  0  0  0  0  0  0  0  0  0  0
   35.2350   28.5320   41.5700 H   0  0  0  0  0  0  0  0  0  0  0  0
   39.8710   33.3590   40.5100 C   0  0  0  0  0  0  0  0  0  0  0  0
   39.4610   32.0260   40.5450 C   0  0  0  0  0  0  0  0  0  0  0  0
   38.1600   31.7290   40.2070 C   0  0  0  0  0  0  0  0  0  0  0  0
   37.3460   32.7810   39.8520 N   0  0  0  0  0  0  0  0  0  0  0  0
   37.7680   34.0560   39.8250 C   0  0  0  0  0  0  0  0  0  0  0  0
   39.0380   34.3410   40.1570 N   0  0  0  0  0  0  0  0  0  0  0  0
   40.9220   33.4930   40.7970 H   0  0  0  0  0  0  0  0  0  0  0  0
   40.0300   31.1580   40.8100 H   0  0  0  0  0  0  0  0  0  0  0  0
   37.0910   34.8540   39.5380 H   0  0  0  0  0  0  0  0  0  0  0  0
   35.5630   30.9980   41.4850 O   0  0  0  0  0  0  0  0  0  0  0  0
   35.2500   31.1920   40.5690 H   0  0  0  0  0  0  0  0  0  0  0  0
   37.1370   27.8860   41.0290 O   0  0  0  0  0  0  0  0  0  0  0  0
   37.7750   25.6430   41.3760 C   0  0  1  0  0  0  0  0  0  0  0  0
   37.0430   26.9220   42.0310 C   0  0  1  0  0  0  0  0  0  0  0  0
   37.9450   27.1820   42.9930 O   0  0  0  0  0  0  0  0  0  0  0  0
   39.1030   27.3900   42.1890 C   0  0  0  0  0  0  0  0  0  0  0  0
   39.2100   26.0620   41.4740 C   0  0  1  0  0  0  0  0  0  0  0  0
   37.3710   25.4750   40.3940 H   0  0  0  0  0  0  0  0  0  0  0  0
   36.0590   26.4980   42.1970 H   0  0  0  0  0  0  0  0  0  0  0  0
   38.9660   28.2430   41.5200 H   0  0  0  0  0  0  0  0  0  0  0  0
   39.9630   27.5710   42.8520 H   0  0  0  0  0  0  0  0  0  0  0  0
   39.6650   26.2330   40.4750 H   0  0  0  0  0  0  0  0  0  0  0  0
   37.5710   24.6170   42.3080 O   0  0  0  0  0  0  0  0  0  0  0  0
   38.2160   24.6860   43.0330 H   0  0  0  0  0  0  0  0  0  0  0  0
   39.9580   25.1960   42.2440 O   0  0  0  0  0  0  0  0  0  0  0  0
   41.3440   25.2770   42.1820 C   0  0  0  0  0  0  0  0  0  0  0  0
   42.0950   25.5450   41.0830 N   0  0  0  0  0  0  0  0  0  0  0  0
   43.4160   25.5410   41.4140 C   0  0  0  0  0  0  0  0  0  0  0  0
   44.1030   25.7450   40.6020 H   0  0  0  0  0  0  0  0  0  0  0  0
   43.4700   25.2630   42.7400 N   0  0  0  0  0  0  0  0  0  0  0  0
   44.4120   25.2160   43.1850 H   0  0  0  0  0  0  0  0  0  0  0  0
   42.2360   25.1130   43.1690 N   0  0  0  0  0  0  0  0  0  0  0  0
  1 20  1  0  0  0  0
  1  6  1  1  0  0  0
  2  7  1  6  0  0  0
  2 13  1  0  0  0  0
  2  1  1  0  0  0  0
  3  4  1  0  0  0  0
  3  2  1  0  0  0  0
  4  5  1  0  0  0  0
  5 22  1  0  0  0  0
  5  1  1  0  0  0  0
  5 10  1  1  0  0  0
  8  4  1  0  0  0  0
  9  4  1  0  0  0  0
 11 12  1  0  0  0  0
 11 17  1  0  0  0  0
 12 18  1  0  0  0  0
 13 12  2  0  0  0  0
 14 13  1  0  0  0  0
 15 14  2  0  0  0  0
 15 16  1  0  0  0  0
 16 11  2  0  0  0  0
 19 15  1  0  0  0  0
 21 20  1  0  0  0  0
 22 24  1  0  0  0  0
 23 28  1  6  0  0  0
 23 27  1  0  0  0  0
 23 24  1  0  0  0  0
 23 33  1  0  0  0  0
 24 29  1  1  0  0  0
 24 25  1  0  0  0  0
 26 31  1  0  0  0  0
 26 25  1  0  0  0  0
 27 32  1  6  0  0  0
 27 26  1  0  0  0  0
 27 35  1  0  0  0  0
 30 26  1  0  0  0  0
 33 34  1  0  0  0  0
 36 35  1  0  0  0  0
 36 42  2  0  0  0  0
 37 38  2  0  0  0  0
 37 36  1  0  0  0  0
 38 40  1  0  0  0  0
 39 38  1  0  0  0  0
 40 42  1  0  0  0  0
 40 41  1  0  0  0  0
M  END
>  <minimizedAffinity>
-5.7163434

$$$$
