
     RDKit          3D

 34 36  0  0  0  0  0  0  0  0999 V2000
   46.1686   32.5561   47.0075 C   0  0  0  0  0  0  0  0  0  0  0  0
   45.2398   32.5768   47.9993 C   0  0  0  0  0  0  0  0  0  0  0  0
   45.4338   31.7669   49.1028 C   0  0  0  0  0  0  0  0  0  0  0  0
   46.5517   30.9528   49.1929 C   0  0  0  0  0  0  0  0  0  0  0  0
   47.4855   30.9641   48.1436 C   0  0  0  0  0  0  0  0  0  0  0  0
   47.2641   31.7461   47.1157 N   0  0  0  0  0  0  0  0  0  0  0  0
   44.9614   34.9814   44.5691 C   0  0  0  0  0  0  0  0  0  0  0  0
   45.9281   34.8517   43.5444 C   0  0  0  0  0  0  0  0  0  0  0  0
   46.9888   33.9430   43.6777 C   0  0  0  0  0  0  0  0  0  0  0  0
   46.9807   33.2471   44.8302 N   0  0  0  0  0  0  0  0  0  0  0  0
   46.0767   33.3707   45.7851 C   0  0  0  0  0  0  0  0  0  0  0  0
   45.0770   34.2298   45.6552 N   0  0  0  0  0  0  0  0  0  0  0  0
   43.9061   35.9212   44.3649 N   0  0  0  0  0  0  0  0  0  0  0  0
   48.6731   30.1254   48.1967 C   0  0  0  0  0  0  0  0  0  0  0  0
   49.7753   30.4717   48.8444 C   0  0  0  0  0  0  0  0  0  0  0  0
   49.8922   31.7650   49.5816 C   0  0  0  0  0  0  0  0  0  0  0  0
   44.3795   33.2254   47.8940 H   0  0  0  0  0  0  0  0  0  0  0  0
   44.7116   31.7604   49.9108 H   0  0  0  0  0  0  0  0  0  0  0  0
   46.7243   30.3110   50.0466 H   0  0  0  0  0  0  0  0  0  0  0  0
   45.8734   35.4382   42.6519 H   0  0  0  0  0  0  0  0  0  0  0  0
   47.7279   33.8288   42.9186 H   0  0  0  0  0  0  0  0  0  0  0  0
   43.6895   36.2629   43.4047 H   0  0  0  0  0  0  0  0  0  0  0  0
   43.3793   36.2331   45.2332 H   0  0  0  0  0  0  0  0  0  0  0  0
   48.6927   29.1586   47.6906 H   0  0  0  0  0  0  0  0  0  0  0  0
   50.6948   29.8893   48.9212 H   0  0  0  0  0  0  0  0  0  0  0  0
   50.1100   31.5455   50.6338 H   0  0  0  0  0  0  0  0  0  0  0  0
   48.9984   32.3826   49.4417 H   0  0  0  0  0  0  0  0  0  0  0  0
   51.0400   32.4828   48.9246 C   0  0  0  0  0  0  0  0  0  0  0  0
   51.4977   33.6930   49.2714 N   0  0  0  0  0  0  0  0  0  0  0  0
   52.5179   33.9857   48.4601 C   0  0  0  0  0  0  0  0  0  0  0  0
   53.1016   34.8825   48.4764 H   0  0  0  0  0  0  0  0  0  0  0  0
   52.6732   32.9406   47.6189 N   0  0  0  0  0  0  0  0  0  0  0  0
   53.3646   32.8083   46.8511 H   0  0  0  0  0  0  0  0  0  0  0  0
   51.7638   32.0058   47.8980 N   0  0  0  0  0  0  0  0  0  0  0  0
  1  6  1  0
  1  2  2  0
  2  3  1  0
  3  4  2  0
  5 14  1  0
  5  4  1  0
  6  5  2  0
  7 12  2  0
  8  9  2  0
  8  7  1  0
  9 10  1  0
 10 11  2  0
 11  1  1  0
 12 11  1  0
 13  7  1  0
 14 15  2  0
 15 16  1  0
  2 17  1  0
  3 18  1  0
  4 19  1  0
  8 20  1  0
  9 21  1  0
 13 22  1  0
 13 23  1  0
 14 24  1  0
 15 25  1  0
 16 26  1  0
 16 27  1  0
 28 29  1  0
 29 30  2  0
 30 31  1  0
 30 32  1  0
 32 33  1  0
 32 34  1  0
 34 28  2  0
 16 28  1  0
M  ISO  8  17  14  18  14  19  14  20  14  21  14  26   8  27   8  31  14
M  ISO  1  33   9
M  END
>  <DihAtoms>  (1) 
14,15,27,28

>  <DihDeg>  (1) 
-90.00431592095549

$$$$
