
 OpenBabel03252500163D

 36 39  0  0  0  0  0  0  0  0999 V2000
   40.2630   31.1090   42.0730 Cl  0  0  0  0  0  0  0  0  0  0  0  0
   38.7230   30.9630   41.3060 C   0  0  0  0  0  0  0  0  0  0  0  0
   38.2440   31.9560   40.4900 C   0  0  0  0  0  0  0  0  0  0  0  0
   37.0140   31.8690   39.8600 C   0  0  0  0  0  0  0  0  0  0  0  0
   36.2840   30.7190   40.0960 C   0  0  0  0  0  0  0  0  0  0  0  0
   36.7570   29.7070   40.9180 C   0  0  0  0  0  0  0  0  0  0  0  0
   37.9500   29.8240   41.5110 C   0  0  0  0  0  0  0  0  0  0  0  0
   36.6620   32.6500   39.2320 H   0  0  0  0  0  0  0  0  0  0  0  0
   35.3150   30.5980   39.6280 H   0  0  0  0  0  0  0  0  0  0  0  0
   36.1240   28.8380   41.0510 H   0  0  0  0  0  0  0  0  0  0  0  0
   39.5360   35.3980   40.7320 C   0  0  0  0  0  0  0  0  0  0  0  0
   40.6340   35.3740   39.8340 C   0  0  0  0  0  0  0  0  0  0  0  0
   40.9060   34.1910   39.1700 C   0  0  0  0  0  0  0  0  0  0  0  0
   40.1100   33.1020   39.4090 N   0  0  0  0  0  0  0  0  0  0  0  0
   39.0640   33.1560   40.2760 C   0  0  0  0  0  0  0  0  0  0  0  0
   38.7980   34.2930   40.9160 N   0  0  0  0  0  0  0  0  0  0  0  0
   39.3150   36.3260   41.2580 H   0  0  0  0  0  0  0  0  0  0  0  0
   41.2540   36.2240   39.6500 H   0  0  0  0  0  0  0  0  0  0  0  0
   42.0400   34.0460   38.1980 C   0  0  0  0  0  0  0  0  0  0  0  0
   41.6650   33.2870   37.1290 F   0  0  0  0  0  0  0  0  0  0  0  0
   42.4000   35.3070   37.7620 F   0  0  0  0  0  0  0  0  0  0  0  0
   43.0820   33.4830   38.8980 F   0  0  0  0  0  0  0  0  0  0  0  0
   38.4790   28.7790   42.3820 C   0  0  0  0  0  0  0  0  0  0  0  0
   37.8030   28.2510   43.4920 C   0  0  0  0  0  0  0  0  0  0  0  0
   38.5940   27.2910   44.0770 C   0  0  0  0  0  0  0  0  0  0  0  0
   39.7260   27.2750   43.2930 C   0  0  0  0  0  0  0  0  0  0  0  0
   39.6290   28.1550   42.3140 O   0  0  0  0  0  0  0  0  0  0  0  0
   36.8100   28.5080   43.8860 H   0  0  0  0  0  0  0  0  0  0  0  0
   38.4840   26.6500   44.9190 H   0  0  0  0  0  0  0  0  0  0  0  0
   40.9630   26.4960   43.3480 C   0  0  0  0  0  0  0  0  0  0  0  0
   42.1890   26.7860   43.8050 N   0  0  0  0  0  0  0  0  0  0  0  0
   43.0110   25.7140   43.6310 C   0  0  0  0  0  0  0  0  0  0  0  0
   44.0590   25.6660   43.9090 H   0  0  0  0  0  0  0  0  0  0  0  0
   42.2470   24.7640   43.0530 N   0  0  0  0  0  0  0  0  0  0  0  0
   42.6040   23.8060   42.7900 H   0  0  0  0  0  0  0  0  0  0  0  0
   41.0030   25.2170   42.8720 N   0  0  0  0  0  0  0  0  0  0  0  0
  2  7  1  0  0  0  0
  2  1  1  0  0  0  0
  3  2  2  0  0  0  0
  4  5  2  0  0  0  0
  4  3  1  0  0  0  0
  5  6  1  0  0  0  0
  6 10  1  0  0  0  0
  6  7  2  0  0  0  0
  7 23  1  0  0  0  0
  8  4  1  0  0  0  0
  9  5  1  0  0  0  0
 11 16  1  0  0  0  0
 11 17  1  0  0  0  0
 12 11  2  0  0  0  0
 13 14  2  0  0  0  0
 13 12  1  0  0  0  0
 14 15  1  0  0  0  0
 15  3  1  0  0  0  0
 15 16  2  0  0  0  0
 18 12  1  0  0  0  0
 19 22  1  0  0  0  0
 19 13  1  0  0  0  0
 20 19  1  0  0  0  0
 21 19  1  0  0  0  0
 23 24  2  0  0  0  0
 24 28  1  0  0  0  0
 24 25  1  0  0  0  0
 25 29  1  0  0  0  0
 26 30  1  0  0  0  0
 26 25  2  0  0  0  0
 27 23  1  0  0  0  0
 27 26  1  0  0  0  0
 30 31  1  0  0  0  0
 32 31  2  0  0  0  0
 32 33  1  0  0  0  0
 34 32  1  0  0  0  0
 35 34  1  0  0  0  0
 36 34  1  0  0  0  0
 36 30  2  0  0  0  0
M  END
>  <minimizedAffinity>
-6.99692917

$$$$

 OpenBabel03252500163D

 36 39  0  0  0  0  0  0  0  0999 V2000
   39.6810   30.9780   41.6820 Cl  0  0  0  0  0  0  0  0  0  0  0  0
   38.4880   30.9400   40.4330 C   0  0  0  0  0  0  0  0  0  0  0  0
   37.4940   29.9960   40.4360 C   0  0  0  0  0  0  0  0  0  0  0  0
   36.5240   29.9390   39.4500 C   0  0  0  0  0  0  0  0  0  0  0  0
   36.6060   30.8920   38.4520 C   0  0  0  0  0  0  0  0  0  0  0  0
   37.6060   31.8520   38.4380 C   0  0  0  0  0  0  0  0  0  0  0  0
   38.5290   31.8780   39.4060 C   0  0  0  0  0  0  0  0  0  0  0  0
   35.7610   29.1990   39.4710 H   0  0  0  0  0  0  0  0  0  0  0  0
   35.8720   30.8950   37.6560 H   0  0  0  0  0  0  0  0  0  0  0  0
   37.6010   32.5640   37.6200 H   0  0  0  0  0  0  0  0  0  0  0  0
   37.4160   28.4990   43.8030 C   0  0  0  0  0  0  0  0  0  0  0  0
   37.3820   27.1100   43.5160 C   0  0  0  0  0  0  0  0  0  0  0  0
   37.3880   26.7190   42.1890 C   0  0  0  0  0  0  0  0  0  0  0  0
   37.4240   27.6830   41.2160 N   0  0  0  0  0  0  0  0  0  0  0  0
   37.4560   29.0080   41.5220 C   0  0  0  0  0  0  0  0  0  0  0  0
   37.4510   29.3880   42.7980 N   0  0  0  0  0  0  0  0  0  0  0  0
   37.4120   28.8160   44.8440 H   0  0  0  0  0  0  0  0  0  0  0  0
   37.3540   26.3610   44.2760 H   0  0  0  0  0  0  0  0  0  0  0  0
   37.3540   25.2800   41.7650 C   0  0  0  0  0  0  0  0  0  0  0  0
   36.4410   24.5820   42.4980 F   0  0  0  0  0  0  0  0  0  0  0  0
   37.0050   25.2300   40.4290 F   0  0  0  0  0  0  0  0  0  0  0  0
   38.6320   24.7980   41.9280 F   0  0  0  0  0  0  0  0  0  0  0  0
   39.5950   32.8740   39.4230 C   0  0  0  0  0  0  0  0  0  0  0  0
   39.4810   34.1500   39.9960 C   0  0  0  0  0  0  0  0  0  0  0  0
   40.6720   34.8180   39.8300 C   0  0  0  0  0  0  0  0  0  0  0  0
   41.4640   33.9140   39.1580 C   0  0  0  0  0  0  0  0  0  0  0  0
   40.8080   32.7910   38.9360 O   0  0  0  0  0  0  0  0  0  0  0  0
   38.6230   34.6080   40.5070 H   0  0  0  0  0  0  0  0  0  0  0  0
   41.0250   35.7840   40.1000 H   0  0  0  0  0  0  0  0  0  0  0  0
   42.8420   33.9710   38.6690 C   0  0  0  0  0  0  0  0  0  0  0  0
   44.0210   33.9990   39.3030 N   0  0  0  0  0  0  0  0  0  0  0  0
   45.0340   34.0530   38.3940 C   0  0  0  0  0  0  0  0  0  0  0  0
   46.0930   34.0850   38.6250 H   0  0  0  0  0  0  0  0  0  0  0  0
   44.4320   34.0580   37.1860 N   0  0  0  0  0  0  0  0  0  0  0  0
   44.9570   34.0960   36.2710 H   0  0  0  0  0  0  0  0  0  0  0  0
   43.1050   34.0100   37.3290 N   0  0  0  0  0  0  0  0  0  0  0  0
  2  3  1  0  0  0  0
  2  1  1  0  0  0  0
  3 15  1  0  0  0  0
  4  8  1  0  0  0  0
  4  3  2  0  0  0  0
  5  4  1  0  0  0  0
  6  5  2  0  0  0  0
  6  7  1  0  0  0  0
  7 23  1  0  0  0  0
  7  2  2  0  0  0  0
  9  5  1  0  0  0  0
 10  6  1  0  0  0  0
 11 17  1  0  0  0  0
 12 11  1  0  0  0  0
 12 18  1  0  0  0  0
 13 12  2  0  0  0  0
 14 15  2  0  0  0  0
 14 13  1  0  0  0  0
 15 16  1  0  0  0  0
 16 11  2  0  0  0  0
 19 22  1  0  0  0  0
 19 13  1  0  0  0  0
 19 20  1  0  0  0  0
 21 19  1  0  0  0  0
 23 24  2  0  0  0  0
 24 28  1  0  0  0  0
 25 24  1  0  0  0  0
 25 29  1  0  0  0  0
 26 25  2  0  0  0  0
 27 26  1  0  0  0  0
 27 23  1  0  0  0  0
 30 26  1  0  0  0  0
 30 31  1  0  0  0  0
 32 33  1  0  0  0  0
 32 31  2  0  0  0  0
 34 36  1  0  0  0  0
 34 32  1  0  0  0  0
 35 34  1  0  0  0  0
 36 30  2  0  0  0  0
M  END
>  <minimizedAffinity>
-6.79933739

$$$$

 OpenBabel03252500163D

 36 39  0  0  0  0  0  0  0  0999 V2000
   38.8890   31.0310   41.6140 Cl  0  0  0  0  0  0  0  0  0  0  0  0
   38.0770   30.8660   40.0990 C   0  0  0  0  0  0  0  0  0  0  0  0
   38.1340   31.8590   39.1550 C   0  0  0  0  0  0  0  0  0  0  0  0
   37.4950   31.7570   37.9310 C   0  0  0  0  0  0  0  0  0  0  0  0
   36.7880   30.5910   37.7040 C   0  0  0  0  0  0  0  0  0  0  0  0
   36.7220   29.5790   38.6490 C   0  0  0  0  0  0  0  0  0  0  0  0
   37.3510   29.7110   39.8220 C   0  0  0  0  0  0  0  0  0  0  0  0
   37.5530   32.5390   37.2140 H   0  0  0  0  0  0  0  0  0  0  0  0
   36.2690   30.4580   36.7630 H   0  0  0  0  0  0  0  0  0  0  0  0
   36.1470   28.6970   38.3930 H   0  0  0  0  0  0  0  0  0  0  0  0
   39.0200   35.2330   40.3440 C   0  0  0  0  0  0  0  0  0  0  0  0
   40.3880   35.3330   39.9810 C   0  0  0  0  0  0  0  0  0  0  0  0
   40.9730   34.2540   39.3430 C   0  0  0  0  0  0  0  0  0  0  0  0
   40.2110   33.1430   39.0920 N   0  0  0  0  0  0  0  0  0  0  0  0
   38.9010   33.0770   39.4520 C   0  0  0  0  0  0  0  0  0  0  0  0
   38.3350   34.1140   40.0660 N   0  0  0  0  0  0  0  0  0  0  0  0
   38.5520   36.0780   40.8460 H   0  0  0  0  0  0  0  0  0  0  0  0
   40.9790   36.2000   40.1780 H   0  0  0  0  0  0  0  0  0  0  0  0
   42.4100   34.2450   38.9120 C   0  0  0  0  0  0  0  0  0  0  0  0
   43.2260   34.5880   39.9480 F   0  0  0  0  0  0  0  0  0  0  0  0
   42.7260   32.9690   38.4840 F   0  0  0  0  0  0  0  0  0  0  0  0
   42.5050   35.1240   37.8590 F   0  0  0  0  0  0  0  0  0  0  0  0
   37.3040   28.6660   40.8390 C   0  0  0  0  0  0  0  0  0  0  0  0
   36.2810   28.5260   41.7890 C   0  0  0  0  0  0  0  0  0  0  0  0
   36.5590   27.4400   42.5840 C   0  0  0  0  0  0  0  0  0  0  0  0
   37.7490   26.9620   42.0830 C   0  0  0  0  0  0  0  0  0  0  0  0
   38.1580   27.6980   41.0670 O   0  0  0  0  0  0  0  0  0  0  0  0
   35.3790   29.1380   41.9330 H   0  0  0  0  0  0  0  0  0  0  0  0
   36.0710   26.9780   43.4080 H   0  0  0  0  0  0  0  0  0  0  0  0
   38.6050   25.8360   42.4560 C   0  0  0  0  0  0  0  0  0  0  0  0
   39.8590   25.7760   42.9250 N   0  0  0  0  0  0  0  0  0  0  0  0
   40.2170   24.4770   43.1210 C   0  0  0  0  0  0  0  0  0  0  0  0
   41.1760   24.1320   43.4940 H   0  0  0  0  0  0  0  0  0  0  0  0
   39.1410   23.7490   42.7570 N   0  0  0  0  0  0  0  0  0  0  0  0
   39.1080   22.6940   42.7960 H   0  0  0  0  0  0  0  0  0  0  0  0
   38.1540   24.5510   42.3500 N   0  0  0  0  0  0  0  0  0  0  0  0
  2  1  1  0  0  0  0
  3 15  1  0  0  0  0
  3  2  2  0  0  0  0
  4  3  1  0  0  0  0
  5  4  2  0  0  0  0
  5  6  1  0  0  0  0
  6  7  2  0  0  0  0
  7  2  1  0  0  0  0
  7 23  1  0  0  0  0
  8  4  1  0  0  0  0
  9  5  1  0  0  0  0
 10  6  1  0  0  0  0
 11 17  1  0  0  0  0
 12 18  1  0  0  0  0
 12 11  2  0  0  0  0
 13 12  1  0  0  0  0
 14 13  2  0  0  0  0
 14 15  1  0  0  0  0
 15 16  2  0  0  0  0
 16 11  1  0  0  0  0
 19 13  1  0  0  0  0
 19 20  1  0  0  0  0
 21 19  1  0  0  0  0
 22 19  1  0  0  0  0
 23 27  1  0  0  0  0
 23 24  2  0  0  0  0
 24 28  1  0  0  0  0
 24 25  1  0  0  0  0
 25 29  1  0  0  0  0
 26 30  1  0  0  0  0
 26 25  2  0  0  0  0
 27 26  1  0  0  0  0
 30 31  1  0  0  0  0
 31 32  2  0  0  0  0
 32 33  1  0  0  0  0
 34 35  1  0  0  0  0
 34 32  1  0  0  0  0
 36 30  2  0  0  0  0
 36 34  1  0  0  0  0
M  END
>  <minimizedAffinity>
-6.70186758

$$$$

 OpenBabel03252500163D

 36 39  0  0  0  0  0  0  0  0999 V2000
   40.6370   30.6220   40.6120 Cl  0  0  0  0  0  0  0  0  0  0  0  0
   39.3330   31.6940   40.2480 C   0  0  0  0  0  0  0  0  0  0  0  0
   38.0330   31.2600   40.2860 C   0  0  0  0  0  0  0  0  0  0  0  0
   36.9650   32.0930   39.9990 C   0  0  0  0  0  0  0  0  0  0  0  0
   37.2760   33.4000   39.6710 C   0  0  0  0  0  0  0  0  0  0  0  0
   38.5870   33.8510   39.6290 C   0  0  0  0  0  0  0  0  0  0  0  0
   39.5950   33.0180   39.9110 C   0  0  0  0  0  0  0  0  0  0  0  0
   35.9640   31.7370   40.0350 H   0  0  0  0  0  0  0  0  0  0  0  0
   36.4800   34.0950   39.4390 H   0  0  0  0  0  0  0  0  0  0  0  0
   38.7470   34.8890   39.3630 H   0  0  0  0  0  0  0  0  0  0  0  0
   37.3700   27.6450   40.0100 C   0  0  0  0  0  0  0  0  0  0  0  0
   37.2500   27.2550   41.3690 C   0  0  0  0  0  0  0  0  0  0  0  0
   37.3970   28.2280   42.3410 C   0  0  0  0  0  0  0  0  0  0  0  0
   37.6510   29.5170   41.9530 N   0  0  0  0  0  0  0  0  0  0  0  0
   37.7600   29.8610   40.6420 C   0  0  0  0  0  0  0  0  0  0  0  0
   37.6190   28.9270   39.7030 N   0  0  0  0  0  0  0  0  0  0  0  0
   37.2560   26.8860   39.2380 H   0  0  0  0  0  0  0  0  0  0  0  0
   37.0530   26.2490   41.6690 H   0  0  0  0  0  0  0  0  0  0  0  0
   37.2910   27.9330   43.8090 C   0  0  0  0  0  0  0  0  0  0  0  0
   36.1490   27.2400   44.0810 F   0  0  0  0  0  0  0  0  0  0  0  0
   38.3870   27.1750   44.1790 F   0  0  0  0  0  0  0  0  0  0  0  0
   37.3300   29.1480   44.4520 F   0  0  0  0  0  0  0  0  0  0  0  0
   40.9860   33.4590   39.8780 C   0  0  0  0  0  0  0  0  0  0  0  0
   41.7820   33.4920   38.7240 C   0  0  0  0  0  0  0  0  0  0  0  0
   43.0310   33.9590   39.0600 C   0  0  0  0  0  0  0  0  0  0  0  0
   42.9420   34.1890   40.4150 C   0  0  0  0  0  0  0  0  0  0  0  0
   41.7370   33.8880   40.8620 O   0  0  0  0  0  0  0  0  0  0  0  0
   41.5230   33.2130   37.6930 H   0  0  0  0  0  0  0  0  0  0  0  0
   43.9270   34.1420   38.5160 H   0  0  0  0  0  0  0  0  0  0  0  0
   43.8980   34.6860   41.4040 C   0  0  0  0  0  0  0  0  0  0  0  0
   45.2260   34.8610   41.3610 N   0  0  0  0  0  0  0  0  0  0  0  0
   45.6650   35.3550   42.5520 C   0  0  0  0  0  0  0  0  0  0  0  0
   46.6940   35.5920   42.8010 H   0  0  0  0  0  0  0  0  0  0  0  0
   44.5620   35.4740   43.3200 N   0  0  0  0  0  0  0  0  0  0  0  0
   44.5760   35.8350   44.3130 H   0  0  0  0  0  0  0  0  0  0  0  0
   43.4810   35.0730   42.6450 N   0  0  0  0  0  0  0  0  0  0  0  0
  2  3  1  0  0  0  0
  2  1  1  0  0  0  0
  3 15  1  0  0  0  0
  4  8  1  0  0  0  0
  4  3  2  0  0  0  0
  5  4  1  0  0  0  0
  6  5  2  0  0  0  0
  6  7  1  0  0  0  0
  7  2  2  0  0  0  0
  9  5  1  0  0  0  0
 10  6  1  0  0  0  0
 11 12  1  0  0  0  0
 12 18  1  0  0  0  0
 12 13  2  0  0  0  0
 13 19  1  0  0  0  0
 14 13  1  0  0  0  0
 15 14  2  0  0  0  0
 16 11  2  0  0  0  0
 16 15  1  0  0  0  0
 17 11  1  0  0  0  0
 19 20  1  0  0  0  0
 19 21  1  0  0  0  0
 19 22  1  0  0  0  0
 23  7  1  0  0  0  0
 23 27  1  0  0  0  0
 24 25  1  0  0  0  0
 24 23  2  0  0  0  0
 25 26  2  0  0  0  0
 26 27  1  0  0  0  0
 26 30  1  0  0  0  0
 28 24  1  0  0  0  0
 29 25  1  0  0  0  0
 30 36  2  0  0  0  0
 31 30  1  0  0  0  0
 31 32  2  0  0  0  0
 32 33  1  0  0  0  0
 32 34  1  0  0  0  0
 34 35  1  0  0  0  0
 36 34  1  0  0  0  0
M  END
>  <minimizedAffinity>
-6.64860344

$$$$

 OpenBabel03252500163D

 36 39  0  0  0  0  0  0  0  0999 V2000
   37.8900   27.7120   39.3290 Cl  0  0  0  0  0  0  0  0  0  0  0  0
   37.6390   27.7920   41.0360 C   0  0  0  0  0  0  0  0  0  0  0  0
   37.4930   26.6510   41.7810 C   0  0  0  0  0  0  0  0  0  0  0  0
   37.2910   26.6810   43.1510 C   0  0  0  0  0  0  0  0  0  0  0  0
   37.2440   27.9320   43.7370 C   0  0  0  0  0  0  0  0  0  0  0  0
   37.3900   29.0940   42.9950 C   0  0  0  0  0  0  0  0  0  0  0  0
   37.5840   29.0280   41.6720 C   0  0  0  0  0  0  0  0  0  0  0  0
   37.1800   25.7840   43.7110 H   0  0  0  0  0  0  0  0  0  0  0  0
   37.0890   28.0140   44.8060 H   0  0  0  0  0  0  0  0  0  0  0  0
   37.3410   30.0350   43.5290 H   0  0  0  0  0  0  0  0  0  0  0  0
   38.7670   23.4810   40.3990 C   0  0  0  0  0  0  0  0  0  0  0  0
   37.6020   22.9100   39.8260 C   0  0  0  0  0  0  0  0  0  0  0  0
   36.4150   23.6150   39.9240 C   0  0  0  0  0  0  0  0  0  0  0  0
   36.4180   24.8260   40.5660 N   0  0  0  0  0  0  0  0  0  0  0  0
   37.5520   25.3480   41.1050 C   0  0  0  0  0  0  0  0  0  0  0  0
   38.6950   24.6720   41.0130 N   0  0  0  0  0  0  0  0  0  0  0  0
   39.7050   22.9330   40.3270 H   0  0  0  0  0  0  0  0  0  0  0  0
   37.6030   21.9660   39.3270 H   0  0  0  0  0  0  0  0  0  0  0  0
   35.1210   23.1120   39.3570 C   0  0  0  0  0  0  0  0  0  0  0  0
   34.1540   23.0770   40.3180 F   0  0  0  0  0  0  0  0  0  0  0  0
   34.7300   23.9670   38.3440 F   0  0  0  0  0  0  0  0  0  0  0  0
   35.3850   21.8670   38.8360 F   0  0  0  0  0  0  0  0  0  0  0  0
   37.7430   30.2300   40.8600 C   0  0  0  0  0  0  0  0  0  0  0  0
   36.7200   31.1550   40.6000 C   0  0  0  0  0  0  0  0  0  0  0  0
   37.2220   32.1580   39.8040 C   0  0  0  0  0  0  0  0  0  0  0  0
   38.5370   31.7980   39.6120 C   0  0  0  0  0  0  0  0  0  0  0  0
   38.8100   30.6700   40.2390 O   0  0  0  0  0  0  0  0  0  0  0  0
   35.6750   31.1480   40.9390 H   0  0  0  0  0  0  0  0  0  0  0  0
   36.8120   33.0410   39.3750 H   0  0  0  0  0  0  0  0  0  0  0  0
   39.6380   32.4120   38.8700 C   0  0  0  0  0  0  0  0  0  0  0  0
   40.5880   33.2850   39.2300 N   0  0  0  0  0  0  0  0  0  0  0  0
   41.3930   33.5570   38.1660 C   0  0  0  0  0  0  0  0  0  0  0  0
   42.2440   34.2300   38.1690 H   0  0  0  0  0  0  0  0  0  0  0  0
   40.9000   32.8230   37.1460 N   0  0  0  0  0  0  0  0  0  0  0  0
   41.3140   32.8200   36.1740 H   0  0  0  0  0  0  0  0  0  0  0  0
   39.8370   32.1230   37.5500 N   0  0  0  0  0  0  0  0  0  0  0  0
  1  2  1  0  0  0  0
  2  7  2  0  0  0  0
  2  3  1  0  0  0  0
  3  4  2  0  0  0  0
  4  8  1  0  0  0  0
  4  5  1  0  0  0  0
  5  9  1  0  0  0  0
  6 10  1  0  0  0  0
  6  5  2  0  0  0  0
  7  6  1  0  0  0  0
 11 16  1  0  0  0  0
 12 13  1  0  0  0  0
 12 11  2  0  0  0  0
 13 14  2  0  0  0  0
 14 15  1  0  0  0  0
 15  3  1  0  0  0  0
 16 15  2  0  0  0  0
 17 11  1  0  0  0  0
 18 12  1  0  0  0  0
 19 13  1  0  0  0  0
 19 20  1  0  0  0  0
 21 19  1  0  0  0  0
 22 19  1  0  0  0  0
 23  7  1  0  0  0  0
 24 23  2  0  0  0  0
 24 28  1  0  0  0  0
 25 24  1  0  0  0  0
 26 25  2  0  0  0  0
 26 27  1  0  0  0  0
 27 23  1  0  0  0  0
 29 25  1  0  0  0  0
 30 31  1  0  0  0  0
 30 26  1  0  0  0  0
 32 33  1  0  0  0  0
 32 31  2  0  0  0  0
 34 36  1  0  0  0  0
 34 32  1  0  0  0  0
 35 34  1  0  0  0  0
 36 30  2  0  0  0  0
M  END
>  <minimizedAffinity>
-6.4208374

$$$$

 OpenBabel03252500163D

 36 39  0  0  0  0  0  0  0  0999 V2000
   40.9640   31.3660   40.1450 Cl  0  0  0  0  0  0  0  0  0  0  0  0
   40.2960   32.9580   40.1480 C   0  0  0  0  0  0  0  0  0  0  0  0
   41.1010   34.0600   40.0170 C   0  0  0  0  0  0  0  0  0  0  0  0
   40.5970   35.3500   40.0150 C   0  0  0  0  0  0  0  0  0  0  0  0
   39.2260   35.4740   40.1520 C   0  0  0  0  0  0  0  0  0  0  0  0
   38.4020   34.3670   40.2840 C   0  0  0  0  0  0  0  0  0  0  0  0
   38.9230   33.1350   40.2830 C   0  0  0  0  0  0  0  0  0  0  0  0
   41.2380   36.1910   39.9130 H   0  0  0  0  0  0  0  0  0  0  0  0
   38.7780   36.4590   40.1560 H   0  0  0  0  0  0  0  0  0  0  0  0
   37.3380   34.5490   40.3870 H   0  0  0  0  0  0  0  0  0  0  0  0
   44.7250   34.1610   40.6810 C   0  0  0  0  0  0  0  0  0  0  0  0
   45.2580   33.4820   39.5550 C   0  0  0  0  0  0  0  0  0  0  0  0
   44.3740   33.0080   38.6020 C   0  0  0  0  0  0  0  0  0  0  0  0
   43.0320   33.2140   38.7850 N   0  0  0  0  0  0  0  0  0  0  0  0
   42.5510   33.8690   39.8750 C   0  0  0  0  0  0  0  0  0  0  0  0
   43.3980   34.3270   40.7950 N   0  0  0  0  0  0  0  0  0  0  0  0
   45.4130   34.5370   41.4360 H   0  0  0  0  0  0  0  0  0  0  0  0
   46.3040   33.3220   39.4150 H   0  0  0  0  0  0  0  0  0  0  0  0
   44.8210   32.2760   37.3710 C   0  0  0  0  0  0  0  0  0  0  0  0
   45.4180   31.0960   37.7020 F   0  0  0  0  0  0  0  0  0  0  0  0
   43.7100   32.0240   36.5890 F   0  0  0  0  0  0  0  0  0  0  0  0
   45.6740   33.1240   36.7040 F   0  0  0  0  0  0  0  0  0  0  0  0
   38.0850   31.9480   40.4190 C   0  0  0  0  0  0  0  0  0  0  0  0
   37.0950   31.5640   39.5030 C   0  0  0  0  0  0  0  0  0  0  0  0
   36.5070   30.4030   39.9450 C   0  0  0  0  0  0  0  0  0  0  0  0
   37.1680   30.1280   41.1220 C   0  0  0  0  0  0  0  0  0  0  0  0
   38.0820   31.0470   41.3700 O   0  0  0  0  0  0  0  0  0  0  0  0
   36.7860   32.0540   38.5690 H   0  0  0  0  0  0  0  0  0  0  0  0
   35.7320   29.7740   39.5750 H   0  0  0  0  0  0  0  0  0  0  0  0
   37.0460   29.0490   42.1020 C   0  0  0  0  0  0  0  0  0  0  0  0
   36.4000   27.8750   42.0710 N   0  0  0  0  0  0  0  0  0  0  0  0
   36.5910   27.2120   43.2460 C   0  0  0  0  0  0  0  0  0  0  0  0
   36.1850   26.2390   43.4990 H   0  0  0  0  0  0  0  0  0  0  0  0
   37.3740   28.0200   43.9910 N   0  0  0  0  0  0  0  0  0  0  0  0
   37.7010   27.7810   44.9660 H   0  0  0  0  0  0  0  0  0  0  0  0
   37.6610   29.1380   43.3180 N   0  0  0  0  0  0  0  0  0  0  0  0
  1  2  1  0  0  0  0
  2  7  1  0  0  0  0
  3  2  2  0  0  0  0
  4  3  1  0  0  0  0
  4  5  2  0  0  0  0
  5  9  1  0  0  0  0
  5  6  1  0  0  0  0
  6 10  1  0  0  0  0
  7  6  2  0  0  0  0
  7 23  1  0  0  0  0
  8  4  1  0  0  0  0
 11 16  1  0  0  0  0
 11 17  1  0  0  0  0
 12 11  2  0  0  0  0
 13 14  2  0  0  0  0
 13 12  1  0  0  0  0
 14 15  1  0  0  0  0
 15  3  1  0  0  0  0
 15 16  2  0  0  0  0
 18 12  1  0  0  0  0
 19 20  1  0  0  0  0
 19 13  1  0  0  0  0
 21 19  1  0  0  0  0
 22 19  1  0  0  0  0
 23 27  1  0  0  0  0
 24 25  1  0  0  0  0
 24 23  2  0  0  0  0
 25 26  2  0  0  0  0
 26 27  1  0  0  0  0
 26 30  1  0  0  0  0
 28 24  1  0  0  0  0
 29 25  1  0  0  0  0
 30 36  2  0  0  0  0
 31 30  1  0  0  0  0
 31 32  2  0  0  0  0
 32 33  1  0  0  0  0
 32 34  1  0  0  0  0
 34 35  1  0  0  0  0
 36 34  1  0  0  0  0
M  END
>  <minimizedAffinity>
-6.3989706

$$$$

 OpenBabel03252500163D

 36 39  0  0  0  0  0  0  0  0999 V2000
   40.4660   30.1580   40.3570 Cl  0  0  0  0  0  0  0  0  0  0  0  0
   39.3740   31.4800   40.1580 C   0  0  0  0  0  0  0  0  0  0  0  0
   38.0170   31.2910   40.2260 C   0  0  0  0  0  0  0  0  0  0  0  0
   37.1160   32.3300   40.0700 C   0  0  0  0  0  0  0  0  0  0  0  0
   37.6550   33.5830   39.8420 C   0  0  0  0  0  0  0  0  0  0  0  0
   39.0240   33.7870   39.7720 C   0  0  0  0  0  0  0  0  0  0  0  0
   39.8680   32.7600   39.9260 C   0  0  0  0  0  0  0  0  0  0  0  0
   36.0670   32.1620   40.1270 H   0  0  0  0  0  0  0  0  0  0  0  0
   36.9950   34.4320   39.7140 H   0  0  0  0  0  0  0  0  0  0  0  0
   39.3680   34.7990   39.5900 H   0  0  0  0  0  0  0  0  0  0  0  0
   36.5510   27.9550   39.6810 C   0  0  0  0  0  0  0  0  0  0  0  0
   36.5430   27.4100   40.9910 C   0  0  0  0  0  0  0  0  0  0  0  0
   37.0350   28.1880   42.0230 C   0  0  0  0  0  0  0  0  0  0  0  0
   37.5060   29.4430   41.7380 N   0  0  0  0  0  0  0  0  0  0  0  0
   37.5000   29.9380   40.4710 C   0  0  0  0  0  0  0  0  0  0  0  0
   37.0270   29.1920   39.4750 N   0  0  0  0  0  0  0  0  0  0  0  0
   36.1650   27.3490   38.8620 H   0  0  0  0  0  0  0  0  0  0  0  0
   36.1760   26.4310   41.2100 H   0  0  0  0  0  0  0  0  0  0  0  0
   37.0770   27.7190   43.4470 C   0  0  0  0  0  0  0  0  0  0  0  0
   37.9800   26.7090   43.5960 F   0  0  0  0  0  0  0  0  0  0  0  0
   37.4470   28.7850   44.2450 F   0  0  0  0  0  0  0  0  0  0  0  0
   35.7970   27.3260   43.7640 F   0  0  0  0  0  0  0  0  0  0  0  0
   41.3150   32.9390   39.8580 C   0  0  0  0  0  0  0  0  0  0  0  0
   42.1150   33.3540   40.9330 C   0  0  0  0  0  0  0  0  0  0  0  0
   43.4230   33.4140   40.5140 C   0  0  0  0  0  0  0  0  0  0  0  0
   43.3630   33.0310   39.1930 C   0  0  0  0  0  0  0  0  0  0  0  0
   42.1200   32.7620   38.8400 O   0  0  0  0  0  0  0  0  0  0  0  0
   41.8210   33.6040   41.9620 H   0  0  0  0  0  0  0  0  0  0  0  0
   44.3420   33.6730   40.9830 H   0  0  0  0  0  0  0  0  0  0  0  0
   44.3820   32.8770   38.1550 C   0  0  0  0  0  0  0  0  0  0  0  0
   45.1300   31.8310   37.7780 N   0  0  0  0  0  0  0  0  0  0  0  0
   45.9450   32.1940   36.7490 C   0  0  0  0  0  0  0  0  0  0  0  0
   46.6580   31.5490   36.2450 H   0  0  0  0  0  0  0  0  0  0  0  0
   45.6690   33.4940   36.5120 N   0  0  0  0  0  0  0  0  0  0  0  0
   46.1450   34.0660   35.7630 H   0  0  0  0  0  0  0  0  0  0  0  0
   44.7260   33.9280   37.3530 N   0  0  0  0  0  0  0  0  0  0  0  0
  2  3  1  0  0  0  0
  2  1  1  0  0  0  0
  3 15  1  0  0  0  0
  4  8  1  0  0  0  0
  4  3  2  0  0  0  0
  5  4  1  0  0  0  0
  6  5  2  0  0  0  0
  6  7  1  0  0  0  0
  7  2  2  0  0  0  0
  9  5  1  0  0  0  0
 10  6  1  0  0  0  0
 11 12  1  0  0  0  0
 12 18  1  0  0  0  0
 12 13  2  0  0  0  0
 13 19  1  0  0  0  0
 14 13  1  0  0  0  0
 15 14  2  0  0  0  0
 16 11  2  0  0  0  0
 16 15  1  0  0  0  0
 17 11  1  0  0  0  0
 19 20  1  0  0  0  0
 19 22  1  0  0  0  0
 19 21  1  0  0  0  0
 23  7  1  0  0  0  0
 23 24  2  0  0  0  0
 24 28  1  0  0  0  0
 25 24  1  0  0  0  0
 25 29  1  0  0  0  0
 26 25  2  0  0  0  0
 27 26  1  0  0  0  0
 27 23  1  0  0  0  0
 30 26  1  0  0  0  0
 31 30  1  0  0  0  0
 32 31  2  0  0  0  0
 33 32  1  0  0  0  0
 34 32  1  0  0  0  0
 34 36  1  0  0  0  0
 35 34  1  0  0  0  0
 36 30  2  0  0  0  0
M  END
>  <minimizedAffinity>
-6.30946445

$$$$

 OpenBabel03252500163D

 36 39  0  0  0  0  0  0  0  0999 V2000
   38.3380   29.3520   40.3850 Cl  0  0  0  0  0  0  0  0  0  0  0  0
   37.7230   29.4290   38.7720 C   0  0  0  0  0  0  0  0  0  0  0  0
   37.3140   28.2950   38.1190 C   0  0  0  0  0  0  0  0  0  0  0  0
   36.8170   28.3220   36.8270 C   0  0  0  0  0  0  0  0  0  0  0  0
   36.7520   29.5630   36.2210 C   0  0  0  0  0  0  0  0  0  0  0  0
   37.1620   30.7170   36.8700 C   0  0  0  0  0  0  0  0  0  0  0  0
   37.6380   30.6540   38.1190 C   0  0  0  0  0  0  0  0  0  0  0  0
   36.5050   27.4310   36.3390 H   0  0  0  0  0  0  0  0  0  0  0  0
   36.3700   29.6420   35.2110 H   0  0  0  0  0  0  0  0  0  0  0  0
   37.0790   31.6500   36.3260 H   0  0  0  0  0  0  0  0  0  0  0  0
   37.7390   24.6910   38.7600 C   0  0  0  0  0  0  0  0  0  0  0  0
   37.5670   24.6110   40.1660 C   0  0  0  0  0  0  0  0  0  0  0  0
   37.3110   25.7810   40.8590 C   0  0  0  0  0  0  0  0  0  0  0  0
   37.2360   26.9580   40.1620 N   0  0  0  0  0  0  0  0  0  0  0  0
   37.4060   27.0030   38.8130 C   0  0  0  0  0  0  0  0  0  0  0  0
   37.6520   25.8790   38.1430 N   0  0  0  0  0  0  0  0  0  0  0  0
   37.9410   23.7740   38.2080 H   0  0  0  0  0  0  0  0  0  0  0  0
   37.6260   23.6920   40.7070 H   0  0  0  0  0  0  0  0  0  0  0  0
   37.1110   25.8190   42.3450 C   0  0  0  0  0  0  0  0  0  0  0  0
   36.4670   26.9620   42.7170 F   0  0  0  0  0  0  0  0  0  0  0  0
   36.3490   24.7250   42.7080 F   0  0  0  0  0  0  0  0  0  0  0  0
   38.3630   25.7190   42.9070 F   0  0  0  0  0  0  0  0  0  0  0  0
   38.0780   31.8480   38.8330 C   0  0  0  0  0  0  0  0  0  0  0  0
   37.2160   32.8040   39.3910 C   0  0  0  0  0  0  0  0  0  0  0  0
   37.9700   33.7890   39.9840 C   0  0  0  0  0  0  0  0  0  0  0  0
   39.2680   33.3890   39.7590 C   0  0  0  0  0  0  0  0  0  0  0  0
   39.2980   32.2550   39.0850 O   0  0  0  0  0  0  0  0  0  0  0  0
   36.1170   32.8290   39.3970 H   0  0  0  0  0  0  0  0  0  0  0  0
   37.7410   34.6830   40.5130 H   0  0  0  0  0  0  0  0  0  0  0  0
   40.5630   33.9690   40.1150 C   0  0  0  0  0  0  0  0  0  0  0  0
   41.5810   33.5090   40.8560 N   0  0  0  0  0  0  0  0  0  0  0  0
   42.5800   34.4340   40.8920 C   0  0  0  0  0  0  0  0  0  0  0  0
   43.5230   34.3290   41.4170 H   0  0  0  0  0  0  0  0  0  0  0  0
   42.1370   35.4710   40.1500 N   0  0  0  0  0  0  0  0  0  0  0  0
   42.6940   36.3530   39.9870 H   0  0  0  0  0  0  0  0  0  0  0  0
   40.9180   35.2100   39.6710 N   0  0  0  0  0  0  0  0  0  0  0  0
  2  1  1  0  0  0  0
  3  2  2  0  0  0  0
  3 15  1  0  0  0  0
  4  3  1  0  0  0  0
  5  4  2  0  0  0  0
  5  6  1  0  0  0  0
  6  7  2  0  0  0  0
  7  2  1  0  0  0  0
  7 23  1  0  0  0  0
  8  4  1  0  0  0  0
  9  5  1  0  0  0  0
 10  6  1  0  0  0  0
 11 12  1  0  0  0  0
 12 18  1  0  0  0  0
 12 13  2  0  0  0  0
 13 19  1  0  0  0  0
 14 13  1  0  0  0  0
 15 14  2  0  0  0  0
 16 11  2  0  0  0  0
 16 15  1  0  0  0  0
 17 11  1  0  0  0  0
 19 21  1  0  0  0  0
 19 20  1  0  0  0  0
 19 22  1  0  0  0  0
 23 27  1  0  0  0  0
 23 24  2  0  0  0  0
 24 28  1  0  0  0  0
 24 25  1  0  0  0  0
 25 29  1  0  0  0  0
 26 25  2  0  0  0  0
 26 30  1  0  0  0  0
 27 26  1  0  0  0  0
 30 31  1  0  0  0  0
 31 32  2  0  0  0  0
 32 33  1  0  0  0  0
 34 32  1  0  0  0  0
 35 34  1  0  0  0  0
 36 30  2  0  0  0  0
 36 34  1  0  0  0  0
M  END
>  <minimizedAffinity>
-6.22407293

$$$$

 OpenBabel03252500163D

 36 39  0  0  0  0  0  0  0  0999 V2000
   39.2020   27.6210   40.3760 Cl  0  0  0  0  0  0  0  0  0  0  0  0
   38.2480   27.6760   41.8140 C   0  0  0  0  0  0  0  0  0  0  0  0
   37.4530   26.6180   42.1740 C   0  0  0  0  0  0  0  0  0  0  0  0
   36.6760   26.6320   43.3200 C   0  0  0  0  0  0  0  0  0  0  0  0
   36.7420   27.7760   44.0930 C   0  0  0  0  0  0  0  0  0  0  0  0
   37.5420   28.8520   43.7400 C   0  0  0  0  0  0  0  0  0  0  0  0
   38.2790   28.8060   42.6250 C   0  0  0  0  0  0  0  0  0  0  0  0
   36.0670   25.8000   43.5820 H   0  0  0  0  0  0  0  0  0  0  0  0
   36.1560   27.8400   45.0010 H   0  0  0  0  0  0  0  0  0  0  0  0
   37.5370   29.7120   44.4000 H   0  0  0  0  0  0  0  0  0  0  0  0
   38.2240   23.3030   40.7620 C   0  0  0  0  0  0  0  0  0  0  0  0
   37.3210   23.2210   39.6700 C   0  0  0  0  0  0  0  0  0  0  0  0
   36.4750   24.2930   39.4430 C   0  0  0  0  0  0  0  0  0  0  0  0
   36.5460   25.3780   40.2760 N   0  0  0  0  0  0  0  0  0  0  0  0
   37.4230   25.4270   41.3150 C   0  0  0  0  0  0  0  0  0  0  0  0
   38.2380   24.3980   41.5360 N   0  0  0  0  0  0  0  0  0  0  0  0
   38.8930   22.4640   40.9480 H   0  0  0  0  0  0  0  0  0  0  0  0
   37.2670   22.3740   39.0230 H   0  0  0  0  0  0  0  0  0  0  0  0
   35.4800   24.3190   38.3210 C   0  0  0  0  0  0  0  0  0  0  0  0
   35.9790   23.6930   37.2180 F   0  0  0  0  0  0  0  0  0  0  0  0
   34.3360   23.6650   38.7410 F   0  0  0  0  0  0  0  0  0  0  0  0
   35.1960   25.6440   38.0860 F   0  0  0  0  0  0  0  0  0  0  0  0
   39.1330   29.9200   42.2240 C   0  0  0  0  0  0  0  0  0  0  0  0
   40.5210   29.9690   42.4200 C   0  0  0  0  0  0  0  0  0  0  0  0
   40.9970   31.1590   41.9220 C   0  0  0  0  0  0  0  0  0  0  0  0
   39.8710   31.7880   41.4410 C   0  0  0  0  0  0  0  0  0  0  0  0
   38.8000   31.0410   41.6320 O   0  0  0  0  0  0  0  0  0  0  0  0
   41.1830   29.2240   42.8830 H   0  0  0  0  0  0  0  0  0  0  0  0
   41.9610   31.6050   41.8600 H   0  0  0  0  0  0  0  0  0  0  0  0
   39.6560   33.0780   40.7860 C   0  0  0  0  0  0  0  0  0  0  0  0
   40.4690   34.1200   40.5620 N   0  0  0  0  0  0  0  0  0  0  0  0
   39.7910   35.1010   39.9060 C   0  0  0  0  0  0  0  0  0  0  0  0
   40.2000   36.0580   39.5970 H   0  0  0  0  0  0  0  0  0  0  0  0
   38.5400   34.6250   39.7380 N   0  0  0  0  0  0  0  0  0  0  0  0
   37.7690   35.1610   39.2550 H   0  0  0  0  0  0  0  0  0  0  0  0
   38.4360   33.4010   40.2630 N   0  0  0  0  0  0  0  0  0  0  0  0
  1  2  1  0  0  0  0
  2  3  2  0  0  0  0
  2  7  1  0  0  0  0
  3  4  1  0  0  0  0
  4  8  1  0  0  0  0
  4  5  2  0  0  0  0
  5  9  1  0  0  0  0
  6  5  1  0  0  0  0
  6 10  1  0  0  0  0
  7  6  2  0  0  0  0
 11 17  1  0  0  0  0
 11 16  1  0  0  0  0
 12 11  2  0  0  0  0
 13 12  1  0  0  0  0
 13 14  2  0  0  0  0
 14 15  1  0  0  0  0
 15 16  2  0  0  0  0
 15  3  1  0  0  0  0
 18 12  1  0  0  0  0
 19 21  1  0  0  0  0
 19 13  1  0  0  0  0
 20 19  1  0  0  0  0
 22 19  1  0  0  0  0
 23 24  2  0  0  0  0
 23  7  1  0  0  0  0
 24 28  1  0  0  0  0
 25 24  1  0  0  0  0
 26 27  1  0  0  0  0
 26 25  2  0  0  0  0
 27 23  1  0  0  0  0
 29 25  1  0  0  0  0
 30 26  1  0  0  0  0
 31 30  1  0  0  0  0
 32 31  2  0  0  0  0
 33 32  1  0  0  0  0
 34 32  1  0  0  0  0
 34 36  1  0  0  0  0
 35 34  1  0  0  0  0
 36 30  2  0  0  0  0
M  END
>  <minimizedAffinity>
-6.22383022

$$$$
