REMARK  Name = 
REMARK  3 active torsions:
REMARK  status: ('A' for Active; 'I' for Inactive)
REMARK    1  A    between atoms: C_2  and  C_14
REMARK    2  A    between atoms: C_9  and  C_16
REMARK    3  A    between atoms: C_19  and  C_30
REMARK                            x       y       z     vdW  Elec       q    Type
REMARK                         _______ _______ _______ _____ _____    ______ ____
ROOT
ATOM      1  C   UNL     1      47.266  31.392  45.147  0.00  0.00    +0.000 A 
ATOM      2  C   UNL     1      46.874  32.713  45.129  0.00  0.00    +0.000 A 
ATOM      3  C   UNL     1      46.241  33.317  46.192  0.00  0.00    +0.000 A 
ATOM      4  C   UNL     1      45.966  32.593  47.357  0.00  0.00    +0.000 A 
ATOM      5  N   UNL     1      45.381  32.850  48.554  0.00  0.00    +0.000 N 
ATOM      6  C   UNL     1      45.412  31.709  49.295  0.00  0.00    +0.000 A 
ATOM      7  N   UNL     1      46.017  30.768  48.537  0.00  0.00    +0.000 NA
ATOM      8  C   UNL     1      46.369  31.276  47.346  0.00  0.00    +0.000 A 
ATOM      9  C   UNL     1      46.994  30.656  46.314  0.00  0.00    +0.000 A 
ATOM     10  H   UNL     1      47.763  30.920  44.312  0.00  0.00    +0.000 HD
ATOM     11  H   UNL     1      45.917  34.358  46.214  0.00  0.00    +0.000 HD
ATOM     12  H   UNL     1      45.001  33.815  48.761  0.00  0.00    +0.000 HD
ATOM     13  H   UNL     1      45.007  31.648  50.292  0.00  0.00    +0.000 HD
ENDROOT
BRANCH   2  18
ATOM     14  C   UNL     1      46.478  35.195  42.441  0.00  0.00    +0.000 A 
ATOM     15  C   UNL     1      47.650  35.030  41.702  0.00  0.00    +0.000 A 
ATOM     16  C   UNL     1      48.575  34.063  42.131  0.00  0.00    +0.000 A 
ATOM     17  N   UNL     1      48.286  33.328  43.252  0.00  0.00    +0.000 NA
ATOM     18  C   UNL     1      47.133  33.522  43.942  0.00  0.00    +0.000 A 
ATOM     19  N   UNL     1      46.251  34.441  43.537  0.00  0.00    +0.000 NA
ATOM     20  H   UNL     1      45.782  35.948  42.088  0.00  0.00    +0.000 HD
ATOM     21  H   UNL     1      47.923  35.584  40.813  0.00  0.00    +0.000 HD
ATOM     22  H   UNL     1      49.495  33.856  41.645  0.00  0.00    +0.000 HD
ENDBRANCH   2  18
BRANCH   9  23
ATOM     23  C   UNL     1      47.385  29.240  46.402  0.00  0.00    +0.000 A 
ATOM     24  C   UNL     1      48.676  28.794  46.619  0.00  0.00    +0.000 A 
ATOM     25  C   UNL     1      48.554  27.400  46.623  0.00  0.00    +0.000 A 
ATOM     26  C   UNL     1      47.212  27.080  46.412  0.00  0.00    +0.000 A 
ATOM     27  O   UNL     1      46.551  28.229  46.285  0.00  0.00    +0.000 OA
ATOM     28  H   UNL     1      49.563  29.378  46.752  0.00  0.00    +0.000 HD
ATOM     29  H   UNL     1      49.348  26.680  46.764  0.00  0.00    +0.000 HD
BRANCH  26  30
ATOM     30  C   UNL     1      46.705  25.715  46.354  0.00  0.00    +0.000 A 
ATOM     31  N   UNL     1      46.945  24.525  46.943  0.00  0.00    +0.000 NA
ATOM     32  C   UNL     1      46.102  23.605  46.433  0.00  0.00    +0.000 A 
ATOM     33  H   UNL     1      46.038  22.566  46.691  0.00  0.00    +0.000 HD
ATOM     34  N   UNL     1      45.324  24.230  45.511  0.00  0.00    +0.000 N 
ATOM     35  H   UNL     1      44.559  23.786  44.928  0.00  0.00    +0.000 HD
ATOM     36  N   UNL     1      45.703  25.496  45.480  0.00  0.00    +0.000 NA
ENDBRANCH  26  30
ENDBRANCH   9  23
TORSDOF 3
