REMARK  Name = 
REMARK  5 active torsions:
REMARK  status: ('A' for Active; 'I' for Inactive)
REMARK    1  A    between atoms: C_1  and  C_2
REMARK    2  A    between atoms: C_1  and  C_11
REMARK    3  A    between atoms: C_5  and  C_30
REMARK    4  A    between atoms: C_7  and  N_10
REMARK    5  A    between atoms: C_11  and  C_16
REMARK                            x       y       z     vdW  Elec       q    Type
REMARK                         _______ _______ _______ _____ _____    ______ ____
ROOT
ATOM      1  C   UNL     1      46.207  31.916  47.180  0.00  0.00    +0.000 A 
ATOM      2  C   UNL     1      45.484  32.368  48.265  0.00  0.00    +0.000 A 
ATOM      3  C   UNL     1      44.963  31.546  49.219  0.00  0.00    +0.000 A 
ATOM      4  C   UNL     1      45.164  30.194  49.098  0.00  0.00    +0.000 A 
ATOM      5  C   UNL     1      45.882  29.728  48.022  0.00  0.00    +0.000 A 
ATOM      6  C   UNL     1      46.406  30.573  47.061  0.00  0.00    +0.000 A 
ATOM      7  H   UNL     1      45.367  33.464  48.290  0.00  0.00    +0.000 HD
ATOM      8  H   UNL     1      44.421  32.031  50.014  0.00  0.00    +0.000 HD
ATOM      9  H   UNL     1      45.937  28.632  48.094  0.00  0.00    +0.000 HD
ENDROOT
BRANCH   4  10
ATOM     10  C   UNL     1      44.563  29.391  50.176  0.00  0.00    +0.000 A 
ATOM     11  N   UNL     1      43.549  28.561  50.321  0.00  0.00    +0.000 NA
ATOM     12  C   UNL     1      43.568  28.169  51.619  0.00  0.00    +0.000 A 
ATOM     13  H   UNL     1      42.913  27.495  52.154  0.00  0.00    +0.000 HD
ATOM     14  N   UNL     1      44.595  28.764  52.256  0.00  0.00    +0.000 N 
ATOM     15  H   UNL     1      44.868  28.656  53.274  0.00  0.00    +0.000 HD
ATOM     16  N   UNL     1      45.219  29.529  51.355  0.00  0.00    +0.000 NA
ENDBRANCH   4  10
BRANCH   6  19
ATOM     17  C   UNL     1      48.445  29.416  46.471  0.00  0.00    +0.000 C 
ATOM     18  O   UNL     1      49.315  29.661  47.386  0.00  0.00    +0.000 OA
ATOM     19  N   UNL     1      47.092  29.736  46.127  0.00  0.00    +0.000 N 
ATOM     20  H   UNL     1      49.142  28.779  45.923  0.00  0.00    +0.000 HD
ATOM     21  H   UNL     1      46.809  29.311  45.246  0.00  0.00    +0.000 HD
ENDBRANCH   6  19
BRANCH   1  22
ATOM     22  C   UNL     1      46.810  32.681  46.092  0.00  0.00    +0.000 C 
ATOM     23  H   UNL     1      47.861  32.323  45.887  0.00  0.00    +0.000 HD
ATOM     24  H   UNL     1      46.930  33.723  46.450  0.00  0.00    +0.000 HD
BRANCH  22  25
ATOM     25  C   UNL     1      45.979  32.594  44.838  0.00  0.00    +0.000 C 
ATOM     26  H   UNL     1      45.026  32.082  45.084  0.00  0.00    +0.000 HD
ATOM     27  H   UNL     1      46.502  32.022  44.047  0.00  0.00    +0.000 HD
BRANCH  25  32
ATOM     28  C   UNL     1      44.578  35.980  44.798  0.00  0.00    +0.000 A 
ATOM     29  C   UNL     1      45.006  36.477  43.545  0.00  0.00    +0.000 A 
ATOM     30  C   UNL     1      45.769  35.614  42.761  0.00  0.00    +0.000 A 
ATOM     31  N   UNL     1      46.061  34.385  43.205  0.00  0.00    +0.000 NA
ATOM     32  C   UNL     1      45.622  33.966  44.414  0.00  0.00    +0.000 A 
ATOM     33  N   UNL     1      44.904  34.726  45.195  0.00  0.00    +0.000 NA
ATOM     34  H   UNL     1      43.983  36.635  45.425  0.00  0.00    +0.000 HD
ATOM     35  H   UNL     1      44.734  37.479  43.252  0.00  0.00    +0.000 HD
ATOM     36  H   UNL     1      46.115  35.977  41.782  0.00  0.00    +0.000 HD
ENDBRANCH  25  32
ENDBRANCH  22  25
ENDBRANCH   1  22
TORSDOF 5
