
 OpenBabel03252501293D

 36 38  0  0  0  0  0  0  0  0999 V2000
   44.5700   29.2300   44.8180 C   0  0  0  0  0  0  0  0  0  0  0  0
   44.4460   29.7800   43.5590 C   0  0  0  0  0  0  0  0  0  0  0  0
   45.0430   30.9460   43.1830 C   0  0  0  0  0  0  0  0  0  0  0  0
   45.8080   31.6150   44.1050 C   0  0  0  0  0  0  0  0  0  0  0  0
   45.9400   31.0810   45.3650 C   0  0  0  0  0  0  0  0  0  0  0  0
   45.3300   29.8960   45.7330 C   0  0  0  0  0  0  0  0  0  0  0  0
   43.8170   29.1830   42.8780 H   0  0  0  0  0  0  0  0  0  0  0  0
   44.8650   31.2610   42.1680 H   0  0  0  0  0  0  0  0  0  0  0  0
   46.5810   31.7500   45.9570 H   0  0  0  0  0  0  0  0  0  0  0  0
   46.4090   32.8630   43.6050 C   0  0  0  0  0  0  0  0  0  0  0  0
   46.0230   33.9240   42.9240 N   0  0  0  0  0  0  0  0  0  0  0  0
   47.1180   34.7170   42.8110 C   0  0  0  0  0  0  0  0  0  0  0  0
   47.2380   35.6760   42.3290 H   0  0  0  0  0  0  0  0  0  0  0  0
   48.1640   34.1300   43.4250 N   0  0  0  0  0  0  0  0  0  0  0  0
   49.1520   34.5040   43.5060 H   0  0  0  0  0  0  0  0  0  0  0  0
   47.7230   32.9710   43.9220 N   0  0  0  0  0  0  0  0  0  0  0  0
   46.9420   28.9510   47.2660 C   0  0  0  0  0  0  0  0  0  0  0  0
   47.8740   28.4030   46.5690 O   0  0  0  0  0  0  0  0  0  0  0  0
   45.7090   29.6580   47.0900 N   0  0  0  0  0  0  0  0  0  0  0  0
   47.4330   28.6850   48.2040 H   0  0  0  0  0  0  0  0  0  0  0  0
   45.2720   29.8930   47.9790 H   0  0  0  0  0  0  0  0  0  0  0  0
   43.9840   28.0020   45.3480 C   0  0  0  0  0  0  0  0  0  0  0  0
   44.5330   27.6660   46.2760 H   0  0  0  0  0  0  0  0  0  0  0  0
   44.1680   27.2020   44.6040 H   0  0  0  0  0  0  0  0  0  0  0  0
   42.5190   28.1820   45.6510 C   0  0  0  0  0  0  0  0  0  0  0  0
   42.1120   28.9520   44.9640 H   0  0  0  0  0  0  0  0  0  0  0  0
   42.3610   28.5110   46.6960 H   0  0  0  0  0  0  0  0  0  0  0  0
   41.2340   25.2620   43.8470 C   0  0  0  0  0  0  0  0  0  0  0  0
   40.4760   24.5960   44.8380 C   0  0  0  0  0  0  0  0  0  0  0  0
   40.4420   25.1880   46.0980 C   0  0  0  0  0  0  0  0  0  0  0  0
   41.1060   26.3290   46.3220 N   0  0  0  0  0  0  0  0  0  0  0  0
   41.8140   26.9200   45.3330 C   0  0  0  0  0  0  0  0  0  0  0  0
   41.8850   26.4160   44.1310 N   0  0  0  0  0  0  0  0  0  0  0  0
   41.2740   24.8190   42.8580 H   0  0  0  0  0  0  0  0  0  0  0  0
   39.9670   23.6780   44.5870 H   0  0  0  0  0  0  0  0  0  0  0  0
   39.8600   24.6880   46.8870 H   0  0  0  0  0  0  0  0  0  0  0  0
  1 22  1  0  0  0  0
  1  6  1  0  0  0  0
  2  1  2  0  0  0  0
  3  2  1  0  0  0  0
  3  4  2  0  0  0  0
  4  5  1  0  0  0  0
  5  6  2  0  0  0  0
  5  9  1  0  0  0  0
  6 19  1  0  0  0  0
  7  2  1  0  0  0  0
  8  3  1  0  0  0  0
 10 16  2  0  0  0  0
 10  4  1  0  0  0  0
 11 10  1  0  0  0  0
 12 11  2  0  0  0  0
 12 14  1  0  0  0  0
 13 12  1  0  0  0  0
 14 15  1  0  0  0  0
 14 16  1  0  0  0  0
 17 20  1  0  0  0  0
 18 17  2  0  0  0  0
 19 17  1  0  0  0  0
 19 21  1  0  0  0  0
 22 25  1  0  0  0  0
 22 23  1  0  0  0  0
 24 22  1  0  0  0  0
 25 27  1  0  0  0  0
 26 25  1  0  0  0  0
 28 33  2  0  0  0  0
 28 29  1  0  0  0  0
 29 30  2  0  0  0  0
 30 31  1  0  0  0  0
 30 36  1  0  0  0  0
 32 25  1  0  0  0  0
 32 31  2  0  0  0  0
 33 32  1  0  0  0  0
 34 28  1  0  0  0  0
 35 29  1  0  0  0  0
M  END
>  <minimizedAffinity>
-3.47885394

>  <minimizedRMSD>
7.83004093

$$$$
