
 OpenBabel03242523533D

 43 46  0  0  1  0  0  0  0  0999 V2000
   42.8140   34.5200   38.7390 C   0  0  1  0  0  0  0  0  0  0  0  0
   42.9620   35.1790   40.1010 C   0  0  1  0  0  0  0  0  0  0  0  0
   41.6730   35.4060   40.6220 O   0  0  0  0  0  0  0  0  0  0  0  0
   40.7460   35.7530   39.6360 C   0  0  0  0  0  0  0  0  0  0  0  0
   40.4360   34.5870   38.7170 C   0  0  2  0  0  0  0  0  0  0  0  0
   41.6460   33.5960   38.8450 C   0  0  1  0  0  0  0  0  0  0  0  0
   43.7410   33.9440   38.5490 H   0  0  0  0  0  0  0  0  0  0  0  0
   43.5540   36.1080   40.0740 H   0  0  0  0  0  0  0  0  0  0  0  0
   39.8190   35.9900   40.1910 H   0  0  0  0  0  0  0  0  0  0  0  0
   41.0440   36.6710   39.0930 H   0  0  0  0  0  0  0  0  0  0  0  0
   39.5060   34.0520   38.9940 H   0  0  0  0  0  0  0  0  0  0  0  0
   41.4380   33.3290   39.9280 H   0  0  0  0  0  0  0  0  0  0  0  0
   42.6020   35.4860   37.7430 O   0  0  0  0  0  0  0  0  0  0  0  0
   43.0990   35.2900   36.9030 H   0  0  0  0  0  0  0  0  0  0  0  0
   40.4480   35.0130   37.3990 O   0  0  0  0  0  0  0  0  0  0  0  0
   40.7180   34.3490   36.7410 H   0  0  0  0  0  0  0  0  0  0  0  0
   43.4900   34.1820   40.9410 O   0  0  0  0  0  0  0  0  0  0  0  0
   44.5940   34.3120   41.6860 C   0  0  0  0  0  0  0  0  0  0  0  0
   45.8570   34.4360   41.0890 C   0  0  0  0  0  0  0  0  0  0  0  0
   46.9690   34.5690   41.9000 C   0  0  0  0  0  0  0  0  0  0  0  0
   46.8030   34.5790   43.2760 N   0  0  0  0  0  0  0  0  0  0  0  0
   45.5700   34.4570   43.8130 C   0  0  0  0  0  0  0  0  0  0  0  0
   44.4730   34.3250   43.0230 N   0  0  0  0  0  0  0  0  0  0  0  0
   45.9780   34.4280   40.0320 H   0  0  0  0  0  0  0  0  0  0  0  0
   45.4200   34.4630   44.8900 H   0  0  0  0  0  0  0  0  0  0  0  0
   48.3510   34.6770   41.3270 C   0  0  0  0  0  0  0  0  0  0  0  0
   49.0630   36.0150   41.5190 C   0  0  0  0  0  0  0  0  0  0  0  0
   49.4920   34.6970   42.1890 C   0  0  0  0  0  0  0  0  0  0  0  0
   48.4000   34.2210   40.3250 H   0  0  0  0  0  0  0  0  0  0  0  0
   48.5340   36.7610   42.1250 H   0  0  0  0  0  0  0  0  0  0  0  0
   49.6410   36.3250   40.6340 H   0  0  0  0  0  0  0  0  0  0  0  0
   50.4530   34.3120   41.8430 H   0  0  0  0  0  0  0  0  0  0  0  0
   49.4040   34.7500   43.3040 H   0  0  0  0  0  0  0  0  0  0  0  0
   41.5060   32.6630   37.8880 O   0  0  0  0  0  0  0  0  0  0  0  0
   40.8600   31.4920   37.8850 C   0  0  0  0  0  0  0  0  0  0  0  0
   39.5980   31.3980   37.4710 O   0  0  0  0  0  0  0  0  0  0  0  0
   41.2680   30.0900   38.2770 C   0  0  0  0  0  0  0  0  0  0  0  0
   40.4420   29.2780   38.9480 N   0  0  0  0  0  0  0  0  0  0  0  0
   41.0430   28.0910   39.1610 C   0  0  0  0  0  0  0  0  0  0  0  0
   40.5750   27.2860   39.6780 H   0  0  0  0  0  0  0  0  0  0  0  0
   42.2610   28.1680   38.6140 N   0  0  0  0  0  0  0  0  0  0  0  0
   43.0010   27.4370   38.5890 H   0  0  0  0  0  0  0  0  0  0  0  0
   42.3820   29.3650   38.0910 N   0  0  0  0  0  0  0  0  0  0  0  0
  1  7  1  6  0  0  0
  1  6  1  0  0  0  0
  1  2  1  0  0  0  0
  2  8  1  6  0  0  0
  2  3  1  0  0  0  0
  2 17  1  0  0  0  0
  4  9  1  0  0  0  0
  4  3  1  0  0  0  0
  5  6  1  0  0  0  0
  5 11  1  1  0  0  0
  5  4  1  0  0  0  0
  6 12  1  1  0  0  0
 10  4  1  0  0  0  0
 13  1  1  0  0  0  0
 14 13  1  0  0  0  0
 15  5  1  0  0  0  0
 16 15  1  0  0  0  0
 17 18  1  0  0  0  0
 18 23  1  0  0  0  0
 19 18  2  0  0  0  0
 19 20  1  0  0  0  0
 20 21  2  0  0  0  0
 21 22  1  0  0  0  0
 22 25  1  0  0  0  0
 23 22  2  0  0  0  0
 24 19  1  0  0  0  0
 26 27  1  0  0  0  0
 26 20  1  0  0  0  0
 26 28  1  0  0  0  0
 27 30  1  0  0  0  0
 27 28  1  0  0  0  0
 28 33  1  0  0  0  0
 29 26  1  0  0  0  0
 31 27  1  0  0  0  0
 32 28  1  0  0  0  0
 34  6  1  0  0  0  0
 35 34  1  0  0  0  0
 35 37  1  0  0  0  0
 36 35  2  0  0  0  0
 37 38  1  0  0  0  0
 38 39  2  0  0  0  0
 39 40  1  0  0  0  0
 41 39  1  0  0  0  0
 42 41  1  0  0  0  0
 43 37  2  0  0  0  0
 43 41  1  0  0  0  0
M  END
>  <minimizedAffinity>
-5.6111474

>  <minimizedRMSD>
0.114820853

$$$$
