
 OpenBabel03242523543D

 43 46  0  0  1  0  0  0  0  0999 V2000
   42.8020   34.4450   38.8310 C   0  0  1  0  0  0  0  0  0  0  0  0
   42.9710   35.1810   40.1510 C   0  0  1  0  0  0  0  0  0  0  0  0
   41.6910   35.4860   40.6520 O   0  0  0  0  0  0  0  0  0  0  0  0
   40.7780   35.8040   39.6420 C   0  0  0  0  0  0  0  0  0  0  0  0
   40.4280   34.5960   38.7950 C   0  0  2  0  0  0  0  0  0  0  0  0
   41.6010   33.5730   38.9890 C   0  0  1  0  0  0  0  0  0  0  0  0
   43.7080   33.8250   38.6800 H   0  0  0  0  0  0  0  0  0  0  0  0
   43.5970   36.0840   40.0690 H   0  0  0  0  0  0  0  0  0  0  0  0
   39.8590   36.1080   40.1780 H   0  0  0  0  0  0  0  0  0  0  0  0
   41.1110   36.6770   39.0460 H   0  0  0  0  0  0  0  0  0  0  0  0
   39.4790   34.1130   39.1010 H   0  0  0  0  0  0  0  0  0  0  0  0
   41.3810   33.3800   40.0850 H   0  0  0  0  0  0  0  0  0  0  0  0
   42.6260   35.3550   37.7760 O   0  0  0  0  0  0  0  0  0  0  0  0
   43.1180   35.0900   36.9520 H   0  0  0  0  0  0  0  0  0  0  0  0
   40.4580   34.9400   37.4540 O   0  0  0  0  0  0  0  0  0  0  0  0
   40.7050   34.2280   36.8390 H   0  0  0  0  0  0  0  0  0  0  0  0
   43.4610   34.2190   41.0520 O   0  0  0  0  0  0  0  0  0  0  0  0
   44.5860   34.3410   41.7680 C   0  0  0  0  0  0  0  0  0  0  0  0
   45.8320   34.4650   41.1370 C   0  0  0  0  0  0  0  0  0  0  0  0
   46.9660   34.5890   41.9180 C   0  0  0  0  0  0  0  0  0  0  0  0
   46.8380   34.5890   43.2990 N   0  0  0  0  0  0  0  0  0  0  0  0
   45.6200   34.4670   43.8680 C   0  0  0  0  0  0  0  0  0  0  0  0
   44.5010   34.3430   43.1080 N   0  0  0  0  0  0  0  0  0  0  0  0
   45.9240   34.4640   40.0770 H   0  0  0  0  0  0  0  0  0  0  0  0
   45.5000   34.4640   44.9490 H   0  0  0  0  0  0  0  0  0  0  0  0
   48.3320   34.6970   41.3080 C   0  0  0  0  0  0  0  0  0  0  0  0
   49.0650   36.0220   41.5140 C   0  0  0  0  0  0  0  0  0  0  0  0
   49.4980   34.6830   42.1370 C   0  0  0  0  0  0  0  0  0  0  0  0
   48.3470   34.2670   40.2940 H   0  0  0  0  0  0  0  0  0  0  0  0
   48.5610   36.7580   42.1550 H   0  0  0  0  0  0  0  0  0  0  0  0
   49.6200   36.3490   40.6210 H   0  0  0  0  0  0  0  0  0  0  0  0
   50.4440   34.2970   41.7540 H   0  0  0  0  0  0  0  0  0  0  0  0
   49.4430   34.7080   43.2560 H   0  0  0  0  0  0  0  0  0  0  0  0
   41.4290   32.5880   38.0900 O   0  0  0  0  0  0  0  0  0  0  0  0
   40.7100   31.4610   38.1420 C   0  0  0  0  0  0  0  0  0  0  0  0
   39.6030   31.3120   37.4170 O   0  0  0  0  0  0  0  0  0  0  0  0
   40.8750   30.1690   38.9080 C   0  0  0  0  0  0  0  0  0  0  0  0
   39.8450   29.5830   39.5300 N   0  0  0  0  0  0  0  0  0  0  0  0
   40.2590   28.4450   40.1250 C   0  0  0  0  0  0  0  0  0  0  0  0
   39.6110   27.8110   40.6810 H   0  0  0  0  0  0  0  0  0  0  0  0
   41.5670   28.3250   39.8660 N   0  0  0  0  0  0  0  0  0  0  0  0
   42.2130   27.5670   40.1680 H   0  0  0  0  0  0  0  0  0  0  0  0
   41.9210   29.3580   39.1400 N   0  0  0  0  0  0  0  0  0  0  0  0
  1  7  1  6  0  0  0
  1  6  1  0  0  0  0
  1  2  1  0  0  0  0
  2  8  1  6  0  0  0
  2  3  1  0  0  0  0
  2 17  1  0  0  0  0
  4  9  1  0  0  0  0
  4  3  1  0  0  0  0
  5  6  1  0  0  0  0
  5 11  1  1  0  0  0
  5  4  1  0  0  0  0
  6 12  1  1  0  0  0
 10  4  1  0  0  0  0
 13  1  1  0  0  0  0
 14 13  1  0  0  0  0
 15  5  1  0  0  0  0
 16 15  1  0  0  0  0
 17 18  1  0  0  0  0
 18 23  1  0  0  0  0
 19 18  2  0  0  0  0
 19 20  1  0  0  0  0
 20 21  2  0  0  0  0
 21 22  1  0  0  0  0
 22 25  1  0  0  0  0
 23 22  2  0  0  0  0
 24 19  1  0  0  0  0
 26 27  1  0  0  0  0
 26 20  1  0  0  0  0
 26 28  1  0  0  0  0
 27 28  1  0  0  0  0
 27 30  1  0  0  0  0
 28 33  1  0  0  0  0
 29 26  1  0  0  0  0
 31 27  1  0  0  0  0
 32 28  1  0  0  0  0
 34 35  1  0  0  0  0
 34  6  1  0  0  0  0
 35 37  1  0  0  0  0
 36 35  2  0  0  0  0
 37 43  2  0  0  0  0
 37 38  1  0  0  0  0
 38 39  2  0  0  0  0
 39 40  1  0  0  0  0
 41 39  1  0  0  0  0
 41 42  1  0  0  0  0
 43 41  1  0  0  0  0
M  END
>  <minimizedAffinity>
-5.6874218

>  <minimizedRMSD>
0.570634007

$$$$
