
 OpenBabel03242523533D

 43 46  0  0  1  0  0  0  0  0999 V2000
   42.9040   34.2640   39.1340 C   0  0  1  0  0  0  0  0  0  0  0  0
   43.1120   35.1540   40.3480 C   0  0  1  0  0  0  0  0  0  0  0  0
   41.8550   35.6360   40.7620 O   0  0  0  0  0  0  0  0  0  0  0  0
   40.9970   35.8940   39.6900 C   0  0  0  0  0  0  0  0  0  0  0  0
   40.5540   34.6180   39.0000 C   0  0  2  0  0  0  0  0  0  0  0  0
   41.6240   33.5300   39.3670 C   0  0  1  0  0  0  0  0  0  0  0  0
   43.7510   33.5520   39.0960 H   0  0  0  0  0  0  0  0  0  0  0  0
   43.8200   35.9790   40.1680 H   0  0  0  0  0  0  0  0  0  0  0  0
   40.0990   36.3480   40.1500 H   0  0  0  0  0  0  0  0  0  0  0  0
   41.4200   36.6440   38.9940 H   0  0  0  0  0  0  0  0  0  0  0  0
   39.5590   34.2670   39.3360 H   0  0  0  0  0  0  0  0  0  0  0  0
   41.3650   33.5080   40.4710 H   0  0  0  0  0  0  0  0  0  0  0  0
   42.8340   35.0350   37.9620 O   0  0  0  0  0  0  0  0  0  0  0  0
   43.3160   34.6180   37.1970 H   0  0  0  0  0  0  0  0  0  0  0  0
   40.6430   34.7720   37.6270 O   0  0  0  0  0  0  0  0  0  0  0  0
   40.8360   33.9650   37.1210 H   0  0  0  0  0  0  0  0  0  0  0  0
   43.4930   34.2830   41.3860 O   0  0  0  0  0  0  0  0  0  0  0  0
   44.6640   34.3270   42.0330 C   0  0  0  0  0  0  0  0  0  0  0  0
   45.8660   34.5150   41.3370 C   0  0  0  0  0  0  0  0  0  0  0  0
   47.0500   34.5550   42.0490 C   0  0  0  0  0  0  0  0  0  0  0  0
   47.0150   34.4100   43.4270 N   0  0  0  0  0  0  0  0  0  0  0  0
   45.8360   34.2310   44.0620 C   0  0  0  0  0  0  0  0  0  0  0  0
   44.6680   34.1900   43.3690 N   0  0  0  0  0  0  0  0  0  0  0  0
   45.8880   34.6250   40.2790 H   0  0  0  0  0  0  0  0  0  0  0  0
   45.7870   34.1160   45.1420 H   0  0  0  0  0  0  0  0  0  0  0  0
   48.3740   34.7230   41.3640 C   0  0  0  0  0  0  0  0  0  0  0  0
   49.0770   36.0650   41.5650 C   0  0  0  0  0  0  0  0  0  0  0  0
   49.5870   34.7230   42.1220 C   0  0  0  0  0  0  0  0  0  0  0  0
   48.3420   34.3220   40.3380 H   0  0  0  0  0  0  0  0  0  0  0  0
   48.5900   36.7660   42.2560 H   0  0  0  0  0  0  0  0  0  0  0  0
   49.5680   36.4340   40.6520 H   0  0  0  0  0  0  0  0  0  0  0  0
   50.5200   34.3790   41.6740 H   0  0  0  0  0  0  0  0  0  0  0  0
   49.5980   34.7160   43.2420 H   0  0  0  0  0  0  0  0  0  0  0  0
   41.3810   32.4520   38.6020 O   0  0  0  0  0  0  0  0  0  0  0  0
   40.4620   31.4850   38.7050 C   0  0  0  0  0  0  0  0  0  0  0  0
   40.2720   30.6030   37.7270 O   0  0  0  0  0  0  0  0  0  0  0  0
   39.4820   31.1090   39.7930 C   0  0  0  0  0  0  0  0  0  0  0  0
   39.7250   30.1010   40.6390 N   0  0  0  0  0  0  0  0  0  0  0  0
   38.7030   29.9820   41.5110 C   0  0  0  0  0  0  0  0  0  0  0  0
   38.6770   29.2450   42.2790 H   0  0  0  0  0  0  0  0  0  0  0  0
   37.8130   30.9310   41.1980 N   0  0  0  0  0  0  0  0  0  0  0  0
   36.9030   31.1330   41.6600 H   0  0  0  0  0  0  0  0  0  0  0  0
   38.2890   31.5950   40.1730 N   0  0  0  0  0  0  0  0  0  0  0  0
  1  7  1  6  0  0  0
  1  6  1  0  0  0  0
  1  2  1  0  0  0  0
  2  8  1  6  0  0  0
  2  3  1  0  0  0  0
  2 17  1  0  0  0  0
  4  9  1  0  0  0  0
  4  3  1  0  0  0  0
  5 11  1  1  0  0  0
  5  6  1  0  0  0  0
  5  4  1  0  0  0  0
  6 12  1  1  0  0  0
 10  4  1  0  0  0  0
 13  1  1  0  0  0  0
 14 13  1  0  0  0  0
 15  5  1  0  0  0  0
 16 15  1  0  0  0  0
 17 18  1  0  0  0  0
 18 23  1  0  0  0  0
 19 18  2  0  0  0  0
 19 20  1  0  0  0  0
 20 21  2  0  0  0  0
 21 22  1  0  0  0  0
 22 25  1  0  0  0  0
 23 22  2  0  0  0  0
 24 19  1  0  0  0  0
 26 27  1  0  0  0  0
 26 20  1  0  0  0  0
 26 28  1  0  0  0  0
 27 28  1  0  0  0  0
 27 30  1  0  0  0  0
 28 33  1  0  0  0  0
 29 26  1  0  0  0  0
 31 27  1  0  0  0  0
 32 28  1  0  0  0  0
 34 35  1  0  0  0  0
 34  6  1  0  0  0  0
 35 37  1  0  0  0  0
 36 35  2  0  0  0  0
 37 43  2  0  0  0  0
 37 38  1  0  0  0  0
 38 39  2  0  0  0  0
 39 40  1  0  0  0  0
 41 39  1  0  0  0  0
 41 42  1  0  0  0  0
 43 41  1  0  0  0  0
M  END
>  <minimizedAffinity>
-6.07790661

>  <minimizedRMSD>
1.95387816

$$$$
