
 OpenBabel03242523533D

 43 46  0  0  1  0  0  0  0  0999 V2000
   42.8240   34.3020   39.0220 C   0  0  1  0  0  0  0  0  0  0  0  0
   43.0510   35.1740   40.2470 C   0  0  1  0  0  0  0  0  0  0  0  0
   41.7990   35.6470   40.6880 O   0  0  0  0  0  0  0  0  0  0  0  0
   40.9240   35.9200   39.6330 C   0  0  0  0  0  0  0  0  0  0  0  0
   40.4730   34.6540   38.9310 C   0  0  2  0  0  0  0  0  0  0  0  0
   41.5490   33.5630   39.2640 C   0  0  1  0  0  0  0  0  0  0  0  0
   43.6720   33.5920   38.9610 H   0  0  0  0  0  0  0  0  0  0  0  0
   43.7540   36.0030   40.0680 H   0  0  0  0  0  0  0  0  0  0  0  0
   40.0330   36.3650   40.1140 H   0  0  0  0  0  0  0  0  0  0  0  0
   41.3360   36.6820   38.9420 H   0  0  0  0  0  0  0  0  0  0  0  0
   39.4830   34.2960   39.2760 H   0  0  0  0  0  0  0  0  0  0  0  0
   41.3080   33.5230   40.3710 H   0  0  0  0  0  0  0  0  0  0  0  0
   42.7350   35.0900   37.8640 O   0  0  0  0  0  0  0  0  0  0  0  0
   43.2050   34.6860   37.0850 H   0  0  0  0  0  0  0  0  0  0  0  0
   40.5400   34.8290   37.5590 O   0  0  0  0  0  0  0  0  0  0  0  0
   40.7260   34.0300   37.0370 H   0  0  0  0  0  0  0  0  0  0  0  0
   43.4490   34.2880   41.2650 O   0  0  0  0  0  0  0  0  0  0  0  0
   44.6060   34.3590   41.9350 C   0  0  0  0  0  0  0  0  0  0  0  0
   45.8230   34.5120   41.2560 C   0  0  0  0  0  0  0  0  0  0  0  0
   46.9920   34.5820   41.9910 C   0  0  0  0  0  0  0  0  0  0  0  0
   46.9270   34.5010   43.3730 N   0  0  0  0  0  0  0  0  0  0  0  0
   45.7340   34.3540   43.9900 C   0  0  0  0  0  0  0  0  0  0  0  0
   44.5810   34.2840   43.2740 N   0  0  0  0  0  0  0  0  0  0  0  0
   45.8680   34.5740   40.1950 H   0  0  0  0  0  0  0  0  0  0  0  0
   45.6620   34.2890   45.0730 H   0  0  0  0  0  0  0  0  0  0  0  0
   48.3310   34.7170   41.3270 C   0  0  0  0  0  0  0  0  0  0  0  0
   49.0650   36.0390   41.5410 C   0  0  0  0  0  0  0  0  0  0  0  0
   49.5310   34.6850   42.1050 C   0  0  0  0  0  0  0  0  0  0  0  0
   48.3050   34.3170   40.3010 H   0  0  0  0  0  0  0  0  0  0  0  0
   48.5860   36.7530   42.2240 H   0  0  0  0  0  0  0  0  0  0  0  0
   49.5800   36.3960   40.6350 H   0  0  0  0  0  0  0  0  0  0  0  0
   50.4620   34.3170   41.6710 H   0  0  0  0  0  0  0  0  0  0  0  0
   49.5230   34.6770   43.2250 H   0  0  0  0  0  0  0  0  0  0  0  0
   41.2960   32.4960   38.4860 O   0  0  0  0  0  0  0  0  0  0  0  0
   40.4020   31.5080   38.6070 C   0  0  0  0  0  0  0  0  0  0  0  0
   40.1100   30.7100   37.5820 O   0  0  0  0  0  0  0  0  0  0  0  0
   39.5540   31.0220   39.7600 C   0  0  0  0  0  0  0  0  0  0  0  0
   38.3650   31.5710   40.0390 N   0  0  0  0  0  0  0  0  0  0  0  0
   37.8160   30.9510   41.1030 C   0  0  0  0  0  0  0  0  0  0  0  0
   36.8680   31.2180   41.5070 H   0  0  0  0  0  0  0  0  0  0  0  0
   38.6790   30.0030   41.4880 N   0  0  0  0  0  0  0  0  0  0  0  0
   38.5820   29.3300   42.2770 H   0  0  0  0  0  0  0  0  0  0  0  0
   39.7090   30.0570   40.6810 N   0  0  0  0  0  0  0  0  0  0  0  0
  1  7  1  6  0  0  0
  1  6  1  0  0  0  0
  1  2  1  0  0  0  0
  2  8  1  6  0  0  0
  2  3  1  0  0  0  0
  2 17  1  0  0  0  0
  4  9  1  0  0  0  0
  4  3  1  0  0  0  0
  5  6  1  0  0  0  0
  5 11  1  1  0  0  0
  5  4  1  0  0  0  0
  6 12  1  1  0  0  0
 10  4  1  0  0  0  0
 13  1  1  0  0  0  0
 14 13  1  0  0  0  0
 15  5  1  0  0  0  0
 16 15  1  0  0  0  0
 17 18  1  0  0  0  0
 18 23  1  0  0  0  0
 19 18  2  0  0  0  0
 19 20  1  0  0  0  0
 20 21  2  0  0  0  0
 21 22  1  0  0  0  0
 22 25  1  0  0  0  0
 23 22  2  0  0  0  0
 24 19  1  0  0  0  0
 26 27  1  0  0  0  0
 26 20  1  0  0  0  0
 26 28  1  0  0  0  0
 27 28  1  0  0  0  0
 27 30  1  0  0  0  0
 28 33  1  0  0  0  0
 29 26  1  0  0  0  0
 31 27  1  0  0  0  0
 32 28  1  0  0  0  0
 34 35  1  0  0  0  0
 34  6  1  0  0  0  0
 35 37  1  0  0  0  0
 36 35  2  0  0  0  0
 37 38  1  0  0  0  0
 37 43  2  0  0  0  0
 38 39  2  0  0  0  0
 39 41  1  0  0  0  0
 39 40  1  0  0  0  0
 41 42  1  0  0  0  0
 43 41  1  0  0  0  0
M  END
>  <minimizedAffinity>
-6.0895505

>  <minimizedRMSD>
1.84327114

$$$$
