
 OpenBabel03242522503D

 24 25  0  0  0  0  0  0  0  0999 V2000
   45.4600   30.8060   47.5470 O   0  0  0  0  0  0  0  0  0  0  0  0
   45.8340   32.0670   48.3670 P   0  0  2  0  0  0  0  0  0  0  0  0
   45.2350   31.7800   49.9120 O   0  0  0  0  0  0  0  0  0  0  0  0
   45.8950   31.9970   50.6190 H   0  0  0  0  0  0  0  0  0  0  0  0
   45.0460   33.3860   47.6680 O   0  0  0  0  0  0  0  0  0  0  0  0
   46.6970   33.5030   44.4300 C   0  0  0  0  0  0  0  0  0  0  0  0
   46.3440   33.1150   45.7410 C   0  0  0  0  0  0  0  0  0  0  0  0
   45.3480   33.8050   46.3910 C   0  0  0  0  0  0  0  0  0  0  0  0
   44.7450   34.8310   45.7410 N   0  0  0  0  0  0  0  0  0  0  0  0
   45.0870   35.1900   44.4990 C   0  0  0  0  0  0  0  0  0  0  0  0
   46.0610   34.5320   43.8370 N   0  0  0  0  0  0  0  0  0  0  0  0
   47.4650   33.0260   43.8380 H   0  0  0  0  0  0  0  0  0  0  0  0
   46.9360   32.2890   46.0580 H   0  0  0  0  0  0  0  0  0  0  0  0
   44.4820   36.0280   44.1760 H   0  0  0  0  0  0  0  0  0  0  0  0
   47.4770   32.2510   48.3490 O   0  0  0  0  0  0  0  0  0  0  0  0
   48.4950   31.4990   48.8080 C   0  0  0  0  0  0  0  0  0  0  0  0
   49.4710   32.2320   49.3070 O   0  0  0  0  0  0  0  0  0  0  0  0
   49.0330   30.1350   49.0090 C   0  0  0  0  0  0  0  0  0  0  0  0
   48.8980   29.1480   48.1540 N   0  0  0  0  0  0  0  0  0  0  0  0
   49.5050   28.0260   48.6600 C   0  0  0  0  0  0  0  0  0  0  0  0
   49.4330   27.1690   48.0080 H   0  0  0  0  0  0  0  0  0  0  0  0
   50.0200   28.3440   49.8500 N   0  0  0  0  0  0  0  0  0  0  0  0
   50.5260   27.6210   50.3990 H   0  0  0  0  0  0  0  0  0  0  0  0
   49.7360   29.5940   50.0480 N   0  0  0  0  0  0  0  0  0  0  0  0
  2  1  2  6  0  0  0
  2  3  1  0  0  0  0
  3  4  1  0  0  0  0
  5  2  1  0  0  0  0
  6  7  1  0  0  0  0
  7 13  1  0  0  0  0
  7  8  2  0  0  0  0
  8  5  1  0  0  0  0
  9  8  1  0  0  0  0
 10  9  2  0  0  0  0
 11  6  2  0  0  0  0
 11 10  1  0  0  0  0
 12  6  1  0  0  0  0
 14 10  1  0  0  0  0
 15  2  1  0  0  0  0
 15 16  1  0  0  0  0
 16 18  1  0  0  0  0
 16 17  2  0  0  0  0
 18 24  2  0  0  0  0
 19 20  2  0  0  0  0
 19 18  1  0  0  0  0
 20 22  1  0  0  0  0
 21 20  1  0  0  0  0
 22 24  1  0  0  0  0
 22 23  1  0  0  0  0
M  END
>  <minimizedAffinity>
-4.73291874

>  <minimizedRMSD>
0.597484708

$$$$
