
     RDKit          3D

 24 25  0  0  0  0  0  0  0  0999 V2000
   46.5384   33.6211   44.3354 C   0  0  0  0  0  0  0  0  0  0  0  0
   46.2354   33.2079   45.6510 C   0  0  0  0  0  0  0  0  0  0  0  0
   45.2913   33.9069   46.3641 C   0  0  0  0  0  0  0  0  0  0  0  0
   44.6885   34.9671   45.7705 N   0  0  0  0  0  0  0  0  0  0  0  0
   44.9833   35.3500   44.5225 C   0  0  0  0  0  0  0  0  0  0  0  0
   45.9060   34.6833   43.7993 N   0  0  0  0  0  0  0  0  0  0  0  0
   45.0356   33.4629   47.6432 O   0  0  0  0  0  0  0  0  0  0  0  0
   45.3175   30.8680   47.4695 O   0  0  0  0  0  0  0  0  0  0  0  0
   45.8130   32.1011   48.2679 P   0  0  2  0  0  0  0  0  0  0  0  0
   45.3215   31.8225   49.8517 O   0  0  0  0  0  0  0  0  0  0  0  0
   47.4573   32.2093   48.1242 O   0  0  0  0  0  0  0  0  0  0  0  0
   48.4716   31.4245   48.5312 C   0  0  0  0  0  0  0  0  0  0  0  0
   49.2307   32.0175   49.4325 O   0  0  0  0  0  0  0  0  0  0  0  0
   47.2639   33.1388   43.6948 H   0  0  0  0  0  0  0  0  0  0  0  0
   46.8170   32.3577   45.9180 H   0  0  0  0  0  0  0  0  0  0  0  0
   44.3882   36.2131   44.2500 H   0  0  0  0  0  0  0  0  0  0  0  0
   46.0440   32.0012   50.5084 H   0  0  0  0  0  0  0  0  0  0  0  0
   49.1532   30.1161   48.4034 C   0  0  0  0  0  0  0  0  0  0  0  0
   49.3189   29.2638   49.3881 N   0  0  0  0  0  0  0  0  0  0  0  0
   49.9987   28.1656   48.9250 C   0  0  0  0  0  0  0  0  0  0  0  0
   50.1728   27.4174   49.6830 H   0  0  0  0  0  0  0  0  0  0  0  0
   50.2499   28.3599   47.6278 N   0  0  0  0  0  0  0  0  0  0  0  0
   50.7620   27.6329   47.0912 H   0  0  0  0  0  0  0  0  0  0  0  0
   49.7460   29.5167   47.3280 N   0  0  0  0  0  0  0  0  0  0  0  0
  1  2  2  0
  2  3  1  0
  3  7  1  0
  4  3  2  0
  5  4  1  0
  6  1  1  0
  6  5  2  0
  9  7  1  6
  9  8  2  0
  9 10  1  0
 11  9  1  0
 11 12  1  0
 12 13  2  0
  1 14  1  0
  2 15  1  0
  5 16  1  0
 10 17  1  0
 18 19  1  0
 19 20  2  0
 20 21  1  0
 20 22  1  0
 22 23  1  0
 22 24  1  0
 24 18  2  0
 12 18  1  0
M  ISO  6  14  14  15  14  16  14  17   3  21  14  23   9
M  END
>  <DihAtoms>  (1) 
10,11,17,18

>  <DihDeg>  (1) 
179.89611424057

$$$$
