
 OpenBabel03242522503D

 24 25  0  0  0  0  0  0  0  0999 V2000
   45.6590   30.6240   47.7180 O   0  0  0  0  0  0  0  0  0  0  0  0
   45.9580   31.9730   48.4200 P   0  0  2  0  0  0  0  0  0  0  0  0
   45.3160   31.8150   49.9660 O   0  0  0  0  0  0  0  0  0  0  0  0
   45.9420   32.1260   50.6690 H   0  0  0  0  0  0  0  0  0  0  0  0
   45.1480   33.1850   47.5690 O   0  0  0  0  0  0  0  0  0  0  0  0
   47.0290   33.1800   44.4570 C   0  0  0  0  0  0  0  0  0  0  0  0
   46.5790   32.8410   45.7520 C   0  0  0  0  0  0  0  0  0  0  0  0
   45.5440   33.5570   46.3030 C   0  0  0  0  0  0  0  0  0  0  0  0
   44.9960   34.5620   45.5760 N   0  0  0  0  0  0  0  0  0  0  0  0
   45.4300   34.8750   44.3500 C   0  0  0  0  0  0  0  0  0  0  0  0
   46.4450   34.1900   43.7840 N   0  0  0  0  0  0  0  0  0  0  0  0
   47.8350   32.6790   43.9390 H   0  0  0  0  0  0  0  0  0  0  0  0
   47.1420   32.0240   46.1390 H   0  0  0  0  0  0  0  0  0  0  0  0
   44.8550   35.7040   43.9540 H   0  0  0  0  0  0  0  0  0  0  0  0
   47.5930   32.2200   48.4360 O   0  0  0  0  0  0  0  0  0  0  0  0
   48.6250   31.5280   48.9550 C   0  0  0  0  0  0  0  0  0  0  0  0
   49.6040   32.3170   49.3530 O   0  0  0  0  0  0  0  0  0  0  0  0
   49.1790   30.1970   49.2900 C   0  0  0  0  0  0  0  0  0  0  0  0
   49.9250   29.9450   50.3400 N   0  0  0  0  0  0  0  0  0  0  0  0
   50.2750   28.6190   50.3390 C   0  0  0  0  0  0  0  0  0  0  0  0
   50.8930   28.3360   51.1770 H   0  0  0  0  0  0  0  0  0  0  0  0
   49.7250   28.0550   49.2600 N   0  0  0  0  0  0  0  0  0  0  0  0
   49.8740   27.0430   49.0790 H   0  0  0  0  0  0  0  0  0  0  0  0
   49.0790   28.9970   48.6460 N   0  0  0  0  0  0  0  0  0  0  0  0
  2  1  2  6  0  0  0
  2 15  1  0  0  0  0
  2  3  1  0  0  0  0
  3  4  1  0  0  0  0
  5  2  1  0  0  0  0
  6  7  1  0  0  0  0
  7 13  1  0  0  0  0
  7  8  2  0  0  0  0
  8  5  1  0  0  0  0
  9  8  1  0  0  0  0
 10  9  2  0  0  0  0
 11 10  1  0  0  0  0
 11  6  2  0  0  0  0
 12  6  1  0  0  0  0
 14 10  1  0  0  0  0
 15 16  1  0  0  0  0
 16 18  1  0  0  0  0
 16 17  2  0  0  0  0
 18 19  1  0  0  0  0
 20 19  2  0  0  0  0
 20 21  1  0  0  0  0
 22 20  1  0  0  0  0
 23 22  1  0  0  0  0
 24 22  1  0  0  0  0
 24 18  2  0  0  0  0
M  END
>  <minimizedAffinity>
-4.79281807

>  <minimizedRMSD>
0.8093009

$$$$
