
 OpenBabel03242522523D

 24 25  0  0  0  0  0  0  0  0999 V2000
   38.2410   30.0380   42.5240 O   0  0  0  0  0  0  0  0  0  0  0  0
   37.1440   29.3640   41.6620 P   0  0  2  0  0  0  0  0  0  0  0  0
   35.8790   30.4710   41.6180 O   0  0  0  0  0  0  0  0  0  0  0  0
   35.5180   30.5970   40.7030 H   0  0  0  0  0  0  0  0  0  0  0  0
   36.6620   27.9540   42.4540 O   0  0  0  0  0  0  0  0  0  0  0  0
   37.9030   24.5500   42.1420 C   0  0  0  0  0  0  0  0  0  0  0  0
   37.0730   25.6880   42.0440 C   0  0  0  0  0  0  0  0  0  0  0  0
   37.5120   26.8770   42.5750 C   0  0  0  0  0  0  0  0  0  0  0  0
   38.7300   26.9060   43.1720 N   0  0  0  0  0  0  0  0  0  0  0  0
   39.5080   25.8210   43.2600 C   0  0  0  0  0  0  0  0  0  0  0  0
   39.1030   24.6410   42.7480 N   0  0  0  0  0  0  0  0  0  0  0  0
   37.6480   23.5720   41.7580 H   0  0  0  0  0  0  0  0  0  0  0  0
   36.1690   25.4470   41.5380 H   0  0  0  0  0  0  0  0  0  0  0  0
   40.4300   26.0680   43.7730 H   0  0  0  0  0  0  0  0  0  0  0  0
   37.7600   29.0480   40.1600 O   0  0  0  0  0  0  0  0  0  0  0  0
   37.8480   29.7700   39.0280 C   0  0  0  0  0  0  0  0  0  0  0  0
   36.8230   29.5640   38.2240 O   0  0  0  0  0  0  0  0  0  0  0  0
   38.6340   30.7470   38.2410 C   0  0  0  0  0  0  0  0  0  0  0  0
   39.9110   30.9940   38.4220 N   0  0  0  0  0  0  0  0  0  0  0  0
   40.3140   31.9580   37.5340 C   0  0  0  0  0  0  0  0  0  0  0  0
   41.3590   32.2140   37.6240 H   0  0  0  0  0  0  0  0  0  0  0  0
   39.2540   32.3040   36.7980 N   0  0  0  0  0  0  0  0  0  0  0  0
   39.3570   33.0280   36.0610 H   0  0  0  0  0  0  0  0  0  0  0  0
   38.2650   31.5810   37.2230 N   0  0  0  0  0  0  0  0  0  0  0  0
  2  5  1  0  0  0  0
  2  1  2  1  0  0  0
  3  2  1  0  0  0  0
  4  3  1  0  0  0  0
  5  8  1  0  0  0  0
  6 11  1  0  0  0  0
  7  6  2  0  0  0  0
  7  8  1  0  0  0  0
  8  9  2  0  0  0  0
  9 10  1  0  0  0  0
 10 14  1  0  0  0  0
 11 10  2  0  0  0  0
 12  6  1  0  0  0  0
 13  7  1  0  0  0  0
 15  2  1  0  0  0  0
 16 15  1  0  0  0  0
 17 16  2  0  0  0  0
 18 19  1  0  0  0  0
 18 16  1  0  0  0  0
 20 21  1  0  0  0  0
 20 19  2  0  0  0  0
 22 24  1  0  0  0  0
 22 20  1  0  0  0  0
 23 22  1  0  0  0  0
 24 18  2  0  0  0  0
M  END
>  <minimizedAffinity>
-4.83143473

$$$$

 OpenBabel03242522523D

 24 25  0  0  0  0  0  0  0  0999 V2000
   36.8850   29.8030   39.5310 O   0  0  0  0  0  0  0  0  0  0  0  0
   36.8200   29.9050   41.0770 P   0  0  2  0  0  0  0  0  0  0  0  0
   35.6910   31.1110   41.3900 O   0  0  0  0  0  0  0  0  0  0  0  0
   35.0430   30.8490   42.0920 H   0  0  0  0  0  0  0  0  0  0  0  0
   38.3470   30.3730   41.6250 O   0  0  0  0  0  0  0  0  0  0  0  0
   40.9420   32.7990   40.8460 C   0  0  0  0  0  0  0  0  0  0  0  0
   40.2970   31.6130   41.2590 C   0  0  0  0  0  0  0  0  0  0  0  0
   38.9250   31.5520   41.2080 C   0  0  0  0  0  0  0  0  0  0  0  0
   38.2470   32.6390   40.7600 N   0  0  0  0  0  0  0  0  0  0  0  0
   38.8690   33.7580   40.3710 C   0  0  0  0  0  0  0  0  0  0  0  0
   40.2150   33.8460   40.4110 N   0  0  0  0  0  0  0  0  0  0  0  0
   42.0130   32.9450   40.8490 H   0  0  0  0  0  0  0  0  0  0  0  0
   41.0120   30.8880   41.5680 H   0  0  0  0  0  0  0  0  0  0  0  0
   38.1410   34.4940   40.0530 H   0  0  0  0  0  0  0  0  0  0  0  0
   36.3680   28.4390   41.6930 O   0  0  0  0  0  0  0  0  0  0  0  0
   36.9450   27.5840   42.5580 C   0  0  0  0  0  0  0  0  0  0  0  0
   36.1780   27.3360   43.6020 O   0  0  0  0  0  0  0  0  0  0  0  0
   38.1300   26.7550   42.8740 C   0  0  0  0  0  0  0  0  0  0  0  0
   38.3170   25.5280   42.4440 N   0  0  0  0  0  0  0  0  0  0  0  0
   39.5070   25.0540   42.9350 C   0  0  0  0  0  0  0  0  0  0  0  0
   39.7280   24.0450   42.6220 H   0  0  0  0  0  0  0  0  0  0  0  0
   40.0530   26.0190   43.6800 N   0  0  0  0  0  0  0  0  0  0  0  0
   40.9680   25.8520   44.1420 H   0  0  0  0  0  0  0  0  0  0  0  0
   39.2310   27.0210   43.6370 N   0  0  0  0  0  0  0  0  0  0  0  0
  2  1  2  6  0  0  0
  2  3  1  0  0  0  0
  2  5  1  0  0  0  0
  2 15  1  0  0  0  0
  3  4  1  0  0  0  0
  6 12  1  0  0  0  0
  6  7  1  0  0  0  0
  7 13  1  0  0  0  0
  8  7  2  0  0  0  0
  8  5  1  0  0  0  0
  9  8  1  0  0  0  0
 10 11  1  0  0  0  0
 10  9  2  0  0  0  0
 11  6  2  0  0  0  0
 14 10  1  0  0  0  0
 15 16  1  0  0  0  0
 16 18  1  0  0  0  0
 16 17  2  0  0  0  0
 18 24  2  0  0  0  0
 19 18  1  0  0  0  0
 19 20  2  0  0  0  0
 20 22  1  0  0  0  0
 21 20  1  0  0  0  0
 22 23  1  0  0  0  0
 24 22  1  0  0  0  0
M  END
>  <minimizedAffinity>
-4.82317829

$$$$

 OpenBabel03242522523D

 24 25  0  0  0  0  0  0  0  0999 V2000
   35.6650   28.6710   40.2830 O   0  0  0  0  0  0  0  0  0  0  0  0
   36.5890   29.6230   41.0850 P   0  0  2  0  0  0  0  0  0  0  0  0
   35.6190   30.9350   41.4910 O   0  0  0  0  0  0  0  0  0  0  0  0
   35.7160   31.1960   42.4430 H   0  0  0  0  0  0  0  0  0  0  0  0
   37.8370   30.1110   40.0590 O   0  0  0  0  0  0  0  0  0  0  0  0
   40.1260   32.9370   40.0660 C   0  0  0  0  0  0  0  0  0  0  0  0
   39.6280   31.6160   40.0890 C   0  0  0  0  0  0  0  0  0  0  0  0
   38.2690   31.4190   40.0300 C   0  0  0  0  0  0  0  0  0  0  0  0
   37.4620   32.5070   39.9510 N   0  0  0  0  0  0  0  0  0  0  0  0
   37.9450   33.7540   39.9310 C   0  0  0  0  0  0  0  0  0  0  0  0
   39.2740   33.9780   39.9880 N   0  0  0  0  0  0  0  0  0  0  0  0
   41.1750   33.1960   40.1090 H   0  0  0  0  0  0  0  0  0  0  0  0
   40.4280   30.9170   40.1500 H   0  0  0  0  0  0  0  0  0  0  0  0
   37.1300   34.4650   39.8650 H   0  0  0  0  0  0  0  0  0  0  0  0
   37.1610   28.8230   42.4140 O   0  0  0  0  0  0  0  0  0  0  0  0
   37.8710   27.6900   42.5740 C   0  0  0  0  0  0  0  0  0  0  0  0
   39.0290   27.9070   43.1660 O   0  0  0  0  0  0  0  0  0  0  0  0
   37.9300   26.2260   42.3630 C   0  0  0  0  0  0  0  0  0  0  0  0
   37.0790   25.5450   41.6300 N   0  0  0  0  0  0  0  0  0  0  0  0
   37.4190   24.2170   41.6620 C   0  0  0  0  0  0  0  0  0  0  0  0
   36.7600   23.5910   41.0790 H   0  0  0  0  0  0  0  0  0  0  0  0
   38.5020   24.0920   42.4340 N   0  0  0  0  0  0  0  0  0  0  0  0
   38.9180   23.1520   42.5830 H   0  0  0  0  0  0  0  0  0  0  0  0
   38.7970   25.2860   42.8430 N   0  0  0  0  0  0  0  0  0  0  0  0
  2  1  2  6  0  0  0
  2  3  1  0  0  0  0
  2 15  1  0  0  0  0
  3  4  1  0  0  0  0
  5  2  1  0  0  0  0
  6  7  1  0  0  0  0
  6 12  1  0  0  0  0
  7 13  1  0  0  0  0
  8  5  1  0  0  0  0
  8  7  2  0  0  0  0
  9  8  1  0  0  0  0
 10  9  2  0  0  0  0
 10 11  1  0  0  0  0
 11  6  2  0  0  0  0
 14 10  1  0  0  0  0
 15 16  1  0  0  0  0
 16 17  2  0  0  0  0
 18 16  1  0  0  0  0
 18 24  2  0  0  0  0
 19 20  2  0  0  0  0
 19 18  1  0  0  0  0
 20 22  1  0  0  0  0
 21 20  1  0  0  0  0
 22 23  1  0  0  0  0
 22 24  1  0  0  0  0
M  END
>  <minimizedAffinity>
-4.69118977

$$$$

 OpenBabel03242522523D

 24 25  0  0  0  0  0  0  0  0999 V2000
   37.5130   29.6910   42.4790 O   0  0  0  0  0  0  0  0  0  0  0  0
   37.1550   30.4480   41.1740 P   0  0  2  0  0  0  0  0  0  0  0  0
   35.5480   30.9080   41.3600 O   0  0  0  0  0  0  0  0  0  0  0  0
   35.3950   31.8540   41.1070 H   0  0  0  0  0  0  0  0  0  0  0  0
   37.3100   29.3610   39.8920 O   0  0  0  0  0  0  0  0  0  0  0  0
   36.9160   25.7870   40.4370 C   0  0  0  0  0  0  0  0  0  0  0  0
   36.6190   27.1490   40.2120 C   0  0  0  0  0  0  0  0  0  0  0  0
   37.6560   28.0450   40.1090 C   0  0  0  0  0  0  0  0  0  0  0  0
   38.9250   27.5800   40.2260 N   0  0  0  0  0  0  0  0  0  0  0  0
   39.1950   26.2880   40.4400 C   0  0  0  0  0  0  0  0  0  0  0  0
   38.1970   25.3850   40.5460 N   0  0  0  0  0  0  0  0  0  0  0  0
   36.1730   25.0070   40.5340 H   0  0  0  0  0  0  0  0  0  0  0  0
   35.5670   27.2950   40.1480 H   0  0  0  0  0  0  0  0  0  0  0  0
   40.2660   26.1380   40.5010 H   0  0  0  0  0  0  0  0  0  0  0  0
   38.1700   31.7430   41.0090 O   0  0  0  0  0  0  0  0  0  0  0  0
   39.3160   31.9360   40.3300 C   0  0  0  0  0  0  0  0  0  0  0  0
   40.3780   31.8460   41.1080 O   0  0  0  0  0  0  0  0  0  0  0  0
   39.9470   32.2260   39.0220 C   0  0  0  0  0  0  0  0  0  0  0  0
   41.0940   32.8470   38.8700 N   0  0  0  0  0  0  0  0  0  0  0  0
   41.3720   32.9580   37.5320 C   0  0  0  0  0  0  0  0  0  0  0  0
   42.3050   33.4610   37.3280 H   0  0  0  0  0  0  0  0  0  0  0  0
   40.3680   32.3900   36.8580 N   0  0  0  0  0  0  0  0  0  0  0  0
   40.3940   32.3720   35.8200 H   0  0  0  0  0  0  0  0  0  0  0  0
   39.5300   31.9590   37.7490 N   0  0  0  0  0  0  0  0  0  0  0  0
  2  3  1  0  0  0  0
  2  1  2  1  0  0  0
  4  3  1  0  0  0  0
  5  8  1  0  0  0  0
  5  2  1  0  0  0  0
  6 12  1  0  0  0  0
  6 11  1  0  0  0  0
  7  6  2  0  0  0  0
  8  7  1  0  0  0  0
  8  9  2  0  0  0  0
  9 10  1  0  0  0  0
 10 14  1  0  0  0  0
 10 11  2  0  0  0  0
 13  7  1  0  0  0  0
 15  2  1  0  0  0  0
 16 15  1  0  0  0  0
 16 17  2  0  0  0  0
 18 16  1  0  0  0  0
 19 18  1  0  0  0  0
 20 19  2  0  0  0  0
 21 20  1  0  0  0  0
 22 20  1  0  0  0  0
 22 24  1  0  0  0  0
 23 22  1  0  0  0  0
 24 18  2  0  0  0  0
M  END
>  <minimizedAffinity>
-4.60413933

$$$$

 OpenBabel03242522523D

 24 25  0  0  0  0  0  0  0  0999 V2000
   38.5370   28.6100   42.0190 O   0  0  0  0  0  0  0  0  0  0  0  0
   36.9890   28.5180   41.9880 P   0  0  2  0  0  0  0  0  0  0  0  0
   36.5360   28.2170   43.5790 O   0  0  0  0  0  0  0  0  0  0  0  0
   35.7850   28.7930   43.8740 H   0  0  0  0  0  0  0  0  0  0  0  0
   36.5720   27.2130   41.0020 O   0  0  0  0  0  0  0  0  0  0  0  0
   37.7910   23.8760   41.7750 C   0  0  0  0  0  0  0  0  0  0  0  0
   37.0180   25.0580   41.7920 C   0  0  0  0  0  0  0  0  0  0  0  0
   37.3570   26.0830   40.9420 C   0  0  0  0  0  0  0  0  0  0  0  0
   38.4230   25.9150   40.1200 N   0  0  0  0  0  0  0  0  0  0  0  0
   39.1480   24.7910   40.1120 C   0  0  0  0  0  0  0  0  0  0  0  0
   38.8400   23.7670   40.9360 N   0  0  0  0  0  0  0  0  0  0  0  0
   37.6070   23.0160   42.4030 H   0  0  0  0  0  0  0  0  0  0  0  0
   36.2320   24.9780   42.5040 H   0  0  0  0  0  0  0  0  0  0  0  0
   39.9470   24.8710   39.3840 H   0  0  0  0  0  0  0  0  0  0  0  0
   36.3790   29.9440   41.4150 O   0  0  0  0  0  0  0  0  0  0  0  0
   36.8250   30.8440   40.5190 C   0  0  0  0  0  0  0  0  0  0  0  0
   36.6290   30.4500   39.2760 O   0  0  0  0  0  0  0  0  0  0  0  0
   37.4790   32.1540   40.3010 C   0  0  0  0  0  0  0  0  0  0  0  0
   38.4930   32.6050   41.0030 N   0  0  0  0  0  0  0  0  0  0  0  0
   38.8390   33.8510   40.5450 C   0  0  0  0  0  0  0  0  0  0  0  0
   39.6710   34.2880   41.0780 H   0  0  0  0  0  0  0  0  0  0  0  0
   38.0130   34.1610   39.5420 N   0  0  0  0  0  0  0  0  0  0  0  0
   38.1160   35.0740   39.0580 H   0  0  0  0  0  0  0  0  0  0  0  0
   37.2120   33.1510   39.4050 N   0  0  0  0  0  0  0  0  0  0  0  0
  2  1  2  6  0  0  0
  2  3  1  0  0  0  0
  3  4  1  0  0  0  0
  5  2  1  0  0  0  0
  6  7  1  0  0  0  0
  6 12  1  0  0  0  0
  7 13  1  0  0  0  0
  8  5  1  0  0  0  0
  8  7  2  0  0  0  0
  9  8  1  0  0  0  0
 10  9  2  0  0  0  0
 10 11  1  0  0  0  0
 11  6  2  0  0  0  0
 14 10  1  0  0  0  0
 15  2  1  0  0  0  0
 16 15  1  0  0  0  0
 17 16  2  0  0  0  0
 18 16  1  0  0  0  0
 18 19  1  0  0  0  0
 20 19  2  0  0  0  0
 20 21  1  0  0  0  0
 22 20  1  0  0  0  0
 23 22  1  0  0  0  0
 24 22  1  0  0  0  0
 24 18  2  0  0  0  0
M  END
>  <minimizedAffinity>
-4.50281191

$$$$

 OpenBabel03242522523D

 24 25  0  0  0  0  0  0  0  0999 V2000
   38.5850   28.7800   41.0600 O   0  0  0  0  0  0  0  0  0  0  0  0
   38.1290   30.0360   41.8470 P   0  0  2  0  0  0  0  0  0  0  0  0
   38.1390   29.5680   43.4620 O   0  0  0  0  0  0  0  0  0  0  0  0
   38.5780   30.2390   44.0460 H   0  0  0  0  0  0  0  0  0  0  0  0
   36.5590   30.4080   41.3530 O   0  0  0  0  0  0  0  0  0  0  0  0
   34.4510   28.7960   38.8660 C   0  0  0  0  0  0  0  0  0  0  0  0
   34.9740   29.2210   40.1070 C   0  0  0  0  0  0  0  0  0  0  0  0
   36.0890   30.0250   40.1160 C   0  0  0  0  0  0  0  0  0  0  0  0
   36.6390   30.3780   38.9270 N   0  0  0  0  0  0  0  0  0  0  0  0
   36.1350   29.9690   37.7580 C   0  0  0  0  0  0  0  0  0  0  0  0
   35.0420   29.1790   37.7180 N   0  0  0  0  0  0  0  0  0  0  0  0
   33.5820   28.1630   38.7540 H   0  0  0  0  0  0  0  0  0  0  0  0
   34.3920   28.8350   40.9090 H   0  0  0  0  0  0  0  0  0  0  0  0
   36.7270   30.3650   36.9410 H   0  0  0  0  0  0  0  0  0  0  0  0
   39.1820   31.2730   41.5390 O   0  0  0  0  0  0  0  0  0  0  0  0
   39.3390   32.1130   40.4980 C   0  0  0  0  0  0  0  0  0  0  0  0
   38.7340   33.2680   40.6940 O   0  0  0  0  0  0  0  0  0  0  0  0
   39.9220   32.3220   39.1540 C   0  0  0  0  0  0  0  0  0  0  0  0
   41.0810   32.8960   38.9250 N   0  0  0  0  0  0  0  0  0  0  0  0
   41.3050   32.9370   37.5730 C   0  0  0  0  0  0  0  0  0  0  0  0
   42.2440   33.3980   37.3070 H   0  0  0  0  0  0  0  0  0  0  0  0
   40.2550   32.3740   36.9680 N   0  0  0  0  0  0  0  0  0  0  0  0
   40.2360   32.3080   35.9320 H   0  0  0  0  0  0  0  0  0  0  0  0
   39.4420   32.0130   37.9120 N   0  0  0  0  0  0  0  0  0  0  0  0
  2  1  2  6  0  0  0
  2  3  1  0  0  0  0
  3  4  1  0  0  0  0
  5  2  1  0  0  0  0
  6  7  1  0  0  0  0
  7  8  2  0  0  0  0
  7 13  1  0  0  0  0
  8  5  1  0  0  0  0
  9  8  1  0  0  0  0
 10  9  2  0  0  0  0
 11 10  1  0  0  0  0
 11  6  2  0  0  0  0
 12  6  1  0  0  0  0
 14 10  1  0  0  0  0
 15  2  1  0  0  0  0
 16 17  2  0  0  0  0
 16 15  1  0  0  0  0
 18 16  1  0  0  0  0
 19 18  1  0  0  0  0
 20 19  2  0  0  0  0
 21 20  1  0  0  0  0
 22 20  1  0  0  0  0
 22 24  1  0  0  0  0
 23 22  1  0  0  0  0
 24 18  2  0  0  0  0
M  END
>  <minimizedAffinity>
-4.5011425

$$$$

 OpenBabel03242522523D

 24 25  0  0  0  0  0  0  0  0999 V2000
   40.8000   30.0270   41.3190 O   0  0  0  0  0  0  0  0  0  0  0  0
   40.1500   30.9800   42.3540 P   0  0  2  0  0  0  0  0  0  0  0  0
   41.4330   31.6000   43.2460 O   0  0  0  0  0  0  0  0  0  0  0  0
   41.3710   32.5820   43.3660 H   0  0  0  0  0  0  0  0  0  0  0  0
   39.1410   30.0550   43.3410 O   0  0  0  0  0  0  0  0  0  0  0  0
   36.5030   28.1740   41.6870 C   0  0  0  0  0  0  0  0  0  0  0  0
   37.2560   29.2460   42.2160 C   0  0  0  0  0  0  0  0  0  0  0  0
   38.4490   28.9730   42.8410 C   0  0  0  0  0  0  0  0  0  0  0  0
   38.8550   27.6810   42.9210 N   0  0  0  0  0  0  0  0  0  0  0  0
   38.1340   26.6740   42.4170 C   0  0  0  0  0  0  0  0  0  0  0  0
   36.9580   26.9110   41.7990 N   0  0  0  0  0  0  0  0  0  0  0  0
   35.5550   28.2850   41.1810 H   0  0  0  0  0  0  0  0  0  0  0  0
   36.7600   30.1710   42.0420 H   0  0  0  0  0  0  0  0  0  0  0  0
   38.6400   25.7320   42.5920 H   0  0  0  0  0  0  0  0  0  0  0  0
   39.3130   32.1570   41.5470 O   0  0  0  0  0  0  0  0  0  0  0  0
   39.5010   32.7800   40.3690 C   0  0  0  0  0  0  0  0  0  0  0  0
   38.9560   33.9810   40.3470 O   0  0  0  0  0  0  0  0  0  0  0  0
   40.0800   32.7060   39.0080 C   0  0  0  0  0  0  0  0  0  0  0  0
   41.2300   33.2340   38.6590 N   0  0  0  0  0  0  0  0  0  0  0  0
   41.4530   32.9900   37.3280 C   0  0  0  0  0  0  0  0  0  0  0  0
   42.3850   33.3970   36.9660 H   0  0  0  0  0  0  0  0  0  0  0  0
   40.4110   32.2960   36.8610 N   0  0  0  0  0  0  0  0  0  0  0  0
   40.3920   32.0110   35.8630 H   0  0  0  0  0  0  0  0  0  0  0  0
   39.6040   32.1320   37.8630 N   0  0  0  0  0  0  0  0  0  0  0  0
  2  1  2  6  0  0  0
  2  3  1  0  0  0  0
  2  5  1  0  0  0  0
  3  4  1  0  0  0  0
  6 11  2  0  0  0  0
  6  7  1  0  0  0  0
  7  8  2  0  0  0  0
  8  9  1  0  0  0  0
  8  5  1  0  0  0  0
 10 14  1  0  0  0  0
 10  9  2  0  0  0  0
 11 10  1  0  0  0  0
 12  6  1  0  0  0  0
 13  7  1  0  0  0  0
 15  2  1  0  0  0  0
 16 15  1  0  0  0  0
 17 16  2  0  0  0  0
 18 16  1  0  0  0  0
 19 18  1  0  0  0  0
 20 19  2  0  0  0  0
 21 20  1  0  0  0  0
 22 20  1  0  0  0  0
 22 24  1  0  0  0  0
 23 22  1  0  0  0  0
 24 18  2  0  0  0  0
M  END
>  <minimizedAffinity>
-4.45993853

$$$$

 OpenBabel03242522523D

 24 25  0  0  0  0  0  0  0  0999 V2000
   37.1660   32.5990   40.1160 O   0  0  0  0  0  0  0  0  0  0  0  0
   37.0580   31.1210   40.5730 P   0  0  2  0  0  0  0  0  0  0  0  0
   35.5990   31.0240   41.4020 O   0  0  0  0  0  0  0  0  0  0  0  0
   35.0620   30.2350   41.1320 H   0  0  0  0  0  0  0  0  0  0  0  0
   38.3480   30.8110   41.6160 O   0  0  0  0  0  0  0  0  0  0  0  0
   39.7980   27.7940   43.0370 C   0  0  0  0  0  0  0  0  0  0  0  0
   39.6570   29.0110   42.3340 C   0  0  0  0  0  0  0  0  0  0  0  0
   38.4300   29.6290   42.3190 C   0  0  0  0  0  0  0  0  0  0  0  0
   37.4040   29.0420   42.9840 N   0  0  0  0  0  0  0  0  0  0  0  0
   37.5490   27.8900   43.6470 C   0  0  0  0  0  0  0  0  0  0  0  0
   38.7410   27.2600   43.6780 N   0  0  0  0  0  0  0  0  0  0  0  0
   40.7190   27.2320   43.1070 H   0  0  0  0  0  0  0  0  0  0  0  0
   40.5820   29.2940   41.8890 H   0  0  0  0  0  0  0  0  0  0  0  0
   36.6080   27.6040   44.1020 H   0  0  0  0  0  0  0  0  0  0  0  0
   37.0950   30.1440   39.2390 O   0  0  0  0  0  0  0  0  0  0  0  0
   37.4550   28.8610   39.0460 C   0  0  0  0  0  0  0  0  0  0  0  0
   37.8860   28.6430   37.8190 O   0  0  0  0  0  0  0  0  0  0  0  0
   37.5830   27.5090   39.6350 C   0  0  0  0  0  0  0  0  0  0  0  0
   36.6150   26.8720   40.2530 N   0  0  0  0  0  0  0  0  0  0  0  0
   37.0790   25.6550   40.6840 C   0  0  0  0  0  0  0  0  0  0  0  0
   36.3340   25.0710   41.2030 H   0  0  0  0  0  0  0  0  0  0  0  0
   38.3600   25.5550   40.3180 N   0  0  0  0  0  0  0  0  0  0  0  0
   38.8940   24.6970   40.5550 H   0  0  0  0  0  0  0  0  0  0  0  0
   38.6490   26.6570   39.6980 N   0  0  0  0  0  0  0  0  0  0  0  0
  2  1  2  6  0  0  0
  2  3  1  0  0  0  0
  2  5  1  0  0  0  0
  4  3  1  0  0  0  0
  5  8  1  0  0  0  0
  6 12  1  0  0  0  0
  6 11  1  0  0  0  0
  7  6  2  0  0  0  0
  8  7  1  0  0  0  0
  8  9  2  0  0  0  0
  9 10  1  0  0  0  0
 10 11  2  0  0  0  0
 10 14  1  0  0  0  0
 13  7  1  0  0  0  0
 15  2  1  0  0  0  0
 16 15  1  0  0  0  0
 16 18  1  0  0  0  0
 17 16  2  0  0  0  0
 18 24  2  0  0  0  0
 18 19  1  0  0  0  0
 19 20  2  0  0  0  0
 20 21  1  0  0  0  0
 22 23  1  0  0  0  0
 22 20  1  0  0  0  0
 24 22  1  0  0  0  0
M  END
>  <minimizedAffinity>
-4.43819046

$$$$

 OpenBabel03242522523D

 24 25  0  0  0  0  0  0  0  0999 V2000
   37.9540   30.2840   41.0200 O   0  0  0  0  0  0  0  0  0  0  0  0
   36.5320   30.3330   40.4030 P   0  0  2  0  0  0  0  0  0  0  0  0
   35.5850   31.1210   41.5470 O   0  0  0  0  0  0  0  0  0  0  0  0
   35.0090   31.8210   41.1430 H   0  0  0  0  0  0  0  0  0  0  0  0
   36.0060   28.7420   40.2010 O   0  0  0  0  0  0  0  0  0  0  0  0
   37.8660   25.6490   40.6490 C   0  0  0  0  0  0  0  0  0  0  0  0
   37.2140   26.7450   40.0430 C   0  0  0  0  0  0  0  0  0  0  0  0
   36.6300   27.6960   40.8450 C   0  0  0  0  0  0  0  0  0  0  0  0
   36.7060   27.5400   42.1900 N   0  0  0  0  0  0  0  0  0  0  0  0
   37.3250   26.4970   42.7550 C   0  0  0  0  0  0  0  0  0  0  0  0
   37.9080   25.5480   41.9920 N   0  0  0  0  0  0  0  0  0  0  0  0
   38.3540   24.8510   40.1070 H   0  0  0  0  0  0  0  0  0  0  0  0
   37.2760   26.6750   38.9830 H   0  0  0  0  0  0  0  0  0  0  0  0
   37.2660   26.5710   43.8340 H   0  0  0  0  0  0  0  0  0  0  0  0
   36.5990   31.1470   38.9660 O   0  0  0  0  0  0  0  0  0  0  0  0
   37.0770   30.8310   37.7480 C   0  0  0  0  0  0  0  0  0  0  0  0
   37.6270   31.8660   37.1430 O   0  0  0  0  0  0  0  0  0  0  0  0
   37.2640   29.7740   36.7280 C   0  0  0  0  0  0  0  0  0  0  0  0
   37.9200   28.6540   36.9290 N   0  0  0  0  0  0  0  0  0  0  0  0
   37.9110   27.9130   35.7740 C   0  0  0  0  0  0  0  0  0  0  0  0
   38.4350   26.9730   35.8640 H   0  0  0  0  0  0  0  0  0  0  0  0
   37.2330   28.6030   34.8530 N   0  0  0  0  0  0  0  0  0  0  0  0
   37.1130   28.2040   33.9020 H   0  0  0  0  0  0  0  0  0  0  0  0
   36.8540   29.7020   35.4270 N   0  0  0  0  0  0  0  0  0  0  0  0
  2  1  2  1  0  0  0
  2  3  1  0  0  0  0
  4  3  1  0  0  0  0
  5  2  1  0  0  0  0
  5  8  1  0  0  0  0
  6 11  1  0  0  0  0
  7  6  2  0  0  0  0
  7  8  1  0  0  0  0
  8  9  2  0  0  0  0
  9 10  1  0  0  0  0
 10 14  1  0  0  0  0
 11 10  2  0  0  0  0
 12  6  1  0  0  0  0
 13  7  1  0  0  0  0
 15  2  1  0  0  0  0
 16 15  1  0  0  0  0
 17 16  2  0  0  0  0
 18 19  1  0  0  0  0
 18 16  1  0  0  0  0
 20 21  1  0  0  0  0
 20 19  2  0  0  0  0
 22 24  1  0  0  0  0
 22 20  1  0  0  0  0
 23 22  1  0  0  0  0
 24 18  2  0  0  0  0
M  END
>  <minimizedAffinity>
-4.4361577

$$$$
