
 OpenBabel03242522503D

 24 25  0  0  0  0  0  0  0  0999 V2000
   45.5090   30.7740   47.5710 O   0  0  0  0  0  0  0  0  0  0  0  0
   45.8750   32.0530   48.3680 P   0  0  2  0  0  0  0  0  0  0  0  0
   45.3060   31.7760   49.9260 O   0  0  0  0  0  0  0  0  0  0  0  0
   45.9730   32.0130   50.6200 H   0  0  0  0  0  0  0  0  0  0  0  0
   45.0540   33.3490   47.6650 O   0  0  0  0  0  0  0  0  0  0  0  0
   46.7000   33.4930   44.4250 C   0  0  0  0  0  0  0  0  0  0  0  0
   46.3480   33.0930   45.7330 C   0  0  0  0  0  0  0  0  0  0  0  0
   45.3560   33.7790   46.3910 C   0  0  0  0  0  0  0  0  0  0  0  0
   44.7540   34.8150   45.7530 N   0  0  0  0  0  0  0  0  0  0  0  0
   45.0960   35.1850   44.5140 C   0  0  0  0  0  0  0  0  0  0  0  0
   46.0670   34.5310   43.8440 N   0  0  0  0  0  0  0  0  0  0  0  0
   47.4660   33.0200   43.8260 H   0  0  0  0  0  0  0  0  0  0  0  0
   46.9380   32.2620   46.0400 H   0  0  0  0  0  0  0  0  0  0  0  0
   44.4930   36.0290   44.2010 H   0  0  0  0  0  0  0  0  0  0  0  0
   47.5150   32.2630   48.3210 O   0  0  0  0  0  0  0  0  0  0  0  0
   48.5450   31.6080   48.8870 C   0  0  0  0  0  0  0  0  0  0  0  0
   49.4900   32.4280   49.3030 O   0  0  0  0  0  0  0  0  0  0  0  0
   49.1200   30.2970   49.2660 C   0  0  0  0  0  0  0  0  0  0  0  0
   49.8440   30.0860   50.3400 N   0  0  0  0  0  0  0  0  0  0  0  0
   50.2230   28.7680   50.3770 C   0  0  0  0  0  0  0  0  0  0  0  0
   50.8250   28.5170   51.2370 H   0  0  0  0  0  0  0  0  0  0  0  0
   49.7160   28.1680   49.2970 N   0  0  0  0  0  0  0  0  0  0  0  0
   49.8930   27.1570   49.1410 H   0  0  0  0  0  0  0  0  0  0  0  0
   49.0650   29.0820   48.6450 N   0  0  0  0  0  0  0  0  0  0  0  0
  2  1  2  6  0  0  0
  2  3  1  0  0  0  0
  3  4  1  0  0  0  0
  5  2  1  0  0  0  0
  6  7  1  0  0  0  0
  7 13  1  0  0  0  0
  7  8  2  0  0  0  0
  8  5  1  0  0  0  0
  9  8  1  0  0  0  0
 10  9  2  0  0  0  0
 11  6  2  0  0  0  0
 11 10  1  0  0  0  0
 12  6  1  0  0  0  0
 14 10  1  0  0  0  0
 15  2  1  0  0  0  0
 15 16  1  0  0  0  0
 16 18  1  0  0  0  0
 16 17  2  0  0  0  0
 18 19  1  0  0  0  0
 19 20  2  0  0  0  0
 20 21  1  0  0  0  0
 22 20  1  0  0  0  0
 23 22  1  0  0  0  0
 24 18  2  0  0  0  0
 24 22  1  0  0  0  0
M  END
>  <minimizedAffinity>
-4.76301527

>  <minimizedRMSD>
0.760952115

$$$$
