REMARK  Name = 
REMARK  6 active torsions:
REMARK  status: ('A' for Active; 'I' for Inactive)
REMARK    1  A    between atoms: C_3  and  O_7
REMARK    2  A    between atoms: O_7  and  P_9
REMARK    3  A    between atoms: P_9  and  O_10
REMARK    4  A    between atoms: P_9  and  O_11
REMARK    5  A    between atoms: O_11  and  C_12
REMARK    6  A    between atoms: C_12  and  C_18
REMARK                            x       y       z     vdW  Elec       q    Type
REMARK                         _______ _______ _______ _____ _____    ______ ____
ROOT
ATOM      1  O   UNL     1      45.318  30.868  47.469  0.00  0.00    +0.000 OA
ATOM      2  P   UNL     1      45.813  32.101  48.268  0.00  0.00    +0.000 P 
ENDROOT
BRANCH   2   3
ATOM      3  O   UNL     1      45.322  31.823  49.852  0.00  0.00    +0.000 OA
ATOM      4  H   UNL     1      46.044  32.001  50.508  0.00  0.00    +0.000 HD
ENDBRANCH   2   3
BRANCH   2   5
ATOM      5  O   UNL     1      45.036  33.463  47.643  0.00  0.00    +0.000 OA
BRANCH   5   8
ATOM      6  C   UNL     1      46.538  33.621  44.335  0.00  0.00    +0.000 A 
ATOM      7  C   UNL     1      46.235  33.208  45.651  0.00  0.00    +0.000 A 
ATOM      8  C   UNL     1      45.291  33.907  46.364  0.00  0.00    +0.000 A 
ATOM      9  N   UNL     1      44.688  34.967  45.770  0.00  0.00    +0.000 NA
ATOM     10  C   UNL     1      44.983  35.350  44.523  0.00  0.00    +0.000 A 
ATOM     11  N   UNL     1      45.906  34.683  43.799  0.00  0.00    +0.000 NA
ATOM     12  H   UNL     1      47.264  33.139  43.695  0.00  0.00    +0.000 HD
ATOM     13  H   UNL     1      46.817  32.358  45.918  0.00  0.00    +0.000 HD
ATOM     14  H   UNL     1      44.388  36.213  44.250  0.00  0.00    +0.000 HD
ENDBRANCH   5   8
ENDBRANCH   2   5
BRANCH   2  15
ATOM     15  O   UNL     1      47.457  32.209  48.124  0.00  0.00    +0.000 OA
BRANCH  15  16
ATOM     16  C   UNL     1      48.472  31.424  48.531  0.00  0.00    +0.000 C 
ATOM     17  O   UNL     1      49.231  32.017  49.432  0.00  0.00    +0.000 OA
BRANCH  16  18
ATOM     18  C   UNL     1      49.153  30.116  48.403  0.00  0.00    +0.000 A 
ATOM     19  N   UNL     1      48.552  28.991  48.093  0.00  0.00    +0.000 NA
ATOM     20  C   UNL     1      49.476  27.976  48.074  0.00  0.00    +0.000 A 
ATOM     21  H   UNL     1      49.052  27.015  47.825  0.00  0.00    +0.000 HD
ATOM     22  N   UNL     1      50.664  28.502  48.381  0.00  0.00    +0.000 N 
ATOM     23  H   UNL     1      51.501  27.888  48.419  0.00  0.00    +0.000 HD
ATOM     24  N   UNL     1      50.464  29.769  48.574  0.00  0.00    +0.000 NA
ENDBRANCH  16  18
ENDBRANCH  15  16
ENDBRANCH   2  15
TORSDOF 6
