REMARK  Name = 
REMARK  4 active torsions:
REMARK  status: ('A' for Active; 'I' for Inactive)
REMARK    1  A    between atoms: C_7  and  C_10
REMARK    2  A    between atoms: C_14  and  C_16
REMARK    3  A    between atoms: C_17  and  C_18
REMARK    4  A    between atoms: C_18  and  C_30
REMARK                            x       y       z     vdW  Elec       q    Type
REMARK                         _______ _______ _______ _____ _____    ______ ____
ROOT
ATOM      1  C   UNL     1      45.658  31.631  47.112  0.00  0.00    +0.000 A 
ATOM      2  C   UNL     1      45.520  32.105  48.433  0.00  0.00    +0.000 A 
ATOM      3  C   UNL     1      45.298  31.270  49.516  0.00  0.00    +0.000 A 
ATOM      4  C   UNL     1      45.212  29.915  49.270  0.00  0.00    +0.000 A 
ATOM      5  C   UNL     1      45.350  29.461  47.966  0.00  0.00    +0.000 A 
ATOM      6  N   UNL     1      45.562  30.311  46.965  0.00  0.00    +0.000 NA
ATOM      7  H   UNL     1      45.596  33.183  48.572  0.00  0.00    +0.000 HD
ATOM      8  H   UNL     1      45.208  31.744  50.485  0.00  0.00    +0.000 HD
ATOM      9  H   UNL     1      45.037  29.283  50.140  0.00  0.00    +0.000 HD
ENDROOT
BRANCH   1  16
ATOM     10  C   UNL     1      44.775  36.616  43.827  0.00  0.00    +0.000 A 
ATOM     11  C   UNL     1      45.667  36.322  42.794  0.00  0.00    +0.000 A 
ATOM     12  C   UNL     1      46.322  35.088  42.824  0.00  0.00    +0.000 A 
ATOM     13  N   UNL     1      46.066  34.226  43.854  0.00  0.00    +0.000 NA
ATOM     14  C   UNL     1      45.192  34.555  44.836  0.00  0.00    +0.000 A 
ATOM     15  N   UNL     1      44.538  35.758  44.827  0.00  0.00    +0.000 NA
ATOM     16  C   UNL     1      45.889  32.579  46.039  0.00  0.00    +0.000 C 
ATOM     17  O   UNL     1      46.905  32.410  45.304  0.00  0.00    +0.000 OA
ATOM     18  N   UNL     1      44.948  33.639  45.891  0.00  0.00    +0.000 N 
ATOM     19  H   UNL     1      44.210  37.539  43.909  0.00  0.00    +0.000 HD
ATOM     20  H   UNL     1      45.809  37.054  42.024  0.00  0.00    +0.000 HD
ATOM     21  H   UNL     1      47.017  34.842  42.033  0.00  0.00    +0.000 HD
ATOM     22  H   UNL     1      44.105  33.768  46.511  0.00  0.00    +0.000 HD
ENDBRANCH   1  16
BRANCH   5  23
ATOM     23  C   UNL     1      45.256  28.032  47.728  0.00  0.00    +0.000 C 
ATOM     24  C   UNL     1      44.513  27.262  48.527  0.00  0.00    +0.000 C 
BRANCH  24  25
ATOM     25  C   UNL     1      44.348  25.788  48.372  0.00  0.00    +0.000 C 
ATOM     26  H   UNL     1      44.748  25.255  49.238  0.00  0.00    +0.000 HD
ATOM     27  H   UNL     1      43.288  25.532  48.144  0.00  0.00    +0.000 HD
BRANCH  25  28
ATOM     28  C   UNL     1      45.164  25.413  47.184  0.00  0.00    +0.000 A 
ATOM     29  N   UNL     1      45.216  26.042  45.998  0.00  0.00    +0.000 NA
ATOM     30  C   UNL     1      46.071  25.379  45.208  0.00  0.00    +0.000 A 
ATOM     31  H   UNL     1      46.480  25.434  44.199  0.00  0.00    +0.000 HD
ATOM     32  N   UNL     1      46.536  24.342  45.929  0.00  0.00    +0.000 N 
ATOM     33  H   UNL     1      47.218  23.546  45.754  0.00  0.00    +0.000 HD
ATOM     34  N   UNL     1      45.988  24.368  47.114  0.00  0.00    +0.000 NA
ENDBRANCH  25  28
ENDBRANCH  24  25
ENDBRANCH   5  23
TORSDOF 4
