
 OpenBabel03252509193D

 41 44  0  0  1  0  0  0  0  0999 V2000
   42.5710   25.1440   46.7180 C   0  0  1  0  0  0  0  0  0  0  0  0
   41.2120   25.6490   46.3250 C   0  0  0  0  0  0  0  0  0  0  0  0
   40.6770   25.0620   45.0430 C   0  0  0  0  0  0  0  0  0  0  0  0
   40.9050   23.5680   44.9360 C   0  0  0  0  0  0  0  0  0  0  0  0
   42.2860   23.1500   45.3830 C   0  0  0  0  0  0  0  0  0  0  0  0
   43.1550   24.4160   45.5230 C   0  0  2  0  0  0  0  0  0  0  0  0
   42.4410   24.4090   47.5190 H   0  0  0  0  0  0  0  0  0  0  0  0
   41.2570   26.7370   46.2140 H   0  0  0  0  0  0  0  0  0  0  0  0
   40.4650   25.4340   47.1200 H   0  0  0  0  0  0  0  0  0  0  0  0
   41.1130   25.6030   44.1780 H   0  0  0  0  0  0  0  0  0  0  0  0
   39.6090   25.2350   45.0330 H   0  0  0  0  0  0  0  0  0  0  0  0
   40.8180   23.3130   43.8550 H   0  0  0  0  0  0  0  0  0  0  0  0
   40.0970   23.0020   45.4520 H   0  0  0  0  0  0  0  0  0  0  0  0
   42.7610   22.3880   44.7520 H   0  0  0  0  0  0  0  0  0  0  0  0
   42.1700   22.7740   46.4330 H   0  0  0  0  0  0  0  0  0  0  0  0
   43.0290   25.0390   44.5920 H   0  0  0  0  0  0  0  0  0  0  0  0
   44.8660   28.4680   47.4530 C   0  0  0  0  0  0  0  0  0  0  0  0
   44.9180   27.5210   48.4870 C   0  0  0  0  0  0  0  0  0  0  0  0
   44.2030   26.4020   48.3390 C   0  0  0  0  0  0  0  0  0  0  0  0
   43.4340   26.1840   47.1910 C   0  0  0  0  0  0  0  0  0  0  0  0
   43.7310   27.6940   46.2150 S   0  0  0  0  0  0  0  0  0  0  0  0
   45.5220   27.7140   49.3620 H   0  0  0  0  0  0  0  0  0  0  0  0
   44.1410   25.5860   49.0410 H   0  0  0  0  0  0  0  0  0  0  0  0
   46.6690   31.5970   48.3440 C   0  0  0  0  0  0  0  0  0  0  0  0
   46.8360   32.1580   47.0800 C   0  0  0  0  0  0  0  0  0  0  0  0
   46.3300   31.4490   45.9590 C   0  0  0  0  0  0  0  0  0  0  0  0
   45.7040   30.2480   46.1910 N   0  0  0  0  0  0  0  0  0  0  0  0
   45.5760   29.7650   47.4370 C   0  0  0  0  0  0  0  0  0  0  0  0
   46.0530   30.4300   48.5180 N   0  0  0  0  0  0  0  0  0  0  0  0
   47.0480   32.1230   49.2050 H   0  0  0  0  0  0  0  0  0  0  0  0
   47.3250   33.0940   46.9050 H   0  0  0  0  0  0  0  0  0  0  0  0
   46.4170   31.8100   44.9450 H   0  0  0  0  0  0  0  0  0  0  0  0
   44.5430   24.0280   45.7390 C   0  0  0  0  0  0  0  0  0  0  0  0
   44.8780   23.0530   46.3430 O   0  0  0  0  0  0  0  0  0  0  0  0
   45.9360   24.3610   45.4750 C   0  0  0  0  0  0  0  0  0  0  0  0
   46.6650   23.6900   44.5780 N   0  0  0  0  0  0  0  0  0  0  0  0
   47.9010   24.2850   44.5190 C   0  0  0  0  0  0  0  0  0  0  0  0
   48.5830   23.8230   43.8200 H   0  0  0  0  0  0  0  0  0  0  0  0
   47.9150   25.2980   45.3690 N   0  0  0  0  0  0  0  0  0  0  0  0
   48.7670   25.8870   45.4800 H   0  0  0  0  0  0  0  0  0  0  0  0
   46.7540   25.2970   45.8960 N   0  0  0  0  0  0  0  0  0  0  0  0
  1 20  1  0  0  0  0
  1  7  1  1  0  0  0
  2  1  1  0  0  0  0
  2  9  1  0  0  0  0
  3  2  1  0  0  0  0
  4  3  1  0  0  0  0
  4  5  1  0  0  0  0
  4 13  1  0  0  0  0
  5  6  1  0  0  0  0
  5 15  1  0  0  0  0
  6 16  1  6  0  0  0
  6 33  1  0  0  0  0
  6  1  1  0  0  0  0
  8  2  1  0  0  0  0
 10  3  1  0  0  0  0
 11  3  1  0  0  0  0
 12  4  1  0  0  0  0
 14  5  1  0  0  0  0
 17 18  2  0  0  0  0
 18 22  1  0  0  0  0
 19 18  1  0  0  0  0
 19 23  1  0  0  0  0
 20 19  2  0  0  0  0
 21 20  1  0  0  0  0
 21 17  1  0  0  0  0
 24 29  1  0  0  0  0
 24 30  1  0  0  0  0
 25 24  2  0  0  0  0
 26 27  2  0  0  0  0
 26 25  1  0  0  0  0
 27 28  1  0  0  0  0
 28 17  1  0  0  0  0
 28 29  2  0  0  0  0
 31 25  1  0  0  0  0
 32 26  1  0  0  0  0
 33 34  2  0  0  0  0
 35 33  1  0  0  0  0
 35 41  2  0  0  0  0
 36 35  1  0  0  0  0
 37 36  2  0  0  0  0
 37 39  1  0  0  0  0
 38 37  1  0  0  0  0
 39 40  1  0  0  0  0
 39 41  1  0  0  0  0
M  END
>  <minimizedAffinity>
-3.70055842

>  <minimizedRMSD>
8.06759453

$$$$
