
 OpenBabel03242520173D

 29 31  0  0  0  0  0  0  0  0999 V2000
   44.2560   34.5570   41.3460 C   0  0  0  0  0  0  0  0  0  0  0  0
   43.1210   35.2760   40.9210 C   0  0  0  0  0  0  0  0  0  0  0  0
   42.5950   34.9880   39.6640 C   0  0  0  0  0  0  0  0  0  0  0  0
   43.2190   34.0150   38.9110 N   0  0  0  0  0  0  0  0  0  0  0  0
   44.3070   33.3610   39.3800 C   0  0  0  0  0  0  0  0  0  0  0  0
   44.8200   33.6210   40.5720 N   0  0  0  0  0  0  0  0  0  0  0  0
   42.6950   36.0230   41.5740 H   0  0  0  0  0  0  0  0  0  0  0  0
   44.7420   32.6100   38.7300 H   0  0  0  0  0  0  0  0  0  0  0  0
   44.8050   34.8780   42.6900 C   0  0  0  0  0  0  0  0  0  0  0  0
   46.2740   35.3690   42.6400 C   0  0  0  0  0  0  0  0  0  0  0  0
   45.1490   36.2100   43.0980 C   0  0  0  0  0  0  0  0  0  0  0  0
   44.6120   34.0370   43.4040 H   0  0  0  0  0  0  0  0  0  0  0  0
   46.9100   34.9360   43.4370 H   0  0  0  0  0  0  0  0  0  0  0  0
   46.7320   35.5190   41.6460 H   0  0  0  0  0  0  0  0  0  0  0  0
   45.0450   36.4690   44.1770 H   0  0  0  0  0  0  0  0  0  0  0  0
   44.8820   37.0810   42.4630 H   0  0  0  0  0  0  0  0  0  0  0  0
   41.3950   35.7170   39.1750 C   0  0  0  0  0  0  0  0  0  0  0  0
   41.6260   36.6200   38.6150 H   0  0  0  0  0  0  0  0  0  0  0  0
   40.8610   35.0110   38.5020 H   0  0  0  0  0  0  0  0  0  0  0  0
   40.4340   36.0280   40.3080 C   0  0  0  0  0  0  0  0  0  0  0  0
   39.6990   36.7590   39.9150 H   0  0  0  0  0  0  0  0  0  0  0  0
   40.8980   36.4810   41.1860 H   0  0  0  0  0  0  0  0  0  0  0  0
   39.7220   34.7500   40.6250 C   0  0  0  0  0  0  0  0  0  0  0  0
   38.8000   34.2430   39.8050 N   0  0  0  0  0  0  0  0  0  0  0  0
   38.2830   33.0900   40.2760 C   0  0  0  0  0  0  0  0  0  0  0  0
   37.5200   32.4810   39.8020 H   0  0  0  0  0  0  0  0  0  0  0  0
   38.9280   32.8960   41.4420 N   0  0  0  0  0  0  0  0  0  0  0  0
   38.7520   32.0730   42.0630 H   0  0  0  0  0  0  0  0  0  0  0  0
   39.7870   33.8730   41.6650 N   0  0  0  0  0  0  0  0  0  0  0  0
  1  9  1  0  0  0  0
  2  1  1  0  0  0  0
  2  7  1  0  0  0  0
  3  2  2  0  0  0  0
  4  5  2  0  0  0  0
  4  3  1  0  0  0  0
  5  6  1  0  0  0  0
  6  1  2  0  0  0  0
  8  5  1  0  0  0  0
  9 11  1  0  0  0  0
  9 12  1  0  0  0  0
 10  9  1  0  0  0  0
 10 11  1  0  0  0  0
 10 13  1  0  0  0  0
 11 15  1  0  0  0  0
 14 10  1  0  0  0  0
 16 11  1  0  0  0  0
 17  3  1  0  0  0  0
 17 20  1  0  0  0  0
 18 17  1  0  0  0  0
 19 17  1  0  0  0  0
 20 23  1  0  0  0  0
 20 22  1  0  0  0  0
 21 20  1  0  0  0  0
 23 29  2  0  0  0  0
 24 25  2  0  0  0  0
 24 23  1  0  0  0  0
 25 27  1  0  0  0  0
 26 25  1  0  0  0  0
 27 29  1  0  0  0  0
 27 28  1  0  0  0  0
M  END
>  <minimizedAffinity>
-4.77915955

>  <minimizedRMSD>
1.1101079

$$$$
