
 OpenBabel03242520173D

 29 31  0  0  0  0  0  0  0  0999 V2000
   44.2620   34.5440   41.3340 C   0  0  0  0  0  0  0  0  0  0  0  0
   43.0820   35.1960   40.9230 C   0  0  0  0  0  0  0  0  0  0  0  0
   42.5670   34.8900   39.6660 C   0  0  0  0  0  0  0  0  0  0  0  0
   43.2460   33.9640   38.9000 N   0  0  0  0  0  0  0  0  0  0  0  0
   44.3740   33.3730   39.3570 C   0  0  0  0  0  0  0  0  0  0  0  0
   44.8770   33.6520   40.5480 N   0  0  0  0  0  0  0  0  0  0  0  0
   42.6160   35.9100   41.5860 H   0  0  0  0  0  0  0  0  0  0  0  0
   44.8500   32.6560   38.6970 H   0  0  0  0  0  0  0  0  0  0  0  0
   44.7980   34.8850   42.6790 C   0  0  0  0  0  0  0  0  0  0  0  0
   46.2660   35.3810   42.6350 C   0  0  0  0  0  0  0  0  0  0  0  0
   45.1340   36.2240   43.0720 C   0  0  0  0  0  0  0  0  0  0  0  0
   44.6020   34.0520   43.4020 H   0  0  0  0  0  0  0  0  0  0  0  0
   46.8970   34.9600   43.4420 H   0  0  0  0  0  0  0  0  0  0  0  0
   46.7320   35.5190   41.6430 H   0  0  0  0  0  0  0  0  0  0  0  0
   45.0200   36.4960   44.1470 H   0  0  0  0  0  0  0  0  0  0  0  0
   44.8700   37.0840   42.4240 H   0  0  0  0  0  0  0  0  0  0  0  0
   41.3220   35.5480   39.1910 C   0  0  0  0  0  0  0  0  0  0  0  0
   41.4970   36.4500   38.6090 H   0  0  0  0  0  0  0  0  0  0  0  0
   40.8100   34.8040   38.5440 H   0  0  0  0  0  0  0  0  0  0  0  0
   40.3720   35.8340   40.3400 C   0  0  0  0  0  0  0  0  0  0  0  0
   39.7070   36.6580   40.0090 H   0  0  0  0  0  0  0  0  0  0  0  0
   40.8580   36.1640   41.2600 H   0  0  0  0  0  0  0  0  0  0  0  0
   39.5520   34.5970   40.5310 C   0  0  0  0  0  0  0  0  0  0  0  0
   39.9010   33.6570   41.4100 N   0  0  0  0  0  0  0  0  0  0  0  0
   39.0300   32.6300   41.4260 C   0  0  0  0  0  0  0  0  0  0  0  0
   39.0840   31.7410   42.0470 H   0  0  0  0  0  0  0  0  0  0  0  0
   38.1060   32.9710   40.5070 N   0  0  0  0  0  0  0  0  0  0  0  0
   37.2800   32.3730   40.2770 H   0  0  0  0  0  0  0  0  0  0  0  0
   38.4020   34.1380   39.9650 N   0  0  0  0  0  0  0  0  0  0  0  0
  1  9  1  0  0  0  0
  2  1  1  0  0  0  0
  2  7  1  0  0  0  0
  3  2  2  0  0  0  0
  4  5  2  0  0  0  0
  4  3  1  0  0  0  0
  5  6  1  0  0  0  0
  6  1  2  0  0  0  0
  8  5  1  0  0  0  0
  9 11  1  0  0  0  0
  9 12  1  0  0  0  0
 10  9  1  0  0  0  0
 10 11  1  0  0  0  0
 10 13  1  0  0  0  0
 11 15  1  0  0  0  0
 14 10  1  0  0  0  0
 16 11  1  0  0  0  0
 17  3  1  0  0  0  0
 17 20  1  0  0  0  0
 18 17  1  0  0  0  0
 19 17  1  0  0  0  0
 20 23  1  0  0  0  0
 20 22  1  0  0  0  0
 21 20  1  0  0  0  0
 23 24  1  0  0  0  0
 24 25  2  0  0  0  0
 25 26  1  0  0  0  0
 27 25  1  0  0  0  0
 28 27  1  0  0  0  0
 29 27  1  0  0  0  0
 29 23  2  0  0  0  0
M  END
>  <minimizedAffinity>
-4.83439445

>  <minimizedRMSD>
1.26344442

$$$$
