
 OpenBabel03242520173D

 29 31  0  0  0  0  0  0  0  0999 V2000
   44.1710   34.5640   41.3850 C   0  0  0  0  0  0  0  0  0  0  0  0
   43.0700   35.3250   40.9450 C   0  0  0  0  0  0  0  0  0  0  0  0
   42.5410   35.0480   39.6870 C   0  0  0  0  0  0  0  0  0  0  0  0
   43.1290   34.0420   38.9480 N   0  0  0  0  0  0  0  0  0  0  0  0
   44.1860   33.3480   39.4310 C   0  0  0  0  0  0  0  0  0  0  0  0
   44.7010   33.5980   40.6230 N   0  0  0  0  0  0  0  0  0  0  0  0
   42.6720   36.0960   41.5890 H   0  0  0  0  0  0  0  0  0  0  0  0
   44.5930   32.5730   38.7910 H   0  0  0  0  0  0  0  0  0  0  0  0
   44.7250   34.8750   42.7300 C   0  0  0  0  0  0  0  0  0  0  0  0
   46.2040   35.3370   42.6820 C   0  0  0  0  0  0  0  0  0  0  0  0
   45.0950   36.2010   43.1370 C   0  0  0  0  0  0  0  0  0  0  0  0
   44.5140   34.0380   43.4440 H   0  0  0  0  0  0  0  0  0  0  0  0
   46.8300   34.8910   43.4800 H   0  0  0  0  0  0  0  0  0  0  0  0
   46.6660   35.4770   41.6890 H   0  0  0  0  0  0  0  0  0  0  0  0
   44.9950   36.4620   44.2160 H   0  0  0  0  0  0  0  0  0  0  0  0
   44.8470   37.0750   42.5010 H   0  0  0  0  0  0  0  0  0  0  0  0
   41.3750   35.8210   39.1830 C   0  0  0  0  0  0  0  0  0  0  0  0
   41.6280   36.8190   38.8330 H   0  0  0  0  0  0  0  0  0  0  0  0
   40.9690   35.2380   38.3280 H   0  0  0  0  0  0  0  0  0  0  0  0
   40.2640   35.8870   40.2150 C   0  0  0  0  0  0  0  0  0  0  0  0
   39.6710   36.7960   39.9910 H   0  0  0  0  0  0  0  0  0  0  0  0
   40.6080   35.9760   41.2480 H   0  0  0  0  0  0  0  0  0  0  0  0
   39.4060   34.6810   39.9940 C   0  0  0  0  0  0  0  0  0  0  0  0
   38.9490   34.3630   38.7820 N   0  0  0  0  0  0  0  0  0  0  0  0
   38.1970   33.2440   38.8030 C   0  0  0  0  0  0  0  0  0  0  0  0
   37.7100   32.7750   37.9540 H   0  0  0  0  0  0  0  0  0  0  0  0
   38.2040   32.8710   40.0970 N   0  0  0  0  0  0  0  0  0  0  0  0
   37.7020   32.0230   40.4490 H   0  0  0  0  0  0  0  0  0  0  0  0
   38.9170   33.7140   40.8190 N   0  0  0  0  0  0  0  0  0  0  0  0
  1  9  1  0  0  0  0
  2  1  1  0  0  0  0
  2  7  1  0  0  0  0
  3  2  2  0  0  0  0
  4  5  2  0  0  0  0
  4  3  1  0  0  0  0
  5  6  1  0  0  0  0
  6  1  2  0  0  0  0
  8  5  1  0  0  0  0
  9 11  1  0  0  0  0
  9 12  1  0  0  0  0
 10  9  1  0  0  0  0
 10 11  1  0  0  0  0
 10 13  1  0  0  0  0
 11 15  1  0  0  0  0
 14 10  1  0  0  0  0
 16 11  1  0  0  0  0
 17  3  1  0  0  0  0
 17 20  1  0  0  0  0
 18 17  1  0  0  0  0
 19 17  1  0  0  0  0
 20 22  1  0  0  0  0
 21 20  1  0  0  0  0
 23 20  1  0  0  0  0
 23 29  2  0  0  0  0
 24 25  2  0  0  0  0
 24 23  1  0  0  0  0
 25 27  1  0  0  0  0
 26 25  1  0  0  0  0
 27 28  1  0  0  0  0
 27 29  1  0  0  0  0
M  END
>  <minimizedAffinity>
-4.5249362

>  <minimizedRMSD>
1.7887187

$$$$
