
 OpenBabel03242517003D

 30 32  0  0  0  0  0  0  0  0999 V2000
   46.1800   34.5090   41.7130 C   0  0  0  0  0  0  0  0  0  0  0  0
   47.5230   34.7380   41.5160 C   0  0  0  0  0  0  0  0  0  0  0  0
   48.0910   34.3840   40.3020 C   0  0  0  0  0  0  0  0  0  0  0  0
   47.2990   33.8130   39.3260 C   0  0  0  0  0  0  0  0  0  0  0  0
   45.9610   33.5720   39.4890 C   0  0  0  0  0  0  0  0  0  0  0  0
   45.4330   33.9470   40.7320 C   0  0  0  0  0  0  0  0  0  0  0  0
   48.1560   35.1870   42.2790 H   0  0  0  0  0  0  0  0  0  0  0  0
   49.1310   34.5250   40.0600 H   0  0  0  0  0  0  0  0  0  0  0  0
   47.6900   33.5150   38.3520 H   0  0  0  0  0  0  0  0  0  0  0  0
   45.2590   33.1440   38.8180 H   0  0  0  0  0  0  0  0  0  0  0  0
   44.6140   36.3890   44.5930 C   0  0  0  0  0  0  0  0  0  0  0  0
   45.0990   36.1300   43.3000 C   0  0  0  0  0  0  0  0  0  0  0  0
   45.6420   34.9040   43.0130 C   0  0  0  0  0  0  0  0  0  0  0  0
   45.6760   33.9910   44.0280 N   0  0  0  0  0  0  0  0  0  0  0  0
   45.2110   34.2370   45.2710 C   0  0  0  0  0  0  0  0  0  0  0  0
   44.6740   35.4460   45.5600 N   0  0  0  0  0  0  0  0  0  0  0  0
   44.1840   37.3670   44.8110 H   0  0  0  0  0  0  0  0  0  0  0  0
   45.0640   36.8530   42.5210 H   0  0  0  0  0  0  0  0  0  0  0  0
   45.2810   33.4400   46.0260 H   0  0  0  0  0  0  0  0  0  0  0  0
   42.8260   34.2760   40.5760 C   0  0  0  0  0  0  0  0  0  0  0  0
   42.6910   35.1520   39.7170 O   0  0  0  0  0  0  0  0  0  0  0  0
   44.0610   33.7540   41.0380 N   0  0  0  0  0  0  0  0  0  0  0  0
   44.0890   33.0240   41.8110 H   0  0  0  0  0  0  0  0  0  0  0  0
   41.6210   33.7140   41.1830 C   0  0  0  0  0  0  0  0  0  0  0  0
   41.4630   32.4080   41.3770 N   0  0  0  0  0  0  0  0  0  0  0  0
   40.2580   32.1420   41.9570 C   0  0  0  0  0  0  0  0  0  0  0  0
   39.9670   31.1320   42.1840 H   0  0  0  0  0  0  0  0  0  0  0  0
   39.6740   33.3450   42.1140 N   0  0  0  0  0  0  0  0  0  0  0  0
   38.7370   33.4060   42.5400 H   0  0  0  0  0  0  0  0  0  0  0  0
   40.4960   34.2840   41.6490 N   0  0  0  0  0  0  0  0  0  0  0  0
  1 13  1  0  0  0  0
  2  1  1  0  0  0  0
  2  7  1  0  0  0  0
  3  2  2  0  0  0  0
  4  5  2  0  0  0  0
  4  3  1  0  0  0  0
  5  6  1  0  0  0  0
  6 22  1  0  0  0  0
  6  1  2  0  0  0  0
  8  3  1  0  0  0  0
  9  4  1  0  0  0  0
 10  5  1  0  0  0  0
 11 17  1  0  0  0  0
 11 16  1  0  0  0  0
 12 11  2  0  0  0  0
 13 12  1  0  0  0  0
 13 14  2  0  0  0  0
 14 15  1  0  0  0  0
 15 16  2  0  0  0  0
 15 19  1  0  0  0  0
 18 12  1  0  0  0  0
 20 22  1  0  0  0  0
 20 24  1  0  0  0  0
 21 20  2  0  0  0  0
 22 23  1  0  0  0  0
 24 25  1  0  0  0  0
 24 30  2  0  0  0  0
 25 26  2  0  0  0  0
 26 28  1  0  0  0  0
 26 27  1  0  0  0  0
 28 29  1  0  0  0  0
 30 28  1  0  0  0  0
M  END
>  <minimizedAffinity>
-6.02928495

>  <minimizedRMSD>
1.08530772

$$$$
