REMARK  Name = 
REMARK  5 active torsions:
REMARK  status: ('A' for Active; 'I' for Inactive)
REMARK    1  A    between atoms: C_1  and  C_7
REMARK    2  A    between atoms: C_3  and  C_10
REMARK    3  A    between atoms: C_10  and  C_11
REMARK    4  A    between atoms: C_11  and  N_14
REMARK    5  A    between atoms: C_12  and  C_27
REMARK                            x       y       z     vdW  Elec       q    Type
REMARK                         _______ _______ _______ _____ _____    ______ ____
ROOT
ATOM      1  C   UNL     1      41.070  35.743  39.169  0.00  0.00    +0.000 C 
ATOM      2  H   UNL     1      40.708  35.186  38.269  0.00  0.00    +0.000 HD
ATOM      3  H   UNL     1      41.228  36.801  38.929  0.00  0.00    +0.000 HD
ENDROOT
BRANCH   1   6
ATOM      4  C   UNL     1      43.983  34.575  41.280  0.00  0.00    +0.000 A 
ATOM      5  C   UNL     1      42.825  35.280  40.880  0.00  0.00    +0.000 A 
ATOM      6  C   UNL     1      42.290  35.033  39.627  0.00  0.00    +0.000 A 
ATOM      7  N   UNL     1      42.931  34.106  38.845  0.00  0.00    +0.000 NA
ATOM      8  C   UNL     1      44.042  33.454  39.275  0.00  0.00    +0.000 A 
ATOM      9  N   UNL     1      44.561  33.685  40.477  0.00  0.00    +0.000 NA
ATOM     10  H   UNL     1      42.385  35.998  41.566  0.00  0.00    +0.000 HD
ATOM     11  H   UNL     1      44.532  32.726  38.641  0.00  0.00    +0.000 HD
BRANCH   4  12
ATOM     12  C   UNL     1      44.551  34.856  42.625  0.00  0.00    +0.000 C 
ATOM     13  C   UNL     1      46.055  35.278  42.552  0.00  0.00    +0.000 C 
ATOM     14  C   UNL     1      44.982  36.132  43.066  0.00  0.00    +0.000 C 
ATOM     15  H   UNL     1      44.336  34.036  43.335  0.00  0.00    +0.000 HD
ATOM     16  H   UNL     1      46.490  35.428  41.551  0.00  0.00    +0.000 HD
ATOM     17  H   UNL     1      46.705  34.666  43.203  0.00  0.00    +0.000 HD
ATOM     18  H   UNL     1      44.747  37.018  42.407  0.00  0.00    +0.000 HD
ATOM     19  H   UNL     1      44.955  36.428  44.128  0.00  0.00    +0.000 HD
ENDBRANCH   4  12
ENDBRANCH   1   6
BRANCH   1  20
ATOM     20  C   UNL     1      39.972  35.633  40.208  0.00  0.00    +0.000 C 
ATOM     21  H   UNL     1      40.436  35.527  41.189  0.00  0.00    +0.000 HD
ATOM     22  H   UNL     1      39.374  36.587  40.241  0.00  0.00    +0.000 HD
BRANCH  20  25
ATOM     23  C   UNL     1      39.052  33.443  40.751  0.00  0.00    +0.000 C 
ATOM     24  O   UNL     1      39.781  33.273  41.767  0.00  0.00    +0.000 OA
ATOM     25  N   UNL     1      39.029  34.584  39.903  0.00  0.00    +0.000 N 
ATOM     26  H   UNL     1      38.377  34.659  39.116  0.00  0.00    +0.000 HD
BRANCH  23  27
ATOM     27  C   UNL     1      38.124  32.346  40.399  0.00  0.00    +0.000 A 
ATOM     28  N   UNL     1      36.827  32.418  40.044  0.00  0.00    +0.000 NA
ATOM     29  C   UNL     1      36.329  31.203  39.802  0.00  0.00    +0.000 A 
ATOM     30  H   UNL     1      35.326  30.930  39.499  0.00  0.00    +0.000 HD
ATOM     31  N   UNL     1      37.330  30.342  40.007  0.00  0.00    +0.000 N 
ATOM     32  H   UNL     1      37.382  29.309  39.933  0.00  0.00    +0.000 HD
ATOM     33  N   UNL     1      38.395  31.017  40.361  0.00  0.00    +0.000 NA
ENDBRANCH  23  27
ENDBRANCH  20  25
ENDBRANCH   1  20
TORSDOF 5
