
 OpenBabel03242520193D

 33 35  0  0  0  0  0  0  0  0999 V2000
   40.9960   35.8850   39.3900 C   0  0  0  0  0  0  0  0  0  0  0  0
   40.7300   35.4620   38.3890 H   0  0  0  0  0  0  0  0  0  0  0  0
   41.1270   36.9710   39.3260 H   0  0  0  0  0  0  0  0  0  0  0  0
   43.9170   34.6700   41.4630 C   0  0  0  0  0  0  0  0  0  0  0  0
   42.7710   35.4000   41.0740 C   0  0  0  0  0  0  0  0  0  0  0  0
   42.2060   35.1490   39.8350 C   0  0  0  0  0  0  0  0  0  0  0  0
   42.8080   34.1950   39.0550 N   0  0  0  0  0  0  0  0  0  0  0  0
   43.9100   33.5200   39.4740 C   0  0  0  0  0  0  0  0  0  0  0  0
   44.4570   33.7540   40.6630 N   0  0  0  0  0  0  0  0  0  0  0  0
   42.3620   36.1390   41.7580 H   0  0  0  0  0  0  0  0  0  0  0  0
   44.3690   32.7710   38.8420 H   0  0  0  0  0  0  0  0  0  0  0  0
   44.5170   34.9550   42.7930 C   0  0  0  0  0  0  0  0  0  0  0  0
   46.0330   35.3240   42.6880 C   0  0  0  0  0  0  0  0  0  0  0  0
   44.9990   36.2230   43.2040 C   0  0  0  0  0  0  0  0  0  0  0  0
   44.2870   34.1560   43.5210 H   0  0  0  0  0  0  0  0  0  0  0  0
   46.4560   35.4410   41.6770 H   0  0  0  0  0  0  0  0  0  0  0  0
   46.6730   34.7010   43.3390 H   0  0  0  0  0  0  0  0  0  0  0  0
   44.7830   37.1050   42.5330 H   0  0  0  0  0  0  0  0  0  0  0  0
   45.0010   36.5380   44.2610 H   0  0  0  0  0  0  0  0  0  0  0  0
   39.8260   35.5830   40.3050 C   0  0  0  0  0  0  0  0  0  0  0  0
   40.1810   35.6030   41.3350 H   0  0  0  0  0  0  0  0  0  0  0  0
   39.0500   36.3950   40.2200 H   0  0  0  0  0  0  0  0  0  0  0  0
   39.2490   33.2890   40.8890 C   0  0  0  0  0  0  0  0  0  0  0  0
   39.8210   33.3210   42.0140 O   0  0  0  0  0  0  0  0  0  0  0  0
   39.1550   34.3540   39.9530 N   0  0  0  0  0  0  0  0  0  0  0  0
   38.6380   34.2570   39.0730 H   0  0  0  0  0  0  0  0  0  0  0  0
   38.6090   32.0140   40.4980 C   0  0  0  0  0  0  0  0  0  0  0  0
   38.6300   31.3890   39.3050 N   0  0  0  0  0  0  0  0  0  0  0  0
   37.9280   30.2530   39.3470 C   0  0  0  0  0  0  0  0  0  0  0  0
   37.7570   29.5350   38.5560 H   0  0  0  0  0  0  0  0  0  0  0  0
   37.4530   30.1550   40.5910 N   0  0  0  0  0  0  0  0  0  0  0  0
   36.8640   29.4370   41.0530 H   0  0  0  0  0  0  0  0  0  0  0  0
   37.8550   31.1970   41.2750 N   0  0  0  0  0  0  0  0  0  0  0  0
  1  6  1  0  0  0  0
  1 20  1  0  0  0  0
  2  1  1  0  0  0  0
  3  1  1  0  0  0  0
  4 12  1  0  0  0  0
  5  4  1  0  0  0  0
  5 10  1  0  0  0  0
  6  5  2  0  0  0  0
  7  8  2  0  0  0  0
  7  6  1  0  0  0  0
  8  9  1  0  0  0  0
  9  4  2  0  0  0  0
 11  8  1  0  0  0  0
 12 14  1  0  0  0  0
 12 15  1  0  0  0  0
 13 12  1  0  0  0  0
 13 14  1  0  0  0  0
 13 17  1  0  0  0  0
 14 19  1  0  0  0  0
 16 13  1  0  0  0  0
 18 14  1  0  0  0  0
 20 21  1  0  0  0  0
 22 20  1  0  0  0  0
 23 24  2  0  0  0  0
 25 20  1  0  0  0  0
 25 23  1  0  0  0  0
 26 25  1  0  0  0  0
 27 23  1  0  0  0  0
 27 33  2  0  0  0  0
 28 29  2  0  0  0  0
 28 27  1  0  0  0  0
 29 31  1  0  0  0  0
 30 29  1  0  0  0  0
 31 32  1  0  0  0  0
 31 33  1  0  0  0  0
M  END
>  <minimizedAffinity>
-4.74875259

>  <minimizedRMSD>
0.544198751

$$$$
