
 OpenBabel03242510523D

 20 21  0  0  0  0  0  0  0  0999 V2000
   38.1680   26.1770   42.6090 C   0  0  0  0  0  0  0  0  0  0  0  0
   39.3840   26.2040   43.3240 C   0  0  0  0  0  0  0  0  0  0  0  0
   40.0780   27.4020   43.4480 C   0  0  0  0  0  0  0  0  0  0  0  0
   39.5400   28.5040   42.8650 N   0  0  0  0  0  0  0  0  0  0  0  0
   38.3780   28.4570   42.1870 C   0  0  0  0  0  0  0  0  0  0  0  0
   37.6890   27.2890   42.0580 N   0  0  0  0  0  0  0  0  0  0  0  0
   38.7740   30.7370   41.4910 C   0  0  0  0  0  0  0  0  0  0  0  0
   39.9680   30.7410   41.8700 O   0  0  0  0  0  0  0  0  0  0  0  0
   37.8540   29.6440   41.5920 N   0  0  0  0  0  0  0  0  0  0  0  0
   37.7200   25.1960   42.5770 H   0  0  0  0  0  0  0  0  0  0  0  0
   39.8030   25.3180   43.7840 H   0  0  0  0  0  0  0  0  0  0  0  0
   41.0130   27.4480   43.9920 H   0  0  0  0  0  0  0  0  0  0  0  0
   36.8910   29.7260   41.2540 H   0  0  0  0  0  0  0  0  0  0  0  0
   38.2870   31.9820   40.8860 C   0  0  0  0  0  0  0  0  0  0  0  0
   38.9980   33.1290   40.8350 N   0  0  0  0  0  0  0  0  0  0  0  0
   38.2650   34.0920   40.2130 C   0  0  0  0  0  0  0  0  0  0  0  0
   38.4920   35.1170   39.9880 H   0  0  0  0  0  0  0  0  0  0  0  0
   37.0820   33.5100   39.8790 N   0  0  0  0  0  0  0  0  0  0  0  0
   36.2320   33.8970   39.3870 H   0  0  0  0  0  0  0  0  0  0  0  0
   37.1080   32.2450   40.2880 N   0  0  0  0  0  0  0  0  0  0  0  0
  1  2  1  0  0  0  0
  2  3  2  0  0  0  0
  2 11  1  0  0  0  0
  3 12  1  0  0  0  0
  4  3  1  0  0  0  0
  5  4  2  0  0  0  0
  6  5  1  0  0  0  0
  6  1  2  0  0  0  0
  7  9  1  0  0  0  0
  7  8  2  0  0  0  0
  9  5  1  0  0  0  0
 10  1  1  0  0  0  0
 13  9  1  0  0  0  0
 14  7  1  0  0  0  0
 15 14  1  0  0  0  0
 16 15  2  0  0  0  0
 17 16  1  0  0  0  0
 18 16  1  0  0  0  0
 18 20  1  0  0  0  0
 19 18  1  0  0  0  0
 20 14  2  0  0  0  0
M  END
>  <minimizedAffinity>
-4.37064219

$$$$

 OpenBabel03242510523D

 20 21  0  0  0  0  0  0  0  0999 V2000
   39.4910   24.7400   42.0500 C   0  0  0  0  0  0  0  0  0  0  0  0
   38.2490   24.0930   42.2150 C   0  0  0  0  0  0  0  0  0  0  0  0
   37.0730   24.8140   42.0380 C   0  0  0  0  0  0  0  0  0  0  0  0
   37.1840   26.1270   41.7100 N   0  0  0  0  0  0  0  0  0  0  0  0
   38.3800   26.7260   41.5570 C   0  0  0  0  0  0  0  0  0  0  0  0
   39.5380   26.0310   41.7280 N   0  0  0  0  0  0  0  0  0  0  0  0
   37.2190   28.8370   41.3670 C   0  0  0  0  0  0  0  0  0  0  0  0
   36.1260   28.3760   41.7700 O   0  0  0  0  0  0  0  0  0  0  0  0
   38.4420   28.1090   41.2110 N   0  0  0  0  0  0  0  0  0  0  0  0
   40.3330   24.0850   42.2120 H   0  0  0  0  0  0  0  0  0  0  0  0
   38.1740   23.0460   42.4770 H   0  0  0  0  0  0  0  0  0  0  0  0
   36.1080   24.3400   42.1590 H   0  0  0  0  0  0  0  0  0  0  0  0
   39.2940   28.5670   40.8740 H   0  0  0  0  0  0  0  0  0  0  0  0
   37.2270   30.2640   41.0250 C   0  0  0  0  0  0  0  0  0  0  0  0
   38.3500   30.9930   40.8460 N   0  0  0  0  0  0  0  0  0  0  0  0
   38.0140   32.2770   40.5420 C   0  0  0  0  0  0  0  0  0  0  0  0
   38.6240   33.1350   40.3340 H   0  0  0  0  0  0  0  0  0  0  0  0
   36.6550   32.3220   40.5370 N   0  0  0  0  0  0  0  0  0  0  0  0
   35.9870   33.1170   40.3510 H   0  0  0  0  0  0  0  0  0  0  0  0
   36.1950   31.1090   40.8280 N   0  0  0  0  0  0  0  0  0  0  0  0
  1 10  1  0  0  0  0
  1  2  1  0  0  0  0
  2 11  1  0  0  0  0
  3 12  1  0  0  0  0
  3  2  2  0  0  0  0
  4  3  1  0  0  0  0
  5  4  2  0  0  0  0
  5  6  1  0  0  0  0
  6  1  2  0  0  0  0
  7  8  2  0  0  0  0
  9  7  1  0  0  0  0
  9  5  1  0  0  0  0
 13  9  1  0  0  0  0
 14  7  1  0  0  0  0
 15 14  1  0  0  0  0
 16 15  2  0  0  0  0
 17 16  1  0  0  0  0
 18 16  1  0  0  0  0
 18 20  1  0  0  0  0
 19 18  1  0  0  0  0
 20 14  2  0  0  0  0
M  END
>  <minimizedAffinity>
-4.3300848

$$$$

 OpenBabel03242510523D

 20 21  0  0  0  0  0  0  0  0999 V2000
   36.4990   24.8010   40.0050 C   0  0  0  0  0  0  0  0  0  0  0  0
   36.8260   24.3780   41.3110 C   0  0  0  0  0  0  0  0  0  0  0  0
   37.1560   25.3250   42.2740 C   0  0  0  0  0  0  0  0  0  0  0  0
   37.1470   26.6300   41.9020 N   0  0  0  0  0  0  0  0  0  0  0  0
   36.8320   27.0130   40.6490 C   0  0  0  0  0  0  0  0  0  0  0  0
   36.5070   26.0950   39.6980 N   0  0  0  0  0  0  0  0  0  0  0  0
   37.4910   29.2600   41.2470 C   0  0  0  0  0  0  0  0  0  0  0  0
   38.0450   28.9110   42.3140 O   0  0  0  0  0  0  0  0  0  0  0  0
   36.8370   28.3990   40.3080 N   0  0  0  0  0  0  0  0  0  0  0  0
   36.2610   23.9820   39.3450 H   0  0  0  0  0  0  0  0  0  0  0  0
   36.8300   23.3340   41.5960 H   0  0  0  0  0  0  0  0  0  0  0  0
   37.4110   25.0260   43.2820 H   0  0  0  0  0  0  0  0  0  0  0  0
   36.4080   28.7700   39.4550 H   0  0  0  0  0  0  0  0  0  0  0  0
   37.5260   30.6960   40.9440 C   0  0  0  0  0  0  0  0  0  0  0  0
   38.6440   31.4520   40.9840 N   0  0  0  0  0  0  0  0  0  0  0  0
   38.3360   32.7360   40.6530 C   0  0  0  0  0  0  0  0  0  0  0  0
   38.9530   33.6110   40.5760 H   0  0  0  0  0  0  0  0  0  0  0  0
   36.9990   32.7530   40.4060 N   0  0  0  0  0  0  0  0  0  0  0  0
   36.3560   33.5390   40.1200 H   0  0  0  0  0  0  0  0  0  0  0  0
   36.5250   31.5240   40.5840 N   0  0  0  0  0  0  0  0  0  0  0  0
  1  2  1  0  0  0  0
  2 11  1  0  0  0  0
  2  3  2  0  0  0  0
  3 12  1  0  0  0  0
  4  3  1  0  0  0  0
  5  4  2  0  0  0  0
  6  1  2  0  0  0  0
  6  5  1  0  0  0  0
  7  8  2  0  0  0  0
  9  5  1  0  0  0  0
  9  7  1  0  0  0  0
 10  1  1  0  0  0  0
 13  9  1  0  0  0  0
 14 15  1  0  0  0  0
 14  7  1  0  0  0  0
 16 15  2  0  0  0  0
 17 16  1  0  0  0  0
 18 20  1  0  0  0  0
 18 16  1  0  0  0  0
 19 18  1  0  0  0  0
 20 14  2  0  0  0  0
M  END
>  <minimizedAffinity>
-4.2968955

$$$$

 OpenBabel03242510523D

 20 21  0  0  0  0  0  0  0  0999 V2000
   40.5470   25.3660   43.2730 C   0  0  0  0  0  0  0  0  0  0  0  0
   39.5500   24.4000   43.0210 C   0  0  0  0  0  0  0  0  0  0  0  0
   38.3670   24.7840   42.4010 C   0  0  0  0  0  0  0  0  0  0  0  0
   38.2290   26.0920   42.0630 N   0  0  0  0  0  0  0  0  0  0  0  0
   39.1930   26.9990   42.3130 C   0  0  0  0  0  0  0  0  0  0  0  0
   40.3560   26.6350   42.9200 N   0  0  0  0  0  0  0  0  0  0  0  0
   37.6530   28.7240   41.6100 C   0  0  0  0  0  0  0  0  0  0  0  0
   36.6560   27.9660   41.6230 O   0  0  0  0  0  0  0  0  0  0  0  0
   39.0000   28.3620   41.9370 N   0  0  0  0  0  0  0  0  0  0  0  0
   41.4190   24.9560   43.7580 H   0  0  0  0  0  0  0  0  0  0  0  0
   39.6720   23.3600   43.2950 H   0  0  0  0  0  0  0  0  0  0  0  0
   37.5880   24.0620   42.1970 H   0  0  0  0  0  0  0  0  0  0  0  0
   39.7590   29.0490   41.9010 H   0  0  0  0  0  0  0  0  0  0  0  0
   37.3980   30.1150   41.2180 C   0  0  0  0  0  0  0  0  0  0  0  0
   38.3670   31.0250   40.9800 N   0  0  0  0  0  0  0  0  0  0  0  0
   37.8000   32.2150   40.6400 C   0  0  0  0  0  0  0  0  0  0  0  0
   38.2420   33.1590   40.3840 H   0  0  0  0  0  0  0  0  0  0  0  0
   36.4550   32.0160   40.6740 N   0  0  0  0  0  0  0  0  0  0  0  0
   35.6510   32.6720   40.4800 H   0  0  0  0  0  0  0  0  0  0  0  0
   36.2280   30.7540   41.0220 N   0  0  0  0  0  0  0  0  0  0  0  0
  1 10  1  0  0  0  0
  2  1  1  0  0  0  0
  2 11  1  0  0  0  0
  3  2  2  0  0  0  0
  4  5  2  0  0  0  0
  4  3  1  0  0  0  0
  5  6  1  0  0  0  0
  6  1  2  0  0  0  0
  7  8  2  0  0  0  0
  7  9  1  0  0  0  0
  9  5  1  0  0  0  0
 12  3  1  0  0  0  0
 13  9  1  0  0  0  0
 14  7  1  0  0  0  0
 15 14  1  0  0  0  0
 16 18  1  0  0  0  0
 16 15  2  0  0  0  0
 17 16  1  0  0  0  0
 18 20  1  0  0  0  0
 19 18  1  0  0  0  0
 20 14  2  0  0  0  0
M  END
>  <minimizedAffinity>
-4.288661

$$$$

 OpenBabel03242510523D

 20 21  0  0  0  0  0  0  0  0999 V2000
   36.9610   27.0370   42.0500 C   0  0  0  0  0  0  0  0  0  0  0  0
   37.1360   27.6340   43.3160 C   0  0  0  0  0  0  0  0  0  0  0  0
   37.7310   28.8870   43.4050 C   0  0  0  0  0  0  0  0  0  0  0  0
   38.1200   29.4820   42.2490 N   0  0  0  0  0  0  0  0  0  0  0  0
   37.9450   28.8950   41.0500 C   0  0  0  0  0  0  0  0  0  0  0  0
   37.3630   27.6680   40.9500 N   0  0  0  0  0  0  0  0  0  0  0  0
   39.2500   30.6750   40.0660 C   0  0  0  0  0  0  0  0  0  0  0  0
   39.6650   31.1020   41.1680 O   0  0  0  0  0  0  0  0  0  0  0  0
   38.3710   29.5630   39.8630 N   0  0  0  0  0  0  0  0  0  0  0  0
   36.4900   26.0670   42.1030 H   0  0  0  0  0  0  0  0  0  0  0  0
   36.8210   27.1480   44.2310 H   0  0  0  0  0  0  0  0  0  0  0  0
   37.8760   29.3650   44.3650 H   0  0  0  0  0  0  0  0  0  0  0  0
   38.0810   29.2790   38.9220 H   0  0  0  0  0  0  0  0  0  0  0  0
   39.7190   31.3970   38.8780 C   0  0  0  0  0  0  0  0  0  0  0  0
   40.8880   32.0700   38.8140 N   0  0  0  0  0  0  0  0  0  0  0  0
   41.0250   32.6270   37.5790 C   0  0  0  0  0  0  0  0  0  0  0  0
   41.8110   33.2250   37.1580 H   0  0  0  0  0  0  0  0  0  0  0  0
   39.9100   32.2800   36.8820 N   0  0  0  0  0  0  0  0  0  0  0  0
   39.6120   32.5000   35.8940 H   0  0  0  0  0  0  0  0  0  0  0  0
   39.1350   31.5430   37.6720 N   0  0  0  0  0  0  0  0  0  0  0  0
  1 10  1  0  0  0  0
  1  2  1  0  0  0  0
  2  3  2  0  0  0  0
  2 11  1  0  0  0  0
  3 12  1  0  0  0  0
  4  3  1  0  0  0  0
  5  4  2  0  0  0  0
  6  5  1  0  0  0  0
  6  1  2  0  0  0  0
  7  8  2  0  0  0  0
  9  7  1  0  0  0  0
  9  5  1  0  0  0  0
 13  9  1  0  0  0  0
 14  7  1  0  0  0  0
 15 14  1  0  0  0  0
 16 15  2  0  0  0  0
 17 16  1  0  0  0  0
 18 16  1  0  0  0  0
 18 20  1  0  0  0  0
 19 18  1  0  0  0  0
 20 14  2  0  0  0  0
M  END
>  <minimizedAffinity>
-4.2795105

$$$$

 OpenBabel03242510523D

 20 21  0  0  0  0  0  0  0  0999 V2000
   38.2700   31.3910   39.7150 C   0  0  0  0  0  0  0  0  0  0  0  0
   37.0080   31.7760   40.2160 C   0  0  0  0  0  0  0  0  0  0  0  0
   36.3250   30.9250   41.0770 C   0  0  0  0  0  0  0  0  0  0  0  0
   36.9170   29.7460   41.3960 N   0  0  0  0  0  0  0  0  0  0  0  0
   38.1210   29.3960   40.9070 C   0  0  0  0  0  0  0  0  0  0  0  0
   38.8010   30.2210   40.0630 N   0  0  0  0  0  0  0  0  0  0  0  0
   37.8070   27.2100   41.8870 C   0  0  0  0  0  0  0  0  0  0  0  0
   36.5900   27.3910   42.1240 O   0  0  0  0  0  0  0  0  0  0  0  0
   38.7010   28.1450   41.2740 N   0  0  0  0  0  0  0  0  0  0  0  0
   38.7050   32.1270   39.0580 H   0  0  0  0  0  0  0  0  0  0  0  0
   36.5470   32.7200   39.9530 H   0  0  0  0  0  0  0  0  0  0  0  0
   35.3560   31.1980   41.4740 H   0  0  0  0  0  0  0  0  0  0  0  0
   39.6870   27.9140   41.1170 H   0  0  0  0  0  0  0  0  0  0  0  0
   38.3510   25.9060   42.2840 C   0  0  0  0  0  0  0  0  0  0  0  0
   39.5410   25.7380   42.8990 N   0  0  0  0  0  0  0  0  0  0  0  0
   39.7520   24.4120   43.1280 C   0  0  0  0  0  0  0  0  0  0  0  0
   40.5730   23.8980   43.5900 H   0  0  0  0  0  0  0  0  0  0  0  0
   38.6600   23.7660   42.6380 N   0  0  0  0  0  0  0  0  0  0  0  0
   38.4140   22.7400   42.6100 H   0  0  0  0  0  0  0  0  0  0  0  0
   37.8280   24.6730   42.1350 N   0  0  0  0  0  0  0  0  0  0  0  0
  1  6  2  0  0  0  0
  1  2  1  0  0  0  0
  2  3  2  0  0  0  0
  3  4  1  0  0  0  0
  3 12  1  0  0  0  0
  5  9  1  0  0  0  0
  5  4  2  0  0  0  0
  6  5  1  0  0  0  0
  7  8  2  0  0  0  0
  7 14  1  0  0  0  0
  9  7  1  0  0  0  0
 10  1  1  0  0  0  0
 11  2  1  0  0  0  0
 13  9  1  0  0  0  0
 14 15  1  0  0  0  0
 15 16  2  0  0  0  0
 16 17  1  0  0  0  0
 18 16  1  0  0  0  0
 19 18  1  0  0  0  0
 20 14  2  0  0  0  0
 20 18  1  0  0  0  0
M  END
>  <minimizedAffinity>
-4.14920092

$$$$

 OpenBabel03242510523D

 20 21  0  0  0  0  0  0  0  0999 V2000
   36.9480   27.0860   41.5930 C   0  0  0  0  0  0  0  0  0  0  0  0
   37.0830   27.0740   42.9970 C   0  0  0  0  0  0  0  0  0  0  0  0
   37.6530   28.1680   43.6390 C   0  0  0  0  0  0  0  0  0  0  0  0
   38.0560   29.2100   42.8680 N   0  0  0  0  0  0  0  0  0  0  0  0
   37.9180   29.2020   41.5280 C   0  0  0  0  0  0  0  0  0  0  0  0
   37.3630   28.1360   40.8880 N   0  0  0  0  0  0  0  0  0  0  0  0
   39.2100   31.2430   41.4540 C   0  0  0  0  0  0  0  0  0  0  0  0
   39.5920   31.1510   42.6430 O   0  0  0  0  0  0  0  0  0  0  0  0
   38.3580   30.3230   40.7620 N   0  0  0  0  0  0  0  0  0  0  0  0
   36.4950   26.1870   41.2050 H   0  0  0  0  0  0  0  0  0  0  0  0
   36.7580   26.2370   43.6010 H   0  0  0  0  0  0  0  0  0  0  0  0
   37.7670   28.1820   44.7150 H   0  0  0  0  0  0  0  0  0  0  0  0
   38.0940   30.4750   39.7840 H   0  0  0  0  0  0  0  0  0  0  0  0
   39.6920   32.4130   40.7120 C   0  0  0  0  0  0  0  0  0  0  0  0
   40.9500   32.8990   40.7970 N   0  0  0  0  0  0  0  0  0  0  0  0
   41.0720   33.9870   39.9880 C   0  0  0  0  0  0  0  0  0  0  0  0
   41.9090   34.6300   39.7920 H   0  0  0  0  0  0  0  0  0  0  0  0
   39.8580   34.1610   39.4010 N   0  0  0  0  0  0  0  0  0  0  0  0
   39.5180   34.8810   38.7090 H   0  0  0  0  0  0  0  0  0  0  0  0
   39.0400   33.2110   39.8430 N   0  0  0  0  0  0  0  0  0  0  0  0
  1  2  1  0  0  0  0
  2 11  1  0  0  0  0
  2  3  2  0  0  0  0
  3 12  1  0  0  0  0
  4  3  1  0  0  0  0
  5  4  2  0  0  0  0
  6  5  1  0  0  0  0
  6  1  2  0  0  0  0
  7  8  2  0  0  0  0
  9  7  1  0  0  0  0
  9  5  1  0  0  0  0
 10  1  1  0  0  0  0
 13  9  1  0  0  0  0
 14 15  1  0  0  0  0
 14  7  1  0  0  0  0
 16 15  2  0  0  0  0
 17 16  1  0  0  0  0
 18 20  1  0  0  0  0
 18 16  1  0  0  0  0
 19 18  1  0  0  0  0
 20 14  2  0  0  0  0
M  END
>  <minimizedAffinity>
-4.13745975

$$$$

 OpenBabel03242510523D

 20 21  0  0  0  0  0  0  0  0999 V2000
   36.8250   27.0600   42.5940 C   0  0  0  0  0  0  0  0  0  0  0  0
   37.4380   27.7210   43.6790 C   0  0  0  0  0  0  0  0  0  0  0  0
   38.0460   28.9540   43.4740 C   0  0  0  0  0  0  0  0  0  0  0  0
   38.0190   29.4680   42.2180 N   0  0  0  0  0  0  0  0  0  0  0  0
   37.4290   28.8200   41.1950 C   0  0  0  0  0  0  0  0  0  0  0  0
   36.8300   27.6120   41.3830 N   0  0  0  0  0  0  0  0  0  0  0  0
   38.3380   30.4920   39.7050 C   0  0  0  0  0  0  0  0  0  0  0  0
   39.1160   30.9660   40.5650 O   0  0  0  0  0  0  0  0  0  0  0  0
   37.4270   29.4030   39.8920 N   0  0  0  0  0  0  0  0  0  0  0  0
   36.3880   26.1130   42.8690 H   0  0  0  0  0  0  0  0  0  0  0  0
   37.4530   27.3010   44.6770 H   0  0  0  0  0  0  0  0  0  0  0  0
   38.5220   29.4810   44.2910 H   0  0  0  0  0  0  0  0  0  0  0  0
   36.8240   29.0780   39.1310 H   0  0  0  0  0  0  0  0  0  0  0  0
   38.3770   31.1280   38.3830 C   0  0  0  0  0  0  0  0  0  0  0  0
   37.3920   31.0300   37.4660 N   0  0  0  0  0  0  0  0  0  0  0  0
   37.7370   31.7300   36.3510 C   0  0  0  0  0  0  0  0  0  0  0  0
   37.2160   31.8840   35.4250 H   0  0  0  0  0  0  0  0  0  0  0  0
   38.9610   32.2640   36.6030 N   0  0  0  0  0  0  0  0  0  0  0  0
   39.5900   32.8720   36.0120 H   0  0  0  0  0  0  0  0  0  0  0  0
   39.3340   31.8960   37.8250 N   0  0  0  0  0  0  0  0  0  0  0  0
  1 10  1  0  0  0  0
  1  2  1  0  0  0  0
  2 11  1  0  0  0  0
  3  2  2  0  0  0  0
  3 12  1  0  0  0  0
  4  3  1  0  0  0  0
  5  6  1  0  0  0  0
  5  4  2  0  0  0  0
  6  1  2  0  0  0  0
  7  9  1  0  0  0  0
  7  8  2  0  0  0  0
  9  5  1  0  0  0  0
 13  9  1  0  0  0  0
 14  7  1  0  0  0  0
 15 14  1  0  0  0  0
 16 18  1  0  0  0  0
 16 15  2  0  0  0  0
 17 16  1  0  0  0  0
 18 20  1  0  0  0  0
 19 18  1  0  0  0  0
 20 14  2  0  0  0  0
M  END
>  <minimizedAffinity>
-4.1349206

$$$$

 OpenBabel03242510523D

 20 21  0  0  0  0  0  0  0  0999 V2000
   43.3140   33.7390   40.0170 C   0  0  0  0  0  0  0  0  0  0  0  0
   43.1800   34.1590   38.6760 C   0  0  0  0  0  0  0  0  0  0  0  0
   41.9670   33.9760   38.0210 C   0  0  0  0  0  0  0  0  0  0  0  0
   40.9570   33.3950   38.7170 N   0  0  0  0  0  0  0  0  0  0  0  0
   41.1060   33.0010   39.9960 C   0  0  0  0  0  0  0  0  0  0  0  0
   42.2880   33.1730   40.6490 N   0  0  0  0  0  0  0  0  0  0  0  0
   38.9300   31.9580   39.8530 C   0  0  0  0  0  0  0  0  0  0  0  0
   38.8630   32.0600   38.6060 O   0  0  0  0  0  0  0  0  0  0  0  0
   40.0120   32.3940   40.6840 N   0  0  0  0  0  0  0  0  0  0  0  0
   44.2950   33.9290   40.4220 H   0  0  0  0  0  0  0  0  0  0  0  0
   43.9930   34.6210   38.1330 H   0  0  0  0  0  0  0  0  0  0  0  0
   41.8400   34.2900   36.9930 H   0  0  0  0  0  0  0  0  0  0  0  0
   39.9860   32.2700   41.7000 H   0  0  0  0  0  0  0  0  0  0  0  0
   37.7800   31.3250   40.5090 C   0  0  0  0  0  0  0  0  0  0  0  0
   37.8330   30.1410   41.1550 N   0  0  0  0  0  0  0  0  0  0  0  0
   36.6020   29.8370   41.6490 C   0  0  0  0  0  0  0  0  0  0  0  0
   36.2570   28.9900   42.2120 H   0  0  0  0  0  0  0  0  0  0  0  0
   35.7860   30.8650   41.2920 N   0  0  0  0  0  0  0  0  0  0  0  0
   34.7590   31.0310   41.4700 H   0  0  0  0  0  0  0  0  0  0  0  0
   36.5050   31.7500   40.6090 N   0  0  0  0  0  0  0  0  0  0  0  0
  1 10  1  0  0  0  0
  1  6  1  0  0  0  0
  2  1  2  0  0  0  0
  3  2  1  0  0  0  0
  3  4  2  0  0  0  0
  4  5  1  0  0  0  0
  5  6  2  0  0  0  0
  5  9  1  0  0  0  0
  7 14  1  0  0  0  0
  7  9  1  0  0  0  0
  8  7  2  0  0  0  0
  9 13  1  0  0  0  0
 11  2  1  0  0  0  0
 12  3  1  0  0  0  0
 14 20  2  0  0  0  0
 14 15  1  0  0  0  0
 15 16  2  0  0  0  0
 16 17  1  0  0  0  0
 18 19  1  0  0  0  0
 18 16  1  0  0  0  0
 20 18  1  0  0  0  0
M  END
>  <minimizedAffinity>
-4.009027

$$$$
