
 OpenBabel03242520193D

 33 35  0  0  0  0  0  0  0  0999 V2000
   40.9400   35.7310   39.2230 C   0  0  0  0  0  0  0  0  0  0  0  0
   40.6570   35.2670   38.2460 H   0  0  0  0  0  0  0  0  0  0  0  0
   41.0320   36.8180   39.1210 H   0  0  0  0  0  0  0  0  0  0  0  0
   43.9120   34.6160   41.2790 C   0  0  0  0  0  0  0  0  0  0  0  0
   42.7280   35.2920   40.9060 C   0  0  0  0  0  0  0  0  0  0  0  0
   42.1860   35.0510   39.6550 C   0  0  0  0  0  0  0  0  0  0  0  0
   42.8460   34.1580   38.8490 N   0  0  0  0  0  0  0  0  0  0  0  0
   43.9810   33.5330   39.2540 C   0  0  0  0  0  0  0  0  0  0  0  0
   44.5070   33.7580   40.4540 N   0  0  0  0  0  0  0  0  0  0  0  0
   42.2750   35.9840   41.6090 H   0  0  0  0  0  0  0  0  0  0  0  0
   44.4850   32.8310   38.6020 H   0  0  0  0  0  0  0  0  0  0  0  0
   44.4870   34.8900   42.6230 C   0  0  0  0  0  0  0  0  0  0  0  0
   46.0110   35.2360   42.5510 C   0  0  0  0  0  0  0  0  0  0  0  0
   44.9790   36.1510   43.0450 C   0  0  0  0  0  0  0  0  0  0  0  0
   44.2290   34.0940   43.3450 H   0  0  0  0  0  0  0  0  0  0  0  0
   46.4570   35.3480   41.5500 H   0  0  0  0  0  0  0  0  0  0  0  0
   46.6270   34.6030   43.2150 H   0  0  0  0  0  0  0  0  0  0  0  0
   44.7910   37.0360   42.3710 H   0  0  0  0  0  0  0  0  0  0  0  0
   44.9620   36.4650   44.1020 H   0  0  0  0  0  0  0  0  0  0  0  0
   39.8090   35.4220   40.1840 C   0  0  0  0  0  0  0  0  0  0  0  0
   40.1420   35.6580   41.1950 H   0  0  0  0  0  0  0  0  0  0  0  0
   38.9290   36.0940   39.9750 H   0  0  0  0  0  0  0  0  0  0  0  0
   39.4500   33.2260   41.1770 C   0  0  0  0  0  0  0  0  0  0  0  0
   39.9090   33.5470   42.3080 O   0  0  0  0  0  0  0  0  0  0  0  0
   39.3190   34.0720   40.0420 N   0  0  0  0  0  0  0  0  0  0  0  0
   38.8990   33.7410   39.1680 H   0  0  0  0  0  0  0  0  0  0  0  0
   39.0000   31.8270   41.0080 C   0  0  0  0  0  0  0  0  0  0  0  0
   37.7650   31.3110   41.1620 N   0  0  0  0  0  0  0  0  0  0  0  0
   37.7610   29.9990   40.9180 C   0  0  0  0  0  0  0  0  0  0  0  0
   36.9300   29.3060   40.9560 H   0  0  0  0  0  0  0  0  0  0  0  0
   39.0180   29.6740   40.6030 N   0  0  0  0  0  0  0  0  0  0  0  0
   39.4560   28.7700   40.3450 H   0  0  0  0  0  0  0  0  0  0  0  0
   39.7540   30.7550   40.6560 N   0  0  0  0  0  0  0  0  0  0  0  0
  1  6  1  0  0  0  0
  1 20  1  0  0  0  0
  2  1  1  0  0  0  0
  3  1  1  0  0  0  0
  4 12  1  0  0  0  0
  5  4  1  0  0  0  0
  5 10  1  0  0  0  0
  6  5  2  0  0  0  0
  7  8  2  0  0  0  0
  7  6  1  0  0  0  0
  8  9  1  0  0  0  0
  9  4  2  0  0  0  0
 11  8  1  0  0  0  0
 12 14  1  0  0  0  0
 12 15  1  0  0  0  0
 13 12  1  0  0  0  0
 13 14  1  0  0  0  0
 13 17  1  0  0  0  0
 14 19  1  0  0  0  0
 16 13  1  0  0  0  0
 18 14  1  0  0  0  0
 20 21  1  0  0  0  0
 22 20  1  0  0  0  0
 23 24  2  0  0  0  0
 25 20  1  0  0  0  0
 25 23  1  0  0  0  0
 26 25  1  0  0  0  0
 27 28  1  0  0  0  0
 27 23  1  0  0  0  0
 29 30  1  0  0  0  0
 29 28  2  0  0  0  0
 31 33  1  0  0  0  0
 31 29  1  0  0  0  0
 32 31  1  0  0  0  0
 33 27  2  0  0  0  0
M  END
>  <minimizedAffinity>
-4.58690453

>  <minimizedRMSD>
0.911595047

$$$$
