
     RDKit          3D

 33 35  0  0  0  0  0  0  0  0999 V2000
   43.9827   34.5752   41.2804 C   0  0  0  0  0  0  0  0  0  0  0  0
   42.8255   35.2796   40.8797 C   0  0  0  0  0  0  0  0  0  0  0  0
   42.2898   35.0334   39.6271 C   0  0  0  0  0  0  0  0  0  0  0  0
   42.9305   34.1061   38.8451 N   0  0  0  0  0  0  0  0  0  0  0  0
   44.0417   33.4544   39.2754 C   0  0  0  0  0  0  0  0  0  0  0  0
   44.5610   33.6854   40.4767 N   0  0  0  0  0  0  0  0  0  0  0  0
   44.5506   34.8560   42.6249 C   0  0  0  0  0  0  0  0  0  0  0  0
   46.0546   35.2777   42.5518 C   0  0  0  0  0  0  0  0  0  0  0  0
   44.9821   36.1323   43.0664 C   0  0  0  0  0  0  0  0  0  0  0  0
   41.0703   35.7426   39.1688 C   0  0  0  0  0  0  0  0  0  0  0  0
   39.9722   35.6332   40.2082 C   0  0  0  0  0  0  0  0  0  0  0  0
   39.0521   33.4425   40.7512 C   0  0  0  0  0  0  0  0  0  0  0  0
   39.7810   33.2732   41.7675 O   0  0  0  0  0  0  0  0  0  0  0  0
   39.0290   34.5843   39.9028 N   0  0  0  0  0  0  0  0  0  0  0  0
   42.3845   35.9980   41.5663 H   0  0  0  0  0  0  0  0  0  0  0  0
   44.5316   32.7259   38.6410 H   0  0  0  0  0  0  0  0  0  0  0  0
   44.3356   34.0356   43.3347 H   0  0  0  0  0  0  0  0  0  0  0  0
   46.4898   35.4277   41.5507 H   0  0  0  0  0  0  0  0  0  0  0  0
   46.7049   34.6665   43.2030 H   0  0  0  0  0  0  0  0  0  0  0  0
   44.7469   37.0181   42.4067 H   0  0  0  0  0  0  0  0  0  0  0  0
   44.9550   36.4278   44.1284 H   0  0  0  0  0  0  0  0  0  0  0  0
   40.7081   35.1863   38.2690 H   0  0  0  0  0  0  0  0  0  0  0  0
   41.2283   36.8008   38.9295 H   0  0  0  0  0  0  0  0  0  0  0  0
   40.4359   35.5269   41.1887 H   0  0  0  0  0  0  0  0  0  0  0  0
   39.3738   36.5870   40.2413 H   0  0  0  0  0  0  0  0  0  0  0  0
   38.3775   34.6588   39.1164 H   0  0  0  0  0  0  0  0  0  0  0  0
   38.1239   32.3462   40.3992 C   0  0  0  0  0  0  0  0  0  0  0  0
   38.4064   31.0672   40.0860 N   0  0  0  0  0  0  0  0  0  0  0  0
   37.2909   30.3801   39.8273 C   0  0  0  0  0  0  0  0  0  0  0  0
   37.1861   29.3393   39.5485 H   0  0  0  0  0  0  0  0  0  0  0  0
   36.2796   31.2399   39.9791 N   0  0  0  0  0  0  0  0  0  0  0  0
   35.2536   31.1284   39.8769 H   0  0  0  0  0  0  0  0  0  0  0  0
   36.7707   32.4059   40.3181 N   0  0  0  0  0  0  0  0  0  0  0  0
  1  7  1  0
  2  1  2  0
  3  2  1  0
  4  5  1  0
  4  3  2  0
  5  6  2  0
  6  1  1  0
  7  9  1  0
  8  7  1  0
  8  9  1  0
 10  3  1  0
 10 11  1  0
 12 13  2  0
 14 11  1  0
 14 12  1  0
  2 15  1  0
  5 16  1  0
  7 17  1  0
  8 18  1  0
  8 19  1  0
  9 20  1  0
  9 21  1  0
 10 22  1  0
 10 23  1  0
 11 24  1  0
 11 25  1  0
 14 26  1  0
 27 28  1  0
 28 29  2  0
 29 30  1  0
 29 31  1  0
 31 32  1  0
 31 33  1  0
 33 27  2  0
 12 27  1  0
M  ISO  8  15  14  16  14  17  13  18  13  19  13  20  13  21  13  22   8
M  ISO  5  23   8  24   8  25   8  30  14  32   9
M  END
>  <DihAtoms>  (1) 
12,11,26,27

>  <DihDeg>  (1) 
179.9992161318276

$$$$
