
 OpenBabel03242520193D

 33 35  0  0  0  0  0  0  0  0999 V2000
   40.9930   35.8630   39.3680 C   0  0  0  0  0  0  0  0  0  0  0  0
   40.7220   35.4230   38.3760 H   0  0  0  0  0  0  0  0  0  0  0  0
   41.1230   36.9490   39.2840 H   0  0  0  0  0  0  0  0  0  0  0  0
   43.9170   34.6800   41.4550 C   0  0  0  0  0  0  0  0  0  0  0  0
   42.7680   35.4010   41.0580 C   0  0  0  0  0  0  0  0  0  0  0  0
   42.2050   35.1370   39.8210 C   0  0  0  0  0  0  0  0  0  0  0  0
   42.8120   34.1780   39.0500 N   0  0  0  0  0  0  0  0  0  0  0  0
   43.9160   33.5120   39.4760 C   0  0  0  0  0  0  0  0  0  0  0  0
   44.4610   33.7590   40.6630 N   0  0  0  0  0  0  0  0  0  0  0  0
   42.3560   36.1440   41.7350 H   0  0  0  0  0  0  0  0  0  0  0  0
   44.3780   32.7590   38.8510 H   0  0  0  0  0  0  0  0  0  0  0  0
   44.5150   34.9790   42.7830 C   0  0  0  0  0  0  0  0  0  0  0  0
   46.0400   35.3080   42.6800 C   0  0  0  0  0  0  0  0  0  0  0  0
   45.0250   36.2440   43.1690 C   0  0  0  0  0  0  0  0  0  0  0  0
   44.2600   34.2020   43.5260 H   0  0  0  0  0  0  0  0  0  0  0  0
   46.4730   35.3930   41.6700 H   0  0  0  0  0  0  0  0  0  0  0  0
   46.6600   34.6850   43.3500 H   0  0  0  0  0  0  0  0  0  0  0  0
   44.8350   37.1160   42.4770 H   0  0  0  0  0  0  0  0  0  0  0  0
   45.0270   36.5820   44.2190 H   0  0  0  0  0  0  0  0  0  0  0  0
   39.8270   35.5780   40.2940 C   0  0  0  0  0  0  0  0  0  0  0  0
   40.1900   35.6030   41.3220 H   0  0  0  0  0  0  0  0  0  0  0  0
   39.0570   36.3950   40.2090 H   0  0  0  0  0  0  0  0  0  0  0  0
   39.2400   33.2920   40.8990 C   0  0  0  0  0  0  0  0  0  0  0  0
   39.8230   33.3270   42.0180 O   0  0  0  0  0  0  0  0  0  0  0  0
   39.1450   34.3520   39.9570 N   0  0  0  0  0  0  0  0  0  0  0  0
   38.6180   34.2520   39.0830 H   0  0  0  0  0  0  0  0  0  0  0  0
   38.5880   32.0190   40.5230 C   0  0  0  0  0  0  0  0  0  0  0  0
   37.9090   31.1540   41.3010 N   0  0  0  0  0  0  0  0  0  0  0  0
   37.4680   30.1140   40.5880 C   0  0  0  0  0  0  0  0  0  0  0  0
   36.8950   29.2590   40.9220 H   0  0  0  0  0  0  0  0  0  0  0  0
   37.8740   30.3230   39.3320 N   0  0  0  0  0  0  0  0  0  0  0  0
   37.7500   29.7710   38.4630 H   0  0  0  0  0  0  0  0  0  0  0  0
   38.5380   31.4520   39.2910 N   0  0  0  0  0  0  0  0  0  0  0  0
  1  6  1  0  0  0  0
  1 20  1  0  0  0  0
  2  1  1  0  0  0  0
  3  1  1  0  0  0  0
  4 12  1  0  0  0  0
  5  4  1  0  0  0  0
  5 10  1  0  0  0  0
  6  5  2  0  0  0  0
  7  8  2  0  0  0  0
  7  6  1  0  0  0  0
  8  9  1  0  0  0  0
  9  4  2  0  0  0  0
 11  8  1  0  0  0  0
 12 14  1  0  0  0  0
 12 15  1  0  0  0  0
 13 12  1  0  0  0  0
 13 14  1  0  0  0  0
 13 17  1  0  0  0  0
 14 19  1  0  0  0  0
 16 13  1  0  0  0  0
 18 14  1  0  0  0  0
 20 21  1  0  0  0  0
 22 20  1  0  0  0  0
 23 24  2  0  0  0  0
 25 20  1  0  0  0  0
 25 23  1  0  0  0  0
 26 25  1  0  0  0  0
 27 23  1  0  0  0  0
 27 28  1  0  0  0  0
 29 30  1  0  0  0  0
 29 28  2  0  0  0  0
 31 29  1  0  0  0  0
 32 31  1  0  0  0  0
 33 31  1  0  0  0  0
 33 27  2  0  0  0  0
M  END
>  <minimizedAffinity>
-4.77940035

>  <minimizedRMSD>
0.524773657

$$$$
