
     RDKit          3D

 27 28  0  0  0  0  0  0  0  0999 V2000
   46.2662   34.7473   43.2493 C   0  0  0  0  0  0  0  0  0  0  0  0
   45.3042   35.7456   43.5871 C   0  0  0  0  0  0  0  0  0  0  0  0
   44.6595   35.5735   44.8115 C   0  0  0  0  0  0  0  0  0  0  0  0
   44.9756   34.5028   45.5813 N   0  0  0  0  0  0  0  0  0  0  0  0
   45.9172   33.5849   45.1790 C   0  0  0  0  0  0  0  0  0  0  0  0
   46.5668   33.6826   44.0358 N   0  0  0  0  0  0  0  0  0  0  0  0
   46.2188   32.4323   46.0793 C   0  0  1  0  0  0  0  0  0  0  0  0
   47.0302   32.6767   47.3294 C   0  0  0  0  0  0  0  0  0  0  0  0
   45.5385   32.4858   47.3925 C   0  0  1  0  0  0  0  0  0  0  0  0
   44.8582   33.7194   47.7985 N   0  0  0  0  0  0  0  0  0  0  0  0
   46.9363   34.9363   41.9742 C   0  0  0  0  0  0  0  0  0  0  0  0
   48.0634   35.5328   41.8502 O   0  0  0  0  0  0  0  0  0  0  0  0
   45.1245   36.5602   42.9047 H   0  0  0  0  0  0  0  0  0  0  0  0
   43.9228   36.3059   45.1086 H   0  0  0  0  0  0  0  0  0  0  0  0
   46.4138   31.5060   45.5257 H   0  0  0  0  0  0  0  0  0  0  0  0
   47.6972   31.8626   47.6204 H   0  0  0  0  0  0  0  0  0  0  0  0
   47.4889   33.6717   47.3780 H   0  0  0  0  0  0  0  0  0  0  0  0
   45.2000   31.5213   47.7895 H   0  0  0  0  0  0  0  0  0  0  0  0
   43.8318   33.5559   47.7655 H   0  0  0  0  0  0  0  0  0  0  0  0
   45.1652   34.0135   48.7622 H   0  0  0  0  0  0  0  0  0  0  0  0
   46.2739   34.4148   40.8077 N   0  0  0  0  0  0  0  0  0  0  0  0
   45.8516   33.4442   40.8281 H   0  0  0  0  0  0  0  0  0  0  0  0
   46.1605   35.3658   39.3619 S   0  0  0  0  0  0  0  0  0  0  0  0
   47.5546   35.6718   38.8870 O   0  0  0  0  0  0  0  0  0  0  0  0
   45.4006   36.6323   39.6931 O   0  0  0  0  0  0  0  0  0  0  0  0
   45.3437   34.5116   38.1765 O   0  0  0  0  0  0  0  0  0  0  0  0
   45.9668   33.9004   37.6857 H   0  0  0  0  0  0  0  0  0  0  0  0
  1  2  2  0
  1  6  1  0
  2  3  1  0
  3  4  2  0
  5  4  1  0
  5  7  1  0
  6  5  2  0
  7  8  1  0
  7  9  1  0
  8  9  1  0
  9 10  1  0
 11  1  1  0
 12 11  2  0
  2 13  1  0
  3 14  1  0
  7 15  1  6
  8 16  1  0
  8 17  1  0
  9 18  1  1
 10 19  1  0
 10 20  1  0
 21 22  1  0
 21 23  1  0
 23 24  2  0
 23 25  2  0
 23 26  1  0
 26 27  1  0
 11 21  1  0
M  ISO  8  13  14  14  14  15  13  16  13  17  13  18  13  19   5  20   5
M  ISO  2  22   5  27   3
M  END
>  <DihAtoms>  (1) 
0,10,20,21

>  <DihDeg>  (1) 
0.0005504744302406949

$$$$
