
 OpenBabel03252507373D

 36 39  0  0  0  0  0  0  0  0999 V2000
   45.2510   34.9120   43.6590 C   0  0  0  0  0  0  0  0  0  0  0  0
   45.9860   33.8010   44.1360 C   0  0  0  0  0  0  0  0  0  0  0  0
   45.9130   33.5220   45.4880 C   0  0  0  0  0  0  0  0  0  0  0  0
   45.1570   34.3090   46.2820 N   0  0  0  0  0  0  0  0  0  0  0  0
   44.4570   35.3730   45.8010 C   0  0  0  0  0  0  0  0  0  0  0  0
   44.5110   35.6610   44.5090 N   0  0  0  0  0  0  0  0  0  0  0  0
   46.5870   33.1720   43.5290 H   0  0  0  0  0  0  0  0  0  0  0  0
   43.8760   35.9440   46.5290 H   0  0  0  0  0  0  0  0  0  0  0  0
   47.0040   32.5860   47.4560 C   0  0  0  0  0  0  0  0  0  0  0  0
   46.6080   32.4180   46.1350 C   0  0  0  0  0  0  0  0  0  0  0  0
   46.8880   31.2220   45.5180 C   0  0  0  0  0  0  0  0  0  0  0  0
   47.5450   30.1950   46.1590 C   0  0  0  0  0  0  0  0  0  0  0  0
   47.9180   28.9550   45.7560 N   0  0  0  0  0  0  0  0  0  0  0  0
   48.5470   28.3520   46.8210 C   0  0  0  0  0  0  0  0  0  0  0  0
   48.5480   29.2150   47.8420 N   0  0  0  0  0  0  0  0  0  0  0  0
   47.9390   30.3540   47.4630 C   0  0  0  0  0  0  0  0  0  0  0  0
   47.6700   31.5420   48.1050 C   0  0  0  0  0  0  0  0  0  0  0  0
   46.8500   33.4570   48.0490 H   0  0  0  0  0  0  0  0  0  0  0  0
   46.5800   31.0920   44.4940 H   0  0  0  0  0  0  0  0  0  0  0  0
   47.7280   28.5900   44.7890 H   0  0  0  0  0  0  0  0  0  0  0  0
   48.9160   27.3400   46.6730 H   0  0  0  0  0  0  0  0  0  0  0  0
   47.9940   31.6360   49.1320 H   0  0  0  0  0  0  0  0  0  0  0  0
   45.3200   35.1980   42.2960 O   0  0  0  0  0  0  0  0  0  0  0  0
   44.2860   34.8310   41.4520 C   0  0  0  0  0  0  0  0  0  0  0  0
   44.9410   34.0610   40.5530 C   0  0  0  0  0  0  0  0  0  0  0  0
   43.5170   33.5490   39.3830 S   0  0  0  0  0  0  0  0  0  0  0  0
   42.3200   34.5510   40.4450 C   0  0  0  0  0  0  0  0  0  0  0  0
   43.0010   34.9450   41.2180 N   0  0  0  0  0  0  0  0  0  0  0  0
   45.8910   33.5610   40.1330 H   0  0  0  0  0  0  0  0  0  0  0  0
   40.9460   34.5520   40.0220 N   0  0  0  0  0  0  0  0  0  0  0  0
   40.1340   34.6460   40.6660 H   0  0  0  0  0  0  0  0  0  0  0  0
   40.6680   34.3860   38.3540 S   0  0  0  0  0  0  0  0  0  0  0  0
   40.9870   33.0140   37.8390 O   0  0  0  0  0  1  0  0  0  0  0  0
   39.2080   34.6740   38.0350 O   0  0  0  0  0  1  0  0  0  0  0  0
   41.5570   35.4820   37.4400 O   0  0  0  0  0  0  0  0  0  0  0  0
   41.7920   36.2930   37.9540 H   0  0  0  0  0  0  0  0  0  0  0  0
  1  2  2  0  0  0  0
  1  6  1  0  0  0  0
  2  3  1  0  0  0  0
  3 10  1  0  0  0  0
  3  4  2  0  0  0  0
  5  4  1  0  0  0  0
  5  8  1  0  0  0  0
  6  5  2  0  0  0  0
  7  2  1  0  0  0  0
  9 18  1  0  0  0  0
  9 17  1  0  0  0  0
 10  9  2  0  0  0  0
 11 10  1  0  0  0  0
 11 12  2  0  0  0  0
 12 16  1  0  0  0  0
 13 12  1  0  0  0  0
 13 14  1  0  0  0  0
 14 15  2  0  0  0  0
 16 15  1  0  0  0  0
 16 17  2  0  0  0  0
 17 22  1  0  0  0  0
 19 11  1  0  0  0  0
 20 13  1  0  0  0  0
 21 14  1  0  0  0  0
 23  1  1  0  0  0  0
 24 23  1  0  0  0  0
 25 24  2  0  0  0  0
 26 27  1  0  0  0  0
 26 25  1  0  0  0  0
 27 28  2  0  0  0  0
 28 24  1  0  0  0  0
 29 25  1  0  0  0  0
 30 27  1  0  0  0  0
 30 31  1  0  0  0  0
 32 30  1  0  0  0  0
 33 32  1  0  0  0  0
 34 32  1  0  0  0  0
 35 36  1  0  0  0  0
 35 32  1  0  0  0  0
M  END
>  <minimizedAffinity>
-6.15181923

>  <minimizedRMSD>
0.663046479

$$$$
