
 OpenBabel03252508003D

 27 28  0  0  1  0  0  0  0  0999 V2000
   46.4680   34.6860   43.1710 C   0  0  0  0  0  0  0  0  0  0  0  0
   45.4920   35.7140   43.3390 C   0  0  0  0  0  0  0  0  0  0  0  0
   44.7100   35.6220   44.4910 C   0  0  0  0  0  0  0  0  0  0  0  0
   44.9180   34.5950   45.3510 N   0  0  0  0  0  0  0  0  0  0  0  0
   45.8820   33.6440   45.1120 C   0  0  0  0  0  0  0  0  0  0  0  0
   46.6590   33.6670   44.0470 N   0  0  0  0  0  0  0  0  0  0  0  0
   45.4040   36.4880   42.5960 H   0  0  0  0  0  0  0  0  0  0  0  0
   43.9570   36.3780   44.6590 H   0  0  0  0  0  0  0  0  0  0  0  0
   46.0600   32.5430   46.1050 C   0  0  1  0  0  0  0  0  0  0  0  0
   46.7950   32.8340   47.3920 C   0  0  0  0  0  0  0  0  0  0  0  0
   45.2940   32.7210   47.3600 C   0  0  1  0  0  0  0  0  0  0  0  0
   46.2420   31.5730   45.6300 H   0  0  0  0  0  0  0  0  0  0  0  0
   47.3960   32.0110   47.7830 H   0  0  0  0  0  0  0  0  0  0  0  0
   47.3020   33.8070   47.4080 H   0  0  0  0  0  0  0  0  0  0  0  0
   44.8790   31.8030   47.7940 H   0  0  0  0  0  0  0  0  0  0  0  0
   44.6550   34.0110   47.6340 N   0  0  0  0  0  0  0  0  0  0  0  0
   43.6270   33.8960   47.5390 H   0  0  0  0  0  0  0  0  0  0  0  0
   44.9110   34.3570   48.5960 H   0  0  0  0  0  0  0  0  0  0  0  0
   47.2810   34.7930   41.9720 C   0  0  0  0  0  0  0  0  0  0  0  0
   48.3770   35.4550   41.9190 O   0  0  0  0  0  0  0  0  0  0  0  0
   46.8050   34.1080   40.8000 N   0  0  0  0  0  0  0  0  0  0  0  0
   45.8040   33.7640   40.7580 H   0  0  0  0  0  0  0  0  0  0  0  0
   47.8580   33.8390   39.4490 S   0  0  0  0  0  0  0  0  0  0  0  0
   48.8870   32.8160   39.8480 O   0  0  0  0  0  1  0  0  0  0  0  0
   48.5050   35.1590   39.0890 O   0  0  0  0  0  1  0  0  0  0  0  0
   46.9810   33.2670   38.1430 O   0  0  0  0  0  0  0  0  0  0  0  0
   46.8610   32.2740   38.2040 H   0  0  0  0  0  0  0  0  0  0  0  0
  1  2  2  0  0  0  0
  1  6  1  0  0  0  0
  2  3  1  0  0  0  0
  3  8  1  0  0  0  0
  3  4  2  0  0  0  0
  5  4  1  0  0  0  0
  5  9  1  0  0  0  0
  6  5  2  0  0  0  0
  7  2  1  0  0  0  0
  9 12  1  6  0  0  0
  9 11  1  0  0  0  0
  9 10  1  0  0  0  0
 10 14  1  0  0  0  0
 10 13  1  0  0  0  0
 11 10  1  0  0  0  0
 11 16  1  0  0  0  0
 11 15  1  1  0  0  0
 16 18  1  0  0  0  0
 17 16  1  0  0  0  0
 19  1  1  0  0  0  0
 20 19  2  0  0  0  0
 21 19  1  0  0  0  0
 22 21  1  0  0  0  0
 23 24  1  0  0  0  0
 23 21  1  0  0  0  0
 25 23  1  0  0  0  0
 26 27  1  0  0  0  0
 26 23  1  0  0  0  0
M  END
>  <minimizedAffinity>
-5.22446871

>  <minimizedRMSD>
0.519881904

$$$$
