
     RDKit          3D

 22 22  0  0  0  0  0  0  0  0999 V2000
   45.2990   34.5656   45.0372 C   0  0  0  0  0  0  0  0  0  0  0  0
   45.2642   33.9383   46.2710 C   0  0  0  0  0  0  0  0  0  0  0  0
   46.1677   32.9018   46.4731 C   0  0  0  0  0  0  0  0  0  0  0  0
   47.0038   32.5826   45.4692 N   0  0  0  0  0  0  0  0  0  0  0  0
   47.0190   33.2018   44.2881 C   0  0  0  0  0  0  0  0  0  0  0  0
   46.1588   34.2140   44.0482 N   0  0  0  0  0  0  0  0  0  0  0  0
   43.9738   35.3833   43.2893 C   0  0  0  0  0  0  0  0  0  0  0  0
   44.4038   34.2789   42.8479 O   0  0  0  0  0  0  0  0  0  0  0  0
   44.4567   35.6579   44.6144 N   0  0  0  0  0  0  0  0  0  0  0  0
   44.3072   34.4269   47.1908 N   0  0  0  0  0  0  0  0  0  0  0  0
   46.1235   32.4331   47.4297 H   0  0  0  0  0  0  0  0  0  0  0  0
   47.6817   32.9625   43.4667 H   0  0  0  0  0  0  0  0  0  0  0  0
   44.1990   36.5122   45.1102 H   0  0  0  0  0  0  0  0  0  0  0  0
   44.4489   35.1465   47.9073 H   0  0  0  0  0  0  0  0  0  0  0  0
   43.3191   34.0631   47.2058 H   0  0  0  0  0  0  0  0  0  0  0  0
   43.1075   36.3040   42.6108 N   0  0  0  0  0  0  0  0  0  0  0  0
   42.6480   37.0522   43.1863 H   0  0  0  0  0  0  0  0  0  0  0  0
   42.9061   36.0940   40.9257 S   0  0  0  0  0  0  0  0  0  0  0  0
   42.2053   34.7748   40.6558 O   0  0  0  0  0  0  0  0  0  0  0  0
   44.1864   36.1764   40.1509 O   0  0  0  0  0  0  0  0  0  0  0  0
   41.8567   37.2829   40.3700 O   0  0  0  0  0  0  0  0  0  0  0  0
   41.2079   37.4442   41.1022 H   0  0  0  0  0  0  0  0  0  0  0  0
  1  2  2  0
  2  3  1  0
  2 10  1  0
  4  3  2  0
  5  4  1  0
  6  5  2  0
  6  1  1  0
  7  9  1  0
  8  7  2  0
  9  1  1  0
  3 11  1  0
  5 12  1  0
  9 13  1  0
 10 14  1  0
 10 15  1  0
 16 17  1  0
 16 18  1  0
 18 19  2  0
 18 20  2  0
 18 21  1  0
 21 22  1  0
  7 16  1  0
M  ISO  4  11  14  12  14  17   5  22   3
M  END
>  <DihAtoms>  (1) 
8,6,15,16

>  <DihDeg>  (1) 
-5.1622698552558905e-05

$$$$
