
 OpenBabel03242516543D

 43 45  0  0  1  0  0  0  0  0999 V2000
   47.6210   32.5750   41.3330 C   0  0  1  0  0  0  0  0  0  0  0  0
   47.0290   31.9400   40.1570 C   0  0  0  0  0  0  0  0  0  0  0  0
   47.9480   32.2730   38.9840 C   0  0  0  0  0  0  0  0  0  0  0  0
   47.7800   33.7620   38.7120 C   0  0  0  0  0  0  0  0  0  0  0  0
   48.0080   34.6340   39.9090 C   0  0  0  0  0  0  0  0  0  0  0  0
   47.6240   34.1030   41.2230 C   0  0  1  0  0  0  0  0  0  0  0  0
   48.7290   32.3350   41.3530 H   0  0  0  0  0  0  0  0  0  0  0  0
   46.0400   32.3720   39.8590 H   0  0  0  0  0  0  0  0  0  0  0  0
   47.0100   30.8560   40.2550 H   0  0  0  0  0  0  0  0  0  0  0  0
   47.4940   31.7530   38.1030 H   0  0  0  0  0  0  0  0  0  0  0  0
   48.9810   31.9870   39.1800 H   0  0  0  0  0  0  0  0  0  0  0  0
   48.4460   34.0410   37.8860 H   0  0  0  0  0  0  0  0  0  0  0  0
   46.7310   33.8830   38.3490 H   0  0  0  0  0  0  0  0  0  0  0  0
   49.0860   34.9690   39.8730 H   0  0  0  0  0  0  0  0  0  0  0  0
   47.4330   35.5680   39.7230 H   0  0  0  0  0  0  0  0  0  0  0  0
   48.4060   34.4360   41.9710 H   0  0  0  0  0  0  0  0  0  0  0  0
   45.3440   31.0340   43.9260 C   0  0  0  0  0  0  0  0  0  0  0  0
   45.9170   31.4460   42.7180 C   0  0  0  0  0  0  0  0  0  0  0  0
   47.1010   32.1840   42.6260 C   0  0  0  0  0  0  0  0  0  0  0  0
   47.6790   32.4900   43.7880 N   0  0  0  0  0  0  0  0  0  0  0  0
   47.1380   32.1000   44.9710 C   0  0  0  0  0  0  0  0  0  0  0  0
   46.0120   31.3970   45.0610 N   0  0  0  0  0  0  0  0  0  0  0  0
   44.4330   30.4690   43.9200 H   0  0  0  0  0  0  0  0  0  0  0  0
   45.3840   31.1550   41.8220 H   0  0  0  0  0  0  0  0  0  0  0  0
   47.7090   32.4150   45.8480 H   0  0  0  0  0  0  0  0  0  0  0  0
   46.3730   34.6810   41.7150 C   0  0  0  0  0  0  0  0  0  0  0  0
   46.2230   35.4660   42.8680 C   0  0  0  0  0  0  0  0  0  0  0  0
   44.9280   35.9230   43.1280 C   0  0  0  0  0  0  0  0  0  0  0  0
   43.9260   35.5730   42.2500 C   0  0  0  0  0  0  0  0  0  0  0  0
   44.0950   34.8010   41.1230 C   0  0  0  0  0  0  0  0  0  0  0  0
   45.3580   34.3560   40.8720 N   0  0  0  0  0  0  0  0  0  0  0  0
   47.0910   35.6460   43.4390 H   0  0  0  0  0  0  0  0  0  0  0  0
   44.7930   36.5280   44.0090 H   0  0  0  0  0  0  0  0  0  0  0  0
   42.9450   35.9680   42.5200 H   0  0  0  0  0  0  0  0  0  0  0  0
   42.9660   34.4830   40.2380 C   0  0  0  0  0  0  0  0  0  0  0  0
   42.7840   35.2100   39.2260 O   0  0  0  0  0  0  0  0  0  0  0  0
   42.0960   33.3880   40.5090 N   0  0  0  0  0  0  0  0  0  0  0  0
   42.3350   32.8520   41.3720 H   0  0  0  0  0  0  0  0  0  0  0  0
   40.8340   33.1900   39.3470 S   0  0  0  0  0  0  0  0  0  0  0  0
   39.9270   34.3820   39.3040 O   0  0  0  0  0  1  0  0  0  0  0  0
   41.3570   32.8530   37.9780 O   0  0  0  0  0  1  0  0  0  0  0  0
   39.9360   31.8350   39.8480 O   0  0  0  0  0  0  0  0  0  0  0  0
   40.3260   31.0030   39.4780 H   0  0  0  0  0  0  0  0  0  0  0  0
  1  7  1  1  0  0  0
  1 19  1  0  0  0  0
  2  9  1  0  0  0  0
  2  1  1  0  0  0  0
  3 11  1  0  0  0  0
  3  2  1  0  0  0  0
  4  3  1  0  0  0  0
  4  5  1  0  0  0  0
  5  6  1  0  0  0  0
  6  1  1  0  0  0  0
  6 26  1  0  0  0  0
  6 16  1  1  0  0  0
  8  2  1  0  0  0  0
 10  3  1  0  0  0  0
 12  4  1  0  0  0  0
 13  4  1  0  0  0  0
 14  5  1  0  0  0  0
 15  5  1  0  0  0  0
 17 22  1  0  0  0  0
 18 17  2  0  0  0  0
 19 18  1  0  0  0  0
 19 20  2  0  0  0  0
 20 21  1  0  0  0  0
 21 22  2  0  0  0  0
 21 25  1  0  0  0  0
 23 17  1  0  0  0  0
 24 18  1  0  0  0  0
 26 27  1  0  0  0  0
 27 28  2  0  0  0  0
 27 32  1  0  0  0  0
 28 33  1  0  0  0  0
 29 34  1  0  0  0  0
 29 28  1  0  0  0  0
 30 29  2  0  0  0  0
 31 30  1  0  0  0  0
 31 26  2  0  0  0  0
 35 37  1  0  0  0  0
 35 30  1  0  0  0  0
 36 35  2  0  0  0  0
 37 38  1  0  0  0  0
 39 42  1  0  0  0  0
 39 37  1  0  0  0  0
 40 39  1  0  0  0  0
 41 39  1  0  0  0  0
 43 42  1  0  0  0  0
M  END
>  <minimizedAffinity>
-5.28923321

>  <minimizedRMSD>
1.1518966

$$$$
