
 OpenBabel03242516543D

 43 45  0  0  1  0  0  0  0  0999 V2000
   47.8690   32.9280   41.8060 C   0  0  1  0  0  0  0  0  0  0  0  0
   47.5540   32.1800   40.5900 C   0  0  0  0  0  0  0  0  0  0  0  0
   48.5740   32.6190   39.5430 C   0  0  0  0  0  0  0  0  0  0  0  0
   48.2290   34.0570   39.1790 C   0  0  0  0  0  0  0  0  0  0  0  0
   48.1500   34.9840   40.3530 C   0  0  0  0  0  0  0  0  0  0  0  0
   47.6620   34.4350   41.6240 C   0  0  1  0  0  0  0  0  0  0  0  0
   48.9850   32.8600   41.9920 H   0  0  0  0  0  0  0  0  0  0  0  0
   46.5660   32.4470   40.1370 H   0  0  0  0  0  0  0  0  0  0  0  0
   47.6810   31.1090   40.7360 H   0  0  0  0  0  0  0  0  0  0  0  0
   48.3350   32.0140   38.6320 H   0  0  0  0  0  0  0  0  0  0  0  0
   49.5980   32.4990   39.8940 H   0  0  0  0  0  0  0  0  0  0  0  0
   48.9600   34.4130   38.4420 H   0  0  0  0  0  0  0  0  0  0  0  0
   47.2380   34.0070   38.6680 H   0  0  0  0  0  0  0  0  0  0  0  0
   49.1600   35.4790   40.4520 H   0  0  0  0  0  0  0  0  0  0  0  0
   47.4770   35.8150   40.0450 H   0  0  0  0  0  0  0  0  0  0  0  0
   48.2690   34.9030   42.4580 H   0  0  0  0  0  0  0  0  0  0  0  0
   45.5330   31.0780   44.1300 C   0  0  0  0  0  0  0  0  0  0  0  0
   46.2060   31.5440   42.9960 C   0  0  0  0  0  0  0  0  0  0  0  0
   47.2300   32.4960   43.0310 C   0  0  0  0  0  0  0  0  0  0  0  0
   47.5460   32.9550   44.2420 N   0  0  0  0  0  0  0  0  0  0  0  0
   46.9040   32.5150   45.3550 C   0  0  0  0  0  0  0  0  0  0  0  0
   45.9300   31.6100   45.3240 N   0  0  0  0  0  0  0  0  0  0  0  0
   44.7570   30.3460   44.0280 H   0  0  0  0  0  0  0  0  0  0  0  0
   45.8860   31.1190   42.0530 H   0  0  0  0  0  0  0  0  0  0  0  0
   47.2580   32.9710   46.2830 H   0  0  0  0  0  0  0  0  0  0  0  0
   46.2810   34.8280   41.9090 C   0  0  0  0  0  0  0  0  0  0  0  0
   45.8490   35.5930   43.0020 C   0  0  0  0  0  0  0  0  0  0  0  0
   44.4770   35.8580   43.0550 C   0  0  0  0  0  0  0  0  0  0  0  0
   43.6790   35.3540   42.0510 C   0  0  0  0  0  0  0  0  0  0  0  0
   44.1240   34.6040   40.9860 C   0  0  0  0  0  0  0  0  0  0  0  0
   45.4620   34.3480   40.9380 N   0  0  0  0  0  0  0  0  0  0  0  0
   46.5870   35.9050   43.6880 H   0  0  0  0  0  0  0  0  0  0  0  0
   44.1260   36.4450   43.8870 H   0  0  0  0  0  0  0  0  0  0  0  0
   42.6220   35.6030   42.1620 H   0  0  0  0  0  0  0  0  0  0  0  0
   43.1980   34.1140   39.9560 C   0  0  0  0  0  0  0  0  0  0  0  0
   42.7130   34.9510   39.1500 O   0  0  0  0  0  0  0  0  0  0  0  0
   42.8510   32.7350   39.8660 N   0  0  0  0  0  0  0  0  0  0  0  0
   42.3940   32.3490   40.7210 H   0  0  0  0  0  0  0  0  0  0  0  0
   43.2650   32.0060   38.3570 S   0  0  0  0  0  0  0  0  0  0  0  0
   42.0760   31.8910   37.4500 O   0  0  0  0  0  1  0  0  0  0  0  0
   44.4060   32.7050   37.6710 O   0  0  0  0  0  1  0  0  0  0  0  0
   43.8290   30.4430   38.7220 O   0  0  0  0  0  0  0  0  0  0  0  0
   44.8010   30.4600   38.9140 H   0  0  0  0  0  0  0  0  0  0  0  0
  1  7  1  1  0  0  0
  1 19  1  0  0  0  0
  2  9  1  0  0  0  0
  2  1  1  0  0  0  0
  3 11  1  0  0  0  0
  3  2  1  0  0  0  0
  4  3  1  0  0  0  0
  4  5  1  0  0  0  0
  5 14  1  0  0  0  0
  5  6  1  0  0  0  0
  6  1  1  0  0  0  0
  6 26  1  0  0  0  0
  6 16  1  1  0  0  0
  8  2  1  0  0  0  0
 10  3  1  0  0  0  0
 12  4  1  0  0  0  0
 13  4  1  0  0  0  0
 15  5  1  0  0  0  0
 17 22  1  0  0  0  0
 18 19  1  0  0  0  0
 18 17  2  0  0  0  0
 19 20  2  0  0  0  0
 20 21  1  0  0  0  0
 21 25  1  0  0  0  0
 22 21  2  0  0  0  0
 23 17  1  0  0  0  0
 24 18  1  0  0  0  0
 26 27  1  0  0  0  0
 27 28  2  0  0  0  0
 27 32  1  0  0  0  0
 28 33  1  0  0  0  0
 29 34  1  0  0  0  0
 29 28  1  0  0  0  0
 30 29  2  0  0  0  0
 31 30  1  0  0  0  0
 31 26  2  0  0  0  0
 35 30  1  0  0  0  0
 36 35  2  0  0  0  0
 37 35  1  0  0  0  0
 37 38  1  0  0  0  0
 39 42  1  0  0  0  0
 39 37  1  0  0  0  0
 40 39  1  0  0  0  0
 41 39  1  0  0  0  0
 42 43  1  0  0  0  0
M  END
>  <minimizedAffinity>
-5.14486742

>  <minimizedRMSD>
0.698478222

$$$$
