
 OpenBabel03252501053D

 38 40  0  0  1  0  0  0  0  0999 V2000
   48.6140   32.3630   38.1500 O   0  0  0  0  0  0  0  0  0  0  0  0
   48.0930   33.7950   38.2720 P   0  0  2  0  0  0  0  0  0  0  0  0
   49.2850   34.7700   37.5700 O   0  0  0  0  0  0  0  0  0  0  0  0
   49.2350   34.7680   36.5880 H   0  0  0  0  0  0  0  0  0  0  0  0
   47.7000   34.1870   39.8100 O   0  0  0  0  0  0  0  0  0  0  0  0
   48.1030   35.4610   41.8300 C   0  0  1  0  0  0  0  0  0  0  0  0
   49.3150   34.6480   41.6660 C   0  0  0  0  0  0  0  0  0  0  0  0
   48.4640   35.0900   40.4630 C   0  0  1  0  0  0  0  0  0  0  0  0
   48.1050   36.5400   42.1120 H   0  0  0  0  0  0  0  0  0  0  0  0
   50.2680   35.1740   41.8690 H   0  0  0  0  0  0  0  0  0  0  0  0
   49.2780   33.5610   41.8350 H   0  0  0  0  0  0  0  0  0  0  0  0
   49.0380   35.7980   39.8380 H   0  0  0  0  0  0  0  0  0  0  0  0
   46.0400   32.9650   43.7940 C   0  0  0  0  0  0  0  0  0  0  0  0
   47.1410   33.6260   43.2610 C   0  0  0  0  0  0  0  0  0  0  0  0
   46.9270   34.7400   42.4290 C   0  0  0  0  0  0  0  0  0  0  0  0
   45.6560   35.1400   42.1690 N   0  0  0  0  0  0  0  0  0  0  0  0
   44.5990   34.4740   42.7050 C   0  0  0  0  0  0  0  0  0  0  0  0
   44.7930   33.3870   43.5160 N   0  0  0  0  0  0  0  0  0  0  0  0
   46.2200   32.1110   44.4310 H   0  0  0  0  0  0  0  0  0  0  0  0
   48.1100   33.2650   43.5030 H   0  0  0  0  0  0  0  0  0  0  0  0
   43.6130   34.8510   42.4530 H   0  0  0  0  0  0  0  0  0  0  0  0
   46.7500   33.8520   37.2670 O   0  0  0  0  0  0  0  0  0  0  0  0
   45.6790   32.9650   37.3380 C   0  0  0  0  0  0  0  0  0  0  0  0
   45.5650   31.7150   36.7630 C   0  0  0  0  0  0  0  0  0  0  0  0
   44.4550   30.9510   36.9160 C   0  0  0  0  0  0  0  0  0  0  0  0
   43.4080   31.4220   37.6610 C   0  0  0  0  0  0  0  0  0  0  0  0
   43.5500   32.6800   38.2260 C   0  0  0  0  0  0  0  0  0  0  0  0
   44.6650   33.4250   38.0620 N   0  0  0  0  0  0  0  0  0  0  0  0
   46.4390   31.4110   36.1860 H   0  0  0  0  0  0  0  0  0  0  0  0
   44.4420   29.9810   36.4320 H   0  0  0  0  0  0  0  0  0  0  0  0
   42.5430   30.8160   37.7730 H   0  0  0  0  0  0  0  0  0  0  0  0
   42.5220   33.2540   39.0130 N   0  0  0  0  0  0  0  0  0  0  0  0
   42.0550   34.1350   38.7850 H   0  0  0  0  0  0  0  0  0  0  0  0
   41.7110   32.8320   40.4600 S   0  0  0  0  0  0  0  0  0  0  0  0
   41.4110   34.0380   41.3330 O   0  0  0  0  0  1  0  0  0  0  0  0
   42.5940   31.9300   41.2690 O   0  0  0  0  0  1  0  0  0  0  0  0
   40.2600   32.0340   40.0800 O   0  0  0  0  0  0  0  0  0  0  0  0
   39.6210   32.2860   40.7930 H   0  0  0  0  0  0  0  0  0  0  0  0
  2  1  2  1  0  0  0
  2  5  1  0  0  0  0
  3  2  1  0  0  0  0
  4  3  1  0  0  0  0
  5  8  1  0  0  0  0
  6  9  1  1  0  0  0
  6 15  1  0  0  0  0
  7  6  1  0  0  0  0
  7 11  1  0  0  0  0
  7 10  1  0  0  0  0
  8 12  1  6  0  0  0
  8  7  1  0  0  0  0
  8  6  1  0  0  0  0
 13 19  1  0  0  0  0
 14 20  1  0  0  0  0
 14 13  2  0  0  0  0
 15 14  1  0  0  0  0
 16 15  2  0  0  0  0
 16 17  1  0  0  0  0
 17 18  2  0  0  0  0
 18 13  1  0  0  0  0
 21 17  1  0  0  0  0
 22 23  1  0  0  0  0
 22  2  1  0  0  0  0
 23 28  1  0  0  0  0
 24 25  1  0  0  0  0
 24 23  2  0  0  0  0
 25 26  2  0  0  0  0
 26 31  1  0  0  0  0
 26 27  1  0  0  0  0
 27 32  1  0  0  0  0
 28 27  2  0  0  0  0
 29 24  1  0  0  0  0
 30 25  1  0  0  0  0
 32 34  1  0  0  0  0
 33 32  1  0  0  0  0
 34 36  1  0  0  0  0
 34 35  1  0  0  0  0
 37 34  1  0  0  0  0
 37 38  1  0  0  0  0
M  END
>  <minimizedAffinity>
-4.76502991

>  <minimizedRMSD>
1.18571925

$$$$
