
 OpenBabel03252501053D

 38 40  0  0  1  0  0  0  0  0999 V2000
   48.4500   32.3900   38.2100 O   0  0  0  0  0  0  0  0  0  0  0  0
   48.0470   33.8640   38.2610 P   0  0  2  0  0  0  0  0  0  0  0  0
   49.3310   34.7070   37.5510 O   0  0  0  0  0  0  0  0  0  0  0  0
   49.3030   34.6680   36.5690 H   0  0  0  0  0  0  0  0  0  0  0  0
   47.6550   34.3510   39.7720 O   0  0  0  0  0  0  0  0  0  0  0  0
   48.2590   35.3990   41.8710 C   0  0  1  0  0  0  0  0  0  0  0  0
   49.2840   34.3660   41.6730 C   0  0  0  0  0  0  0  0  0  0  0  0
   48.5700   35.0400   40.4880 C   0  0  1  0  0  0  0  0  0  0  0  0
   48.4750   36.4370   42.2180 H   0  0  0  0  0  0  0  0  0  0  0  0
   50.3180   34.6730   41.9190 H   0  0  0  0  0  0  0  0  0  0  0  0
   49.0210   33.3010   41.7750 H   0  0  0  0  0  0  0  0  0  0  0  0
   49.2920   35.6500   39.9140 H   0  0  0  0  0  0  0  0  0  0  0  0
   45.5510   33.0890   43.1640 C   0  0  0  0  0  0  0  0  0  0  0  0
   46.7770   33.5310   42.6790 C   0  0  0  0  0  0  0  0  0  0  0  0
   46.9470   34.9020   42.4100 C   0  0  0  0  0  0  0  0  0  0  0  0
   45.9140   35.7540   42.6310 N   0  0  0  0  0  0  0  0  0  0  0  0
   44.7270   35.2930   43.1060 C   0  0  0  0  0  0  0  0  0  0  0  0
   44.5470   33.9610   43.3710 N   0  0  0  0  0  0  0  0  0  0  0  0
   45.4350   32.0340   43.3660 H   0  0  0  0  0  0  0  0  0  0  0  0
   47.5460   32.8140   42.5290 H   0  0  0  0  0  0  0  0  0  0  0  0
   43.9470   36.0330   43.2580 H   0  0  0  0  0  0  0  0  0  0  0  0
   46.7360   33.9890   37.2210 O   0  0  0  0  0  0  0  0  0  0  0  0
   45.6780   33.0840   37.1810 C   0  0  0  0  0  0  0  0  0  0  0  0
   45.4360   32.0940   36.2500 C   0  0  0  0  0  0  0  0  0  0  0  0
   44.3560   31.2770   36.3330 C   0  0  0  0  0  0  0  0  0  0  0  0
   43.4740   31.4270   37.3680 C   0  0  0  0  0  0  0  0  0  0  0  0
   43.7420   32.4280   38.2870 C   0  0  0  0  0  0  0  0  0  0  0  0
   44.8240   33.2320   38.1860 N   0  0  0  0  0  0  0  0  0  0  0  0
   46.1830   32.0380   35.4570 H   0  0  0  0  0  0  0  0  0  0  0  0
   44.2360   30.5240   35.5620 H   0  0  0  0  0  0  0  0  0  0  0  0
   42.6310   30.7810   37.4230 H   0  0  0  0  0  0  0  0  0  0  0  0
   42.8880   32.6620   39.3920 N   0  0  0  0  0  0  0  0  0  0  0  0
   42.5060   31.9210   39.9860 H   0  0  0  0  0  0  0  0  0  0  0  0
   42.2040   34.0430   40.1370 S   0  0  0  0  0  0  0  0  0  0  0  0
   40.9120   34.4840   39.4710 O   0  0  0  0  0  0  0  0  0  0  0  0
   43.1610   35.1900   40.0110 O   0  0  0  0  0  0  0  0  0  0  0  0
   41.9100   33.7120   41.7760 O   0  0  0  0  0  0  0  0  0  0  0  0
   41.1000   34.2270   42.0130 H   0  0  0  0  0  0  0  0  0  0  0  0
  2  1  2  1  0  0  0
  2  5  1  0  0  0  0
  3  2  1  0  0  0  0
  4  3  1  0  0  0  0
  5  8  1  0  0  0  0
  6  9  1  1  0  0  0
  6 15  1  0  0  0  0
  7 11  1  0  0  0  0
  7  6  1  0  0  0  0
  7 10  1  0  0  0  0
  8 12  1  6  0  0  0
  8  7  1  0  0  0  0
  8  6  1  0  0  0  0
 13 19  1  0  0  0  0
 13 18  1  0  0  0  0
 14 13  2  0  0  0  0
 15 16  2  0  0  0  0
 15 14  1  0  0  0  0
 16 17  1  0  0  0  0
 17 21  1  0  0  0  0
 17 18  2  0  0  0  0
 20 14  1  0  0  0  0
 22  2  1  0  0  0  0
 23 22  1  0  0  0  0
 23 28  1  0  0  0  0
 24 25  1  0  0  0  0
 24 23  2  0  0  0  0
 25 26  2  0  0  0  0
 26 31  1  0  0  0  0
 26 27  1  0  0  0  0
 27 32  1  0  0  0  0
 28 27  2  0  0  0  0
 29 24  1  0  0  0  0
 30 25  1  0  0  0  0
 32 33  1  0  0  0  0
 32 34  1  0  0  0  0
 34 37  1  0  0  0  0
 35 34  1  0  0  0  0
 36 34  1  0  0  0  0
 37 38  1  0  0  0  0
M  END
>  <minimizedAffinity>
-5.14032364

>  <minimizedRMSD>
0.701992273

$$$$
