
 OpenBabel03252507373D

 36 39  0  0  0  0  0  0  0  0999 V2000
   45.4710   34.8500   43.5210 C   0  0  0  0  0  0  0  0  0  0  0  0
   46.1840   33.7700   44.0940 C   0  0  0  0  0  0  0  0  0  0  0  0
   46.0090   33.5380   45.4450 C   0  0  0  0  0  0  0  0  0  0  0  0
   45.1800   34.3380   46.1480 N   0  0  0  0  0  0  0  0  0  0  0  0
   44.5030   35.3710   45.5760 C   0  0  0  0  0  0  0  0  0  0  0  0
   44.6540   35.6150   44.2830 N   0  0  0  0  0  0  0  0  0  0  0  0
   46.8400   33.1330   43.5590 H   0  0  0  0  0  0  0  0  0  0  0  0
   43.8570   35.9560   46.2340 H   0  0  0  0  0  0  0  0  0  0  0  0
   46.9870   32.7050   47.5160 C   0  0  0  0  0  0  0  0  0  0  0  0
   46.6670   32.4700   46.1840 C   0  0  0  0  0  0  0  0  0  0  0  0
   46.9850   31.2470   45.6430 C   0  0  0  0  0  0  0  0  0  0  0  0
   47.6060   30.2550   46.3710 C   0  0  0  0  0  0  0  0  0  0  0  0
   48.0050   29.0000   46.0510 N   0  0  0  0  0  0  0  0  0  0  0  0
   48.5730   28.4520   47.1780 C   0  0  0  0  0  0  0  0  0  0  0  0
   48.5140   29.3640   48.1540 N   0  0  0  0  0  0  0  0  0  0  0  0
   47.9250   30.4800   47.6850 C   0  0  0  0  0  0  0  0  0  0  0  0
   47.6160   31.6960   48.2520 C   0  0  0  0  0  0  0  0  0  0  0  0
   46.7970   33.6020   48.0550 H   0  0  0  0  0  0  0  0  0  0  0  0
   46.7370   31.0660   44.6110 H   0  0  0  0  0  0  0  0  0  0  0  0
   47.8720   28.5870   45.0940 H   0  0  0  0  0  0  0  0  0  0  0  0
   48.9520   27.4360   47.1010 H   0  0  0  0  0  0  0  0  0  0  0  0
   47.8800   31.8420   49.2900 H   0  0  0  0  0  0  0  0  0  0  0  0
   45.6430   35.0890   42.1580 O   0  0  0  0  0  0  0  0  0  0  0  0
   44.6690   34.7040   41.2520 C   0  0  0  0  0  0  0  0  0  0  0  0
   45.3760   33.8860   40.4390 C   0  0  0  0  0  0  0  0  0  0  0  0
   44.0350   33.3480   39.1850 S   0  0  0  0  0  0  0  0  0  0  0  0
   42.7800   34.4130   40.1090 C   0  0  0  0  0  0  0  0  0  0  0  0
   43.4080   34.8290   40.9150 N   0  0  0  0  0  0  0  0  0  0  0  0
   46.3450   33.3530   40.1140 H   0  0  0  0  0  0  0  0  0  0  0  0
   41.4430   34.4190   39.5830 N   0  0  0  0  0  0  0  0  0  0  0  0
   41.1830   34.0730   38.6360 H   0  0  0  0  0  0  0  0  0  0  0  0
   40.2330   35.0360   40.6020 S   0  0  0  0  0  0  0  0  0  0  0  0
   40.1630   36.5350   40.5910 O   0  0  0  0  0  1  0  0  0  0  0  0
   38.8700   34.5050   40.1790 O   0  0  0  0  0  1  0  0  0  0  0  0
   40.4280   34.5590   42.2010 O   0  0  0  0  0  0  0  0  0  0  0  0
   40.9360   33.7130   42.2790 H   0  0  0  0  0  0  0  0  0  0  0  0
  1  2  2  0  0  0  0
  1  6  1  0  0  0  0
  2  3  1  0  0  0  0
  3  4  2  0  0  0  0
  3 10  1  0  0  0  0
  5  4  1  0  0  0  0
  5  8  1  0  0  0  0
  6  5  2  0  0  0  0
  7  2  1  0  0  0  0
  9 18  1  0  0  0  0
  9 17  1  0  0  0  0
 10  9  2  0  0  0  0
 11 10  1  0  0  0  0
 11 12  2  0  0  0  0
 12 16  1  0  0  0  0
 13 12  1  0  0  0  0
 13 14  1  0  0  0  0
 14 15  2  0  0  0  0
 16 15  1  0  0  0  0
 16 17  2  0  0  0  0
 17 22  1  0  0  0  0
 19 11  1  0  0  0  0
 20 13  1  0  0  0  0
 21 14  1  0  0  0  0
 23  1  1  0  0  0  0
 24 23  1  0  0  0  0
 25 24  2  0  0  0  0
 26 27  1  0  0  0  0
 26 25  1  0  0  0  0
 27 28  2  0  0  0  0
 28 24  1  0  0  0  0
 29 25  1  0  0  0  0
 30 27  1  0  0  0  0
 30 32  1  0  0  0  0
 31 30  1  0  0  0  0
 32 35  1  0  0  0  0
 33 32  1  0  0  0  0
 34 32  1  0  0  0  0
 35 36  1  0  0  0  0
M  END
>  <minimizedAffinity>
-6.53829908

>  <minimizedRMSD>
1.0181011

$$$$
