
 OpenBabel03252508003D

 27 28  0  0  1  0  0  0  0  0999 V2000
   46.2490   34.7850   43.2570 C   0  0  0  0  0  0  0  0  0  0  0  0
   45.2720   35.7680   43.5970 C   0  0  0  0  0  0  0  0  0  0  0  0
   44.6150   35.5710   44.8120 C   0  0  0  0  0  0  0  0  0  0  0  0
   44.9330   34.4930   45.5690 N   0  0  0  0  0  0  0  0  0  0  0  0
   45.8900   33.5910   45.1650 C   0  0  0  0  0  0  0  0  0  0  0  0
   46.5530   33.7130   44.0320 N   0  0  0  0  0  0  0  0  0  0  0  0
   45.0910   36.5900   42.9250 H   0  0  0  0  0  0  0  0  0  0  0  0
   43.8660   36.2900   45.1100 H   0  0  0  0  0  0  0  0  0  0  0  0
   46.1930   32.4280   46.0520 C   0  0  1  0  0  0  0  0  0  0  0  0
   47.0300   32.6550   47.2890 C   0  0  0  0  0  0  0  0  0  0  0  0
   45.5370   32.4820   47.3780 C   0  0  1  0  0  0  0  0  0  0  0  0
   46.3660   31.5040   45.4900 H   0  0  0  0  0  0  0  0  0  0  0  0
   47.6920   31.8310   47.5620 H   0  0  0  0  0  0  0  0  0  0  0  0
   47.5030   33.6440   47.3350 H   0  0  0  0  0  0  0  0  0  0  0  0
   45.1950   31.5190   47.7750 H   0  0  0  0  0  0  0  0  0  0  0  0
   44.8810   33.7210   47.8040 N   0  0  0  0  0  0  0  0  0  0  0  0
   43.8530   33.5710   47.7900 H   0  0  0  0  0  0  0  0  0  0  0  0
   45.2090   34.0060   48.7640 H   0  0  0  0  0  0  0  0  0  0  0  0
   46.9330   35.0000   41.9930 C   0  0  0  0  0  0  0  0  0  0  0  0
   48.0980   35.5250   41.9010 O   0  0  0  0  0  0  0  0  0  0  0  0
   46.2390   34.5910   40.8010 N   0  0  0  0  0  0  0  0  0  0  0  0
   45.3000   35.0190   40.5610 H   0  0  0  0  0  0  0  0  0  0  0  0
   46.9280   33.3990   39.7470 S   0  0  0  0  0  0  0  0  0  0  0  0
   47.5250   32.3090   40.5950 O   0  0  0  0  0  1  0  0  0  0  0  0
   47.9810   34.0760   38.8980 O   0  0  0  0  0  1  0  0  0  0  0  0
   45.7410   32.7490   38.7620 O   0  0  0  0  0  0  0  0  0  0  0  0
   45.2570   32.0080   39.2300 H   0  0  0  0  0  0  0  0  0  0  0  0
  1  2  2  0  0  0  0
  1  6  1  0  0  0  0
  2  3  1  0  0  0  0
  3  8  1  0  0  0  0
  3  4  2  0  0  0  0
  5  4  1  0  0  0  0
  5  9  1  0  0  0  0
  6  5  2  0  0  0  0
  7  2  1  0  0  0  0
  9 12  1  6  0  0  0
  9 10  1  0  0  0  0
  9 11  1  0  0  0  0
 10 14  1  0  0  0  0
 10 11  1  0  0  0  0
 10 13  1  0  0  0  0
 11 15  1  1  0  0  0
 11 16  1  0  0  0  0
 16 18  1  0  0  0  0
 17 16  1  0  0  0  0
 19  1  1  0  0  0  0
 20 19  2  0  0  0  0
 21 19  1  0  0  0  0
 22 21  1  0  0  0  0
 23 24  1  0  0  0  0
 23 21  1  0  0  0  0
 25 23  1  0  0  0  0
 26 27  1  0  0  0  0
 26 23  1  0  0  0  0
M  END
>  <minimizedAffinity>
-5.3127656

>  <minimizedRMSD>
0.211475849

$$$$
