
 OpenBabel03242515013D

 35 36  0  0  0  0  0  0  0  0999 V2000
   44.1130   34.9950   41.0870 S   0  0  0  0  0  0  0  0  0  0  0  0
   45.2250   34.5190   42.4180 C   0  0  0  0  0  0  0  0  0  0  0  0
   46.5830   34.4550   42.1140 C   0  0  0  0  0  0  0  0  0  0  0  0
   47.4720   34.0910   43.1160 C   0  0  0  0  0  0  0  0  0  0  0  0
   46.9750   33.8110   44.3540 N   0  0  0  0  0  0  0  0  0  0  0  0
   45.6680   33.8800   44.6230 C   0  0  0  0  0  0  0  0  0  0  0  0
   44.7920   34.2310   43.6650 N   0  0  0  0  0  0  0  0  0  0  0  0
   47.0210   34.6670   41.1460 H   0  0  0  0  0  0  0  0  0  0  0  0
   48.5340   34.0290   42.9200 H   0  0  0  0  0  0  0  0  0  0  0  0
   45.2150   33.5650   45.9790 C   0  0  0  0  0  0  0  0  0  0  0  0
   44.7220   34.5150   46.6620 O   0  0  0  0  0  0  0  0  0  0  0  0
   45.3590   32.2270   46.4330 N   0  0  0  0  0  0  0  0  0  0  0  0
   44.8710   31.4590   45.9090 H   0  0  0  0  0  0  0  0  0  0  0  0
   46.3260   31.9430   47.8200 S   0  0  0  0  0  0  0  0  0  0  0  0
   45.6510   32.2770   49.1060 O   0  0  0  0  0  1  0  0  0  0  0  0
   47.6190   32.7320   47.7710 O   0  0  0  0  0  1  0  0  0  0  0  0
   46.7540   30.3000   47.8120 O   0  0  0  0  0  0  0  0  0  0  0  0
   46.0800   29.7870   47.2710 H   0  0  0  0  0  0  0  0  0  0  0  0
   42.3920   34.6620   41.4660 C   0  0  0  0  0  0  0  0  0  0  0  0
   42.2700   34.6900   42.5780 H   0  0  0  0  0  0  0  0  0  0  0  0
   42.0580   33.6420   41.1810 H   0  0  0  0  0  0  0  0  0  0  0  0
   41.4620   35.6930   40.9130 C   0  0  0  0  0  0  0  0  0  0  0  0
   42.0870   36.4370   40.3390 H   0  0  0  0  0  0  0  0  0  0  0  0
   40.9370   36.2940   41.6850 H   0  0  0  0  0  0  0  0  0  0  0  0
   42.1760   35.9540   37.9590 Cl  0  0  0  0  0  0  0  0  0  0  0  0
   40.7460   35.1600   38.5590 C   0  0  0  0  0  0  0  0  0  0  0  0
   40.5090   35.0940   39.9380 C   0  0  0  0  0  0  0  0  0  0  0  0
   39.3570   34.4500   40.3270 C   0  0  0  0  0  0  0  0  0  0  0  0
   38.4130   33.8640   39.4960 C   0  0  0  0  0  0  0  0  0  0  0  0
   38.6770   33.9470   38.1300 C   0  0  0  0  0  0  0  0  0  0  0  0
   37.5430   33.2360   36.9870 Cl  0  0  0  0  0  0  0  0  0  0  0  0
   39.8130   34.5790   37.6900 C   0  0  0  0  0  0  0  0  0  0  0  0
   39.2120   34.4200   41.4030 H   0  0  0  0  0  0  0  0  0  0  0  0
   37.5390   33.3800   39.8920 H   0  0  0  0  0  0  0  0  0  0  0  0
   39.9660   34.6120   36.6180 H   0  0  0  0  0  0  0  0  0  0  0  0
  1 19  1  0  0  0  0
  1  2  1  0  0  0  0
  2  7  1  0  0  0  0
  3  2  2  0  0  0  0
  3  4  1  0  0  0  0
  4  5  2  0  0  0  0
  5  6  1  0  0  0  0
  6 10  1  0  0  0  0
  7  6  2  0  0  0  0
  8  3  1  0  0  0  0
  9  4  1  0  0  0  0
 10 12  1  0  0  0  0
 10 11  2  0  0  0  0
 12 14  1  0  0  0  0
 13 12  1  0  0  0  0
 14 15  1  0  0  0  0
 16 14  1  0  0  0  0
 17 14  1  0  0  0  0
 18 17  1  0  0  0  0
 19 20  1  0  0  0  0
 21 19  1  0  0  0  0
 22 19  1  0  0  0  0
 22 24  1  0  0  0  0
 23 22  1  0  0  0  0
 25 26  1  0  0  0  0
 26 27  1  0  0  0  0
 27 28  2  0  0  0  0
 27 22  1  0  0  0  0
 28 33  1  0  0  0  0
 29 34  1  0  0  0  0
 29 28  1  0  0  0  0
 30 29  2  0  0  0  0
 31 30  1  0  0  0  0
 32 30  1  0  0  0  0
 32 26  2  0  0  0  0
 35 32  1  0  0  0  0
M  END
>  <minimizedAffinity>
-6.3493433

>  <minimizedRMSD>
1.01191652

$$$$
