
 OpenBabel03242516533D

 43 45  0  0  1  0  0  0  0  0999 V2000
   47.8320   32.8190   41.6960 C   0  0  1  0  0  0  0  0  0  0  0  0
   47.4280   32.1490   40.4610 C   0  0  0  0  0  0  0  0  0  0  0  0
   48.4320   32.5770   39.3940 C   0  0  0  0  0  0  0  0  0  0  0  0
   48.1580   34.0490   39.1090 C   0  0  0  0  0  0  0  0  0  0  0  0
   48.1780   34.9230   40.3260 C   0  0  0  0  0  0  0  0  0  0  0  0
   47.7070   34.3430   41.5900 C   0  0  1  0  0  0  0  0  0  0  0  0
   48.9490   32.6800   41.8330 H   0  0  0  0  0  0  0  0  0  0  0  0
   46.4410   32.4930   40.0610 H   0  0  0  0  0  0  0  0  0  0  0  0
   47.4980   31.0670   40.5540 H   0  0  0  0  0  0  0  0  0  0  0  0
   48.1220   32.0300   38.4680 H   0  0  0  0  0  0  0  0  0  0  0  0
   49.4590   32.3840   39.6970 H   0  0  0  0  0  0  0  0  0  0  0  0
   48.8790   34.3970   38.3590 H   0  0  0  0  0  0  0  0  0  0  0  0
   47.1470   34.0790   38.6370 H   0  0  0  0  0  0  0  0  0  0  0  0
   49.2180   35.3550   40.4060 H   0  0  0  0  0  0  0  0  0  0  0  0
   47.5430   35.8030   40.0830 H   0  0  0  0  0  0  0  0  0  0  0  0
   48.3720   34.7360   42.4180 H   0  0  0  0  0  0  0  0  0  0  0  0
   45.4690   31.0140   44.0270 C   0  0  0  0  0  0  0  0  0  0  0  0
   46.1250   31.4930   42.8890 C   0  0  0  0  0  0  0  0  0  0  0  0
   47.2160   32.3670   42.9250 C   0  0  0  0  0  0  0  0  0  0  0  0
   47.6160   32.7370   44.1420 N   0  0  0  0  0  0  0  0  0  0  0  0
   46.9920   32.2840   45.2600 C   0  0  0  0  0  0  0  0  0  0  0  0
   45.9550   31.4520   45.2280 N   0  0  0  0  0  0  0  0  0  0  0  0
   44.6390   30.3450   43.9240 H   0  0  0  0  0  0  0  0  0  0  0  0
   45.7370   31.1430   41.9410 H   0  0  0  0  0  0  0  0  0  0  0  0
   47.4170   32.6620   46.1930 H   0  0  0  0  0  0  0  0  0  0  0  0
   46.3640   34.8000   41.9480 C   0  0  0  0  0  0  0  0  0  0  0  0
   46.0190   35.5370   43.0900 C   0  0  0  0  0  0  0  0  0  0  0  0
   44.6680   35.8760   43.2110 C   0  0  0  0  0  0  0  0  0  0  0  0
   43.8040   35.4660   42.2200 C   0  0  0  0  0  0  0  0  0  0  0  0
   44.1640   34.7410   41.1050 C   0  0  0  0  0  0  0  0  0  0  0  0
   45.4810   34.4120   40.9910 N   0  0  0  0  0  0  0  0  0  0  0  0
   46.8000   35.7750   43.7590 H   0  0  0  0  0  0  0  0  0  0  0  0
   44.3840   36.4430   44.0810 H   0  0  0  0  0  0  0  0  0  0  0  0
   42.7690   35.7680   42.3840 H   0  0  0  0  0  0  0  0  0  0  0  0
   43.1720   34.3520   40.0940 C   0  0  0  0  0  0  0  0  0  0  0  0
   42.3890   35.2390   39.6620 O   0  0  0  0  0  0  0  0  0  0  0  0
   43.0890   33.0140   39.6120 N   0  0  0  0  0  0  0  0  0  0  0  0
   43.9970   32.4990   39.6140 H   0  0  0  0  0  0  0  0  0  0  0  0
   41.5010   32.5390   39.1270 S   0  0  0  0  0  0  0  0  0  0  0  0
   40.5070   32.7100   40.2370 O   0  0  0  0  0  1  0  0  0  0  0  0
   41.0450   33.2390   37.8770 O   0  0  0  0  0  1  0  0  0  0  0  0
   41.5980   30.8890   38.7280 O   0  0  0  0  0  0  0  0  0  0  0  0
   41.8590   30.7760   37.7780 H   0  0  0  0  0  0  0  0  0  0  0  0
  1  7  1  1  0  0  0
  1 19  1  0  0  0  0
  2  9  1  0  0  0  0
  2  1  1  0  0  0  0
  3 11  1  0  0  0  0
  3  2  1  0  0  0  0
  4  3  1  0  0  0  0
  4  5  1  0  0  0  0
  5 14  1  0  0  0  0
  5  6  1  0  0  0  0
  6  1  1  0  0  0  0
  6 26  1  0  0  0  0
  6 16  1  1  0  0  0
  8  2  1  0  0  0  0
 10  3  1  0  0  0  0
 12  4  1  0  0  0  0
 13  4  1  0  0  0  0
 15  5  1  0  0  0  0
 17 22  1  0  0  0  0
 18 19  1  0  0  0  0
 18 17  2  0  0  0  0
 19 20  2  0  0  0  0
 20 21  1  0  0  0  0
 21 25  1  0  0  0  0
 22 21  2  0  0  0  0
 23 17  1  0  0  0  0
 24 18  1  0  0  0  0
 26 27  1  0  0  0  0
 27 28  2  0  0  0  0
 27 32  1  0  0  0  0
 28 33  1  0  0  0  0
 29 34  1  0  0  0  0
 29 28  1  0  0  0  0
 30 29  2  0  0  0  0
 31 30  1  0  0  0  0
 31 26  2  0  0  0  0
 35 30  1  0  0  0  0
 36 35  2  0  0  0  0
 37 38  1  0  0  0  0
 37 35  1  0  0  0  0
 39 37  1  0  0  0  0
 39 40  1  0  0  0  0
 41 39  1  0  0  0  0
 42 39  1  0  0  0  0
 43 42  1  0  0  0  0
M  END
>  <minimizedAffinity>
-5.28885221

>  <minimizedRMSD>
0.355703384

$$$$
