
     RDKit          3D

 43 45  0  0  0  0  0  0  0  0999 V2000
   47.8699   32.9190   41.8197 C   0  0  1  0  0  0  0  0  0  0  0  0
   47.5729   32.1778   40.5949 C   0  0  0  0  0  0  0  0  0  0  0  0
   48.6012   32.6309   39.5623 C   0  0  0  0  0  0  0  0  0  0  0  0
   48.2502   34.0701   39.2051 C   0  0  0  0  0  0  0  0  0  0  0  0
   48.1533   34.9882   40.3851 C   0  0  0  0  0  0  0  0  0  0  0  0
   47.6553   34.4258   41.6472 C   0  0  1  0  0  0  0  0  0  0  0  0
   45.4707   31.0951   44.1001 C   0  0  0  0  0  0  0  0  0  0  0  0
   46.1564   31.5701   42.9774 C   0  0  0  0  0  0  0  0  0  0  0  0
   47.2210   32.4737   43.0355 C   0  0  0  0  0  0  0  0  0  0  0  0
   47.5662   32.8783   44.2582 N   0  0  0  0  0  0  0  0  0  0  0  0
   46.9131   32.4292   45.3613 C   0  0  0  0  0  0  0  0  0  0  0  0
   45.8995   31.5688   45.3080 N   0  0  0  0  0  0  0  0  0  0  0  0
   46.2688   34.8076   41.9202 C   0  0  0  0  0  0  0  0  0  0  0  0
   45.8088   35.4973   43.0518 C   0  0  0  0  0  0  0  0  0  0  0  0
   44.4384   35.7670   43.0847 C   0  0  0  0  0  0  0  0  0  0  0  0
   43.6659   35.3424   42.0256 C   0  0  0  0  0  0  0  0  0  0  0  0
   44.1382   34.6658   40.9228 C   0  0  0  0  0  0  0  0  0  0  0  0
   45.4753   34.4042   40.8939 N   0  0  0  0  0  0  0  0  0  0  0  0
   43.2386   34.2566   39.8354 C   0  0  0  0  0  0  0  0  0  0  0  0
   42.3641   35.0770   39.4508 O   0  0  0  0  0  0  0  0  0  0  0  0
   48.9847   32.8577   42.0169 H   0  0  0  0  0  0  0  0  0  0  0  0
   46.5877   32.4423   40.1342 H   0  0  0  0  0  0  0  0  0  0  0  0
   47.7055   31.1068   40.7351 H   0  0  0  0  0  0  0  0  0  0  0  0
   48.3754   32.0306   38.6445 H   0  0  0  0  0  0  0  0  0  0  0  0
   49.6223   32.5156   39.9234 H   0  0  0  0  0  0  0  0  0  0  0  0
   48.9865   34.4359   38.4785 H   0  0  0  0  0  0  0  0  0  0  0  0
   47.2648   34.0170   38.6834 H   0  0  0  0  0  0  0  0  0  0  0  0
   49.1580   35.4891   40.4985 H   0  0  0  0  0  0  0  0  0  0  0  0
   47.4772   35.8165   40.0758 H   0  0  0  0  0  0  0  0  0  0  0  0
   48.2501   34.8919   42.4904 H   0  0  0  0  0  0  0  0  0  0  0  0
   44.6631   30.4022   43.9796 H   0  0  0  0  0  0  0  0  0  0  0  0
   45.8117   31.1914   42.0234 H   0  0  0  0  0  0  0  0  0  0  0  0
   47.2931   32.8370   46.3010 H   0  0  0  0  0  0  0  0  0  0  0  0
   46.5292   35.7537   43.7790 H   0  0  0  0  0  0  0  0  0  0  0  0
   44.0657   36.2960   43.9456 H   0  0  0  0  0  0  0  0  0  0  0  0
   42.6082   35.5897   42.1243 H   0  0  0  0  0  0  0  0  0  0  0  0
   43.3449   32.9720   39.2278 N   0  0  0  0  0  0  0  0  0  0  0  0
   44.3107   32.5763   39.2253 H   0  0  0  0  0  0  0  0  0  0  0  0
   41.8487   32.3532   38.6291 S   0  0  0  0  0  0  0  0  0  0  0  0
   40.8424   32.1745   39.7264 O   0  0  0  0  0  0  0  0  0  0  0  0
   41.2880   33.1825   37.5069 O   0  0  0  0  0  0  0  0  0  0  0  0
   42.1993   30.8325   37.9541 O   0  0  0  0  0  0  0  0  0  0  0  0
   42.4716   30.9270   37.0063 H   0  0  0  0  0  0  0  0  0  0  0  0
  1  9  1  0
  2  1  1  0
  3  2  1  0
  4  3  1  0
  4  5  1  0
  5  6  1  0
  6  1  1  0
  6 13  1  0
  7 12  2  0
  8  9  2  0
  8  7  1  0
  9 10  1  0
 10 11  2  0
 12 11  1  0
 13 14  2  0
 14 15  1  0
 16 15  2  0
 17 16  1  0
 18 17  2  0
 18 13  1  0
 19 17  1  0
 20 19  2  0
  1 21  1  1
  2 22  1  0
  2 23  1  0
  3 24  1  0
  3 25  1  0
  4 26  1  0
  4 27  1  0
  5 28  1  0
  5 29  1  0
  6 30  1  1
  7 31  1  0
  8 32  1  0
 11 33  1  0
 14 34  1  0
 15 35  1  0
 16 36  1  0
 37 38  1  0
 37 39  1  0
 39 40  2  0
 39 41  2  0
 39 42  1  0
 42 43  1  0
 19 37  1  0
M  ISO  8  21  13  22  13  23  13  24  13  25  13  26  13  27  13  28  13
M  ISO  8  29  13  30  13  31  14  32  14  33  14  34  14  35  14  36  14
M  ISO  2  38   5  43   3
M  END
>  <DihAtoms>  (1) 
16,18,36,37

>  <DihDeg>  (1) 
0.0013719820653899277

$$$$
