REMARK  Name = 
REMARK  5 active torsions:
REMARK  status: ('A' for Active; 'I' for Inactive)
REMARK    1  A    between atoms: C_1  and  C_9
REMARK    2  A    between atoms: C_6  and  C_13
REMARK    3  A    between atoms: C_17  and  C_19
REMARK    4  A    between atoms: N_37  and  S_39
REMARK    5  A    between atoms: S_39  and  O_42
REMARK                            x       y       z     vdW  Elec       q    Type
REMARK                         _______ _______ _______ _____ _____    ______ ____
ROOT
ATOM      1  C   UNL     1      47.870  32.919  41.820  0.00  0.00    +0.000 C 
ATOM      2  C   UNL     1      47.573  32.178  40.595  0.00  0.00    +0.000 C 
ATOM      3  C   UNL     1      48.601  32.631  39.562  0.00  0.00    +0.000 C 
ATOM      4  C   UNL     1      48.250  34.070  39.205  0.00  0.00    +0.000 C 
ATOM      5  C   UNL     1      48.153  34.988  40.385  0.00  0.00    +0.000 C 
ATOM      6  C   UNL     1      47.655  34.426  41.647  0.00  0.00    +0.000 C 
ATOM      7  H   UNL     1      48.985  32.858  42.017  0.00  0.00    +0.000 HD
ATOM      8  H   UNL     1      46.588  32.442  40.134  0.00  0.00    +0.000 HD
ATOM      9  H   UNL     1      47.706  31.107  40.735  0.00  0.00    +0.000 HD
ATOM     10  H   UNL     1      48.375  32.031  38.645  0.00  0.00    +0.000 HD
ATOM     11  H   UNL     1      49.622  32.516  39.923  0.00  0.00    +0.000 HD
ATOM     12  H   UNL     1      48.986  34.436  38.478  0.00  0.00    +0.000 HD
ATOM     13  H   UNL     1      47.265  34.017  38.683  0.00  0.00    +0.000 HD
ATOM     14  H   UNL     1      49.158  35.489  40.498  0.00  0.00    +0.000 HD
ATOM     15  H   UNL     1      47.477  35.816  40.076  0.00  0.00    +0.000 HD
ATOM     16  H   UNL     1      48.250  34.892  42.490  0.00  0.00    +0.000 HD
ENDROOT
BRANCH   1  19
ATOM     17  C   UNL     1      45.471  31.095  44.100  0.00  0.00    +0.000 A 
ATOM     18  C   UNL     1      46.156  31.570  42.977  0.00  0.00    +0.000 A 
ATOM     19  C   UNL     1      47.221  32.474  43.035  0.00  0.00    +0.000 A 
ATOM     20  N   UNL     1      47.566  32.878  44.258  0.00  0.00    +0.000 NA
ATOM     21  C   UNL     1      46.913  32.429  45.361  0.00  0.00    +0.000 A 
ATOM     22  N   UNL     1      45.900  31.569  45.308  0.00  0.00    +0.000 NA
ATOM     23  H   UNL     1      44.663  30.402  43.980  0.00  0.00    +0.000 HD
ATOM     24  H   UNL     1      45.812  31.191  42.023  0.00  0.00    +0.000 HD
ATOM     25  H   UNL     1      47.293  32.837  46.301  0.00  0.00    +0.000 HD
ENDBRANCH   1  19
BRANCH   6  26
ATOM     26  C   UNL     1      46.269  34.808  41.920  0.00  0.00    +0.000 A 
ATOM     27  C   UNL     1      45.809  35.497  43.052  0.00  0.00    +0.000 A 
ATOM     28  C   UNL     1      44.438  35.767  43.085  0.00  0.00    +0.000 A 
ATOM     29  C   UNL     1      43.666  35.342  42.026  0.00  0.00    +0.000 A 
ATOM     30  C   UNL     1      44.138  34.666  40.923  0.00  0.00    +0.000 A 
ATOM     31  N   UNL     1      45.475  34.404  40.894  0.00  0.00    +0.000 NA
ATOM     32  H   UNL     1      46.529  35.754  43.779  0.00  0.00    +0.000 HD
ATOM     33  H   UNL     1      44.066  36.296  43.946  0.00  0.00    +0.000 HD
ATOM     34  H   UNL     1      42.608  35.590  42.124  0.00  0.00    +0.000 HD
BRANCH  30  35
ATOM     35  C   UNL     1      43.239  34.257  39.835  0.00  0.00    +0.000 C 
ATOM     36  O   UNL     1      42.364  35.077  39.451  0.00  0.00    +0.000 OA
ATOM     37  N   UNL     1      43.345  32.972  39.228  0.00  0.00    +0.000 N 
ATOM     38  H   UNL     1      44.155  32.870  38.578  0.00  0.00    +0.000 HD
BRANCH  37  39
ATOM     39  S   UNL     1      42.107  31.867  39.703  0.00  0.00    +0.000 S 
ATOM     40  O   UNL     1      42.141  31.596  41.178  0.00  0.00    +0.000 OA
ATOM     41  O   UNL     1      40.739  32.307  39.262  0.00  0.00    +0.000 OA
BRANCH  39  42
ATOM     42  O   UNL     1      42.420  30.416  38.872  0.00  0.00    +0.000 OA
ATOM     43  H   UNL     1      41.987  30.426  37.981  0.00  0.00    +0.000 HD
ENDBRANCH  39  42
ENDBRANCH  37  39
ENDBRANCH  30  35
ENDBRANCH   6  26
TORSDOF 5
