
 OpenBabel03252507373D

 36 39  0  0  0  0  0  0  0  0999 V2000
   45.7550   34.7900   43.5030 C   0  0  0  0  0  0  0  0  0  0  0  0
   46.4580   33.7260   44.1160 C   0  0  0  0  0  0  0  0  0  0  0  0
   46.1890   33.4680   45.4470 C   0  0  0  0  0  0  0  0  0  0  0  0
   45.2820   34.2300   46.0940 N   0  0  0  0  0  0  0  0  0  0  0  0
   44.6170   35.2490   45.4850 C   0  0  0  0  0  0  0  0  0  0  0  0
   44.8570   35.5160   44.2100 N   0  0  0  0  0  0  0  0  0  0  0  0
   47.1740   33.1170   43.6250 H   0  0  0  0  0  0  0  0  0  0  0  0
   43.9040   35.8030   46.0990 H   0  0  0  0  0  0  0  0  0  0  0  0
   47.0530   32.6450   47.5720 C   0  0  0  0  0  0  0  0  0  0  0  0
   46.8250   32.4110   46.2210 C   0  0  0  0  0  0  0  0  0  0  0  0
   47.2070   31.2000   45.6950 C   0  0  0  0  0  0  0  0  0  0  0  0
   47.8040   30.2190   46.4560 C   0  0  0  0  0  0  0  0  0  0  0  0
   48.2540   28.9760   46.1560 N   0  0  0  0  0  0  0  0  0  0  0  0
   48.7610   28.4340   47.3150 C   0  0  0  0  0  0  0  0  0  0  0  0
   48.6180   29.3380   48.2890 N   0  0  0  0  0  0  0  0  0  0  0  0
   48.0320   30.4430   47.7900 C   0  0  0  0  0  0  0  0  0  0  0  0
   47.6590   31.6470   48.3410 C   0  0  0  0  0  0  0  0  0  0  0  0
   46.8060   33.5340   48.1020 H   0  0  0  0  0  0  0  0  0  0  0  0
   47.0300   31.0200   44.6480 H   0  0  0  0  0  0  0  0  0  0  0  0
   48.1920   28.5670   45.1900 H   0  0  0  0  0  0  0  0  0  0  0  0
   49.1700   27.4290   47.2570 H   0  0  0  0  0  0  0  0  0  0  0  0
   47.8520   31.7930   49.3950 H   0  0  0  0  0  0  0  0  0  0  0  0
   46.0220   35.0550   42.1600 O   0  0  0  0  0  0  0  0  0  0  0  0
   45.2150   34.5210   41.1690 C   0  0  0  0  0  0  0  0  0  0  0  0
   46.1150   33.8060   40.4550 C   0  0  0  0  0  0  0  0  0  0  0  0
   45.0070   33.0650   39.0830 S   0  0  0  0  0  0  0  0  0  0  0  0
   43.5200   33.9440   39.8450 C   0  0  0  0  0  0  0  0  0  0  0  0
   43.9920   34.4560   40.7010 N   0  0  0  0  0  0  0  0  0  0  0  0
   47.1800   33.4180   40.2460 H   0  0  0  0  0  0  0  0  0  0  0  0
   42.2600   33.7480   39.1830 N   0  0  0  0  0  0  0  0  0  0  0  0
   42.0750   33.0030   38.4800 H   0  0  0  0  0  0  0  0  0  0  0  0
   41.0110   34.8220   39.6020 S   0  0  0  0  0  0  0  0  0  0  0  0
   40.9670   36.0410   38.7270 O   0  0  0  0  0  1  0  0  0  0  0  0
   39.6620   34.1240   39.4930 O   0  0  0  0  0  1  0  0  0  0  0  0
   41.1210   35.3520   41.1930 O   0  0  0  0  0  0  0  0  0  0  0  0
   41.6090   34.7120   41.7670 H   0  0  0  0  0  0  0  0  0  0  0  0
  1  2  2  0  0  0  0
  1  6  1  0  0  0  0
  2  3  1  0  0  0  0
  3  4  2  0  0  0  0
  3 10  1  0  0  0  0
  5  4  1  0  0  0  0
  5  8  1  0  0  0  0
  6  5  2  0  0  0  0
  7  2  1  0  0  0  0
  9 18  1  0  0  0  0
  9 17  1  0  0  0  0
 10  9  2  0  0  0  0
 11 10  1  0  0  0  0
 11 12  2  0  0  0  0
 12 16  1  0  0  0  0
 13 12  1  0  0  0  0
 13 14  1  0  0  0  0
 14 15  2  0  0  0  0
 16 15  1  0  0  0  0
 16 17  2  0  0  0  0
 17 22  1  0  0  0  0
 19 11  1  0  0  0  0
 20 13  1  0  0  0  0
 21 14  1  0  0  0  0
 23  1  1  0  0  0  0
 24 23  1  0  0  0  0
 25 24  2  0  0  0  0
 26 27  1  0  0  0  0
 26 25  1  0  0  0  0
 27 28  2  0  0  0  0
 28 24  1  0  0  0  0
 29 25  1  0  0  0  0
 30 32  1  0  0  0  0
 30 27  1  0  0  0  0
 31 30  1  0  0  0  0
 32 35  1  0  0  0  0
 33 32  1  0  0  0  0
 34 32  1  0  0  0  0
 35 36  1  0  0  0  0
M  END
>  <minimizedAffinity>
-6.0598197

>  <minimizedRMSD>
1.34524608

$$$$
