REMARK  Name = 
REMARK  5 active torsions:
REMARK  status: ('A' for Active; 'I' for Inactive)
REMARK    1  A    between atoms: C_1  and  O_16
REMARK    2  A    between atoms: C_3  and  C_8
REMARK    3  A    between atoms: O_16  and  C_17
REMARK    4  A    between atoms: N_30  and  S_32
REMARK    5  A    between atoms: S_32  and  O_35
REMARK                            x       y       z     vdW  Elec       q    Type
REMARK                         _______ _______ _______ _____ _____    ______ ____
ROOT
ATOM      1  C   UNL     1      45.497  34.826  43.536  0.00  0.00    +0.000 A 
ATOM      2  C   UNL     1      46.214  33.752  44.115  0.00  0.00    +0.000 A 
ATOM      3  C   UNL     1      46.029  33.518  45.465  0.00  0.00    +0.000 A 
ATOM      4  N   UNL     1      45.187  34.310  46.161  0.00  0.00    +0.000 NA
ATOM      5  C   UNL     1      44.507  35.338  45.583  0.00  0.00    +0.000 A 
ATOM      6  N   UNL     1      44.667  35.583  44.291  0.00  0.00    +0.000 NA
ATOM      7  H   UNL     1      46.880  33.120  43.586  0.00  0.00    +0.000 HD
ATOM      8  H   UNL     1      43.850  35.917  46.236  0.00  0.00    +0.000 HD
ENDROOT
BRANCH   3  10
ATOM      9  C   UNL     1      47.003  32.695  47.542  0.00  0.00    +0.000 A 
ATOM     10  C   UNL     1      46.690  32.455  46.209  0.00  0.00    +0.000 A 
ATOM     11  C   UNL     1      47.017  31.232  45.673  0.00  0.00    +0.000 A 
ATOM     12  C   UNL     1      47.640  30.246  46.406  0.00  0.00    +0.000 A 
ATOM     13  N   UNL     1      48.047  28.992  46.091  0.00  0.00    +0.000 N 
ATOM     14  C   UNL     1      48.613  28.450  47.222  0.00  0.00    +0.000 A 
ATOM     15  N   UNL     1      48.545  29.364  48.195  0.00  0.00    +0.000 NA
ATOM     16  C   UNL     1      47.952  30.476  47.721  0.00  0.00    +0.000 A 
ATOM     17  C   UNL     1      47.635  31.692  48.283  0.00  0.00    +0.000 A 
ATOM     18  H   UNL     1      46.806  33.593  48.078  0.00  0.00    +0.000 HD
ATOM     19  H   UNL     1      46.774  31.047  44.640  0.00  0.00    +0.000 HD
ATOM     20  H   UNL     1      47.920  28.576  45.134  0.00  0.00    +0.000 HD
ATOM     21  H   UNL     1      48.998  27.436  47.149  0.00  0.00    +0.000 HD
ATOM     22  H   UNL     1      47.894  31.842  49.322  0.00  0.00    +0.000 HD
ENDBRANCH   3  10
BRANCH   1  23
ATOM     23  O   UNL     1      45.679  35.067  42.175  0.00  0.00    +0.000 OA
BRANCH  23  24
ATOM     24  C   UNL     1      44.624  34.916  41.291  0.00  0.00    +0.000 A 
ATOM     25  C   UNL     1      45.006  33.809  40.613  0.00  0.00    +0.000 A 
ATOM     26  S   UNL     1      43.551  33.593  39.390  0.00  0.00    +0.000 S 
ATOM     27  C   UNL     1      42.737  35.128  40.128  0.00  0.00    +0.000 A 
ATOM     28  N   UNL     1      43.475  35.411  40.897  0.00  0.00    +0.000 NA
ATOM     29  H   UNL     1      45.736  32.945  40.392  0.00  0.00    +0.000 HD
ATOM     30  N   UNL     1      41.475  35.513  39.558  0.00  0.00    +0.000 N 
ATOM     31  H   UNL     1      40.893  34.899  38.951  0.00  0.00    +0.000 HD
BRANCH  30  32
ATOM     32  S   UNL     1      40.927  37.080  39.922  0.00  0.00    +0.000 S 
ATOM     33  O   UNL     1      41.908  37.869  40.740  0.00  0.00    +0.000 OA
ATOM     34  O   UNL     1      40.665  37.854  38.638  0.00  0.00    +0.000 OA
BRANCH  32  35
ATOM     35  O   UNL     1      39.469  37.077  40.757  0.00  0.00    +0.000 OA
ATOM     36  H   UNL     1      38.942  36.258  40.585  0.00  0.00    +0.000 HD
ENDBRANCH  32  35
ENDBRANCH  30  32
ENDBRANCH  23  24
ENDBRANCH   1  23
TORSDOF 5
