
 OpenBabel03242515013D

 35 36  0  0  0  0  0  0  0  0999 V2000
   43.5590   34.8730   40.7400 S   0  0  0  0  0  0  0  0  0  0  0  0
   44.9050   34.5990   41.9000 C   0  0  0  0  0  0  0  0  0  0  0  0
   46.1760   34.4130   41.3610 C   0  0  0  0  0  0  0  0  0  0  0  0
   47.2410   34.1980   42.2250 C   0  0  0  0  0  0  0  0  0  0  0  0
   46.9940   34.1790   43.5660 N   0  0  0  0  0  0  0  0  0  0  0  0
   45.7660   34.3600   44.0610 C   0  0  0  0  0  0  0  0  0  0  0  0
   44.7230   34.5690   43.2380 N   0  0  0  0  0  0  0  0  0  0  0  0
   46.4170   34.4200   40.3050 H   0  0  0  0  0  0  0  0  0  0  0  0
   48.2420   34.0490   41.8450 H   0  0  0  0  0  0  0  0  0  0  0  0
   45.5850   34.3250   45.5130 C   0  0  0  0  0  0  0  0  0  0  0  0
   44.5580   34.9060   45.9850 O   0  0  0  0  0  0  0  0  0  0  0  0
   46.5640   33.6480   46.2880 N   0  0  0  0  0  0  0  0  0  0  0  0
   47.4960   34.1100   46.4430 H   0  0  0  0  0  0  0  0  0  0  0  0
   46.1650   32.1110   46.9320 S   0  0  0  0  0  0  0  0  0  0  0  0
   45.7530   31.1150   45.9020 O   0  0  0  0  0  1  0  0  0  0  0  0
   45.0430   32.2020   47.9450 O   0  0  0  0  0  1  0  0  0  0  0  0
   47.5310   31.5390   47.7630 O   0  0  0  0  0  0  0  0  0  0  0  0
   48.3500   31.9900   47.3980 H   0  0  0  0  0  0  0  0  0  0  0  0
   41.9820   35.1350   41.5540 C   0  0  0  0  0  0  0  0  0  0  0  0
   42.1760   35.6410   42.5320 H   0  0  0  0  0  0  0  0  0  0  0  0
   41.4580   34.1960   41.8300 H   0  0  0  0  0  0  0  0  0  0  0  0
   41.0710   36.0380   40.7850 C   0  0  0  0  0  0  0  0  0  0  0  0
   41.7200   36.7360   40.1810 H   0  0  0  0  0  0  0  0  0  0  0  0
   40.4470   36.7030   41.4200 H   0  0  0  0  0  0  0  0  0  0  0  0
   41.8610   36.2570   37.8470 Cl  0  0  0  0  0  0  0  0  0  0  0  0
   40.5260   35.3060   38.4400 C   0  0  0  0  0  0  0  0  0  0  0  0
   40.2460   35.2720   39.8110 C   0  0  0  0  0  0  0  0  0  0  0  0
   39.1750   34.4960   40.1940 C   0  0  0  0  0  0  0  0  0  0  0  0
   38.3510   33.7510   39.3630 C   0  0  0  0  0  0  0  0  0  0  0  0
   38.6560   33.8060   38.0040 C   0  0  0  0  0  0  0  0  0  0  0  0
   37.6740   32.8970   36.8620 Cl  0  0  0  0  0  0  0  0  0  0  0  0
   39.7150   34.5650   37.5700 C   0  0  0  0  0  0  0  0  0  0  0  0
   38.9930   34.4970   41.2640 H   0  0  0  0  0  0  0  0  0  0  0  0
   37.5350   33.1720   39.7540 H   0  0  0  0  0  0  0  0  0  0  0  0
   39.9040   34.5700   36.5030 H   0  0  0  0  0  0  0  0  0  0  0  0
  1 19  1  0  0  0  0
  1  2  1  0  0  0  0
  2  7  1  0  0  0  0
  3  2  2  0  0  0  0
  3  4  1  0  0  0  0
  4  5  2  0  0  0  0
  5  6  1  0  0  0  0
  6 10  1  0  0  0  0
  7  6  2  0  0  0  0
  8  3  1  0  0  0  0
  9  4  1  0  0  0  0
 10 11  2  0  0  0  0
 10 12  1  0  0  0  0
 12 13  1  0  0  0  0
 12 14  1  0  0  0  0
 14 17  1  0  0  0  0
 14 16  1  0  0  0  0
 15 14  1  0  0  0  0
 18 17  1  0  0  0  0
 19 21  1  0  0  0  0
 19 20  1  0  0  0  0
 22 24  1  0  0  0  0
 22 19  1  0  0  0  0
 23 22  1  0  0  0  0
 25 26  1  0  0  0  0
 26 27  1  0  0  0  0
 27 28  2  0  0  0  0
 27 22  1  0  0  0  0
 28 33  1  0  0  0  0
 29 34  1  0  0  0  0
 29 28  1  0  0  0  0
 30 29  2  0  0  0  0
 31 30  1  0  0  0  0
 32 30  1  0  0  0  0
 32 26  2  0  0  0  0
 35 32  1  0  0  0  0
M  END
>  <minimizedAffinity>
-6.75797558

>  <minimizedRMSD>
0.57941401

$$$$
