
     RDKit          3D

 38 40  0  0  0  0  0  0  0  0999 V2000
   48.0797   35.4723   41.8077 C   0  0  1  0  0  0  0  0  0  0  0  0
   49.3207   34.6954   41.6931 C   0  0  0  0  0  0  0  0  0  0  0  0
   48.4857   35.0812   40.4587 C   0  0  1  0  0  0  0  0  0  0  0  0
   46.0476   32.9351   43.7523 C   0  0  0  0  0  0  0  0  0  0  0  0
   47.1410   33.6177   43.2301 C   0  0  0  0  0  0  0  0  0  0  0  0
   46.9135   34.7283   42.3954 C   0  0  0  0  0  0  0  0  0  0  0  0
   45.6373   35.1020   42.1233 N   0  0  0  0  0  0  0  0  0  0  0  0
   44.5879   34.4146   42.6488 C   0  0  0  0  0  0  0  0  0  0  0  0
   44.7961   33.3324   43.4624 N   0  0  0  0  0  0  0  0  0  0  0  0
   47.7684   34.1383   39.8102 O   0  0  0  0  0  0  0  0  0  0  0  0
   48.5241   32.4023   37.9853 O   0  0  0  0  0  0  0  0  0  0  0  0
   48.0976   33.8490   38.2346 P   0  0  2  0  0  0  0  0  0  0  0  0
   49.3319   34.8022   37.5779 O   0  0  0  0  0  0  0  0  0  0  0  0
   46.7384   34.0692   37.2768 O   0  0  0  0  0  0  0  0  0  0  0  0
   45.7819   33.0854   37.0351 C   0  0  0  0  0  0  0  0  0  0  0  0
   45.6410   32.2881   35.9169 C   0  0  0  0  0  0  0  0  0  0  0  0
   44.6554   31.3619   35.8126 C   0  0  0  0  0  0  0  0  0  0  0  0
   43.7668   31.2035   36.8415 C   0  0  0  0  0  0  0  0  0  0  0  0
   43.9317   32.0167   37.9514 C   0  0  0  0  0  0  0  0  0  0  0  0
   44.9222   32.9345   38.0348 N   0  0  0  0  0  0  0  0  0  0  0  0
   48.0415   36.5567   42.0643 H   0  0  0  0  0  0  0  0  0  0  0  0
   50.2505   35.2557   41.9062 H   0  0  0  0  0  0  0  0  0  0  0  0
   49.3142   33.6106   41.8874 H   0  0  0  0  0  0  0  0  0  0  0  0
   49.0534   35.7919   39.8314 H   0  0  0  0  0  0  0  0  0  0  0  0
   46.2393   32.0846   44.3914 H   0  0  0  0  0  0  0  0  0  0  0  0
   48.1151   33.2767   43.4816 H   0  0  0  0  0  0  0  0  0  0  0  0
   43.5967   34.7722   42.3866 H   0  0  0  0  0  0  0  0  0  0  0  0
   49.2586   34.8823   36.6008 H   0  0  0  0  0  0  0  0  0  0  0  0
   46.3860   32.4735   35.1418 H   0  0  0  0  0  0  0  0  0  0  0  0
   44.6113   30.7754   34.9033 H   0  0  0  0  0  0  0  0  0  0  0  0
   42.9982   30.4752   36.7497 H   0  0  0  0  0  0  0  0  0  0  0  0
   43.0636   31.9282   39.0662 N   0  0  0  0  0  0  0  0  0  0  0  0
   42.4903   32.7049   39.4053 H   0  0  0  0  0  0  0  0  0  0  0  0
   42.6298   30.7058   40.1828 S   0  0  0  0  0  0  0  0  0  0  0  0
   42.9608   31.0821   41.6171 O   0  0  0  0  0  0  0  0  0  0  0  0
   43.4130   29.4650   39.8771 O   0  0  0  0  0  0  0  0  0  0  0  0
   40.9663   30.3880   40.0520 O   0  0  0  0  0  0  0  0  0  0  0  0
   40.6668   30.1468   40.9637 H   0  0  0  0  0  0  0  0  0  0  0  0
  1  6  1  0
  2  1  1  0
  3  2  1  0
  3  1  1  0
  5  4  2  0
  6  5  1  0
  7  6  2  0
  7  8  1  0
  8  9  2  0
  9  4  1  0
 10  3  1  0
 12 11  2  0
 12 10  1  1
 13 12  1  0
 14 12  1  0
 15 14  1  0
 15 20  1  0
 16 15  2  0
 17 16  1  0
 17 18  2  0
 18 19  1  0
 19 20  2  0
  1 21  1  6
  2 22  1  0
  2 23  1  0
  3 24  1  6
  4 25  1  0
  5 26  1  0
  8 27  1  0
 13 28  1  0
 16 29  1  0
 17 30  1  0
 18 31  1  0
 32 33  1  0
 32 34  1  0
 34 35  2  0
 34 36  2  0
 34 37  1  0
 37 38  1  0
 19 32  1  0
M  ISO  8  21  13  22  13  23  13  24  13  25  14  26  14  27  14  28   3
M  ISO  5  29  14  30  14  31  14  33   5  38   3
M  END
>  <DihAtoms>  (1) 
17,18,31,32

>  <DihDeg>  (1) 
-179.9578777911048

$$$$
