
 OpenBabel03252501053D

 38 40  0  0  1  0  0  0  0  0999 V2000
   48.5240   32.4020   37.9840 O   0  0  0  0  0  0  0  0  0  0  0  0
   48.1120   33.8540   38.2340 P   0  0  2  0  0  0  0  0  0  0  0  0
   49.3580   34.7940   37.5800 O   0  0  0  0  0  0  0  0  0  0  0  0
   49.2880   34.8750   36.6030 H   0  0  0  0  0  0  0  0  0  0  0  0
   47.7810   34.1450   39.8080 O   0  0  0  0  0  0  0  0  0  0  0  0
   48.1040   35.4730   41.8080 C   0  0  1  0  0  0  0  0  0  0  0  0
   49.3370   34.6850   41.6930 C   0  0  0  0  0  0  0  0  0  0  0  0
   48.5070   35.0810   40.4590 C   0  0  1  0  0  0  0  0  0  0  0  0
   48.0740   36.5580   42.0660 H   0  0  0  0  0  0  0  0  0  0  0  0
   50.2720   35.2370   41.9080 H   0  0  0  0  0  0  0  0  0  0  0  0
   49.3200   33.6010   41.8850 H   0  0  0  0  0  0  0  0  0  0  0  0
   49.0810   35.7880   39.8330 H   0  0  0  0  0  0  0  0  0  0  0  0
   46.0470   32.9520   43.7470 C   0  0  0  0  0  0  0  0  0  0  0  0
   47.1460   33.6260   43.2270 C   0  0  0  0  0  0  0  0  0  0  0  0
   46.9290   34.7390   42.3930 C   0  0  0  0  0  0  0  0  0  0  0  0
   45.6570   35.1240   42.1200 N   0  0  0  0  0  0  0  0  0  0  0  0
   44.6010   34.4460   42.6440 C   0  0  0  0  0  0  0  0  0  0  0  0
   44.7990   33.3600   43.4560 N   0  0  0  0  0  0  0  0  0  0  0  0
   46.2290   32.0990   44.3850 H   0  0  0  0  0  0  0  0  0  0  0  0
   48.1170   33.2760   43.4800 H   0  0  0  0  0  0  0  0  0  0  0  0
   43.6140   34.8120   42.3810 H   0  0  0  0  0  0  0  0  0  0  0  0
   46.7570   34.0880   37.2720 O   0  0  0  0  0  0  0  0  0  0  0  0
   45.7880   33.1160   37.0340 C   0  0  0  0  0  0  0  0  0  0  0  0
   45.6410   32.3100   35.9220 C   0  0  0  0  0  0  0  0  0  0  0  0
   44.6420   31.3980   35.8210 C   0  0  0  0  0  0  0  0  0  0  0  0
   43.7460   31.2630   36.8460 C   0  0  0  0  0  0  0  0  0  0  0  0
   43.9160   32.0850   37.9490 C   0  0  0  0  0  0  0  0  0  0  0  0
   44.9200   32.9870   38.0300 N   0  0  0  0  0  0  0  0  0  0  0  0
   46.3940   32.4780   35.1500 H   0  0  0  0  0  0  0  0  0  0  0  0
   44.5940   30.8030   34.9170 H   0  0  0  0  0  0  0  0  0  0  0  0
   42.9660   30.5460   36.7570 H   0  0  0  0  0  0  0  0  0  0  0  0
   43.0410   32.0200   39.0590 N   0  0  0  0  0  0  0  0  0  0  0  0
   42.8220   32.8190   39.6600 H   0  0  0  0  0  0  0  0  0  0  0  0
   42.0950   30.8010   39.8000 S   0  0  0  0  0  0  0  0  0  0  0  0
   42.4850   30.5600   41.2480 O   0  0  0  0  0  1  0  0  0  0  0  0
   42.3160   29.5060   39.0790 O   0  0  0  0  0  1  0  0  0  0  0  0
   40.4540   31.2350   39.7220 O   0  0  0  0  0  0  0  0  0  0  0  0
   40.0410   30.8720   40.5450 H   0  0  0  0  0  0  0  0  0  0  0  0
  2  1  2  6  0  0  0
  2  5  1  0  0  0  0
  3  2  1  0  0  0  0
  4  3  1  0  0  0  0
  5  8  1  0  0  0  0
  6  9  1  1  0  0  0
  6 15  1  0  0  0  0
  7  6  1  0  0  0  0
  7 11  1  0  0  0  0
  7 10  1  0  0  0  0
  8 12  1  6  0  0  0
  8  7  1  0  0  0  0
  8  6  1  0  0  0  0
 13 19  1  0  0  0  0
 14 20  1  0  0  0  0
 14 13  2  0  0  0  0
 15 14  1  0  0  0  0
 16 15  2  0  0  0  0
 16 17  1  0  0  0  0
 17 18  2  0  0  0  0
 18 13  1  0  0  0  0
 21 17  1  0  0  0  0
 22  2  1  0  0  0  0
 23 22  1  0  0  0  0
 23 28  1  0  0  0  0
 24 23  2  0  0  0  0
 25 24  1  0  0  0  0
 25 26  2  0  0  0  0
 26 27  1  0  0  0  0
 27 28  2  0  0  0  0
 27 32  1  0  0  0  0
 29 24  1  0  0  0  0
 30 25  1  0  0  0  0
 31 26  1  0  0  0  0
 32 33  1  0  0  0  0
 32 34  1  0  0  0  0
 34 35  1  0  0  0  0
 36 34  1  0  0  0  0
 37 34  1  0  0  0  0
 37 38  1  0  0  0  0
M  END
>  <minimizedAffinity>
-4.46747398

>  <minimizedRMSD>
0.0628913864

$$$$
