
 OpenBabel03252507373D

 36 39  0  0  0  0  0  0  0  0999 V2000
   45.5970   34.7780   43.4890 C   0  0  0  0  0  0  0  0  0  0  0  0
   46.3090   33.7130   44.0900 C   0  0  0  0  0  0  0  0  0  0  0  0
   46.1040   33.4910   45.4390 C   0  0  0  0  0  0  0  0  0  0  0  0
   45.2470   34.2850   46.1140 N   0  0  0  0  0  0  0  0  0  0  0  0
   44.5710   35.3040   45.5150 C   0  0  0  0  0  0  0  0  0  0  0  0
   44.7510   35.5380   44.2240 N   0  0  0  0  0  0  0  0  0  0  0  0
   46.9870   33.0790   43.5780 H   0  0  0  0  0  0  0  0  0  0  0  0
   43.9010   35.8860   46.1520 H   0  0  0  0  0  0  0  0  0  0  0  0
   47.0060   32.6750   47.5510 C   0  0  0  0  0  0  0  0  0  0  0  0
   46.7580   32.4380   46.2030 C   0  0  0  0  0  0  0  0  0  0  0  0
   47.1390   31.2280   45.6730 C   0  0  0  0  0  0  0  0  0  0  0  0
   47.7540   30.2520   46.4260 C   0  0  0  0  0  0  0  0  0  0  0  0
   48.2060   29.0110   46.1200 N   0  0  0  0  0  0  0  0  0  0  0  0
   48.7350   28.4740   47.2710 C   0  0  0  0  0  0  0  0  0  0  0  0
   48.6010   29.3770   48.2460 N   0  0  0  0  0  0  0  0  0  0  0  0
   48.0020   30.4780   47.7550 C   0  0  0  0  0  0  0  0  0  0  0  0
   47.6300   31.6810   48.3110 C   0  0  0  0  0  0  0  0  0  0  0  0
   46.7630   33.5630   48.0840 H   0  0  0  0  0  0  0  0  0  0  0  0
   46.9460   31.0460   44.6290 H   0  0  0  0  0  0  0  0  0  0  0  0
   48.1310   28.6000   45.1550 H   0  0  0  0  0  0  0  0  0  0  0  0
   49.1480   27.4700   47.2070 H   0  0  0  0  0  0  0  0  0  0  0  0
   47.8390   31.8290   49.3620 H   0  0  0  0  0  0  0  0  0  0  0  0
   45.7990   35.0070   42.1290 O   0  0  0  0  0  0  0  0  0  0  0  0
   44.7750   34.7880   41.2230 C   0  0  0  0  0  0  0  0  0  0  0  0
   45.1940   33.6500   40.6230 C   0  0  0  0  0  0  0  0  0  0  0  0
   43.7820   33.3410   39.3700 S   0  0  0  0  0  0  0  0  0  0  0  0
   42.9230   34.9030   39.9920 C   0  0  0  0  0  0  0  0  0  0  0  0
   43.6320   35.2420   40.7660 N   0  0  0  0  0  0  0  0  0  0  0  0
   45.9430   32.7870   40.4750 H   0  0  0  0  0  0  0  0  0  0  0  0
   41.6750   35.2350   39.3620 N   0  0  0  0  0  0  0  0  0  0  0  0
   41.5620   35.4240   38.3450 H   0  0  0  0  0  0  0  0  0  0  0  0
   40.3130   35.3110   40.3760 S   0  0  0  0  0  0  0  0  0  0  0  0
   40.4560   34.4740   41.6150 O   0  0  0  0  0  1  0  0  0  0  0  0
   40.0670   36.7470   40.8140 O   0  0  0  0  0  1  0  0  0  0  0  0
   38.9030   34.8230   39.6060 O   0  0  0  0  0  0  0  0  0  0  0  0
   38.9560   34.9390   38.6240 H   0  0  0  0  0  0  0  0  0  0  0  0
  1  2  2  0  0  0  0
  1  6  1  0  0  0  0
  2  3  1  0  0  0  0
  3  4  2  0  0  0  0
  3 10  1  0  0  0  0
  5  4  1  0  0  0  0
  5  8  1  0  0  0  0
  6  5  2  0  0  0  0
  7  2  1  0  0  0  0
  9 18  1  0  0  0  0
  9 17  1  0  0  0  0
 10  9  2  0  0  0  0
 11 10  1  0  0  0  0
 11 12  2  0  0  0  0
 12 16  1  0  0  0  0
 13 12  1  0  0  0  0
 13 14  1  0  0  0  0
 14 15  2  0  0  0  0
 16 15  1  0  0  0  0
 16 17  2  0  0  0  0
 17 22  1  0  0  0  0
 19 11  1  0  0  0  0
 20 13  1  0  0  0  0
 21 14  1  0  0  0  0
 23  1  1  0  0  0  0
 24 23  1  0  0  0  0
 25 24  2  0  0  0  0
 26 27  1  0  0  0  0
 26 25  1  0  0  0  0
 27 28  2  0  0  0  0
 28 24  1  0  0  0  0
 29 25  1  0  0  0  0
 30 27  1  0  0  0  0
 30 32  1  0  0  0  0
 31 30  1  0  0  0  0
 32 34  1  0  0  0  0
 32 33  1  0  0  0  0
 35 32  1  0  0  0  0
 36 35  1  0  0  0  0
M  END
>  <minimizedAffinity>
-6.49731731

>  <minimizedRMSD>
0.309573621

$$$$
