
 OpenBabel03252508013D

 27 28  0  0  1  0  0  0  0  0999 V2000
   46.2190   34.7810   43.2470 C   0  0  0  0  0  0  0  0  0  0  0  0
   45.2740   35.7900   43.6000 C   0  0  0  0  0  0  0  0  0  0  0  0
   44.6320   35.6140   44.8260 C   0  0  0  0  0  0  0  0  0  0  0  0
   44.9340   34.5290   45.5810 N   0  0  0  0  0  0  0  0  0  0  0  0
   45.8590   33.6010   45.1640 C   0  0  0  0  0  0  0  0  0  0  0  0
   46.5070   33.7030   44.0200 N   0  0  0  0  0  0  0  0  0  0  0  0
   45.1040   36.6150   42.9290 H   0  0  0  0  0  0  0  0  0  0  0  0
   43.9070   36.3530   45.1340 H   0  0  0  0  0  0  0  0  0  0  0  0
   46.1470   32.4330   46.0490 C   0  0  1  0  0  0  0  0  0  0  0  0
   46.9900   32.6450   47.2840 C   0  0  0  0  0  0  0  0  0  0  0  0
   45.4950   32.4960   47.3770 C   0  0  1  0  0  0  0  0  0  0  0  0
   46.3030   31.5060   45.4860 H   0  0  0  0  0  0  0  0  0  0  0  0
   47.6400   31.8100   47.5550 H   0  0  0  0  0  0  0  0  0  0  0  0
   47.4790   33.6260   47.3300 H   0  0  0  0  0  0  0  0  0  0  0  0
   45.1380   31.5380   47.7740 H   0  0  0  0  0  0  0  0  0  0  0  0
   44.8600   33.7450   47.8060 N   0  0  0  0  0  0  0  0  0  0  0  0
   43.8290   33.6120   47.7950 H   0  0  0  0  0  0  0  0  0  0  0  0
   45.1950   34.0240   48.7650 H   0  0  0  0  0  0  0  0  0  0  0  0
   46.8870   34.9750   41.9720 C   0  0  0  0  0  0  0  0  0  0  0  0
   48.0330   35.5370   41.8530 O   0  0  0  0  0  0  0  0  0  0  0  0
   46.2020   34.5000   40.8000 N   0  0  0  0  0  0  0  0  0  0  0  0
   46.5140   34.8160   39.8380 H   0  0  0  0  0  0  0  0  0  0  0  0
   44.8620   33.4080   40.9460 S   0  0  0  0  0  0  0  0  0  0  0  0
   43.7530   34.1170   41.6730 O   0  0  0  0  0  1  0  0  0  0  0  0
   45.3330   32.1900   41.7110 O   0  0  0  0  0  1  0  0  0  0  0  0
   44.3290   32.9490   39.4280 O   0  0  0  0  0  0  0  0  0  0  0  0
   43.6920   33.6260   39.0540 H   0  0  0  0  0  0  0  0  0  0  0  0
  1  2  2  0  0  0  0
  1  6  1  0  0  0  0
  2  3  1  0  0  0  0
  3  8  1  0  0  0  0
  3  4  2  0  0  0  0
  5  4  1  0  0  0  0
  5  9  1  0  0  0  0
  6  5  2  0  0  0  0
  7  2  1  0  0  0  0
  9 12  1  6  0  0  0
  9 10  1  0  0  0  0
  9 11  1  0  0  0  0
 10 14  1  0  0  0  0
 10 11  1  0  0  0  0
 10 13  1  0  0  0  0
 11 15  1  1  0  0  0
 11 16  1  0  0  0  0
 16 18  1  0  0  0  0
 17 16  1  0  0  0  0
 19  1  1  0  0  0  0
 20 19  2  0  0  0  0
 21 23  1  0  0  0  0
 21 19  1  0  0  0  0
 22 21  1  0  0  0  0
 23 24  1  0  0  0  0
 23 25  1  0  0  0  0
 26 23  1  0  0  0  0
 27 26  1  0  0  0  0
M  END
>  <minimizedAffinity>
-5.18062401

>  <minimizedRMSD>
0.105477579

$$$$
