
 OpenBabel03252507373D

 36 39  0  0  0  0  0  0  0  0999 V2000
   45.5080   34.8420   43.4120 C   0  0  0  0  0  0  0  0  0  0  0  0
   46.2190   33.7710   44.0030 C   0  0  0  0  0  0  0  0  0  0  0  0
   46.0330   33.5530   45.3550 C   0  0  0  0  0  0  0  0  0  0  0  0
   45.1950   34.3570   46.0420 N   0  0  0  0  0  0  0  0  0  0  0  0
   44.5200   35.3820   45.4530 C   0  0  0  0  0  0  0  0  0  0  0  0
   44.6820   35.6120   44.1580 N   0  0  0  0  0  0  0  0  0  0  0  0
   46.8820   33.1300   43.4810 H   0  0  0  0  0  0  0  0  0  0  0  0
   43.8660   35.9720   46.0990 H   0  0  0  0  0  0  0  0  0  0  0  0
   46.8910   32.7000   47.4710 C   0  0  0  0  0  0  0  0  0  0  0  0
   46.6890   32.4950   46.1110 C   0  0  0  0  0  0  0  0  0  0  0  0
   47.1130   31.3090   45.5610 C   0  0  0  0  0  0  0  0  0  0  0  0
   47.7280   30.3270   46.3050 C   0  0  0  0  0  0  0  0  0  0  0  0
   48.2180   29.1050   45.9800 N   0  0  0  0  0  0  0  0  0  0  0  0
   48.7250   28.5490   47.1320 C   0  0  0  0  0  0  0  0  0  0  0  0
   48.5410   29.4220   48.1270 N   0  0  0  0  0  0  0  0  0  0  0  0
   47.9310   30.5220   47.6470 C   0  0  0  0  0  0  0  0  0  0  0  0
   47.5150   31.7010   48.2240 C   0  0  0  0  0  0  0  0  0  0  0  0
   46.6110   33.5680   48.0200 H   0  0  0  0  0  0  0  0  0  0  0  0
   46.9560   31.1510   44.5070 H   0  0  0  0  0  0  0  0  0  0  0  0
   48.1820   28.7190   45.0030 H   0  0  0  0  0  0  0  0  0  0  0  0
   49.1630   27.5570   47.0550 H   0  0  0  0  0  0  0  0  0  0  0  0
   47.6890   31.8250   49.2840 H   0  0  0  0  0  0  0  0  0  0  0  0
   45.6910   35.0670   42.0480 O   0  0  0  0  0  0  0  0  0  0  0  0
   44.7070   34.7090   41.1420 C   0  0  0  0  0  0  0  0  0  0  0  0
   45.3490   33.7650   40.4160 C   0  0  0  0  0  0  0  0  0  0  0  0
   43.9940   33.2630   39.1630 S   0  0  0  0  0  0  0  0  0  0  0  0
   42.8280   34.5140   39.9630 C   0  0  0  0  0  0  0  0  0  0  0  0
   43.4730   34.9280   40.7560 N   0  0  0  0  0  0  0  0  0  0  0  0
   46.2690   33.1170   40.1640 H   0  0  0  0  0  0  0  0  0  0  0  0
   41.5120   34.6080   39.3940 N   0  0  0  0  0  0  0  0  0  0  0  0
   41.2890   34.4230   38.3940 H   0  0  0  0  0  0  0  0  0  0  0  0
   40.2600   35.0510   40.4550 S   0  0  0  0  0  0  0  0  0  0  0  0
   40.3100   34.3150   41.7620 O   0  0  0  0  0  1  0  0  0  0  0  0
   40.3350   36.5410   40.7580 O   0  0  0  0  0  1  0  0  0  0  0  0
   38.7350   34.7980   39.7970 O   0  0  0  0  0  0  0  0  0  0  0  0
   38.7470   34.8140   38.8080 H   0  0  0  0  0  0  0  0  0  0  0  0
  1  2  2  0  0  0  0
  1  6  1  0  0  0  0
  2  3  1  0  0  0  0
  3  4  2  0  0  0  0
  3 10  1  0  0  0  0
  5  4  1  0  0  0  0
  5  8  1  0  0  0  0
  6  5  2  0  0  0  0
  7  2  1  0  0  0  0
  9 18  1  0  0  0  0
  9 17  1  0  0  0  0
 10  9  2  0  0  0  0
 11 10  1  0  0  0  0
 11 12  2  0  0  0  0
 12 16  1  0  0  0  0
 13 12  1  0  0  0  0
 13 14  1  0  0  0  0
 14 15  2  0  0  0  0
 16 15  1  0  0  0  0
 16 17  2  0  0  0  0
 17 22  1  0  0  0  0
 19 11  1  0  0  0  0
 20 13  1  0  0  0  0
 21 14  1  0  0  0  0
 23  1  1  0  0  0  0
 24 23  1  0  0  0  0
 25 24  2  0  0  0  0
 26 27  1  0  0  0  0
 26 25  1  0  0  0  0
 27 28  2  0  0  0  0
 28 24  1  0  0  0  0
 29 25  1  0  0  0  0
 30 27  1  0  0  0  0
 30 32  1  0  0  0  0
 31 30  1  0  0  0  0
 32 34  1  0  0  0  0
 32 33  1  0  0  0  0
 35 32  1  0  0  0  0
 36 35  1  0  0  0  0
M  END
>  <minimizedAffinity>
-6.42931509

>  <minimizedRMSD>
0.702538252

$$$$
