
 OpenBabel03252507373D

 36 39  0  0  0  0  0  0  0  0999 V2000
   45.5290   34.8050   43.3720 C   0  0  0  0  0  0  0  0  0  0  0  0
   46.2220   33.7330   43.9830 C   0  0  0  0  0  0  0  0  0  0  0  0
   46.0220   33.5360   45.3370 C   0  0  0  0  0  0  0  0  0  0  0  0
   45.1900   34.3600   46.0060 N   0  0  0  0  0  0  0  0  0  0  0  0
   44.5340   35.3860   45.3980 C   0  0  0  0  0  0  0  0  0  0  0  0
   44.7080   35.5960   44.1020 N   0  0  0  0  0  0  0  0  0  0  0  0
   46.8800   33.0760   43.4750 H   0  0  0  0  0  0  0  0  0  0  0  0
   43.8830   35.9930   46.0310 H   0  0  0  0  0  0  0  0  0  0  0  0
   46.9270   32.7320   47.4520 C   0  0  0  0  0  0  0  0  0  0  0  0
   46.6580   32.4800   46.1120 C   0  0  0  0  0  0  0  0  0  0  0  0
   47.0010   31.2510   45.5980 C   0  0  0  0  0  0  0  0  0  0  0  0
   47.5990   30.2720   46.3600 C   0  0  0  0  0  0  0  0  0  0  0  0
   48.0150   29.0150   46.0710 N   0  0  0  0  0  0  0  0  0  0  0  0
   48.5430   28.4830   47.2240 C   0  0  0  0  0  0  0  0  0  0  0  0
   48.4440   29.4060   48.1860 N   0  0  0  0  0  0  0  0  0  0  0  0
   47.8680   30.5140   47.6830 C   0  0  0  0  0  0  0  0  0  0  0  0
   47.5340   31.7350   48.2230 C   0  0  0  0  0  0  0  0  0  0  0  0
   46.7140   33.6350   47.9730 H   0  0  0  0  0  0  0  0  0  0  0  0
   46.7920   31.0570   44.5600 H   0  0  0  0  0  0  0  0  0  0  0  0
   47.9190   28.5900   45.1140 H   0  0  0  0  0  0  0  0  0  0  0  0
   48.9290   27.4680   47.1740 H   0  0  0  0  0  0  0  0  0  0  0  0
   47.7590   31.8950   49.2680 H   0  0  0  0  0  0  0  0  0  0  0  0
   45.7260   35.0090   42.0070 O   0  0  0  0  0  0  0  0  0  0  0  0
   44.7110   34.7360   41.1060 C   0  0  0  0  0  0  0  0  0  0  0  0
   45.2410   33.6970   40.4200 C   0  0  0  0  0  0  0  0  0  0  0  0
   43.8420   33.3130   39.1740 S   0  0  0  0  0  0  0  0  0  0  0  0
   42.8280   34.7200   39.9180 C   0  0  0  0  0  0  0  0  0  0  0  0
   43.5130   35.0850   40.7010 N   0  0  0  0  0  0  0  0  0  0  0  0
   46.0790   32.9370   40.2000 H   0  0  0  0  0  0  0  0  0  0  0  0
   41.5340   34.9480   39.3340 N   0  0  0  0  0  0  0  0  0  0  0  0
   41.3470   34.9700   38.3110 H   0  0  0  0  0  0  0  0  0  0  0  0
   40.2480   35.1900   40.4190 S   0  0  0  0  0  0  0  0  0  0  0  0
   40.4020   34.4170   41.6950 O   0  0  0  0  0  1  0  0  0  0  0  0
   40.1410   36.6660   40.7800 O   0  0  0  0  0  1  0  0  0  0  0  0
   38.7590   34.7750   39.7600 O   0  0  0  0  0  0  0  0  0  0  0  0
   38.7600   34.8310   38.7730 H   0  0  0  0  0  0  0  0  0  0  0  0
  1  2  2  0  0  0  0
  1  6  1  0  0  0  0
  2  3  1  0  0  0  0
  3  4  2  0  0  0  0
  3 10  1  0  0  0  0
  5  4  1  0  0  0  0
  5  8  1  0  0  0  0
  6  5  2  0  0  0  0
  7  2  1  0  0  0  0
  9 18  1  0  0  0  0
  9 17  1  0  0  0  0
 10  9  2  0  0  0  0
 11 10  1  0  0  0  0
 11 12  2  0  0  0  0
 12 16  1  0  0  0  0
 13 12  1  0  0  0  0
 13 14  1  0  0  0  0
 14 15  2  0  0  0  0
 16 15  1  0  0  0  0
 16 17  2  0  0  0  0
 17 22  1  0  0  0  0
 19 11  1  0  0  0  0
 20 13  1  0  0  0  0
 21 14  1  0  0  0  0
 23  1  1  0  0  0  0
 24 23  1  0  0  0  0
 25 24  2  0  0  0  0
 26 27  1  0  0  0  0
 26 25  1  0  0  0  0
 27 28  2  0  0  0  0
 28 24  1  0  0  0  0
 29 25  1  0  0  0  0
 30 27  1  0  0  0  0
 30 32  1  0  0  0  0
 31 30  1  0  0  0  0
 32 34  1  0  0  0  0
 32 33  1  0  0  0  0
 35 32  1  0  0  0  0
 36 35  1  0  0  0  0
M  END
>  <minimizedAffinity>
-6.49299908

>  <minimizedRMSD>
0.478078276

$$$$
