
 OpenBabel03252507213D

 45 47  0  0  1  0  0  0  0  0999 V2000
   47.2190   33.6600   42.8100 C   0  0  0  0  0  0  0  0  0  0  0  0
   48.3650   33.4780   43.3400 O   0  0  0  0  0  0  0  0  0  0  0  0
   46.8520   33.1170   41.5510 N   0  0  0  0  0  0  0  0  0  0  0  0
   45.6100   32.4500   41.1320 C   0  0  0  0  0  0  0  0  0  0  0  0
   45.0900   33.1030   39.8590 C   0  0  0  0  0  0  0  0  0  0  0  0
   46.0640   32.9280   38.7350 C   0  0  0  0  0  0  0  0  0  0  0  0
   47.3870   32.4160   39.2910 C   0  0  0  0  0  0  0  0  0  0  0  0
   47.8130   33.2040   40.4810 C   0  0  2  0  0  0  0  0  0  0  0  0
   44.8530   32.6710   41.9390 H   0  0  0  0  0  0  0  0  0  0  0  0
   45.7320   31.3700   41.0610 H   0  0  0  0  0  0  0  0  0  0  0  0
   44.1390   32.6060   39.6280 H   0  0  0  0  0  0  0  0  0  0  0  0
   44.9150   34.1710   40.1090 H   0  0  0  0  0  0  0  0  0  0  0  0
   45.7160   32.1250   38.0430 H   0  0  0  0  0  0  0  0  0  0  0  0
   46.1840   33.8290   38.1280 H   0  0  0  0  0  0  0  0  0  0  0  0
   48.1850   32.4540   38.5210 H   0  0  0  0  0  0  0  0  0  0  0  0
   47.1880   31.3590   39.6330 H   0  0  0  0  0  0  0  0  0  0  0  0
   47.8610   34.3010   40.2160 H   0  0  0  0  0  0  0  0  0  0  0  0
   45.8790   35.6950   42.9690 C   0  0  0  0  0  0  0  0  0  0  0  0
   46.2610   34.4550   43.5340 C   0  0  0  0  0  0  0  0  0  0  0  0
   45.7200   34.0390   44.7430 C   0  0  0  0  0  0  0  0  0  0  0  0
   44.8290   34.8620   45.3390 N   0  0  0  0  0  0  0  0  0  0  0  0
   44.4480   36.0580   44.8130 C   0  0  0  0  0  0  0  0  0  0  0  0
   44.9830   36.4510   43.6330 N   0  0  0  0  0  0  0  0  0  0  0  0
   46.3010   36.0170   42.0260 H   0  0  0  0  0  0  0  0  0  0  0  0
   43.7370   36.5880   45.4060 H   0  0  0  0  0  0  0  0  0  0  0  0
   46.1360   32.7730   45.2850 C   0  0  0  0  0  0  0  0  0  0  0  0
   45.7440   31.6080   44.7180 C   0  0  0  0  0  0  0  0  0  0  0  0
   46.1640   30.4140   45.2680 C   0  0  0  0  0  0  0  0  0  0  0  0
   46.9810   30.3480   46.3910 C   0  0  0  0  0  0  0  0  0  0  0  0
   47.3540   31.5640   46.9350 C   0  0  0  0  0  0  0  0  0  0  0  0
   46.9300   32.7050   46.3780 N   0  0  0  0  0  0  0  0  0  0  0  0
   45.1160   31.5210   43.8510 H   0  0  0  0  0  0  0  0  0  0  0  0
   45.8680   29.4600   44.8360 H   0  0  0  0  0  0  0  0  0  0  0  0
   47.2790   29.3890   46.7800 H   0  0  0  0  0  0  0  0  0  0  0  0
   47.9960   31.5610   47.8200 H   0  0  0  0  0  0  0  0  0  0  0  0
   49.2050   32.8250   40.8800 C   0  0  0  0  0  0  0  0  0  0  0  0
   49.7230   33.8100   41.1090 H   0  0  0  0  0  0  0  0  0  0  0  0
   49.3030   32.2450   41.7990 H   0  0  0  0  0  0  0  0  0  0  0  0
   49.8920   32.3100   39.7270 N   0  0  0  0  0  0  0  0  0  0  0  0
   50.1500   33.1500   39.1270 H   0  0  0  0  0  0  0  0  0  0  0  0
   51.3920   31.5640   40.1420 S   0  0  0  0  0  0  0  0  0  0  0  0
   51.1920   30.2180   40.7590 O   0  0  0  0  0  0  0  0  0  0  0  0
   52.2400   31.5000   38.9030 O   0  0  0  0  0  0  0  0  0  0  0  0
   52.2250   32.5070   41.2650 O   0  0  0  0  0  0  0  0  0  0  0  0
   53.1880   32.2920   41.1480 H   0  0  0  0  0  0  0  0  0  0  0  0
  1  2  2  0  0  0  0
  1 19  1  0  0  0  0
  3  1  1  0  0  0  0
  4  3  1  0  0  0  0
  4  9  1  0  0  0  0
  5 12  1  0  0  0  0
  5  4  1  0  0  0  0
  6  7  1  0  0  0  0
  6  5  1  0  0  0  0
  7 16  1  0  0  0  0
  7  8  1  0  0  0  0
  8 17  1  6  0  0  0
  8 36  1  0  0  0  0
  8  3  1  0  0  0  0
 10  4  1  0  0  0  0
 11  5  1  0  0  0  0
 13  6  1  0  0  0  0
 14  6  1  0  0  0  0
 15  7  1  0  0  0  0
 18 19  2  0  0  0  0
 18 23  1  0  0  0  0
 19 20  1  0  0  0  0
 20 26  1  0  0  0  0
 20 21  2  0  0  0  0
 22 21  1  0  0  0  0
 22 25  1  0  0  0  0
 23 22  2  0  0  0  0
 24 18  1  0  0  0  0
 26 31  1  0  0  0  0
 27 28  1  0  0  0  0
 27 26  2  0  0  0  0
 28 29  2  0  0  0  0
 29 34  1  0  0  0  0
 29 30  1  0  0  0  0
 30 35  1  0  0  0  0
 31 30  2  0  0  0  0
 32 27  1  0  0  0  0
 33 28  1  0  0  0  0
 36 37  1  0  0  0  0
 36 38  1  0  0  0  0
 39 41  1  0  0  0  0
 39 36  1  0  0  0  0
 40 39  1  0  0  0  0
 41 42  1  0  0  0  0
 41 44  1  0  0  0  0
 43 41  1  0  0  0  0
 45 44  1  0  0  0  0
M  END
>  <minimizedAffinity>
-5.49490786

>  <minimizedRMSD>
1.85664737

$$$$
