
 OpenBabel03252505013D

 30 31  0  0  1  0  0  0  0  0999 V2000
   36.0600   29.9440   40.2170 C   0  0  2  0  0  0  0  0  0  0  0  0
   34.8270   29.2100   39.8820 C   0  0  0  0  0  0  0  0  0  0  0  0
   34.9300   28.3220   38.6880 C   0  0  0  0  0  0  0  0  0  0  0  0
   35.3310   29.2330   37.5450 C   0  0  0  0  0  0  0  0  0  0  0  0
   36.7080   29.7650   37.7540 C   0  0  0  0  0  0  0  0  0  0  0  0
   37.0710   30.1240   39.1670 C   0  0  0  0  0  0  0  0  0  0  0  0
   35.7820   30.9840   40.5820 H   0  0  0  0  0  0  0  0  0  0  0  0
   34.0180   29.9500   39.6460 H   0  0  0  0  0  0  0  0  0  0  0  0
   34.4470   28.6010   40.7280 H   0  0  0  0  0  0  0  0  0  0  0  0
   33.9130   27.9640   38.4480 H   0  0  0  0  0  0  0  0  0  0  0  0
   35.5930   27.4560   38.7880 H   0  0  0  0  0  0  0  0  0  0  0  0
   35.4050   28.5780   36.6560 H   0  0  0  0  0  0  0  0  0  0  0  0
   34.5700   29.9870   37.3690 H   0  0  0  0  0  0  0  0  0  0  0  0
   37.4250   29.8910   36.9990 H   0  0  0  0  0  0  0  0  0  0  0  0
   38.1860   29.2780   43.1600 C   0  0  0  0  0  0  0  0  0  0  0  0
   37.7050   28.0390   43.6270 C   0  0  0  0  0  0  0  0  0  0  0  0
   36.6460   27.4520   42.9070 C   0  0  0  0  0  0  0  0  0  0  0  0
   36.1570   28.0990   41.8250 N   0  0  0  0  0  0  0  0  0  0  0  0
   36.6490   29.2870   41.4100 C   0  0  0  0  0  0  0  0  0  0  0  0
   37.6590   29.8680   42.0790 N   0  0  0  0  0  0  0  0  0  0  0  0
   39.0000   29.6670   43.7620 H   0  0  0  0  0  0  0  0  0  0  0  0
   38.1220   27.5400   44.5090 H   0  0  0  0  0  0  0  0  0  0  0  0
   36.2260   26.5190   43.1930 H   0  0  0  0  0  0  0  0  0  0  0  0
   38.4100   30.6390   39.2860 N   0  0  0  0  0  0  0  0  0  0  0  0
   38.6660   29.6040   39.2590 H   0  0  0  0  0  0  0  0  0  0  0  0
   37.9910   32.3300   39.3290 S   0  0  0  0  0  0  0  0  0  0  0  0
   37.2660   32.6980   38.0800 O   0  0  0  0  0  1  0  0  0  0  0  0
   39.3110   33.0980   39.3120 O   0  0  0  0  0  1  0  0  0  0  0  0
   37.1150   32.7410   40.6780 O   0  0  0  0  0  0  0  0  0  0  0  0
   37.1210   33.7300   40.7540 H   0  0  0  0  0  0  0  0  0  0  0  0
  1  7  1  1  0  0  0
  1 19  1  0  0  0  0
  2  1  1  0  0  0  0
  2  9  1  0  0  0  0
  3 11  1  0  0  0  0
  3  2  1  0  0  0  0
  4  5  1  0  0  0  0
  4  3  1  0  0  0  0
  5  6  2  0  0  0  0
  6 24  1  0  0  0  0
  6  1  1  0  0  0  0
  8  2  1  0  0  0  0
 10  3  1  0  0  0  0
 12  4  1  0  0  0  0
 13  4  1  0  0  0  0
 14  5  1  0  0  0  0
 15 16  1  0  0  0  0
 15 21  1  0  0  0  0
 16 22  1  0  0  0  0
 17 23  1  0  0  0  0
 17 16  2  0  0  0  0
 18 17  1  0  0  0  0
 19 18  2  0  0  0  0
 19 20  1  0  0  0  0
 20 15  2  0  0  0  0
 24 26  1  0  0  0  0
 25 24  1  0  0  0  0
 26 29  1  0  0  0  0
 27 26  1  0  0  0  0
 28 26  1  0  0  0  0
 29 30  1  0  0  0  0
M  END
>  <minimizedAffinity>
-5.09613705

$$$$

 OpenBabel03252505013D

 30 31  0  0  1  0  0  0  0  0999 V2000
   36.0280   29.9350   40.2110 C   0  0  2  0  0  0  0  0  0  0  0  0
   34.7940   29.2060   39.8690 C   0  0  0  0  0  0  0  0  0  0  0  0
   34.8970   28.3250   38.6710 C   0  0  0  0  0  0  0  0  0  0  0  0
   35.3030   29.2400   37.5330 C   0  0  0  0  0  0  0  0  0  0  0  0
   36.6810   29.7660   37.7480 C   0  0  0  0  0  0  0  0  0  0  0  0
   37.0420   30.1170   39.1640 C   0  0  0  0  0  0  0  0  0  0  0  0
   35.7530   30.9730   40.5800 H   0  0  0  0  0  0  0  0  0  0  0  0
   33.9880   29.9510   39.6360 H   0  0  0  0  0  0  0  0  0  0  0  0
   34.4100   28.5940   40.7110 H   0  0  0  0  0  0  0  0  0  0  0  0
   33.8780   27.9710   38.4260 H   0  0  0  0  0  0  0  0  0  0  0  0
   35.5560   27.4560   38.7670 H   0  0  0  0  0  0  0  0  0  0  0  0
   35.3760   28.5900   36.6410 H   0  0  0  0  0  0  0  0  0  0  0  0
   34.5450   29.9980   37.3600 H   0  0  0  0  0  0  0  0  0  0  0  0
   37.4000   29.8940   36.9950 H   0  0  0  0  0  0  0  0  0  0  0  0
   36.6740   27.4800   42.8910 C   0  0  0  0  0  0  0  0  0  0  0  0
   37.7370   28.0630   43.6080 C   0  0  0  0  0  0  0  0  0  0  0  0
   38.2110   29.3070   43.1470 C   0  0  0  0  0  0  0  0  0  0  0  0
   37.6320   29.8640   42.0600 N   0  0  0  0  0  0  0  0  0  0  0  0
   36.6130   29.2690   41.4010 C   0  0  0  0  0  0  0  0  0  0  0  0
   36.1410   28.0820   41.8200 N   0  0  0  0  0  0  0  0  0  0  0  0
   36.3630   26.5260   43.3020 H   0  0  0  0  0  0  0  0  0  0  0  0
   38.1870   27.5870   44.4860 H   0  0  0  0  0  0  0  0  0  0  0  0
   39.0100   29.8140   43.6320 H   0  0  0  0  0  0  0  0  0  0  0  0
   38.3830   30.6270   39.2880 N   0  0  0  0  0  0  0  0  0  0  0  0
   38.6350   29.5900   39.2620 H   0  0  0  0  0  0  0  0  0  0  0  0
   37.9700   32.3200   39.3300 S   0  0  0  0  0  0  0  0  0  0  0  0
   37.2560   32.6920   38.0750 O   0  0  0  0  0  1  0  0  0  0  0  0
   39.2930   33.0820   39.3240 O   0  0  0  0  0  1  0  0  0  0  0  0
   37.0850   32.7320   40.6730 O   0  0  0  0  0  0  0  0  0  0  0  0
   37.0940   33.7210   40.7490 H   0  0  0  0  0  0  0  0  0  0  0  0
  1  7  1  1  0  0  0
  1 19  1  0  0  0  0
  2  1  1  0  0  0  0
  2  9  1  0  0  0  0
  3 11  1  0  0  0  0
  3  2  1  0  0  0  0
  4  5  1  0  0  0  0
  4  3  1  0  0  0  0
  5  6  2  0  0  0  0
  6 24  1  0  0  0  0
  6  1  1  0  0  0  0
  8  2  1  0  0  0  0
 10  3  1  0  0  0  0
 12  4  1  0  0  0  0
 13  4  1  0  0  0  0
 14  5  1  0  0  0  0
 15 21  1  0  0  0  0
 15 16  1  0  0  0  0
 16 22  1  0  0  0  0
 17 16  2  0  0  0  0
 17 23  1  0  0  0  0
 18 17  1  0  0  0  0
 19 20  1  0  0  0  0
 19 18  2  0  0  0  0
 20 15  2  0  0  0  0
 24 26  1  0  0  0  0
 25 24  1  0  0  0  0
 26 29  1  0  0  0  0
 27 26  1  0  0  0  0
 28 26  1  0  0  0  0
 29 30  1  0  0  0  0
M  END
>  <minimizedAffinity>
-5.09199476

$$$$

 OpenBabel03252505013D

 30 31  0  0  1  0  0  0  0  0999 V2000
   38.4790   27.7190   40.9700 C   0  0  2  0  0  0  0  0  0  0  0  0
   39.9140   27.8820   41.2590 C   0  0  0  0  0  0  0  0  0  0  0  0
   40.2260   28.3750   42.6320 C   0  0  0  0  0  0  0  0  0  0  0  0
   39.5080   29.7040   42.7530 C   0  0  0  0  0  0  0  0  0  0  0  0
   38.0310   29.5070   42.7370 C   0  0  0  0  0  0  0  0  0  0  0  0
   37.5130   28.4530   41.7990 C   0  0  0  0  0  0  0  0  0  0  0  0
   38.2820   28.0260   39.8940 H   0  0  0  0  0  0  0  0  0  0  0  0
   40.3410   28.6420   40.5540 H   0  0  0  0  0  0  0  0  0  0  0  0
   40.4930   26.9500   41.0910 H   0  0  0  0  0  0  0  0  0  0  0  0
   41.3060   28.6090   42.6660 H   0  0  0  0  0  0  0  0  0  0  0  0
   39.9890   27.6920   43.4540 H   0  0  0  0  0  0  0  0  0  0  0  0
   39.7410   30.0750   43.7690 H   0  0  0  0  0  0  0  0  0  0  0  0
   39.8840   30.4120   42.0200 H   0  0  0  0  0  0  0  0  0  0  0  0
   37.3480   30.0360   43.3320 H   0  0  0  0  0  0  0  0  0  0  0  0
   38.2990   24.1670   39.9810 C   0  0  0  0  0  0  0  0  0  0  0  0
   37.6490   23.5640   41.0750 C   0  0  0  0  0  0  0  0  0  0  0  0
   37.2800   24.4060   42.1420 C   0  0  0  0  0  0  0  0  0  0  0  0
   37.5660   25.7250   42.0610 N   0  0  0  0  0  0  0  0  0  0  0  0
   38.1910   26.2630   40.9900 C   0  0  0  0  0  0  0  0  0  0  0  0
   38.5530   25.4820   39.9590 N   0  0  0  0  0  0  0  0  0  0  0  0
   38.5520   23.4590   39.1990 H   0  0  0  0  0  0  0  0  0  0  0  0
   37.4320   22.4910   41.1130 H   0  0  0  0  0  0  0  0  0  0  0  0
   36.7860   24.0300   43.0050 H   0  0  0  0  0  0  0  0  0  0  0  0
   36.0790   28.3300   41.8340 N   0  0  0  0  0  0  0  0  0  0  0  0
   36.2970   27.5720   42.5520 H   0  0  0  0  0  0  0  0  0  0  0  0
   35.7250   29.5690   40.6600 S   0  0  0  0  0  0  0  0  0  0  0  0
   34.4830   29.2130   39.9170 O   0  0  0  0  0  1  0  0  0  0  0  0
   36.8670   29.5380   39.6480 O   0  0  0  0  0  1  0  0  0  0  0  0
   35.6100   31.0820   41.3370 O   0  0  0  0  0  0  0  0  0  0  0  0
   35.6460   31.7460   40.6020 H   0  0  0  0  0  0  0  0  0  0  0  0
  1  7  1  6  0  0  0
  1 19  1  0  0  0  0
  1  2  1  0  0  0  0
  1  6  1  0  0  0  0
  2  3  1  0  0  0  0
  3 10  1  0  0  0  0
  3  4  1  0  0  0  0
  3 11  1  0  0  0  0
  4 12  1  0  0  0  0
  5  4  1  0  0  0  0
  5 14  1  0  0  0  0
  6 24  1  0  0  0  0
  6  5  2  0  0  0  0
  8  2  1  0  0  0  0
  9  2  1  0  0  0  0
 13  4  1  0  0  0  0
 15 16  1  0  0  0  0
 16 22  1  0  0  0  0
 16 17  2  0  0  0  0
 17 23  1  0  0  0  0
 18 17  1  0  0  0  0
 19 18  2  0  0  0  0
 20 15  2  0  0  0  0
 20 19  1  0  0  0  0
 21 15  1  0  0  0  0
 24 25  1  0  0  0  0
 26 29  1  0  0  0  0
 26 24  1  0  0  0  0
 27 26  1  0  0  0  0
 28 26  1  0  0  0  0
 30 29  1  0  0  0  0
M  END
>  <minimizedAffinity>
-4.9576335

$$$$

 OpenBabel03252505013D

 30 31  0  0  1  0  0  0  0  0999 V2000
   37.5370   29.8870   39.6810 C   0  0  2  0  0  0  0  0  0  0  0  0
   37.1650   29.6580   38.2740 C   0  0  0  0  0  0  0  0  0  0  0  0
   35.6990   29.6670   38.0030 C   0  0  0  0  0  0  0  0  0  0  0  0
   35.1220   28.5780   38.8860 C   0  0  0  0  0  0  0  0  0  0  0  0
   35.2530   28.9440   40.3250 C   0  0  0  0  0  0  0  0  0  0  0  0
   36.5270   29.6370   40.7180 C   0  0  0  0  0  0  0  0  0  0  0  0
   38.4320   29.2350   39.9360 H   0  0  0  0  0  0  0  0  0  0  0  0
   37.5300   28.6440   37.9630 H   0  0  0  0  0  0  0  0  0  0  0  0
   37.6440   30.3800   37.5810 H   0  0  0  0  0  0  0  0  0  0  0  0
   35.5480   29.3250   36.9630 H   0  0  0  0  0  0  0  0  0  0  0  0
   35.1900   30.6280   38.1340 H   0  0  0  0  0  0  0  0  0  0  0  0
   34.0340   28.5780   38.6850 H   0  0  0  0  0  0  0  0  0  0  0  0
   35.5330   27.6090   38.6200 H   0  0  0  0  0  0  0  0  0  0  0  0
   34.5280   28.7620   41.0600 H   0  0  0  0  0  0  0  0  0  0  0  0
   37.6890   33.5620   39.9880 C   0  0  0  0  0  0  0  0  0  0  0  0
   39.0720   33.8270   39.9630 C   0  0  0  0  0  0  0  0  0  0  0  0
   39.9330   32.7190   39.8360 C   0  0  0  0  0  0  0  0  0  0  0  0
   39.3940   31.4820   39.7480 N   0  0  0  0  0  0  0  0  0  0  0  0
   38.0600   31.2730   39.7760 C   0  0  0  0  0  0  0  0  0  0  0  0
   37.2160   32.3120   39.8960 N   0  0  0  0  0  0  0  0  0  0  0  0
   37.0900   34.4610   40.0870 H   0  0  0  0  0  0  0  0  0  0  0  0
   39.4790   34.8420   40.0370 H   0  0  0  0  0  0  0  0  0  0  0  0
   40.9890   32.8330   39.8090 H   0  0  0  0  0  0  0  0  0  0  0  0
   36.5840   29.9480   42.1230 N   0  0  0  0  0  0  0  0  0  0  0  0
   36.0600   30.8240   41.8120 H   0  0  0  0  0  0  0  0  0  0  0  0
   37.4380   28.5150   42.6290 S   0  0  0  0  0  0  0  0  0  0  0  0
   36.6520   27.8080   43.6790 O   0  0  0  0  0  1  0  0  0  0  0  0
   38.7240   28.9990   43.2950 O   0  0  0  0  0  1  0  0  0  0  0  0
   37.8030   27.5030   41.3640 O   0  0  0  0  0  0  0  0  0  0  0  0
   38.4770   26.8510   41.6830 H   0  0  0  0  0  0  0  0  0  0  0  0
  1 19  1  0  0  0  0
  1  7  1  1  0  0  0
  1  6  1  0  0  0  0
  2  1  1  0  0  0  0
  3 11  1  0  0  0  0
  3  2  1  0  0  0  0
  3  4  1  0  0  0  0
  4  5  1  0  0  0  0
  5  6  2  0  0  0  0
  5 14  1  0  0  0  0
  6 24  1  0  0  0  0
  8  2  1  0  0  0  0
  9  2  1  0  0  0  0
 10  3  1  0  0  0  0
 12  4  1  0  0  0  0
 13  4  1  0  0  0  0
 15 21  1  0  0  0  0
 16 15  1  0  0  0  0
 16 22  1  0  0  0  0
 17 16  2  0  0  0  0
 18 19  2  0  0  0  0
 18 17  1  0  0  0  0
 19 20  1  0  0  0  0
 20 15  2  0  0  0  0
 23 17  1  0  0  0  0
 24 26  1  0  0  0  0
 25 24  1  0  0  0  0
 26 28  1  0  0  0  0
 26 27  1  0  0  0  0
 29 30  1  0  0  0  0
 29 26  1  0  0  0  0
M  END
>  <minimizedAffinity>
-4.6910491

$$$$

 OpenBabel03252505013D

 30 31  0  0  1  0  0  0  0  0999 V2000
   37.7320   29.4380   42.3040 C   0  0  2  0  0  0  0  0  0  0  0  0
   37.8170   28.8000   43.6290 C   0  0  0  0  0  0  0  0  0  0  0  0
   38.0900   27.3340   43.6030 C   0  0  0  0  0  0  0  0  0  0  0  0
   36.9580   26.7300   42.7960 C   0  0  0  0  0  0  0  0  0  0  0  0
   37.0360   27.1650   41.3730 C   0  0  0  0  0  0  0  0  0  0  0  0
   37.4530   28.5890   41.1380 C   0  0  0  0  0  0  0  0  0  0  0  0
   36.9210   30.2330   42.3280 H   0  0  0  0  0  0  0  0  0  0  0  0
   36.8320   28.9220   44.1520 H   0  0  0  0  0  0  0  0  0  0  0  0
   38.5730   29.2770   44.2860 H   0  0  0  0  0  0  0  0  0  0  0  0
   37.9660   26.9520   44.6330 H   0  0  0  0  0  0  0  0  0  0  0  0
   39.0760   27.0340   43.2340 H   0  0  0  0  0  0  0  0  0  0  0  0
   37.1540   25.6410   42.7790 H   0  0  0  0  0  0  0  0  0  0  0  0
   36.0020   26.9110   43.2800 H   0  0  0  0  0  0  0  0  0  0  0  0
   36.8340   26.5520   40.5460 H   0  0  0  0  0  0  0  0  0  0  0  0
   40.1230   32.0220   41.1920 C   0  0  0  0  0  0  0  0  0  0  0  0
   41.3340   31.6110   41.7810 C   0  0  0  0  0  0  0  0  0  0  0  0
   41.3000   30.4350   42.5560 C   0  0  0  0  0  0  0  0  0  0  0  0
   40.1270   29.7770   42.6910 N   0  0  0  0  0  0  0  0  0  0  0  0
   38.9870   30.2070   42.1070 C   0  0  0  0  0  0  0  0  0  0  0  0
   38.9910   31.3260   41.3630 N   0  0  0  0  0  0  0  0  0  0  0  0
   40.2250   32.9330   40.6110 H   0  0  0  0  0  0  0  0  0  0  0  0
   42.2700   32.1660   41.6530 H   0  0  0  0  0  0  0  0  0  0  0  0
   42.1710   30.0560   43.0340 H   0  0  0  0  0  0  0  0  0  0  0  0
   37.4950   28.9350   39.7410 N   0  0  0  0  0  0  0  0  0  0  0  0
   38.4050   28.3800   39.7700 H   0  0  0  0  0  0  0  0  0  0  0  0
   36.0070   29.8420   39.6950 S   0  0  0  0  0  0  0  0  0  0  0  0
   34.9460   29.0990   40.4340 O   0  0  0  0  0  1  0  0  0  0  0  0
   35.5760   29.8820   38.2310 O   0  0  0  0  0  1  0  0  0  0  0  0
   36.1780   31.3870   40.2780 O   0  0  0  0  0  0  0  0  0  0  0  0
   35.3760   31.9040   40.0050 H   0  0  0  0  0  0  0  0  0  0  0  0
  1  7  1  1  0  0  0
  1  2  1  0  0  0  0
  2  8  1  0  0  0  0
  2  9  1  0  0  0  0
  3  2  1  0  0  0  0
  3 10  1  0  0  0  0
  4 13  1  0  0  0  0
  4  3  1  0  0  0  0
  5  4  1  0  0  0  0
  6  5  2  0  0  0  0
  6  1  1  0  0  0  0
 11  3  1  0  0  0  0
 12  4  1  0  0  0  0
 14  5  1  0  0  0  0
 15 20  2  0  0  0  0
 15 16  1  0  0  0  0
 16 17  2  0  0  0  0
 17 18  1  0  0  0  0
 17 23  1  0  0  0  0
 19  1  1  0  0  0  0
 19 18  2  0  0  0  0
 20 19  1  0  0  0  0
 21 15  1  0  0  0  0
 22 16  1  0  0  0  0
 24 25  1  0  0  0  0
 24  6  1  0  0  0  0
 26 24  1  0  0  0  0
 26 29  1  0  0  0  0
 26 27  1  0  0  0  0
 28 26  1  0  0  0  0
 30 29  1  0  0  0  0
M  END
>  <minimizedAffinity>
-4.52077723

$$$$

 OpenBabel03252505013D

 30 31  0  0  1  0  0  0  0  0999 V2000
   37.8550   26.7750   42.4570 C   0  0  2  0  0  0  0  0  0  0  0  0
   38.4980   27.4430   43.6020 C   0  0  0  0  0  0  0  0  0  0  0  0
   39.9740   27.6180   43.4780 C   0  0  0  0  0  0  0  0  0  0  0  0
   40.5300   26.2200   43.3020 C   0  0  0  0  0  0  0  0  0  0  0  0
   40.0970   25.6420   41.9980 C   0  0  0  0  0  0  0  0  0  0  0  0
   38.6900   25.9530   41.5710 C   0  0  0  0  0  0  0  0  0  0  0  0
   37.0280   26.0980   42.8420 H   0  0  0  0  0  0  0  0  0  0  0  0
   38.3370   26.8210   44.5210 H   0  0  0  0  0  0  0  0  0  0  0  0
   38.0540   28.4360   43.8230 H   0  0  0  0  0  0  0  0  0  0  0  0
   40.3520   27.9740   44.4540 H   0  0  0  0  0  0  0  0  0  0  0  0
   40.3130   28.3070   42.6980 H   0  0  0  0  0  0  0  0  0  0  0  0
   41.6260   26.3450   43.2150 H   0  0  0  0  0  0  0  0  0  0  0  0
   40.3100   25.6060   44.1710 H   0  0  0  0  0  0  0  0  0  0  0  0
   40.6990   25.0550   41.3710 H   0  0  0  0  0  0  0  0  0  0  0  0
   35.7530   28.4360   39.9170 C   0  0  0  0  0  0  0  0  0  0  0  0
   35.8130   29.7920   40.2920 C   0  0  0  0  0  0  0  0  0  0  0  0
   36.5880   30.1090   41.4250 C   0  0  0  0  0  0  0  0  0  0  0  0
   37.2220   29.1110   42.0810 N   0  0  0  0  0  0  0  0  0  0  0  0
   37.1380   27.8210   41.6860 C   0  0  0  0  0  0  0  0  0  0  0  0
   36.4050   27.4920   40.6090 N   0  0  0  0  0  0  0  0  0  0  0  0
   35.1400   28.2680   39.0390 H   0  0  0  0  0  0  0  0  0  0  0  0
   35.2870   30.5790   39.7410 H   0  0  0  0  0  0  0  0  0  0  0  0
   36.6850   31.1080   41.7730 H   0  0  0  0  0  0  0  0  0  0  0  0
   38.3440   25.3520   40.3090 N   0  0  0  0  0  0  0  0  0  0  0  0
   38.7650   26.2520   39.9190 H   0  0  0  0  0  0  0  0  0  0  0  0
   37.6580   23.8830   40.9470 S   0  0  0  0  0  0  0  0  0  0  0  0
   38.0740   22.7280   40.1020 O   0  0  0  0  0  1  0  0  0  0  0  0
   36.1450   24.0160   40.7940 O   0  0  0  0  0  1  0  0  0  0  0  0
   38.0440   23.6330   42.5430 O   0  0  0  0  0  0  0  0  0  0  0  0
   37.4410   22.9290   42.8940 H   0  0  0  0  0  0  0  0  0  0  0  0
  1  7  1  1  0  0  0
  1  2  1  0  0  0  0
  2  9  1  0  0  0  0
  2  8  1  0  0  0  0
  3  2  1  0  0  0  0
  3 10  1  0  0  0  0
  4  3  1  0  0  0  0
  4 13  1  0  0  0  0
  5  4  1  0  0  0  0
  6  5  2  0  0  0  0
  6  1  1  0  0  0  0
 11  3  1  0  0  0  0
 12  4  1  0  0  0  0
 14  5  1  0  0  0  0
 15 16  2  0  0  0  0
 15 20  1  0  0  0  0
 16 17  1  0  0  0  0
 17 23  1  0  0  0  0
 17 18  2  0  0  0  0
 19 18  1  0  0  0  0
 19  1  1  0  0  0  0
 20 19  2  0  0  0  0
 21 15  1  0  0  0  0
 22 16  1  0  0  0  0
 24 26  1  0  0  0  0
 24  6  1  0  0  0  0
 25 24  1  0  0  0  0
 26 29  1  0  0  0  0
 27 26  1  0  0  0  0
 28 26  1  0  0  0  0
 29 30  1  0  0  0  0
M  END
>  <minimizedAffinity>
-4.4956665

$$$$

 OpenBabel03252505013D

 30 31  0  0  1  0  0  0  0  0999 V2000
   36.9990   25.8490   41.3870 C   0  0  2  0  0  0  0  0  0  0  0  0
   36.5770   24.4740   41.0680 C   0  0  0  0  0  0  0  0  0  0  0  0
   36.8260   24.0520   39.6600 C   0  0  0  0  0  0  0  0  0  0  0  0
   36.0720   25.0500   38.8030 C   0  0  0  0  0  0  0  0  0  0  0  0
   36.6800   26.4050   38.9150 C   0  0  0  0  0  0  0  0  0  0  0  0
   37.1680   26.8010   40.2810 C   0  0  0  0  0  0  0  0  0  0  0  0
   36.2440   26.3110   42.1000 H   0  0  0  0  0  0  0  0  0  0  0  0
   35.4690   24.3920   41.2230 H   0  0  0  0  0  0  0  0  0  0  0  0
   37.0360   23.7190   41.7370 H   0  0  0  0  0  0  0  0  0  0  0  0
   36.3220   23.0800   39.5070 H   0  0  0  0  0  0  0  0  0  0  0  0
   37.8760   23.9540   39.3650 H   0  0  0  0  0  0  0  0  0  0  0  0
   36.2510   24.7370   37.7570 H   0  0  0  0  0  0  0  0  0  0  0  0
   35.0070   25.0060   39.0100 H   0  0  0  0  0  0  0  0  0  0  0  0
   36.7970   27.0800   38.1200 H   0  0  0  0  0  0  0  0  0  0  0  0
   39.8060   26.7120   43.6240 C   0  0  0  0  0  0  0  0  0  0  0  0
   40.5480   25.5160   43.6800 C   0  0  0  0  0  0  0  0  0  0  0  0
   40.0600   24.4260   42.9330 C   0  0  0  0  0  0  0  0  0  0  0  0
   38.9240   24.5830   42.2160 N   0  0  0  0  0  0  0  0  0  0  0  0
   38.2430   25.7490   42.1910 C   0  0  0  0  0  0  0  0  0  0  0  0
   38.6870   26.8050   42.8940 N   0  0  0  0  0  0  0  0  0  0  0  0
   40.2410   27.5050   44.2220 H   0  0  0  0  0  0  0  0  0  0  0  0
   41.4650   25.4190   44.2710 H   0  0  0  0  0  0  0  0  0  0  0  0
   40.5610   23.4890   42.9210 H   0  0  0  0  0  0  0  0  0  0  0  0
   37.7320   28.1250   40.3100 N   0  0  0  0  0  0  0  0  0  0  0  0
   38.5620   27.6350   39.8530 H   0  0  0  0  0  0  0  0  0  0  0  0
   36.3740   28.9250   41.0560 S   0  0  0  0  0  0  0  0  0  0  0  0
   35.1330   28.6230   40.2880 O   0  0  0  0  0  1  0  0  0  0  0  0
   36.6280   30.4230   40.9090 O   0  0  0  0  0  1  0  0  0  0  0  0
   36.2010   28.5350   42.6610 O   0  0  0  0  0  0  0  0  0  0  0  0
   35.5770   29.1900   43.0660 H   0  0  0  0  0  0  0  0  0  0  0  0
  1  7  1  1  0  0  0
  1 19  1  0  0  0  0
  2  8  1  0  0  0  0
  2  1  1  0  0  0  0
  2  9  1  0  0  0  0
  3  2  1  0  0  0  0
  4  5  1  0  0  0  0
  4 13  1  0  0  0  0
  4  3  1  0  0  0  0
  5  6  2  0  0  0  0
  6 24  1  0  0  0  0
  6  1  1  0  0  0  0
 10  3  1  0  0  0  0
 11  3  1  0  0  0  0
 12  4  1  0  0  0  0
 14  5  1  0  0  0  0
 15 16  1  0  0  0  0
 15 21  1  0  0  0  0
 16 22  1  0  0  0  0
 17 16  2  0  0  0  0
 18 17  1  0  0  0  0
 19 18  2  0  0  0  0
 19 20  1  0  0  0  0
 20 15  2  0  0  0  0
 23 17  1  0  0  0  0
 24 26  1  0  0  0  0
 25 24  1  0  0  0  0
 26 29  1  0  0  0  0
 27 26  1  0  0  0  0
 28 26  1  0  0  0  0
 29 30  1  0  0  0  0
M  END
>  <minimizedAffinity>
-4.41751051

$$$$

 OpenBabel03252505013D

 30 31  0  0  1  0  0  0  0  0999 V2000
   36.0950   28.4460   40.8550 C   0  0  2  0  0  0  0  0  0  0  0  0
   35.7820   28.6790   39.4340 C   0  0  0  0  0  0  0  0  0  0  0  0
   36.5780   29.7620   38.7860 C   0  0  0  0  0  0  0  0  0  0  0  0
   36.2960   31.0080   39.6010 C   0  0  0  0  0  0  0  0  0  0  0  0
   36.8630   30.8780   40.9730 C   0  0  0  0  0  0  0  0  0  0  0  0
   36.7530   29.5210   41.6090 C   0  0  0  0  0  0  0  0  0  0  0  0
   35.1330   28.2030   41.4090 H   0  0  0  0  0  0  0  0  0  0  0  0
   34.7080   28.9910   39.3460 H   0  0  0  0  0  0  0  0  0  0  0  0
   35.8860   27.7630   38.8170 H   0  0  0  0  0  0  0  0  0  0  0  0
   36.1410   29.9470   37.7880 H   0  0  0  0  0  0  0  0  0  0  0  0
   37.6490   29.5680   38.6700 H   0  0  0  0  0  0  0  0  0  0  0  0
   36.8810   31.8150   39.1200 H   0  0  0  0  0  0  0  0  0  0  0  0
   35.2410   31.2620   39.5620 H   0  0  0  0  0  0  0  0  0  0  0  0
   37.3310   31.6510   41.5060 H   0  0  0  0  0  0  0  0  0  0  0  0
   38.3240   25.6480   39.9460 C   0  0  0  0  0  0  0  0  0  0  0  0
   38.3420   24.8620   41.1150 C   0  0  0  0  0  0  0  0  0  0  0  0
   37.5740   25.3190   42.2040 C   0  0  0  0  0  0  0  0  0  0  0  0
   36.8730   26.4680   42.0700 N   0  0  0  0  0  0  0  0  0  0  0  0
   36.8830   27.1910   40.9290 C   0  0  0  0  0  0  0  0  0  0  0  0
   37.6080   26.7770   39.8750 N   0  0  0  0  0  0  0  0  0  0  0  0
   38.9370   25.2350   39.1520 H   0  0  0  0  0  0  0  0  0  0  0  0
   38.9220   23.9360   41.1930 H   0  0  0  0  0  0  0  0  0  0  0  0
   37.5340   24.7850   43.1210 H   0  0  0  0  0  0  0  0  0  0  0  0
   37.3120   29.4790   42.9350 N   0  0  0  0  0  0  0  0  0  0  0  0
   36.2850   29.4910   43.2230 H   0  0  0  0  0  0  0  0  0  0  0  0
   38.9900   29.4570   42.4640 S   0  0  0  0  0  0  0  0  0  0  0  0
   39.6990   28.3650   43.1900 O   0  0  0  0  0  1  0  0  0  0  0  0
   39.5880   30.7720   42.9570 O   0  0  0  0  0  1  0  0  0  0  0  0
   39.1950   29.3230   40.8220 O   0  0  0  0  0  0  0  0  0  0  0  0
   40.1370   29.5530   40.6140 H   0  0  0  0  0  0  0  0  0  0  0  0
  1 19  1  0  0  0  0
  1  7  1  1  0  0  0
  1  6  1  0  0  0  0
  2  1  1  0  0  0  0
  3  2  1  0  0  0  0
  3  4  1  0  0  0  0
  4  5  1  0  0  0  0
  5 14  1  0  0  0  0
  5  6  2  0  0  0  0
  6 24  1  0  0  0  0
  8  2  1  0  0  0  0
  9  2  1  0  0  0  0
 10  3  1  0  0  0  0
 11  3  1  0  0  0  0
 12  4  1  0  0  0  0
 13  4  1  0  0  0  0
 15 16  1  0  0  0  0
 16 22  1  0  0  0  0
 16 17  2  0  0  0  0
 17 23  1  0  0  0  0
 18 17  1  0  0  0  0
 19 18  2  0  0  0  0
 20 15  2  0  0  0  0
 20 19  1  0  0  0  0
 21 15  1  0  0  0  0
 24 25  1  0  0  0  0
 26 24  1  0  0  0  0
 26 28  1  0  0  0  0
 26 27  1  0  0  0  0
 29 26  1  0  0  0  0
 30 29  1  0  0  0  0
M  END
>  <minimizedAffinity>
-4.41214752

$$$$

 OpenBabel03252505013D

 30 31  0  0  1  0  0  0  0  0999 V2000
   37.1300   27.2950   42.6020 C   0  0  2  0  0  0  0  0  0  0  0  0
   38.0470   27.7060   43.6800 C   0  0  0  0  0  0  0  0  0  0  0  0
   39.4710   27.3110   43.4760 C   0  0  0  0  0  0  0  0  0  0  0  0
   39.4540   25.8010   43.3430 C   0  0  0  0  0  0  0  0  0  0  0  0
   38.7540   25.3920   42.0920 C   0  0  0  0  0  0  0  0  0  0  0  0
   37.5410   26.1960   41.7180 C   0  0  0  0  0  0  0  0  0  0  0  0
   36.1360   26.9890   43.0600 H   0  0  0  0  0  0  0  0  0  0  0  0
   37.7250   27.2150   44.6350 H   0  0  0  0  0  0  0  0  0  0  0  0
   38.0200   28.7980   43.8730 H   0  0  0  0  0  0  0  0  0  0  0  0
   40.0160   27.5260   44.4130 H   0  0  0  0  0  0  0  0  0  0  0  0
   39.9920   27.8000   42.6470 H   0  0  0  0  0  0  0  0  0  0  0  0
   40.5090   25.5040   43.1960 H   0  0  0  0  0  0  0  0  0  0  0  0
   39.0770   25.3400   44.2510 H   0  0  0  0  0  0  0  0  0  0  0  0
   39.0530   24.6050   41.4660 H   0  0  0  0  0  0  0  0  0  0  0  0
   35.4000   29.6630   40.3600 C   0  0  0  0  0  0  0  0  0  0  0  0
   36.2390   30.7940   40.3830 C   0  0  0  0  0  0  0  0  0  0  0  0
   37.3990   30.7140   41.1780 C   0  0  0  0  0  0  0  0  0  0  0  0
   37.6390   29.5750   41.8660 N   0  0  0  0  0  0  0  0  0  0  0  0
   36.8070   28.5120   41.8160 C   0  0  0  0  0  0  0  0  0  0  0  0
   35.6940   28.5620   41.0650 N   0  0  0  0  0  0  0  0  0  0  0  0
   34.5290   29.7970   39.7280 H   0  0  0  0  0  0  0  0  0  0  0  0
   36.0160   31.7040   39.8150 H   0  0  0  0  0  0  0  0  0  0  0  0
   38.0840   31.5230   41.2490 H   0  0  0  0  0  0  0  0  0  0  0  0
   36.9160   25.7340   40.5060 N   0  0  0  0  0  0  0  0  0  0  0  0
   36.1910   25.3490   41.1870 H   0  0  0  0  0  0  0  0  0  0  0  0
   38.1020   26.3640   39.3950 S   0  0  0  0  0  0  0  0  0  0  0  0
   37.4130   27.0320   38.2540 O   0  0  0  0  0  1  0  0  0  0  0  0
   38.8330   25.1540   38.8190 O   0  0  0  0  0  1  0  0  0  0  0  0
   39.1880   27.3860   40.1250 O   0  0  0  0  0  0  0  0  0  0  0  0
   39.9510   27.5100   39.5050 H   0  0  0  0  0  0  0  0  0  0  0  0
  1  7  1  1  0  0  0
  1  2  1  0  0  0  0
  2  9  1  0  0  0  0
  2  8  1  0  0  0  0
  3  2  1  0  0  0  0
  3 10  1  0  0  0  0
  4  3  1  0  0  0  0
  4 13  1  0  0  0  0
  5  4  1  0  0  0  0
  6  5  2  0  0  0  0
  6  1  1  0  0  0  0
 11  3  1  0  0  0  0
 12  4  1  0  0  0  0
 14  5  1  0  0  0  0
 15 16  2  0  0  0  0
 15 20  1  0  0  0  0
 16 17  1  0  0  0  0
 17 23  1  0  0  0  0
 17 18  2  0  0  0  0
 19 18  1  0  0  0  0
 19  1  1  0  0  0  0
 20 19  2  0  0  0  0
 21 15  1  0  0  0  0
 22 16  1  0  0  0  0
 24 25  1  0  0  0  0
 24  6  1  0  0  0  0
 26 29  1  0  0  0  0
 26 24  1  0  0  0  0
 27 26  1  0  0  0  0
 28 26  1  0  0  0  0
 30 29  1  0  0  0  0
M  END
>  <minimizedAffinity>
-4.40803194

$$$$
