
 OpenBabel03252500063D

 47 49  0  0  0  0  0  0  0  0999 V2000
   44.6530   35.2760   45.2370 C   0  0  0  0  0  0  0  0  0  0  0  0
   45.2310   35.4190   43.9780 C   0  0  0  0  0  0  0  0  0  0  0  0
   46.2380   34.5390   43.5870 C   0  0  0  0  0  0  0  0  0  0  0  0
   46.5550   33.6060   44.5140 N   0  0  0  0  0  0  0  0  0  0  0  0
   46.0080   33.4760   45.6970 C   0  0  0  0  0  0  0  0  0  0  0  0
   45.0590   34.3170   46.0430 N   0  0  0  0  0  0  0  0  0  0  0  0
   43.8750   35.9710   45.5160 H   0  0  0  0  0  0  0  0  0  0  0  0
   46.9240   34.5520   42.3440 C   0  0  0  0  0  0  0  0  0  0  0  0
   47.9660   35.4660   42.2180 C   0  0  0  0  0  0  0  0  0  0  0  0
   48.7400   35.6190   41.0860 C   0  0  0  0  0  0  0  0  0  0  0  0
   48.5100   34.8530   40.0010 C   0  0  0  0  0  0  0  0  0  0  0  0
   47.4900   33.9240   40.0540 C   0  0  0  0  0  0  0  0  0  0  0  0
   47.2040   33.1210   38.9970 C   0  0  0  0  0  0  0  0  0  0  0  0
   46.1940   32.1840   39.0160 C   0  0  0  0  0  0  0  0  0  0  0  0
   45.4440   32.0760   40.1920 C   0  0  0  0  0  0  0  0  0  0  0  0
   45.7760   32.9190   41.2430 C   0  0  0  0  0  0  0  0  0  0  0  0
   46.7500   33.8190   41.2190 C   0  0  0  0  0  0  0  0  0  0  0  0
   48.2420   36.1440   43.0430 H   0  0  0  0  0  0  0  0  0  0  0  0
   49.5410   36.3440   41.0340 H   0  0  0  0  0  0  0  0  0  0  0  0
   49.0960   34.9460   39.0980 H   0  0  0  0  0  0  0  0  0  0  0  0
   47.7990   33.2190   38.0890 H   0  0  0  0  0  0  0  0  0  0  0  0
   46.0030   31.5660   38.1490 H   0  0  0  0  0  0  0  0  0  0  0  0
   44.6790   31.3420   40.1560 H   0  0  0  0  0  0  0  0  0  0  0  0
   44.8900   32.6710   42.3460 N   0  0  0  0  0  0  0  0  0  0  0  0
   44.8770   31.9580   43.1060 H   0  0  0  0  0  0  0  0  0  0  0  0
   44.0180   33.1320   42.6800 H   0  0  0  0  0  0  0  0  0  0  0  0
   46.5570   32.3440   46.5170 C   0  0  0  0  0  0  0  0  0  0  0  0
   45.5540   31.5910   47.0720 F   0  0  0  0  0  0  0  0  0  0  0  0
   47.3980   32.8110   47.4920 F   0  0  0  0  0  0  0  0  0  0  0  0
   47.3840   31.5470   45.6970 F   0  0  0  0  0  0  0  0  0  0  0  0
   44.8620   36.4370   43.0020 C   0  0  0  0  0  0  0  0  0  0  0  0
   44.2840   37.2360   43.5190 H   0  0  0  0  0  0  0  0  0  0  0  0
   45.7890   36.9260   42.6220 H   0  0  0  0  0  0  0  0  0  0  0  0
   44.0710   35.9870   41.8450 C   0  0  0  0  0  0  0  0  0  0  0  0
   44.4840   35.4880   41.0190 H   0  0  0  0  0  0  0  0  0  0  0  0
   43.6370   36.9490   41.4100 H   0  0  0  0  0  0  0  0  0  0  0  0
   41.7280   35.1250   41.5180 C   0  0  0  0  0  0  0  0  0  0  0  0
   41.8460   35.3810   40.2650 O   0  0  0  0  0  0  0  0  0  0  0  0
   42.8290   35.3680   42.3910 N   0  0  0  0  0  0  0  0  0  0  0  0
   42.6550   35.0720   43.3890 H   0  0  0  0  0  0  0  0  0  0  0  0
   40.5030   34.6120   41.9690 N   0  0  0  0  0  0  0  0  0  0  0  0
   39.9660   35.1630   42.6900 H   0  0  0  0  0  0  0  0  0  0  0  0
   39.8650   33.1100   41.3670 S   0  0  0  0  0  0  0  0  0  0  0  0
   38.5110   33.2960   40.7530 O   0  0  0  0  0  1  0  0  0  0  0  0
   39.8820   32.0330   42.4060 O   0  0  0  0  0  1  0  0  0  0  0  0
   40.9020   32.6090   40.1280 O   0  0  0  0  0  0  0  0  0  0  0  0
   41.7480   32.2430   40.5240 H   0  0  0  0  0  0  0  0  0  0  0  0
  1  7  1  0  0  0  0
  1  6  1  0  0  0  0
  2  1  2  0  0  0  0
  3  2  1  0  0  0  0
  3  4  2  0  0  0  0
  4  5  1  0  0  0  0
  5  6  2  0  0  0  0
  5 27  1  0  0  0  0
  8  3  1  0  0  0  0
  9  8  1  0  0  0  0
  9 18  1  0  0  0  0
 10  9  2  0  0  0  0
 11 12  2  0  0  0  0
 11 10  1  0  0  0  0
 12 17  1  0  0  0  0
 13 14  2  0  0  0  0
 13 12  1  0  0  0  0
 14 15  1  0  0  0  0
 15 16  2  0  0  0  0
 16 24  1  0  0  0  0
 17 16  1  0  0  0  0
 17  8  2  0  0  0  0
 19 10  1  0  0  0  0
 20 11  1  0  0  0  0
 21 13  1  0  0  0  0
 22 14  1  0  0  0  0
 23 15  1  0  0  0  0
 24 26  1  0  0  0  0
 24 25  1  0  0  0  0
 27 28  1  0  0  0  0
 27 29  1  0  0  0  0
 30 27  1  0  0  0  0
 31 32  1  0  0  0  0
 31  2  1  0  0  0  0
 33 31  1  0  0  0  0
 34 39  1  0  0  0  0
 34 31  1  0  0  0  0
 35 34  1  0  0  0  0
 36 34  1  0  0  0  0
 37 41  1  0  0  0  0
 37 39  1  0  0  0  0
 38 37  2  0  0  0  0
 39 40  1  0  0  0  0
 41 42  1  0  0  0  0
 43 41  1  0  0  0  0
 43 45  1  0  0  0  0
 44 43  1  0  0  0  0
 46 47  1  0  0  0  0
 46 43  1  0  0  0  0
M  END
>  <minimizedAffinity>
-7.74049854

>  <minimizedRMSD>
0.583132267

$$$$
