
 OpenBabel03242518223D

 37 39  0  0  0  0  0  0  0  0999 V2000
   39.7640   30.8140   42.3390 C   0  0  0  0  0  0  0  0  0  0  0  0
   39.2150   31.6210   42.8620 H   0  0  0  0  0  0  0  0  0  0  0  0
   40.7700   30.7230   42.7450 H   0  0  0  0  0  0  0  0  0  0  0  0
   39.0050   29.5280   42.4950 C   0  0  0  0  0  0  0  0  0  0  0  0
   37.9830   29.3210   43.4060 C   0  0  0  0  0  0  0  0  0  0  0  0
   37.5240   28.0330   43.2680 C   0  0  0  0  0  0  0  0  0  0  0  0
   38.3010   27.5010   42.2580 C   0  0  0  0  0  0  0  0  0  0  0  0
   39.1320   28.4060   41.8560 O   0  0  0  0  0  0  0  0  0  0  0  0
   37.5940   30.0490   44.1250 H   0  0  0  0  0  0  0  0  0  0  0  0
   36.7500   27.4990   43.7840 H   0  0  0  0  0  0  0  0  0  0  0  0
   38.1850   26.1310   41.7440 C   0  0  0  0  0  0  0  0  0  0  0  0
   37.1170   25.3460   42.0830 C   0  0  0  0  0  0  0  0  0  0  0  0
   36.9500   24.0420   41.6290 C   0  0  0  0  0  0  0  0  0  0  0  0
   37.9920   23.6070   40.7840 C   0  0  0  0  0  0  0  0  0  0  0  0
   39.0630   24.3760   40.4360 C   0  0  0  0  0  0  0  0  0  0  0  0
   39.1230   25.6240   40.9330 N   0  0  0  0  0  0  0  0  0  0  0  0
   36.3660   25.7390   42.7270 H   0  0  0  0  0  0  0  0  0  0  0  0
   36.1110   23.4260   41.8970 H   0  0  0  0  0  0  0  0  0  0  0  0
   37.9350   22.5960   40.3880 H   0  0  0  0  0  0  0  0  0  0  0  0
   39.8190   23.9560   39.7780 H   0  0  0  0  0  0  0  0  0  0  0  0
   38.7130   31.8180   38.9620 C   0  0  0  0  0  0  0  0  0  0  0  0
   39.9080   31.9420   38.2600 C   0  0  0  0  0  0  0  0  0  0  0  0
   41.0590   31.6770   38.9620 C   0  0  0  0  0  0  0  0  0  0  0  0
   41.0220   31.3160   40.2670 N   0  0  0  0  0  0  0  0  0  0  0  0
   39.8290   31.2100   40.9060 C   0  0  0  0  0  0  0  0  0  0  0  0
   38.6750   31.4660   40.2340 N   0  0  0  0  0  0  0  0  0  0  0  0
   37.7660   32.0080   38.4830 H   0  0  0  0  0  0  0  0  0  0  0  0
   39.8680   32.3190   36.9170 N   0  0  0  0  0  0  0  0  0  0  0  0
   39.3860   33.2380   36.7020 H   0  0  0  0  0  0  0  0  0  0  0  0
   40.3000   31.7060   36.1830 H   0  0  0  0  0  0  0  0  0  0  0  0
   42.3150   31.7870   38.3010 N   0  0  0  0  0  0  0  0  0  0  0  0
   42.8090   30.9600   37.9450 H   0  0  0  0  0  0  0  0  0  0  0  0
   43.0700   33.3200   38.0650 S   0  0  0  0  0  0  0  0  0  0  0  0
   43.0080   34.1580   39.3330 O   0  0  0  0  0  1  0  0  0  0  0  0
   44.5350   33.1620   37.7440 O   0  0  0  0  0  1  0  0  0  0  0  0
   42.3810   34.1610   36.7750 O   0  0  0  0  0  0  0  0  0  0  0  0
   42.8010   35.0450   36.7610 H   0  0  0  0  0  0  0  0  0  0  0  0
  1  4  1  0  0  0  0
  1  3  1  0  0  0  0
  1  2  1  0  0  0  0
  4  5  2  0  0  0  0
  5  9  1  0  0  0  0
  6  5  1  0  0  0  0
  6 10  1  0  0  0  0
  7  6  2  0  0  0  0
  8  7  1  0  0  0  0
  8  4  1  0  0  0  0
 11 12  1  0  0  0  0
 11  7  1  0  0  0  0
 12 17  1  0  0  0  0
 13 18  1  0  0  0  0
 13 12  2  0  0  0  0
 14 13  1  0  0  0  0
 15 14  2  0  0  0  0
 15 16  1  0  0  0  0
 16 11  2  0  0  0  0
 19 14  1  0  0  0  0
 20 15  1  0  0  0  0
 21 26  1  0  0  0  0
 22 23  1  0  0  0  0
 22 21  2  0  0  0  0
 23 24  2  0  0  0  0
 24 25  1  0  0  0  0
 25  1  1  0  0  0  0
 26 25  2  0  0  0  0
 27 21  1  0  0  0  0
 28 22  1  0  0  0  0
 29 28  1  0  0  0  0
 30 28  1  0  0  0  0
 31 23  1  0  0  0  0
 32 31  1  0  0  0  0
 33 31  1  0  0  0  0
 33 34  1  0  0  0  0
 35 33  1  0  0  0  0
 36 33  1  0  0  0  0
 37 36  1  0  0  0  0
M  END
>  <minimizedAffinity>
-6.10108566

$$$$

 OpenBabel03242518223D

 37 39  0  0  0  0  0  0  0  0999 V2000
   36.1050   29.1500   38.2200 C   0  0  0  0  0  0  0  0  0  0  0  0
   36.2490   28.9240   37.1440 H   0  0  0  0  0  0  0  0  0  0  0  0
   35.0560   29.3550   38.4210 H   0  0  0  0  0  0  0  0  0  0  0  0
   36.5890   27.9830   39.0300 C   0  0  0  0  0  0  0  0  0  0  0  0
   36.2090   26.6670   38.8250 C   0  0  0  0  0  0  0  0  0  0  0  0
   36.8460   25.8740   39.7490 C   0  0  0  0  0  0  0  0  0  0  0  0
   37.6020   26.7600   40.4930 C   0  0  0  0  0  0  0  0  0  0  0  0
   37.4120   27.9520   40.0330 O   0  0  0  0  0  0  0  0  0  0  0  0
   35.5170   26.3020   38.0590 H   0  0  0  0  0  0  0  0  0  0  0  0
   36.8130   24.8150   39.9150 H   0  0  0  0  0  0  0  0  0  0  0  0
   38.4690   26.3820   41.6150 C   0  0  0  0  0  0  0  0  0  0  0  0
   38.9840   27.3340   42.4510 C   0  0  0  0  0  0  0  0  0  0  0  0
   39.8100   27.0400   43.5310 C   0  0  0  0  0  0  0  0  0  0  0  0
   40.0660   25.6610   43.6790 C   0  0  0  0  0  0  0  0  0  0  0  0
   39.5610   24.7000   42.8540 C   0  0  0  0  0  0  0  0  0  0  0  0
   38.7720   25.0970   41.8410 N   0  0  0  0  0  0  0  0  0  0  0  0
   38.7490   28.3580   42.2810 H   0  0  0  0  0  0  0  0  0  0  0  0
   40.2140   27.7890   44.1870 H   0  0  0  0  0  0  0  0  0  0  0  0
   40.7060   25.3490   44.5010 H   0  0  0  0  0  0  0  0  0  0  0  0
   39.8130   23.6590   43.0460 H   0  0  0  0  0  0  0  0  0  0  0  0
   37.4260   32.1220   39.9360 C   0  0  0  0  0  0  0  0  0  0  0  0
   38.4110   32.5970   39.0770 C   0  0  0  0  0  0  0  0  0  0  0  0
   38.6060   31.8860   37.9170 C   0  0  0  0  0  0  0  0  0  0  0  0
   37.8730   30.7820   37.6360 N   0  0  0  0  0  0  0  0  0  0  0  0
   36.9230   30.3590   38.5080 C   0  0  0  0  0  0  0  0  0  0  0  0
   36.7100   31.0460   39.6630 N   0  0  0  0  0  0  0  0  0  0  0  0
   37.2100   32.6240   40.8660 H   0  0  0  0  0  0  0  0  0  0  0  0
   39.1260   33.7410   39.4340 N   0  0  0  0  0  0  0  0  0  0  0  0
   39.6370   33.7030   40.3610 H   0  0  0  0  0  0  0  0  0  0  0  0
   39.1390   34.5760   38.7980 H   0  0  0  0  0  0  0  0  0  0  0  0
   39.6010   32.3200   36.9960 N   0  0  0  0  0  0  0  0  0  0  0  0
   39.3490   32.7550   36.1000 H   0  0  0  0  0  0  0  0  0  0  0  0
   41.2800   32.1370   37.3420 S   0  0  0  0  0  0  0  0  0  0  0  0
   41.5090   31.9220   38.8300 O   0  0  0  0  0  1  0  0  0  0  0  0
   41.8480   30.9210   36.6560 O   0  0  0  0  0  1  0  0  0  0  0  0
   42.1750   33.4600   36.7990 O   0  0  0  0  0  0  0  0  0  0  0  0
   43.0940   33.3220   37.1060 H   0  0  0  0  0  0  0  0  0  0  0  0
  1  3  1  0  0  0  0
  1 25  1  0  0  0  0
  1  4  1  0  0  0  0
  2  1  1  0  0  0  0
  4  8  1  0  0  0  0
  5  4  2  0  0  0  0
  5  6  1  0  0  0  0
  6 10  1  0  0  0  0
  6  7  2  0  0  0  0
  7 11  1  0  0  0  0
  8  7  1  0  0  0  0
  9  5  1  0  0  0  0
 11 16  2  0  0  0  0
 11 12  1  0  0  0  0
 12 13  2  0  0  0  0
 13 14  1  0  0  0  0
 13 18  1  0  0  0  0
 14 19  1  0  0  0  0
 15 20  1  0  0  0  0
 15 14  2  0  0  0  0
 16 15  1  0  0  0  0
 17 12  1  0  0  0  0
 21 27  1  0  0  0  0
 22 28  1  0  0  0  0
 22 21  2  0  0  0  0
 23 22  1  0  0  0  0
 24 23  2  0  0  0  0
 24 25  1  0  0  0  0
 25 26  2  0  0  0  0
 26 21  1  0  0  0  0
 28 29  1  0  0  0  0
 30 28  1  0  0  0  0
 31 33  1  0  0  0  0
 31 23  1  0  0  0  0
 32 31  1  0  0  0  0
 33 34  1  0  0  0  0
 35 33  1  0  0  0  0
 36 37  1  0  0  0  0
 36 33  1  0  0  0  0
M  END
>  <minimizedAffinity>
-6.04308176

$$$$

 OpenBabel03242518223D

 37 39  0  0  0  0  0  0  0  0999 V2000
   38.8150   29.8090   42.7900 C   0  0  0  0  0  0  0  0  0  0  0  0
   38.3070   30.2390   43.6750 H   0  0  0  0  0  0  0  0  0  0  0  0
   39.8930   29.8160   42.9380 H   0  0  0  0  0  0  0  0  0  0  0  0
   38.3130   28.4110   42.5730 C   0  0  0  0  0  0  0  0  0  0  0  0
   37.2550   27.8370   43.2560 C   0  0  0  0  0  0  0  0  0  0  0  0
   37.0780   26.5530   42.8000 C   0  0  0  0  0  0  0  0  0  0  0  0
   38.0570   26.3970   41.8380 C   0  0  0  0  0  0  0  0  0  0  0  0
   38.7330   27.4960   41.7540 O   0  0  0  0  0  0  0  0  0  0  0  0
   36.6480   28.3130   44.0350 H   0  0  0  0  0  0  0  0  0  0  0  0
   36.3720   25.7950   43.0760 H   0  0  0  0  0  0  0  0  0  0  0  0
   38.2740   25.1750   41.0550 C   0  0  0  0  0  0  0  0  0  0  0  0
   37.5500   24.0430   41.3110 C   0  0  0  0  0  0  0  0  0  0  0  0
   37.7090   22.8550   40.6040 C   0  0  0  0  0  0  0  0  0  0  0  0
   38.6940   22.9320   39.5980 C   0  0  0  0  0  0  0  0  0  0  0  0
   39.4250   24.0510   39.3310 C   0  0  0  0  0  0  0  0  0  0  0  0
   39.1880   25.1450   40.0760 N   0  0  0  0  0  0  0  0  0  0  0  0
   36.8210   24.0560   42.0860 H   0  0  0  0  0  0  0  0  0  0  0  0
   37.1390   21.9670   40.8070 H   0  0  0  0  0  0  0  0  0  0  0  0
   38.8790   22.0420   39.0000 H   0  0  0  0  0  0  0  0  0  0  0  0
   40.1640   24.0170   38.5340 H   0  0  0  0  0  0  0  0  0  0  0  0
   36.8180   31.5260   40.2240 C   0  0  0  0  0  0  0  0  0  0  0  0
   37.7540   32.2660   39.5080 C   0  0  0  0  0  0  0  0  0  0  0  0
   39.0600   32.1620   39.9210 C   0  0  0  0  0  0  0  0  0  0  0  0
   39.4080   31.3790   40.9700 N   0  0  0  0  0  0  0  0  0  0  0  0
   38.4560   30.6760   41.6350 C   0  0  0  0  0  0  0  0  0  0  0  0
   37.1560   30.7620   41.2470 N   0  0  0  0  0  0  0  0  0  0  0  0
   35.7720   31.5530   39.9630 H   0  0  0  0  0  0  0  0  0  0  0  0
   37.3210   33.0520   38.4390 N   0  0  0  0  0  0  0  0  0  0  0  0
   36.5820   33.7790   38.6610 H   0  0  0  0  0  0  0  0  0  0  0  0
   37.7230   32.9080   37.4810 H   0  0  0  0  0  0  0  0  0  0  0  0
   40.0660   32.8960   39.2300 N   0  0  0  0  0  0  0  0  0  0  0  0
   40.4340   33.7810   39.5990 H   0  0  0  0  0  0  0  0  0  0  0  0
   40.7190   32.3300   37.7370 S   0  0  0  0  0  0  0  0  0  0  0  0
   41.9290   33.1550   37.3260 O   0  0  0  0  0  1  0  0  0  0  0  0
   41.2080   30.9100   37.8600 O   0  0  0  0  0  1  0  0  0  0  0  0
   39.5620   32.3390   36.5100 O   0  0  0  0  0  0  0  0  0  0  0  0
   40.0270   32.0900   35.6850 H   0  0  0  0  0  0  0  0  0  0  0  0
  1  3  1  0  0  0  0
  1  2  1  0  0  0  0
  4  1  1  0  0  0  0
  4  5  2  0  0  0  0
  5  9  1  0  0  0  0
  6 10  1  0  0  0  0
  6  5  1  0  0  0  0
  7  6  2  0  0  0  0
  8  7  1  0  0  0  0
  8  4  1  0  0  0  0
 11 12  1  0  0  0  0
 11  7  1  0  0  0  0
 12 17  1  0  0  0  0
 13 18  1  0  0  0  0
 13 12  2  0  0  0  0
 14 13  1  0  0  0  0
 15 14  2  0  0  0  0
 15 16  1  0  0  0  0
 16 11  2  0  0  0  0
 19 14  1  0  0  0  0
 20 15  1  0  0  0  0
 21 26  1  0  0  0  0
 22 23  1  0  0  0  0
 22 21  2  0  0  0  0
 23 24  2  0  0  0  0
 24 25  1  0  0  0  0
 25  1  1  0  0  0  0
 26 25  2  0  0  0  0
 27 21  1  0  0  0  0
 28 29  1  0  0  0  0
 28 22  1  0  0  0  0
 30 28  1  0  0  0  0
 31 32  1  0  0  0  0
 31 23  1  0  0  0  0
 33 35  1  0  0  0  0
 33 31  1  0  0  0  0
 34 33  1  0  0  0  0
 36 33  1  0  0  0  0
 37 36  1  0  0  0  0
M  END
>  <minimizedAffinity>
-5.99839497

$$$$

 OpenBabel03242518223D

 37 39  0  0  0  0  0  0  0  0999 V2000
   35.2860   27.2330   38.0030 C   0  0  0  0  0  0  0  0  0  0  0  0
   34.8010   26.2910   38.3290 H   0  0  0  0  0  0  0  0  0  0  0  0
   36.1180   27.0140   37.3370 H   0  0  0  0  0  0  0  0  0  0  0  0
   34.2640   28.0950   37.3200 C   0  0  0  0  0  0  0  0  0  0  0  0
   34.2700   28.4070   35.9710 C   0  0  0  0  0  0  0  0  0  0  0  0
   33.1900   29.2130   35.7000 C   0  0  0  0  0  0  0  0  0  0  0  0
   32.5610   29.3600   36.9210 C   0  0  0  0  0  0  0  0  0  0  0  0
   33.2240   28.6960   37.8100 O   0  0  0  0  0  0  0  0  0  0  0  0
   35.0040   28.0760   35.2290 H   0  0  0  0  0  0  0  0  0  0  0  0
   32.8520   29.6590   34.7850 H   0  0  0  0  0  0  0  0  0  0  0  0
   31.3420   30.1460   37.1460 C   0  0  0  0  0  0  0  0  0  0  0  0
   30.9190   31.0600   36.2200 C   0  0  0  0  0  0  0  0  0  0  0  0
   29.7730   31.8340   36.3740 C   0  0  0  0  0  0  0  0  0  0  0  0
   29.0900   31.5840   37.5830 C   0  0  0  0  0  0  0  0  0  0  0  0
   29.4980   30.6780   38.5160 C   0  0  0  0  0  0  0  0  0  0  0  0
   30.6210   29.9830   38.2630 N   0  0  0  0  0  0  0  0  0  0  0  0
   31.4840   31.1970   35.3280 H   0  0  0  0  0  0  0  0  0  0  0  0
   29.4430   32.5510   35.6460 H   0  0  0  0  0  0  0  0  0  0  0  0
   28.1830   32.1520   37.7790 H   0  0  0  0  0  0  0  0  0  0  0  0
   28.9060   30.5530   39.4200 H   0  0  0  0  0  0  0  0  0  0  0  0
   36.7570   27.7080   41.3400 C   0  0  0  0  0  0  0  0  0  0  0  0
   36.7180   29.0850   41.5320 C   0  0  0  0  0  0  0  0  0  0  0  0
   36.1840   29.8310   40.5090 C   0  0  0  0  0  0  0  0  0  0  0  0
   35.7240   29.2460   39.3760 N   0  0  0  0  0  0  0  0  0  0  0  0
   35.7860   27.8970   39.2380 C   0  0  0  0  0  0  0  0  0  0  0  0
   36.3090   27.1360   40.2360 N   0  0  0  0  0  0  0  0  0  0  0  0
   37.1600   27.0530   42.0960 H   0  0  0  0  0  0  0  0  0  0  0  0
   37.2100   29.6160   42.7250 N   0  0  0  0  0  0  0  0  0  0  0  0
   38.2180   29.3860   42.9590 H   0  0  0  0  0  0  0  0  0  0  0  0
   36.5940   30.2070   43.3350 H   0  0  0  0  0  0  0  0  0  0  0  0
   36.1150   31.2460   40.6440 N   0  0  0  0  0  0  0  0  0  0  0  0
   35.2860   31.7090   41.0370 H   0  0  0  0  0  0  0  0  0  0  0  0
   37.4250   32.2550   40.1540 S   0  0  0  0  0  0  0  0  0  0  0  0
   38.5590   32.2040   41.1670 O   0  0  0  0  0  1  0  0  0  0  0  0
   38.0150   31.7870   38.8480 O   0  0  0  0  0  1  0  0  0  0  0  0
   36.9270   33.8490   39.9150 O   0  0  0  0  0  0  0  0  0  0  0  0
   37.7350   34.3700   39.7260 H   0  0  0  0  0  0  0  0  0  0  0  0
  1  2  1  0  0  0  0
  1 25  1  0  0  0  0
  3  1  1  0  0  0  0
  4  8  1  0  0  0  0
  4  1  1  0  0  0  0
  5  4  2  0  0  0  0
  6  5  1  0  0  0  0
  6  7  2  0  0  0  0
  7 11  1  0  0  0  0
  7  8  1  0  0  0  0
  9  5  1  0  0  0  0
 10  6  1  0  0  0  0
 11 16  1  0  0  0  0
 12 13  1  0  0  0  0
 12 11  2  0  0  0  0
 13 14  2  0  0  0  0
 14 19  1  0  0  0  0
 14 15  1  0  0  0  0
 15 20  1  0  0  0  0
 16 15  2  0  0  0  0
 17 12  1  0  0  0  0
 18 13  1  0  0  0  0
 21 22  1  0  0  0  0
 21 27  1  0  0  0  0
 22 28  1  0  0  0  0
 23 31  1  0  0  0  0
 23 22  2  0  0  0  0
 24 23  1  0  0  0  0
 25 24  2  0  0  0  0
 25 26  1  0  0  0  0
 26 21  2  0  0  0  0
 28 29  1  0  0  0  0
 28 30  1  0  0  0  0
 31 32  1  0  0  0  0
 33 31  1  0  0  0  0
 33 34  1  0  0  0  0
 35 33  1  0  0  0  0
 36 33  1  0  0  0  0
 37 36  1  0  0  0  0
M  END
>  <minimizedAffinity>
-5.95953751

$$$$

 OpenBabel03242518223D

 37 39  0  0  0  0  0  0  0  0999 V2000
   35.5980   29.2830   40.2720 C   0  0  0  0  0  0  0  0  0  0  0  0
   35.1310   28.4080   39.7770 H   0  0  0  0  0  0  0  0  0  0  0  0
   34.8320   29.9030   40.7340 H   0  0  0  0  0  0  0  0  0  0  0  0
   36.5820   28.7950   41.2950 C   0  0  0  0  0  0  0  0  0  0  0  0
   36.2570   28.0220   42.3970 C   0  0  0  0  0  0  0  0  0  0  0  0
   37.4040   27.7650   43.1100 C   0  0  0  0  0  0  0  0  0  0  0  0
   38.3980   28.4060   42.3960 C   0  0  0  0  0  0  0  0  0  0  0  0
   37.8640   28.9790   41.3680 O   0  0  0  0  0  0  0  0  0  0  0  0
   35.2590   27.6650   42.6710 H   0  0  0  0  0  0  0  0  0  0  0  0
   37.5670   27.2080   44.0120 H   0  0  0  0  0  0  0  0  0  0  0  0
   39.8180   28.4210   42.7670 C   0  0  0  0  0  0  0  0  0  0  0  0
   40.5840   29.5350   42.5580 C   0  0  0  0  0  0  0  0  0  0  0  0
   41.9330   29.6100   42.8880 C   0  0  0  0  0  0  0  0  0  0  0  0
   42.4360   28.4230   43.4590 C   0  0  0  0  0  0  0  0  0  0  0  0
   41.6860   27.3040   43.6740 C   0  0  0  0  0  0  0  0  0  0  0  0
   40.3910   27.3410   43.3170 N   0  0  0  0  0  0  0  0  0  0  0  0
   40.1390   30.3980   42.1220 H   0  0  0  0  0  0  0  0  0  0  0  0
   42.5330   30.4860   42.7230 H   0  0  0  0  0  0  0  0  0  0  0  0
   43.4850   28.4010   43.7440 H   0  0  0  0  0  0  0  0  0  0  0  0
   42.1600   26.4330   44.1210 H   0  0  0  0  0  0  0  0  0  0  0  0
   37.3250   32.0160   38.5190 C   0  0  0  0  0  0  0  0  0  0  0  0
   37.5830   31.4950   37.2550 C   0  0  0  0  0  0  0  0  0  0  0  0
   37.1570   30.2090   37.0250 C   0  0  0  0  0  0  0  0  0  0  0  0
   36.5220   29.4940   37.9850 N   0  0  0  0  0  0  0  0  0  0  0  0
   36.2950   30.0490   39.2030 C   0  0  0  0  0  0  0  0  0  0  0  0
   36.7050   31.3200   39.4560 N   0  0  0  0  0  0  0  0  0  0  0  0
   37.6250   33.0180   38.7790 H   0  0  0  0  0  0  0  0  0  0  0  0
   38.2420   32.2910   36.3170 N   0  0  0  0  0  0  0  0  0  0  0  0
   39.1920   32.6630   36.6050 H   0  0  0  0  0  0  0  0  0  0  0  0
   37.7980   32.4910   35.3880 H   0  0  0  0  0  0  0  0  0  0  0  0
   37.3920   29.6180   35.7520 N   0  0  0  0  0  0  0  0  0  0  0  0
   38.2260   29.0450   35.5710 H   0  0  0  0  0  0  0  0  0  0  0  0
   36.2850   29.8350   34.4480 S   0  0  0  0  0  0  0  0  0  0  0  0
   34.8550   29.5790   34.9000 O   0  0  0  0  0  1  0  0  0  0  0  0
   36.3120   31.2540   33.9410 O   0  0  0  0  0  1  0  0  0  0  0  0
   36.6670   28.8460   33.1360 O   0  0  0  0  0  0  0  0  0  0  0  0
   35.9510   28.9620   32.4790 H   0  0  0  0  0  0  0  0  0  0  0  0
  1  3  1  0  0  0  0
  1  4  1  0  0  0  0
  2  1  1  0  0  0  0
  4  8  1  0  0  0  0
  4  5  2  0  0  0  0
  5  9  1  0  0  0  0
  5  6  1  0  0  0  0
  6 10  1  0  0  0  0
  7 11  1  0  0  0  0
  7  6  2  0  0  0  0
  8  7  1  0  0  0  0
 11 16  1  0  0  0  0
 12 11  2  0  0  0  0
 12 13  1  0  0  0  0
 13 14  2  0  0  0  0
 14 15  1  0  0  0  0
 14 19  1  0  0  0  0
 15 20  1  0  0  0  0
 16 15  2  0  0  0  0
 17 12  1  0  0  0  0
 18 13  1  0  0  0  0
 21 27  1  0  0  0  0
 21 26  1  0  0  0  0
 22 21  2  0  0  0  0
 23 22  1  0  0  0  0
 23 24  2  0  0  0  0
 24 25  1  0  0  0  0
 25 26  2  0  0  0  0
 25  1  1  0  0  0  0
 28 29  1  0  0  0  0
 28 22  1  0  0  0  0
 30 28  1  0  0  0  0
 31 23  1  0  0  0  0
 32 31  1  0  0  0  0
 33 34  1  0  0  0  0
 33 31  1  0  0  0  0
 35 33  1  0  0  0  0
 36 33  1  0  0  0  0
 37 36  1  0  0  0  0
M  END
>  <minimizedAffinity>
-5.95933294

$$$$

 OpenBabel03242518223D

 37 39  0  0  0  0  0  0  0  0999 V2000
   35.6740   29.9000   40.6210 C   0  0  0  0  0  0  0  0  0  0  0  0
   34.6950   29.6890   40.1460 H   0  0  0  0  0  0  0  0  0  0  0  0
   35.5430   30.5840   41.4580 H   0  0  0  0  0  0  0  0  0  0  0  0
   36.2840   28.6060   41.0750 C   0  0  0  0  0  0  0  0  0  0  0  0
   36.9250   28.4190   42.2880 C   0  0  0  0  0  0  0  0  0  0  0  0
   37.3560   27.1160   42.3630 C   0  0  0  0  0  0  0  0  0  0  0  0
   36.9500   26.5550   41.1680 C   0  0  0  0  0  0  0  0  0  0  0  0
   36.3410   27.4590   40.4730 O   0  0  0  0  0  0  0  0  0  0  0  0
   37.0740   29.1720   43.0690 H   0  0  0  0  0  0  0  0  0  0  0  0
   37.8860   26.5890   43.1320 H   0  0  0  0  0  0  0  0  0  0  0  0
   37.1830   25.1600   40.7760 C   0  0  0  0  0  0  0  0  0  0  0  0
   36.2880   24.4970   39.9820 C   0  0  0  0  0  0  0  0  0  0  0  0
   36.4530   23.1770   39.5770 C   0  0  0  0  0  0  0  0  0  0  0  0
   37.6370   22.5860   40.0670 C   0  0  0  0  0  0  0  0  0  0  0  0
   38.5390   23.2320   40.8590 C   0  0  0  0  0  0  0  0  0  0  0  0
   38.2790   24.5090   41.1890 N   0  0  0  0  0  0  0  0  0  0  0  0
   35.4140   25.0040   39.6480 H   0  0  0  0  0  0  0  0  0  0  0  0
   35.7480   22.6570   38.9540 H   0  0  0  0  0  0  0  0  0  0  0  0
   37.8380   21.5530   39.7950 H   0  0  0  0  0  0  0  0  0  0  0  0
   39.4260   22.6960   41.1890 H   0  0  0  0  0  0  0  0  0  0  0  0
   37.2630   30.5720   37.3740 C   0  0  0  0  0  0  0  0  0  0  0  0
   38.0690   31.6800   37.6160 C   0  0  0  0  0  0  0  0  0  0  0  0
   38.0530   32.1800   38.8960 C   0  0  0  0  0  0  0  0  0  0  0  0
   37.2890   31.6160   39.8630 N   0  0  0  0  0  0  0  0  0  0  0  0
   36.5200   30.5360   39.5750 C   0  0  0  0  0  0  0  0  0  0  0  0
   36.5180   30.0220   38.3150 N   0  0  0  0  0  0  0  0  0  0  0  0
   37.2200   30.1200   36.3950 H   0  0  0  0  0  0  0  0  0  0  0  0
   38.8280   32.2070   36.5700 N   0  0  0  0  0  0  0  0  0  0  0  0
   38.2920   32.5040   35.7050 H   0  0  0  0  0  0  0  0  0  0  0  0
   39.8700   32.2910   36.6630 H   0  0  0  0  0  0  0  0  0  0  0  0
   38.8550   33.3130   39.2080 N   0  0  0  0  0  0  0  0  0  0  0  0
   38.4600   34.2610   39.2300 H   0  0  0  0  0  0  0  0  0  0  0  0
   40.5340   33.1490   39.5660 S   0  0  0  0  0  0  0  0  0  0  0  0
   41.0490   31.7810   39.1420 O   0  0  0  0  0  1  0  0  0  0  0  0
   41.3550   34.1550   38.8010 O   0  0  0  0  0  1  0  0  0  0  0  0
   40.8510   33.4100   41.2020 O   0  0  0  0  0  0  0  0  0  0  0  0
   41.8000   33.2150   41.3390 H   0  0  0  0  0  0  0  0  0  0  0  0
  1  4  1  0  0  0  0
  1  3  1  0  0  0  0
  2  1  1  0  0  0  0
  4  5  2  0  0  0  0
  5  6  1  0  0  0  0
  5  9  1  0  0  0  0
  6 10  1  0  0  0  0
  7  6  2  0  0  0  0
  8  4  1  0  0  0  0
  8  7  1  0  0  0  0
 11  7  1  0  0  0  0
 11 16  1  0  0  0  0
 12 11  2  0  0  0  0
 13 12  1  0  0  0  0
 13 14  2  0  0  0  0
 14 15  1  0  0  0  0
 15 20  1  0  0  0  0
 15 16  2  0  0  0  0
 17 12  1  0  0  0  0
 18 13  1  0  0  0  0
 19 14  1  0  0  0  0
 21 22  2  0  0  0  0
 21 26  1  0  0  0  0
 22 23  1  0  0  0  0
 23 31  1  0  0  0  0
 23 24  2  0  0  0  0
 25 24  1  0  0  0  0
 25  1  1  0  0  0  0
 26 25  2  0  0  0  0
 27 21  1  0  0  0  0
 28 30  1  0  0  0  0
 28 22  1  0  0  0  0
 29 28  1  0  0  0  0
 31 32  1  0  0  0  0
 31 33  1  0  0  0  0
 33 36  1  0  0  0  0
 34 33  1  0  0  0  0
 35 33  1  0  0  0  0
 36 37  1  0  0  0  0
M  END
>  <minimizedAffinity>
-5.91582537

$$$$

 OpenBabel03242518223D

 37 39  0  0  0  0  0  0  0  0999 V2000
   40.4440   29.6530   41.8590 C   0  0  0  0  0  0  0  0  0  0  0  0
   40.8330   30.0500   42.8180 H   0  0  0  0  0  0  0  0  0  0  0  0
   41.2610   29.5180   41.1530 H   0  0  0  0  0  0  0  0  0  0  0  0
   39.7410   28.3530   42.1210 C   0  0  0  0  0  0  0  0  0  0  0  0
   39.4360   27.8590   43.3780 C   0  0  0  0  0  0  0  0  0  0  0  0
   38.7970   26.6510   43.2350 C   0  0  0  0  0  0  0  0  0  0  0  0
   38.7390   26.4570   41.8680 C   0  0  0  0  0  0  0  0  0  0  0  0
   39.2970   27.4660   41.2840 O   0  0  0  0  0  0  0  0  0  0  0  0
   39.6600   28.3380   44.3370 H   0  0  0  0  0  0  0  0  0  0  0  0
   38.4070   25.9660   43.9630 H   0  0  0  0  0  0  0  0  0  0  0  0
   38.1380   25.2890   41.2130 C   0  0  0  0  0  0  0  0  0  0  0  0
   36.9510   25.3980   40.5430 C   0  0  0  0  0  0  0  0  0  0  0  0
   36.3320   24.3290   39.9020 C   0  0  0  0  0  0  0  0  0  0  0  0
   37.0500   23.1200   40.0140 C   0  0  0  0  0  0  0  0  0  0  0  0
   38.2330   22.9950   40.6790 C   0  0  0  0  0  0  0  0  0  0  0  0
   38.7420   24.0940   41.2620 N   0  0  0  0  0  0  0  0  0  0  0  0
   36.4630   26.3420   40.4980 H   0  0  0  0  0  0  0  0  0  0  0  0
   35.4000   24.4160   39.3760 H   0  0  0  0  0  0  0  0  0  0  0  0
   36.6300   22.2350   39.5400 H   0  0  0  0  0  0  0  0  0  0  0  0
   38.7150   22.0200   40.7120 H   0  0  0  0  0  0  0  0  0  0  0  0
   39.1010   32.8330   40.5920 C   0  0  0  0  0  0  0  0  0  0  0  0
   37.7520   32.5680   40.3820 C   0  0  0  0  0  0  0  0  0  0  0  0
   37.3240   31.2970   40.6810 C   0  0  0  0  0  0  0  0  0  0  0  0
   38.1790   30.3580   41.1530 N   0  0  0  0  0  0  0  0  0  0  0  0
   39.4880   30.6670   41.3410 C   0  0  0  0  0  0  0  0  0  0  0  0
   39.9360   31.9190   41.0530 N   0  0  0  0  0  0  0  0  0  0  0  0
   39.5150   33.8060   40.3840 H   0  0  0  0  0  0  0  0  0  0  0  0
   36.9310   33.5850   39.8930 N   0  0  0  0  0  0  0  0  0  0  0  0
   37.2210   34.0180   38.9700 H   0  0  0  0  0  0  0  0  0  0  0  0
   36.0810   33.8830   40.4310 H   0  0  0  0  0  0  0  0  0  0  0  0
   35.9540   30.9620   40.4860 N   0  0  0  0  0  0  0  0  0  0  0  0
   35.2290   31.6870   40.4130 H   0  0  0  0  0  0  0  0  0  0  0  0
   35.4430   29.3200   40.3650 S   0  0  0  0  0  0  0  0  0  0  0  0
   33.9550   29.2340   40.0610 O   0  0  0  0  0  1  0  0  0  0  0  0
   36.1390   28.6160   39.2270 O   0  0  0  0  0  1  0  0  0  0  0  0
   35.8050   28.4500   41.7640 O   0  0  0  0  0  0  0  0  0  0  0  0
   35.4100   27.5610   41.6520 H   0  0  0  0  0  0  0  0  0  0  0  0
  1  4  1  0  0  0  0
  1  2  1  0  0  0  0
  3  1  1  0  0  0  0
  4  5  2  0  0  0  0
  5  9  1  0  0  0  0
  6  5  1  0  0  0  0
  6 10  1  0  0  0  0
  7  6  2  0  0  0  0
  8  7  1  0  0  0  0
  8  4  1  0  0  0  0
 11 16  1  0  0  0  0
 11  7  1  0  0  0  0
 12 11  2  0  0  0  0
 13 14  2  0  0  0  0
 13 12  1  0  0  0  0
 14 15  1  0  0  0  0
 15 20  1  0  0  0  0
 15 16  2  0  0  0  0
 17 12  1  0  0  0  0
 18 13  1  0  0  0  0
 19 14  1  0  0  0  0
 21 26  1  0  0  0  0
 22 21  2  0  0  0  0
 22 23  1  0  0  0  0
 23 24  2  0  0  0  0
 24 25  1  0  0  0  0
 25  1  1  0  0  0  0
 26 25  2  0  0  0  0
 27 21  1  0  0  0  0
 28 22  1  0  0  0  0
 28 30  1  0  0  0  0
 29 28  1  0  0  0  0
 31 23  1  0  0  0  0
 32 31  1  0  0  0  0
 33 31  1  0  0  0  0
 33 36  1  0  0  0  0
 34 33  1  0  0  0  0
 35 33  1  0  0  0  0
 37 36  1  0  0  0  0
M  END
>  <minimizedAffinity>
-5.85550737

$$$$

 OpenBabel03242518223D

 37 39  0  0  0  0  0  0  0  0999 V2000
   37.7050   31.5620   37.6230 C   0  0  0  0  0  0  0  0  0  0  0  0
   38.2690   31.2800   36.7130 H   0  0  0  0  0  0  0  0  0  0  0  0
   36.9530   32.3110   37.3800 H   0  0  0  0  0  0  0  0  0  0  0  0
   37.0680   30.3310   38.2010 C   0  0  0  0  0  0  0  0  0  0  0  0
   35.8850   29.7690   37.7520 C   0  0  0  0  0  0  0  0  0  0  0  0
   35.6070   28.6590   38.5130 C   0  0  0  0  0  0  0  0  0  0  0  0
   36.6550   28.5910   39.4100 C   0  0  0  0  0  0  0  0  0  0  0  0
   37.4590   29.5770   39.1820 O   0  0  0  0  0  0  0  0  0  0  0  0
   35.2610   30.1360   36.9300 H   0  0  0  0  0  0  0  0  0  0  0  0
   34.7930   27.9620   38.4770 H   0  0  0  0  0  0  0  0  0  0  0  0
   36.8070   27.5600   40.4440 C   0  0  0  0  0  0  0  0  0  0  0  0
   36.8810   26.2370   40.1060 C   0  0  0  0  0  0  0  0  0  0  0  0
   37.0250   25.2140   41.0380 C   0  0  0  0  0  0  0  0  0  0  0  0
   37.0860   25.6770   42.3690 C   0  0  0  0  0  0  0  0  0  0  0  0
   37.0130   26.9910   42.7230 C   0  0  0  0  0  0  0  0  0  0  0  0
   36.8750   27.8970   41.7390 N   0  0  0  0  0  0  0  0  0  0  0  0
   36.8280   25.9580   39.0800 H   0  0  0  0  0  0  0  0  0  0  0  0
   37.0820   24.1750   40.7700 H   0  0  0  0  0  0  0  0  0  0  0  0
   37.1970   24.9370   43.1580 H   0  0  0  0  0  0  0  0  0  0  0  0
   37.0690   27.2540   43.7760 H   0  0  0  0  0  0  0  0  0  0  0  0
   39.1260   33.3280   40.5190 C   0  0  0  0  0  0  0  0  0  0  0  0
   40.5010   33.1950   40.3520 C   0  0  0  0  0  0  0  0  0  0  0  0
   40.9180   32.4980   39.2440 C   0  0  0  0  0  0  0  0  0  0  0  0
   40.0300   31.9720   38.3660 N   0  0  0  0  0  0  0  0  0  0  0  0
   38.6980   32.1300   38.5740 C   0  0  0  0  0  0  0  0  0  0  0  0
   38.2590   32.8160   39.6640 N   0  0  0  0  0  0  0  0  0  0  0  0
   38.7180   33.8610   41.3620 H   0  0  0  0  0  0  0  0  0  0  0  0
   41.3550   33.7640   41.2980 N   0  0  0  0  0  0  0  0  0  0  0  0
   41.2190   33.4490   42.3010 H   0  0  0  0  0  0  0  0  0  0  0  0
   42.0820   34.4610   41.0030 H   0  0  0  0  0  0  0  0  0  0  0  0
   42.3130   32.3260   39.0170 N   0  0  0  0  0  0  0  0  0  0  0  0
   42.9370   31.9690   39.7510 H   0  0  0  0  0  0  0  0  0  0  0  0
   43.0250   32.7090   37.4940 S   0  0  0  0  0  0  0  0  0  0  0  0
   44.4930   33.0760   37.6560 O   0  0  0  0  0  1  0  0  0  0  0  0
   42.9960   31.5220   36.5650 O   0  0  0  0  0  1  0  0  0  0  0  0
   42.1950   33.9530   36.7140 O   0  0  0  0  0  0  0  0  0  0  0  0
   42.7060   34.1690   35.9070 H   0  0  0  0  0  0  0  0  0  0  0  0
  1  4  1  0  0  0  0
  1 25  1  0  0  0  0
  2  1  1  0  0  0  0
  3  1  1  0  0  0  0
  4  8  1  0  0  0  0
  5  4  2  0  0  0  0
  5  6  1  0  0  0  0
  6  7  2  0  0  0  0
  7 11  1  0  0  0  0
  8  7  1  0  0  0  0
  9  5  1  0  0  0  0
 10  6  1  0  0  0  0
 11 16  1  0  0  0  0
 12 11  2  0  0  0  0
 12 13  1  0  0  0  0
 13 14  2  0  0  0  0
 14 15  1  0  0  0  0
 14 19  1  0  0  0  0
 15 20  1  0  0  0  0
 16 15  2  0  0  0  0
 17 12  1  0  0  0  0
 18 13  1  0  0  0  0
 21 27  1  0  0  0  0
 22 21  1  0  0  0  0
 22 28  1  0  0  0  0
 23 22  2  0  0  0  0
 24 25  2  0  0  0  0
 24 23  1  0  0  0  0
 25 26  1  0  0  0  0
 26 21  2  0  0  0  0
 28 29  1  0  0  0  0
 30 28  1  0  0  0  0
 31 23  1  0  0  0  0
 31 32  1  0  0  0  0
 33 34  1  0  0  0  0
 33 31  1  0  0  0  0
 35 33  1  0  0  0  0
 36 33  1  0  0  0  0
 37 36  1  0  0  0  0
M  END
>  <minimizedAffinity>
-5.83453035

$$$$

 OpenBabel03242518223D

 37 39  0  0  0  0  0  0  0  0999 V2000
   37.5150   30.5530   37.2630 C   0  0  0  0  0  0  0  0  0  0  0  0
   38.4500   30.2480   36.7530 H   0  0  0  0  0  0  0  0  0  0  0  0
   36.8460   31.0400   36.5560 H   0  0  0  0  0  0  0  0  0  0  0  0
   36.8690   29.3380   37.8620 C   0  0  0  0  0  0  0  0  0  0  0  0
   35.6410   28.8270   37.4800 C   0  0  0  0  0  0  0  0  0  0  0  0
   35.3680   27.7150   38.2410 C   0  0  0  0  0  0  0  0  0  0  0  0
   36.4670   27.5950   39.0710 C   0  0  0  0  0  0  0  0  0  0  0  0
   37.2910   28.5540   38.8060 O   0  0  0  0  0  0  0  0  0  0  0  0
   34.9820   29.2290   36.7030 H   0  0  0  0  0  0  0  0  0  0  0  0
   34.5270   27.0500   38.2460 H   0  0  0  0  0  0  0  0  0  0  0  0
   36.6420   26.5420   40.0780 C   0  0  0  0  0  0  0  0  0  0  0  0
   37.0260   26.8530   41.3540 C   0  0  0  0  0  0  0  0  0  0  0  0
   37.2090   25.9020   42.3520 C   0  0  0  0  0  0  0  0  0  0  0  0
   36.9610   24.5830   41.9190 C   0  0  0  0  0  0  0  0  0  0  0  0
   36.5780   24.2560   40.6520 C   0  0  0  0  0  0  0  0  0  0  0  0
   36.4310   25.2560   39.7660 N   0  0  0  0  0  0  0  0  0  0  0  0
   37.1970   27.8710   41.6130 H   0  0  0  0  0  0  0  0  0  0  0  0
   37.5110   26.1480   43.3540 H   0  0  0  0  0  0  0  0  0  0  0  0
   37.0830   23.7800   42.6430 H   0  0  0  0  0  0  0  0  0  0  0  0
   36.4090   23.2100   40.4090 H   0  0  0  0  0  0  0  0  0  0  0  0
   37.3730   32.6350   40.2900 C   0  0  0  0  0  0  0  0  0  0  0  0
   38.6070   33.2770   40.3160 C   0  0  0  0  0  0  0  0  0  0  0  0
   39.4710   32.9830   39.2890 C   0  0  0  0  0  0  0  0  0  0  0  0
   39.1290   32.1120   38.3080 N   0  0  0  0  0  0  0  0  0  0  0  0
   37.9120   31.5120   38.3290 C   0  0  0  0  0  0  0  0  0  0  0  0
   37.0380   31.7860   39.3350 N   0  0  0  0  0  0  0  0  0  0  0  0
   36.6380   32.8130   41.0600 H   0  0  0  0  0  0  0  0  0  0  0  0
   38.8880   34.1610   41.3590 N   0  0  0  0  0  0  0  0  0  0  0  0
   38.8210   33.7650   42.3390 H   0  0  0  0  0  0  0  0  0  0  0  0
   39.1500   35.1560   41.1520 H   0  0  0  0  0  0  0  0  0  0  0  0
   40.7500   33.6060   39.2580 N   0  0  0  0  0  0  0  0  0  0  0  0
   40.9200   34.4570   38.7090 H   0  0  0  0  0  0  0  0  0  0  0  0
   42.0810   32.9600   40.1440 S   0  0  0  0  0  0  0  0  0  0  0  0
   42.4660   31.5840   39.6210 O   0  0  0  0  0  1  0  0  0  0  0  0
   43.3080   33.8210   39.9880 O   0  0  0  0  0  1  0  0  0  0  0  0
   41.7500   32.8850   41.7970 O   0  0  0  0  0  0  0  0  0  0  0  0
   42.5110   32.4320   42.2150 H   0  0  0  0  0  0  0  0  0  0  0  0
  1  4  1  0  0  0  0
  1 25  1  0  0  0  0
  2  1  1  0  0  0  0
  3  1  1  0  0  0  0
  4  8  1  0  0  0  0
  5  4  2  0  0  0  0
  5  6  1  0  0  0  0
  6 10  1  0  0  0  0
  6  7  2  0  0  0  0
  7 11  1  0  0  0  0
  8  7  1  0  0  0  0
  9  5  1  0  0  0  0
 11 12  1  0  0  0  0
 12 17  1  0  0  0  0
 12 13  2  0  0  0  0
 13 18  1  0  0  0  0
 14 13  1  0  0  0  0
 14 19  1  0  0  0  0
 15 14  2  0  0  0  0
 16 11  2  0  0  0  0
 16 15  1  0  0  0  0
 20 15  1  0  0  0  0
 21 22  1  0  0  0  0
 21 27  1  0  0  0  0
 22 28  1  0  0  0  0
 23 22  2  0  0  0  0
 24 25  2  0  0  0  0
 24 23  1  0  0  0  0
 25 26  1  0  0  0  0
 26 21  2  0  0  0  0
 28 29  1  0  0  0  0
 30 28  1  0  0  0  0
 31 23  1  0  0  0  0
 31 33  1  0  0  0  0
 32 31  1  0  0  0  0
 33 36  1  0  0  0  0
 34 33  1  0  0  0  0
 35 33  1  0  0  0  0
 36 37  1  0  0  0  0
M  END
>  <minimizedAffinity>
-5.64268637

$$$$
