
 OpenBabel03242518593D

 33 35  0  0  1  0  0  0  0  0999 V2000
   43.0560   33.5530   40.0570 C   0  0  0  0  0  0  0  0  0  0  0  0
   43.5070   32.8940   38.9330 C   0  0  0  0  0  0  0  0  0  0  0  0
   44.5920   32.0410   38.9280 C   0  0  0  0  0  0  0  0  0  0  0  0
   45.2760   31.8150   40.0750 C   0  0  0  0  0  0  0  0  0  0  0  0
   44.8620   32.4550   41.2410 C   0  0  0  0  0  0  0  0  0  0  0  0
   43.7700   33.2950   41.1830 C   0  0  0  0  0  0  0  0  0  0  0  0
   42.9310   33.0970   38.0120 H   0  0  0  0  0  0  0  0  0  0  0  0
   44.8060   31.6150   37.9760 H   0  0  0  0  0  0  0  0  0  0  0  0
   46.1070   31.1220   39.9250 H   0  0  0  0  0  0  0  0  0  0  0  0
   45.5220   32.1580   42.0540 H   0  0  0  0  0  0  0  0  0  0  0  0
   40.4720   34.0140   40.0730 C   0  0  1  0  0  0  0  0  0  0  0  0
   41.1820   34.6480   41.2580 C   0  0  0  0  0  0  0  0  0  0  0  0
   41.8910   34.4490   40.0650 C   0  0  1  0  0  0  0  0  0  0  0  0
   39.7260   34.6010   39.5210 H   0  0  0  0  0  0  0  0  0  0  0  0
   40.9790   34.1380   42.1750 H   0  0  0  0  0  0  0  0  0  0  0  0
   40.8130   35.7470   41.4160 H   0  0  0  0  0  0  0  0  0  0  0  0
   41.9900   35.1780   39.2050 H   0  0  0  0  0  0  0  0  0  0  0  0
   40.0970   32.5920   40.1980 C   0  0  0  0  0  0  0  0  0  0  0  0
   40.2020   31.8160   39.0030 C   0  0  0  0  0  0  0  0  0  0  0  0
   39.8440   30.4610   39.1440 C   0  0  0  0  0  0  0  0  0  0  0  0
   39.4380   30.0080   40.3650 N   0  0  0  0  0  0  0  0  0  0  0  0
   39.3620   30.8110   41.4630 C   0  0  0  0  0  0  0  0  0  0  0  0
   39.6940   32.1260   41.3930 N   0  0  0  0  0  0  0  0  0  0  0  0
   40.5340   32.2830   38.1020 H   0  0  0  0  0  0  0  0  0  0  0  0
   39.9090   29.8470   38.2800 H   0  0  0  0  0  0  0  0  0  0  0  0
   39.0200   30.2610   42.3290 H   0  0  0  0  0  0  0  0  0  0  0  0
   43.6010   33.7260   42.5270 N   0  0  0  0  0  0  0  0  0  0  0  0
   43.1480   33.4600   43.4220 H   0  0  0  0  0  0  0  0  0  0  0  0
   44.3910   35.1520   43.0920 S   0  0  0  0  0  0  0  0  0  0  0  0
   44.3630   36.1710   41.9620 O   0  0  0  0  0  0  0  0  0  0  0  0
   45.8070   34.9210   43.4480 O   0  0  0  0  0  0  0  0  0  0  0  0
   43.5290   35.8580   44.3570 O   0  0  0  0  0  0  0  0  0  0  0  0
   43.8390   36.7840   44.4850 H   0  0  0  0  0  0  0  0  0  0  0  0
  1 13  1  0  0  0  0
  1  6  1  0  0  0  0
  2  1  2  0  0  0  0
  3  2  1  0  0  0  0
  3  4  2  0  0  0  0
  4  5  1  0  0  0  0
  5 10  1  0  0  0  0
  6  5  2  0  0  0  0
  6 27  1  0  0  0  0
  7  2  1  0  0  0  0
  8  3  1  0  0  0  0
  9  4  1  0  0  0  0
 11 14  1  6  0  0  0
 11 18  1  0  0  0  0
 11 12  1  0  0  0  0
 12 16  1  0  0  0  0
 12 15  1  0  0  0  0
 13 17  1  6  0  0  0
 13 11  1  0  0  0  0
 13 12  1  0  0  0  0
 18 23  1  0  0  0  0
 19 20  1  0  0  0  0
 19 18  2  0  0  0  0
 20 21  2  0  0  0  0
 21 22  1  0  0  0  0
 22 26  1  0  0  0  0
 23 22  2  0  0  0  0
 24 19  1  0  0  0  0
 25 20  1  0  0  0  0
 27 29  1  0  0  0  0
 27 28  1  0  0  0  0
 29 31  1  0  0  0  0
 29 32  1  0  0  0  0
 30 29  1  0  0  0  0
 32 33  1  0  0  0  0
M  END
>  <minimizedAffinity>
-4.19417572

>  <minimizedRMSD>
5.84209394

$$$$
