
     RDKit          3D

 39 41  0  0  0  0  0  0  0  0999 V2000
   45.1231   33.9411   40.7067 C   0  0  0  0  0  0  0  0  0  0  0  0
   44.0820   33.6290   39.8701 C   0  0  0  0  0  0  0  0  0  0  0  0
   44.3814   33.1529   38.6316 C   0  0  0  0  0  0  0  0  0  0  0  0
   45.6628   32.9671   38.1715 C   0  0  0  0  0  0  0  0  0  0  0  0
   46.6911   33.2852   39.0235 C   0  0  0  0  0  0  0  0  0  0  0  0
   46.4378   33.7744   40.2970 C   0  0  0  0  0  0  0  0  0  0  0  0
   40.7974   35.2635   40.7901 C   0  0  0  0  0  0  0  0  0  0  0  0
   42.0962   35.0895   40.2717 C   0  0  0  0  0  0  0  0  0  0  0  0
   42.7446   33.8395   40.3937 C   0  0  0  0  0  0  0  0  0  0  0  0
   42.0318   32.8874   41.0211 N   0  0  0  0  0  0  0  0  0  0  0  0
   40.8072   33.0592   41.5074 C   0  0  0  0  0  0  0  0  0  0  0  0
   40.1881   34.2415   41.3945 N   0  0  0  0  0  0  0  0  0  0  0  0
   40.1934   36.5264   40.6443 N   0  0  0  0  0  0  0  0  0  0  0  0
   47.5939   34.0818   41.1124 C   0  0  0  0  0  0  0  0  0  0  0  0
   48.1494   35.3169   40.9655 C   0  0  0  0  0  0  0  0  0  0  0  0
   49.2522   35.7913   41.6540 C   0  0  0  0  0  0  0  0  0  0  0  0
   49.8315   34.9409   42.5606 C   0  0  0  0  0  0  0  0  0  0  0  0
   49.3025   33.6858   42.7395 C   0  0  0  0  0  0  0  0  0  0  0  0
   48.2021   33.2635   42.0273 C   0  0  0  0  0  0  0  0  0  0  0  0
   44.7149   34.8693   43.1089 N   0  0  0  0  0  0  0  0  0  0  0  0
   44.9015   34.4506   42.0338 C   0  0  0  0  0  0  0  0  0  0  0  0
   43.5530   32.9085   37.9760 H   0  0  0  0  0  0  0  0  0  0  0  0
   45.8058   32.5814   37.1663 H   0  0  0  0  0  0  0  0  0  0  0  0
   47.6945   33.1288   38.6349 H   0  0  0  0  0  0  0  0  0  0  0  0
   42.5883   35.9079   39.7858 H   0  0  0  0  0  0  0  0  0  0  0  0
   40.2763   32.2663   42.0021 H   0  0  0  0  0  0  0  0  0  0  0  0
   39.9590   36.8289   39.6531 H   0  0  0  0  0  0  0  0  0  0  0  0
   39.9129   37.2640   41.3281 H   0  0  0  0  0  0  0  0  0  0  0  0
   47.7280   36.0431   40.2528 H   0  0  0  0  0  0  0  0  0  0  0  0
   49.6519   36.7824   41.4976 H   0  0  0  0  0  0  0  0  0  0  0  0
   50.6973   35.2824   43.1165 H   0  0  0  0  0  0  0  0  0  0  0  0
   49.8022   33.0634   43.4670 H   0  0  0  0  0  0  0  0  0  0  0  0
   47.6528   31.9634   42.2122 N   0  0  0  0  0  0  0  0  0  0  0  0
   47.3597   31.3850   41.3830 H   0  0  0  0  0  0  0  0  0  0  0  0
   47.3129   31.0082   43.5718 S   0  0  0  0  0  0  0  0  0  0  0  0
   47.9542   29.6335   43.4341 O   0  0  0  0  0  0  0  0  0  0  0  0
   47.7532   31.6433   44.8414 O   0  0  0  0  0  0  0  0  0  0  0  0
   45.6354   30.7263   43.5824 O   0  0  0  0  0  0  0  0  0  0  0  0
   45.2474   31.6322   43.7998 H   0  0  0  0  0  0  0  0  0  0  0  0
  1 21  1  0
  2  9  1  0
  2  1  2  0
  3  2  1  0
  4  3  2  0
  4  5  1  0
  5  6  2  0
  6  1  1  0
  6 14  1  0
  7 12  2  0
  8  9  2  0
  8  7  1  0
  9 10  1  0
 10 11  2  0
 12 11  1  0
 13  7  1  0
 14 19  1  0
 15 14  2  0
 15 16  1  0
 16 17  2  0
 17 18  1  0
 19 18  2  0
 21 20  3  0
  3 22  1  0
  4 23  1  0
  5 24  1  0
  8 25  1  0
 11 26  1  0
 13 27  1  0
 13 28  1  0
 15 29  1  0
 16 30  1  0
 17 31  1  0
 18 32  1  0
 33 34  1  0
 33 35  1  0
 35 36  2  0
 35 37  2  0
 35 38  1  0
 38 39  1  0
 19 33  1  0
M  ISO  8  22  14  23  14  24  14  25  14  26  14  29  14  30  14  31  14
M  ISO  3  32  14  34   5  39   3
M  END
>  <DihAtoms>  (1) 
13,18,32,33

>  <DihDeg>  (1) 
-1.5445681669407485

$$$$
