
 OpenBabel03252508373D

 39 41  0  0  0  0  0  0  0  0999 V2000
   45.1430   33.9600   40.7010 C   0  0  0  0  0  0  0  0  0  0  0  0
   44.1040   33.6380   39.8650 C   0  0  0  0  0  0  0  0  0  0  0  0
   44.4060   33.1600   38.6290 C   0  0  0  0  0  0  0  0  0  0  0  0
   45.6890   32.9820   38.1690 C   0  0  0  0  0  0  0  0  0  0  0  0
   46.7150   33.3100   39.0180 C   0  0  0  0  0  0  0  0  0  0  0  0
   46.4590   33.8020   40.2900 C   0  0  0  0  0  0  0  0  0  0  0  0
   43.5790   32.9070   37.9740 H   0  0  0  0  0  0  0  0  0  0  0  0
   45.8340   32.5940   37.1640 H   0  0  0  0  0  0  0  0  0  0  0  0
   47.7190   33.1600   38.6300 H   0  0  0  0  0  0  0  0  0  0  0  0
   40.8080   35.2520   40.7830 C   0  0  0  0  0  0  0  0  0  0  0  0
   42.1080   35.0860   40.2650 C   0  0  0  0  0  0  0  0  0  0  0  0
   42.7660   33.8410   40.3890 C   0  0  0  0  0  0  0  0  0  0  0  0
   42.0590   32.8840   41.0190 N   0  0  0  0  0  0  0  0  0  0  0  0
   40.8330   33.0490   41.5050 C   0  0  0  0  0  0  0  0  0  0  0  0
   40.2060   34.2280   41.3910 N   0  0  0  0  0  0  0  0  0  0  0  0
   40.1950   36.5100   40.6350 N   0  0  0  0  0  0  0  0  0  0  0  0
   42.5940   35.9060   39.7770 H   0  0  0  0  0  0  0  0  0  0  0  0
   40.3080   32.2530   42.0020 H   0  0  0  0  0  0  0  0  0  0  0  0
   39.9590   36.8090   39.6430 H   0  0  0  0  0  0  0  0  0  0  0  0
   39.9110   37.2470   41.3170 H   0  0  0  0  0  0  0  0  0  0  0  0
   47.6130   34.1210   41.1040 C   0  0  0  0  0  0  0  0  0  0  0  0
   48.1570   35.3610   40.9550 C   0  0  0  0  0  0  0  0  0  0  0  0
   49.2560   35.8450   41.6430 C   0  0  0  0  0  0  0  0  0  0  0  0
   49.8440   35.0010   42.5490 C   0  0  0  0  0  0  0  0  0  0  0  0
   49.3280   33.7410   42.7290 C   0  0  0  0  0  0  0  0  0  0  0  0
   48.2300   33.3090   42.0190 C   0  0  0  0  0  0  0  0  0  0  0  0
   47.7280   36.0820   40.2440 H   0  0  0  0  0  0  0  0  0  0  0  0
   49.6470   36.8400   41.4860 H   0  0  0  0  0  0  0  0  0  0  0  0
   50.7080   35.3500   43.1040 H   0  0  0  0  0  0  0  0  0  0  0  0
   49.8330   33.1230   43.4570 H   0  0  0  0  0  0  0  0  0  0  0  0
   47.6930   32.0030   42.2050 N   0  0  0  0  0  0  0  0  0  0  0  0
   47.0260   31.8080   42.9970 H   0  0  0  0  0  0  0  0  0  0  0  0
   47.8730   30.5260   41.3930 S   0  0  0  0  0  0  0  0  0  0  0  0
   46.5930   30.1630   40.6520 O   0  0  0  0  0  1  0  0  0  0  0  0
   49.0190   30.5290   40.4460 O   0  0  0  0  0  1  0  0  0  0  0  0
   48.0670   29.3200   42.5770 O   0  0  0  0  0  0  0  0  0  0  0  0
   48.9790   29.5160   42.9630 H   0  0  0  0  0  0  0  0  0  0  0  0
   44.7300   34.8930   43.1000 N   0  0  0  0  0  0  0  0  0  0  0  0
   44.9180   34.4730   42.0260 C   0  0  0  0  0  0  0  0  0  0  0  0
  1 39  1  0  0  0  0
  2 12  1  0  0  0  0
  2  1  2  0  0  0  0
  3  2  1  0  0  0  0
  4  3  2  0  0  0  0
  4  5  1  0  0  0  0
  5  6  2  0  0  0  0
  6  1  1  0  0  0  0
  6 21  1  0  0  0  0
  7  3  1  0  0  0  0
  8  4  1  0  0  0  0
  9  5  1  0  0  0  0
 10 15  1  0  0  0  0
 11 12  1  0  0  0  0
 11 10  2  0  0  0  0
 12 13  2  0  0  0  0
 13 14  1  0  0  0  0
 14 18  1  0  0  0  0
 15 14  2  0  0  0  0
 16 10  1  0  0  0  0
 16 20  1  0  0  0  0
 17 11  1  0  0  0  0
 19 16  1  0  0  0  0
 21 26  1  0  0  0  0
 22 21  2  0  0  0  0
 22 23  1  0  0  0  0
 23 24  2  0  0  0  0
 24 25  1  0  0  0  0
 24 29  1  0  0  0  0
 25 30  1  0  0  0  0
 26 31  1  0  0  0  0
 26 25  2  0  0  0  0
 27 22  1  0  0  0  0
 28 23  1  0  0  0  0
 31 32  1  0  0  0  0
 33 31  1  0  0  0  0
 33 36  1  0  0  0  0
 34 33  1  0  0  0  0
 35 33  1  0  0  0  0
 36 37  1  0  0  0  0
 39 38  3  0  0  0  0
M  END
>  <minimizedAffinity>
-5.61570883

>  <minimizedRMSD>
0.390096277

$$$$
