
 OpenBabel03242519593D

 26 27  0  0  0  0  0  0  0  0999 V2000
   40.5100   29.5420   40.5510 Br  0  0  0  0  0  0  0  0  0  0  0  0
   39.0220   30.7150   40.3790 C   0  0  0  0  0  0  0  0  0  0  0  0
   37.7840   30.4350   40.8890 C   0  0  0  0  0  0  0  0  0  0  0  0
   36.7580   31.3410   40.7080 C   0  0  0  0  0  0  0  0  0  0  0  0
   36.9340   32.5260   40.0270 C   0  0  0  0  0  0  0  0  0  0  0  0
   38.1710   32.8330   39.5030 C   0  0  0  0  0  0  0  0  0  0  0  0
   39.1730   31.9150   39.6970 C   0  0  0  0  0  0  0  0  0  0  0  0
   35.7810   31.1100   41.1160 H   0  0  0  0  0  0  0  0  0  0  0  0
   36.0910   33.1950   39.9190 H   0  0  0  0  0  0  0  0  0  0  0  0
   38.2590   33.7650   38.9830 H   0  0  0  0  0  0  0  0  0  0  0  0
   37.6400   27.8580   43.6790 C   0  0  0  0  0  0  0  0  0  0  0  0
   37.7910   29.0610   42.9840 C   0  0  0  0  0  0  0  0  0  0  0  0
   37.6320   29.1720   41.6150 C   0  0  0  0  0  0  0  0  0  0  0  0
   37.3110   28.0040   40.9800 N   0  0  0  0  0  0  0  0  0  0  0  0
   37.1620   26.8400   41.6390 C   0  0  0  0  0  0  0  0  0  0  0  0
   37.3220   26.7660   42.9580 N   0  0  0  0  0  0  0  0  0  0  0  0
   37.7750   27.8250   44.7520 H   0  0  0  0  0  0  0  0  0  0  0  0
   38.0430   29.9340   43.5540 H   0  0  0  0  0  0  0  0  0  0  0  0
   36.9110   26.0550   40.9490 H   0  0  0  0  0  0  0  0  0  0  0  0
   40.4620   32.1930   39.1730 N   0  0  0  0  0  0  0  0  0  0  0  0
   41.3090   32.3090   39.8000 H   0  0  0  0  0  0  0  0  0  0  0  0
   41.1530   32.4310   37.6460 S   0  0  0  0  0  0  0  0  0  0  0  0
   42.1920   31.3600   37.3450 O   0  0  0  0  0  1  0  0  0  0  0  0
   41.8090   33.7930   37.5840 O   0  0  0  0  0  1  0  0  0  0  0  0
   39.9130   32.3950   36.4840 O   0  0  0  0  0  0  0  0  0  0  0  0
   39.5900   33.3340   36.3550 H   0  0  0  0  0  0  0  0  0  0  0  0
  2  1  1  0  0  0  0
  2  3  1  0  0  0  0
  3 13  1  0  0  0  0
  4  3  2  0  0  0  0
  4  8  1  0  0  0  0
  5  4  1  0  0  0  0
  6  7  1  0  0  0  0
  6  5  2  0  0  0  0
  7  2  2  0  0  0  0
  9  5  1  0  0  0  0
 10  6  1  0  0  0  0
 11 17  1  0  0  0  0
 12 18  1  0  0  0  0
 12 11  1  0  0  0  0
 13 12  2  0  0  0  0
 14 13  1  0  0  0  0
 14 15  2  0  0  0  0
 15 16  1  0  0  0  0
 16 11  2  0  0  0  0
 19 15  1  0  0  0  0
 20  7  1  0  0  0  0
 20 21  1  0  0  0  0
 22 20  1  0  0  0  0
 23 22  1  0  0  0  0
 24 22  1  0  0  0  0
 25 22  1  0  0  0  0
 26 25  1  0  0  0  0
M  END
>  <minimizedAffinity>
-4.97034264

$$$$

 OpenBabel03242519593D

 26 27  0  0  0  0  0  0  0  0999 V2000
   38.1810   27.3300   39.1740 Br  0  0  0  0  0  0  0  0  0  0  0  0
   37.6820   27.4310   41.0070 C   0  0  0  0  0  0  0  0  0  0  0  0
   37.3180   26.3380   41.7470 C   0  0  0  0  0  0  0  0  0  0  0  0
   36.9610   26.5060   43.0690 C   0  0  0  0  0  0  0  0  0  0  0  0
   36.9560   27.7420   43.6790 C   0  0  0  0  0  0  0  0  0  0  0  0
   37.3180   28.8590   42.9570 C   0  0  0  0  0  0  0  0  0  0  0  0
   37.6680   28.6640   41.6450 C   0  0  0  0  0  0  0  0  0  0  0  0
   36.6740   25.6350   43.6470 H   0  0  0  0  0  0  0  0  0  0  0  0
   36.6660   27.8090   44.7190 H   0  0  0  0  0  0  0  0  0  0  0  0
   37.2990   29.7970   43.4750 H   0  0  0  0  0  0  0  0  0  0  0  0
   38.4120   22.9000   40.5520 C   0  0  0  0  0  0  0  0  0  0  0  0
   38.3900   24.1440   41.1890 C   0  0  0  0  0  0  0  0  0  0  0  0
   37.3420   25.0390   41.0720 C   0  0  0  0  0  0  0  0  0  0  0  0
   36.3140   24.6140   40.2770 N   0  0  0  0  0  0  0  0  0  0  0  0
   36.3240   23.4190   39.6590 C   0  0  0  0  0  0  0  0  0  0  0  0
   37.3470   22.5790   39.7920 N   0  0  0  0  0  0  0  0  0  0  0  0
   39.2570   22.2360   40.6760 H   0  0  0  0  0  0  0  0  0  0  0  0
   39.2340   24.4040   41.7970 H   0  0  0  0  0  0  0  0  0  0  0  0
   35.4220   23.2910   39.0890 H   0  0  0  0  0  0  0  0  0  0  0  0
   38.0480   29.7890   40.8670 N   0  0  0  0  0  0  0  0  0  0  0  0
   39.0190   29.8820   40.4530 H   0  0  0  0  0  0  0  0  0  0  0  0
   37.3260   31.2210   40.3280 S   0  0  0  0  0  0  0  0  0  0  0  0
   37.1560   31.2110   38.8150 O   0  0  0  0  0  1  0  0  0  0  0  0
   38.1770   32.4080   40.7250 O   0  0  0  0  0  1  0  0  0  0  0  0
   35.8160   31.3830   41.0910 O   0  0  0  0  0  0  0  0  0  0  0  0
   35.9560   31.9080   41.9330 H   0  0  0  0  0  0  0  0  0  0  0  0
  1  2  1  0  0  0  0
  2  7  2  0  0  0  0
  2  3  1  0  0  0  0
  3  4  2  0  0  0  0
  4  8  1  0  0  0  0
  4  5  1  0  0  0  0
  5  9  1  0  0  0  0
  6 10  1  0  0  0  0
  6  5  2  0  0  0  0
  7  6  1  0  0  0  0
 11 17  1  0  0  0  0
 11 12  1  0  0  0  0
 12 18  1  0  0  0  0
 13 12  2  0  0  0  0
 13  3  1  0  0  0  0
 14 13  1  0  0  0  0
 15 16  1  0  0  0  0
 15 14  2  0  0  0  0
 16 11  2  0  0  0  0
 19 15  1  0  0  0  0
 20  7  1  0  0  0  0
 21 20  1  0  0  0  0
 22 24  1  0  0  0  0
 22 20  1  0  0  0  0
 22 25  1  0  0  0  0
 23 22  1  0  0  0  0
 25 26  1  0  0  0  0
M  END
>  <minimizedAffinity>
-4.93867636

$$$$

 OpenBabel03242519593D

 26 27  0  0  0  0  0  0  0  0999 V2000
   39.7910   28.4310   41.6180 Br  0  0  0  0  0  0  0  0  0  0  0  0
   38.0290   29.0030   41.1830 C   0  0  0  0  0  0  0  0  0  0  0  0
   37.0040   28.1360   40.9140 C   0  0  0  0  0  0  0  0  0  0  0  0
   35.7590   28.6400   40.5980 C   0  0  0  0  0  0  0  0  0  0  0  0
   35.5040   29.9940   40.5430 C   0  0  0  0  0  0  0  0  0  0  0  0
   36.5180   30.8880   40.8100 C   0  0  0  0  0  0  0  0  0  0  0  0
   37.7460   30.3610   41.1210 C   0  0  0  0  0  0  0  0  0  0  0  0
   34.9540   27.9460   40.3870 H   0  0  0  0  0  0  0  0  0  0  0  0
   34.5070   30.3270   40.2900 H   0  0  0  0  0  0  0  0  0  0  0  0
   36.2720   31.9300   40.7550 H   0  0  0  0  0  0  0  0  0  0  0  0
   37.3990   24.5840   42.2060 C   0  0  0  0  0  0  0  0  0  0  0  0
   37.1200   25.9520   42.1340 C   0  0  0  0  0  0  0  0  0  0  0  0
   37.3050   26.7050   40.9900 C   0  0  0  0  0  0  0  0  0  0  0  0
   37.7880   26.0070   39.9180 N   0  0  0  0  0  0  0  0  0  0  0  0
   38.0610   24.6900   39.9750 C   0  0  0  0  0  0  0  0  0  0  0  0
   37.8710   23.9930   41.0920 N   0  0  0  0  0  0  0  0  0  0  0  0
   37.2370   24.0400   43.1270 H   0  0  0  0  0  0  0  0  0  0  0  0
   36.7430   26.4270   43.0180 H   0  0  0  0  0  0  0  0  0  0  0  0
   38.4270   24.3470   39.0250 H   0  0  0  0  0  0  0  0  0  0  0  0
   38.8170   31.2490   41.4030 N   0  0  0  0  0  0  0  0  0  0  0  0
   39.4510   31.1130   42.2420 H   0  0  0  0  0  0  0  0  0  0  0  0
   39.4780   32.6480   40.7180 S   0  0  0  0  0  0  0  0  0  0  0  0
   39.2530   32.6780   39.2130 O   0  0  0  0  0  1  0  0  0  0  0  0
   40.9630   32.7070   41.0010 O   0  0  0  0  0  1  0  0  0  0  0  0
   38.7530   33.9990   41.4510 O   0  0  0  0  0  0  0  0  0  0  0  0
   39.3170   34.2590   42.2370 H   0  0  0  0  0  0  0  0  0  0  0  0
  2  1  1  0  0  0  0
  3 13  1  0  0  0  0
  3  2  2  0  0  0  0
  4  3  1  0  0  0  0
  5  4  2  0  0  0  0
  5  6  1  0  0  0  0
  6  7  2  0  0  0  0
  7  2  1  0  0  0  0
  7 20  1  0  0  0  0
  8  4  1  0  0  0  0
  9  5  1  0  0  0  0
 10  6  1  0  0  0  0
 11 17  1  0  0  0  0
 12 11  1  0  0  0  0
 12 18  1  0  0  0  0
 13 12  2  0  0  0  0
 14 15  2  0  0  0  0
 14 13  1  0  0  0  0
 15 16  1  0  0  0  0
 16 11  2  0  0  0  0
 19 15  1  0  0  0  0
 20 21  1  0  0  0  0
 22 24  1  0  0  0  0
 22 20  1  0  0  0  0
 22 25  1  0  0  0  0
 23 22  1  0  0  0  0
 25 26  1  0  0  0  0
M  END
>  <minimizedAffinity>
-4.88195658

$$$$

 OpenBabel03242519593D

 26 27  0  0  0  0  0  0  0  0999 V2000
   38.6800   28.2550   39.2630 Br  0  0  0  0  0  0  0  0  0  0  0  0
   37.9560   28.0150   41.0060 C   0  0  0  0  0  0  0  0  0  0  0  0
   37.7180   29.0510   41.8680 C   0  0  0  0  0  0  0  0  0  0  0  0
   37.2000   28.7830   43.1190 C   0  0  0  0  0  0  0  0  0  0  0  0
   36.9090   27.5020   43.5370 C   0  0  0  0  0  0  0  0  0  0  0  0
   37.1390   26.4410   42.6880 C   0  0  0  0  0  0  0  0  0  0  0  0
   37.6540   26.7350   41.4510 C   0  0  0  0  0  0  0  0  0  0  0  0
   37.0160   29.6100   43.7950 H   0  0  0  0  0  0  0  0  0  0  0  0
   36.5050   27.3570   44.5290 H   0  0  0  0  0  0  0  0  0  0  0  0
   36.8960   25.4640   43.0570 H   0  0  0  0  0  0  0  0  0  0  0  0
   37.4160   32.4800   40.2580 C   0  0  0  0  0  0  0  0  0  0  0  0
   37.1230   31.1900   40.7080 C   0  0  0  0  0  0  0  0  0  0  0  0
   38.0290   30.4000   41.3910 C   0  0  0  0  0  0  0  0  0  0  0  0
   39.2500   30.9800   41.5980 N   0  0  0  0  0  0  0  0  0  0  0  0
   39.5440   32.2210   41.1700 C   0  0  0  0  0  0  0  0  0  0  0  0
   38.6490   32.9570   40.5160 N   0  0  0  0  0  0  0  0  0  0  0  0
   36.6700   33.0570   39.7280 H   0  0  0  0  0  0  0  0  0  0  0  0
   36.1420   30.8060   40.5070 H   0  0  0  0  0  0  0  0  0  0  0  0
   40.5530   32.4760   41.4390 H   0  0  0  0  0  0  0  0  0  0  0  0
   37.9050   25.6700   40.5460 N   0  0  0  0  0  0  0  0  0  0  0  0
   38.4920   25.8020   39.6740 H   0  0  0  0  0  0  0  0  0  0  0  0
   37.4940   24.0330   40.4180 S   0  0  0  0  0  0  0  0  0  0  0  0
   37.9410   23.4620   39.0800 O   0  0  0  0  0  1  0  0  0  0  0  0
   35.9960   23.8660   40.5550 O   0  0  0  0  0  1  0  0  0  0  0  0
   38.2330   23.1920   41.6970 O   0  0  0  0  0  0  0  0  0  0  0  0
   37.5870   23.1730   42.4620 H   0  0  0  0  0  0  0  0  0  0  0  0
  1  2  1  0  0  0  0
  2  7  2  0  0  0  0
  2  3  1  0  0  0  0
  3  4  2  0  0  0  0
  4  5  1  0  0  0  0
  4  8  1  0  0  0  0
  5  9  1  0  0  0  0
  6 10  1  0  0  0  0
  6  5  2  0  0  0  0
  7  6  1  0  0  0  0
 11 16  2  0  0  0  0
 11 12  1  0  0  0  0
 12 13  2  0  0  0  0
 13 14  1  0  0  0  0
 13  3  1  0  0  0  0
 15 19  1  0  0  0  0
 15 14  2  0  0  0  0
 16 15  1  0  0  0  0
 17 11  1  0  0  0  0
 18 12  1  0  0  0  0
 20  7  1  0  0  0  0
 21 20  1  0  0  0  0
 22 20  1  0  0  0  0
 22 24  1  0  0  0  0
 22 25  1  0  0  0  0
 23 22  1  0  0  0  0
 25 26  1  0  0  0  0
M  END
>  <minimizedAffinity>
-4.73464298

$$$$

 OpenBabel03242519593D

 26 27  0  0  0  0  0  0  0  0999 V2000
   36.7800   29.7330   36.3030 Br  0  0  0  0  0  0  0  0  0  0  0  0
   36.3180   29.9120   38.1400 C   0  0  0  0  0  0  0  0  0  0  0  0
   35.4160   29.0980   38.7690 C   0  0  0  0  0  0  0  0  0  0  0  0
   35.1350   29.3070   40.1040 C   0  0  0  0  0  0  0  0  0  0  0  0
   35.7310   30.3130   40.8340 C   0  0  0  0  0  0  0  0  0  0  0  0
   36.6440   31.1470   40.2240 C   0  0  0  0  0  0  0  0  0  0  0  0
   36.9050   30.9170   38.8970 C   0  0  0  0  0  0  0  0  0  0  0  0
   34.4190   28.6570   40.5940 H   0  0  0  0  0  0  0  0  0  0  0  0
   35.4690   30.4260   41.8770 H   0  0  0  0  0  0  0  0  0  0  0  0
   37.0810   31.9130   40.8330 H   0  0  0  0  0  0  0  0  0  0  0  0
   33.0880   27.2050   36.4370 C   0  0  0  0  0  0  0  0  0  0  0  0
   33.6680   28.2180   37.2070 C   0  0  0  0  0  0  0  0  0  0  0  0
   34.8070   28.0340   37.9690 C   0  0  0  0  0  0  0  0  0  0  0  0
   35.3330   26.7730   37.9150 N   0  0  0  0  0  0  0  0  0  0  0  0
   34.7840   25.7910   37.1780 C   0  0  0  0  0  0  0  0  0  0  0  0
   33.6870   25.9990   36.4540 N   0  0  0  0  0  0  0  0  0  0  0  0
   32.1960   27.4010   35.8580 H   0  0  0  0  0  0  0  0  0  0  0  0
   33.1950   29.1800   37.1960 H   0  0  0  0  0  0  0  0  0  0  0  0
   35.3570   24.8870   37.2800 H   0  0  0  0  0  0  0  0  0  0  0  0
   37.8390   31.7540   38.2320 N   0  0  0  0  0  0  0  0  0  0  0  0
   37.5340   32.4960   37.5400 H   0  0  0  0  0  0  0  0  0  0  0  0
   39.5200   31.9540   38.2020 S   0  0  0  0  0  0  0  0  0  0  0  0
   40.2290   30.6710   38.6110 O   0  0  0  0  0  1  0  0  0  0  0  0
   39.9220   33.0680   39.1430 O   0  0  0  0  0  1  0  0  0  0  0  0
   39.9790   32.4080   36.6300 O   0  0  0  0  0  0  0  0  0  0  0  0
   39.9760   33.4080   36.5890 H   0  0  0  0  0  0  0  0  0  0  0  0
  1  2  1  0  0  0  0
  2  3  2  0  0  0  0
  2  7  1  0  0  0  0
  3  4  1  0  0  0  0
  4  8  1  0  0  0  0
  4  5  2  0  0  0  0
  5  9  1  0  0  0  0
  6 10  1  0  0  0  0
  6  5  1  0  0  0  0
  7  6  2  0  0  0  0
 11 16  2  0  0  0  0
 11 12  1  0  0  0  0
 12 13  2  0  0  0  0
 13  3  1  0  0  0  0
 14 13  1  0  0  0  0
 15 19  1  0  0  0  0
 15 14  2  0  0  0  0
 16 15  1  0  0  0  0
 17 11  1  0  0  0  0
 18 12  1  0  0  0  0
 20  7  1  0  0  0  0
 21 20  1  0  0  0  0
 22 20  1  0  0  0  0
 22 23  1  0  0  0  0
 22 24  1  0  0  0  0
 25 22  1  0  0  0  0
 26 25  1  0  0  0  0
M  END
>  <minimizedAffinity>
-4.63008738

$$$$

 OpenBabel03242519593D

 26 27  0  0  0  0  0  0  0  0999 V2000
   40.2960   29.9440   38.4970 Br  0  0  0  0  0  0  0  0  0  0  0  0
   39.7050   31.6290   39.1540 C   0  0  0  0  0  0  0  0  0  0  0  0
   38.4160   31.8710   39.5440 C   0  0  0  0  0  0  0  0  0  0  0  0
   38.0730   33.1280   39.9990 C   0  0  0  0  0  0  0  0  0  0  0  0
   38.9860   34.1580   40.0780 C   0  0  0  0  0  0  0  0  0  0  0  0
   40.2910   33.9410   39.6910 C   0  0  0  0  0  0  0  0  0  0  0  0
   40.6050   32.6820   39.2430 C   0  0  0  0  0  0  0  0  0  0  0  0
   37.0500   33.3100   40.3050 H   0  0  0  0  0  0  0  0  0  0  0  0
   38.6560   35.1210   40.4430 H   0  0  0  0  0  0  0  0  0  0  0  0
   40.9650   34.7710   39.7710 H   0  0  0  0  0  0  0  0  0  0  0  0
   35.8010   29.4340   38.2530 C   0  0  0  0  0  0  0  0  0  0  0  0
   36.6970   30.5030   38.3400 C   0  0  0  0  0  0  0  0  0  0  0  0
   37.4720   30.7550   39.4570 C   0  0  0  0  0  0  0  0  0  0  0  0
   37.2960   29.8710   40.4860 N   0  0  0  0  0  0  0  0  0  0  0  0
   36.4360   28.8390   40.4130 C   0  0  0  0  0  0  0  0  0  0  0  0
   35.7050   28.6230   39.3230 N   0  0  0  0  0  0  0  0  0  0  0  0
   35.2180   29.2810   37.3550 H   0  0  0  0  0  0  0  0  0  0  0  0
   36.7790   31.1520   37.4900 H   0  0  0  0  0  0  0  0  0  0  0  0
   36.4580   28.2750   41.3280 H   0  0  0  0  0  0  0  0  0  0  0  0
   41.9390   32.4170   38.8360 N   0  0  0  0  0  0  0  0  0  0  0  0
   42.6240   31.9050   39.4620 H   0  0  0  0  0  0  0  0  0  0  0  0
   42.9000   32.7120   37.4750 S   0  0  0  0  0  0  0  0  0  0  0  0
   42.9060   31.5110   36.5400 O   0  0  0  0  0  1  0  0  0  0  0  0
   44.3180   33.0180   37.9020 O   0  0  0  0  0  1  0  0  0  0  0  0
   42.2890   34.0810   36.6730 O   0  0  0  0  0  0  0  0  0  0  0  0
   42.7640   34.8840   37.0370 H   0  0  0  0  0  0  0  0  0  0  0  0
  1  2  1  0  0  0  0
  2  7  2  0  0  0  0
  2  3  1  0  0  0  0
  3  4  2  0  0  0  0
  4  5  1  0  0  0  0
  4  8  1  0  0  0  0
  5  9  1  0  0  0  0
  6 10  1  0  0  0  0
  6  5  2  0  0  0  0
  7  6  1  0  0  0  0
 11 12  2  0  0  0  0
 11 16  1  0  0  0  0
 12 13  1  0  0  0  0
 13  3  1  0  0  0  0
 13 14  2  0  0  0  0
 15 14  1  0  0  0  0
 15 19  1  0  0  0  0
 16 15  2  0  0  0  0
 17 11  1  0  0  0  0
 18 12  1  0  0  0  0
 20  7  1  0  0  0  0
 20 21  1  0  0  0  0
 22 24  1  0  0  0  0
 22 20  1  0  0  0  0
 23 22  1  0  0  0  0
 25 26  1  0  0  0  0
 25 22  1  0  0  0  0
M  END
>  <minimizedAffinity>
-4.54846144

$$$$

 OpenBabel03242519593D

 26 27  0  0  0  0  0  0  0  0999 V2000
   40.5190   28.3960   40.1450 Br  0  0  0  0  0  0  0  0  0  0  0  0
   39.2090   28.3970   41.5250 C   0  0  0  0  0  0  0  0  0  0  0  0
   38.1020   29.2010   41.5070 C   0  0  0  0  0  0  0  0  0  0  0  0
   37.2070   29.1420   42.5570 C   0  0  0  0  0  0  0  0  0  0  0  0
   37.3880   28.2970   43.6310 C   0  0  0  0  0  0  0  0  0  0  0  0
   38.4940   27.4760   43.6740 C   0  0  0  0  0  0  0  0  0  0  0  0
   39.3670   27.5550   42.6180 C   0  0  0  0  0  0  0  0  0  0  0  0
   36.3340   29.7820   42.5350 H   0  0  0  0  0  0  0  0  0  0  0  0
   36.6520   28.2960   44.4240 H   0  0  0  0  0  0  0  0  0  0  0  0
   38.5910   26.8370   44.5280 H   0  0  0  0  0  0  0  0  0  0  0  0
   36.9830   30.5950   38.1540 C   0  0  0  0  0  0  0  0  0  0  0  0
   37.1490   29.7550   39.2580 C   0  0  0  0  0  0  0  0  0  0  0  0
   37.9340   30.0800   40.3480 C   0  0  0  0  0  0  0  0  0  0  0  0
   38.5450   31.3010   40.2690 N   0  0  0  0  0  0  0  0  0  0  0  0
   38.3930   32.1190   39.2110 C   0  0  0  0  0  0  0  0  0  0  0  0
   37.6290   31.7770   38.1770 N   0  0  0  0  0  0  0  0  0  0  0  0
   36.3560   30.2930   37.3250 H   0  0  0  0  0  0  0  0  0  0  0  0
   36.6360   28.8130   39.2450 H   0  0  0  0  0  0  0  0  0  0  0  0
   38.9580   33.0210   39.3580 H   0  0  0  0  0  0  0  0  0  0  0  0
   40.5190   26.7260   42.6230 N   0  0  0  0  0  0  0  0  0  0  0  0
   41.4820   27.1060   42.8480 H   0  0  0  0  0  0  0  0  0  0  0  0
   40.8710   25.0950   42.3380 S   0  0  0  0  0  0  0  0  0  0  0  0
   40.8970   24.7940   40.8470 O   0  0  0  0  0  1  0  0  0  0  0  0
   39.8330   24.2200   43.0050 O   0  0  0  0  0  1  0  0  0  0  0  0
   42.3790   24.7420   43.0380 O   0  0  0  0  0  0  0  0  0  0  0  0
   42.2130   24.4220   43.9730 H   0  0  0  0  0  0  0  0  0  0  0  0
  1  2  1  0  0  0  0
  2  7  1  0  0  0  0
  3  2  2  0  0  0  0
  3  4  1  0  0  0  0
  4  5  2  0  0  0  0
  5  6  1  0  0  0  0
  5  9  1  0  0  0  0
  6 10  1  0  0  0  0
  7 20  1  0  0  0  0
  7  6  2  0  0  0  0
  8  4  1  0  0  0  0
 11 16  2  0  0  0  0
 11 12  1  0  0  0  0
 12 13  2  0  0  0  0
 13  3  1  0  0  0  0
 14 13  1  0  0  0  0
 15 19  1  0  0  0  0
 15 14  2  0  0  0  0
 16 15  1  0  0  0  0
 17 11  1  0  0  0  0
 18 12  1  0  0  0  0
 20 21  1  0  0  0  0
 22 20  1  0  0  0  0
 22 24  1  0  0  0  0
 22 25  1  0  0  0  0
 23 22  1  0  0  0  0
 25 26  1  0  0  0  0
M  END
>  <minimizedAffinity>
-4.54629755

$$$$

 OpenBabel03242519593D

 26 27  0  0  0  0  0  0  0  0999 V2000
   40.8960   30.0820   39.8380 Br  0  0  0  0  0  0  0  0  0  0  0  0
   39.3710   31.2190   39.8590 C   0  0  0  0  0  0  0  0  0  0  0  0
   39.4150   32.5390   39.5000 C   0  0  0  0  0  0  0  0  0  0  0  0
   38.2590   33.2930   39.5550 C   0  0  0  0  0  0  0  0  0  0  0  0
   37.0530   32.7630   39.9590 C   0  0  0  0  0  0  0  0  0  0  0  0
   36.9810   31.4360   40.3250 C   0  0  0  0  0  0  0  0  0  0  0  0
   38.1440   30.7100   40.2620 C   0  0  0  0  0  0  0  0  0  0  0  0
   38.3040   34.3370   39.2690 H   0  0  0  0  0  0  0  0  0  0  0  0
   36.1830   33.4040   39.9800 H   0  0  0  0  0  0  0  0  0  0  0  0
   36.0220   31.0690   40.6310 H   0  0  0  0  0  0  0  0  0  0  0  0
   42.8520   34.1610   39.5200 C   0  0  0  0  0  0  0  0  0  0  0  0
   41.6130   33.6600   39.9310 C   0  0  0  0  0  0  0  0  0  0  0  0
   40.7090   33.0700   39.0670 C   0  0  0  0  0  0  0  0  0  0  0  0
   41.1190   33.0100   37.7640 N   0  0  0  0  0  0  0  0  0  0  0  0
   42.3090   33.4890   37.3570 C   0  0  0  0  0  0  0  0  0  0  0  0
   43.1580   34.0510   38.2140 N   0  0  0  0  0  0  0  0  0  0  0  0
   43.5230   34.6140   40.2370 H   0  0  0  0  0  0  0  0  0  0  0  0
   41.3650   33.7440   40.9710 H   0  0  0  0  0  0  0  0  0  0  0  0
   42.4260   33.3390   36.2990 H   0  0  0  0  0  0  0  0  0  0  0  0
   38.1120   29.3390   40.6300 N   0  0  0  0  0  0  0  0  0  0  0  0
   38.2570   28.5650   39.9210 H   0  0  0  0  0  0  0  0  0  0  0  0
   37.8790   28.4430   42.0470 S   0  0  0  0  0  0  0  0  0  0  0  0
   39.2110   28.0510   42.6690 O   0  0  0  0  0  1  0  0  0  0  0  0
   37.0840   27.1930   41.7400 O   0  0  0  0  0  1  0  0  0  0  0  0
   36.9740   29.3850   43.1350 O   0  0  0  0  0  0  0  0  0  0  0  0
   36.0050   29.1770   42.9840 H   0  0  0  0  0  0  0  0  0  0  0  0
  1  2  1  0  0  0  0
  2  7  1  0  0  0  0
  3  4  1  0  0  0  0
  3  2  2  0  0  0  0
  4  5  2  0  0  0  0
  5  9  1  0  0  0  0
  5  6  1  0  0  0  0
  6 10  1  0  0  0  0
  7  6  2  0  0  0  0
  7 20  1  0  0  0  0
  8  4  1  0  0  0  0
 11 12  1  0  0  0  0
 11 17  1  0  0  0  0
 12 18  1  0  0  0  0
 13  3  1  0  0  0  0
 13 12  2  0  0  0  0
 14 13  1  0  0  0  0
 15 14  2  0  0  0  0
 15 16  1  0  0  0  0
 16 11  2  0  0  0  0
 19 15  1  0  0  0  0
 20 22  1  0  0  0  0
 21 20  1  0  0  0  0
 22 23  1  0  0  0  0
 22 25  1  0  0  0  0
 24 22  1  0  0  0  0
 26 25  1  0  0  0  0
M  END
>  <minimizedAffinity>
-4.5194602

$$$$

 OpenBabel03242519593D

 26 27  0  0  0  0  0  0  0  0999 V2000
   38.7370   29.9570   42.2210 Br  0  0  0  0  0  0  0  0  0  0  0  0
   37.5540   29.6800   40.7560 C   0  0  0  0  0  0  0  0  0  0  0  0
   37.4040   30.5760   39.7330 C   0  0  0  0  0  0  0  0  0  0  0  0
   36.5140   30.2960   38.7160 C   0  0  0  0  0  0  0  0  0  0  0  0
   35.7650   29.1400   38.6890 C   0  0  0  0  0  0  0  0  0  0  0  0
   35.8970   28.2200   39.7070 C   0  0  0  0  0  0  0  0  0  0  0  0
   36.7880   28.5230   40.7060 C   0  0  0  0  0  0  0  0  0  0  0  0
   36.4020   31.0120   37.9100 H   0  0  0  0  0  0  0  0  0  0  0  0
   35.0850   28.9780   37.8650 H   0  0  0  0  0  0  0  0  0  0  0  0
   35.2950   27.3360   39.6430 H   0  0  0  0  0  0  0  0  0  0  0  0
   38.5320   34.1560   40.3280 C   0  0  0  0  0  0  0  0  0  0  0  0
   37.7520   32.9980   40.2710 C   0  0  0  0  0  0  0  0  0  0  0  0
   38.2200   31.7900   39.7860 C   0  0  0  0  0  0  0  0  0  0  0  0
   39.5200   31.8110   39.3600 N   0  0  0  0  0  0  0  0  0  0  0  0
   40.2800   32.9200   39.4100 C   0  0  0  0  0  0  0  0  0  0  0  0
   39.8000   34.0670   39.8830 N   0  0  0  0  0  0  0  0  0  0  0  0
   38.1170   35.0760   40.7170 H   0  0  0  0  0  0  0  0  0  0  0  0
   36.7420   33.0620   40.6250 H   0  0  0  0  0  0  0  0  0  0  0  0
   41.2620   32.7120   39.0270 H   0  0  0  0  0  0  0  0  0  0  0  0
   36.9540   27.6010   41.7730 N   0  0  0  0  0  0  0  0  0  0  0  0
   36.4480   27.7160   42.6970 H   0  0  0  0  0  0  0  0  0  0  0  0
   37.8350   26.1850   42.0590 S   0  0  0  0  0  0  0  0  0  0  0  0
   38.7750   26.3560   43.2440 O   0  0  0  0  0  1  0  0  0  0  0  0
   38.6420   25.8230   40.8310 O   0  0  0  0  0  1  0  0  0  0  0  0
   36.7380   24.9200   42.3530 O   0  0  0  0  0  0  0  0  0  0  0  0
   36.5390   24.4800   41.4760 H   0  0  0  0  0  0  0  0  0  0  0  0
  2  1  1  0  0  0  0
  3 13  1  0  0  0  0
  3  2  2  0  0  0  0
  4  3  1  0  0  0  0
  5  4  2  0  0  0  0
  5  6  1  0  0  0  0
  6  7  2  0  0  0  0
  7  2  1  0  0  0  0
  7 20  1  0  0  0  0
  8  4  1  0  0  0  0
  9  5  1  0  0  0  0
 10  6  1  0  0  0  0
 11 17  1  0  0  0  0
 12 11  1  0  0  0  0
 12 18  1  0  0  0  0
 13 12  2  0  0  0  0
 14 15  2  0  0  0  0
 14 13  1  0  0  0  0
 15 16  1  0  0  0  0
 16 11  2  0  0  0  0
 19 15  1  0  0  0  0
 20 22  1  0  0  0  0
 20 21  1  0  0  0  0
 22 25  1  0  0  0  0
 22 23  1  0  0  0  0
 24 22  1  0  0  0  0
 26 25  1  0  0  0  0
M  END
>  <minimizedAffinity>
-4.50114775

$$$$
