
 OpenBabel03252508403D

 39 41  0  0  0  0  0  0  0  0999 V2000
   38.0030   28.0660   41.1200 C   0  0  0  0  0  0  0  0  0  0  0  0
   37.8230   29.1160   41.9830 C   0  0  0  0  0  0  0  0  0  0  0  0
   37.2550   28.8580   43.1910 C   0  0  0  0  0  0  0  0  0  0  0  0
   36.8520   27.6080   43.5960 C   0  0  0  0  0  0  0  0  0  0  0  0
   37.0400   26.5690   42.7190 C   0  0  0  0  0  0  0  0  0  0  0  0
   37.6150   26.7810   41.4740 C   0  0  0  0  0  0  0  0  0  0  0  0
   37.1170   29.6930   43.8690 H   0  0  0  0  0  0  0  0  0  0  0  0
   36.4080   27.4960   44.5820 H   0  0  0  0  0  0  0  0  0  0  0  0
   36.7120   25.5920   43.0640 H   0  0  0  0  0  0  0  0  0  0  0  0
   37.8240   32.5720   40.4450 C   0  0  0  0  0  0  0  0  0  0  0  0
   37.3680   31.3140   40.8850 C   0  0  0  0  0  0  0  0  0  0  0  0
   38.2620   30.4190   41.5170 C   0  0  0  0  0  0  0  0  0  0  0  0
   39.5230   30.8700   41.6460 N   0  0  0  0  0  0  0  0  0  0  0  0
   39.9450   32.0590   41.2280 C   0  0  0  0  0  0  0  0  0  0  0  0
   39.1020   32.9100   40.6270 N   0  0  0  0  0  0  0  0  0  0  0  0
   36.8970   33.4280   39.8220 N   0  0  0  0  0  0  0  0  0  0  0  0
   36.3430   31.0390   40.7400 H   0  0  0  0  0  0  0  0  0  0  0  0
   40.9650   32.3750   41.3530 H   0  0  0  0  0  0  0  0  0  0  0  0
   36.1110   33.8010   40.4320 H   0  0  0  0  0  0  0  0  0  0  0  0
   36.8070   33.7910   38.8470 H   0  0  0  0  0  0  0  0  0  0  0  0
   37.7630   25.6190   40.6240 C   0  0  0  0  0  0  0  0  0  0  0  0
   36.6730   25.2290   39.9060 C   0  0  0  0  0  0  0  0  0  0  0  0
   36.6220   24.1480   39.0440 C   0  0  0  0  0  0  0  0  0  0  0  0
   37.7690   23.4100   38.9030 C   0  0  0  0  0  0  0  0  0  0  0  0
   38.8900   23.7680   39.6110 C   0  0  0  0  0  0  0  0  0  0  0  0
   38.8870   24.8550   40.4560 C   0  0  0  0  0  0  0  0  0  0  0  0
   35.7240   25.7830   39.9760 H   0  0  0  0  0  0  0  0  0  0  0  0
   35.7290   23.8830   38.4970 H   0  0  0  0  0  0  0  0  0  0  0  0
   37.7620   22.5560   38.2350 H   0  0  0  0  0  0  0  0  0  0  0  0
   39.7620   23.1490   39.4580 H   0  0  0  0  0  0  0  0  0  0  0  0
   40.0500   25.2280   41.1890 N   0  0  0  0  0  0  0  0  0  0  0  0
   40.8600   25.6920   40.7040 H   0  0  0  0  0  0  0  0  0  0  0  0
   40.5110   25.1000   42.8170 S   0  0  0  0  0  0  0  0  0  0  0  0
   40.4730   26.4640   43.4920 O   0  0  0  0  0  1  0  0  0  0  0  0
   39.6680   24.1400   43.5760 O   0  0  0  0  0  1  0  0  0  0  0  0
   42.1450   24.6270   42.8410 O   0  0  0  0  0  0  0  0  0  0  0  0
   42.1180   23.6750   42.5050 H   0  0  0  0  0  0  0  0  0  0  0  0
   39.0810   28.3890   38.7680 N   0  0  0  0  0  0  0  0  0  0  0  0
   38.5940   28.2460   39.8210 C   0  0  0  0  0  0  0  0  0  0  0  0
  1  6  2  0  0  0  0
  1  2  1  0  0  0  0
  2  3  2  0  0  0  0
  3  4  1  0  0  0  0
  3  7  1  0  0  0  0
  4  8  1  0  0  0  0
  5  9  1  0  0  0  0
  5  4  2  0  0  0  0
  6  5  1  0  0  0  0
 10 15  2  0  0  0  0
 10 11  1  0  0  0  0
 11 12  2  0  0  0  0
 12 13  1  0  0  0  0
 12  2  1  0  0  0  0
 14 18  1  0  0  0  0
 14 13  2  0  0  0  0
 15 14  1  0  0  0  0
 16 19  1  0  0  0  0
 16 10  1  0  0  0  0
 17 11  1  0  0  0  0
 20 16  1  0  0  0  0
 21  6  1  0  0  0  0
 22 27  1  0  0  0  0
 22 21  2  0  0  0  0
 23 22  1  0  0  0  0
 24 23  2  0  0  0  0
 24 25  1  0  0  0  0
 25 26  2  0  0  0  0
 26 21  1  0  0  0  0
 26 31  1  0  0  0  0
 28 23  1  0  0  0  0
 29 24  1  0  0  0  0
 30 25  1  0  0  0  0
 31 33  1  0  0  0  0
 32 31  1  0  0  0  0
 33 36  1  0  0  0  0
 33 34  1  0  0  0  0
 33 35  1  0  0  0  0
 37 36  1  0  0  0  0
 38 39  3  0  0  0  0
 39  1  1  0  0  0  0
M  END
>  <minimizedAffinity>
-6.31654024

$$$$

 OpenBabel03252508403D

 39 41  0  0  0  0  0  0  0  0999 V2000
   38.4680   27.8360   41.4370 C   0  0  0  0  0  0  0  0  0  0  0  0
   38.8920   27.5650   42.7130 C   0  0  0  0  0  0  0  0  0  0  0  0
   37.9480   27.4140   43.6800 C   0  0  0  0  0  0  0  0  0  0  0  0
   36.5960   27.5170   43.4530 C   0  0  0  0  0  0  0  0  0  0  0  0
   36.1910   27.7890   42.1710 C   0  0  0  0  0  0  0  0  0  0  0  0
   37.1160   27.9520   41.1490 C   0  0  0  0  0  0  0  0  0  0  0  0
   38.2910   27.1990   44.6860 H   0  0  0  0  0  0  0  0  0  0  0  0
   35.9140   27.3800   44.2880 H   0  0  0  0  0  0  0  0  0  0  0  0
   35.1180   27.8660   42.0180 H   0  0  0  0  0  0  0  0  0  0  0  0
   42.3560   26.1450   43.2590 C   0  0  0  0  0  0  0  0  0  0  0  0
   40.9610   26.2110   43.0700 C   0  0  0  0  0  0  0  0  0  0  0  0
   40.3270   27.4640   42.9100 C   0  0  0  0  0  0  0  0  0  0  0  0
   41.1490   28.5280   42.9530 N   0  0  0  0  0  0  0  0  0  0  0  0
   42.4640   28.4580   43.1310 C   0  0  0  0  0  0  0  0  0  0  0  0
   43.0700   27.2730   43.2850 N   0  0  0  0  0  0  0  0  0  0  0  0
   42.9410   24.8750   43.4140 N   0  0  0  0  0  0  0  0  0  0  0  0
   40.3850   25.3080   43.0490 H   0  0  0  0  0  0  0  0  0  0  0  0
   43.0810   29.3380   43.1590 H   0  0  0  0  0  0  0  0  0  0  0  0
   42.9120   24.2330   42.5680 H   0  0  0  0  0  0  0  0  0  0  0  0
   43.4170   24.4040   44.2150 H   0  0  0  0  0  0  0  0  0  0  0  0
   36.5820   28.2410   39.8340 C   0  0  0  0  0  0  0  0  0  0  0  0
   36.3070   27.1800   39.0260 C   0  0  0  0  0  0  0  0  0  0  0  0
   35.7950   27.2570   37.7430 C   0  0  0  0  0  0  0  0  0  0  0  0
   35.5430   28.5110   37.2480 C   0  0  0  0  0  0  0  0  0  0  0  0
   35.8060   29.6080   38.0310 C   0  0  0  0  0  0  0  0  0  0  0  0
   36.3160   29.4750   39.3030 C   0  0  0  0  0  0  0  0  0  0  0  0
   36.4880   26.1490   39.3680 H   0  0  0  0  0  0  0  0  0  0  0  0
   35.5950   26.3810   37.1440 H   0  0  0  0  0  0  0  0  0  0  0  0
   35.1410   28.6050   36.2460 H   0  0  0  0  0  0  0  0  0  0  0  0
   35.5870   30.5680   37.5860 H   0  0  0  0  0  0  0  0  0  0  0  0
   36.5890   30.6120   40.1160 N   0  0  0  0  0  0  0  0  0  0  0  0
   35.9160   30.9010   40.8720 H   0  0  0  0  0  0  0  0  0  0  0  0
   37.8530   31.7410   40.1800 S   0  0  0  0  0  0  0  0  0  0  0  0
   38.7040   31.5210   41.4230 O   0  0  0  0  0  1  0  0  0  0  0  0
   38.7130   31.7060   38.9690 O   0  0  0  0  0  1  0  0  0  0  0  0
   37.1470   33.2760   40.3810 O   0  0  0  0  0  0  0  0  0  0  0  0
   36.6970   33.4450   39.4930 H   0  0  0  0  0  0  0  0  0  0  0  0
   40.1490   28.1480   39.4700 N   0  0  0  0  0  0  0  0  0  0  0  0
   39.3960   28.0130   40.3520 C   0  0  0  0  0  0  0  0  0  0  0  0
  1  2  1  0  0  0  0
  2 12  1  0  0  0  0
  2  3  2  0  0  0  0
  3  7  1  0  0  0  0
  4  3  1  0  0  0  0
  4  8  1  0  0  0  0
  5  4  2  0  0  0  0
  6  1  2  0  0  0  0
  6  5  1  0  0  0  0
  9  5  1  0  0  0  0
 10 15  1  0  0  0  0
 10 16  1  0  0  0  0
 11 10  2  0  0  0  0
 12 13  2  0  0  0  0
 12 11  1  0  0  0  0
 13 14  1  0  0  0  0
 14 18  1  0  0  0  0
 14 15  2  0  0  0  0
 16 20  1  0  0  0  0
 17 11  1  0  0  0  0
 19 16  1  0  0  0  0
 21  6  1  0  0  0  0
 22 27  1  0  0  0  0
 22 21  2  0  0  0  0
 23 22  1  0  0  0  0
 24 23  2  0  0  0  0
 24 25  1  0  0  0  0
 25 26  2  0  0  0  0
 26 21  1  0  0  0  0
 26 31  1  0  0  0  0
 28 23  1  0  0  0  0
 29 24  1  0  0  0  0
 30 25  1  0  0  0  0
 31 33  1  0  0  0  0
 31 32  1  0  0  0  0
 33 36  1  0  0  0  0
 33 34  1  0  0  0  0
 35 33  1  0  0  0  0
 37 36  1  0  0  0  0
 38 39  3  0  0  0  0
 39  1  1  0  0  0  0
M  END
>  <minimizedAffinity>
-6.18338299

$$$$

 OpenBabel03252508403D

 39 41  0  0  0  0  0  0  0  0999 V2000
   38.4750   27.3800   41.4850 C   0  0  0  0  0  0  0  0  0  0  0  0
   37.4400   26.5350   41.7920 C   0  0  0  0  0  0  0  0  0  0  0  0
   36.6740   26.8320   42.8760 C   0  0  0  0  0  0  0  0  0  0  0  0
   36.8780   27.9280   43.6800 C   0  0  0  0  0  0  0  0  0  0  0  0
   37.9190   28.7620   43.3580 C   0  0  0  0  0  0  0  0  0  0  0  0
   38.7290   28.5020   42.2610 C   0  0  0  0  0  0  0  0  0  0  0  0
   35.8570   26.1590   43.1110 H   0  0  0  0  0  0  0  0  0  0  0  0
   36.2140   28.0860   44.5260 H   0  0  0  0  0  0  0  0  0  0  0  0
   38.0580   29.6210   44.0090 H   0  0  0  0  0  0  0  0  0  0  0  0
   37.6260   23.0370   40.3630 C   0  0  0  0  0  0  0  0  0  0  0  0
   37.8200   24.1300   41.2310 C   0  0  0  0  0  0  0  0  0  0  0  0
   37.2590   25.3900   40.9180 C   0  0  0  0  0  0  0  0  0  0  0  0
   36.5600   25.4320   39.7700 N   0  0  0  0  0  0  0  0  0  0  0  0
   36.3820   24.3960   38.9570 C   0  0  0  0  0  0  0  0  0  0  0  0
   36.9120   23.2010   39.2480 N   0  0  0  0  0  0  0  0  0  0  0  0
   38.2040   21.8040   40.7180 N   0  0  0  0  0  0  0  0  0  0  0  0
   38.3930   24.0020   42.1270 H   0  0  0  0  0  0  0  0  0  0  0  0
   35.8140   24.4790   38.0480 H   0  0  0  0  0  0  0  0  0  0  0  0
   37.8150   21.3290   41.5840 H   0  0  0  0  0  0  0  0  0  0  0  0
   38.9680   21.2290   40.2970 H   0  0  0  0  0  0  0  0  0  0  0  0
   39.8010   29.4430   42.0130 C   0  0  0  0  0  0  0  0  0  0  0  0
   40.9060   29.3500   42.8030 C   0  0  0  0  0  0  0  0  0  0  0  0
   42.0270   30.1580   42.7160 C   0  0  0  0  0  0  0  0  0  0  0  0
   42.0190   31.1310   41.7510 C   0  0  0  0  0  0  0  0  0  0  0  0
   40.9230   31.2590   40.9330 C   0  0  0  0  0  0  0  0  0  0  0  0
   39.8330   30.4280   41.0620 C   0  0  0  0  0  0  0  0  0  0  0  0
   40.9710   28.5890   43.5950 H   0  0  0  0  0  0  0  0  0  0  0  0
   42.8790   30.0410   43.3700 H   0  0  0  0  0  0  0  0  0  0  0  0
   42.8830   31.7810   41.6570 H   0  0  0  0  0  0  0  0  0  0  0  0
   40.9760   32.0430   40.1920 H   0  0  0  0  0  0  0  0  0  0  0  0
   38.6960   30.5590   40.2140 N   0  0  0  0  0  0  0  0  0  0  0  0
   38.6210   29.9910   39.3310 H   0  0  0  0  0  0  0  0  0  0  0  0
   37.2850   31.4980   40.2680 S   0  0  0  0  0  0  0  0  0  0  0  0
   36.6670   31.6160   38.8820 O   0  0  0  0  0  1  0  0  0  0  0  0
   36.2800   30.9640   41.2230 O   0  0  0  0  0  1  0  0  0  0  0  0
   37.7490   33.0790   40.6930 O   0  0  0  0  0  0  0  0  0  0  0  0
   38.0350   32.9880   41.6570 H   0  0  0  0  0  0  0  0  0  0  0  0
   40.0380   26.9460   39.4450 N   0  0  0  0  0  0  0  0  0  0  0  0
   39.3370   27.1440   40.3580 C   0  0  0  0  0  0  0  0  0  0  0  0
  1  2  2  0  0  0  0
  1  6  1  0  0  0  0
  2  3  1  0  0  0  0
  3  7  1  0  0  0  0
  3  4  2  0  0  0  0
  4  8  1  0  0  0  0
  5  4  1  0  0  0  0
  5  9  1  0  0  0  0
  6  5  2  0  0  0  0
 10 16  1  0  0  0  0
 10 11  1  0  0  0  0
 11 17  1  0  0  0  0
 12 11  2  0  0  0  0
 12  2  1  0  0  0  0
 13 12  1  0  0  0  0
 14 15  1  0  0  0  0
 14 13  2  0  0  0  0
 15 10  2  0  0  0  0
 16 19  1  0  0  0  0
 18 14  1  0  0  0  0
 20 16  1  0  0  0  0
 21  6  1  0  0  0  0
 21 22  1  0  0  0  0
 22 27  1  0  0  0  0
 23 22  2  0  0  0  0
 23 28  1  0  0  0  0
 24 23  1  0  0  0  0
 25 26  1  0  0  0  0
 25 24  2  0  0  0  0
 26 21  2  0  0  0  0
 29 24  1  0  0  0  0
 30 25  1  0  0  0  0
 31 33  1  0  0  0  0
 31 26  1  0  0  0  0
 32 31  1  0  0  0  0
 33 36  1  0  0  0  0
 33 35  1  0  0  0  0
 34 33  1  0  0  0  0
 36 37  1  0  0  0  0
 38 39  3  0  0  0  0
 39  1  1  0  0  0  0
M  END
>  <minimizedAffinity>
-5.89383221

$$$$

 OpenBabel03252508403D

 39 41  0  0  0  0  0  0  0  0999 V2000
   38.2510   28.4550   41.2880 C   0  0  0  0  0  0  0  0  0  0  0  0
   37.0010   27.8900   41.2680 C   0  0  0  0  0  0  0  0  0  0  0  0
   36.3890   27.6550   42.4600 C   0  0  0  0  0  0  0  0  0  0  0  0
   36.9500   27.9500   43.6800 C   0  0  0  0  0  0  0  0  0  0  0  0
   38.2010   28.5130   43.6800 C   0  0  0  0  0  0  0  0  0  0  0  0
   38.8670   28.7730   42.4900 C   0  0  0  0  0  0  0  0  0  0  0  0
   35.4010   27.2100   42.4360 H   0  0  0  0  0  0  0  0  0  0  0  0
   36.3860   27.7260   44.5810 H   0  0  0  0  0  0  0  0  0  0  0  0
   38.6210   28.7360   44.6570 H   0  0  0  0  0  0  0  0  0  0  0  0
   35.0800   28.2010   38.0240 C   0  0  0  0  0  0  0  0  0  0  0  0
   35.6030   28.5150   39.2940 C   0  0  0  0  0  0  0  0  0  0  0  0
   36.4450   27.5950   39.9600 C   0  0  0  0  0  0  0  0  0  0  0  0
   36.6810   26.4520   39.2920 N   0  0  0  0  0  0  0  0  0  0  0  0
   36.1840   26.1630   38.0940 C   0  0  0  0  0  0  0  0  0  0  0  0
   35.3840   27.0310   37.4590 N   0  0  0  0  0  0  0  0  0  0  0  0
   34.2470   29.1480   37.4010 N   0  0  0  0  0  0  0  0  0  0  0  0
   35.3610   29.4530   39.7510 H   0  0  0  0  0  0  0  0  0  0  0  0
   36.4010   25.2340   37.5980 H   0  0  0  0  0  0  0  0  0  0  0  0
   34.7030   30.0630   37.1100 H   0  0  0  0  0  0  0  0  0  0  0  0
   33.2330   29.1490   37.1530 H   0  0  0  0  0  0  0  0  0  0  0  0
   40.1830   29.3650   42.6030 C   0  0  0  0  0  0  0  0  0  0  0  0
   41.2320   28.5190   42.8030 C   0  0  0  0  0  0  0  0  0  0  0  0
   42.5570   28.8970   42.9340 C   0  0  0  0  0  0  0  0  0  0  0  0
   42.8320   30.2380   42.8550 C   0  0  0  0  0  0  0  0  0  0  0  0
   41.8030   31.1250   42.6550 C   0  0  0  0  0  0  0  0  0  0  0  0
   40.5000   30.6960   42.5300 C   0  0  0  0  0  0  0  0  0  0  0  0
   41.0730   27.4330   42.8740 H   0  0  0  0  0  0  0  0  0  0  0  0
   43.3510   28.1830   43.0920 H   0  0  0  0  0  0  0  0  0  0  0  0
   43.8600   30.5670   42.9540 H   0  0  0  0  0  0  0  0  0  0  0  0
   42.0820   32.1680   42.6010 H   0  0  0  0  0  0  0  0  0  0  0  0
   39.4320   31.6150   42.3220 N   0  0  0  0  0  0  0  0  0  0  0  0
   38.8100   31.8990   43.1210 H   0  0  0  0  0  0  0  0  0  0  0  0
   38.8450   32.4550   40.9700 S   0  0  0  0  0  0  0  0  0  0  0  0
   39.8440   32.3860   39.8230 O   0  0  0  0  0  1  0  0  0  0  0  0
   37.5220   31.9540   40.5160 O   0  0  0  0  0  1  0  0  0  0  0  0
   38.7590   34.0990   41.3980 O   0  0  0  0  0  0  0  0  0  0  0  0
   38.0030   34.1280   42.0670 H   0  0  0  0  0  0  0  0  0  0  0  0
   39.5540   28.9730   39.0900 N   0  0  0  0  0  0  0  0  0  0  0  0
   38.9730   28.7390   40.0770 C   0  0  0  0  0  0  0  0  0  0  0  0
  1  6  1  0  0  0  0
  2  1  2  0  0  0  0
  2  3  1  0  0  0  0
  3  4  2  0  0  0  0
  4  5  1  0  0  0  0
  4  8  1  0  0  0  0
  5  9  1  0  0  0  0
  6 21  1  0  0  0  0
  6  5  2  0  0  0  0
  7  3  1  0  0  0  0
 10 11  1  0  0  0  0
 11 17  1  0  0  0  0
 11 12  2  0  0  0  0
 12  2  1  0  0  0  0
 13 12  1  0  0  0  0
 14 13  2  0  0  0  0
 15 10  2  0  0  0  0
 15 14  1  0  0  0  0
 16 10  1  0  0  0  0
 18 14  1  0  0  0  0
 19 16  1  0  0  0  0
 20 16  1  0  0  0  0
 21 22  1  0  0  0  0
 22 27  1  0  0  0  0
 22 23  2  0  0  0  0
 23 28  1  0  0  0  0
 24 23  1  0  0  0  0
 24 29  1  0  0  0  0
 25 24  2  0  0  0  0
 26 21  2  0  0  0  0
 26 25  1  0  0  0  0
 30 25  1  0  0  0  0
 31 26  1  0  0  0  0
 31 32  1  0  0  0  0
 33 36  1  0  0  0  0
 33 31  1  0  0  0  0
 34 33  1  0  0  0  0
 35 33  1  0  0  0  0
 36 37  1  0  0  0  0
 38 39  3  0  0  0  0
 39  1  1  0  0  0  0
M  END
>  <minimizedAffinity>
-5.80989408

$$$$

 OpenBabel03252508403D

 39 41  0  0  0  0  0  0  0  0999 V2000
   39.2550   31.3460   40.1700 C   0  0  0  0  0  0  0  0  0  0  0  0
   39.3470   32.6620   39.7930 C   0  0  0  0  0  0  0  0  0  0  0  0
   38.1940   33.3730   39.6740 C   0  0  0  0  0  0  0  0  0  0  0  0
   36.9450   32.8490   39.9080 C   0  0  0  0  0  0  0  0  0  0  0  0
   36.8730   31.5320   40.2830 C   0  0  0  0  0  0  0  0  0  0  0  0
   38.0210   30.7640   40.4190 C   0  0  0  0  0  0  0  0  0  0  0  0
   38.2750   34.4120   39.3770 H   0  0  0  0  0  0  0  0  0  0  0  0
   36.0780   33.4940   39.7870 H   0  0  0  0  0  0  0  0  0  0  0  0
   35.8740   31.1430   40.4610 H   0  0  0  0  0  0  0  0  0  0  0  0
   42.4580   33.9240   38.0480 C   0  0  0  0  0  0  0  0  0  0  0  0
   41.1550   33.4240   38.2460 C   0  0  0  0  0  0  0  0  0  0  0  0
   40.6840   33.1750   39.5560 C   0  0  0  0  0  0  0  0  0  0  0  0
   41.5620   33.4500   40.5380 N   0  0  0  0  0  0  0  0  0  0  0  0
   42.7890   33.9210   40.3430 C   0  0  0  0  0  0  0  0  0  0  0  0
   43.2400   34.1570   39.1040 N   0  0  0  0  0  0  0  0  0  0  0  0
   42.8800   34.1560   36.7270 N   0  0  0  0  0  0  0  0  0  0  0  0
   40.5240   33.2360   37.4020 H   0  0  0  0  0  0  0  0  0  0  0  0
   43.4560   34.1250   41.1610 H   0  0  0  0  0  0  0  0  0  0  0  0
   42.3820   34.9310   36.1980 H   0  0  0  0  0  0  0  0  0  0  0  0
   43.6080   33.7110   36.1240 H   0  0  0  0  0  0  0  0  0  0  0  0
   37.8320   29.3850   40.8150 C   0  0  0  0  0  0  0  0  0  0  0  0
   37.7180   29.1280   42.1470 C   0  0  0  0  0  0  0  0  0  0  0  0
   37.5340   27.8790   42.7140 C   0  0  0  0  0  0  0  0  0  0  0  0
   37.4600   26.8120   41.8560 C   0  0  0  0  0  0  0  0  0  0  0  0
   37.5720   27.0260   40.5050 C   0  0  0  0  0  0  0  0  0  0  0  0
   37.7530   28.2920   39.9920 C   0  0  0  0  0  0  0  0  0  0  0  0
   37.7690   29.9440   42.8840 H   0  0  0  0  0  0  0  0  0  0  0  0
   37.4500   27.7320   43.7810 H   0  0  0  0  0  0  0  0  0  0  0  0
   37.3170   25.8200   42.2690 H   0  0  0  0  0  0  0  0  0  0  0  0
   37.5050   26.1470   39.8800 H   0  0  0  0  0  0  0  0  0  0  0  0
   37.8680   28.5160   38.5900 N   0  0  0  0  0  0  0  0  0  0  0  0
   38.8140   28.6070   38.1400 H   0  0  0  0  0  0  0  0  0  0  0  0
   36.7480   28.6930   37.3290 S   0  0  0  0  0  0  0  0  0  0  0  0
   36.2730   27.3320   36.8400 O   0  0  0  0  0  1  0  0  0  0  0  0
   35.5790   29.5250   37.7140 O   0  0  0  0  0  1  0  0  0  0  0  0
   37.5780   29.3820   36.0130 O   0  0  0  0  0  0  0  0  0  0  0  0
   37.7680   30.3230   36.3230 H   0  0  0  0  0  0  0  0  0  0  0  0
   41.3740   29.8520   40.4440 N   0  0  0  0  0  0  0  0  0  0  0  0
   40.4220   30.5180   40.3200 C   0  0  0  0  0  0  0  0  0  0  0  0
  1 39  1  0  0  0  0
  1  6  1  0  0  0  0
  2  1  2  0  0  0  0
  3  2  1  0  0  0  0
  3  4  2  0  0  0  0
  4  5  1  0  0  0  0
  5  6  2  0  0  0  0
  5  9  1  0  0  0  0
  6 21  1  0  0  0  0
  7  3  1  0  0  0  0
  8  4  1  0  0  0  0
 10 11  2  0  0  0  0
 10 15  1  0  0  0  0
 11 12  1  0  0  0  0
 12  2  1  0  0  0  0
 12 13  2  0  0  0  0
 14 13  1  0  0  0  0
 14 18  1  0  0  0  0
 15 14  2  0  0  0  0
 16 10  1  0  0  0  0
 17 11  1  0  0  0  0
 19 16  1  0  0  0  0
 20 16  1  0  0  0  0
 21 22  1  0  0  0  0
 22 23  2  0  0  0  0
 22 27  1  0  0  0  0
 23 28  1  0  0  0  0
 24 29  1  0  0  0  0
 24 23  1  0  0  0  0
 25 24  2  0  0  0  0
 26 25  1  0  0  0  0
 26 21  2  0  0  0  0
 30 25  1  0  0  0  0
 31 26  1  0  0  0  0
 32 31  1  0  0  0  0
 33 35  1  0  0  0  0
 33 31  1  0  0  0  0
 34 33  1  0  0  0  0
 36 37  1  0  0  0  0
 36 33  1  0  0  0  0
 39 38  3  0  0  0  0
M  END
>  <minimizedAffinity>
-5.75919008

$$$$

 OpenBabel03252508403D

 39 41  0  0  0  0  0  0  0  0999 V2000
   39.0550   30.8050   40.0440 C   0  0  0  0  0  0  0  0  0  0  0  0
   39.1990   31.9740   39.3420 C   0  0  0  0  0  0  0  0  0  0  0  0
   38.1480   32.8370   39.3180 C   0  0  0  0  0  0  0  0  0  0  0  0
   36.9530   32.6050   39.9550 C   0  0  0  0  0  0  0  0  0  0  0  0
   36.8270   31.4300   40.6520 C   0  0  0  0  0  0  0  0  0  0  0  0
   37.8710   30.5170   40.7070 C   0  0  0  0  0  0  0  0  0  0  0  0
   38.2700   33.7590   38.7610 H   0  0  0  0  0  0  0  0  0  0  0  0
   36.1670   33.3530   39.8800 H   0  0  0  0  0  0  0  0  0  0  0  0
   35.8720   31.2710   41.1460 H   0  0  0  0  0  0  0  0  0  0  0  0
   42.6680   33.2560   38.5440 C   0  0  0  0  0  0  0  0  0  0  0  0
   41.4360   33.0780   39.2050 C   0  0  0  0  0  0  0  0  0  0  0  0
   40.4770   32.1800   38.6840 C   0  0  0  0  0  0  0  0  0  0  0  0
   40.8430   31.5480   37.5550 N   0  0  0  0  0  0  0  0  0  0  0  0
   42.0070   31.7210   36.9370 C   0  0  0  0  0  0  0  0  0  0  0  0
   42.9190   32.5720   37.4260 N   0  0  0  0  0  0  0  0  0  0  0  0
   43.5900   34.1600   39.1020 N   0  0  0  0  0  0  0  0  0  0  0  0
   41.2310   33.6260   40.1030 H   0  0  0  0  0  0  0  0  0  0  0  0
   42.2550   31.1930   36.0340 H   0  0  0  0  0  0  0  0  0  0  0  0
   44.0060   33.8960   40.0430 H   0  0  0  0  0  0  0  0  0  0  0  0
   43.9710   35.0770   38.7780 H   0  0  0  0  0  0  0  0  0  0  0  0
   37.6320   29.3080   41.4660 C   0  0  0  0  0  0  0  0  0  0  0  0
   37.9360   29.3340   42.7930 C   0  0  0  0  0  0  0  0  0  0  0  0
   37.7770   28.2800   43.6770 C   0  0  0  0  0  0  0  0  0  0  0  0
   37.2680   27.1130   43.1680 C   0  0  0  0  0  0  0  0  0  0  0  0
   36.9490   27.0440   41.8340 C   0  0  0  0  0  0  0  0  0  0  0  0
   37.1270   28.1240   40.9970 C   0  0  0  0  0  0  0  0  0  0  0  0
   38.3470   30.2430   43.2590 H   0  0  0  0  0  0  0  0  0  0  0  0
   38.0350   28.3560   44.7230 H   0  0  0  0  0  0  0  0  0  0  0  0
   37.1320   26.2690   43.8340 H   0  0  0  0  0  0  0  0  0  0  0  0
   36.5530   26.0990   41.4920 H   0  0  0  0  0  0  0  0  0  0  0  0
   36.7950   28.0530   39.6140 N   0  0  0  0  0  0  0  0  0  0  0  0
   37.4520   27.5980   38.9310 H   0  0  0  0  0  0  0  0  0  0  0  0
   35.4710   28.5730   38.6910 S   0  0  0  0  0  0  0  0  0  0  0  0
   34.9630   27.4460   37.8020 O   0  0  0  0  0  1  0  0  0  0  0  0
   34.3590   29.0940   39.5270 O   0  0  0  0  0  1  0  0  0  0  0  0
   36.0410   29.7690   37.6230 O   0  0  0  0  0  0  0  0  0  0  0  0
   36.2510   30.5460   38.2320 H   0  0  0  0  0  0  0  0  0  0  0  0
   40.9740   29.0470   40.1960 N   0  0  0  0  0  0  0  0  0  0  0  0
   40.1140   29.8340   40.1240 C   0  0  0  0  0  0  0  0  0  0  0  0
  1 39  1  0  0  0  0
  1  6  1  0  0  0  0
  2  1  2  0  0  0  0
  3  2  1  0  0  0  0
  3  4  2  0  0  0  0
  4  5  1  0  0  0  0
  5  6  2  0  0  0  0
  5  9  1  0  0  0  0
  6 21  1  0  0  0  0
  7  3  1  0  0  0  0
  8  4  1  0  0  0  0
 10 16  1  0  0  0  0
 10 11  1  0  0  0  0
 11 17  1  0  0  0  0
 12 11  2  0  0  0  0
 12  2  1  0  0  0  0
 13 12  1  0  0  0  0
 14 15  1  0  0  0  0
 14 13  2  0  0  0  0
 15 10  2  0  0  0  0
 16 19  1  0  0  0  0
 18 14  1  0  0  0  0
 20 16  1  0  0  0  0
 21 22  1  0  0  0  0
 22 27  1  0  0  0  0
 22 23  2  0  0  0  0
 23 28  1  0  0  0  0
 24 23  1  0  0  0  0
 24 29  1  0  0  0  0
 25 24  2  0  0  0  0
 26 21  2  0  0  0  0
 26 25  1  0  0  0  0
 30 25  1  0  0  0  0
 31 26  1  0  0  0  0
 32 31  1  0  0  0  0
 33 35  1  0  0  0  0
 33 31  1  0  0  0  0
 34 33  1  0  0  0  0
 36 37  1  0  0  0  0
 36 33  1  0  0  0  0
 39 38  3  0  0  0  0
M  END
>  <minimizedAffinity>
-5.56047344

$$$$

 OpenBabel03252508403D

 39 41  0  0  0  0  0  0  0  0999 V2000
   39.2520   31.6300   39.3300 C   0  0  0  0  0  0  0  0  0  0  0  0
   40.0480   32.7240   39.5540 C   0  0  0  0  0  0  0  0  0  0  0  0
   39.4400   33.9030   39.8530 C   0  0  0  0  0  0  0  0  0  0  0  0
   38.0780   34.0610   39.9440 C   0  0  0  0  0  0  0  0  0  0  0  0
   37.2980   32.9550   39.7170 C   0  0  0  0  0  0  0  0  0  0  0  0
   37.8700   31.7290   39.4090 C   0  0  0  0  0  0  0  0  0  0  0  0
   40.0760   34.7640   40.0290 H   0  0  0  0  0  0  0  0  0  0  0  0
   37.6810   35.0430   40.1890 H   0  0  0  0  0  0  0  0  0  0  0  0
   36.2250   33.1070   39.7960 H   0  0  0  0  0  0  0  0  0  0  0  0
   43.5600   32.5290   38.1610 C   0  0  0  0  0  0  0  0  0  0  0  0
   42.1680   32.7400   38.2330 C   0  0  0  0  0  0  0  0  0  0  0  0
   41.4800   32.5150   39.4470 C   0  0  0  0  0  0  0  0  0  0  0  0
   42.2510   32.1030   40.4700 N   0  0  0  0  0  0  0  0  0  0  0  0
   43.5630   31.9060   40.3940 C   0  0  0  0  0  0  0  0  0  0  0  0
   44.2190   32.1160   39.2450 N   0  0  0  0  0  0  0  0  0  0  0  0
   44.1990   32.7670   36.9300 N   0  0  0  0  0  0  0  0  0  0  0  0
   41.6350   33.0710   37.3640 H   0  0  0  0  0  0  0  0  0  0  0  0
   44.1370   31.5740   41.2400 H   0  0  0  0  0  0  0  0  0  0  0  0
   44.2220   33.7740   36.5930 H   0  0  0  0  0  0  0  0  0  0  0  0
   44.6770   32.1400   36.2450 H   0  0  0  0  0  0  0  0  0  0  0  0
   36.9570   30.6290   39.1840 C   0  0  0  0  0  0  0  0  0  0  0  0
   36.5320   30.4230   37.9070 C   0  0  0  0  0  0  0  0  0  0  0  0
   35.6630   29.4250   37.4980 C   0  0  0  0  0  0  0  0  0  0  0  0
   35.1940   28.5750   38.4660 C   0  0  0  0  0  0  0  0  0  0  0  0
   35.5970   28.7480   39.7670 C   0  0  0  0  0  0  0  0  0  0  0  0
   36.4660   29.7580   40.1200 C   0  0  0  0  0  0  0  0  0  0  0  0
   36.8740   31.0720   37.0870 H   0  0  0  0  0  0  0  0  0  0  0  0
   35.3580   29.3070   36.4690 H   0  0  0  0  0  0  0  0  0  0  0  0
   34.5120   27.7830   38.1790 H   0  0  0  0  0  0  0  0  0  0  0  0
   35.1950   28.0470   40.4840 H   0  0  0  0  0  0  0  0  0  0  0  0
   36.8850   29.9380   41.4690 N   0  0  0  0  0  0  0  0  0  0  0  0
   36.3640   30.5920   42.1070 H   0  0  0  0  0  0  0  0  0  0  0  0
   38.1470   29.3000   42.4070 S   0  0  0  0  0  0  0  0  0  0  0  0
   39.1790   30.3750   42.7160 O   0  0  0  0  0  1  0  0  0  0  0  0
   37.6650   28.6880   43.6720 O   0  0  0  0  0  1  0  0  0  0  0  0
   38.9590   28.1540   41.4470 O   0  0  0  0  0  0  0  0  0  0  0  0
   38.2910   27.4010   41.3670 H   0  0  0  0  0  0  0  0  0  0  0  0
   40.2520   29.2940   38.7450 N   0  0  0  0  0  0  0  0  0  0  0  0
   39.8080   30.3430   39.0070 C   0  0  0  0  0  0  0  0  0  0  0  0
  1  6  2  0  0  0  0
  1  2  1  0  0  0  0
  2  3  2  0  0  0  0
  3  4  1  0  0  0  0
  3  7  1  0  0  0  0
  4  8  1  0  0  0  0
  5  9  1  0  0  0  0
  5  4  2  0  0  0  0
  6  5  1  0  0  0  0
 10 11  2  0  0  0  0
 10 15  1  0  0  0  0
 11 12  1  0  0  0  0
 12  2  1  0  0  0  0
 12 13  2  0  0  0  0
 14 13  1  0  0  0  0
 14 18  1  0  0  0  0
 15 14  2  0  0  0  0
 16 10  1  0  0  0  0
 17 11  1  0  0  0  0
 19 16  1  0  0  0  0
 20 16  1  0  0  0  0
 21  6  1  0  0  0  0
 21 26  1  0  0  0  0
 22 21  2  0  0  0  0
 23 22  1  0  0  0  0
 23 24  2  0  0  0  0
 24 25  1  0  0  0  0
 25 26  2  0  0  0  0
 25 30  1  0  0  0  0
 26 31  1  0  0  0  0
 27 22  1  0  0  0  0
 28 23  1  0  0  0  0
 29 24  1  0  0  0  0
 31 32  1  0  0  0  0
 31 33  1  0  0  0  0
 33 34  1  0  0  0  0
 33 35  1  0  0  0  0
 36 33  1  0  0  0  0
 37 36  1  0  0  0  0
 38 39  3  0  0  0  0
 39  1  1  0  0  0  0
M  END
>  <minimizedAffinity>
-5.53308058

$$$$

 OpenBabel03252508403D

 39 41  0  0  0  0  0  0  0  0999 V2000
   38.0240   29.8910   39.3330 C   0  0  0  0  0  0  0  0  0  0  0  0
   37.1230   30.6590   38.6420 C   0  0  0  0  0  0  0  0  0  0  0  0
   36.9370   31.9440   39.0470 C   0  0  0  0  0  0  0  0  0  0  0  0
   37.5980   32.5150   40.1080 C   0  0  0  0  0  0  0  0  0  0  0  0
   38.4960   31.7320   40.7880 C   0  0  0  0  0  0  0  0  0  0  0  0
   38.7220   30.4150   40.4130 C   0  0  0  0  0  0  0  0  0  0  0  0
   36.2230   32.5450   38.4950 H   0  0  0  0  0  0  0  0  0  0  0  0
   37.3850   33.5510   40.3600 H   0  0  0  0  0  0  0  0  0  0  0  0
   39.0050   32.2070   41.6220 H   0  0  0  0  0  0  0  0  0  0  0  0
   36.3410   29.3530   35.1790 C   0  0  0  0  0  0  0  0  0  0  0  0
   37.0220   29.9840   36.2390 C   0  0  0  0  0  0  0  0  0  0  0  0
   36.4460   30.0180   37.5290 C   0  0  0  0  0  0  0  0  0  0  0  0
   35.2460   29.4180   37.6330 N   0  0  0  0  0  0  0  0  0  0  0  0
   34.6100   28.8250   36.6290 C   0  0  0  0  0  0  0  0  0  0  0  0
   35.1510   28.7910   35.4030 N   0  0  0  0  0  0  0  0  0  0  0  0
   36.9550   29.3450   33.9130 N   0  0  0  0  0  0  0  0  0  0  0  0
   37.9770   30.4360   36.0620 H   0  0  0  0  0  0  0  0  0  0  0  0
   33.6510   28.3580   36.7600 H   0  0  0  0  0  0  0  0  0  0  0  0
   37.8500   28.7790   33.8230 H   0  0  0  0  0  0  0  0  0  0  0  0
   36.7130   29.7950   33.0020 H   0  0  0  0  0  0  0  0  0  0  0  0
   39.6850   29.6750   41.2000 C   0  0  0  0  0  0  0  0  0  0  0  0
   40.9860   29.7250   40.8000 C   0  0  0  0  0  0  0  0  0  0  0  0
   42.0450   29.0870   41.4230 C   0  0  0  0  0  0  0  0  0  0  0  0
   41.7540   28.3420   42.5370 C   0  0  0  0  0  0  0  0  0  0  0  0
   40.4540   28.2640   42.9730 C   0  0  0  0  0  0  0  0  0  0  0  0
   39.4370   28.9200   42.3160 C   0  0  0  0  0  0  0  0  0  0  0  0
   41.2820   30.3080   39.9140 H   0  0  0  0  0  0  0  0  0  0  0  0
   43.0610   29.1610   41.0630 H   0  0  0  0  0  0  0  0  0  0  0  0
   42.5610   27.8290   43.0480 H   0  0  0  0  0  0  0  0  0  0  0  0
   40.2870   27.6630   43.8550 H   0  0  0  0  0  0  0  0  0  0  0  0
   38.0890   28.8410   42.7680 N   0  0  0  0  0  0  0  0  0  0  0  0
   37.7160   29.5410   43.4590 H   0  0  0  0  0  0  0  0  0  0  0  0
   36.7950   27.7930   42.4430 S   0  0  0  0  0  0  0  0  0  0  0  0
   37.2650   26.6020   41.6200 O   0  0  0  0  0  1  0  0  0  0  0  0
   36.1210   27.3160   43.6780 O   0  0  0  0  0  1  0  0  0  0  0  0
   35.7060   28.6340   41.4410 O   0  0  0  0  0  0  0  0  0  0  0  0
   35.3200   29.3370   42.0540 H   0  0  0  0  0  0  0  0  0  0  0  0
   38.5030   27.4120   38.6860 N   0  0  0  0  0  0  0  0  0  0  0  0
   38.2850   28.5220   38.9750 C   0  0  0  0  0  0  0  0  0  0  0  0
  1  6  1  0  0  0  0
  2  3  1  0  0  0  0
  2  1  2  0  0  0  0
  3  4  2  0  0  0  0
  4  8  1  0  0  0  0
  4  5  1  0  0  0  0
  5  9  1  0  0  0  0
  6  5  2  0  0  0  0
  6 21  1  0  0  0  0
  7  3  1  0  0  0  0
 10 15  2  0  0  0  0
 10 11  1  0  0  0  0
 11 12  2  0  0  0  0
 12 13  1  0  0  0  0
 12  2  1  0  0  0  0
 14 18  1  0  0  0  0
 14 13  2  0  0  0  0
 15 14  1  0  0  0  0
 16 10  1  0  0  0  0
 17 11  1  0  0  0  0
 19 16  1  0  0  0  0
 20 16  1  0  0  0  0
 21 26  1  0  0  0  0
 22 21  2  0  0  0  0
 22 23  1  0  0  0  0
 23 24  2  0  0  0  0
 24 25  1  0  0  0  0
 24 29  1  0  0  0  0
 25 30  1  0  0  0  0
 26 31  1  0  0  0  0
 26 25  2  0  0  0  0
 27 22  1  0  0  0  0
 28 23  1  0  0  0  0
 31 32  1  0  0  0  0
 33 31  1  0  0  0  0
 33 35  1  0  0  0  0
 34 33  1  0  0  0  0
 36 37  1  0  0  0  0
 36 33  1  0  0  0  0
 38 39  3  0  0  0  0
 39  1  1  0  0  0  0
M  END
>  <minimizedAffinity>
-5.52511406

$$$$

 OpenBabel03252508403D

 39 41  0  0  0  0  0  0  0  0999 V2000
   38.6480   27.7650   41.4370 C   0  0  0  0  0  0  0  0  0  0  0  0
   39.0290   27.5400   42.7350 C   0  0  0  0  0  0  0  0  0  0  0  0
   38.0540   27.4560   43.6800 C   0  0  0  0  0  0  0  0  0  0  0  0
   36.7130   27.5850   43.4090 C   0  0  0  0  0  0  0  0  0  0  0  0
   36.3510   27.8100   42.1050 C   0  0  0  0  0  0  0  0  0  0  0  0
   37.3080   27.9030   41.1040 C   0  0  0  0  0  0  0  0  0  0  0  0
   38.3630   27.2780   44.7040 H   0  0  0  0  0  0  0  0  0  0  0  0
   36.0040   27.5030   44.2300 H   0  0  0  0  0  0  0  0  0  0  0  0
   35.2850   27.9080   41.9180 H   0  0  0  0  0  0  0  0  0  0  0  0
   42.4540   26.0500   43.3340 C   0  0  0  0  0  0  0  0  0  0  0  0
   41.0680   26.1430   43.0990 C   0  0  0  0  0  0  0  0  0  0  0  0
   40.4540   27.4110   42.9780 C   0  0  0  0  0  0  0  0  0  0  0  0
   41.2860   28.4610   43.1030 N   0  0  0  0  0  0  0  0  0  0  0  0
   42.5930   28.3640   43.3240 C   0  0  0  0  0  0  0  0  0  0  0  0
   43.1790   27.1650   43.4410 N   0  0  0  0  0  0  0  0  0  0  0  0
   43.0180   24.7660   43.4470 N   0  0  0  0  0  0  0  0  0  0  0  0
   40.4820   25.2500   43.0130 H   0  0  0  0  0  0  0  0  0  0  0  0
   43.2190   29.2340   43.4170 H   0  0  0  0  0  0  0  0  0  0  0  0
   43.0130   24.1660   42.5710 H   0  0  0  0  0  0  0  0  0  0  0  0
   43.4600   24.2510   44.2410 H   0  0  0  0  0  0  0  0  0  0  0  0
   36.8190   28.1470   39.7640 C   0  0  0  0  0  0  0  0  0  0  0  0
   36.5480   29.4380   39.4250 C   0  0  0  0  0  0  0  0  0  0  0  0
   36.0760   29.8650   38.1960 C   0  0  0  0  0  0  0  0  0  0  0  0
   35.8650   28.9020   37.2420 C   0  0  0  0  0  0  0  0  0  0  0  0
   36.1250   27.5880   37.5430 C   0  0  0  0  0  0  0  0  0  0  0  0
   36.5960   27.2170   38.7830 C   0  0  0  0  0  0  0  0  0  0  0  0
   36.6980   30.2540   40.1480 H   0  0  0  0  0  0  0  0  0  0  0  0
   35.8770   30.9040   37.9790 H   0  0  0  0  0  0  0  0  0  0  0  0
   35.4960   29.2040   36.2680 H   0  0  0  0  0  0  0  0  0  0  0  0
   35.9410   26.8770   36.7510 H   0  0  0  0  0  0  0  0  0  0  0  0
   36.8670   25.8540   39.0970 N   0  0  0  0  0  0  0  0  0  0  0  0
   37.6850   25.6000   39.7070 H   0  0  0  0  0  0  0  0  0  0  0  0
   36.1300   24.3810   38.6910 S   0  0  0  0  0  0  0  0  0  0  0  0
   34.7540   24.6200   38.0870 O   0  0  0  0  0  1  0  0  0  0  0  0
   36.9540   23.5680   37.7590 O   0  0  0  0  0  1  0  0  0  0  0  0
   35.8480   23.5430   40.1440 O   0  0  0  0  0  0  0  0  0  0  0  0
   36.7750   23.2910   40.4530 H   0  0  0  0  0  0  0  0  0  0  0  0
   40.3870   27.9490   39.5040 N   0  0  0  0  0  0  0  0  0  0  0  0
   39.6100   27.8690   40.3720 C   0  0  0  0  0  0  0  0  0  0  0  0
  1  2  1  0  0  0  0
  2 12  1  0  0  0  0
  2  3  2  0  0  0  0
  3  7  1  0  0  0  0
  4  3  1  0  0  0  0
  4  8  1  0  0  0  0
  5  4  2  0  0  0  0
  6  1  2  0  0  0  0
  6  5  1  0  0  0  0
  9  5  1  0  0  0  0
 10 15  1  0  0  0  0
 10 16  1  0  0  0  0
 11 10  2  0  0  0  0
 12 11  1  0  0  0  0
 12 13  2  0  0  0  0
 13 14  1  0  0  0  0
 14 18  1  0  0  0  0
 14 15  2  0  0  0  0
 16 20  1  0  0  0  0
 17 11  1  0  0  0  0
 19 16  1  0  0  0  0
 21  6  1  0  0  0  0
 22 21  1  0  0  0  0
 22 27  1  0  0  0  0
 23 22  2  0  0  0  0
 24 25  2  0  0  0  0
 24 23  1  0  0  0  0
 25 26  1  0  0  0  0
 26 31  1  0  0  0  0
 26 21  2  0  0  0  0
 28 23  1  0  0  0  0
 29 24  1  0  0  0  0
 30 25  1  0  0  0  0
 31 32  1  0  0  0  0
 33 31  1  0  0  0  0
 33 36  1  0  0  0  0
 34 33  1  0  0  0  0
 35 33  1  0  0  0  0
 36 37  1  0  0  0  0
 38 39  3  0  0  0  0
 39  1  1  0  0  0  0
M  END
>  <minimizedAffinity>
-5.4260664

$$$$
