
 OpenBabel03252506243D

 43 46  0  0  0  0  0  0  0  0999 V2000
   45.5930   30.4800   48.8160 C   0  0  0  0  0  0  0  0  0  0  0  0
   44.8660   31.3180   48.7950 H   0  0  0  0  0  0  0  0  0  0  0  0
   45.6390   30.1960   49.9070 H   0  0  0  0  0  0  0  0  0  0  0  0
   45.1860   27.9700   48.3850 C   0  0  0  0  0  0  0  0  0  0  0  0
   45.0810   29.3090   48.1030 C   0  0  0  0  0  0  0  0  0  0  0  0
   44.3710   29.6400   46.9450 C   0  0  0  0  0  0  0  0  0  0  0  0
   43.8170   28.6670   46.1480 C   0  0  0  0  0  0  0  0  0  0  0  0
   43.0950   28.6900   45.0000 N   0  0  0  0  0  0  0  0  0  0  0  0
   42.7740   27.4450   44.5960 C   0  0  0  0  0  0  0  0  0  0  0  0
   43.2950   26.5470   45.4990 C   0  0  0  0  0  0  0  0  0  0  0  0
   43.9240   27.3380   46.4320 C   0  0  0  0  0  0  0  0  0  0  0  0
   44.6290   27.0210   47.5810 C   0  0  0  0  0  0  0  0  0  0  0  0
   45.7440   27.7730   49.2880 H   0  0  0  0  0  0  0  0  0  0  0  0
   44.2050   30.6500   46.5950 H   0  0  0  0  0  0  0  0  0  0  0  0
   42.8230   29.5670   44.4910 H   0  0  0  0  0  0  0  0  0  0  0  0
   42.2000   27.1940   43.7040 H   0  0  0  0  0  0  0  0  0  0  0  0
   43.2070   25.4660   45.4520 H   0  0  0  0  0  0  0  0  0  0  0  0
   44.7570   25.6440   47.9010 N   0  0  0  0  0  0  0  0  0  0  0  0
   44.2310   24.9000   47.3780 H   0  0  0  0  0  0  0  0  0  0  0  0
   45.6690   24.7870   49.0680 S   0  0  0  0  0  0  0  0  0  0  0  0
   45.1770   25.0860   50.4650 O   0  0  0  0  0  0  0  0  0  0  0  0
   47.1220   25.1580   49.0580 O   0  0  0  0  0  0  0  0  0  0  0  0
   45.4800   23.1120   48.8840 O   0  0  0  0  0  0  0  0  0  0  0  0
   46.3460   22.7140   48.6480 H   0  0  0  0  0  0  0  0  0  0  0  0
   46.9490   30.9510   48.4340 C   0  0  0  0  0  0  0  0  0  0  0  0
   47.2550   31.7400   49.1400 H   0  0  0  0  0  0  0  0  0  0  0  0
   47.6310   30.1040   48.4510 H   0  0  0  0  0  0  0  0  0  0  0  0
   46.4330   32.9770   45.5250 C   0  0  0  0  0  0  0  0  0  0  0  0
   47.2190   31.9290   45.0150 C   0  0  0  0  0  0  0  0  0  0  0  0
   47.5050   31.0560   46.0220 C   0  0  0  0  0  0  0  0  0  0  0  0
   46.9100   31.5560   47.1180 N   0  0  0  0  0  0  0  0  0  0  0  0
   46.2750   32.6960   46.8190 N   0  0  0  0  0  0  0  0  0  0  0  0
   47.5800   31.7740   43.9880 H   0  0  0  0  0  0  0  0  0  0  0  0
   48.0880   30.1310   46.0010 H   0  0  0  0  0  0  0  0  0  0  0  0
   44.5010   35.9010   44.5190 C   0  0  0  0  0  0  0  0  0  0  0  0
   44.9850   36.2000   43.2560 C   0  0  0  0  0  0  0  0  0  0  0  0
   46.0000   35.3680   42.7490 C   0  0  0  0  0  0  0  0  0  0  0  0
   46.4350   34.3420   43.5150 N   0  0  0  0  0  0  0  0  0  0  0  0
   45.9480   34.0800   44.7290 C   0  0  0  0  0  0  0  0  0  0  0  0
   44.9750   34.8700   45.2270 N   0  0  0  0  0  0  0  0  0  0  0  0
   43.7200   36.5090   44.9550 H   0  0  0  0  0  0  0  0  0  0  0  0
   44.5650   37.0390   42.7370 H   0  0  0  0  0  0  0  0  0  0  0  0
   46.3850   35.5870   41.7710 H   0  0  0  0  0  0  0  0  0  0  0  0
  1  3  1  0  0  0  0
  2  1  1  0  0  0  0
  4 13  1  0  0  0  0
  5  4  1  0  0  0  0
  5  1  1  0  0  0  0
  6  5  2  0  0  0  0
  7 11  2  0  0  0  0
  7  6  1  0  0  0  0
  8  7  1  0  0  0  0
  9  8  1  0  0  0  0
  9 10  2  0  0  0  0
 10 11  1  0  0  0  0
 11 12  1  0  0  0  0
 12 18  1  0  0  0  0
 12  4  2  0  0  0  0
 14  6  1  0  0  0  0
 15  8  1  0  0  0  0
 16  9  1  0  0  0  0
 17 10  1  0  0  0  0
 18 20  1  0  0  0  0
 19 18  1  0  0  0  0
 20 21  1  0  0  0  0
 22 20  1  0  0  0  0
 23 20  1  0  0  0  0
 24 23  1  0  0  0  0
 25 27  1  0  0  0  0
 25  1  1  0  0  0  0
 25 26  1  0  0  0  0
 28 32  2  0  0  0  0
 29 28  1  0  0  0  0
 29 30  2  0  0  0  0
 30 31  1  0  0  0  0
 31 25  1  0  0  0  0
 32 31  1  0  0  0  0
 33 29  1  0  0  0  0
 34 30  1  0  0  0  0
 35 41  1  0  0  0  0
 35 40  1  0  0  0  0
 36 35  2  0  0  0  0
 37 36  1  0  0  0  0
 37 38  2  0  0  0  0
 38 39  1  0  0  0  0
 39 40  2  0  0  0  0
 39 28  1  0  0  0  0
 42 36  1  0  0  0  0
 43 37  1  0  0  0  0
M  END
>  <minimizedAffinity>
-5.79424953

>  <minimizedRMSD>
1.38461351

$$$$
