
 OpenBabel03252502583D

 20 20  0  0  0  0  0  0  0  0999 V2000
   42.4900   33.8060   41.1330 S   0  0  0  0  0  0  0  0  0  0  0  0
   39.8270   34.0730   40.4220 C   0  0  0  0  0  0  0  0  0  0  0  0
   41.1380   34.0610   39.9610 C   0  0  0  0  0  0  0  0  0  0  0  0
   41.4250   34.2450   38.6030 C   0  0  0  0  0  0  0  0  0  0  0  0
   40.3510   34.4320   37.7810 N   0  0  0  0  0  0  0  0  0  0  0  0
   39.1090   34.4360   38.2650 C   0  0  0  0  0  0  0  0  0  0  0  0
   38.8010   34.2660   39.5450 N   0  0  0  0  0  0  0  0  0  0  0  0
   39.6590   33.9260   41.4820 H   0  0  0  0  0  0  0  0  0  0  0  0
   42.4530   34.2310   38.2720 H   0  0  0  0  0  0  0  0  0  0  0  0
   38.3100   34.5900   37.5520 H   0  0  0  0  0  0  0  0  0  0  0  0
   43.7280   35.0790   40.8930 C   0  0  0  0  0  0  0  0  0  0  0  0
   44.7620   34.6910   40.8700 H   0  0  0  0  0  0  0  0  0  0  0  0
   43.5610   35.5860   39.9190 H   0  0  0  0  0  0  0  0  0  0  0  0
   43.5690   36.0530   41.9760 N   0  0  0  0  0  0  0  0  0  0  0  0
   42.6380   35.9390   42.4140 H   0  0  0  0  0  0  0  0  0  0  0  0
   44.8500   35.9240   43.1280 S   0  0  0  0  0  0  0  0  0  0  0  0
   45.9840   35.1190   42.6230 O   0  0  0  0  0  0  0  0  0  0  0  0
   45.2810   37.3520   43.4180 O   0  0  0  0  0  0  0  0  0  0  0  0
   44.2230   35.3480   44.5760 O   0  0  0  0  0  0  0  0  0  0  0  0
   44.5210   34.4000   44.7040 H   0  0  0  0  0  0  0  0  0  0  0  0
  2  8  1  0  0  0  0
  3  2  1  0  0  0  0
  3  1  1  0  0  0  0
  4  3  2  0  0  0  0
  5  6  2  0  0  0  0
  5  4  1  0  0  0  0
  6  7  1  0  0  0  0
  7  2  2  0  0  0  0
  9  4  1  0  0  0  0
 10  6  1  0  0  0  0
 11  1  1  0  0  0  0
 11 14  1  0  0  0  0
 12 11  1  0  0  0  0
 13 11  1  0  0  0  0
 14 15  1  0  0  0  0
 14 16  1  0  0  0  0
 16 18  1  0  0  0  0
 16 19  1  0  0  0  0
 17 16  1  0  0  0  0
 19 20  1  0  0  0  0
M  END
>  <minimizedAffinity>
-3.85735726

>  <minimizedRMSD>
5.88244343

$$$$
