
 OpenBabel03252508223D

 32 33  0  0  0  0  0  0  0  0999 V2000
   36.9490   26.5800   42.0490 C   0  0  0  0  0  0  0  0  0  0  0  0
   36.8780   25.2220   42.1720 C   0  0  0  0  0  0  0  0  0  0  0  0
   36.7130   24.2910   41.1710 C   0  0  0  0  0  0  0  0  0  0  0  0
   36.6080   24.8340   39.8940 C   0  0  0  0  0  0  0  0  0  0  0  0
   36.6710   26.1950   39.7050 C   0  0  0  0  0  0  0  0  0  0  0  0
   36.8370   27.0540   40.7520 C   0  0  0  0  0  0  0  0  0  0  0  0
   36.9640   24.8230   43.1930 H   0  0  0  0  0  0  0  0  0  0  0  0
   36.6720   23.2460   41.3940 H   0  0  0  0  0  0  0  0  0  0  0  0
   36.4750   24.1390   39.0720 H   0  0  0  0  0  0  0  0  0  0  0  0
   36.5780   26.5030   38.6710 H   0  0  0  0  0  0  0  0  0  0  0  0
   37.1250   27.5300   43.1490 C   0  0  0  0  0  0  0  0  0  0  0  0
   36.7500   28.5420   42.9770 H   0  0  0  0  0  0  0  0  0  0  0  0
   36.5260   27.1120   44.0110 H   0  0  0  0  0  0  0  0  0  0  0  0
   38.5660   27.5120   43.6650 C   0  0  0  0  0  0  0  0  0  0  0  0
   39.0660   26.5540   43.5320 H   0  0  0  0  0  0  0  0  0  0  0  0
   38.4720   27.7350   44.7550 H   0  0  0  0  0  0  0  0  0  0  0  0
   41.3080   29.6630   42.2070 C   0  0  0  0  0  0  0  0  0  0  0  0
   40.6550   28.5580   42.8090 C   0  0  0  0  0  0  0  0  0  0  0  0
   39.2800   28.6460   43.0390 C   0  0  0  0  0  0  0  0  0  0  0  0
   38.6570   29.8040   42.6630 N   0  0  0  0  0  0  0  0  0  0  0  0
   39.3070   30.8190   42.1000 C   0  0  0  0  0  0  0  0  0  0  0  0
   40.6220   30.7720   41.8640 N   0  0  0  0  0  0  0  0  0  0  0  0
   42.3750   29.4970   42.0720 H   0  0  0  0  0  0  0  0  0  0  0  0
   41.1790   27.6650   43.0910 H   0  0  0  0  0  0  0  0  0  0  0  0
   38.7610   31.7140   41.8220 H   0  0  0  0  0  0  0  0  0  0  0  0
   36.9020   28.4540   40.5350 N   0  0  0  0  0  0  0  0  0  0  0  0
   37.8330   28.9570   40.5750 H   0  0  0  0  0  0  0  0  0  0  0  0
   35.7800   29.6890   40.1840 S   0  0  0  0  0  0  0  0  0  0  0  0
   34.3840   29.1470   40.0660 O   0  0  0  0  0  1  0  0  0  0  0  0
   36.1210   30.3440   38.8890 O   0  0  0  0  0  1  0  0  0  0  0  0
   35.7210   30.8280   41.4440 O   0  0  0  0  0  0  0  0  0  0  0  0
   36.0890   31.6970   41.1650 H   0  0  0  0  0  0  0  0  0  0  0  0
  1  2  1  0  0  0  0
  1 11  1  0  0  0  0
  2  7  1  0  0  0  0
  3  8  1  0  0  0  0
  3  2  2  0  0  0  0
  4  3  1  0  0  0  0
  5  4  2  0  0  0  0
  5  6  1  0  0  0  0
  6  1  2  0  0  0  0
  9  4  1  0  0  0  0
 10  5  1  0  0  0  0
 11 14  1  0  0  0  0
 11 13  1  0  0  0  0
 12 11  1  0  0  0  0
 14 16  1  0  0  0  0
 15 14  1  0  0  0  0
 17 18  1  0  0  0  0
 18 19  2  0  0  0  0
 18 24  1  0  0  0  0
 19 14  1  0  0  0  0
 20 19  1  0  0  0  0
 21 20  2  0  0  0  0
 22 21  1  0  0  0  0
 22 17  2  0  0  0  0
 23 17  1  0  0  0  0
 25 21  1  0  0  0  0
 26 27  1  0  0  0  0
 26  6  1  0  0  0  0
 28 26  1  0  0  0  0
 28 31  1  0  0  0  0
 29 28  1  0  0  0  0
 30 28  1  0  0  0  0
 32 31  1  0  0  0  0
M  END
>  <minimizedAffinity>
-5.32788181

$$$$

 OpenBabel03252508223D

 32 33  0  0  0  0  0  0  0  0999 V2000
   38.4230   28.1890   42.8510 C   0  0  0  0  0  0  0  0  0  0  0  0
   39.4410   27.3320   43.1490 C   0  0  0  0  0  0  0  0  0  0  0  0
   39.4680   25.9640   42.9930 C   0  0  0  0  0  0  0  0  0  0  0  0
   38.2990   25.4240   42.4650 C   0  0  0  0  0  0  0  0  0  0  0  0
   37.2350   26.2370   42.1450 C   0  0  0  0  0  0  0  0  0  0  0  0
   37.2890   27.5870   42.3300 C   0  0  0  0  0  0  0  0  0  0  0  0
   40.3520   27.7880   43.5650 H   0  0  0  0  0  0  0  0  0  0  0  0
   40.3320   25.3960   43.2660 H   0  0  0  0  0  0  0  0  0  0  0  0
   38.2720   24.3490   42.3240 H   0  0  0  0  0  0  0  0  0  0  0  0
   36.3810   25.7080   41.7420 H   0  0  0  0  0  0  0  0  0  0  0  0
   38.4440   29.6410   43.0380 C   0  0  0  0  0  0  0  0  0  0  0  0
   37.5790   30.1900   42.6550 H   0  0  0  0  0  0  0  0  0  0  0  0
   38.4520   29.8040   44.1570 H   0  0  0  0  0  0  0  0  0  0  0  0
   39.7750   30.2350   42.5740 C   0  0  0  0  0  0  0  0  0  0  0  0
   40.5890   29.5120   42.5420 H   0  0  0  0  0  0  0  0  0  0  0  0
   40.0070   31.0220   43.3330 H   0  0  0  0  0  0  0  0  0  0  0  0
   39.9220   31.1400   38.9100 C   0  0  0  0  0  0  0  0  0  0  0  0
   40.1740   30.4620   40.1280 C   0  0  0  0  0  0  0  0  0  0  0  0
   39.5360   30.9190   41.2850 C   0  0  0  0  0  0  0  0  0  0  0  0
   38.7070   31.9980   41.1550 N   0  0  0  0  0  0  0  0  0  0  0  0
   38.4970   32.6070   39.9910 C   0  0  0  0  0  0  0  0  0  0  0  0
   39.0890   32.1990   38.8640 N   0  0  0  0  0  0  0  0  0  0  0  0
   40.4650   30.7090   38.0700 H   0  0  0  0  0  0  0  0  0  0  0  0
   40.8330   29.6170   40.1910 H   0  0  0  0  0  0  0  0  0  0  0  0
   37.8270   33.4590   39.9480 H   0  0  0  0  0  0  0  0  0  0  0  0
   36.1820   28.4070   41.9900 N   0  0  0  0  0  0  0  0  0  0  0  0
   35.3260   28.4320   42.6130 H   0  0  0  0  0  0  0  0  0  0  0  0
   35.8030   29.4840   40.7230 S   0  0  0  0  0  0  0  0  0  0  0  0
   34.4720   29.1610   40.1060 O   0  0  0  0  0  1  0  0  0  0  0  0
   36.8320   29.3990   39.6480 O   0  0  0  0  0  1  0  0  0  0  0  0
   35.6610   31.0740   41.3040 O   0  0  0  0  0  0  0  0  0  0  0  0
   36.3900   31.6470   40.9740 H   0  0  0  0  0  0  0  0  0  0  0  0
  1 11  1  0  0  0  0
  1  2  1  0  0  0  0
  2  7  1  0  0  0  0
  3  2  2  0  0  0  0
  3  8  1  0  0  0  0
  4  3  1  0  0  0  0
  5  6  1  0  0  0  0
  5  4  2  0  0  0  0
  6  1  2  0  0  0  0
  9  4  1  0  0  0  0
 10  5  1  0  0  0  0
 11 13  1  0  0  0  0
 12 11  1  0  0  0  0
 14 11  1  0  0  0  0
 14 16  1  0  0  0  0
 15 14  1  0  0  0  0
 17 18  1  0  0  0  0
 18 24  1  0  0  0  0
 18 19  2  0  0  0  0
 19 14  1  0  0  0  0
 20 19  1  0  0  0  0
 21 20  2  0  0  0  0
 22 17  2  0  0  0  0
 22 21  1  0  0  0  0
 23 17  1  0  0  0  0
 25 21  1  0  0  0  0
 26  6  1  0  0  0  0
 26 27  1  0  0  0  0
 28 31  1  0  0  0  0
 28 26  1  0  0  0  0
 29 28  1  0  0  0  0
 30 28  1  0  0  0  0
 32 31  1  0  0  0  0
M  END
>  <minimizedAffinity>
-5.27069616

$$$$

 OpenBabel03252508223D

 32 33  0  0  0  0  0  0  0  0999 V2000
   38.3940   26.3660   42.7490 C   0  0  0  0  0  0  0  0  0  0  0  0
   37.1940   25.7830   42.4610 C   0  0  0  0  0  0  0  0  0  0  0  0
   36.9700   24.5680   41.8520 C   0  0  0  0  0  0  0  0  0  0  0  0
   38.1260   23.8800   41.5010 C   0  0  0  0  0  0  0  0  0  0  0  0
   39.3670   24.4150   41.7640 C   0  0  0  0  0  0  0  0  0  0  0  0
   39.5050   25.6280   42.3730 C   0  0  0  0  0  0  0  0  0  0  0  0
   36.2980   26.3510   42.7500 H   0  0  0  0  0  0  0  0  0  0  0  0
   35.9750   24.2160   41.6790 H   0  0  0  0  0  0  0  0  0  0  0  0
   38.0000   22.9170   41.0170 H   0  0  0  0  0  0  0  0  0  0  0  0
   40.1940   23.7920   41.4470 H   0  0  0  0  0  0  0  0  0  0  0  0
   38.5800   27.6640   43.3990 C   0  0  0  0  0  0  0  0  0  0  0  0
   39.0220   27.6450   44.3990 H   0  0  0  0  0  0  0  0  0  0  0  0
   39.3070   28.2310   42.7430 H   0  0  0  0  0  0  0  0  0  0  0  0
   37.3010   28.5010   43.3320 C   0  0  0  0  0  0  0  0  0  0  0  0
   36.9420   28.8290   44.3060 H   0  0  0  0  0  0  0  0  0  0  0  0
   36.5480   27.8170   42.8690 H   0  0  0  0  0  0  0  0  0  0  0  0
   39.0130   31.2150   41.3410 C   0  0  0  0  0  0  0  0  0  0  0  0
   38.8200   30.1540   42.2610 C   0  0  0  0  0  0  0  0  0  0  0  0
   37.5390   29.6080   42.3820 C   0  0  0  0  0  0  0  0  0  0  0  0
   36.5560   30.1430   41.5970 N   0  0  0  0  0  0  0  0  0  0  0  0
   36.7800   31.1390   40.7450 C   0  0  0  0  0  0  0  0  0  0  0  0
   37.9910   31.6870   40.6000 N   0  0  0  0  0  0  0  0  0  0  0  0
   40.0430   31.5700   41.3210 H   0  0  0  0  0  0  0  0  0  0  0  0
   39.6180   29.7610   42.8610 H   0  0  0  0  0  0  0  0  0  0  0  0
   35.9610   31.5240   40.1460 H   0  0  0  0  0  0  0  0  0  0  0  0
   40.7930   26.1610   42.6370 N   0  0  0  0  0  0  0  0  0  0  0  0
   40.8940   27.0690   43.1720 H   0  0  0  0  0  0  0  0  0  0  0  0
   42.4000   25.6960   42.3020 S   0  0  0  0  0  0  0  0  0  0  0  0
   43.3400   26.8640   42.3910 O   0  0  0  0  0  1  0  0  0  0  0  0
   42.4990   25.1390   40.9240 O   0  0  0  0  0  1  0  0  0  0  0  0
   42.9560   24.5750   43.4520 O   0  0  0  0  0  0  0  0  0  0  0  0
   43.0880   23.6840   43.0550 H   0  0  0  0  0  0  0  0  0  0  0  0
  1 11  1  0  0  0  0
  2  1  1  0  0  0  0
  2  7  1  0  0  0  0
  3  2  2  0  0  0  0
  4  5  2  0  0  0  0
  4  3  1  0  0  0  0
  5  6  1  0  0  0  0
  6 26  1  0  0  0  0
  6  1  2  0  0  0  0
  8  3  1  0  0  0  0
  9  4  1  0  0  0  0
 10  5  1  0  0  0  0
 11 12  1  0  0  0  0
 13 11  1  0  0  0  0
 14 11  1  0  0  0  0
 14 15  1  0  0  0  0
 16 14  1  0  0  0  0
 17 18  1  0  0  0  0
 18 19  2  0  0  0  0
 18 24  1  0  0  0  0
 19 14  1  0  0  0  0
 20 19  1  0  0  0  0
 21 20  2  0  0  0  0
 22 21  1  0  0  0  0
 22 17  2  0  0  0  0
 23 17  1  0  0  0  0
 25 21  1  0  0  0  0
 26 27  1  0  0  0  0
 28 29  1  0  0  0  0
 28 26  1  0  0  0  0
 28 31  1  0  0  0  0
 30 28  1  0  0  0  0
 32 31  1  0  0  0  0
M  END
>  <minimizedAffinity>
-5.19085884

$$$$

 OpenBabel03252508223D

 32 33  0  0  0  0  0  0  0  0999 V2000
   36.0740   29.8920   38.9370 C   0  0  0  0  0  0  0  0  0  0  0  0
   35.3160   29.3720   37.9290 C   0  0  0  0  0  0  0  0  0  0  0  0
   35.6460   29.2560   36.5970 C   0  0  0  0  0  0  0  0  0  0  0  0
   36.9110   29.7370   36.2760 C   0  0  0  0  0  0  0  0  0  0  0  0
   37.7240   30.2730   37.2480 C   0  0  0  0  0  0  0  0  0  0  0  0
   37.3220   30.3520   38.5490 C   0  0  0  0  0  0  0  0  0  0  0  0
   34.3200   29.0010   38.2140 H   0  0  0  0  0  0  0  0  0  0  0  0
   34.9600   28.8280   35.8960 H   0  0  0  0  0  0  0  0  0  0  0  0
   37.2160   29.6670   35.2370 H   0  0  0  0  0  0  0  0  0  0  0  0
   38.6840   30.6140   36.8830 H   0  0  0  0  0  0  0  0  0  0  0  0
   35.6760   29.9950   40.3430 C   0  0  0  0  0  0  0  0  0  0  0  0
   36.2500   30.6930   40.9580 H   0  0  0  0  0  0  0  0  0  0  0  0
   34.6140   30.3830   40.3300 H   0  0  0  0  0  0  0  0  0  0  0  0
   35.5490   28.6090   40.9800 C   0  0  0  0  0  0  0  0  0  0  0  0
   35.3630   27.8130   40.2610 H   0  0  0  0  0  0  0  0  0  0  0  0
   34.6750   28.7010   41.6690 H   0  0  0  0  0  0  0  0  0  0  0  0
   38.2670   26.9140   42.9820 C   0  0  0  0  0  0  0  0  0  0  0  0
   37.1100   27.0890   42.1820 C   0  0  0  0  0  0  0  0  0  0  0  0
   36.7500   28.3880   41.8130 C   0  0  0  0  0  0  0  0  0  0  0  0
   37.5500   29.4060   42.2540 N   0  0  0  0  0  0  0  0  0  0  0  0
   38.6290   29.1980   43.0040 C   0  0  0  0  0  0  0  0  0  0  0  0
   39.0050   27.9700   43.3770 N   0  0  0  0  0  0  0  0  0  0  0  0
   38.4600   25.8680   43.2150 H   0  0  0  0  0  0  0  0  0  0  0  0
   36.5060   26.2640   41.8560 H   0  0  0  0  0  0  0  0  0  0  0  0
   39.2270   30.0440   43.3250 H   0  0  0  0  0  0  0  0  0  0  0  0
   38.1770   30.9070   39.5360 N   0  0  0  0  0  0  0  0  0  0  0  0
   38.8180   30.2800   40.0990 H   0  0  0  0  0  0  0  0  0  0  0  0
   38.5000   32.4720   40.1330 S   0  0  0  0  0  0  0  0  0  0  0  0
   39.4190   33.2310   39.2180 O   0  0  0  0  0  1  0  0  0  0  0  0
   39.1580   32.3900   41.4670 O   0  0  0  0  0  1  0  0  0  0  0  0
   37.0750   33.3940   40.2140 O   0  0  0  0  0  0  0  0  0  0  0  0
   36.8140   33.5770   41.1450 H   0  0  0  0  0  0  0  0  0  0  0  0
  1 11  1  0  0  0  0
  2  7  1  0  0  0  0
  2  1  2  0  0  0  0
  3  2  1  0  0  0  0
  4  3  2  0  0  0  0
  4  5  1  0  0  0  0
  5  6  2  0  0  0  0
  6  1  1  0  0  0  0
  6 26  1  0  0  0  0
  8  3  1  0  0  0  0
  9  4  1  0  0  0  0
 10  5  1  0  0  0  0
 11 12  1  0  0  0  0
 11 14  1  0  0  0  0
 13 11  1  0  0  0  0
 14 16  1  0  0  0  0
 14 19  1  0  0  0  0
 15 14  1  0  0  0  0
 17 23  1  0  0  0  0
 17 22  1  0  0  0  0
 18 17  2  0  0  0  0
 19 18  1  0  0  0  0
 19 20  2  0  0  0  0
 20 21  1  0  0  0  0
 21 25  1  0  0  0  0
 21 22  2  0  0  0  0
 24 18  1  0  0  0  0
 26 27  1  0  0  0  0
 26 28  1  0  0  0  0
 28 31  1  0  0  0  0
 28 30  1  0  0  0  0
 29 28  1  0  0  0  0
 31 32  1  0  0  0  0
M  END
>  <minimizedAffinity>
-5.05311584

$$$$

 OpenBabel03252508223D

 32 33  0  0  0  0  0  0  0  0999 V2000
   38.4060   30.4480   41.7450 C   0  0  0  0  0  0  0  0  0  0  0  0
   37.2210   30.2410   41.1010 C   0  0  0  0  0  0  0  0  0  0  0  0
   36.5800   31.0830   40.2200 C   0  0  0  0  0  0  0  0  0  0  0  0
   37.2500   32.2780   39.9790 C   0  0  0  0  0  0  0  0  0  0  0  0
   38.4490   32.5460   40.5980 C   0  0  0  0  0  0  0  0  0  0  0  0
   39.0200   31.6570   41.4620 C   0  0  0  0  0  0  0  0  0  0  0  0
   36.7150   29.2870   41.3120 H   0  0  0  0  0  0  0  0  0  0  0  0
   35.6470   30.8070   39.7760 H   0  0  0  0  0  0  0  0  0  0  0  0
   36.7840   32.9750   39.2910 H   0  0  0  0  0  0  0  0  0  0  0  0
   38.8780   33.5050   40.3360 H   0  0  0  0  0  0  0  0  0  0  0  0
   39.0470   29.5180   42.6780 C   0  0  0  0  0  0  0  0  0  0  0  0
   39.8930   28.9480   42.2870 H   0  0  0  0  0  0  0  0  0  0  0  0
   39.4570   30.1610   43.5130 H   0  0  0  0  0  0  0  0  0  0  0  0
   38.0080   28.6360   43.3740 C   0  0  0  0  0  0  0  0  0  0  0  0
   36.9820   28.8530   43.0800 H   0  0  0  0  0  0  0  0  0  0  0  0
   38.1380   28.8610   44.4610 H   0  0  0  0  0  0  0  0  0  0  0  0
   37.9940   25.0420   42.2140 C   0  0  0  0  0  0  0  0  0  0  0  0
   37.5870   26.3860   42.3990 C   0  0  0  0  0  0  0  0  0  0  0  0
   38.4020   27.2270   43.1610 C   0  0  0  0  0  0  0  0  0  0  0  0
   39.5460   26.6860   43.6790 N   0  0  0  0  0  0  0  0  0  0  0  0
   39.8930   25.4170   43.4810 C   0  0  0  0  0  0  0  0  0  0  0  0
   39.1390   24.5820   42.7580 N   0  0  0  0  0  0  0  0  0  0  0  0
   37.2930   24.4700   41.6080 H   0  0  0  0  0  0  0  0  0  0  0  0
   36.6800   26.7750   41.9770 H   0  0  0  0  0  0  0  0  0  0  0  0
   40.8130   25.0410   43.9160 H   0  0  0  0  0  0  0  0  0  0  0  0
   40.2580   31.9510   42.0870 N   0  0  0  0  0  0  0  0  0  0  0  0
   40.2910   32.1920   43.1180 H   0  0  0  0  0  0  0  0  0  0  0  0
   41.8890   32.0310   41.5930 S   0  0  0  0  0  0  0  0  0  0  0  0
   42.0430   32.8390   40.3360 O   0  0  0  0  0  1  0  0  0  0  0  0
   42.4120   30.6630   41.3170 O   0  0  0  0  0  1  0  0  0  0  0  0
   42.8370   32.8210   42.7610 O   0  0  0  0  0  0  0  0  0  0  0  0
   43.4650   32.2010   43.1970 H   0  0  0  0  0  0  0  0  0  0  0  0
  1 11  1  0  0  0  0
  2  7  1  0  0  0  0
  2  1  2  0  0  0  0
  3  2  1  0  0  0  0
  4  3  2  0  0  0  0
  4  5  1  0  0  0  0
  5  6  2  0  0  0  0
  6  1  1  0  0  0  0
  6 26  1  0  0  0  0
  8  3  1  0  0  0  0
  9  4  1  0  0  0  0
 10  5  1  0  0  0  0
 11 14  1  0  0  0  0
 11 13  1  0  0  0  0
 12 11  1  0  0  0  0
 14 16  1  0  0  0  0
 15 14  1  0  0  0  0
 17 18  2  0  0  0  0
 17 22  1  0  0  0  0
 18 19  1  0  0  0  0
 19 14  1  0  0  0  0
 19 20  2  0  0  0  0
 21 20  1  0  0  0  0
 21 25  1  0  0  0  0
 22 21  2  0  0  0  0
 23 17  1  0  0  0  0
 24 18  1  0  0  0  0
 26 27  1  0  0  0  0
 28 26  1  0  0  0  0
 28 31  1  0  0  0  0
 29 28  1  0  0  0  0
 30 28  1  0  0  0  0
 31 32  1  0  0  0  0
M  END
>  <minimizedAffinity>
-4.95927477

$$$$

 OpenBabel03252508223D

 32 33  0  0  0  0  0  0  0  0999 V2000
   36.8120   28.3200   41.1900 C   0  0  0  0  0  0  0  0  0  0  0  0
   36.5100   27.6060   42.3130 C   0  0  0  0  0  0  0  0  0  0  0  0
   37.0490   27.7450   43.5730 C   0  0  0  0  0  0  0  0  0  0  0  0
   38.0150   28.7400   43.6770 C   0  0  0  0  0  0  0  0  0  0  0  0
   38.3650   29.4930   42.5800 C   0  0  0  0  0  0  0  0  0  0  0  0
   37.7820   29.2940   41.3630 C   0  0  0  0  0  0  0  0  0  0  0  0
   35.7420   26.8260   42.1990 H   0  0  0  0  0  0  0  0  0  0  0  0
   36.7270   27.1200   44.3800 H   0  0  0  0  0  0  0  0  0  0  0  0
   38.4700   28.8860   44.6510 H   0  0  0  0  0  0  0  0  0  0  0  0
   39.1270   30.2370   42.7790 H   0  0  0  0  0  0  0  0  0  0  0  0
   36.2090   28.1330   39.8690 C   0  0  0  0  0  0  0  0  0  0  0  0
   36.8800   28.2410   39.0120 H   0  0  0  0  0  0  0  0  0  0  0  0
   35.8430   27.0630   39.8510 H   0  0  0  0  0  0  0  0  0  0  0  0
   34.9290   28.9590   39.7280 C   0  0  0  0  0  0  0  0  0  0  0  0
   34.9970   29.9500   40.1730 H   0  0  0  0  0  0  0  0  0  0  0  0
   34.1540   28.3610   40.2680 H   0  0  0  0  0  0  0  0  0  0  0  0
   35.1760   28.9670   35.9590 C   0  0  0  0  0  0  0  0  0  0  0  0
   35.5630   28.9510   37.3220 C   0  0  0  0  0  0  0  0  0  0  0  0
   34.5610   28.9730   38.2960 C   0  0  0  0  0  0  0  0  0  0  0  0
   33.2660   29.0090   37.8580 N   0  0  0  0  0  0  0  0  0  0  0  0
   32.9450   29.0210   36.5680 C   0  0  0  0  0  0  0  0  0  0  0  0
   33.8750   29.0010   35.6070 N   0  0  0  0  0  0  0  0  0  0  0  0
   36.0280   28.9480   35.2810 H   0  0  0  0  0  0  0  0  0  0  0  0
   36.5920   28.9250   37.6270 H   0  0  0  0  0  0  0  0  0  0  0  0
   31.9000   29.0490   36.2780 H   0  0  0  0  0  0  0  0  0  0  0  0
   38.1560   30.0840   40.2450 N   0  0  0  0  0  0  0  0  0  0  0  0
   38.7600   29.6720   39.4800 H   0  0  0  0  0  0  0  0  0  0  0  0
   37.8700   31.6850   39.7300 S   0  0  0  0  0  0  0  0  0  0  0  0
   37.3910   31.7270   38.3070 O   0  0  0  0  0  1  0  0  0  0  0  0
   39.1250   32.4840   39.8090 O   0  0  0  0  0  1  0  0  0  0  0  0
   36.6330   32.4030   40.6480 O   0  0  0  0  0  0  0  0  0  0  0  0
   36.9790   33.1230   41.2220 H   0  0  0  0  0  0  0  0  0  0  0  0
  1  6  2  0  0  0  0
  1  2  1  0  0  0  0
  2  3  2  0  0  0  0
  3  4  1  0  0  0  0
  3  8  1  0  0  0  0
  4  9  1  0  0  0  0
  5 10  1  0  0  0  0
  5  4  2  0  0  0  0
  6  5  1  0  0  0  0
  7  2  1  0  0  0  0
 11  1  1  0  0  0  0
 12 11  1  0  0  0  0
 13 11  1  0  0  0  0
 14 11  1  0  0  0  0
 14 15  1  0  0  0  0
 14 16  1  0  0  0  0
 17 18  1  0  0  0  0
 18 24  1  0  0  0  0
 18 19  2  0  0  0  0
 19 14  1  0  0  0  0
 20 19  1  0  0  0  0
 21 20  2  0  0  0  0
 22 17  2  0  0  0  0
 22 21  1  0  0  0  0
 23 17  1  0  0  0  0
 25 21  1  0  0  0  0
 26  6  1  0  0  0  0
 27 26  1  0  0  0  0
 28 30  1  0  0  0  0
 28 26  1  0  0  0  0
 28 31  1  0  0  0  0
 29 28  1  0  0  0  0
 31 32  1  0  0  0  0
M  END
>  <minimizedAffinity>
-4.86454153

$$$$

 OpenBabel03252508223D

 32 33  0  0  0  0  0  0  0  0999 V2000
   38.9410   31.7490   40.6170 C   0  0  0  0  0  0  0  0  0  0  0  0
   39.2170   33.0700   40.8200 C   0  0  0  0  0  0  0  0  0  0  0  0
   38.5340   34.1610   40.3320 C   0  0  0  0  0  0  0  0  0  0  0  0
   37.4360   33.8430   39.5400 C   0  0  0  0  0  0  0  0  0  0  0  0
   37.1050   32.5290   39.2970 C   0  0  0  0  0  0  0  0  0  0  0  0
   37.8350   31.5020   39.8190 C   0  0  0  0  0  0  0  0  0  0  0  0
   40.0920   33.2900   41.4510 H   0  0  0  0  0  0  0  0  0  0  0  0
   38.8510   35.1560   40.5630 H   0  0  0  0  0  0  0  0  0  0  0  0
   36.8660   34.6700   39.1320 H   0  0  0  0  0  0  0  0  0  0  0  0
   36.2330   32.4020   38.6680 H   0  0  0  0  0  0  0  0  0  0  0  0
   39.7020   30.6220   41.1590 C   0  0  0  0  0  0  0  0  0  0  0  0
   39.6610   29.6910   40.5860 H   0  0  0  0  0  0  0  0  0  0  0  0
   40.7830   30.9520   41.1490 H   0  0  0  0  0  0  0  0  0  0  0  0
   39.3970   30.4170   42.6440 C   0  0  0  0  0  0  0  0  0  0  0  0
   38.8720   31.2540   43.1020 H   0  0  0  0  0  0  0  0  0  0  0  0
   40.4010   30.3020   43.1190 H   0  0  0  0  0  0  0  0  0  0  0  0
   38.7040   26.7460   43.2050 C   0  0  0  0  0  0  0  0  0  0  0  0
   39.4130   27.9670   43.0800 C   0  0  0  0  0  0  0  0  0  0  0  0
   38.6900   29.1260   42.7820 C   0  0  0  0  0  0  0  0  0  0  0  0
   37.3370   28.9950   42.6310 N   0  0  0  0  0  0  0  0  0  0  0  0
   36.7100   27.8290   42.7570 C   0  0  0  0  0  0  0  0  0  0  0  0
   37.3670   26.7000   43.0410 N   0  0  0  0  0  0  0  0  0  0  0  0
   39.3550   25.9050   43.4370 H   0  0  0  0  0  0  0  0  0  0  0  0
   40.4770   28.0300   43.2050 H   0  0  0  0  0  0  0  0  0  0  0  0
   35.6340   27.7860   42.6270 H   0  0  0  0  0  0  0  0  0  0  0  0
   37.4760   30.1550   39.5570 N   0  0  0  0  0  0  0  0  0  0  0  0
   38.2190   29.4020   39.5220 H   0  0  0  0  0  0  0  0  0  0  0  0
   36.0220   29.3150   39.2550 S   0  0  0  0  0  0  0  0  0  0  0  0
   36.2290   27.8270   39.2890 O   0  0  0  0  0  1  0  0  0  0  0  0
   35.4940   29.6670   37.9070 O   0  0  0  0  0  1  0  0  0  0  0  0
   34.8730   29.6420   40.4620 O   0  0  0  0  0  0  0  0  0  0  0  0
   34.1190   30.1700   40.1120 H   0  0  0  0  0  0  0  0  0  0  0  0
  1  2  1  0  0  0  0
  1 11  1  0  0  0  0
  2  7  1  0  0  0  0
  3  8  1  0  0  0  0
  3  2  2  0  0  0  0
  4  3  1  0  0  0  0
  5  4  2  0  0  0  0
  5  6  1  0  0  0  0
  6  1  2  0  0  0  0
  9  4  1  0  0  0  0
 10  5  1  0  0  0  0
 11 14  1  0  0  0  0
 12 11  1  0  0  0  0
 13 11  1  0  0  0  0
 14 19  1  0  0  0  0
 14 15  1  0  0  0  0
 14 16  1  0  0  0  0
 17 23  1  0  0  0  0
 18 24  1  0  0  0  0
 18 17  1  0  0  0  0
 19 18  2  0  0  0  0
 20 21  2  0  0  0  0
 20 19  1  0  0  0  0
 21 22  1  0  0  0  0
 22 17  2  0  0  0  0
 25 21  1  0  0  0  0
 26  6  1  0  0  0  0
 27 26  1  0  0  0  0
 28 29  1  0  0  0  0
 28 26  1  0  0  0  0
 28 31  1  0  0  0  0
 30 28  1  0  0  0  0
 32 31  1  0  0  0  0
M  END
>  <minimizedAffinity>
-4.85355949

$$$$

 OpenBabel03252508223D

 32 33  0  0  0  0  0  0  0  0999 V2000
   36.1890   30.0510   39.5560 C   0  0  0  0  0  0  0  0  0  0  0  0
   36.2400   30.1940   38.2000 C   0  0  0  0  0  0  0  0  0  0  0  0
   36.0810   29.2190   37.2410 C   0  0  0  0  0  0  0  0  0  0  0  0
   35.8410   27.9470   37.7500 C   0  0  0  0  0  0  0  0  0  0  0  0
   35.7790   27.7380   39.1090 C   0  0  0  0  0  0  0  0  0  0  0  0
   35.9480   28.7600   39.9960 C   0  0  0  0  0  0  0  0  0  0  0  0
   36.4320   31.2120   37.8270 H   0  0  0  0  0  0  0  0  0  0  0  0
   36.1440   29.4570   36.2000 H   0  0  0  0  0  0  0  0  0  0  0  0
   35.7090   27.1450   37.0330 H   0  0  0  0  0  0  0  0  0  0  0  0
   35.5870   26.7100   39.3900 H   0  0  0  0  0  0  0  0  0  0  0  0
   36.3670   31.1230   40.5370 C   0  0  0  0  0  0  0  0  0  0  0  0
   35.4540   31.5260   40.9830 H   0  0  0  0  0  0  0  0  0  0  0  0
   36.9580   30.6640   41.3850 H   0  0  0  0  0  0  0  0  0  0  0  0
   37.2940   32.2140   39.9970 C   0  0  0  0  0  0  0  0  0  0  0  0
   36.8990   33.2220   40.1140 H   0  0  0  0  0  0  0  0  0  0  0  0
   37.3940   31.9780   38.9090 H   0  0  0  0  0  0  0  0  0  0  0  0
   40.9660   32.5770   40.8040 C   0  0  0  0  0  0  0  0  0  0  0  0
   39.7080   32.7880   40.1880 C   0  0  0  0  0  0  0  0  0  0  0  0
   38.6220   32.0200   40.6170 C   0  0  0  0  0  0  0  0  0  0  0  0
   38.8560   31.1110   41.6110 N   0  0  0  0  0  0  0  0  0  0  0  0
   40.0540   30.9430   42.1640 C   0  0  0  0  0  0  0  0  0  0  0  0
   41.1160   31.6590   41.7800 N   0  0  0  0  0  0  0  0  0  0  0  0
   41.7450   33.2220   40.3990 H   0  0  0  0  0  0  0  0  0  0  0  0
   39.5630   33.5120   39.4090 H   0  0  0  0  0  0  0  0  0  0  0  0
   40.1810   30.2060   42.9500 H   0  0  0  0  0  0  0  0  0  0  0  0
   35.8770   28.5220   41.3930 N   0  0  0  0  0  0  0  0  0  0  0  0
   34.9610   28.6500   41.9090 H   0  0  0  0  0  0  0  0  0  0  0  0
   36.9710   28.0320   42.6060 S   0  0  0  0  0  0  0  0  0  0  0  0
   38.2900   27.6150   42.0210 O   0  0  0  0  0  1  0  0  0  0  0  0
   36.4220   26.8680   43.3570 O   0  0  0  0  0  1  0  0  0  0  0  0
   37.3260   29.3200   43.6560 O   0  0  0  0  0  0  0  0  0  0  0  0
   36.9550   29.1680   44.5550 H   0  0  0  0  0  0  0  0  0  0  0  0
  1  6  1  0  0  0  0
  1 11  1  0  0  0  0
  2  1  2  0  0  0  0
  3  4  2  0  0  0  0
  3  2  1  0  0  0  0
  4  5  1  0  0  0  0
  5 10  1  0  0  0  0
  5  6  2  0  0  0  0
  6 26  1  0  0  0  0
  7  2  1  0  0  0  0
  8  3  1  0  0  0  0
  9  4  1  0  0  0  0
 11 12  1  0  0  0  0
 11 13  1  0  0  0  0
 14 15  1  0  0  0  0
 14 11  1  0  0  0  0
 14 19  1  0  0  0  0
 16 14  1  0  0  0  0
 17 22  1  0  0  0  0
 18 19  1  0  0  0  0
 18 17  2  0  0  0  0
 19 20  2  0  0  0  0
 20 21  1  0  0  0  0
 21 25  1  0  0  0  0
 22 21  2  0  0  0  0
 23 17  1  0  0  0  0
 24 18  1  0  0  0  0
 26 27  1  0  0  0  0
 26 28  1  0  0  0  0
 28 30  1  0  0  0  0
 28 31  1  0  0  0  0
 29 28  1  0  0  0  0
 31 32  1  0  0  0  0
M  END
>  <minimizedAffinity>
-4.75611973

$$$$

 OpenBabel03252508223D

 32 33  0  0  0  0  0  0  0  0999 V2000
   35.8470   28.1970   39.1180 C   0  0  0  0  0  0  0  0  0  0  0  0
   35.1330   27.5710   38.1380 C   0  0  0  0  0  0  0  0  0  0  0  0
   35.2100   26.2520   37.7480 C   0  0  0  0  0  0  0  0  0  0  0  0
   36.1350   25.4960   38.4600 C   0  0  0  0  0  0  0  0  0  0  0  0
   36.8860   26.0700   39.4600 C   0  0  0  0  0  0  0  0  0  0  0  0
   36.7510   27.3870   39.7870 C   0  0  0  0  0  0  0  0  0  0  0  0
   34.4100   28.1940   37.5920 H   0  0  0  0  0  0  0  0  0  0  0  0
   34.5930   25.8760   36.9590 H   0  0  0  0  0  0  0  0  0  0  0  0
   36.2320   24.4510   38.1880 H   0  0  0  0  0  0  0  0  0  0  0  0
   37.5730   25.3870   39.9450 H   0  0  0  0  0  0  0  0  0  0  0  0
   35.7300   29.6060   39.4950 C   0  0  0  0  0  0  0  0  0  0  0  0
   34.7150   29.9800   39.6600 H   0  0  0  0  0  0  0  0  0  0  0  0
   36.2670   29.7020   40.4850 H   0  0  0  0  0  0  0  0  0  0  0  0
   36.5430   30.4960   38.5520 C   0  0  0  0  0  0  0  0  0  0  0  0
   35.9420   30.9890   37.7890 H   0  0  0  0  0  0  0  0  0  0  0  0
   37.2630   29.7960   38.0640 H   0  0  0  0  0  0  0  0  0  0  0  0
   37.9980   33.6760   39.9810 C   0  0  0  0  0  0  0  0  0  0  0  0
   37.2310   32.8080   39.1640 C   0  0  0  0  0  0  0  0  0  0  0  0
   37.3280   31.4310   39.3860 C   0  0  0  0  0  0  0  0  0  0  0  0
   38.1640   31.0180   40.3850 N   0  0  0  0  0  0  0  0  0  0  0  0
   38.8670   31.8670   41.1310 C   0  0  0  0  0  0  0  0  0  0  0  0
   38.8010   33.1900   40.9490 N   0  0  0  0  0  0  0  0  0  0  0  0
   37.8530   34.7250   39.7290 H   0  0  0  0  0  0  0  0  0  0  0  0
   36.5850   33.1710   38.3870 H   0  0  0  0  0  0  0  0  0  0  0  0
   39.5150   31.4810   41.9110 H   0  0  0  0  0  0  0  0  0  0  0  0
   37.5330   27.9580   40.8240 N   0  0  0  0  0  0  0  0  0  0  0  0
   38.4180   28.4910   40.5920 H   0  0  0  0  0  0  0  0  0  0  0  0
   37.4350   28.0390   42.5250 S   0  0  0  0  0  0  0  0  0  0  0  0
   38.7760   27.8170   43.1650 O   0  0  0  0  0  1  0  0  0  0  0  0
   36.5100   26.9900   43.0390 O   0  0  0  0  0  1  0  0  0  0  0  0
   36.9410   29.5840   43.0290 O   0  0  0  0  0  0  0  0  0  0  0  0
   36.0400   29.5660   43.4240 H   0  0  0  0  0  0  0  0  0  0  0  0
  1 11  1  0  0  0  0
  1  6  1  0  0  0  0
  2  1  2  0  0  0  0
  3  2  1  0  0  0  0
  3  4  2  0  0  0  0
  4  5  1  0  0  0  0
  5  6  2  0  0  0  0
  5 10  1  0  0  0  0
  6 26  1  0  0  0  0
  7  2  1  0  0  0  0
  8  3  1  0  0  0  0
  9  4  1  0  0  0  0
 11 12  1  0  0  0  0
 11 13  1  0  0  0  0
 14 19  1  0  0  0  0
 14 11  1  0  0  0  0
 15 14  1  0  0  0  0
 16 14  1  0  0  0  0
 17 22  1  0  0  0  0
 18 19  1  0  0  0  0
 18 17  2  0  0  0  0
 19 20  2  0  0  0  0
 20 21  1  0  0  0  0
 21 25  1  0  0  0  0
 22 21  2  0  0  0  0
 23 17  1  0  0  0  0
 24 18  1  0  0  0  0
 26 28  1  0  0  0  0
 27 26  1  0  0  0  0
 28 31  1  0  0  0  0
 28 30  1  0  0  0  0
 28 29  1  0  0  0  0
 31 32  1  0  0  0  0
M  END
>  <minimizedAffinity>
-4.69105959

$$$$
