
 OpenBabel03242521433D

 32 33  0  0  1  0  0  0  0  0999 V2000
   36.5790   28.7070   41.5990 C   0  0  0  0  0  0  0  0  0  0  0  0
   36.6280   27.3620   41.2590 C   0  0  0  0  0  0  0  0  0  0  0  0
   37.4080   26.5120   42.0440 C   0  0  0  0  0  0  0  0  0  0  0  0
   38.0780   27.0400   43.0940 N   0  0  0  0  0  0  0  0  0  0  0  0
   38.0060   28.3620   43.3970 C   0  0  0  0  0  0  0  0  0  0  0  0
   37.2610   29.1960   42.6560 N   0  0  0  0  0  0  0  0  0  0  0  0
   36.0880   27.0540   40.3930 H   0  0  0  0  0  0  0  0  0  0  0  0
   38.5080   28.7140   44.2970 H   0  0  0  0  0  0  0  0  0  0  0  0
   38.7410   24.6890   41.0020 C   0  0  2  0  0  0  0  0  0  0  0  0
   37.4500   25.0990   41.6830 C   0  0  2  0  0  0  0  0  0  0  0  0
   36.5320   24.7250   40.7030 O   0  0  0  0  0  0  0  0  0  0  0  0
   36.8820   23.4380   40.3720 C   0  0  0  0  0  0  0  0  0  0  0  0
   38.3510   23.2450   40.6530 C   0  0  1  0  0  0  0  0  0  0  0  0
   38.8970   25.1820   40.0330 H   0  0  0  0  0  0  0  0  0  0  0  0
   37.3580   24.4430   42.5830 H   0  0  0  0  0  0  0  0  0  0  0  0
   36.2630   22.7220   40.9660 H   0  0  0  0  0  0  0  0  0  0  0  0
   36.6550   23.2090   39.3070 H   0  0  0  0  0  0  0  0  0  0  0  0
   38.4880   22.6420   41.5630 H   0  0  0  0  0  0  0  0  0  0  0  0
   39.8290   24.7470   41.8550 O   0  0  0  0  0  0  0  0  0  0  0  0
   39.4780   24.8630   42.7680 H   0  0  0  0  0  0  0  0  0  0  0  0
   39.0820   22.8260   39.5660 O   0  0  0  0  0  0  0  0  0  0  0  0
   38.6640   22.0040   39.1830 H   0  0  0  0  0  0  0  0  0  0  0  0
   35.7650   29.6610   40.7540 C   0  0  0  0  0  0  0  0  0  0  0  0
   34.7090   29.3030   40.8120 H   0  0  0  0  0  0  0  0  0  0  0  0
   36.1110   29.5240   39.7240 H   0  0  0  0  0  0  0  0  0  0  0  0
   35.9350   31.0210   41.2070 N   0  0  0  0  0  0  0  0  0  0  0  0
   35.0070   31.5250   41.0600 H   0  0  0  0  0  0  0  0  0  0  0  0
   37.0450   31.7950   40.1140 S   0  0  0  0  0  0  0  0  0  0  0  0
   36.8150   31.2330   38.7200 O   0  0  0  0  0  1  0  0  0  0  0  0
   38.4770   31.5510   40.5280 O   0  0  0  0  0  1  0  0  0  0  0  0
   36.8260   33.4570   40.0620 O   0  0  0  0  0  0  0  0  0  0  0  0
   36.6810   33.7550   39.1220 H   0  0  0  0  0  0  0  0  0  0  0  0
  1  6  1  0  0  0  0
  2  1  2  0  0  0  0
  2  3  1  0  0  0  0
  3  4  2  0  0  0  0
  4  5  1  0  0  0  0
  5  8  1  0  0  0  0
  6  5  2  0  0  0  0
  7  2  1  0  0  0  0
  9 14  1  6  0  0  0
  9 10  1  0  0  0  0
  9 19  1  0  0  0  0
 10  3  1  0  0  0  0
 10 15  1  1  0  0  0
 11 10  1  0  0  0  0
 12 13  1  0  0  0  0
 12 11  1  0  0  0  0
 12 16  1  0  0  0  0
 13  9  1  0  0  0  0
 13 18  1  1  0  0  0
 17 12  1  0  0  0  0
 19 20  1  0  0  0  0
 21 13  1  0  0  0  0
 22 21  1  0  0  0  0
 23 24  1  0  0  0  0
 23 26  1  0  0  0  0
 23  1  1  0  0  0  0
 25 23  1  0  0  0  0
 27 26  1  0  0  0  0
 28 30  1  0  0  0  0
 28 26  1  0  0  0  0
 29 28  1  0  0  0  0
 31 28  1  0  0  0  0
 32 31  1  0  0  0  0
M  END
>  <minimizedAffinity>
-5.42279625

$$$$

 OpenBabel03242521433D

 32 33  0  0  1  0  0  0  0  0999 V2000
   38.4440   30.7240   41.4260 C   0  0  0  0  0  0  0  0  0  0  0  0
   39.4770   31.4200   40.8110 C   0  0  0  0  0  0  0  0  0  0  0  0
   39.1670   32.2300   39.7180 C   0  0  0  0  0  0  0  0  0  0  0  0
   37.8790   32.2960   39.3110 N   0  0  0  0  0  0  0  0  0  0  0  0
   36.8940   31.6010   39.9370 C   0  0  0  0  0  0  0  0  0  0  0  0
   37.1710   30.8170   40.9900 N   0  0  0  0  0  0  0  0  0  0  0  0
   40.4630   31.2730   41.1910 H   0  0  0  0  0  0  0  0  0  0  0  0
   35.8660   31.7510   39.6100 H   0  0  0  0  0  0  0  0  0  0  0  0
   40.7230   32.3360   37.7820 C   0  0  2  0  0  0  0  0  0  0  0  0
   40.2570   32.9610   39.0820 C   0  0  2  0  0  0  0  0  0  0  0  0
   41.4540   32.9520   39.7950 O   0  0  0  0  0  0  0  0  0  0  0  0
   42.3750   33.5010   38.9360 C   0  0  0  0  0  0  0  0  0  0  0  0
   41.9230   33.2580   37.5180 C   0  0  1  0  0  0  0  0  0  0  0  0
   41.1580   31.3360   37.9100 H   0  0  0  0  0  0  0  0  0  0  0  0
   39.9550   34.0070   38.8270 H   0  0  0  0  0  0  0  0  0  0  0  0
   42.4710   34.5940   39.1450 H   0  0  0  0  0  0  0  0  0  0  0  0
   43.3930   33.0810   39.0980 H   0  0  0  0  0  0  0  0  0  0  0  0
   41.5300   34.1880   37.0800 H   0  0  0  0  0  0  0  0  0  0  0  0
   39.7680   32.4200   36.7830 O   0  0  0  0  0  0  0  0  0  0  0  0
   39.0710   33.0390   37.0990 H   0  0  0  0  0  0  0  0  0  0  0  0
   42.8430   32.5960   36.7380 O   0  0  0  0  0  0  0  0  0  0  0  0
   43.7150   33.0800   36.7750 H   0  0  0  0  0  0  0  0  0  0  0  0
   38.7500   29.8170   42.5960 C   0  0  0  0  0  0  0  0  0  0  0  0
   39.4490   30.3850   43.2560 H   0  0  0  0  0  0  0  0  0  0  0  0
   39.2950   28.9630   42.1830 H   0  0  0  0  0  0  0  0  0  0  0  0
   37.5350   29.4140   43.2630 N   0  0  0  0  0  0  0  0  0  0  0  0
   37.7470   29.3530   44.3060 H   0  0  0  0  0  0  0  0  0  0  0  0
   37.1980   27.7770   42.7780 S   0  0  0  0  0  0  0  0  0  0  0  0
   36.0920   27.2320   43.6680 O   0  0  0  0  0  1  0  0  0  0  0  0
   38.4250   26.9070   42.9060 O   0  0  0  0  0  1  0  0  0  0  0  0
   36.6930   27.6810   41.1820 O   0  0  0  0  0  0  0  0  0  0  0  0
   35.8180   27.2090   41.1260 H   0  0  0  0  0  0  0  0  0  0  0  0
  1 23  1  0  0  0  0
  2  7  1  0  0  0  0
  2  1  2  0  0  0  0
  3  2  1  0  0  0  0
  4  3  2  0  0  0  0
  4  5  1  0  0  0  0
  5  6  2  0  0  0  0
  6  1  1  0  0  0  0
  8  5  1  0  0  0  0
  9 14  1  1  0  0  0
  9 10  1  0  0  0  0
 10 15  1  6  0  0  0
 10  3  1  0  0  0  0
 10 11  1  0  0  0  0
 12 17  1  0  0  0  0
 12 16  1  0  0  0  0
 12 11  1  0  0  0  0
 13 18  1  6  0  0  0
 13  9  1  0  0  0  0
 13 12  1  0  0  0  0
 19 20  1  0  0  0  0
 19  9  1  0  0  0  0
 21 22  1  0  0  0  0
 21 13  1  0  0  0  0
 23 24  1  0  0  0  0
 23 26  1  0  0  0  0
 25 23  1  0  0  0  0
 26 27  1  0  0  0  0
 28 30  1  0  0  0  0
 28 26  1  0  0  0  0
 28 29  1  0  0  0  0
 31 28  1  0  0  0  0
 32 31  1  0  0  0  0
M  END
>  <minimizedAffinity>
-5.35692358

$$$$

 OpenBabel03242521433D

 32 33  0  0  1  0  0  0  0  0999 V2000
   38.2210   26.9270   43.0660 C   0  0  0  0  0  0  0  0  0  0  0  0
   37.4060   26.1500   42.2520 C   0  0  0  0  0  0  0  0  0  0  0  0
   37.7990   24.8390   41.9860 C   0  0  0  0  0  0  0  0  0  0  0  0
   38.9530   24.3890   42.5300 N   0  0  0  0  0  0  0  0  0  0  0  0
   39.7260   25.1780   43.3220 C   0  0  0  0  0  0  0  0  0  0  0  0
   39.3650   26.4420   43.5910 N   0  0  0  0  0  0  0  0  0  0  0  0
   36.5340   26.6110   41.8470 H   0  0  0  0  0  0  0  0  0  0  0  0
   40.6040   24.7380   43.7900 H   0  0  0  0  0  0  0  0  0  0  0  0
   37.6940   23.0340   40.2780 C   0  0  2  0  0  0  0  0  0  0  0  0
   36.9350   24.0280   41.1350 C   0  0  2  0  0  0  0  0  0  0  0  0
   36.2690   24.7420   40.1410 O   0  0  0  0  0  0  0  0  0  0  0  0
   35.6960   23.7780   39.3450 C   0  0  0  0  0  0  0  0  0  0  0  0
   36.5080   22.5130   39.4520 C   0  0  1  0  0  0  0  0  0  0  0  0
   38.3610   23.5090   39.5470 H   0  0  0  0  0  0  0  0  0  0  0  0
   36.2150   23.4240   41.7390 H   0  0  0  0  0  0  0  0  0  0  0  0
   34.6420   23.6070   39.6730 H   0  0  0  0  0  0  0  0  0  0  0  0
   35.6230   24.1070   38.2850 H   0  0  0  0  0  0  0  0  0  0  0  0
   35.9800   21.7720   40.0710 H   0  0  0  0  0  0  0  0  0  0  0  0
   38.2880   22.0350   41.0300 O   0  0  0  0  0  0  0  0  0  0  0  0
   37.9200   22.0980   41.9410 H   0  0  0  0  0  0  0  0  0  0  0  0
   36.9690   22.0350   38.2470 O   0  0  0  0  0  0  0  0  0  0  0  0
   36.2010   21.9340   37.6170 H   0  0  0  0  0  0  0  0  0  0  0  0
   37.8380   28.3610   43.3520 C   0  0  0  0  0  0  0  0  0  0  0  0
   38.6760   28.9900   42.9650 H   0  0  0  0  0  0  0  0  0  0  0  0
   37.8200   28.4580   44.4420 H   0  0  0  0  0  0  0  0  0  0  0  0
   36.5620   28.6800   42.7580 N   0  0  0  0  0  0  0  0  0  0  0  0
   36.2100   27.8020   42.2660 H   0  0  0  0  0  0  0  0  0  0  0  0
   36.8590   29.8210   41.4780 S   0  0  0  0  0  0  0  0  0  0  0  0
   36.8890   29.0650   40.1600 O   0  0  0  0  0  1  0  0  0  0  0  0
   38.1730   30.5380   41.6810 O   0  0  0  0  0  1  0  0  0  0  0  0
   35.6670   30.9980   41.3910 O   0  0  0  0  0  0  0  0  0  0  0  0
   35.2820   31.0290   40.4720 H   0  0  0  0  0  0  0  0  0  0  0  0
  1 23  1  0  0  0  0
  1  6  1  0  0  0  0
  2  1  2  0  0  0  0
  3  2  1  0  0  0  0
  3  4  2  0  0  0  0
  4  5  1  0  0  0  0
  5  6  2  0  0  0  0
  5  8  1  0  0  0  0
  7  2  1  0  0  0  0
  9 14  1  6  0  0  0
  9 19  1  0  0  0  0
  9 10  1  0  0  0  0
 10 15  1  1  0  0  0
 10  3  1  0  0  0  0
 11 10  1  0  0  0  0
 12 13  1  0  0  0  0
 12 16  1  0  0  0  0
 12 11  1  0  0  0  0
 13 18  1  1  0  0  0
 13  9  1  0  0  0  0
 17 12  1  0  0  0  0
 19 20  1  0  0  0  0
 21 13  1  0  0  0  0
 22 21  1  0  0  0  0
 23 25  1  0  0  0  0
 24 23  1  0  0  0  0
 26 23  1  0  0  0  0
 27 26  1  0  0  0  0
 28 30  1  0  0  0  0
 28 26  1  0  0  0  0
 29 28  1  0  0  0  0
 31 28  1  0  0  0  0
 32 31  1  0  0  0  0
M  END
>  <minimizedAffinity>
-5.32147837

$$$$

 OpenBabel03242521433D

 32 33  0  0  1  0  0  0  0  0999 V2000
   40.0190   32.6500   38.8150 C   0  0  0  0  0  0  0  0  0  0  0  0
   39.3260   31.4600   38.9900 C   0  0  0  0  0  0  0  0  0  0  0  0
   38.3890   31.3870   40.0200 C   0  0  0  0  0  0  0  0  0  0  0  0
   38.2040   32.4780   40.8000 N   0  0  0  0  0  0  0  0  0  0  0  0
   38.9000   33.6270   40.6000 C   0  0  0  0  0  0  0  0  0  0  0  0
   39.8050   33.7170   39.6130 N   0  0  0  0  0  0  0  0  0  0  0  0
   39.5700   30.6490   38.3410 H   0  0  0  0  0  0  0  0  0  0  0  0
   38.6560   34.4930   41.2110 H   0  0  0  0  0  0  0  0  0  0  0  0
   36.8110   30.1000   41.4480 C   0  0  2  0  0  0  0  0  0  0  0  0
   37.6610   30.1350   40.1930 C   0  0  2  0  0  0  0  0  0  0  0  0
   38.4700   29.0230   40.4210 O   0  0  0  0  0  0  0  0  0  0  0  0
   37.5940   28.0190   40.7590 C   0  0  0  0  0  0  0  0  0  0  0  0
   36.3550   28.6360   41.3590 C   0  0  1  0  0  0  0  0  0  0  0  0
   37.3980   30.1580   42.3740 H   0  0  0  0  0  0  0  0  0  0  0  0
   36.9600   29.9480   39.3440 H   0  0  0  0  0  0  0  0  0  0  0  0
   37.3450   27.4230   39.8480 H   0  0  0  0  0  0  0  0  0  0  0  0
   38.0510   27.2940   41.4690 H   0  0  0  0  0  0  0  0  0  0  0  0
   35.5240   28.5960   40.6390 H   0  0  0  0  0  0  0  0  0  0  0  0
   35.7470   30.9850   41.3890 O   0  0  0  0  0  0  0  0  0  0  0  0
   35.6820   31.3000   40.4590 H   0  0  0  0  0  0  0  0  0  0  0  0
   36.0500   28.1770   42.6190 O   0  0  0  0  0  0  0  0  0  0  0  0
   36.0020   27.1800   42.6040 H   0  0  0  0  0  0  0  0  0  0  0  0
   41.0610   32.7530   37.7240 C   0  0  0  0  0  0  0  0  0  0  0  0
   42.0320   32.9520   38.2390 H   0  0  0  0  0  0  0  0  0  0  0  0
   40.8010   33.6420   37.1400 H   0  0  0  0  0  0  0  0  0  0  0  0
   41.0760   31.5570   36.9160 N   0  0  0  0  0  0  0  0  0  0  0  0
   40.5590   30.7980   37.4570 H   0  0  0  0  0  0  0  0  0  0  0  0
   42.7260   31.0070   36.8390 S   0  0  0  0  0  0  0  0  0  0  0  0
   42.8590   30.0580   35.6600 O   0  0  0  0  0  1  0  0  0  0  0  0
   43.1220   30.2950   38.1100 O   0  0  0  0  0  1  0  0  0  0  0  0
   43.8050   32.2740   36.6290 O   0  0  0  0  0  0  0  0  0  0  0  0
   44.3770   32.1080   35.8300 H   0  0  0  0  0  0  0  0  0  0  0  0
  1  2  2  0  0  0  0
  1  6  1  0  0  0  0
  2  3  1  0  0  0  0
  3 10  1  0  0  0  0
  3  4  2  0  0  0  0
  5  4  1  0  0  0  0
  5  8  1  0  0  0  0
  6  5  2  0  0  0  0
  7  2  1  0  0  0  0
  9 14  1  1  0  0  0
 10 15  1  6  0  0  0
 10 11  1  0  0  0  0
 10  9  1  0  0  0  0
 11 12  1  0  0  0  0
 12 13  1  0  0  0  0
 12 17  1  0  0  0  0
 13 18  1  6  0  0  0
 13  9  1  0  0  0  0
 13 21  1  0  0  0  0
 16 12  1  0  0  0  0
 19  9  1  0  0  0  0
 20 19  1  0  0  0  0
 22 21  1  0  0  0  0
 23 24  1  0  0  0  0
 23  1  1  0  0  0  0
 25 23  1  0  0  0  0
 26 27  1  0  0  0  0
 26 23  1  0  0  0  0
 28 26  1  0  0  0  0
 28 30  1  0  0  0  0
 29 28  1  0  0  0  0
 31 28  1  0  0  0  0
 32 31  1  0  0  0  0
M  END
>  <minimizedAffinity>
-5.31962729

$$$$

 OpenBabel03242521433D

 32 33  0  0  1  0  0  0  0  0999 V2000
   36.8980   28.5040   42.2140 C   0  0  0  0  0  0  0  0  0  0  0  0
   37.8010   29.5580   42.1720 C   0  0  0  0  0  0  0  0  0  0  0  0
   37.6000   30.5620   41.2260 C   0  0  0  0  0  0  0  0  0  0  0  0
   36.5380   30.4590   40.3940 N   0  0  0  0  0  0  0  0  0  0  0  0
   35.6740   29.4130   40.4630 C   0  0  0  0  0  0  0  0  0  0  0  0
   35.8490   28.4370   41.3680 N   0  0  0  0  0  0  0  0  0  0  0  0
   38.6230   29.5270   42.8510 H   0  0  0  0  0  0  0  0  0  0  0  0
   34.7970   29.4220   39.8180 H   0  0  0  0  0  0  0  0  0  0  0  0
   38.2820   32.6600   40.0780 C   0  0  2  0  0  0  0  0  0  0  0  0
   38.5500   31.6680   41.1930 C   0  0  2  0  0  0  0  0  0  0  0  0
   39.8560   31.2990   40.8750 O   0  0  0  0  0  0  0  0  0  0  0  0
   40.5200   32.4890   40.6940 C   0  0  0  0  0  0  0  0  0  0  0  0
   39.5260   33.5400   40.2690 C   0  0  1  0  0  0  0  0  0  0  0  0
   38.3920   32.2290   39.0750 H   0  0  0  0  0  0  0  0  0  0  0  0
   38.5240   32.2590   42.1410 H   0  0  0  0  0  0  0  0  0  0  0  0
   41.0270   32.7770   41.6470 H   0  0  0  0  0  0  0  0  0  0  0  0
   41.3360   32.3960   39.9430 H   0  0  0  0  0  0  0  0  0  0  0  0
   39.3160   34.2250   41.1050 H   0  0  0  0  0  0  0  0  0  0  0  0
   37.1060   33.3650   40.2720 O   0  0  0  0  0  0  0  0  0  0  0  0
   36.8090   33.1890   41.1940 H   0  0  0  0  0  0  0  0  0  0  0  0
   39.8330   34.1580   39.0800 O   0  0  0  0  0  0  0  0  0  0  0  0
   40.7630   34.5190   39.1260 H   0  0  0  0  0  0  0  0  0  0  0  0
   37.1020   27.3850   43.2100 C   0  0  0  0  0  0  0  0  0  0  0  0
   36.2670   26.6630   43.0420 H   0  0  0  0  0  0  0  0  0  0  0  0
   36.9670   27.8330   44.2000 H   0  0  0  0  0  0  0  0  0  0  0  0
   38.4100   26.7940   43.0560 N   0  0  0  0  0  0  0  0  0  0  0  0
   38.9580   27.4030   42.3740 H   0  0  0  0  0  0  0  0  0  0  0  0
   38.1960   25.2770   42.2300 S   0  0  0  0  0  0  0  0  0  0  0  0
   38.6210   25.4560   40.7820 O   0  0  0  0  0  1  0  0  0  0  0  0
   36.7560   24.8260   42.2830 O   0  0  0  0  0  1  0  0  0  0  0  0
   39.1190   24.0520   42.9090 O   0  0  0  0  0  0  0  0  0  0  0  0
   39.6920   23.6270   42.2130 H   0  0  0  0  0  0  0  0  0  0  0  0
  1 23  1  0  0  0  0
  2  1  1  0  0  0  0
  2  7  1  0  0  0  0
  3  2  2  0  0  0  0
  4  5  2  0  0  0  0
  4  3  1  0  0  0  0
  5  6  1  0  0  0  0
  6  1  2  0  0  0  0
  8  5  1  0  0  0  0
  9 14  1  6  0  0  0
  9 13  1  0  0  0  0
  9 19  1  0  0  0  0
  9 10  1  0  0  0  0
 10  3  1  0  0  0  0
 10 15  1  1  0  0  0
 11 10  1  0  0  0  0
 12 11  1  0  0  0  0
 12 16  1  0  0  0  0
 13 12  1  0  0  0  0
 13 18  1  1  0  0  0
 17 12  1  0  0  0  0
 19 20  1  0  0  0  0
 21 22  1  0  0  0  0
 21 13  1  0  0  0  0
 23 25  1  0  0  0  0
 24 23  1  0  0  0  0
 26 23  1  0  0  0  0
 27 26  1  0  0  0  0
 28 30  1  0  0  0  0
 28 31  1  0  0  0  0
 28 26  1  0  0  0  0
 29 28  1  0  0  0  0
 32 31  1  0  0  0  0
M  END
>  <minimizedAffinity>
-5.19334173

$$$$

 OpenBabel03242521433D

 32 33  0  0  1  0  0  0  0  0999 V2000
   36.9010   26.6220   40.6730 C   0  0  0  0  0  0  0  0  0  0  0  0
   37.3470   27.9110   40.9330 C   0  0  0  0  0  0  0  0  0  0  0  0
   37.2570   28.8580   39.9140 C   0  0  0  0  0  0  0  0  0  0  0  0
   36.7430   28.4750   38.7220 N   0  0  0  0  0  0  0  0  0  0  0  0
   36.3160   27.2040   38.5030 C   0  0  0  0  0  0  0  0  0  0  0  0
   36.3930   26.2780   39.4710 N   0  0  0  0  0  0  0  0  0  0  0  0
   37.7650   28.1010   41.8960 H   0  0  0  0  0  0  0  0  0  0  0  0
   35.8450   26.9740   37.5490 H   0  0  0  0  0  0  0  0  0  0  0  0
   36.6090   31.2400   40.2160 C   0  0  2  0  0  0  0  0  0  0  0  0
   37.7220   30.2110   40.1980 C   0  0  2  0  0  0  0  0  0  0  0  0
   38.5400   30.7600   39.2120 O   0  0  0  0  0  0  0  0  0  0  0  0
   38.6830   32.0790   39.5730 C   0  0  0  0  0  0  0  0  0  0  0  0
   37.4790   32.4960   40.3790 C   0  0  1  0  0  0  0  0  0  0  0  0
   36.1140   31.3640   39.2430 H   0  0  0  0  0  0  0  0  0  0  0  0
   38.2120   30.2740   41.2000 H   0  0  0  0  0  0  0  0  0  0  0  0
   39.6230   32.2000   40.1640 H   0  0  0  0  0  0  0  0  0  0  0  0
   38.8060   32.7380   38.6860 H   0  0  0  0  0  0  0  0  0  0  0  0
   37.7430   32.5730   41.4450 H   0  0  0  0  0  0  0  0  0  0  0  0
   35.7420   31.0610   41.2790 O   0  0  0  0  0  0  0  0  0  0  0  0
   36.1610   30.4130   41.8910 H   0  0  0  0  0  0  0  0  0  0  0  0
   36.8080   33.5830   39.8700 O   0  0  0  0  0  0  0  0  0  0  0  0
   37.4510   34.3360   39.7410 H   0  0  0  0  0  0  0  0  0  0  0  0
   37.0090   25.5640   41.7480 C   0  0  0  0  0  0  0  0  0  0  0  0
   36.9920   24.5800   41.2190 H   0  0  0  0  0  0  0  0  0  0  0  0
   36.0940   25.6420   42.3430 H   0  0  0  0  0  0  0  0  0  0  0  0
   38.1950   25.7640   42.5460 N   0  0  0  0  0  0  0  0  0  0  0  0
   38.6910   26.6300   42.1720 H   0  0  0  0  0  0  0  0  0  0  0  0
   39.2760   24.4440   42.2040 S   0  0  0  0  0  0  0  0  0  0  0  0
   40.5720   25.0180   41.6540 O   0  0  0  0  0  1  0  0  0  0  0  0
   38.6750   23.4950   41.1950 O   0  0  0  0  0  1  0  0  0  0  0  0
   39.6310   23.5450   43.5740 O   0  0  0  0  0  0  0  0  0  0  0  0
   40.6170   23.4890   43.7030 H   0  0  0  0  0  0  0  0  0  0  0  0
  1  2  1  0  0  0  0
  1 23  1  0  0  0  0
  2  7  1  0  0  0  0
  3 10  1  0  0  0  0
  3  2  2  0  0  0  0
  4  3  1  0  0  0  0
  5  4  2  0  0  0  0
  5  6  1  0  0  0  0
  6  1  2  0  0  0  0
  8  5  1  0  0  0  0
  9 14  1  6  0  0  0
  9 13  1  0  0  0  0
  9 19  1  0  0  0  0
 10  9  1  0  0  0  0
 10 15  1  1  0  0  0
 11 12  1  0  0  0  0
 11 10  1  0  0  0  0
 12 16  1  0  0  0  0
 12 13  1  0  0  0  0
 13 18  1  1  0  0  0
 17 12  1  0  0  0  0
 19 20  1  0  0  0  0
 21 13  1  0  0  0  0
 22 21  1  0  0  0  0
 23 25  1  0  0  0  0
 23 26  1  0  0  0  0
 24 23  1  0  0  0  0
 27 26  1  0  0  0  0
 28 26  1  0  0  0  0
 28 31  1  0  0  0  0
 29 28  1  0  0  0  0
 30 28  1  0  0  0  0
 31 32  1  0  0  0  0
M  END
>  <minimizedAffinity>
-5.18031216

$$$$

 OpenBabel03242521433D

 32 33  0  0  1  0  0  0  0  0999 V2000
   38.1300   31.7670   39.0090 C   0  0  0  0  0  0  0  0  0  0  0  0
   39.4720   31.5600   38.7160 C   0  0  0  0  0  0  0  0  0  0  0  0
   40.3810   32.5660   39.0430 C   0  0  0  0  0  0  0  0  0  0  0  0
   39.9110   33.6930   39.6260 N   0  0  0  0  0  0  0  0  0  0  0  0
   38.5910   33.8610   39.8980 C   0  0  0  0  0  0  0  0  0  0  0  0
   37.7010   32.9050   39.5930 N   0  0  0  0  0  0  0  0  0  0  0  0
   39.7330   30.6500   38.2250 H   0  0  0  0  0  0  0  0  0  0  0  0
   38.2830   34.7570   40.4350 H   0  0  0  0  0  0  0  0  0  0  0  0
   42.1220   32.5140   37.2670 C   0  0  2  0  0  0  0  0  0  0  0  0
   41.7880   32.3390   38.7360 C   0  0  2  0  0  0  0  0  0  0  0  0
   42.2160   31.0260   38.9240 O   0  0  0  0  0  0  0  0  0  0  0  0
   43.4810   30.9920   38.3870 C   0  0  0  0  0  0  0  0  0  0  0  0
   43.5870   32.0550   37.3220 C   0  0  1  0  0  0  0  0  0  0  0  0
   41.6210   31.7840   36.6170 H   0  0  0  0  0  0  0  0  0  0  0  0
   42.4480   33.0540   39.2860 H   0  0  0  0  0  0  0  0  0  0  0  0
   44.2320   31.1590   39.1970 H   0  0  0  0  0  0  0  0  0  0  0  0
   43.7230   29.9920   37.9640 H   0  0  0  0  0  0  0  0  0  0  0  0
   44.1800   32.9050   37.6910 H   0  0  0  0  0  0  0  0  0  0  0  0
   41.9990   33.8290   36.8520 O   0  0  0  0  0  0  0  0  0  0  0  0
   41.9040   34.3820   37.6600 H   0  0  0  0  0  0  0  0  0  0  0  0
   43.9610   31.5810   36.0870 O   0  0  0  0  0  0  0  0  0  0  0  0
   44.8070   31.0570   36.1770 H   0  0  0  0  0  0  0  0  0  0  0  0
   37.1160   30.7070   38.6430 C   0  0  0  0  0  0  0  0  0  0  0  0
   37.2930   30.4650   37.5680 H   0  0  0  0  0  0  0  0  0  0  0  0
   36.1350   31.1870   38.7230 H   0  0  0  0  0  0  0  0  0  0  0  0
   37.2330   29.5630   39.5150 N   0  0  0  0  0  0  0  0  0  0  0  0
   37.1230   28.6900   38.9130 H   0  0  0  0  0  0  0  0  0  0  0  0
   35.8420   29.5650   40.5610 S   0  0  0  0  0  0  0  0  0  0  0  0
   36.0290   28.4800   41.6080 O   0  0  0  0  0  1  0  0  0  0  0  0
   34.5750   29.3040   39.7820 O   0  0  0  0  0  1  0  0  0  0  0  0
   35.6430   31.0340   41.3450 O   0  0  0  0  0  0  0  0  0  0  0  0
   35.5960   30.8940   42.3300 H   0  0  0  0  0  0  0  0  0  0  0  0
  1  6  1  0  0  0  0
  2  1  2  0  0  0  0
  2  3  1  0  0  0  0
  3  4  2  0  0  0  0
  4  5  1  0  0  0  0
  5  8  1  0  0  0  0
  6  5  2  0  0  0  0
  7  2  1  0  0  0  0
  9 14  1  6  0  0  0
  9 13  1  0  0  0  0
  9 10  1  0  0  0  0
 10 11  1  0  0  0  0
 10  3  1  0  0  0  0
 10 15  1  1  0  0  0
 12 11  1  0  0  0  0
 12 16  1  0  0  0  0
 13 18  1  1  0  0  0
 13 12  1  0  0  0  0
 17 12  1  0  0  0  0
 19  9  1  0  0  0  0
 19 20  1  0  0  0  0
 21 22  1  0  0  0  0
 21 13  1  0  0  0  0
 23 25  1  0  0  0  0
 23  1  1  0  0  0  0
 23 26  1  0  0  0  0
 24 23  1  0  0  0  0
 26 28  1  0  0  0  0
 27 26  1  0  0  0  0
 28 31  1  0  0  0  0
 28 29  1  0  0  0  0
 30 28  1  0  0  0  0
 31 32  1  0  0  0  0
M  END
>  <minimizedAffinity>
-5.13995075

$$$$

 OpenBabel03242521433D

 32 33  0  0  1  0  0  0  0  0999 V2000
   38.7280   27.0200   41.9390 C   0  0  0  0  0  0  0  0  0  0  0  0
   38.7830   28.3090   41.4260 C   0  0  0  0  0  0  0  0  0  0  0  0
   38.0840   29.3150   42.0930 C   0  0  0  0  0  0  0  0  0  0  0  0
   37.3870   28.9850   43.2040 N   0  0  0  0  0  0  0  0  0  0  0  0
   37.3560   27.7120   43.6780 C   0  0  0  0  0  0  0  0  0  0  0  0
   38.0220   26.7310   43.0510 N   0  0  0  0  0  0  0  0  0  0  0  0
   39.3350   28.4560   40.5250 H   0  0  0  0  0  0  0  0  0  0  0  0
   36.8380   27.5220   44.6170 H   0  0  0  0  0  0  0  0  0  0  0  0
   36.9790   31.0160   40.6540 C   0  0  2  0  0  0  0  0  0  0  0  0
   38.1520   30.6670   41.5500 C   0  0  2  0  0  0  0  0  0  0  0  0
   39.2040   30.8820   40.6630 O   0  0  0  0  0  0  0  0  0  0  0  0
   38.9580   32.1220   40.1240 C   0  0  0  0  0  0  0  0  0  0  0  0
   37.4740   32.3890   40.1770 C   0  0  1  0  0  0  0  0  0  0  0  0
   36.9280   30.4020   39.7450 H   0  0  0  0  0  0  0  0  0  0  0  0
   38.1540   31.4350   42.3620 H   0  0  0  0  0  0  0  0  0  0  0  0
   39.5250   32.8940   40.6980 H   0  0  0  0  0  0  0  0  0  0  0  0
   39.3310   32.2000   39.0790 H   0  0  0  0  0  0  0  0  0  0  0  0
   37.2470   33.1130   40.9750 H   0  0  0  0  0  0  0  0  0  0  0  0
   35.7880   31.1010   41.3530 O   0  0  0  0  0  0  0  0  0  0  0  0
   36.0120   31.0990   42.3120 H   0  0  0  0  0  0  0  0  0  0  0  0
   36.9090   32.6780   38.9570 O   0  0  0  0  0  0  0  0  0  0  0  0
   37.4100   33.4300   38.5310 H   0  0  0  0  0  0  0  0  0  0  0  0
   39.4520   25.9010   41.2240 C   0  0  0  0  0  0  0  0  0  0  0  0
   39.8310   25.2170   42.0210 H   0  0  0  0  0  0  0  0  0  0  0  0
   40.3170   26.3630   40.7370 H   0  0  0  0  0  0  0  0  0  0  0  0
   38.5800   25.2490   40.2770 N   0  0  0  0  0  0  0  0  0  0  0  0
   37.7580   25.9030   40.0950 H   0  0  0  0  0  0  0  0  0  0  0  0
   37.8860   23.8700   41.0790 S   0  0  0  0  0  0  0  0  0  0  0  0
   38.2350   22.6250   40.2790 O   0  0  0  0  0  1  0  0  0  0  0  0
   36.3850   23.9990   41.1850 O   0  0  0  0  0  1  0  0  0  0  0  0
   38.4730   23.6840   42.6390 O   0  0  0  0  0  0  0  0  0  0  0  0
   38.8490   22.7680   42.7570 H   0  0  0  0  0  0  0  0  0  0  0  0
  1  6  1  0  0  0  0
  2  1  2  0  0  0  0
  2  3  1  0  0  0  0
  3  4  2  0  0  0  0
  4  5  1  0  0  0  0
  5  8  1  0  0  0  0
  6  5  2  0  0  0  0
  7  2  1  0  0  0  0
  9 14  1  6  0  0  0
  9 19  1  0  0  0  0
  9 10  1  0  0  0  0
 10  3  1  0  0  0  0
 10 15  1  1  0  0  0
 11 10  1  0  0  0  0
 12 13  1  0  0  0  0
 12 11  1  0  0  0  0
 12 16  1  0  0  0  0
 13  9  1  0  0  0  0
 13 18  1  1  0  0  0
 17 12  1  0  0  0  0
 19 20  1  0  0  0  0
 21 13  1  0  0  0  0
 22 21  1  0  0  0  0
 23  1  1  0  0  0  0
 23 24  1  0  0  0  0
 25 23  1  0  0  0  0
 26 28  1  0  0  0  0
 26 23  1  0  0  0  0
 27 26  1  0  0  0  0
 28 30  1  0  0  0  0
 28 31  1  0  0  0  0
 29 28  1  0  0  0  0
 31 32  1  0  0  0  0
M  END
>  <minimizedAffinity>
-5.06623507

$$$$

 OpenBabel03242521433D

 32 33  0  0  1  0  0  0  0  0999 V2000
   36.8150   30.5550   39.6050 C   0  0  0  0  0  0  0  0  0  0  0  0
   37.7460   31.5470   39.8810 C   0  0  0  0  0  0  0  0  0  0  0  0
   38.6040   31.9500   38.8580 C   0  0  0  0  0  0  0  0  0  0  0  0
   38.4880   31.3540   37.6490 N   0  0  0  0  0  0  0  0  0  0  0  0
   37.5650   30.3860   37.4140 C   0  0  0  0  0  0  0  0  0  0  0  0
   36.7290   29.9850   38.3850 N   0  0  0  0  0  0  0  0  0  0  0  0
   37.7760   31.9290   40.8770 H   0  0  0  0  0  0  0  0  0  0  0  0
   37.4700   29.9960   36.4020 H   0  0  0  0  0  0  0  0  0  0  0  0
   40.9010   32.8080   38.4450 C   0  0  2  0  0  0  0  0  0  0  0  0
   39.5750   32.9970   39.1560 C   0  0  2  0  0  0  0  0  0  0  0  0
   40.0140   33.0190   40.4780 O   0  0  0  0  0  0  0  0  0  0  0  0
   41.0540   33.9190   40.4850 C   0  0  0  0  0  0  0  0  0  0  0  0
   41.6670   33.9630   39.1080 C   0  0  1  0  0  0  0  0  0  0  0  0
   41.4360   31.9000   38.7530 H   0  0  0  0  0  0  0  0  0  0  0  0
   39.2020   34.0030   38.8440 H   0  0  0  0  0  0  0  0  0  0  0  0
   40.6710   34.9240   40.7860 H   0  0  0  0  0  0  0  0  0  0  0  0
   41.8210   33.6560   41.2460 H   0  0  0  0  0  0  0  0  0  0  0  0
   41.3740   34.8880   38.5910 H   0  0  0  0  0  0  0  0  0  0  0  0
   40.7920   32.9700   37.0740 O   0  0  0  0  0  0  0  0  0  0  0  0
   39.9050   33.3590   36.8960 H   0  0  0  0  0  0  0  0  0  0  0  0
   43.0150   33.6880   39.0820 O   0  0  0  0  0  0  0  0  0  0  0  0
   43.4870   34.2930   39.7220 H   0  0  0  0  0  0  0  0  0  0  0  0
   35.8880   30.0760   40.6990 C   0  0  0  0  0  0  0  0  0  0  0  0
   35.4500   29.1140   40.3370 H   0  0  0  0  0  0  0  0  0  0  0  0
   35.0810   30.8130   40.7560 H   0  0  0  0  0  0  0  0  0  0  0  0
   36.5960   29.9480   41.9510 N   0  0  0  0  0  0  0  0  0  0  0  0
   37.5580   30.3880   41.8210 H   0  0  0  0  0  0  0  0  0  0  0  0
   36.9070   28.2530   42.1960 S   0  0  0  0  0  0  0  0  0  0  0  0
   38.4020   28.0660   42.4030 O   0  0  0  0  0  1  0  0  0  0  0  0
   36.4540   27.4380   41.0080 O   0  0  0  0  0  1  0  0  0  0  0  0
   36.1040   27.6510   43.5390 O   0  0  0  0  0  0  0  0  0  0  0  0
   36.7510   27.2120   44.1580 H   0  0  0  0  0  0  0  0  0  0  0  0
  1  2  1  0  0  0  0
  1 23  1  0  0  0  0
  2  7  1  0  0  0  0
  3 10  1  0  0  0  0
  3  2  2  0  0  0  0
  4  3  1  0  0  0  0
  5  4  2  0  0  0  0
  5  6  1  0  0  0  0
  6  1  2  0  0  0  0
  8  5  1  0  0  0  0
  9 14  1  1  0  0  0
  9 13  1  0  0  0  0
  9 10  1  0  0  0  0
 10 15  1  6  0  0  0
 10 11  1  0  0  0  0
 11 12  1  0  0  0  0
 12 16  1  0  0  0  0
 12 17  1  0  0  0  0
 13 18  1  6  0  0  0
 13 12  1  0  0  0  0
 19  9  1  0  0  0  0
 20 19  1  0  0  0  0
 21 13  1  0  0  0  0
 21 22  1  0  0  0  0
 23 25  1  0  0  0  0
 23 26  1  0  0  0  0
 24 23  1  0  0  0  0
 26 28  1  0  0  0  0
 27 26  1  0  0  0  0
 28 29  1  0  0  0  0
 28 31  1  0  0  0  0
 30 28  1  0  0  0  0
 31 32  1  0  0  0  0
M  END
>  <minimizedAffinity>
-4.96352339

$$$$
