
 OpenBabel03252509353D

 42 43  0  0  1  0  0  0  0  0999 V2000
   44.6980   35.3550   44.9490 O   0  0  0  0  0  0  0  0  0  0  0  0
   45.5160   34.2580   44.2950 P   0  0  1  0  0  0  0  0  0  0  0  0
   44.5060   33.0770   43.6190 O   0  0  0  0  0  0  0  0  0  0  0  0
   43.6960   33.5570   43.2930 H   0  0  0  0  0  0  0  0  0  0  0  0
   46.4550   34.9540   43.1030 O   0  0  0  0  0  0  0  0  0  0  0  0
   46.9870   33.9550   42.2780 C   0  0  1  0  0  0  0  0  0  0  0  0
   46.8540   34.3700   40.8100 C   0  0  0  0  0  0  0  0  0  0  0  0
   47.7300   33.3410   40.1490 C   0  0  0  0  0  0  0  0  0  0  0  0
   48.7690   32.9480   41.1820 C   0  0  0  0  0  0  0  0  0  0  0  0
   48.4730   33.8180   42.3880 C   0  0  1  0  0  0  0  0  0  0  0  0
   46.4900   32.9920   42.3730 H   0  0  0  0  0  0  0  0  0  0  0  0
   47.1100   35.4070   40.6180 H   0  0  0  0  0  0  0  0  0  0  0  0
   45.8210   34.1940   40.4670 H   0  0  0  0  0  0  0  0  0  0  0  0
   47.1220   32.4430   39.8710 H   0  0  0  0  0  0  0  0  0  0  0  0
   48.1600   33.7430   39.2260 H   0  0  0  0  0  0  0  0  0  0  0  0
   48.6550   31.8720   41.4790 H   0  0  0  0  0  0  0  0  0  0  0  0
   49.7940   33.0940   40.8060 H   0  0  0  0  0  0  0  0  0  0  0  0
   48.7390   33.2470   43.3130 H   0  0  0  0  0  0  0  0  0  0  0  0
   49.1920   35.1390   42.3100 C   0  0  0  0  0  0  0  0  0  0  0  0
   49.5200   35.3100   41.2500 H   0  0  0  0  0  0  0  0  0  0  0  0
   48.5580   36.0150   42.5610 H   0  0  0  0  0  0  0  0  0  0  0  0
   50.2770   35.1980   43.1580 O   0  0  0  0  0  0  0  0  0  0  0  0
   51.0940   35.0210   42.6070 H   0  0  0  0  0  0  0  0  0  0  0  0
   46.4660   33.4770   45.4220 O   0  0  0  0  0  0  0  0  0  0  0  0
   46.1330   32.1600   45.4500 C   0  0  0  0  0  0  0  0  0  0  0  0
   45.3120   31.8190   44.8270 H   0  0  0  0  0  0  0  0  0  0  0  0
   47.0360   31.5830   45.0890 H   0  0  0  0  0  0  0  0  0  0  0  0
   45.7440   32.0720   49.1490 C   0  0  0  0  0  0  0  0  0  0  0  0
   45.9840   32.5790   47.8670 C   0  0  0  0  0  0  0  0  0  0  0  0
   45.8840   31.6650   46.8140 C   0  0  0  0  0  0  0  0  0  0  0  0
   45.5660   30.3610   47.0840 N   0  0  0  0  0  0  0  0  0  0  0  0
   45.3430   29.9110   48.3370 C   0  0  0  0  0  0  0  0  0  0  0  0
   45.4320   30.7610   49.3510 N   0  0  0  0  0  0  0  0  0  0  0  0
   45.8180   32.7730   49.9780 H   0  0  0  0  0  0  0  0  0  0  0  0
   46.2260   33.6130   47.7490 H   0  0  0  0  0  0  0  0  0  0  0  0
   45.0180   28.5410   48.5410 N   0  0  0  0  0  0  0  0  0  0  0  0
   44.4110   28.2540   49.3410 H   0  0  0  0  0  0  0  0  0  0  0  0
   45.6060   27.3080   47.4810 S   0  0  0  0  0  0  0  0  0  0  0  0
   47.1080   27.2830   47.5060 O   0  0  0  0  0  1  0  0  0  0  0  0
   45.0320   26.0010   47.9470 O   0  0  0  0  0  1  0  0  0  0  0  0
   45.0780   27.6720   45.9160 O   0  0  0  0  0  0  0  0  0  0  0  0
   45.1120   28.6570   45.7640 H   0  0  0  0  0  0  0  0  0  0  0  0
  2  1  2  1  0  0  0
  2 24  1  0  0  0  0
  3  2  1  0  0  0  0
  4  3  1  0  0  0  0
  5  2  1  0  0  0  0
  6 11  1  1  0  0  0
  6 10  1  0  0  0  0
  6  5  1  0  0  0  0
  7  6  1  0  0  0  0
  8  7  1  0  0  0  0
  8  9  1  0  0  0  0
  9 16  1  0  0  0  0
  9 10  1  0  0  0  0
 10 18  1  1  0  0  0
 12  7  1  0  0  0  0
 13  7  1  0  0  0  0
 14  8  1  0  0  0  0
 15  8  1  0  0  0  0
 17  9  1  0  0  0  0
 19 10  1  0  0  0  0
 19 21  1  0  0  0  0
 19 22  1  0  0  0  0
 20 19  1  0  0  0  0
 23 22  1  0  0  0  0
 24 25  1  0  0  0  0
 25 30  1  0  0  0  0
 26 25  1  0  0  0  0
 27 25  1  0  0  0  0
 28 33  1  0  0  0  0
 28 34  1  0  0  0  0
 29 28  2  0  0  0  0
 30 31  2  0  0  0  0
 30 29  1  0  0  0  0
 31 32  1  0  0  0  0
 32 36  1  0  0  0  0
 32 33  2  0  0  0  0
 35 29  1  0  0  0  0
 36 37  1  0  0  0  0
 38 39  1  0  0  0  0
 38 40  1  0  0  0  0
 38 36  1  0  0  0  0
 41 38  1  0  0  0  0
 42 41  1  0  0  0  0
M  END
>  <minimizedAffinity>
-5.87820959

>  <minimizedRMSD>
0.711693525

$$$$
