
 OpenBabel03252508193D

 32 33  0  0  0  0  0  0  0  0999 V2000
   46.3000   34.0470   41.0650 C   0  0  0  0  0  0  0  0  0  0  0  0
   47.1360   34.0600   39.9860 C   0  0  0  0  0  0  0  0  0  0  0  0
   48.3440   34.7090   39.8600 C   0  0  0  0  0  0  0  0  0  0  0  0
   48.7290   35.4270   40.9870 C   0  0  0  0  0  0  0  0  0  0  0  0
   47.9300   35.4540   42.1070 C   0  0  0  0  0  0  0  0  0  0  0  0
   46.7430   34.7830   42.1520 C   0  0  0  0  0  0  0  0  0  0  0  0
   46.8040   33.4830   39.1100 H   0  0  0  0  0  0  0  0  0  0  0  0
   48.9110   34.6430   38.9560 H   0  0  0  0  0  0  0  0  0  0  0  0
   49.6750   35.9560   40.9360 H   0  0  0  0  0  0  0  0  0  0  0  0
   48.3300   36.0440   42.9220 H   0  0  0  0  0  0  0  0  0  0  0  0
   45.0210   33.3410   41.1480 C   0  0  0  0  0  0  0  0  0  0  0  0
   45.0600   32.3110   41.5120 H   0  0  0  0  0  0  0  0  0  0  0  0
   44.4030   33.9180   41.9000 H   0  0  0  0  0  0  0  0  0  0  0  0
   44.2300   33.4810   39.8450 C   0  0  0  0  0  0  0  0  0  0  0  0
   44.2390   32.5810   39.2310 H   0  0  0  0  0  0  0  0  0  0  0  0
   44.7430   34.3100   39.2990 H   0  0  0  0  0  0  0  0  0  0  0  0
   41.0960   35.5800   40.0300 C   0  0  0  0  0  0  0  0  0  0  0  0
   42.4020   35.1600   39.6750 C   0  0  0  0  0  0  0  0  0  0  0  0
   42.8720   33.9500   40.1940 C   0  0  0  0  0  0  0  0  0  0  0  0
   42.0290   33.2530   41.0140 N   0  0  0  0  0  0  0  0  0  0  0  0
   40.8090   33.6830   41.3210 C   0  0  0  0  0  0  0  0  0  0  0  0
   40.3240   34.8340   40.8450 N   0  0  0  0  0  0  0  0  0  0  0  0
   40.8240   36.5320   39.5770 H   0  0  0  0  0  0  0  0  0  0  0  0
   43.0360   35.7360   39.0290 H   0  0  0  0  0  0  0  0  0  0  0  0
   40.1830   33.0870   41.9770 H   0  0  0  0  0  0  0  0  0  0  0  0
   45.9360   34.8220   43.3180 N   0  0  0  0  0  0  0  0  0  0  0  0
   46.0470   34.0820   44.0680 H   0  0  0  0  0  0  0  0  0  0  0  0
   44.7030   35.8380   43.9170 S   0  0  0  0  0  0  0  0  0  0  0  0
   44.5430   35.6910   45.4040 O   0  0  0  0  0  1  0  0  0  0  0  0
   43.3990   35.4930   43.2860 O   0  0  0  0  0  1  0  0  0  0  0  0
   45.0900   37.4730   43.6610 O   0  0  0  0  0  0  0  0  0  0  0  0
   44.4930   37.8870   42.9960 H   0  0  0  0  0  0  0  0  0  0  0  0
  1 11  1  0  0  0  0
  1  6  1  0  0  0  0
  2  1  2  0  0  0  0
  3  2  1  0  0  0  0
  3  4  2  0  0  0  0
  4  5  1  0  0  0  0
  5  6  2  0  0  0  0
  5 10  1  0  0  0  0
  6 26  1  0  0  0  0
  7  2  1  0  0  0  0
  8  3  1  0  0  0  0
  9  4  1  0  0  0  0
 11 12  1  0  0  0  0
 11 13  1  0  0  0  0
 14 19  1  0  0  0  0
 14 11  1  0  0  0  0
 15 14  1  0  0  0  0
 16 14  1  0  0  0  0
 17 22  1  0  0  0  0
 18 17  2  0  0  0  0
 18 19  1  0  0  0  0
 19 20  2  0  0  0  0
 20 21  1  0  0  0  0
 21 25  1  0  0  0  0
 22 21  2  0  0  0  0
 23 17  1  0  0  0  0
 24 18  1  0  0  0  0
 26 28  1  0  0  0  0
 26 27  1  0  0  0  0
 28 29  1  0  0  0  0
 30 28  1  0  0  0  0
 31 28  1  0  0  0  0
 32 31  1  0  0  0  0
M  END
>  <minimizedAffinity>
-5.23125172

>  <minimizedRMSD>
0.978774786

$$$$
