
 OpenBabel03252509353D

 42 43  0  0  1  0  0  0  0  0999 V2000
   44.5360   35.4640   44.1450 O   0  0  0  0  0  0  0  0  0  0  0  0
   45.4010   34.2420   44.3910 P   0  0  1  0  0  0  0  0  0  0  0  0
   44.7120   32.8650   43.6850 O   0  0  0  0  0  0  0  0  0  0  0  0
   44.2590   33.1760   42.8540 H   0  0  0  0  0  0  0  0  0  0  0  0
   46.9050   34.5320   43.7250 O   0  0  0  0  0  0  0  0  0  0  0  0
   47.0280   33.8350   42.5160 C   0  0  1  0  0  0  0  0  0  0  0  0
   46.4430   34.6710   41.3740 C   0  0  0  0  0  0  0  0  0  0  0  0
   46.9410   33.9000   40.1810 C   0  0  0  0  0  0  0  0  0  0  0  0
   48.2280   33.2290   40.6230 C   0  0  0  0  0  0  0  0  0  0  0  0
   48.4430   33.6910   42.0510 C   0  0  1  0  0  0  0  0  0  0  0  0
   46.5040   32.8810   42.5000 H   0  0  0  0  0  0  0  0  0  0  0  0
   46.7150   35.7210   41.4100 H   0  0  0  0  0  0  0  0  0  0  0  0
   45.3440   34.5920   41.3830 H   0  0  0  0  0  0  0  0  0  0  0  0
   46.1930   33.1200   39.8910 H   0  0  0  0  0  0  0  0  0  0  0  0
   47.0680   34.5680   39.3230 H   0  0  0  0  0  0  0  0  0  0  0  0
   48.1210   32.1120   40.6200 H   0  0  0  0  0  0  0  0  0  0  0  0
   49.0730   33.4950   39.9690 H   0  0  0  0  0  0  0  0  0  0  0  0
   48.9530   32.8720   42.6180 H   0  0  0  0  0  0  0  0  0  0  0  0
   49.2140   34.9840   42.1070 C   0  0  0  0  0  0  0  0  0  0  0  0
   49.8380   35.0730   41.1770 H   0  0  0  0  0  0  0  0  0  0  0  0
   48.5740   35.8920   42.1130 H   0  0  0  0  0  0  0  0  0  0  0  0
   50.0130   35.0720   43.2250 O   0  0  0  0  0  0  0  0  0  0  0  0
   50.9450   34.8360   42.9430 H   0  0  0  0  0  0  0  0  0  0  0  0
   45.5250   33.9230   46.0230 O   0  0  0  0  0  0  0  0  0  0  0  0
   46.5050   33.0050   46.2250 C   0  0  0  0  0  0  0  0  0  0  0  0
   46.9870   32.5620   45.3590 H   0  0  0  0  0  0  0  0  0  0  0  0
   47.3360   33.5270   46.7890 H   0  0  0  0  0  0  0  0  0  0  0  0
   44.8380   31.1360   48.9760 C   0  0  0  0  0  0  0  0  0  0  0  0
   45.2160   32.2070   48.1590 C   0  0  0  0  0  0  0  0  0  0  0  0
   46.0810   31.9030   47.1050 C   0  0  0  0  0  0  0  0  0  0  0  0
   46.5020   30.6110   46.9310 N   0  0  0  0  0  0  0  0  0  0  0  0
   46.1130   29.6050   47.7420 C   0  0  0  0  0  0  0  0  0  0  0  0
   45.2920   29.8710   48.7500 N   0  0  0  0  0  0  0  0  0  0  0  0
   44.1640   31.3590   49.8010 H   0  0  0  0  0  0  0  0  0  0  0  0
   44.8390   33.1850   48.3690 H   0  0  0  0  0  0  0  0  0  0  0  0
   46.5910   28.2860   47.5000 N   0  0  0  0  0  0  0  0  0  0  0  0
   47.5280   28.1360   47.0640 H   0  0  0  0  0  0  0  0  0  0  0  0
   45.6510   26.8970   47.9130 S   0  0  0  0  0  0  0  0  0  0  0  0
   44.4440   27.3110   48.7080 O   0  0  0  0  0  1  0  0  0  0  0  0
   45.2530   26.2230   46.6300 O   0  0  0  0  0  1  0  0  0  0  0  0
   46.6170   25.8760   48.8520 O   0  0  0  0  0  0  0  0  0  0  0  0
   47.1880   26.4140   49.4670 H   0  0  0  0  0  0  0  0  0  0  0  0
  2  1  2  6  0  0  0
  2 24  1  0  0  0  0
  3  2  1  0  0  0  0
  4  3  1  0  0  0  0
  5  2  1  0  0  0  0
  6 11  1  1  0  0  0
  6  5  1  0  0  0  0
  7 13  1  0  0  0  0
  7 12  1  0  0  0  0
  7  6  1  0  0  0  0
  8  9  1  0  0  0  0
  8  7  1  0  0  0  0
  9 10  1  0  0  0  0
 10 19  1  0  0  0  0
 10  6  1  0  0  0  0
 10 18  1  1  0  0  0
 14  8  1  0  0  0  0
 15  8  1  0  0  0  0
 16  9  1  0  0  0  0
 17  9  1  0  0  0  0
 19 21  1  0  0  0  0
 19 22  1  0  0  0  0
 20 19  1  0  0  0  0
 23 22  1  0  0  0  0
 24 25  1  0  0  0  0
 25 27  1  0  0  0  0
 25 30  1  0  0  0  0
 26 25  1  0  0  0  0
 28 34  1  0  0  0  0
 29 35  1  0  0  0  0
 29 28  2  0  0  0  0
 30 29  1  0  0  0  0
 31 30  2  0  0  0  0
 31 32  1  0  0  0  0
 32 33  2  0  0  0  0
 33 28  1  0  0  0  0
 36 32  1  0  0  0  0
 36 38  1  0  0  0  0
 37 36  1  0  0  0  0
 38 39  1  0  0  0  0
 38 41  1  0  0  0  0
 40 38  1  0  0  0  0
 41 42  1  0  0  0  0
M  END
>  <minimizedAffinity>
-5.82573032

>  <minimizedRMSD>
1.5238297

$$$$
