
     RDKit          3D

 29 30  0  0  0  0  0  0  0  0999 V2000
   46.6059   34.4208   41.4531 C   0  0  0  0  0  0  0  0  0  0  0  0
   47.8899   34.9117   41.2471 C   0  0  0  0  0  0  0  0  0  0  0  0
   48.5128   34.6456   40.0441 C   0  0  0  0  0  0  0  0  0  0  0  0
   47.8704   33.9156   39.0876 C   0  0  0  0  0  0  0  0  0  0  0  0
   46.6113   33.4192   39.2568 C   0  0  0  0  0  0  0  0  0  0  0  0
   46.0193   33.7084   40.4797 C   0  0  0  0  0  0  0  0  0  0  0  0
   44.6835   36.0539   44.2620 C   0  0  0  0  0  0  0  0  0  0  0  0
   45.2277   35.8541   42.9774 C   0  0  0  0  0  0  0  0  0  0  0  0
   45.9940   34.7291   42.7390 C   0  0  0  0  0  0  0  0  0  0  0  0
   46.1812   33.8686   43.7707 N   0  0  0  0  0  0  0  0  0  0  0  0
   45.6540   34.0698   45.0010 C   0  0  0  0  0  0  0  0  0  0  0  0
   44.9078   35.1604   45.2422 N   0  0  0  0  0  0  0  0  0  0  0  0
   48.5714   35.7079   42.3073 C   0  0  0  0  0  0  0  0  0  0  0  0
   49.5096   34.9984   39.8217 H   0  0  0  0  0  0  0  0  0  0  0  0
   48.3577   33.7037   38.1385 H   0  0  0  0  0  0  0  0  0  0  0  0
   46.0306   32.8335   38.5546 H   0  0  0  0  0  0  0  0  0  0  0  0
   45.0122   33.3599   40.7207 H   0  0  0  0  0  0  0  0  0  0  0  0
   44.1137   36.9717   44.2882 H   0  0  0  0  0  0  0  0  0  0  0  0
   45.1117   36.4996   42.1289 H   0  0  0  0  0  0  0  0  0  0  0  0
   45.8103   33.3775   45.8132 H   0  0  0  0  0  0  0  0  0  0  0  0
   48.6740   35.0156   43.1813 H   0  0  0  0  0  0  0  0  0  0  0  0
   47.9295   36.5364   42.6060 H   0  0  0  0  0  0  0  0  0  0  0  0
   49.8929   36.1412   41.9597 N   0  0  0  0  0  0  0  0  0  0  0  0
   50.6529   35.6528   42.4234 H   0  0  0  0  0  0  0  0  0  0  0  0
   50.0471   37.8557   41.9721 S   0  0  0  0  0  0  0  0  0  0  0  0
   48.8697   38.4999   41.2980 O   0  0  0  0  0  0  0  0  0  0  0  0
   51.3154   38.3043   41.3507 O   0  0  0  0  0  0  0  0  0  0  0  0
   50.0380   38.3139   43.6009 O   0  0  0  0  0  0  0  0  0  0  0  0
   49.2628   37.9212   44.0803 H   0  0  0  0  0  0  0  0  0  0  0  0
  1  9  1  0
  2  1  2  0
  2 13  1  0
  3  2  1  0
  4  5  1  0
  4  3  2  0
  5  6  2  0
  6  1  1  0
  7 12  2  0
  8  7  1  0
  9  8  2  0
  9 10  1  0
 10 11  2  0
 11 12  1  0
  3 14  1  0
  4 15  1  0
  5 16  1  0
  6 17  1  0
  7 18  1  0
  8 19  1  0
 11 20  1  0
 13 21  1  0
 13 22  1  0
 23 24  1  0
 23 25  1  0
 25 26  2  0
 25 27  2  0
 25 28  1  0
 28 29  1  0
 13 23  1  0
M  ISO  8  14  14  15  14  16  14  17  14  18  14  19  14  20  14  21   8
M  ISO  3  22   8  24   5  29   3
M  END
>  <DihAtoms>  (1) 
1,12,22,23

>  <DihDeg>  (1) 
-46.39690307575378

$$$$
