
 OpenBabel03252509353D

 42 43  0  0  1  0  0  0  0  0999 V2000
   44.5260   35.4650   44.0610 O   0  0  0  0  0  0  0  0  0  0  0  0
   45.3910   34.2570   44.3680 P   0  0  1  0  0  0  0  0  0  0  0  0
   44.7190   32.8520   43.6990 O   0  0  0  0  0  0  0  0  0  0  0  0
   44.2810   33.1310   42.8490 H   0  0  0  0  0  0  0  0  0  0  0  0
   46.9050   34.5280   43.7200 O   0  0  0  0  0  0  0  0  0  0  0  0
   47.0330   33.8320   42.5110 C   0  0  1  0  0  0  0  0  0  0  0  0
   46.4490   34.6660   41.3670 C   0  0  0  0  0  0  0  0  0  0  0  0
   46.9520   33.8960   40.1760 C   0  0  0  0  0  0  0  0  0  0  0  0
   48.2410   33.2290   40.6220 C   0  0  0  0  0  0  0  0  0  0  0  0
   48.4510   33.6920   42.0500 C   0  0  1  0  0  0  0  0  0  0  0  0
   46.5130   32.8760   42.4940 H   0  0  0  0  0  0  0  0  0  0  0  0
   46.7180   35.7160   41.4040 H   0  0  0  0  0  0  0  0  0  0  0  0
   45.3500   34.5830   41.3730 H   0  0  0  0  0  0  0  0  0  0  0  0
   46.2080   33.1140   39.8840 H   0  0  0  0  0  0  0  0  0  0  0  0
   47.0790   34.5640   39.3180 H   0  0  0  0  0  0  0  0  0  0  0  0
   48.1370   32.1120   40.6180 H   0  0  0  0  0  0  0  0  0  0  0  0
   49.0860   33.4970   39.9690 H   0  0  0  0  0  0  0  0  0  0  0  0
   48.9610   32.8740   42.6180 H   0  0  0  0  0  0  0  0  0  0  0  0
   49.2170   34.9870   42.1070 C   0  0  0  0  0  0  0  0  0  0  0  0
   49.8420   35.0780   41.1780 H   0  0  0  0  0  0  0  0  0  0  0  0
   48.5750   35.8930   42.1130 H   0  0  0  0  0  0  0  0  0  0  0  0
   50.0150   35.0770   43.2260 O   0  0  0  0  0  0  0  0  0  0  0  0
   50.9470   34.8440   42.9460 H   0  0  0  0  0  0  0  0  0  0  0  0
   45.4850   33.9980   46.0130 O   0  0  0  0  0  0  0  0  0  0  0  0
   46.3960   33.0210   46.2590 C   0  0  0  0  0  0  0  0  0  0  0  0
   46.8150   32.4790   45.4170 H   0  0  0  0  0  0  0  0  0  0  0  0
   47.2820   33.5140   46.7610 H   0  0  0  0  0  0  0  0  0  0  0  0
   45.3330   31.4460   49.4570 C   0  0  0  0  0  0  0  0  0  0  0  0
   45.7900   32.4210   48.5640 C   0  0  0  0  0  0  0  0  0  0  0  0
   45.9140   32.0240   47.2290 C   0  0  0  0  0  0  0  0  0  0  0  0
   45.5920   30.7410   46.8760 N   0  0  0  0  0  0  0  0  0  0  0  0
   45.1550   29.8290   47.7700 C   0  0  0  0  0  0  0  0  0  0  0  0
   45.0290   30.1840   49.0420 N   0  0  0  0  0  0  0  0  0  0  0  0
   45.2320   31.7420   50.4990 H   0  0  0  0  0  0  0  0  0  0  0  0
   46.0180   33.3990   48.9270 H   0  0  0  0  0  0  0  0  0  0  0  0
   44.8390   28.5130   47.3300 N   0  0  0  0  0  0  0  0  0  0  0  0
   43.8430   28.2130   47.2340 H   0  0  0  0  0  0  0  0  0  0  0  0
   46.0780   27.3730   46.9390 S   0  0  0  0  0  0  0  0  0  0  0  0
   47.3930   27.8290   47.5030 O   0  0  0  0  0  1  0  0  0  0  0  0
   45.6680   26.0480   47.5140 O   0  0  0  0  0  1  0  0  0  0  0  0
   46.1900   27.2860   45.2530 O   0  0  0  0  0  0  0  0  0  0  0  0
   46.0650   28.1910   44.8550 H   0  0  0  0  0  0  0  0  0  0  0  0
  2  1  2  6  0  0  0
  2 24  1  0  0  0  0
  3  2  1  0  0  0  0
  4  3  1  0  0  0  0
  5  2  1  0  0  0  0
  6 11  1  1  0  0  0
  6  5  1  0  0  0  0
  7 13  1  0  0  0  0
  7 12  1  0  0  0  0
  7  6  1  0  0  0  0
  8  9  1  0  0  0  0
  8  7  1  0  0  0  0
  9 10  1  0  0  0  0
 10 19  1  0  0  0  0
 10  6  1  0  0  0  0
 10 18  1  1  0  0  0
 14  8  1  0  0  0  0
 15  8  1  0  0  0  0
 16  9  1  0  0  0  0
 17  9  1  0  0  0  0
 19 21  1  0  0  0  0
 19 22  1  0  0  0  0
 20 19  1  0  0  0  0
 23 22  1  0  0  0  0
 24 25  1  0  0  0  0
 25 27  1  0  0  0  0
 25 30  1  0  0  0  0
 26 25  1  0  0  0  0
 28 34  1  0  0  0  0
 29 35  1  0  0  0  0
 29 28  2  0  0  0  0
 30 29  1  0  0  0  0
 31 30  2  0  0  0  0
 31 32  1  0  0  0  0
 32 33  2  0  0  0  0
 33 28  1  0  0  0  0
 36 32  1  0  0  0  0
 37 36  1  0  0  0  0
 38 36  1  0  0  0  0
 38 39  1  0  0  0  0
 38 40  1  0  0  0  0
 41 38  1  0  0  0  0
 42 41  1  0  0  0  0
M  END
>  <minimizedAffinity>
-5.78261089

>  <minimizedRMSD>
0.944582283

$$$$
