
 OpenBabel03252509353D

 42 43  0  0  1  0  0  0  0  0999 V2000
   44.5280   35.4640   44.0410 O   0  0  0  0  0  0  0  0  0  0  0  0
   45.3890   34.2590   44.3720 P   0  0  1  0  0  0  0  0  0  0  0  0
   44.7230   32.8460   43.7170 O   0  0  0  0  0  0  0  0  0  0  0  0
   44.2920   33.1130   42.8590 H   0  0  0  0  0  0  0  0  0  0  0  0
   46.9100   34.5210   43.7350 O   0  0  0  0  0  0  0  0  0  0  0  0
   47.0390   33.8310   42.5220 C   0  0  1  0  0  0  0  0  0  0  0  0
   46.4510   34.6690   41.3830 C   0  0  0  0  0  0  0  0  0  0  0  0
   46.9550   33.9060   40.1880 C   0  0  0  0  0  0  0  0  0  0  0  0
   48.2460   33.2400   40.6290 C   0  0  0  0  0  0  0  0  0  0  0  0
   48.4560   33.6970   42.0590 C   0  0  1  0  0  0  0  0  0  0  0  0
   46.5210   32.8740   42.5010 H   0  0  0  0  0  0  0  0  0  0  0  0
   46.7170   35.7190   41.4250 H   0  0  0  0  0  0  0  0  0  0  0  0
   45.3520   34.5830   41.3900 H   0  0  0  0  0  0  0  0  0  0  0  0
   46.2130   33.1230   39.8930 H   0  0  0  0  0  0  0  0  0  0  0  0
   47.0790   34.5780   39.3330 H   0  0  0  0  0  0  0  0  0  0  0  0
   48.1450   32.1230   40.6200 H   0  0  0  0  0  0  0  0  0  0  0  0
   49.0900   33.5140   39.9770 H   0  0  0  0  0  0  0  0  0  0  0  0
   48.9700   32.8780   42.6230 H   0  0  0  0  0  0  0  0  0  0  0  0
   49.2190   34.9940   42.1220 C   0  0  0  0  0  0  0  0  0  0  0  0
   49.8340   35.0970   41.1880 H   0  0  0  0  0  0  0  0  0  0  0  0
   48.5730   35.8980   42.1440 H   0  0  0  0  0  0  0  0  0  0  0  0
   50.0270   35.0760   43.2340 O   0  0  0  0  0  0  0  0  0  0  0  0
   50.9570   34.8490   42.9420 H   0  0  0  0  0  0  0  0  0  0  0  0
   45.4680   34.0230   46.0210 O   0  0  0  0  0  0  0  0  0  0  0  0
   46.4060   33.0780   46.2920 C   0  0  0  0  0  0  0  0  0  0  0  0
   46.8930   32.5780   45.4610 H   0  0  0  0  0  0  0  0  0  0  0  0
   47.2410   33.5940   46.8550 H   0  0  0  0  0  0  0  0  0  0  0  0
   45.3720   31.3280   49.4070 C   0  0  0  0  0  0  0  0  0  0  0  0
   45.8380   32.3460   48.5680 C   0  0  0  0  0  0  0  0  0  0  0  0
   45.9160   32.0350   47.2070 C   0  0  0  0  0  0  0  0  0  0  0  0
   45.5440   30.7880   46.7800 N   0  0  0  0  0  0  0  0  0  0  0  0
   45.0990   29.8330   47.6230 C   0  0  0  0  0  0  0  0  0  0  0  0
   45.0170   30.1060   48.9190 N   0  0  0  0  0  0  0  0  0  0  0  0
   45.3050   31.5570   50.4690 H   0  0  0  0  0  0  0  0  0  0  0  0
   46.1060   33.2900   48.9880 H   0  0  0  0  0  0  0  0  0  0  0  0
   44.7300   28.5590   47.1070 N   0  0  0  0  0  0  0  0  0  0  0  0
   43.8310   28.4390   46.5880 H   0  0  0  0  0  0  0  0  0  0  0  0
   45.7440   27.1750   47.3140 S   0  0  0  0  0  0  0  0  0  0  0  0
   47.1670   27.6070   47.5270 O   0  0  0  0  0  1  0  0  0  0  0  0
   45.2240   26.4090   48.4960 O   0  0  0  0  0  1  0  0  0  0  0  0
   45.6450   26.2440   45.9050 O   0  0  0  0  0  0  0  0  0  0  0  0
   45.6020   26.8360   45.1050 H   0  0  0  0  0  0  0  0  0  0  0  0
  2  1  2  6  0  0  0
  2 24  1  0  0  0  0
  3  2  1  0  0  0  0
  4  3  1  0  0  0  0
  5  2  1  0  0  0  0
  6 11  1  1  0  0  0
  6  5  1  0  0  0  0
  7 13  1  0  0  0  0
  7 12  1  0  0  0  0
  7  6  1  0  0  0  0
  8  9  1  0  0  0  0
  8  7  1  0  0  0  0
  9 10  1  0  0  0  0
 10 19  1  0  0  0  0
 10  6  1  0  0  0  0
 10 18  1  1  0  0  0
 14  8  1  0  0  0  0
 15  8  1  0  0  0  0
 16  9  1  0  0  0  0
 17  9  1  0  0  0  0
 19 21  1  0  0  0  0
 19 22  1  0  0  0  0
 20 19  1  0  0  0  0
 23 22  1  0  0  0  0
 24 25  1  0  0  0  0
 25 27  1  0  0  0  0
 25 30  1  0  0  0  0
 26 25  1  0  0  0  0
 28 34  1  0  0  0  0
 29 35  1  0  0  0  0
 29 28  2  0  0  0  0
 30 29  1  0  0  0  0
 31 30  2  0  0  0  0
 31 32  1  0  0  0  0
 32 33  2  0  0  0  0
 33 28  1  0  0  0  0
 36 38  1  0  0  0  0
 36 32  1  0  0  0  0
 37 36  1  0  0  0  0
 38 39  1  0  0  0  0
 38 40  1  0  0  0  0
 41 38  1  0  0  0  0
 42 41  1  0  0  0  0
M  END
>  <minimizedAffinity>
-5.85444784

>  <minimizedRMSD>
1.02637851

$$$$
