
     RDKit          3D

 29 30  0  0  0  0  0  0  0  0999 V2000
   46.6917   34.2359   40.6744 C   0  0  0  0  0  0  0  0  0  0  0  0
   48.0434   34.1805   41.2902 C   0  0  0  0  0  0  0  0  0  0  0  0
   48.7424   32.9760   41.1831 C   0  0  0  0  0  0  0  0  0  0  0  0
   50.0043   32.8750   41.7409 C   0  0  0  0  0  0  0  0  0  0  0  0
   50.5204   33.9723   42.3817 N   0  0  0  0  0  0  0  0  0  0  0  0
   49.8152   35.1186   42.4648 C   0  0  0  0  0  0  0  0  0  0  0  0
   48.6109   35.1975   41.9261 N   0  0  0  0  0  0  0  0  0  0  0  0
   47.9996   31.5741   40.3242 S   0  0  0  0  0  0  0  0  0  0  0  0
   45.6070   34.5414   41.6678 C   0  0  0  0  0  0  0  0  0  0  0  0
   44.2498   34.6450   41.0660 C   0  0  0  0  0  0  0  0  0  0  0  0
   43.2284   35.4032   41.7387 C   0  0  0  0  0  0  0  0  0  0  0  0
   41.7904   35.2092   40.5888 S   0  0  0  0  0  0  0  0  0  0  0  0
   42.8357   34.1517   39.4323 C   0  0  0  0  0  0  0  0  0  0  0  0
   43.8428   34.1077   39.9389 N   0  0  0  0  0  0  0  0  0  0  0  0
   46.4468   33.3219   40.1439 H   0  0  0  0  0  0  0  0  0  0  0  0
   46.6850   35.0434   39.8846 H   0  0  0  0  0  0  0  0  0  0  0  0
   50.5669   31.9607   41.6747 H   0  0  0  0  0  0  0  0  0  0  0  0
   50.2680   35.9562   42.9816 H   0  0  0  0  0  0  0  0  0  0  0  0
   47.4428   30.6667   41.2323 H   0  0  0  0  0  0  0  0  0  0  0  0
   45.8548   35.5096   42.1733 H   0  0  0  0  0  0  0  0  0  0  0  0
   45.6362   33.7565   42.4568 H   0  0  0  0  0  0  0  0  0  0  0  0
   43.3665   35.9354   42.7029 H   0  0  0  0  0  0  0  0  0  0  0  0
   42.1659   33.6685   38.2435 N   0  0  0  0  0  0  0  0  0  0  0  0
   42.8048   33.5426   37.4393 H   0  0  0  0  0  0  0  0  0  0  0  0
   40.4995   33.3242   38.1190 S   0  0  0  0  0  0  0  0  0  0  0  0
   40.2709   31.9257   37.5903 O   0  0  0  0  0  0  0  0  0  0  0  0
   39.7818   33.4371   39.4211 O   0  0  0  0  0  0  0  0  0  0  0  0
   39.8425   34.3517   36.9414 O   0  0  0  0  0  0  0  0  0  0  0  0
   39.2691   35.0354   37.3807 H   0  0  0  0  0  0  0  0  0  0  0  0
  1  2  1  0
  1  9  1  0
  2  7  1  0
  3  2  2  0
  3  4  1  0
  4  5  2  0
  5  6  1  0
  7  6  2  0
  8  3  1  0
 10  9  1  0
 10 11  2  0
 12 11  1  0
 13 14  2  0
 13 12  1  0
 14 10  1  0
  1 15  1  0
  1 16  1  0
  4 17  1  0
  6 18  1  0
  8 19  1  0
  9 20  1  0
  9 21  1  0
 11 22  1  0
 23 24  1  0
 23 25  1  0
 25 26  2  0
 25 27  2  0
 25 28  1  0
 28 29  1  0
 13 23  1  0
M  ISO  8  15   8  16   8  17  14  18  14  19  11  20   8  21   8  22  14
M  ISO  2  24   5  29   3
M  END
>  <DihAtoms>  (1) 
13,12,22,23

>  <DihDeg>  (1) 
-0.0014083879938939293

$$$$
