
 OpenBabel03252505323D

 28 29  0  0  0  0  0  0  0  0999 V2000
   46.6380   34.7930   42.1020 C   0  0  0  0  0  0  0  0  0  0  0  0
   47.8830   35.3320   41.9510 C   0  0  0  0  0  0  0  0  0  0  0  0
   48.6920   35.1930   40.8380 C   0  0  0  0  0  0  0  0  0  0  0  0
   48.2040   34.4380   39.7730 C   0  0  0  0  0  0  0  0  0  0  0  0
   46.9540   33.8880   39.9070 C   0  0  0  0  0  0  0  0  0  0  0  0
   46.1970   34.0600   41.0340 C   0  0  0  0  0  0  0  0  0  0  0  0
   48.3130   35.9350   42.7630 H   0  0  0  0  0  0  0  0  0  0  0  0
   49.6700   35.6580   40.8030 H   0  0  0  0  0  0  0  0  0  0  0  0
   48.8660   34.3510   38.9160 H   0  0  0  0  0  0  0  0  0  0  0  0
   46.6530   33.3200   39.0370 H   0  0  0  0  0  0  0  0  0  0  0  0
   44.4170   36.1960   44.7710 C   0  0  0  0  0  0  0  0  0  0  0  0
   45.0840   36.1020   43.5200 C   0  0  0  0  0  0  0  0  0  0  0  0
   45.9080   35.0160   43.3130 C   0  0  0  0  0  0  0  0  0  0  0  0
   46.0540   34.0830   44.2990 N   0  0  0  0  0  0  0  0  0  0  0  0
   45.3930   34.2160   45.4860 C   0  0  0  0  0  0  0  0  0  0  0  0
   44.5740   35.2780   45.7120 N   0  0  0  0  0  0  0  0  0  0  0  0
   45.5370   33.2450   46.5170 N   0  0  0  0  0  0  0  0  0  0  0  0
   43.7770   37.0400   44.9340 H   0  0  0  0  0  0  0  0  0  0  0  0
   44.9650   36.8450   42.7440 H   0  0  0  0  0  0  0  0  0  0  0  0
   46.4170   32.6820   46.5490 H   0  0  0  0  0  0  0  0  0  0  0  0
   44.7990   33.0930   47.2180 H   0  0  0  0  0  0  0  0  0  0  0  0
   44.9160   33.4740   41.1250 N   0  0  0  0  0  0  0  0  0  0  0  0
   44.7630   32.5180   41.5260 H   0  0  0  0  0  0  0  0  0  0  0  0
   43.3100   33.9260   40.7130 S   0  0  0  0  0  0  0  0  0  0  0  0
   42.8290   33.1920   39.4950 O   0  0  0  0  0  0  0  0  0  0  0  0
   43.2440   35.4130   40.5020 O   0  0  0  0  0  0  0  0  0  0  0  0
   42.3110   33.6130   42.0400 O   0  0  0  0  0  0  0  0  0  0  0  0
   42.7670   33.7650   42.8850 H   0  0  0  0  0  0  0  0  0  0  0  0
  1 13  1  0  0  0  0
  2  1  1  0  0  0  0
  2  7  1  0  0  0  0
  3  2  2  0  0  0  0
  4  5  2  0  0  0  0
  4  3  1  0  0  0  0
  5  6  1  0  0  0  0
  6 22  1  0  0  0  0
  6  1  2  0  0  0  0
  8  3  1  0  0  0  0
  9  4  1  0  0  0  0
 10  5  1  0  0  0  0
 11 18  1  0  0  0  0
 11 16  1  0  0  0  0
 12 11  2  0  0  0  0
 13 12  1  0  0  0  0
 13 14  2  0  0  0  0
 14 15  1  0  0  0  0
 15 16  2  0  0  0  0
 15 17  1  0  0  0  0
 17 20  1  0  0  0  0
 17 21  1  0  0  0  0
 19 12  1  0  0  0  0
 22 23  1  0  0  0  0
 24 22  1  0  0  0  0
 24 27  1  0  0  0  0
 25 24  1  0  0  0  0
 26 24  1  0  0  0  0
 27 28  1  0  0  0  0
M  END
>  <minimizedAffinity>
-5.99361181

>  <minimizedRMSD>
0.926031232

$$$$
