REMARK  Name = 
REMARK  6 active torsions:
REMARK  status: ('A' for Active; 'I' for Inactive)
REMARK    1  A    between atoms: C_1  and  C_4
REMARK    2  A    between atoms: C_1  and  C_8
REMARK    3  A    between atoms: C_8  and  C_9
REMARK    4  A    between atoms: C_14  and  N_26
REMARK    5  A    between atoms: N_26  and  S_28
REMARK    6  A    between atoms: S_28  and  O_31
REMARK                            x       y       z     vdW  Elec       q    Type
REMARK                         _______ _______ _______ _____ _____    ______ ____
ROOT
ATOM      1  C   UNL     1      46.040  34.386  41.453  0.00  0.00    +0.000 A 
ATOM      2  C   UNL     1      46.644  34.058  40.274  0.00  0.00    +0.000 A 
ATOM      3  C   UNL     1      47.924  34.362  39.867  0.00  0.00    +0.000 A 
ATOM      4  C   UNL     1      48.662  35.092  40.793  0.00  0.00    +0.000 A 
ATOM      5  C   UNL     1      48.109  35.454  42.000  0.00  0.00    +0.000 A 
ATOM      6  C   UNL     1      46.830  35.113  42.329  0.00  0.00    +0.000 A 
ATOM      7  H   UNL     1      46.035  33.481  39.562  0.00  0.00    +0.000 HD
ATOM      8  H   UNL     1      48.286  34.047  38.911  0.00  0.00    +0.000 HD
ATOM      9  H   UNL     1      49.677  35.356  40.517  0.00  0.00    +0.000 HD
ATOM     10  H   UNL     1      48.775  36.019  42.640  0.00  0.00    +0.000 HD
ENDROOT
BRANCH   1  11
ATOM     11  C   UNL     1      44.671  34.039  41.839  0.00  0.00    +0.000 C 
ATOM     12  H   UNL     1      44.566  33.362  42.691  0.00  0.00    +0.000 HD
ATOM     13  H   UNL     1      44.186  35.013  42.147  0.00  0.00    +0.000 HD
BRANCH  11  14
ATOM     14  C   UNL     1      43.854  33.594  40.624  0.00  0.00    +0.000 C 
ATOM     15  H   UNL     1      44.182  32.646  40.200  0.00  0.00    +0.000 HD
ATOM     16  H   UNL     1      44.006  34.409  39.875  0.00  0.00    +0.000 HD
BRANCH  14  19
ATOM     17  C   UNL     1      40.378  34.803  41.474  0.00  0.00    +0.000 A 
ATOM     18  C   UNL     1      41.744  34.825  41.097  0.00  0.00    +0.000 A 
ATOM     19  C   UNL     1      42.428  33.609  41.014  0.00  0.00    +0.000 A 
ATOM     20  N   UNL     1      41.722  32.475  41.306  0.00  0.00    +0.000 NA
ATOM     21  C   UNL     1      40.439  32.498  41.656  0.00  0.00    +0.000 A 
ATOM     22  N   UNL     1      39.751  33.641  41.746  0.00  0.00    +0.000 NA
ATOM     23  H   UNL     1      39.937  35.798  41.510  0.00  0.00    +0.000 HD
ATOM     24  H   UNL     1      42.265  35.737  40.876  0.00  0.00    +0.000 HD
ATOM     25  H   UNL     1      39.929  31.566  41.876  0.00  0.00    +0.000 HD
ENDBRANCH  14  19
ENDBRANCH  11  14
ENDBRANCH   1  11
BRANCH   6  26
ATOM     26  N   UNL     1      46.280  35.494  43.580  0.00  0.00    +0.000 N 
ATOM     27  H   UNL     1      46.857  35.409  44.464  0.00  0.00    +0.000 HD
BRANCH  26  28
ATOM     28  S   UNL     1      44.788  36.122  44.118  0.00  0.00    +0.000 S 
ATOM     29  O   UNL     1      44.180  35.258  45.186  0.00  0.00    +0.000 OA
ATOM     30  O   UNL     1      43.820  36.191  42.988  0.00  0.00    +0.000 OA
BRANCH  28  31
ATOM     31  O   UNL     1      44.998  37.650  44.833  0.00  0.00    +0.000 OA
ATOM     32  H   UNL     1      44.594  38.364  44.288  0.00  0.00    +0.000 HD
ENDBRANCH  28  31
ENDBRANCH  26  28
ENDBRANCH   6  26
TORSDOF 6
