
 OpenBabel03252507443D

 29 30  0  0  0  0  0  0  0  0999 V2000
   36.5980   31.2430   40.0790 C   0  0  0  0  0  0  0  0  0  0  0  0
   36.4180   31.3950   41.1740 H   0  0  0  0  0  0  0  0  0  0  0  0
   35.7270   31.6900   39.5500 H   0  0  0  0  0  0  0  0  0  0  0  0
   37.8630   31.9280   39.6990 C   0  0  0  0  0  0  0  0  0  0  0  0
   38.4540   32.8830   40.5990 C   0  0  0  0  0  0  0  0  0  0  0  0
   39.9630   33.4070   39.6620 S   0  0  0  0  0  0  0  0  0  0  0  0
   39.5090   32.2460   38.2490 C   0  0  0  0  0  0  0  0  0  0  0  0
   38.5490   31.7630   38.5910 N   0  0  0  0  0  0  0  0  0  0  0  0
   38.0340   33.1660   41.5860 H   0  0  0  0  0  0  0  0  0  0  0  0
   40.4220   32.2350   37.1260 N   0  0  0  0  0  0  0  0  0  0  0  0
   39.9580   32.0210   36.2260 H   0  0  0  0  0  0  0  0  0  0  0  0
   42.0990   32.5370   37.2130 S   0  0  0  0  0  0  0  0  0  0  0  0
   42.5760   32.5480   38.6480 O   0  0  0  0  0  1  0  0  0  0  0  0
   42.9130   31.5300   36.4740 O   0  0  0  0  0  1  0  0  0  0  0  0
   42.3730   34.1120   36.6480 O   0  0  0  0  0  0  0  0  0  0  0  0
   42.8230   34.0720   35.7610 H   0  0  0  0  0  0  0  0  0  0  0  0
   36.5980   29.7660   39.8010 C   0  0  0  0  0  0  0  0  0  0  0  0
   35.6490   29.4840   39.3570 H   0  0  0  0  0  0  0  0  0  0  0  0
   37.3690   29.5570   39.0040 H   0  0  0  0  0  0  0  0  0  0  0  0
   36.9180   28.9520   41.0020 C   0  0  0  0  0  0  0  0  0  0  0  0
   36.9020   27.5630   40.8510 C   0  0  0  0  0  0  0  0  0  0  0  0
   37.1930   26.7610   41.9400 C   0  0  0  0  0  0  0  0  0  0  0  0
   37.4870   27.3690   43.1330 N   0  0  0  0  0  0  0  0  0  0  0  0
   37.4930   28.7140   43.2410 C   0  0  0  0  0  0  0  0  0  0  0  0
   37.2120   29.4640   42.1900 N   0  0  0  0  0  0  0  0  0  0  0  0
   37.1880   25.6890   41.8550 H   0  0  0  0  0  0  0  0  0  0  0  0
   37.7320   29.1440   44.2060 H   0  0  0  0  0  0  0  0  0  0  0  0
   36.5060   26.8330   39.2490 S   0  0  0  0  0  0  0  0  0  0  0  0
   35.1710   26.4170   39.2040 H   0  0  0  0  0  0  0  0  0  0  0  0
  1  2  1  0  0  0  0
  3  1  1  0  0  0  0
  4  1  1  0  0  0  0
  4  5  2  0  0  0  0
  5  9  1  0  0  0  0
  6  5  1  0  0  0  0
  7  8  2  0  0  0  0
  7  6  1  0  0  0  0
  8  4  1  0  0  0  0
 10 12  1  0  0  0  0
 10  7  1  0  0  0  0
 11 10  1  0  0  0  0
 12 13  1  0  0  0  0
 14 12  1  0  0  0  0
 15 12  1  0  0  0  0
 16 15  1  0  0  0  0
 17  1  1  0  0  0  0
 17 20  1  0  0  0  0
 18 17  1  0  0  0  0
 19 17  1  0  0  0  0
 20 25  1  0  0  0  0
 21 20  2  0  0  0  0
 21 22  1  0  0  0  0
 22 23  2  0  0  0  0
 23 24  1  0  0  0  0
 24 27  1  0  0  0  0
 25 24  2  0  0  0  0
 26 22  1  0  0  0  0
 28 21  1  0  0  0  0
 29 28  1  0  0  0  0
M  END
>  <minimizedAffinity>
-5.32496834

$$$$

 OpenBabel03252507443D

 29 30  0  0  0  0  0  0  0  0999 V2000
   36.7650   27.5220   42.6620 C   0  0  0  0  0  0  0  0  0  0  0  0
   36.2250   27.6310   43.6380 H   0  0  0  0  0  0  0  0  0  0  0  0
   36.0050   27.2000   41.9160 H   0  0  0  0  0  0  0  0  0  0  0  0
   37.3580   28.8350   42.2900 C   0  0  0  0  0  0  0  0  0  0  0  0
   38.7210   29.1290   42.6480 C   0  0  0  0  0  0  0  0  0  0  0  0
   38.9370   30.8350   41.9620 S   0  0  0  0  0  0  0  0  0  0  0  0
   37.1620   30.8230   41.3300 C   0  0  0  0  0  0  0  0  0  0  0  0
   36.7680   29.8130   41.6410 N   0  0  0  0  0  0  0  0  0  0  0  0
   39.3930   28.4380   43.1990 H   0  0  0  0  0  0  0  0  0  0  0  0
   36.7320   32.0210   40.6390 N   0  0  0  0  0  0  0  0  0  0  0  0
   35.7200   32.2080   40.7420 H   0  0  0  0  0  0  0  0  0  0  0  0
   37.7430   33.0570   39.7360 S   0  0  0  0  0  0  0  0  0  0  0  0
   38.6040   33.9060   40.6450 O   0  0  0  0  0  1  0  0  0  0  0  0
   38.6510   32.3240   38.8090 O   0  0  0  0  0  1  0  0  0  0  0  0
   36.7530   34.1610   38.9140 O   0  0  0  0  0  0  0  0  0  0  0  0
   36.7580   33.9500   37.9410 H   0  0  0  0  0  0  0  0  0  0  0  0
   37.7730   26.4170   42.8020 C   0  0  0  0  0  0  0  0  0  0  0  0
   38.7730   26.8350   42.7570 H   0  0  0  0  0  0  0  0  0  0  0  0
   37.6820   25.9850   43.8410 H   0  0  0  0  0  0  0  0  0  0  0  0
   37.5770   25.3260   41.8120 C   0  0  0  0  0  0  0  0  0  0  0  0
   38.5250   24.2990   41.8010 C   0  0  0  0  0  0  0  0  0  0  0  0
   38.3860   23.2610   40.8970 C   0  0  0  0  0  0  0  0  0  0  0  0
   37.3150   23.2840   40.0420 N   0  0  0  0  0  0  0  0  0  0  0  0
   36.4200   24.2930   40.0810 C   0  0  0  0  0  0  0  0  0  0  0  0
   36.5690   25.2760   40.9520 N   0  0  0  0  0  0  0  0  0  0  0  0
   39.0990   22.4560   40.8650 H   0  0  0  0  0  0  0  0  0  0  0  0
   35.5920   24.2640   39.3840 H   0  0  0  0  0  0  0  0  0  0  0  0
   39.9080   24.3350   42.9580 S   0  0  0  0  0  0  0  0  0  0  0  0
   41.0660   24.8190   42.3400 H   0  0  0  0  0  0  0  0  0  0  0  0
  1 17  1  0  0  0  0
  1  2  1  0  0  0  0
  3  1  1  0  0  0  0
  4  5  2  0  0  0  0
  4  1  1  0  0  0  0
  5  9  1  0  0  0  0
  6  5  1  0  0  0  0
  7  8  2  0  0  0  0
  7  6  1  0  0  0  0
  8  4  1  0  0  0  0
 10 11  1  0  0  0  0
 10  7  1  0  0  0  0
 12 10  1  0  0  0  0
 12 13  1  0  0  0  0
 14 12  1  0  0  0  0
 15 12  1  0  0  0  0
 16 15  1  0  0  0  0
 17 19  1  0  0  0  0
 18 17  1  0  0  0  0
 20 17  1  0  0  0  0
 21 20  1  0  0  0  0
 21 28  1  0  0  0  0
 22 21  2  0  0  0  0
 23 24  2  0  0  0  0
 23 22  1  0  0  0  0
 24 25  1  0  0  0  0
 25 20  2  0  0  0  0
 26 22  1  0  0  0  0
 27 24  1  0  0  0  0
 29 28  1  0  0  0  0
M  END
>  <minimizedAffinity>
-5.07959795

$$$$

 OpenBabel03252507443D

 29 30  0  0  0  0  0  0  0  0999 V2000
   36.6370   28.3910   42.0050 C   0  0  0  0  0  0  0  0  0  0  0  0
   37.1690   28.6350   42.9600 H   0  0  0  0  0  0  0  0  0  0  0  0
   35.5480   28.4280   42.2320 H   0  0  0  0  0  0  0  0  0  0  0  0
   37.0040   29.4020   40.9760 C   0  0  0  0  0  0  0  0  0  0  0  0
   36.2380   30.6160   40.8640 C   0  0  0  0  0  0  0  0  0  0  0  0
   37.1010   31.4850   39.4770 S   0  0  0  0  0  0  0  0  0  0  0  0
   38.3190   30.0570   39.3170 C   0  0  0  0  0  0  0  0  0  0  0  0
   37.9910   29.3280   40.1130 N   0  0  0  0  0  0  0  0  0  0  0  0
   35.3640   30.8730   41.4990 H   0  0  0  0  0  0  0  0  0  0  0  0
   39.3270   30.2010   38.2870 N   0  0  0  0  0  0  0  0  0  0  0  0
   39.6340   29.2970   37.8900 H   0  0  0  0  0  0  0  0  0  0  0  0
   39.9770   31.6810   37.7420 S   0  0  0  0  0  0  0  0  0  0  0  0
   39.9840   32.7130   38.8480 O   0  0  0  0  0  1  0  0  0  0  0  0
   41.3730   31.5540   37.2350 O   0  0  0  0  0  1  0  0  0  0  0  0
   38.9290   32.3070   36.5650 O   0  0  0  0  0  0  0  0  0  0  0  0
   39.3580   32.2370   35.6700 H   0  0  0  0  0  0  0  0  0  0  0  0
   36.9800   26.9800   41.6200 C   0  0  0  0  0  0  0  0  0  0  0  0
   36.1110   26.3470   41.7640 H   0  0  0  0  0  0  0  0  0  0  0  0
   37.1800   26.9550   40.5090 H   0  0  0  0  0  0  0  0  0  0  0  0
   38.1760   26.4600   42.3330 C   0  0  0  0  0  0  0  0  0  0  0  0
   38.4360   25.0920   42.2230 C   0  0  0  0  0  0  0  0  0  0  0  0
   39.5380   24.5600   42.8690 C   0  0  0  0  0  0  0  0  0  0  0  0
   40.3350   25.4060   43.5970 N   0  0  0  0  0  0  0  0  0  0  0  0
   40.0510   26.7220   43.6800 C   0  0  0  0  0  0  0  0  0  0  0  0
   38.9950   27.2120   43.0560 N   0  0  0  0  0  0  0  0  0  0  0  0
   39.7650   23.5100   42.8040 H   0  0  0  0  0  0  0  0  0  0  0  0
   40.7120   27.3470   44.2670 H   0  0  0  0  0  0  0  0  0  0  0  0
   37.3440   24.0390   41.2470 S   0  0  0  0  0  0  0  0  0  0  0  0
   36.4390   23.3580   42.0680 H   0  0  0  0  0  0  0  0  0  0  0  0
  1  3  1  0  0  0  0
  1  2  1  0  0  0  0
  4  1  1  0  0  0  0
  5  4  2  0  0  0  0
  5  9  1  0  0  0  0
  6  5  1  0  0  0  0
  7  6  1  0  0  0  0
  7  8  2  0  0  0  0
  8  4  1  0  0  0  0
 10  7  1  0  0  0  0
 11 10  1  0  0  0  0
 12 10  1  0  0  0  0
 12 13  1  0  0  0  0
 14 12  1  0  0  0  0
 15 12  1  0  0  0  0
 16 15  1  0  0  0  0
 17 18  1  0  0  0  0
 17  1  1  0  0  0  0
 17 20  1  0  0  0  0
 19 17  1  0  0  0  0
 20 25  1  0  0  0  0
 21 20  2  0  0  0  0
 21 22  1  0  0  0  0
 22 23  2  0  0  0  0
 23 24  1  0  0  0  0
 24 27  1  0  0  0  0
 25 24  2  0  0  0  0
 26 22  1  0  0  0  0
 28 29  1  0  0  0  0
 28 21  1  0  0  0  0
M  END
>  <minimizedAffinity>
-5.00563765

$$$$

 OpenBabel03252507443D

 29 30  0  0  0  0  0  0  0  0999 V2000
   40.0010   26.0520   43.6800 C   0  0  0  0  0  0  0  0  0  0  0  0
   40.7830   26.4230   44.3910 H   0  0  0  0  0  0  0  0  0  0  0  0
   39.3110   25.4130   44.2740 H   0  0  0  0  0  0  0  0  0  0  0  0
   39.2840   27.2200   43.1000 C   0  0  0  0  0  0  0  0  0  0  0  0
   39.9980   28.4460   42.8560 C   0  0  0  0  0  0  0  0  0  0  0  0
   38.6710   29.5270   42.1500 S   0  0  0  0  0  0  0  0  0  0  0  0
   37.4190   28.1280   42.3180 C   0  0  0  0  0  0  0  0  0  0  0  0
   38.0160   27.2800   42.7610 N   0  0  0  0  0  0  0  0  0  0  0  0
   41.0750   28.6030   43.0720 H   0  0  0  0  0  0  0  0  0  0  0  0
   36.0740   28.4310   41.8760 N   0  0  0  0  0  0  0  0  0  0  0  0
   35.3490   27.9060   42.3940 H   0  0  0  0  0  0  0  0  0  0  0  0
   35.6660   29.5320   40.6380 S   0  0  0  0  0  0  0  0  0  0  0  0
   36.7360   29.5720   39.5710 O   0  0  0  0  0  1  0  0  0  0  0  0
   34.3740   29.2050   39.9700 O   0  0  0  0  0  1  0  0  0  0  0  0
   35.6570   31.0890   41.3090 O   0  0  0  0  0  0  0  0  0  0  0  0
   34.7190   31.4170   41.3730 H   0  0  0  0  0  0  0  0  0  0  0  0
   40.6700   25.1790   42.6560 C   0  0  0  0  0  0  0  0  0  0  0  0
   41.4900   25.7240   42.2010 H   0  0  0  0  0  0  0  0  0  0  0  0
   41.1560   24.3140   43.1930 H   0  0  0  0  0  0  0  0  0  0  0  0
   39.7240   24.6440   41.6440 C   0  0  0  0  0  0  0  0  0  0  0  0
   40.0160   24.9000   40.3010 C   0  0  0  0  0  0  0  0  0  0  0  0
   39.1640   24.4220   39.3210 C   0  0  0  0  0  0  0  0  0  0  0  0
   38.0590   23.7110   39.7120 N   0  0  0  0  0  0  0  0  0  0  0  0
   37.8100   23.4840   41.0180 C   0  0  0  0  0  0  0  0  0  0  0  0
   38.6340   23.9480   41.9410 N   0  0  0  0  0  0  0  0  0  0  0  0
   39.3620   24.6030   38.2800 H   0  0  0  0  0  0  0  0  0  0  0  0
   36.9230   22.9170   41.2740 H   0  0  0  0  0  0  0  0  0  0  0  0
   41.4900   25.8420   39.8610 S   0  0  0  0  0  0  0  0  0  0  0  0
   41.1700   27.1780   39.5950 H   0  0  0  0  0  0  0  0  0  0  0  0
  1  3  1  0  0  0  0
  1  2  1  0  0  0  0
  4  1  1  0  0  0  0
  5  9  1  0  0  0  0
  5  4  2  0  0  0  0
  6  7  1  0  0  0  0
  6  5  1  0  0  0  0
  7  8  2  0  0  0  0
  8  4  1  0  0  0  0
 10  7  1  0  0  0  0
 10 11  1  0  0  0  0
 12 15  1  0  0  0  0
 12 10  1  0  0  0  0
 13 12  1  0  0  0  0
 14 12  1  0  0  0  0
 15 16  1  0  0  0  0
 17 19  1  0  0  0  0
 17  1  1  0  0  0  0
 18 17  1  0  0  0  0
 20 25  1  0  0  0  0
 20 17  1  0  0  0  0
 21 20  2  0  0  0  0
 22 23  2  0  0  0  0
 22 21  1  0  0  0  0
 23 24  1  0  0  0  0
 24 27  1  0  0  0  0
 24 25  2  0  0  0  0
 26 22  1  0  0  0  0
 28 21  1  0  0  0  0
 29 28  1  0  0  0  0
M  END
>  <minimizedAffinity>
-4.93225336

$$$$

 OpenBabel03252507443D

 29 30  0  0  0  0  0  0  0  0999 V2000
   36.4770   28.0140   41.9820 C   0  0  0  0  0  0  0  0  0  0  0  0
   35.5780   28.4660   42.4760 H   0  0  0  0  0  0  0  0  0  0  0  0
   36.1010   27.4390   41.1070 H   0  0  0  0  0  0  0  0  0  0  0  0
   37.3900   29.1070   41.5510 C   0  0  0  0  0  0  0  0  0  0  0  0
   38.3340   29.6590   42.4880 C   0  0  0  0  0  0  0  0  0  0  0  0
   39.1900   30.9380   41.4600 S   0  0  0  0  0  0  0  0  0  0  0  0
   38.1190   30.4870   39.9770 C   0  0  0  0  0  0  0  0  0  0  0  0
   37.4520   29.6620   40.3630 N   0  0  0  0  0  0  0  0  0  0  0  0
   38.4430   29.3290   43.5430 H   0  0  0  0  0  0  0  0  0  0  0  0
   38.3710   31.2400   38.7660 N   0  0  0  0  0  0  0  0  0  0  0  0
   37.5300   31.3490   38.1740 H   0  0  0  0  0  0  0  0  0  0  0  0
   39.8750   31.9040   38.3110 S   0  0  0  0  0  0  0  0  0  0  0  0
   40.1600   33.1790   39.0740 O   0  0  0  0  0  1  0  0  0  0  0  0
   41.0180   30.9750   38.5410 O   0  0  0  0  0  1  0  0  0  0  0  0
   39.7620   32.3810   36.6870 O   0  0  0  0  0  0  0  0  0  0  0  0
   40.3050   31.7660   36.1230 H   0  0  0  0  0  0  0  0  0  0  0  0
   37.1020   27.0410   42.9410 C   0  0  0  0  0  0  0  0  0  0  0  0
   37.8620   27.5490   43.5240 H   0  0  0  0  0  0  0  0  0  0  0  0
   36.3170   26.7300   43.6900 H   0  0  0  0  0  0  0  0  0  0  0  0
   37.6310   25.8250   42.2690 C   0  0  0  0  0  0  0  0  0  0  0  0
   38.9530   25.4700   42.5470 C   0  0  0  0  0  0  0  0  0  0  0  0
   39.4920   24.3470   41.9450 C   0  0  0  0  0  0  0  0  0  0  0  0
   38.6970   23.6220   41.0940 N   0  0  0  0  0  0  0  0  0  0  0  0
   37.4240   23.9960   40.8510 C   0  0  0  0  0  0  0  0  0  0  0  0
   36.9270   25.0730   41.4340 N   0  0  0  0  0  0  0  0  0  0  0  0
   40.5060   24.0470   42.1390 H   0  0  0  0  0  0  0  0  0  0  0  0
   36.8390   23.3900   40.1700 H   0  0  0  0  0  0  0  0  0  0  0  0
   39.9390   26.4710   43.6780 S   0  0  0  0  0  0  0  0  0  0  0  0
   40.7790   27.3420   42.9760 H   0  0  0  0  0  0  0  0  0  0  0  0
  1  2  1  0  0  0  0
  1 17  1  0  0  0  0
  3  1  1  0  0  0  0
  4  1  1  0  0  0  0
  4  5  2  0  0  0  0
  5  9  1  0  0  0  0
  6  5  1  0  0  0  0
  7  8  2  0  0  0  0
  7  6  1  0  0  0  0
  8  4  1  0  0  0  0
 10  7  1  0  0  0  0
 11 10  1  0  0  0  0
 12 14  1  0  0  0  0
 12 10  1  0  0  0  0
 12 13  1  0  0  0  0
 15 12  1  0  0  0  0
 16 15  1  0  0  0  0
 17 18  1  0  0  0  0
 17 19  1  0  0  0  0
 20 21  1  0  0  0  0
 20 17  1  0  0  0  0
 21 28  1  0  0  0  0
 22 26  1  0  0  0  0
 22 21  2  0  0  0  0
 23 22  1  0  0  0  0
 24 23  2  0  0  0  0
 24 25  1  0  0  0  0
 25 20  2  0  0  0  0
 27 24  1  0  0  0  0
 29 28  1  0  0  0  0
M  END
>  <minimizedAffinity>
-4.90369797

$$$$

 OpenBabel03252507443D

 29 30  0  0  0  0  0  0  0  0999 V2000
   37.6340   28.3260   43.6790 C   0  0  0  0  0  0  0  0  0  0  0  0
   37.6920   28.8200   44.6830 H   0  0  0  0  0  0  0  0  0  0  0  0
   36.6140   27.8880   43.6010 H   0  0  0  0  0  0  0  0  0  0  0  0
   37.8600   29.3500   42.6230 C   0  0  0  0  0  0  0  0  0  0  0  0
   36.8340   29.6040   41.6460 C   0  0  0  0  0  0  0  0  0  0  0  0
   37.6130   30.9270   40.6110 S   0  0  0  0  0  0  0  0  0  0  0  0
   39.1590   30.8820   41.6870 C   0  0  0  0  0  0  0  0  0  0  0  0
   38.9300   30.0930   42.4600 N   0  0  0  0  0  0  0  0  0  0  0  0
   35.8540   29.0840   41.6080 H   0  0  0  0  0  0  0  0  0  0  0  0
   40.2140   31.7990   41.3100 N   0  0  0  0  0  0  0  0  0  0  0  0
   41.1590   31.4490   41.5460 H   0  0  0  0  0  0  0  0  0  0  0  0
   39.9860   33.3110   40.5540 S   0  0  0  0  0  0  0  0  0  0  0  0
   41.2350   34.1600   40.6460 O   0  0  0  0  0  1  0  0  0  0  0  0
   39.6250   33.1940   39.1120 O   0  0  0  0  0  1  0  0  0  0  0  0
   38.8130   34.1610   41.4340 O   0  0  0  0  0  0  0  0  0  0  0  0
   37.9710   34.2090   40.9050 H   0  0  0  0  0  0  0  0  0  0  0  0
   38.6250   27.1960   43.6520 C   0  0  0  0  0  0  0  0  0  0  0  0
   39.6310   27.6000   43.6470 H   0  0  0  0  0  0  0  0  0  0  0  0
   38.5410   26.6300   44.6250 H   0  0  0  0  0  0  0  0  0  0  0  0
   38.3960   26.2510   42.5290 C   0  0  0  0  0  0  0  0  0  0  0  0
   39.4570   26.0460   41.6430 C   0  0  0  0  0  0  0  0  0  0  0  0
   39.2920   25.1760   40.5810 C   0  0  0  0  0  0  0  0  0  0  0  0
   38.0830   24.5450   40.4390 N   0  0  0  0  0  0  0  0  0  0  0  0
   37.0810   24.7680   41.3150 C   0  0  0  0  0  0  0  0  0  0  0  0
   37.2560   25.6030   42.3240 N   0  0  0  0  0  0  0  0  0  0  0  0
   40.0910   24.9970   39.8820 H   0  0  0  0  0  0  0  0  0  0  0  0
   36.1450   24.2450   41.1580 H   0  0  0  0  0  0  0  0  0  0  0  0
   41.0210   26.9100   41.8920 S   0  0  0  0  0  0  0  0  0  0  0  0
   41.1130   28.0300   41.0590 H   0  0  0  0  0  0  0  0  0  0  0  0
  1  2  1  0  0  0  0
  3  1  1  0  0  0  0
  4  1  1  0  0  0  0
  5  4  2  0  0  0  0
  6  5  1  0  0  0  0
  6  7  1  0  0  0  0
  7  8  2  0  0  0  0
  8  4  1  0  0  0  0
  9  5  1  0  0  0  0
 10 11  1  0  0  0  0
 10  7  1  0  0  0  0
 12 13  1  0  0  0  0
 12 10  1  0  0  0  0
 12 15  1  0  0  0  0
 14 12  1  0  0  0  0
 16 15  1  0  0  0  0
 17  1  1  0  0  0  0
 17 19  1  0  0  0  0
 18 17  1  0  0  0  0
 20 17  1  0  0  0  0
 21 28  1  0  0  0  0
 21 20  2  0  0  0  0
 22 21  1  0  0  0  0
 23 22  2  0  0  0  0
 23 24  1  0  0  0  0
 24 25  2  0  0  0  0
 25 20  1  0  0  0  0
 26 22  1  0  0  0  0
 27 24  1  0  0  0  0
 29 28  1  0  0  0  0
M  END
>  <minimizedAffinity>
-4.82581186

$$$$

 OpenBabel03252507443D

 29 30  0  0  0  0  0  0  0  0999 V2000
   37.3500   27.1760   39.9670 C   0  0  0  0  0  0  0  0  0  0  0  0
   36.6700   26.8480   39.1400 H   0  0  0  0  0  0  0  0  0  0  0  0
   38.3760   26.8530   39.6800 H   0  0  0  0  0  0  0  0  0  0  0  0
   37.2720   28.6560   40.0970 C   0  0  0  0  0  0  0  0  0  0  0  0
   36.2020   29.2500   40.8550 C   0  0  0  0  0  0  0  0  0  0  0  0
   36.5790   31.0550   40.6970 S   0  0  0  0  0  0  0  0  0  0  0  0
   38.0940   30.6650   39.6470 C   0  0  0  0  0  0  0  0  0  0  0  0
   38.0980   29.5380   39.5830 N   0  0  0  0  0  0  0  0  0  0  0  0
   35.4000   28.6800   41.3700 H   0  0  0  0  0  0  0  0  0  0  0  0
   38.8550   31.8090   39.1920 N   0  0  0  0  0  0  0  0  0  0  0  0
   39.3270   31.6470   38.2850 H   0  0  0  0  0  0  0  0  0  0  0  0
   38.9960   33.2950   40.0170 S   0  0  0  0  0  0  0  0  0  0  0  0
   40.1680   34.0970   39.4990 O   0  0  0  0  0  1  0  0  0  0  0  0
   37.7780   34.1470   39.8980 O   0  0  0  0  0  1  0  0  0  0  0  0
   39.3770   32.9560   41.6350 O   0  0  0  0  0  0  0  0  0  0  0  0
   38.5910   33.1580   42.2100 H   0  0  0  0  0  0  0  0  0  0  0  0
   36.9650   26.4340   41.2160 C   0  0  0  0  0  0  0  0  0  0  0  0
   36.1830   26.9810   41.7320 H   0  0  0  0  0  0  0  0  0  0  0  0
   36.4890   25.4570   40.9140 H   0  0  0  0  0  0  0  0  0  0  0  0
   38.1250   26.1490   42.1010 C   0  0  0  0  0  0  0  0  0  0  0  0
   38.6370   24.8490   42.0780 C   0  0  0  0  0  0  0  0  0  0  0  0
   39.7160   24.5340   42.8840 C   0  0  0  0  0  0  0  0  0  0  0  0
   40.2420   25.5190   43.6800 N   0  0  0  0  0  0  0  0  0  0  0  0
   39.7200   26.7630   43.6750 C   0  0  0  0  0  0  0  0  0  0  0  0
   38.6890   27.0460   42.8980 N   0  0  0  0  0  0  0  0  0  0  0  0
   40.1330   23.5420   42.8890 H   0  0  0  0  0  0  0  0  0  0  0  0
   40.1720   27.5050   44.3210 H   0  0  0  0  0  0  0  0  0  0  0  0
   37.8940   23.6040   41.0050 S   0  0  0  0  0  0  0  0  0  0  0  0
   37.0200   22.7800   41.7220 H   0  0  0  0  0  0  0  0  0  0  0  0
  1  4  1  0  0  0  0
  1 17  1  0  0  0  0
  2  1  1  0  0  0  0
  3  1  1  0  0  0  0
  4  5  2  0  0  0  0
  5  9  1  0  0  0  0
  6  5  1  0  0  0  0
  7  6  1  0  0  0  0
  8  7  2  0  0  0  0
  8  4  1  0  0  0  0
 10  7  1  0  0  0  0
 10 12  1  0  0  0  0
 11 10  1  0  0  0  0
 12 15  1  0  0  0  0
 13 12  1  0  0  0  0
 14 12  1  0  0  0  0
 15 16  1  0  0  0  0
 17 18  1  0  0  0  0
 17 20  1  0  0  0  0
 19 17  1  0  0  0  0
 20 25  1  0  0  0  0
 21 20  2  0  0  0  0
 21 22  1  0  0  0  0
 22 26  1  0  0  0  0
 22 23  2  0  0  0  0
 24 23  1  0  0  0  0
 24 27  1  0  0  0  0
 25 24  2  0  0  0  0
 28 29  1  0  0  0  0
 28 21  1  0  0  0  0
M  END
>  <minimizedAffinity>
-4.69195986

$$$$

 OpenBabel03252507443D

 29 30  0  0  0  0  0  0  0  0999 V2000
   37.0320   26.6780   40.0500 C   0  0  0  0  0  0  0  0  0  0  0  0
   36.0640   26.2590   39.6710 H   0  0  0  0  0  0  0  0  0  0  0  0
   37.8080   25.9040   39.8580 H   0  0  0  0  0  0  0  0  0  0  0  0
   37.3340   27.9350   39.3120 C   0  0  0  0  0  0  0  0  0  0  0  0
   36.3010   28.5750   38.5420 C   0  0  0  0  0  0  0  0  0  0  0  0
   37.1910   30.0480   37.8600 S   0  0  0  0  0  0  0  0  0  0  0  0
   38.7720   29.5200   38.7380 C   0  0  0  0  0  0  0  0  0  0  0  0
   38.4830   28.5700   39.2720 N   0  0  0  0  0  0  0  0  0  0  0  0
   35.2600   28.2010   38.4450 H   0  0  0  0  0  0  0  0  0  0  0  0
   39.9180   30.3850   38.5450 N   0  0  0  0  0  0  0  0  0  0  0  0
   40.8200   29.8790   38.5870 H   0  0  0  0  0  0  0  0  0  0  0  0
   39.8510   32.0670   38.2710 S   0  0  0  0  0  0  0  0  0  0  0  0
   38.7290   32.7030   39.0620 O   0  0  0  0  0  1  0  0  0  0  0  0
   41.1150   32.7690   38.6350 O   0  0  0  0  0  1  0  0  0  0  0  0
   39.4340   32.3120   36.6460 O   0  0  0  0  0  0  0  0  0  0  0  0
   40.2250   32.6580   36.1500 H   0  0  0  0  0  0  0  0  0  0  0  0
   36.9180   26.8580   41.5370 C   0  0  0  0  0  0  0  0  0  0  0  0
   36.7010   27.8980   41.7580 H   0  0  0  0  0  0  0  0  0  0  0  0
   36.0110   26.2880   41.8940 H   0  0  0  0  0  0  0  0  0  0  0  0
   38.1120   26.3670   42.2730 C   0  0  0  0  0  0  0  0  0  0  0  0
   38.8600   27.3150   42.9750 C   0  0  0  0  0  0  0  0  0  0  0  0
   39.9810   26.9070   43.6760 C   0  0  0  0  0  0  0  0  0  0  0  0
   40.3140   25.5770   43.6510 N   0  0  0  0  0  0  0  0  0  0  0  0
   39.5660   24.6910   42.9620 C   0  0  0  0  0  0  0  0  0  0  0  0
   38.4980   25.0990   42.2990 N   0  0  0  0  0  0  0  0  0  0  0  0
   40.5780   27.6130   44.2250 H   0  0  0  0  0  0  0  0  0  0  0  0
   39.8720   23.6520   42.9750 H   0  0  0  0  0  0  0  0  0  0  0  0
   38.3620   29.0490   42.9630 S   0  0  0  0  0  0  0  0  0  0  0  0
   39.1140   29.7810   42.0370 H   0  0  0  0  0  0  0  0  0  0  0  0
  1 17  1  0  0  0  0
  2  1  1  0  0  0  0
  3  1  1  0  0  0  0
  4  1  1  0  0  0  0
  5  4  2  0  0  0  0
  6  5  1  0  0  0  0
  6  7  1  0  0  0  0
  7  8  2  0  0  0  0
  8  4  1  0  0  0  0
  9  5  1  0  0  0  0
 10 11  1  0  0  0  0
 10  7  1  0  0  0  0
 12 10  1  0  0  0  0
 12 14  1  0  0  0  0
 12 13  1  0  0  0  0
 15 12  1  0  0  0  0
 16 15  1  0  0  0  0
 17 18  1  0  0  0  0
 17 19  1  0  0  0  0
 17 20  1  0  0  0  0
 20 25  2  0  0  0  0
 20 21  1  0  0  0  0
 21 22  2  0  0  0  0
 22 26  1  0  0  0  0
 23 22  1  0  0  0  0
 24 27  1  0  0  0  0
 24 23  2  0  0  0  0
 25 24  1  0  0  0  0
 28 21  1  0  0  0  0
 29 28  1  0  0  0  0
M  END
>  <minimizedAffinity>
-4.5852375

$$$$

 OpenBabel03252507443D

 29 30  0  0  0  0  0  0  0  0999 V2000
   36.2780   30.6870   41.0070 C   0  0  0  0  0  0  0  0  0  0  0  0
   35.1620   30.5870   41.0340 H   0  0  0  0  0  0  0  0  0  0  0  0
   36.5410   31.4920   41.7280 H   0  0  0  0  0  0  0  0  0  0  0  0
   36.8870   29.3900   41.4070 C   0  0  0  0  0  0  0  0  0  0  0  0
   37.5810   29.2860   42.6640 C   0  0  0  0  0  0  0  0  0  0  0  0
   38.1180   27.5140   42.6580 S   0  0  0  0  0  0  0  0  0  0  0  0
   37.3090   27.2570   40.9760 C   0  0  0  0  0  0  0  0  0  0  0  0
   36.8710   28.2670   40.7270 N   0  0  0  0  0  0  0  0  0  0  0  0
   37.7080   30.1190   43.3870 H   0  0  0  0  0  0  0  0  0  0  0  0
   37.4220   25.9250   40.4200 N   0  0  0  0  0  0  0  0  0  0  0  0
   37.4380   25.9160   39.3860 H   0  0  0  0  0  0  0  0  0  0  0  0
   37.5250   24.4820   41.3250 S   0  0  0  0  0  0  0  0  0  0  0  0
   37.1570   23.2830   40.4810 O   0  0  0  0  0  1  0  0  0  0  0  0
   38.8850   24.2400   41.8850 O   0  0  0  0  0  1  0  0  0  0  0  0
   36.3420   24.5450   42.5380 O   0  0  0  0  0  0  0  0  0  0  0  0
   36.7800   24.6700   43.4220 H   0  0  0  0  0  0  0  0  0  0  0  0
   36.6760   31.1490   39.6340 C   0  0  0  0  0  0  0  0  0  0  0  0
   36.8890   30.2860   39.0120 H   0  0  0  0  0  0  0  0  0  0  0  0
   35.7820   31.6430   39.1540 H   0  0  0  0  0  0  0  0  0  0  0  0
   37.8040   32.1160   39.6530 C   0  0  0  0  0  0  0  0  0  0  0  0
   38.9980   31.7120   39.0500 C   0  0  0  0  0  0  0  0  0  0  0  0
   40.0780   32.5770   39.0420 C   0  0  0  0  0  0  0  0  0  0  0  0
   39.9290   33.8060   39.6330 N   0  0  0  0  0  0  0  0  0  0  0  0
   38.7600   34.1610   40.2050 C   0  0  0  0  0  0  0  0  0  0  0  0
   37.7400   33.3210   40.2030 N   0  0  0  0  0  0  0  0  0  0  0  0
   41.0100   32.2960   38.5860 H   0  0  0  0  0  0  0  0  0  0  0  0
   38.6950   35.1430   40.6570 H   0  0  0  0  0  0  0  0  0  0  0  0
   39.1210   30.0800   38.2920 S   0  0  0  0  0  0  0  0  0  0  0  0
   39.7560   29.1750   39.1490 H   0  0  0  0  0  0  0  0  0  0  0  0
  1  2  1  0  0  0  0
  1  4  1  0  0  0  0
  1  3  1  0  0  0  0
  4  5  2  0  0  0  0
  5  9  1  0  0  0  0
  6  5  1  0  0  0  0
  7  6  1  0  0  0  0
  8  7  2  0  0  0  0
  8  4  1  0  0  0  0
 10  7  1  0  0  0  0
 10 12  1  0  0  0  0
 11 10  1  0  0  0  0
 12 14  1  0  0  0  0
 12 15  1  0  0  0  0
 13 12  1  0  0  0  0
 15 16  1  0  0  0  0
 17 20  1  0  0  0  0
 17  1  1  0  0  0  0
 18 17  1  0  0  0  0
 19 17  1  0  0  0  0
 20 25  1  0  0  0  0
 21 20  2  0  0  0  0
 22 21  1  0  0  0  0
 22 23  2  0  0  0  0
 23 24  1  0  0  0  0
 24 27  1  0  0  0  0
 25 24  2  0  0  0  0
 26 22  1  0  0  0  0
 28 21  1  0  0  0  0
 28 29  1  0  0  0  0
M  END
>  <minimizedAffinity>
-4.56835365

$$$$
