
 OpenBabel03252509353D

 42 43  0  0  1  0  0  0  0  0999 V2000
   44.8880   34.8900   45.3860 O   0  0  0  0  0  0  0  0  0  0  0  0
   45.7090   33.7980   44.7290 P   0  0  1  0  0  0  0  0  0  0  0  0
   44.7300   32.8040   43.7680 O   0  0  0  0  0  0  0  0  0  0  0  0
   44.0220   33.3940   43.3890 H   0  0  0  0  0  0  0  0  0  0  0  0
   46.8780   34.5280   43.7860 O   0  0  0  0  0  0  0  0  0  0  0  0
   47.0040   33.8390   42.5720 C   0  0  1  0  0  0  0  0  0  0  0  0
   46.4020   34.6730   41.4380 C   0  0  0  0  0  0  0  0  0  0  0  0
   46.9030   33.9150   40.2390 C   0  0  0  0  0  0  0  0  0  0  0  0
   48.2020   33.2580   40.6700 C   0  0  0  0  0  0  0  0  0  0  0  0
   48.4180   33.7160   42.0990 C   0  0  1  0  0  0  0  0  0  0  0  0
   46.4920   32.8780   42.5540 H   0  0  0  0  0  0  0  0  0  0  0  0
   46.6610   35.7260   41.4780 H   0  0  0  0  0  0  0  0  0  0  0  0
   45.3040   34.5800   41.4520 H   0  0  0  0  0  0  0  0  0  0  0  0
   46.1640   33.1270   39.9480 H   0  0  0  0  0  0  0  0  0  0  0  0
   47.0160   34.5890   39.3830 H   0  0  0  0  0  0  0  0  0  0  0  0
   48.1090   32.1400   40.6610 H   0  0  0  0  0  0  0  0  0  0  0  0
   49.0390   33.5390   40.0130 H   0  0  0  0  0  0  0  0  0  0  0  0
   48.9420   32.9000   42.6590 H   0  0  0  0  0  0  0  0  0  0  0  0
   49.1720   35.0180   42.1570 C   0  0  0  0  0  0  0  0  0  0  0  0
   49.7530   35.1420   41.2040 H   0  0  0  0  0  0  0  0  0  0  0  0
   48.5210   35.9160   42.2180 H   0  0  0  0  0  0  0  0  0  0  0  0
   50.0190   35.0870   43.2410 O   0  0  0  0  0  0  0  0  0  0  0  0
   50.9410   34.8730   42.9120 H   0  0  0  0  0  0  0  0  0  0  0  0
   46.4040   32.8070   45.8770 O   0  0  0  0  0  0  0  0  0  0  0  0
   46.3670   31.5220   45.4380 C   0  0  0  0  0  0  0  0  0  0  0  0
   45.8410   31.3050   44.5130 H   0  0  0  0  0  0  0  0  0  0  0  0
   47.4370   31.2070   45.2480 H   0  0  0  0  0  0  0  0  0  0  0  0
   45.0690   30.1850   48.6570 C   0  0  0  0  0  0  0  0  0  0  0  0
   45.5350   31.1060   47.7120 C   0  0  0  0  0  0  0  0  0  0  0  0
   45.8690   30.5860   46.4580 C   0  0  0  0  0  0  0  0  0  0  0  0
   45.7270   29.2430   46.2270 N   0  0  0  0  0  0  0  0  0  0  0  0
   45.2730   28.3880   47.1680 C   0  0  0  0  0  0  0  0  0  0  0  0
   44.9500   28.8600   48.3650 N   0  0  0  0  0  0  0  0  0  0  0  0
   44.8050   30.5770   49.6380 H   0  0  0  0  0  0  0  0  0  0  0  0
   45.6150   32.1370   47.9790 H   0  0  0  0  0  0  0  0  0  0  0  0
   45.1510   27.0050   46.8560 N   0  0  0  0  0  0  0  0  0  0  0  0
   45.4100   26.6520   45.9070 H   0  0  0  0  0  0  0  0  0  0  0  0
   44.5760   25.8650   48.0200 S   0  0  0  0  0  0  0  0  0  0  0  0
   43.0750   25.9020   48.0760 O   0  0  0  0  0  1  0  0  0  0  0  0
   45.0720   24.5090   47.6090 O   0  0  0  0  0  1  0  0  0  0  0  0
   45.2040   26.3010   49.5280 O   0  0  0  0  0  0  0  0  0  0  0  0
   45.2160   27.2950   49.6200 H   0  0  0  0  0  0  0  0  0  0  0  0
  2  1  2  1  0  0  0
  2 24  1  0  0  0  0
  3  2  1  0  0  0  0
  4  3  1  0  0  0  0
  5  2  1  0  0  0  0
  6 11  1  1  0  0  0
  6  5  1  0  0  0  0
  7 13  1  0  0  0  0
  7 12  1  0  0  0  0
  7  6  1  0  0  0  0
  8  9  1  0  0  0  0
  8  7  1  0  0  0  0
  9 10  1  0  0  0  0
 10 19  1  0  0  0  0
 10  6  1  0  0  0  0
 10 18  1  1  0  0  0
 14  8  1  0  0  0  0
 15  8  1  0  0  0  0
 16  9  1  0  0  0  0
 17  9  1  0  0  0  0
 19 21  1  0  0  0  0
 19 22  1  0  0  0  0
 20 19  1  0  0  0  0
 23 22  1  0  0  0  0
 25 24  1  0  0  0  0
 25 30  1  0  0  0  0
 26 25  1  0  0  0  0
 27 25  1  0  0  0  0
 28 34  1  0  0  0  0
 29 35  1  0  0  0  0
 29 28  2  0  0  0  0
 30 29  1  0  0  0  0
 31 30  2  0  0  0  0
 31 32  1  0  0  0  0
 32 33  2  0  0  0  0
 33 28  1  0  0  0  0
 36 32  1  0  0  0  0
 36 38  1  0  0  0  0
 37 36  1  0  0  0  0
 38 39  1  0  0  0  0
 38 41  1  0  0  0  0
 40 38  1  0  0  0  0
 41 42  1  0  0  0  0
M  END
>  <minimizedAffinity>
-5.51357889

>  <minimizedRMSD>
1.71381319

$$$$
