
 OpenBabel03242513473D

 30 32  0  0  1  0  0  0  0  0999 V2000
   46.7360   31.1420   41.2700 C   0  0  1  0  0  0  0  0  0  0  0  0
   45.5350   30.6200   42.0690 C   0  0  0  0  0  0  0  0  0  0  0  0
   45.3630   31.1590   40.7350 C   0  0  1  0  0  0  0  0  0  0  0  0
   47.4150   30.4450   40.7490 H   0  0  0  0  0  0  0  0  0  0  0  0
   45.2590   31.1380   42.9960 H   0  0  0  0  0  0  0  0  0  0  0  0
   45.5120   29.5030   42.1610 H   0  0  0  0  0  0  0  0  0  0  0  0
   45.1830   30.5310   39.8470 H   0  0  0  0  0  0  0  0  0  0  0  0
   47.3940   32.3500   41.8380 C   0  0  0  0  0  0  0  0  0  0  0  0
   48.4250   32.9500   41.0920 C   0  0  0  0  0  0  0  0  0  0  0  0
   49.0440   34.0730   41.6320 C   0  0  0  0  0  0  0  0  0  0  0  0
   48.6140   34.5280   42.8560 N   0  0  0  0  0  0  0  0  0  0  0  0
   47.6080   33.9060   43.5360 C   0  0  0  0  0  0  0  0  0  0  0  0
   47.0000   32.8220   43.0310 N   0  0  0  0  0  0  0  0  0  0  0  0
   48.7460   32.5740   40.1320 H   0  0  0  0  0  0  0  0  0  0  0  0
   49.8460   34.6020   41.1310 H   0  0  0  0  0  0  0  0  0  0  0  0
   47.2920   34.2860   44.4980 H   0  0  0  0  0  0  0  0  0  0  0  0
   44.7010   32.4980   40.6180 C   0  0  0  0  0  0  0  0  0  0  0  0
   44.9450   33.5730   39.7790 C   0  0  0  0  0  0  0  0  0  0  0  0
   44.0600   34.5450   40.0420 N   0  0  0  0  0  0  0  0  0  0  0  0
   43.2840   34.0970   41.0150 C   0  0  0  0  0  0  0  0  0  0  0  0
   43.6350   32.8540   41.3980 N   0  0  0  0  0  0  0  0  0  0  0  0
   45.7460   33.4970   39.0840 H   0  0  0  0  0  0  0  0  0  0  0  0
   44.0620   35.4510   39.5260 H   0  0  0  0  0  0  0  0  0  0  0  0
   42.2000   34.7780   41.6270 N   0  0  0  0  0  0  0  0  0  0  0  0
   42.2940   35.5580   42.3110 H   0  0  0  0  0  0  0  0  0  0  0  0
   40.5240   34.4740   41.3800 S   0  0  0  0  0  0  0  0  0  0  0  0
   40.3400   33.3420   40.3780 O   0  0  0  0  0  0  0  0  0  0  0  0
   39.8480   35.6650   40.7910 O   0  0  0  0  0  0  0  0  0  0  0  0
   39.7980   33.9280   42.7930 O   0  0  0  0  0  0  0  0  0  0  0  0
   39.3420   34.6710   43.2630 H   0  0  0  0  0  0  0  0  0  0  0  0
  1  4  1  6  0  0  0
  1  8  1  0  0  0  0
  1  2  1  0  0  0  0
  2  6  1  0  0  0  0
  2  5  1  0  0  0  0
  3  7  1  6  0  0  0
  3  1  1  0  0  0  0
  3  2  1  0  0  0  0
  8 13  1  0  0  0  0
  9 10  1  0  0  0  0
  9  8  2  0  0  0  0
 10 11  2  0  0  0  0
 11 12  1  0  0  0  0
 12 16  1  0  0  0  0
 13 12  2  0  0  0  0
 14  9  1  0  0  0  0
 15 10  1  0  0  0  0
 17  3  1  0  0  0  0
 17 21  1  0  0  0  0
 18 19  1  0  0  0  0
 18 17  2  0  0  0  0
 19 20  1  0  0  0  0
 20 21  2  0  0  0  0
 20 24  1  0  0  0  0
 22 18  1  0  0  0  0
 23 19  1  0  0  0  0
 24 25  1  0  0  0  0
 26 24  1  0  0  0  0
 26 29  1  0  0  0  0
 27 26  1  0  0  0  0
 28 26  1  0  0  0  0
 29 30  1  0  0  0  0
M  END
>  <minimizedAffinity>
-4.26528072

>  <minimizedRMSD>
4.33635855

$$$$
