
 OpenBabel03252507423D

 29 30  0  0  0  0  0  0  0  0999 V2000
   46.3240   34.6110   42.0620 C   0  0  0  0  0  0  0  0  0  0  0  0
   46.6060   35.4790   42.7120 H   0  0  0  0  0  0  0  0  0  0  0  0
   46.4500   33.6960   42.6820 H   0  0  0  0  0  0  0  0  0  0  0  0
   44.9090   34.7740   41.6290 C   0  0  0  0  0  0  0  0  0  0  0  0
   43.9620   35.4030   42.5120 C   0  0  0  0  0  0  0  0  0  0  0  0
   42.4090   35.3500   41.5040 S   0  0  0  0  0  0  0  0  0  0  0  0
   43.3300   34.4990   40.0980 C   0  0  0  0  0  0  0  0  0  0  0  0
   44.3860   34.4010   40.4840 N   0  0  0  0  0  0  0  0  0  0  0  0
   44.2010   35.7890   43.5240 H   0  0  0  0  0  0  0  0  0  0  0  0
   42.5380   34.1830   38.9280 N   0  0  0  0  0  0  0  0  0  0  0  0
   42.8730   33.3420   38.4260 H   0  0  0  0  0  0  0  0  0  0  0  0
   41.1830   35.0650   38.3840 S   0  0  0  0  0  0  0  0  0  0  0  0
   40.2000   34.1650   37.6690 O   0  0  0  0  0  0  0  0  0  0  0  0
   40.4500   35.7480   39.4880 O   0  0  0  0  0  0  0  0  0  0  0  0
   41.7150   36.1600   37.2040 O   0  0  0  0  0  0  0  0  0  0  0  0
   41.6800   37.0840   37.5700 H   0  0  0  0  0  0  0  0  0  0  0  0
   47.3030   34.5360   40.9240 C   0  0  0  0  0  0  0  0  0  0  0  0
   46.8590   33.9830   40.1040 H   0  0  0  0  0  0  0  0  0  0  0  0
   47.4610   35.5790   40.5240 H   0  0  0  0  0  0  0  0  0  0  0  0
   48.6180   33.9750   41.3290 C   0  0  0  0  0  0  0  0  0  0  0  0
   48.9830   32.7460   40.7750 C   0  0  0  0  0  0  0  0  0  0  0  0
   50.1990   32.1830   41.1210 C   0  0  0  0  0  0  0  0  0  0  0  0
   51.0010   32.8610   42.0030 N   0  0  0  0  0  0  0  0  0  0  0  0
   50.6150   34.0470   42.5170 C   0  0  0  0  0  0  0  0  0  0  0  0
   49.4500   34.5690   42.1750 N   0  0  0  0  0  0  0  0  0  0  0  0
   50.5080   31.2370   40.7120 H   0  0  0  0  0  0  0  0  0  0  0  0
   51.2850   34.5420   43.2090 H   0  0  0  0  0  0  0  0  0  0  0  0
   47.8770   31.9100   39.6210 S   0  0  0  0  0  0  0  0  0  0  0  0
   47.1430   30.9090   40.2650 H   0  0  0  0  0  0  0  0  0  0  0  0
  1  3  1  0  0  0  0
  1  2  1  0  0  0  0
  4  1  1  0  0  0  0
  4  5  2  0  0  0  0
  5  9  1  0  0  0  0
  6  5  1  0  0  0  0
  7  8  2  0  0  0  0
  7  6  1  0  0  0  0
  8  4  1  0  0  0  0
 10  7  1  0  0  0  0
 11 10  1  0  0  0  0
 12 10  1  0  0  0  0
 12 14  1  0  0  0  0
 13 12  1  0  0  0  0
 15 16  1  0  0  0  0
 15 12  1  0  0  0  0
 17 20  1  0  0  0  0
 17  1  1  0  0  0  0
 18 17  1  0  0  0  0
 19 17  1  0  0  0  0
 20 25  1  0  0  0  0
 21 22  1  0  0  0  0
 21 20  2  0  0  0  0
 22 23  2  0  0  0  0
 23 24  1  0  0  0  0
 24 27  1  0  0  0  0
 25 24  2  0  0  0  0
 26 22  1  0  0  0  0
 28 29  1  0  0  0  0
 28 21  1  0  0  0  0
M  END
>  <minimizedAffinity>
-4.8497262

>  <minimizedRMSD>
1.0531224

$$$$
