
 OpenBabel03242514403D

 40 42  0  0  0  0  0  0  0  0999 V2000
   43.4380   32.5530   41.1320 O   0  0  0  0  0  0  0  0  0  0  0  0
   43.0050   31.7580   42.1150 C   0  0  0  0  0  0  0  0  0  0  0  0
   43.4620   32.1350   43.2710 O   0  0  0  0  0  0  0  0  0  0  0  0
   42.1700   30.5660   42.3860 C   0  0  0  0  0  0  0  0  0  0  0  0
   42.6180   29.2830   42.7660 C   0  0  0  0  0  0  0  0  0  0  0  0
   41.6180   28.3750   42.9480 C   0  0  0  0  0  0  0  0  0  0  0  0
   40.3280   28.6730   42.7810 C   0  0  0  0  0  0  0  0  0  0  0  0
   40.4240   30.4870   42.2930 S   0  0  0  0  0  0  0  0  0  0  0  0
   43.6630   29.0440   42.9010 H   0  0  0  0  0  0  0  0  0  0  0  0
   41.7570   27.3420   43.2380 H   0  0  0  0  0  0  0  0  0  0  0  0
   39.0420   28.0330   42.8700 C   0  0  0  0  0  0  0  0  0  0  0  0
   38.0050   28.5940   43.5620 C   0  0  0  0  0  0  0  0  0  0  0  0
   36.8410   27.8290   43.5380 C   0  0  0  0  0  0  0  0  0  0  0  0
   36.7820   26.6360   42.8720 C   0  0  0  0  0  0  0  0  0  0  0  0
   37.8530   26.1160   42.1910 C   0  0  0  0  0  0  0  0  0  0  0  0
   38.9920   26.8620   42.2150 N   0  0  0  0  0  0  0  0  0  0  0  0
   38.1180   29.5280   44.0610 H   0  0  0  0  0  0  0  0  0  0  0  0
   35.9640   28.2190   44.0740 H   0  0  0  0  0  0  0  0  0  0  0  0
   35.8520   26.0730   42.8800 H   0  0  0  0  0  0  0  0  0  0  0  0
   37.8100   25.1720   41.6630 H   0  0  0  0  0  0  0  0  0  0  0  0
   44.7730   34.7210   40.7350 O   0  0  0  0  0  0  0  0  0  0  0  0
   43.4040   34.2200   41.0900 P   0  0  2  0  0  0  0  0  0  0  0  0
   43.0270   34.7820   42.6100 O   0  0  0  0  0  0  0  0  0  0  0  0
   43.8160   34.7360   43.1820 H   0  0  0  0  0  0  0  0  0  0  0  0
   42.2480   34.7400   39.9170 O   0  0  0  0  0  0  0  0  0  0  0  0
   40.0060   34.8060   40.7300 C   0  0  0  0  0  0  0  0  0  0  0  0
   40.9540   34.2190   39.9140 C   0  0  0  0  0  0  0  0  0  0  0  0
   40.5610   33.1310   39.1280 C   0  0  0  0  0  0  0  0  0  0  0  0
   39.2630   32.7090   39.2120 N   0  0  0  0  0  0  0  0  0  0  0  0
   38.3770   33.3000   40.0090 C   0  0  0  0  0  0  0  0  0  0  0  0
   38.7470   34.3370   40.7600 N   0  0  0  0  0  0  0  0  0  0  0  0
   40.1830   35.6460   41.3790 H   0  0  0  0  0  0  0  0  0  0  0  0
   41.3160   32.6770   38.4910 H   0  0  0  0  0  0  0  0  0  0  0  0
   37.0300   32.8360   40.0730 N   0  0  0  0  0  0  0  0  0  0  0  0
   36.2380   33.4860   40.0550 H   0  0  0  0  0  0  0  0  0  0  0  0
   36.6590   31.1550   40.1860 S   0  0  0  0  0  0  0  0  0  0  0  0
   37.8630   30.3360   40.4700 O   0  0  0  0  0  1  0  0  0  0  0  0
   36.0660   30.6590   38.8840 O   0  0  0  0  0  1  0  0  0  0  0  0
   35.5490   30.9460   41.4300 O   0  0  0  0  0  0  0  0  0  0  0  0
   35.7250   31.6740   42.1030 H   0  0  0  0  0  0  0  0  0  0  0  0
  1  2  1  0  0  0  0
  2  4  1  0  0  0  0
  2  3  2  0  0  0  0
  4  5  2  0  0  0  0
  5  9  1  0  0  0  0
  5  6  1  0  0  0  0
  6 10  1  0  0  0  0
  7 11  1  0  0  0  0
  7  6  2  0  0  0  0
  8  4  1  0  0  0  0
  8  7  1  0  0  0  0
 11 12  1  0  0  0  0
 12 17  1  0  0  0  0
 13 12  2  0  0  0  0
 13 18  1  0  0  0  0
 14 19  1  0  0  0  0
 14 13  1  0  0  0  0
 15 16  1  0  0  0  0
 15 14  2  0  0  0  0
 16 11  2  0  0  0  0
 20 15  1  0  0  0  0
 22 21  2  6  0  0  0
 22  1  1  0  0  0  0
 22 23  1  0  0  0  0
 23 24  1  0  0  0  0
 25 22  1  0  0  0  0
 26 31  1  0  0  0  0
 26 32  1  0  0  0  0
 27 25  1  0  0  0  0
 27 26  2  0  0  0  0
 28 29  2  0  0  0  0
 28 27  1  0  0  0  0
 29 30  1  0  0  0  0
 30 34  1  0  0  0  0
 30 31  2  0  0  0  0
 33 28  1  0  0  0  0
 34 36  1  0  0  0  0
 35 34  1  0  0  0  0
 36 37  1  0  0  0  0
 36 39  1  0  0  0  0
 38 36  1  0  0  0  0
 39 40  1  0  0  0  0
M  END
>  <minimizedAffinity>
-6.8225565

$$$$

 OpenBabel03242514403D

 40 42  0  0  0  0  0  0  0  0999 V2000
   37.8460   30.4200   40.0850 O   0  0  0  0  0  0  0  0  0  0  0  0
   38.1980   31.6830   39.8280 C   0  0  0  0  0  0  0  0  0  0  0  0
   37.3450   32.2660   39.0400 O   0  0  0  0  0  0  0  0  0  0  0  0
   39.2340   32.7000   40.1150 C   0  0  0  0  0  0  0  0  0  0  0  0
   39.0720   34.1020   40.1150 C   0  0  0  0  0  0  0  0  0  0  0  0
   40.2070   34.7940   40.4150 C   0  0  0  0  0  0  0  0  0  0  0  0
   41.3700   34.1980   40.6880 C   0  0  0  0  0  0  0  0  0  0  0  0
   40.9070   32.3820   40.5220 S   0  0  0  0  0  0  0  0  0  0  0  0
   38.1300   34.5830   39.8940 H   0  0  0  0  0  0  0  0  0  0  0  0
   40.2880   35.8710   40.4650 H   0  0  0  0  0  0  0  0  0  0  0  0
   42.7220   34.5530   41.0330 C   0  0  0  0  0  0  0  0  0  0  0  0
   43.0010   35.3900   42.0770 C   0  0  0  0  0  0  0  0  0  0  0  0
   44.3640   35.6180   42.2580 C   0  0  0  0  0  0  0  0  0  0  0  0
   45.3000   35.0390   41.4460 C   0  0  0  0  0  0  0  0  0  0  0  0
   44.9660   34.2060   40.4100 C   0  0  0  0  0  0  0  0  0  0  0  0
   43.6340   33.9820   40.2310 N   0  0  0  0  0  0  0  0  0  0  0  0
   42.2230   35.8080   42.6710 H   0  0  0  0  0  0  0  0  0  0  0  0
   44.6640   36.2820   43.0800 H   0  0  0  0  0  0  0  0  0  0  0  0
   46.3520   35.2470   41.6240 H   0  0  0  0  0  0  0  0  0  0  0  0
   45.7050   33.7460   39.7660 H   0  0  0  0  0  0  0  0  0  0  0  0
   35.8200   28.8450   40.3250 O   0  0  0  0  0  0  0  0  0  0  0  0
   36.5980   29.8960   41.0600 P   0  0  2  0  0  0  0  0  0  0  0  0
   35.5790   31.1790   41.3540 O   0  0  0  0  0  0  0  0  0  0  0  0
   35.0100   31.3320   40.5760 H   0  0  0  0  0  0  0  0  0  0  0  0
   37.2460   29.2530   42.5260 O   0  0  0  0  0  0  0  0  0  0  0  0
   38.3030   27.1300   42.2630 C   0  0  0  0  0  0  0  0  0  0  0  0
   38.4100   28.4850   42.5110 C   0  0  0  0  0  0  0  0  0  0  0  0
   39.6860   29.0120   42.7360 C   0  0  0  0  0  0  0  0  0  0  0  0
   40.7530   28.1590   42.6970 N   0  0  0  0  0  0  0  0  0  0  0  0
   40.6120   26.8580   42.4530 C   0  0  0  0  0  0  0  0  0  0  0  0
   39.3990   26.3520   42.2390 N   0  0  0  0  0  0  0  0  0  0  0  0
   37.3810   26.6070   42.0760 H   0  0  0  0  0  0  0  0  0  0  0  0
   39.7580   30.0790   42.9310 H   0  0  0  0  0  0  0  0  0  0  0  0
   41.7460   25.9950   42.4190 N   0  0  0  0  0  0  0  0  0  0  0  0
   41.8650   25.2960   41.6790 H   0  0  0  0  0  0  0  0  0  0  0  0
   42.9800   26.0760   43.6220 S   0  0  0  0  0  0  0  0  0  0  0  0
   42.4430   26.4840   44.9440 O   0  0  0  0  0  1  0  0  0  0  0  0
   44.0350   27.0880   43.2250 O   0  0  0  0  0  1  0  0  0  0  0  0
   43.6770   24.5540   43.7610 O   0  0  0  0  0  0  0  0  0  0  0  0
   42.9620   23.8840   43.5320 H   0  0  0  0  0  0  0  0  0  0  0  0
  1 22  1  0  0  0  0
  2  1  1  0  0  0  0
  2  4  1  0  0  0  0
  3  2  2  0  0  0  0
  4  5  2  0  0  0  0
  4  8  1  0  0  0  0
  5  6  1  0  0  0  0
  6 10  1  0  0  0  0
  6  7  2  0  0  0  0
  7 11  1  0  0  0  0
  8  7  1  0  0  0  0
  9  5  1  0  0  0  0
 11 12  1  0  0  0  0
 12 13  2  0  0  0  0
 12 17  1  0  0  0  0
 13 18  1  0  0  0  0
 14 19  1  0  0  0  0
 14 13  1  0  0  0  0
 15 14  2  0  0  0  0
 16 15  1  0  0  0  0
 16 11  2  0  0  0  0
 20 15  1  0  0  0  0
 22 21  2  6  0  0  0
 22 23  1  0  0  0  0
 22 25  1  0  0  0  0
 24 23  1  0  0  0  0
 26 27  1  0  0  0  0
 27 25  1  0  0  0  0
 27 28  2  0  0  0  0
 28 33  1  0  0  0  0
 29 28  1  0  0  0  0
 30 29  2  0  0  0  0
 31 26  2  0  0  0  0
 31 30  1  0  0  0  0
 32 26  1  0  0  0  0
 34 30  1  0  0  0  0
 34 36  1  0  0  0  0
 35 34  1  0  0  0  0
 36 39  1  0  0  0  0
 36 37  1  0  0  0  0
 38 36  1  0  0  0  0
 40 39  1  0  0  0  0
M  END
>  <minimizedAffinity>
-6.54273987

$$$$

 OpenBabel03242514403D

 40 42  0  0  0  0  0  0  0  0999 V2000
   36.7660   30.4170   37.2130 O   0  0  0  0  0  0  0  0  0  0  0  0
   36.2490   29.6210   38.1530 C   0  0  0  0  0  0  0  0  0  0  0  0
   35.0050   29.3370   37.9080 O   0  0  0  0  0  0  0  0  0  0  0  0
   36.5770   28.9180   39.4140 C   0  0  0  0  0  0  0  0  0  0  0  0
   35.7770   28.8370   40.5740 C   0  0  0  0  0  0  0  0  0  0  0  0
   36.3390   28.1210   41.5880 C   0  0  0  0  0  0  0  0  0  0  0  0
   37.5400   27.5460   41.4930 C   0  0  0  0  0  0  0  0  0  0  0  0
   38.0450   28.0250   39.7450 S   0  0  0  0  0  0  0  0  0  0  0  0
   34.8060   29.3030   40.6500 H   0  0  0  0  0  0  0  0  0  0  0  0
   35.8870   27.9450   42.5550 H   0  0  0  0  0  0  0  0  0  0  0  0
   38.4340   26.7500   42.2930 C   0  0  0  0  0  0  0  0  0  0  0  0
   39.0830   27.2690   43.3770 C   0  0  0  0  0  0  0  0  0  0  0  0
   39.9060   26.3500   44.0270 C   0  0  0  0  0  0  0  0  0  0  0  0
   40.0220   25.0600   43.5880 C   0  0  0  0  0  0  0  0  0  0  0  0
   39.3470   24.5880   42.4920 C   0  0  0  0  0  0  0  0  0  0  0  0
   38.5440   25.4860   41.8560 N   0  0  0  0  0  0  0  0  0  0  0  0
   38.9480   28.2850   43.6660 H   0  0  0  0  0  0  0  0  0  0  0  0
   40.4600   26.6990   44.9090 H   0  0  0  0  0  0  0  0  0  0  0  0
   40.6760   24.3780   44.1250 H   0  0  0  0  0  0  0  0  0  0  0  0
   39.4380   23.5680   42.1420 H   0  0  0  0  0  0  0  0  0  0  0  0
   37.4360   32.5880   38.4280 O   0  0  0  0  0  0  0  0  0  0  0  0
   37.9260   31.5990   37.4130 P   0  0  2  0  0  0  0  0  0  0  0  0
   38.1230   32.4000   35.9670 O   0  0  0  0  0  0  0  0  0  0  0  0
   37.3900   33.0320   35.8390 H   0  0  0  0  0  0  0  0  0  0  0  0
   39.4010   30.8710   37.9410 O   0  0  0  0  0  0  0  0  0  0  0  0
   39.8300   31.4410   40.2170 C   0  0  0  0  0  0  0  0  0  0  0  0
   40.2050   31.5030   38.8890 C   0  0  0  0  0  0  0  0  0  0  0  0
   41.3750   32.2010   38.5680 C   0  0  0  0  0  0  0  0  0  0  0  0
   42.0800   32.7800   39.5860 N   0  0  0  0  0  0  0  0  0  0  0  0
   41.6890   32.6980   40.8550 C   0  0  0  0  0  0  0  0  0  0  0  0
   40.5760   32.0360   41.1650 N   0  0  0  0  0  0  0  0  0  0  0  0
   38.9560   30.9370   40.5900 H   0  0  0  0  0  0  0  0  0  0  0  0
   41.6580   32.2430   37.5200 H   0  0  0  0  0  0  0  0  0  0  0  0
   42.4480   33.3140   41.8930 N   0  0  0  0  0  0  0  0  0  0  0  0
   42.6540   32.8240   42.7690 H   0  0  0  0  0  0  0  0  0  0  0  0
   43.0620   34.9190   41.7330 S   0  0  0  0  0  0  0  0  0  0  0  0
   43.7370   35.3820   42.9710 O   0  0  0  0  0  1  0  0  0  0  0  0
   41.9340   35.8860   41.4380 O   0  0  0  0  0  1  0  0  0  0  0  0
   44.1670   34.9330   40.4680 O   0  0  0  0  0  0  0  0  0  0  0  0
   44.5800   34.0160   40.4310 H   0  0  0  0  0  0  0  0  0  0  0  0
  1 22  1  0  0  0  0
  1  2  1  0  0  0  0
  2  4  1  0  0  0  0
  3  2  2  0  0  0  0
  4  8  1  0  0  0  0
  4  5  2  0  0  0  0
  5  9  1  0  0  0  0
  5  6  1  0  0  0  0
  6 10  1  0  0  0  0
  7  6  2  0  0  0  0
  7 11  1  0  0  0  0
  8  7  1  0  0  0  0
 11 12  1  0  0  0  0
 12 17  1  0  0  0  0
 12 13  2  0  0  0  0
 13 18  1  0  0  0  0
 14 13  1  0  0  0  0
 14 19  1  0  0  0  0
 15 14  2  0  0  0  0
 16 11  2  0  0  0  0
 16 15  1  0  0  0  0
 20 15  1  0  0  0  0
 22 25  1  0  0  0  0
 22 21  2  1  0  0  0
 23 22  1  0  0  0  0
 24 23  1  0  0  0  0
 25 27  1  0  0  0  0
 26 32  1  0  0  0  0
 26 31  1  0  0  0  0
 27 26  2  0  0  0  0
 28 27  1  0  0  0  0
 28 29  2  0  0  0  0
 29 30  1  0  0  0  0
 30 31  2  0  0  0  0
 30 34  1  0  0  0  0
 33 28  1  0  0  0  0
 34 35  1  0  0  0  0
 36 34  1  0  0  0  0
 36 37  1  0  0  0  0
 38 36  1  0  0  0  0
 39 36  1  0  0  0  0
 40 39  1  0  0  0  0
M  END
>  <minimizedAffinity>
-6.5108161

$$$$

 OpenBabel03242514403D

 40 42  0  0  0  0  0  0  0  0999 V2000
   37.8390   32.6340   38.5640 O   0  0  0  0  0  0  0  0  0  0  0  0
   38.5590   32.7270   39.6860 C   0  0  0  0  0  0  0  0  0  0  0  0
   37.8120   32.6220   40.7440 O   0  0  0  0  0  0  0  0  0  0  0  0
   39.9390   32.9110   40.1890 C   0  0  0  0  0  0  0  0  0  0  0  0
   40.9080   31.9070   40.3990 C   0  0  0  0  0  0  0  0  0  0  0  0
   42.0970   32.3730   40.8750 C   0  0  0  0  0  0  0  0  0  0  0  0
   42.3260   33.6650   41.1190 C   0  0  0  0  0  0  0  0  0  0  0  0
   40.6770   34.4330   40.6410 S   0  0  0  0  0  0  0  0  0  0  0  0
   40.7210   30.8620   40.2010 H   0  0  0  0  0  0  0  0  0  0  0  0
   42.9620   31.7630   41.0990 H   0  0  0  0  0  0  0  0  0  0  0  0
   43.3870   34.5120   41.5980 C   0  0  0  0  0  0  0  0  0  0  0  0
   44.6900   34.3030   41.2430 C   0  0  0  0  0  0  0  0  0  0  0  0
   45.5740   35.2220   41.8050 C   0  0  0  0  0  0  0  0  0  0  0  0
   45.1380   36.2240   42.6270 C   0  0  0  0  0  0  0  0  0  0  0  0
   43.8160   36.3900   42.9530 C   0  0  0  0  0  0  0  0  0  0  0  0
   42.9510   35.4910   42.4060 N   0  0  0  0  0  0  0  0  0  0  0  0
   44.9630   33.5020   40.5970 H   0  0  0  0  0  0  0  0  0  0  0  0
   46.6410   35.1160   41.5620 H   0  0  0  0  0  0  0  0  0  0  0  0
   45.8640   36.9180   43.0430 H   0  0  0  0  0  0  0  0  0  0  0  0
   43.4680   37.1820   43.6040 H   0  0  0  0  0  0  0  0  0  0  0  0
   39.4970   31.1310   37.2860 O   0  0  0  0  0  0  0  0  0  0  0  0
   38.0600   31.5620   37.3060 P   0  0  2  0  0  0  0  0  0  0  0  0
   37.7380   32.3490   35.8750 O   0  0  0  0  0  0  0  0  0  0  0  0
   38.4970   32.9110   35.6310 H   0  0  0  0  0  0  0  0  0  0  0  0
   37.0240   30.1970   37.5260 O   0  0  0  0  0  0  0  0  0  0  0  0
   35.6530   29.7210   39.4190 C   0  0  0  0  0  0  0  0  0  0  0  0
   36.8750   29.6130   38.7840 C   0  0  0  0  0  0  0  0  0  0  0  0
   37.8990   28.9230   39.4400 C   0  0  0  0  0  0  0  0  0  0  0  0
   37.6330   28.3940   40.6730 N   0  0  0  0  0  0  0  0  0  0  0  0
   36.4430   28.5160   41.2540 C   0  0  0  0  0  0  0  0  0  0  0  0
   35.4650   29.1740   40.6330 N   0  0  0  0  0  0  0  0  0  0  0  0
   34.7910   30.2250   39.0200 H   0  0  0  0  0  0  0  0  0  0  0  0
   38.8550   28.8450   38.9310 H   0  0  0  0  0  0  0  0  0  0  0  0
   36.1980   27.9520   42.5410 N   0  0  0  0  0  0  0  0  0  0  0  0
   35.3410   27.4270   42.7410 H   0  0  0  0  0  0  0  0  0  0  0  0
   37.3280   28.1240   43.8330 S   0  0  0  0  0  0  0  0  0  0  0  0
   38.3650   27.0620   43.8100 O   0  0  0  0  0  1  0  0  0  0  0  0
   36.6180   28.0410   45.1680 O   0  0  0  0  0  1  0  0  0  0  0  0
   38.0750   29.6220   43.6790 O   0  0  0  0  0  0  0  0  0  0  0  0
   38.0920   29.8400   42.6970 H   0  0  0  0  0  0  0  0  0  0  0  0
  1  2  1  0  0  0  0
  2  4  1  0  0  0  0
  2  3  2  0  0  0  0
  4  5  2  0  0  0  0
  4  8  1  0  0  0  0
  5  6  1  0  0  0  0
  6 10  1  0  0  0  0
  6  7  2  0  0  0  0
  7 11  1  0  0  0  0
  8  7  1  0  0  0  0
  9  5  1  0  0  0  0
 11 16  1  0  0  0  0
 12 11  2  0  0  0  0
 12 13  1  0  0  0  0
 13 14  2  0  0  0  0
 14 15  1  0  0  0  0
 14 19  1  0  0  0  0
 15 20  1  0  0  0  0
 16 15  2  0  0  0  0
 17 12  1  0  0  0  0
 18 13  1  0  0  0  0
 22 21  2  6  0  0  0
 22 25  1  0  0  0  0
 22  1  1  0  0  0  0
 23 22  1  0  0  0  0
 24 23  1  0  0  0  0
 25 27  1  0  0  0  0
 26 31  1  0  0  0  0
 27 26  2  0  0  0  0
 27 28  1  0  0  0  0
 28 29  2  0  0  0  0
 29 30  1  0  0  0  0
 30 34  1  0  0  0  0
 31 30  2  0  0  0  0
 32 26  1  0  0  0  0
 33 28  1  0  0  0  0
 34 35  1  0  0  0  0
 34 36  1  0  0  0  0
 36 38  1  0  0  0  0
 37 36  1  0  0  0  0
 39 36  1  0  0  0  0
 40 39  1  0  0  0  0
M  END
>  <minimizedAffinity>
-6.38027716

$$$$

 OpenBabel03242514403D

 40 42  0  0  0  0  0  0  0  0999 V2000
   37.9080   27.1170   39.3840 O   0  0  0  0  0  0  0  0  0  0  0  0
   37.3070   28.2730   39.6840 C   0  0  0  0  0  0  0  0  0  0  0  0
   36.0970   28.0830   40.1180 O   0  0  0  0  0  0  0  0  0  0  0  0
   37.5130   29.7380   39.7060 C   0  0  0  0  0  0  0  0  0  0  0  0
   36.5160   30.7360   39.7490 C   0  0  0  0  0  0  0  0  0  0  0  0
   37.0020   32.0090   39.7590 C   0  0  0  0  0  0  0  0  0  0  0  0
   38.3080   32.2880   39.7320 C   0  0  0  0  0  0  0  0  0  0  0  0
   39.0570   30.5630   39.6830 S   0  0  0  0  0  0  0  0  0  0  0  0
   35.4600   30.5080   39.7710 H   0  0  0  0  0  0  0  0  0  0  0  0
   36.4010   32.9070   39.7900 H   0  0  0  0  0  0  0  0  0  0  0  0
   39.1760   33.4360   39.7310 C   0  0  0  0  0  0  0  0  0  0  0  0
   40.4700   33.3580   39.2980 C   0  0  0  0  0  0  0  0  0  0  0  0
   41.1560   34.5690   39.3720 C   0  0  0  0  0  0  0  0  0  0  0  0
   40.5530   35.7040   39.8380 C   0  0  0  0  0  0  0  0  0  0  0  0
   39.2490   35.7300   40.2610 C   0  0  0  0  0  0  0  0  0  0  0  0
   38.5780   34.5460   40.1900 N   0  0  0  0  0  0  0  0  0  0  0  0
   40.8790   32.4390   38.9460 H   0  0  0  0  0  0  0  0  0  0  0  0
   42.2030   34.5810   39.0390 H   0  0  0  0  0  0  0  0  0  0  0  0
   41.1280   36.6270   39.8770 H   0  0  0  0  0  0  0  0  0  0  0  0
   38.7700   36.6270   40.6300 H   0  0  0  0  0  0  0  0  0  0  0  0
   38.2190   24.6010   38.9210 O   0  0  0  0  0  0  0  0  0  0  0  0
   37.3090   25.5770   39.6070 P   0  0  2  0  0  0  0  0  0  0  0  0
   35.8120   25.4800   38.8860 O   0  0  0  0  0  0  0  0  0  0  0  0
   35.9180   25.3820   37.9200 H   0  0  0  0  0  0  0  0  0  0  0  0
   37.2210   25.2350   41.2980 O   0  0  0  0  0  0  0  0  0  0  0  0
   38.2860   26.6660   42.8820 C   0  0  0  0  0  0  0  0  0  0  0  0
   38.3040   25.5040   42.1340 C   0  0  0  0  0  0  0  0  0  0  0  0
   39.4120   24.6600   42.2590 C   0  0  0  0  0  0  0  0  0  0  0  0
   40.4140   25.0310   43.1120 N   0  0  0  0  0  0  0  0  0  0  0  0
   40.3620   26.1580   43.8170 C   0  0  0  0  0  0  0  0  0  0  0  0
   39.3100   26.9660   43.7010 N   0  0  0  0  0  0  0  0  0  0  0  0
   37.4940   27.3940   42.8740 H   0  0  0  0  0  0  0  0  0  0  0  0
   39.4150   23.7490   41.6660 H   0  0  0  0  0  0  0  0  0  0  0  0
   41.4250   26.5170   44.6980 N   0  0  0  0  0  0  0  0  0  0  0  0
   41.2410   26.8680   45.6430 H   0  0  0  0  0  0  0  0  0  0  0  0
   43.0780   26.3810   44.2230 S   0  0  0  0  0  0  0  0  0  0  0  0
   44.0050   26.6930   45.3390 O   0  0  0  0  0  1  0  0  0  0  0  0
   43.3810   27.3430   43.0940 O   0  0  0  0  0  1  0  0  0  0  0  0
   43.3470   24.8030   43.7120 O   0  0  0  0  0  0  0  0  0  0  0  0
   42.7140   24.2170   44.2300 H   0  0  0  0  0  0  0  0  0  0  0  0
  1 22  1  0  0  0  0
  1  2  1  0  0  0  0
  2  4  1  0  0  0  0
  2  3  2  0  0  0  0
  4  5  2  0  0  0  0
  5  6  1  0  0  0  0
  5  9  1  0  0  0  0
  6 10  1  0  0  0  0
  7  6  2  0  0  0  0
  8  4  1  0  0  0  0
  8  7  1  0  0  0  0
 11  7  1  0  0  0  0
 11 16  1  0  0  0  0
 12 13  1  0  0  0  0
 12 11  2  0  0  0  0
 13 14  2  0  0  0  0
 14 19  1  0  0  0  0
 14 15  1  0  0  0  0
 15 20  1  0  0  0  0
 16 15  2  0  0  0  0
 17 12  1  0  0  0  0
 18 13  1  0  0  0  0
 22 21  2  6  0  0  0
 22 25  1  0  0  0  0
 23 22  1  0  0  0  0
 24 23  1  0  0  0  0
 25 27  1  0  0  0  0
 26 31  1  0  0  0  0
 27 28  1  0  0  0  0
 27 26  2  0  0  0  0
 28 29  2  0  0  0  0
 29 30  1  0  0  0  0
 30 34  1  0  0  0  0
 31 30  2  0  0  0  0
 32 26  1  0  0  0  0
 33 28  1  0  0  0  0
 34 35  1  0  0  0  0
 36 34  1  0  0  0  0
 36 37  1  0  0  0  0
 38 36  1  0  0  0  0
 39 36  1  0  0  0  0
 39 40  1  0  0  0  0
M  END
>  <minimizedAffinity>
-6.30861855

$$$$

 OpenBabel03242514403D

 40 42  0  0  0  0  0  0  0  0999 V2000
   38.9210   28.1660   41.8650 O   0  0  0  0  0  0  0  0  0  0  0  0
   38.6300   26.9010   42.1850 C   0  0  0  0  0  0  0  0  0  0  0  0
   38.8950   26.6520   43.4330 O   0  0  0  0  0  0  0  0  0  0  0  0
   38.1020   25.6360   41.6290 C   0  0  0  0  0  0  0  0  0  0  0  0
   36.8270   25.0750   41.8540 C   0  0  0  0  0  0  0  0  0  0  0  0
   36.6170   23.8930   41.2090 C   0  0  0  0  0  0  0  0  0  0  0  0
   37.5360   23.3160   40.4320 C   0  0  0  0  0  0  0  0  0  0  0  0
   38.9550   24.5440   40.5590 S   0  0  0  0  0  0  0  0  0  0  0  0
   36.0840   25.5430   42.4840 H   0  0  0  0  0  0  0  0  0  0  0  0
   35.7070   23.3090   41.2550 H   0  0  0  0  0  0  0  0  0  0  0  0
   37.6930   22.1360   39.6230 C   0  0  0  0  0  0  0  0  0  0  0  0
   37.1630   22.0510   38.3660 C   0  0  0  0  0  0  0  0  0  0  0  0
   37.4170   20.8330   37.7370 C   0  0  0  0  0  0  0  0  0  0  0  0
   38.1340   19.8450   38.3530 C   0  0  0  0  0  0  0  0  0  0  0  0
   38.6450   19.9820   39.6180 C   0  0  0  0  0  0  0  0  0  0  0  0
   38.3960   21.1710   40.2350 N   0  0  0  0  0  0  0  0  0  0  0  0
   36.6140   22.8590   37.9440 H   0  0  0  0  0  0  0  0  0  0  0  0
   37.0200   20.6930   36.7210 H   0  0  0  0  0  0  0  0  0  0  0  0
   38.3070   18.9120   37.8240 H   0  0  0  0  0  0  0  0  0  0  0  0
   39.2120   19.2010   40.1090 H   0  0  0  0  0  0  0  0  0  0  0  0
   39.3380   30.3310   43.1990 O   0  0  0  0  0  0  0  0  0  0  0  0
   38.2550   29.5520   42.5120 P   0  0  2  0  0  0  0  0  0  0  0  0
   37.1290   29.1150   43.6570 O   0  0  0  0  0  0  0  0  0  0  0  0
   37.5820   28.8550   44.4820 H   0  0  0  0  0  0  0  0  0  0  0  0
   37.5440   30.4910   41.2490 O   0  0  0  0  0  0  0  0  0  0  0  0
   38.7860   30.5200   39.2120 C   0  0  0  0  0  0  0  0  0  0  0  0
   38.3460   31.1840   40.3420 C   0  0  0  0  0  0  0  0  0  0  0  0
   38.7300   32.5180   40.5120 C   0  0  0  0  0  0  0  0  0  0  0  0
   39.5190   33.0890   39.5530 N   0  0  0  0  0  0  0  0  0  0  0  0
   39.9240   32.4190   38.4770 C   0  0  0  0  0  0  0  0  0  0  0  0
   39.5610   31.1490   38.3110 N   0  0  0  0  0  0  0  0  0  0  0  0
   38.5600   29.4970   38.9690 H   0  0  0  0  0  0  0  0  0  0  0  0
   38.3780   33.0280   41.4040 H   0  0  0  0  0  0  0  0  0  0  0  0
   40.7470   33.0460   37.4950 N   0  0  0  0  0  0  0  0  0  0  0  0
   40.5590   32.9410   36.4930 H   0  0  0  0  0  0  0  0  0  0  0  0
   42.1060   34.0130   37.9380 S   0  0  0  0  0  0  0  0  0  0  0  0
   43.0640   33.2680   38.7920 O   0  0  0  0  0  1  0  0  0  0  0  0
   41.6530   35.2310   38.7140 O   0  0  0  0  0  1  0  0  0  0  0  0
   42.8860   34.4940   36.5300 O   0  0  0  0  0  0  0  0  0  0  0  0
   42.7310   33.7700   35.8480 H   0  0  0  0  0  0  0  0  0  0  0  0
  1  2  1  0  0  0  0
  1 22  1  0  0  0  0
  2  3  2  0  0  0  0
  4  5  2  0  0  0  0
  4  2  1  0  0  0  0
  5  9  1  0  0  0  0
  6 10  1  0  0  0  0
  6  5  1  0  0  0  0
  7  8  1  0  0  0  0
  7  6  2  0  0  0  0
  8  4  1  0  0  0  0
 11 16  1  0  0  0  0
 11  7  1  0  0  0  0
 12 11  2  0  0  0  0
 13 14  2  0  0  0  0
 13 12  1  0  0  0  0
 14 15  1  0  0  0  0
 15 20  1  0  0  0  0
 15 16  2  0  0  0  0
 17 12  1  0  0  0  0
 18 13  1  0  0  0  0
 19 14  1  0  0  0  0
 22 21  2  1  0  0  0
 22 23  1  0  0  0  0
 23 24  1  0  0  0  0
 25 22  1  0  0  0  0
 26 27  1  0  0  0  0
 27 28  2  0  0  0  0
 27 25  1  0  0  0  0
 28 33  1  0  0  0  0
 29 28  1  0  0  0  0
 30 29  2  0  0  0  0
 31 30  1  0  0  0  0
 31 26  2  0  0  0  0
 32 26  1  0  0  0  0
 34 36  1  0  0  0  0
 34 30  1  0  0  0  0
 35 34  1  0  0  0  0
 36 38  1  0  0  0  0
 36 37  1  0  0  0  0
 39 36  1  0  0  0  0
 40 39  1  0  0  0  0
M  END
>  <minimizedAffinity>
-6.26277828

$$$$

 OpenBabel03242514403D

 40 42  0  0  0  0  0  0  0  0999 V2000
   36.2390   27.9410   41.4280 O   0  0  0  0  0  0  0  0  0  0  0  0
   36.0430   29.0380   40.6900 C   0  0  0  0  0  0  0  0  0  0  0  0
   34.8030   29.1500   40.3200 O   0  0  0  0  0  0  0  0  0  0  0  0
   36.7370   30.2130   40.1170 C   0  0  0  0  0  0  0  0  0  0  0  0
   36.6610   30.6790   38.7870 C   0  0  0  0  0  0  0  0  0  0  0  0
   37.4140   31.7890   38.5430 C   0  0  0  0  0  0  0  0  0  0  0  0
   38.1570   32.3830   39.4790 C   0  0  0  0  0  0  0  0  0  0  0  0
   37.8170   31.2910   40.9730 S   0  0  0  0  0  0  0  0  0  0  0  0
   36.0600   30.1970   38.0310 H   0  0  0  0  0  0  0  0  0  0  0  0
   37.4890   32.2960   37.5900 H   0  0  0  0  0  0  0  0  0  0  0  0
   39.0430   33.5090   39.6140 C   0  0  0  0  0  0  0  0  0  0  0  0
   38.6430   34.6720   40.2100 C   0  0  0  0  0  0  0  0  0  0  0  0
   39.6360   35.6490   40.2480 C   0  0  0  0  0  0  0  0  0  0  0  0
   40.8810   35.4240   39.7280 C   0  0  0  0  0  0  0  0  0  0  0  0
   41.2330   34.2360   39.1400 C   0  0  0  0  0  0  0  0  0  0  0  0
   40.2620   33.2810   39.1010 N   0  0  0  0  0  0  0  0  0  0  0  0
   37.6560   34.7820   40.5960 H   0  0  0  0  0  0  0  0  0  0  0  0
   39.3850   36.6120   40.7140 H   0  0  0  0  0  0  0  0  0  0  0  0
   41.6240   36.2150   39.7800 H   0  0  0  0  0  0  0  0  0  0  0  0
   42.2170   34.0560   38.7270 H   0  0  0  0  0  0  0  0  0  0  0  0
   36.2030   27.0110   43.8310 O   0  0  0  0  0  0  0  0  0  0  0  0
   37.0340   27.8340   42.8900 P   0  0  2  0  0  0  0  0  0  0  0  0
   37.1750   29.3630   43.5310 O   0  0  0  0  0  0  0  0  0  0  0  0
   36.3250   29.6340   43.9250 H   0  0  0  0  0  0  0  0  0  0  0  0
   38.5790   27.1000   42.6510 O   0  0  0  0  0  0  0  0  0  0  0  0
   38.9880   26.1720   40.4920 C   0  0  0  0  0  0  0  0  0  0  0  0
   38.7150   25.9790   41.8330 C   0  0  0  0  0  0  0  0  0  0  0  0
   38.5880   24.6650   42.2960 C   0  0  0  0  0  0  0  0  0  0  0  0
   38.7420   23.6470   41.3970 N   0  0  0  0  0  0  0  0  0  0  0  0
   39.0060   23.8700   40.1120 C   0  0  0  0  0  0  0  0  0  0  0  0
   39.1270   25.1200   39.6660 N   0  0  0  0  0  0  0  0  0  0  0  0
   39.1080   27.1300   40.0170 H   0  0  0  0  0  0  0  0  0  0  0  0
   38.3730   24.5270   43.3520 H   0  0  0  0  0  0  0  0  0  0  0  0
   39.1610   22.7850   39.2000 N   0  0  0  0  0  0  0  0  0  0  0  0
   39.9270   22.7630   38.5190 H   0  0  0  0  0  0  0  0  0  0  0  0
   38.0680   21.4500   39.1900 S   0  0  0  0  0  0  0  0  0  0  0  0
   38.3990   20.4680   38.1280 O   0  0  0  0  0  1  0  0  0  0  0  0
   36.6530   21.9310   38.9440 O   0  0  0  0  0  1  0  0  0  0  0  0
   38.1560   20.6900   40.6860 O   0  0  0  0  0  0  0  0  0  0  0  0
   39.0920   20.8300   41.0290 H   0  0  0  0  0  0  0  0  0  0  0  0
  1 22  1  0  0  0  0
  2  1  1  0  0  0  0
  3  2  2  0  0  0  0
  4  2  1  0  0  0  0
  4  8  1  0  0  0  0
  5  4  2  0  0  0  0
  6  5  1  0  0  0  0
  6  7  2  0  0  0  0
  7 11  1  0  0  0  0
  7  8  1  0  0  0  0
  9  5  1  0  0  0  0
 10  6  1  0  0  0  0
 11 12  1  0  0  0  0
 12 13  2  0  0  0  0
 12 17  1  0  0  0  0
 13 18  1  0  0  0  0
 14 19  1  0  0  0  0
 14 13  1  0  0  0  0
 15 14  2  0  0  0  0
 16 15  1  0  0  0  0
 16 11  2  0  0  0  0
 20 15  1  0  0  0  0
 22 23  1  0  0  0  0
 22 21  2  1  0  0  0
 23 24  1  0  0  0  0
 25 22  1  0  0  0  0
 26 27  1  0  0  0  0
 27 28  2  0  0  0  0
 27 25  1  0  0  0  0
 28 33  1  0  0  0  0
 29 28  1  0  0  0  0
 30 29  2  0  0  0  0
 31 30  1  0  0  0  0
 31 26  2  0  0  0  0
 32 26  1  0  0  0  0
 34 30  1  0  0  0  0
 35 34  1  0  0  0  0
 36 34  1  0  0  0  0
 36 39  1  0  0  0  0
 37 36  1  0  0  0  0
 38 36  1  0  0  0  0
 39 40  1  0  0  0  0
M  END
>  <minimizedAffinity>
-6.21666861

$$$$

 OpenBabel03242514403D

 40 42  0  0  0  0  0  0  0  0999 V2000
   37.3390   27.7390   41.3690 O   0  0  0  0  0  0  0  0  0  0  0  0
   37.4750   29.0100   41.7600 C   0  0  0  0  0  0  0  0  0  0  0  0
   37.4140   29.1210   43.0540 O   0  0  0  0  0  0  0  0  0  0  0  0
   37.6760   30.3850   41.2520 C   0  0  0  0  0  0  0  0  0  0  0  0
   36.7490   31.1690   40.5320 C   0  0  0  0  0  0  0  0  0  0  0  0
   37.2110   32.4040   40.1900 C   0  0  0  0  0  0  0  0  0  0  0  0
   38.4340   32.8360   40.5080 C   0  0  0  0  0  0  0  0  0  0  0  0
   39.1240   31.3510   41.4330 S   0  0  0  0  0  0  0  0  0  0  0  0
   35.7600   30.8190   40.2750 H   0  0  0  0  0  0  0  0  0  0  0  0
   36.6540   33.1500   39.6390 H   0  0  0  0  0  0  0  0  0  0  0  0
   39.2540   34.0070   40.3410 C   0  0  0  0  0  0  0  0  0  0  0  0
   38.7100   35.2570   40.2390 C   0  0  0  0  0  0  0  0  0  0  0  0
   39.6590   36.2660   40.0810 C   0  0  0  0  0  0  0  0  0  0  0  0
   40.9970   35.9880   40.0370 C   0  0  0  0  0  0  0  0  0  0  0  0
   41.4920   34.7140   40.1440 C   0  0  0  0  0  0  0  0  0  0  0  0
   40.5660   33.7270   40.2980 N   0  0  0  0  0  0  0  0  0  0  0  0
   37.6560   35.4040   40.2810 H   0  0  0  0  0  0  0  0  0  0  0  0
   39.2940   37.2980   39.9930 H   0  0  0  0  0  0  0  0  0  0  0  0
   41.7010   36.8070   39.9120 H   0  0  0  0  0  0  0  0  0  0  0  0
   42.5510   34.4910   40.1090 H   0  0  0  0  0  0  0  0  0  0  0  0
   38.7820   27.9870   39.2480 O   0  0  0  0  0  0  0  0  0  0  0  0
   37.7830   27.0790   39.9030 P   0  0  2  0  0  0  0  0  0  0  0  0
   36.4380   27.0030   38.9250 O   0  0  0  0  0  0  0  0  0  0  0  0
   36.2480   27.8870   38.5580 H   0  0  0  0  0  0  0  0  0  0  0  0
   38.4680   25.5150   40.1620 O   0  0  0  0  0  0  0  0  0  0  0  0
   39.4500   25.0330   42.2820 C   0  0  0  0  0  0  0  0  0  0  0  0
   39.6090   25.3610   40.9490 C   0  0  0  0  0  0  0  0  0  0  0  0
   40.9100   25.5210   40.4620 C   0  0  0  0  0  0  0  0  0  0  0  0
   41.9510   25.3440   41.3310 N   0  0  0  0  0  0  0  0  0  0  0  0
   41.7600   25.0270   42.6090 C   0  0  0  0  0  0  0  0  0  0  0  0
   40.5230   24.8740   43.0780 N   0  0  0  0  0  0  0  0  0  0  0  0
   38.5050   24.8830   42.7730 H   0  0  0  0  0  0  0  0  0  0  0  0
   41.0220   25.7790   39.4130 H   0  0  0  0  0  0  0  0  0  0  0  0
   42.8670   24.8500   43.4900 N   0  0  0  0  0  0  0  0  0  0  0  0
   42.9140   24.0580   44.1390 H   0  0  0  0  0  0  0  0  0  0  0  0
   44.1900   25.9570   43.5130 S   0  0  0  0  0  0  0  0  0  0  0  0
   43.7430   27.3620   43.3410 O   0  0  0  0  0  1  0  0  0  0  0  0
   45.1570   25.6440   42.3910 O   0  0  0  0  0  1  0  0  0  0  0  0
   44.9720   25.8080   44.9930 O   0  0  0  0  0  0  0  0  0  0  0  0
   44.2750   25.5320   45.6640 H   0  0  0  0  0  0  0  0  0  0  0  0
  1  2  1  0  0  0  0
  2  3  2  0  0  0  0
  4  8  1  0  0  0  0
  4  2  1  0  0  0  0
  5  4  2  0  0  0  0
  6  7  2  0  0  0  0
  6  5  1  0  0  0  0
  7  8  1  0  0  0  0
  9  5  1  0  0  0  0
 10  6  1  0  0  0  0
 11  7  1  0  0  0  0
 12 17  1  0  0  0  0
 12 11  2  0  0  0  0
 13 12  1  0  0  0  0
 14 13  2  0  0  0  0
 14 15  1  0  0  0  0
 15 16  2  0  0  0  0
 16 11  1  0  0  0  0
 18 13  1  0  0  0  0
 19 14  1  0  0  0  0
 20 15  1  0  0  0  0
 22 21  2  6  0  0  0
 22 25  1  0  0  0  0
 22  1  1  0  0  0  0
 23 22  1  0  0  0  0
 24 23  1  0  0  0  0
 25 27  1  0  0  0  0
 26 32  1  0  0  0  0
 26 31  1  0  0  0  0
 27 26  2  0  0  0  0
 28 27  1  0  0  0  0
 28 29  2  0  0  0  0
 29 30  1  0  0  0  0
 30 31  2  0  0  0  0
 30 34  1  0  0  0  0
 33 28  1  0  0  0  0
 34 36  1  0  0  0  0
 34 35  1  0  0  0  0
 36 39  1  0  0  0  0
 37 36  1  0  0  0  0
 38 36  1  0  0  0  0
 39 40  1  0  0  0  0
M  END
>  <minimizedAffinity>
-6.1965971

$$$$

 OpenBabel03242514403D

 40 42  0  0  0  0  0  0  0  0999 V2000
   36.2390   29.7140   37.8510 O   0  0  0  0  0  0  0  0  0  0  0  0
   37.3440   30.3700   38.2180 C   0  0  0  0  0  0  0  0  0  0  0  0
   38.4180   29.7160   37.8920 O   0  0  0  0  0  0  0  0  0  0  0  0
   37.8160   31.6050   38.8820 C   0  0  0  0  0  0  0  0  0  0  0  0
   37.0200   32.6570   39.3850 C   0  0  0  0  0  0  0  0  0  0  0  0
   37.7330   33.6740   39.9460 C   0  0  0  0  0  0  0  0  0  0  0  0
   39.0660   33.6760   40.0150 C   0  0  0  0  0  0  0  0  0  0  0  0
   39.4840   32.0370   39.1900 S   0  0  0  0  0  0  0  0  0  0  0  0
   35.9420   32.6540   39.3290 H   0  0  0  0  0  0  0  0  0  0  0  0
   37.3080   34.5670   40.3850 H   0  0  0  0  0  0  0  0  0  0  0  0
   40.1300   34.5140   40.5020 C   0  0  0  0  0  0  0  0  0  0  0  0
   39.9550   35.8530   40.7080 C   0  0  0  0  0  0  0  0  0  0  0  0
   41.0970   36.4980   41.1790 C   0  0  0  0  0  0  0  0  0  0  0  0
   42.2620   35.8180   41.4020 C   0  0  0  0  0  0  0  0  0  0  0  0
   42.3860   34.4710   41.1780 C   0  0  0  0  0  0  0  0  0  0  0  0
   41.2710   33.8390   40.7160 N   0  0  0  0  0  0  0  0  0  0  0  0
   39.0180   36.3220   40.5140 H   0  0  0  0  0  0  0  0  0  0  0  0
   41.0290   37.5790   41.3680 H   0  0  0  0  0  0  0  0  0  0  0  0
   43.1280   36.3630   41.7690 H   0  0  0  0  0  0  0  0  0  0  0  0
   43.3070   33.9300   41.3530 H   0  0  0  0  0  0  0  0  0  0  0  0
   33.8100   28.9250   38.1990 O   0  0  0  0  0  0  0  0  0  0  0  0
   35.1670   28.9040   38.8390 P   0  0  2  0  0  0  0  0  0  0  0  0
   35.0650   29.7140   40.2890 O   0  0  0  0  0  0  0  0  0  0  0  0
   34.4960   30.5000   40.1870 H   0  0  0  0  0  0  0  0  0  0  0  0
   35.7060   27.2770   39.0580 O   0  0  0  0  0  0  0  0  0  0  0  0
   37.9330   26.4250   38.9860 C   0  0  0  0  0  0  0  0  0  0  0  0
   36.9100   27.0090   39.7090 C   0  0  0  0  0  0  0  0  0  0  0  0
   37.1410   27.2990   41.0570 C   0  0  0  0  0  0  0  0  0  0  0  0
   38.3640   26.9890   41.5840 N   0  0  0  0  0  0  0  0  0  0  0  0
   39.3260   26.4270   40.8560 C   0  0  0  0  0  0  0  0  0  0  0  0
   39.1110   26.1480   39.5720 N   0  0  0  0  0  0  0  0  0  0  0  0
   37.8780   26.1550   37.9460 H   0  0  0  0  0  0  0  0  0  0  0  0
   36.3290   27.7580   41.6150 H   0  0  0  0  0  0  0  0  0  0  0  0
   40.5910   26.1160   41.4360 N   0  0  0  0  0  0  0  0  0  0  0  0
   41.4690   26.3350   40.9550 H   0  0  0  0  0  0  0  0  0  0  0  0
   40.7150   25.3520   42.9790 S   0  0  0  0  0  0  0  0  0  0  0  0
   39.6970   24.2870   43.1560 O   0  0  0  0  0  1  0  0  0  0  0  0
   40.5120   26.3670   44.0850 O   0  0  0  0  0  1  0  0  0  0  0  0
   42.2470   24.6740   43.1050 O   0  0  0  0  0  0  0  0  0  0  0  0
   42.5330   24.4250   42.1730 H   0  0  0  0  0  0  0  0  0  0  0  0
  1  2  1  0  0  0  0
  1 22  1  0  0  0  0
  2  4  1  0  0  0  0
  3  2  2  0  0  0  0
  4  8  1  0  0  0  0
  4  5  2  0  0  0  0
  5  6  1  0  0  0  0
  6  7  2  0  0  0  0
  6 10  1  0  0  0  0
  7 11  1  0  0  0  0
  8  7  1  0  0  0  0
  9  5  1  0  0  0  0
 11 12  2  0  0  0  0
 11 16  1  0  0  0  0
 12 13  1  0  0  0  0
 13 18  1  0  0  0  0
 13 14  2  0  0  0  0
 14 19  1  0  0  0  0
 15 20  1  0  0  0  0
 15 14  1  0  0  0  0
 16 15  2  0  0  0  0
 17 12  1  0  0  0  0
 22 21  2  6  0  0  0
 22 25  1  0  0  0  0
 22 23  1  0  0  0  0
 24 23  1  0  0  0  0
 25 27  1  0  0  0  0
 26 31  2  0  0  0  0
 26 27  1  0  0  0  0
 27 28  2  0  0  0  0
 28 29  1  0  0  0  0
 28 33  1  0  0  0  0
 30 34  1  0  0  0  0
 30 29  2  0  0  0  0
 31 30  1  0  0  0  0
 32 26  1  0  0  0  0
 34 36  1  0  0  0  0
 35 34  1  0  0  0  0
 36 39  1  0  0  0  0
 36 37  1  0  0  0  0
 36 38  1  0  0  0  0
 40 39  1  0  0  0  0
M  END
>  <minimizedAffinity>
-6.12679625

$$$$
