
 OpenBabel03242514393D

 40 42  0  0  0  0  0  0  0  0999 V2000
   48.1180   33.9370   40.1720 O   0  0  0  0  0  0  0  0  0  0  0  0
   47.4600   33.5220   39.0850 C   0  0  0  0  0  0  0  0  0  0  0  0
   46.1770   33.4840   39.2890 O   0  0  0  0  0  0  0  0  0  0  0  0
   47.6550   33.0730   37.6880 C   0  0  0  0  0  0  0  0  0  0  0  0
   48.5910   33.5720   36.7580 C   0  0  0  0  0  0  0  0  0  0  0  0
   48.5410   32.9660   35.5380 C   0  0  0  0  0  0  0  0  0  0  0  0
   47.6830   31.9850   35.2490 C   0  0  0  0  0  0  0  0  0  0  0  0
   46.7530   31.8120   36.8760 S   0  0  0  0  0  0  0  0  0  0  0  0
   49.2850   34.3650   36.9930 H   0  0  0  0  0  0  0  0  0  0  0  0
   49.1740   33.2050   34.6950 H   0  0  0  0  0  0  0  0  0  0  0  0
   47.3330   31.1350   34.1420 C   0  0  0  0  0  0  0  0  0  0  0  0
   46.1530   30.4480   34.1070 C   0  0  0  0  0  0  0  0  0  0  0  0
   45.9900   29.6760   32.9580 C   0  0  0  0  0  0  0  0  0  0  0  0
   46.9460   29.6400   31.9800 C   0  0  0  0  0  0  0  0  0  0  0  0
   48.1160   30.3500   32.0630 C   0  0  0  0  0  0  0  0  0  0  0  0
   48.2760   31.1030   33.1870 N   0  0  0  0  0  0  0  0  0  0  0  0
   45.4500   30.5200   34.9040 H   0  0  0  0  0  0  0  0  0  0  0  0
   45.0620   29.0960   32.8610 H   0  0  0  0  0  0  0  0  0  0  0  0
   46.7770   29.0240   31.1010 H   0  0  0  0  0  0  0  0  0  0  0  0
   48.8740   30.3230   31.2910 H   0  0  0  0  0  0  0  0  0  0  0  0
   49.5200   33.8780   42.3330 O   0  0  0  0  0  0  0  0  0  0  0  0
   49.0860   33.0250   41.1780 P   0  0  2  0  0  0  0  0  0  0  0  0
   50.4470   32.5680   40.3350 O   0  0  0  0  0  0  0  0  0  0  0  0
   51.0710   33.3180   40.2870 H   0  0  0  0  0  0  0  0  0  0  0  0
   48.1990   31.6540   41.7400 O   0  0  0  0  0  0  0  0  0  0  0  0
   46.4710   32.5210   43.1380 C   0  0  0  0  0  0  0  0  0  0  0  0
   47.5570   31.6810   42.9780 C   0  0  0  0  0  0  0  0  0  0  0  0
   47.9530   30.9040   44.0710 C   0  0  0  0  0  0  0  0  0  0  0  0
   47.2450   31.0180   45.2340 N   0  0  0  0  0  0  0  0  0  0  0  0
   46.2030   31.8370   45.3520 C   0  0  0  0  0  0  0  0  0  0  0  0
   45.8230   32.5800   44.3140 N   0  0  0  0  0  0  0  0  0  0  0  0
   46.0710   33.1660   42.3760 H   0  0  0  0  0  0  0  0  0  0  0  0
   48.8090   30.2480   43.9330 H   0  0  0  0  0  0  0  0  0  0  0  0
   45.4860   31.9330   46.5810 N   0  0  0  0  0  0  0  0  0  0  0  0
   44.4610   31.9340   46.6040 H   0  0  0  0  0  0  0  0  0  0  0  0
   46.3010   32.0520   48.0970 S   0  0  0  0  0  0  0  0  0  0  0  0
   47.6950   32.5360   47.9420 O   0  0  0  0  0  0  0  0  0  0  0  0
   46.3600   30.6960   48.7690 O   0  0  0  0  0  0  0  0  0  0  0  0
   45.4500   33.1290   49.0650 O   0  0  0  0  0  0  0  0  0  0  0  0
   45.0130   33.7930   48.4480 H   0  0  0  0  0  0  0  0  0  0  0  0
  1 22  1  0  0  0  0
  2  3  2  0  0  0  0
  2  1  1  0  0  0  0
  4  2  1  0  0  0  0
  5  9  1  0  0  0  0
  5  4  2  0  0  0  0
  6  5  1  0  0  0  0
  7  6  2  0  0  0  0
  7  8  1  0  0  0  0
  8  4  1  0  0  0  0
 10  6  1  0  0  0  0
 11  7  1  0  0  0  0
 12 11  1  0  0  0  0
 12 17  1  0  0  0  0
 13 12  2  0  0  0  0
 14 15  2  0  0  0  0
 14 13  1  0  0  0  0
 15 16  1  0  0  0  0
 16 11  2  0  0  0  0
 18 13  1  0  0  0  0
 19 14  1  0  0  0  0
 20 15  1  0  0  0  0
 22 25  1  0  0  0  0
 22 21  2  1  0  0  0
 23 22  1  0  0  0  0
 24 23  1  0  0  0  0
 25 27  1  0  0  0  0
 26 31  1  0  0  0  0
 27 26  2  0  0  0  0
 27 28  1  0  0  0  0
 28 29  2  0  0  0  0
 29 30  1  0  0  0  0
 30 34  1  0  0  0  0
 31 30  2  0  0  0  0
 32 26  1  0  0  0  0
 33 28  1  0  0  0  0
 34 35  1  0  0  0  0
 34 36  1  0  0  0  0
 36 38  1  0  0  0  0
 36 39  1  0  0  0  0
 37 36  1  0  0  0  0
 40 39  1  0  0  0  0
M  END
>  <minimizedAffinity>
-5.29366446

>  <minimizedRMSD>
3.00144553

$$$$
