REMARK  Name = 
REMARK  10 active torsions:
REMARK  status: ('A' for Active; 'I' for Inactive)
REMARK    1  A    between atoms: O_1  and  C_2
REMARK    2  A    between atoms: O_1  and  P_10
REMARK    3  A    between atoms: C_6  and  C_7
REMARK    4  A    between atoms: C_7  and  O_8
REMARK    5  A    between atoms: P_10  and  O_11
REMARK    6  A    between atoms: P_10  and  O_12
REMARK    7  A    between atoms: O_12  and  C_13
REMARK    8  A    between atoms: C_13  and  C_16
REMARK    9  A    between atoms: N_36  and  S_38
REMARK   10  A    between atoms: S_38  and  O_41
REMARK                            x       y       z     vdW  Elec       q    Type
REMARK                         _______ _______ _______ _____ _____    ______ ____
ROOT
ATOM      1  O   UNL     1      44.730  35.351  44.997  0.00  0.00    +0.000 OA
ATOM      2  P   UNL     1      45.581  34.240  44.412  0.00  0.00    +0.000 P 
ENDROOT
BRANCH   2   3
ATOM      3  O   UNL     1      44.608  33.039  43.718  0.00  0.00    +0.000 OA
ATOM      4  H   UNL     1      43.814  33.508  43.341  0.00  0.00    +0.000 HD
ENDBRANCH   2   3
BRANCH   2   5
ATOM      5  O   UNL     1      46.576  34.909  43.250  0.00  0.00    +0.000 OA
BRANCH   5   6
ATOM      6  C   UNL     1      46.804  33.976  42.230  0.00  0.00    +0.000 C 
ATOM      7  C   UNL     1      46.075  34.412  40.956  0.00  0.00    +0.000 C 
ATOM      8  C   UNL     1      46.685  33.473  39.951  0.00  0.00    +0.000 C 
ATOM      9  C   UNL     1      48.072  33.144  40.472  0.00  0.00    +0.000 C 
ATOM     10  C   UNL     1      48.219  33.959  41.742  0.00  0.00    +0.000 C 
ATOM     11  H   UNL     1      46.450  32.973  42.461  0.00  0.00    +0.000 HD
ATOM     12  H   UNL     1      46.165  35.470  40.735  0.00  0.00    +0.000 HD
ATOM     13  H   UNL     1      45.005  34.159  41.037  0.00  0.00    +0.000 HD
ATOM     14  H   UNL     1      46.078  32.535  39.886  0.00  0.00    +0.000 HD
ATOM     15  H   UNL     1      46.688  33.930  38.956  0.00  0.00    +0.000 HD
ATOM     16  H   UNL     1      48.156  32.056  40.732  0.00  0.00    +0.000 HD
ATOM     17  H   UNL     1      48.853  33.382  39.733  0.00  0.00    +0.000 HD
ATOM     18  H   UNL     1      48.866  33.391  42.457  0.00  0.00    +0.000 HD
BRANCH  10  19
ATOM     19  C   UNL     1      48.759  35.336  41.459  0.00  0.00    +0.000 C 
ATOM     20  H   UNL     1      49.246  35.332  40.447  0.00  0.00    +0.000 HD
ATOM     21  H   UNL     1      47.979  36.125  41.401  0.00  0.00    +0.000 HD
BRANCH  19  22
ATOM     22  O   UNL     1      49.656  35.756  42.416  0.00  0.00    +0.000 OA
ATOM     23  H   UNL     1      50.575  35.608  42.047  0.00  0.00    +0.000 HD
ENDBRANCH  19  22
ENDBRANCH  10  19
ENDBRANCH   5   6
ENDBRANCH   2   5
BRANCH   2  24
ATOM     24  O   UNL     1      46.477  33.491  45.603  0.00  0.00    +0.000 OA
BRANCH  24  25
ATOM     25  C   UNL     1      46.233  32.155  45.571  0.00  0.00    +0.000 C 
ATOM     26  H   UNL     1      45.504  31.778  44.860  0.00  0.00    +0.000 HD
ATOM     27  H   UNL     1      47.205  31.648  45.292  0.00  0.00    +0.000 HD
BRANCH  25  30
ATOM     28  C   UNL     1      45.642  31.904  49.235  0.00  0.00    +0.000 A 
ATOM     29  C   UNL     1      45.979  32.460  47.996  0.00  0.00    +0.000 A 
ATOM     30  C   UNL     1      45.883  31.608  46.892  0.00  0.00    +0.000 A 
ATOM     31  N   UNL     1      45.477  30.313  47.075  0.00  0.00    +0.000 NA
ATOM     32  C   UNL     1      45.161  29.815  48.289  0.00  0.00    +0.000 A 
ATOM     33  N   UNL     1      45.245  30.606  49.351  0.00  0.00    +0.000 NA
ATOM     34  H   UNL     1      45.712  32.557  50.103  0.00  0.00    +0.000 HD
ATOM     35  H   UNL     1      46.286  33.482  47.946  0.00  0.00    +0.000 HD
ATOM     36  N   UNL     1      44.747  28.458  48.403  0.00  0.00    +0.000 N 
ATOM     37  H   UNL     1      45.103  27.739  47.734  0.00  0.00    +0.000 HD
BRANCH  36  38
ATOM     38  S   UNL     1      43.650  27.951  49.638  0.00  0.00    +0.000 S 
ATOM     39  O   UNL     1      43.243  29.129  50.479  0.00  0.00    +0.000 OA
ATOM     40  O   UNL     1      42.462  27.330  48.960  0.00  0.00    +0.000 OA
BRANCH  38  41
ATOM     41  O   UNL     1      44.447  26.819  50.608  0.00  0.00    +0.000 OA
ATOM     42  H   UNL     1      45.401  27.082  50.729  0.00  0.00    +0.000 HD
ENDBRANCH  38  41
ENDBRANCH  36  38
ENDBRANCH  25  30
ENDBRANCH  24  25
ENDBRANCH   2  24
TORSDOF 10
