
 OpenBabel03252505313D

 25 25  0  0  0  0  0  0  0  0999 V2000
   36.9640   30.1820   39.3620 O   0  0  0  0  0  0  0  0  0  0  0  0
   36.9600   31.1060   40.5800 P   0  0  1  0  0  0  0  0  0  0  0  0
   35.5530   30.9840   41.4750 O   0  0  0  0  0  0  0  0  0  0  0  0
   35.2960   30.0230   41.5330 H   0  0  0  0  0  0  0  0  0  0  0  0
   38.3230   30.6990   41.5080 O   0  0  0  0  0  0  0  0  0  0  0  0
   37.4750   27.8240   43.3940 C   0  0  0  0  0  0  0  0  0  0  0  0
   38.7140   27.1840   43.6780 C   0  0  0  0  0  0  0  0  0  0  0  0
   39.8640   27.8330   43.1610 C   0  0  0  0  0  0  0  0  0  0  0  0
   39.6980   28.9840   42.4540 N   0  0  0  0  0  0  0  0  0  0  0  0
   38.5000   29.5320   42.2240 C   0  0  0  0  0  0  0  0  0  0  0  0
   37.3940   28.9490   42.6960 N   0  0  0  0  0  0  0  0  0  0  0  0
   36.5920   27.3150   43.7990 H   0  0  0  0  0  0  0  0  0  0  0  0
   38.7790   26.2650   44.2490 H   0  0  0  0  0  0  0  0  0  0  0  0
   40.8280   27.3980   43.3410 H   0  0  0  0  0  0  0  0  0  0  0  0
   37.0840   32.6770   39.9760 O   0  0  0  0  0  0  0  0  0  0  0  0
   37.9610   32.6590   38.9050 C   0  0  0  0  0  0  0  0  0  0  0  0
   37.5730   32.0000   38.1060 H   0  0  0  0  0  0  0  0  0  0  0  0
   37.9790   33.6800   38.4710 H   0  0  0  0  0  0  0  0  0  0  0  0
   39.2960   32.2530   39.2880 N   0  0  0  0  0  0  0  0  0  0  0  0
   39.8330   33.0820   39.6260 H   0  0  0  0  0  0  0  0  0  0  0  0
   40.1100   31.6730   37.8700 S   0  0  0  0  0  0  0  0  0  0  0  0
   39.9500   30.1800   37.7380 O   0  0  0  0  0  1  0  0  0  0  0  0
   41.5770   31.9610   37.9440 O   0  0  0  0  0  1  0  0  0  0  0  0
   39.4790   32.3670   36.4830 O   0  0  0  0  0  0  0  0  0  0  0  0
   40.0890   33.0590   36.0960 H   0  0  0  0  0  0  0  0  0  0  0  0
  2  1  2  6  0  0  0
  2  3  1  0  0  0  0
  2  5  1  0  0  0  0
  3  4  1  0  0  0  0
  5 10  1  0  0  0  0
  6  7  1  0  0  0  0
  6 12  1  0  0  0  0
  7 13  1  0  0  0  0
  8 14  1  0  0  0  0
  8  7  2  0  0  0  0
  9  8  1  0  0  0  0
 10  9  2  0  0  0  0
 10 11  1  0  0  0  0
 11  6  2  0  0  0  0
 15  2  1  0  0  0  0
 16 19  1  0  0  0  0
 16 15  1  0  0  0  0
 17 16  1  0  0  0  0
 18 16  1  0  0  0  0
 19 20  1  0  0  0  0
 21 23  1  0  0  0  0
 21 19  1  0  0  0  0
 22 21  1  0  0  0  0
 24 21  1  0  0  0  0
 25 24  1  0  0  0  0
M  END
>  <minimizedAffinity>
-4.72216845

$$$$

 OpenBabel03252505313D

 25 25  0  0  0  0  0  0  0  0999 V2000
   38.3430   31.3420   39.1410 O   0  0  0  0  0  0  0  0  0  0  0  0
   37.6700   32.2650   40.1580 P   0  0  1  0  0  0  0  0  0  0  0  0
   36.8690   33.5420   39.4350 O   0  0  0  0  0  0  0  0  0  0  0  0
   36.3960   33.2020   38.6250 H   0  0  0  0  0  0  0  0  0  0  0  0
   36.6080   31.3010   41.0660 O   0  0  0  0  0  0  0  0  0  0  0  0
   36.3530   27.7880   41.4380 C   0  0  0  0  0  0  0  0  0  0  0  0
   37.3040   27.4480   42.4400 C   0  0  0  0  0  0  0  0  0  0  0  0
   38.0390   28.5380   42.9740 C   0  0  0  0  0  0  0  0  0  0  0  0
   37.7840   29.7880   42.4990 N   0  0  0  0  0  0  0  0  0  0  0  0
   36.8720   30.0360   41.5530 C   0  0  0  0  0  0  0  0  0  0  0  0
   36.1610   29.0350   41.0270 N   0  0  0  0  0  0  0  0  0  0  0  0
   35.7900   26.9390   41.0330 H   0  0  0  0  0  0  0  0  0  0  0  0
   37.4600   26.4290   42.7760 H   0  0  0  0  0  0  0  0  0  0  0  0
   38.7720   28.3440   43.7330 H   0  0  0  0  0  0  0  0  0  0  0  0
   38.9090   32.8800   41.1240 O   0  0  0  0  0  0  0  0  0  0  0  0
   40.0850   32.8400   40.3940 C   0  0  0  0  0  0  0  0  0  0  0  0
   40.9440   33.1050   41.0400 H   0  0  0  0  0  0  0  0  0  0  0  0
   40.2520   31.7870   40.0890 H   0  0  0  0  0  0  0  0  0  0  0  0
   40.0460   33.7000   39.2310 N   0  0  0  0  0  0  0  0  0  0  0  0
   39.0740   33.7370   38.8530 H   0  0  0  0  0  0  0  0  0  0  0  0
   41.0350   32.9830   37.9980 S   0  0  0  0  0  0  0  0  0  0  0  0
   41.8330   31.8330   38.5590 O   0  0  0  0  0  1  0  0  0  0  0  0
   42.0100   33.9790   37.4530 O   0  0  0  0  0  1  0  0  0  0  0  0
   40.1010   32.3790   36.7480 O   0  0  0  0  0  0  0  0  0  0  0  0
   40.1490   32.9530   35.9300 H   0  0  0  0  0  0  0  0  0  0  0  0
  2  1  2  6  0  0  0
  2  5  1  0  0  0  0
  2 15  1  0  0  0  0
  3  2  1  0  0  0  0
  4  3  1  0  0  0  0
  5 10  1  0  0  0  0
  6  7  1  0  0  0  0
  7 13  1  0  0  0  0
  7  8  2  0  0  0  0
  8 14  1  0  0  0  0
  9  8  1  0  0  0  0
 10  9  2  0  0  0  0
 11  6  2  0  0  0  0
 11 10  1  0  0  0  0
 12  6  1  0  0  0  0
 16 17  1  0  0  0  0
 16 15  1  0  0  0  0
 18 16  1  0  0  0  0
 19 16  1  0  0  0  0
 20 19  1  0  0  0  0
 21 22  1  0  0  0  0
 21 19  1  0  0  0  0
 23 21  1  0  0  0  0
 24 21  1  0  0  0  0
 25 24  1  0  0  0  0
M  END
>  <minimizedAffinity>
-4.6832118

$$$$

 OpenBabel03252505313D

 25 25  0  0  0  0  0  0  0  0999 V2000
   37.2300   29.2960   40.0750 O   0  0  0  0  0  0  0  0  0  0  0  0
   37.0860   30.2300   41.2770 P   0  0  1  0  0  0  0  0  0  0  0  0
   35.6290   31.0500   41.2820 O   0  0  0  0  0  0  0  0  0  0  0  0
   34.9080   30.4180   41.0060 H   0  0  0  0  0  0  0  0  0  0  0  0
   37.2620   29.2700   42.6660 O   0  0  0  0  0  0  0  0  0  0  0  0
   40.0000   27.1330   43.3610 C   0  0  0  0  0  0  0  0  0  0  0  0
   39.5580   25.8300   42.9990 C   0  0  0  0  0  0  0  0  0  0  0  0
   38.2340   25.7560   42.4960 C   0  0  0  0  0  0  0  0  0  0  0  0
   37.5090   26.9050   42.4010 N   0  0  0  0  0  0  0  0  0  0  0  0
   37.9900   28.1000   42.7600 C   0  0  0  0  0  0  0  0  0  0  0  0
   39.2330   28.2090   43.2380 N   0  0  0  0  0  0  0  0  0  0  0  0
   41.0240   27.1790   43.7480 H   0  0  0  0  0  0  0  0  0  0  0  0
   40.1850   24.9510   43.1000 H   0  0  0  0  0  0  0  0  0  0  0  0
   37.8430   24.7990   42.2070 H   0  0  0  0  0  0  0  0  0  0  0  0
   38.3390   31.3530   41.1510 O   0  0  0  0  0  0  0  0  0  0  0  0
   37.9050   32.3950   40.3490 C   0  0  0  0  0  0  0  0  0  0  0  0
   36.9920   32.8510   40.7780 H   0  0  0  0  0  0  0  0  0  0  0  0
   38.6810   33.1870   40.3840 H   0  0  0  0  0  0  0  0  0  0  0  0
   37.6690   31.9830   38.9830 N   0  0  0  0  0  0  0  0  0  0  0  0
   37.2680   31.0200   38.9690 H   0  0  0  0  0  0  0  0  0  0  0  0
   39.2010   31.9000   38.1740 S   0  0  0  0  0  0  0  0  0  0  0  0
   39.7620   30.5010   38.2390 O   0  0  0  0  0  1  0  0  0  0  0  0
   40.1960   32.8100   38.8230 O   0  0  0  0  0  1  0  0  0  0  0  0
   39.0550   32.3040   36.5560 O   0  0  0  0  0  0  0  0  0  0  0  0
   39.4210   33.2140   36.3600 H   0  0  0  0  0  0  0  0  0  0  0  0
  2  1  2  6  0  0  0
  2  3  1  0  0  0  0
  2  5  1  0  0  0  0
  4  3  1  0  0  0  0
  5 10  1  0  0  0  0
  6 12  1  0  0  0  0
  7 13  1  0  0  0  0
  7  6  2  0  0  0  0
  8  7  1  0  0  0  0
  9  8  2  0  0  0  0
  9 10  1  0  0  0  0
 10 11  2  0  0  0  0
 11  6  1  0  0  0  0
 14  8  1  0  0  0  0
 15  2  1  0  0  0  0
 16 18  1  0  0  0  0
 16 17  1  0  0  0  0
 16 15  1  0  0  0  0
 19 16  1  0  0  0  0
 20 19  1  0  0  0  0
 21 22  1  0  0  0  0
 21 23  1  0  0  0  0
 21 19  1  0  0  0  0
 24 21  1  0  0  0  0
 25 24  1  0  0  0  0
M  END
>  <minimizedAffinity>
-4.60655117

$$$$

 OpenBabel03252505313D

 25 25  0  0  0  0  0  0  0  0999 V2000
   37.0170   29.2190   40.0200 O   0  0  0  0  0  0  0  0  0  0  0  0
   36.9930   30.1470   41.2360 P   0  0  1  0  0  0  0  0  0  0  0  0
   35.5980   31.0650   41.3160 O   0  0  0  0  0  0  0  0  0  0  0  0
   34.8240   30.4880   41.0680 H   0  0  0  0  0  0  0  0  0  0  0  0
   37.1660   29.1600   42.6070 O   0  0  0  0  0  0  0  0  0  0  0  0
   38.5100   25.8840   42.6350 C   0  0  0  0  0  0  0  0  0  0  0  0
   39.8590   26.0360   43.0610 C   0  0  0  0  0  0  0  0  0  0  0  0
   40.2610   27.3690   43.3370 C   0  0  0  0  0  0  0  0  0  0  0  0
   39.3510   28.3690   43.1770 N   0  0  0  0  0  0  0  0  0  0  0  0
   38.0950   28.1520   42.7720 C   0  0  0  0  0  0  0  0  0  0  0  0
   37.6800   26.9110   42.5030 N   0  0  0  0  0  0  0  0  0  0  0  0
   38.2090   24.8510   42.4250 H   0  0  0  0  0  0  0  0  0  0  0  0
   40.5360   25.1970   43.1690 H   0  0  0  0  0  0  0  0  0  0  0  0
   41.2670   27.5480   43.6620 H   0  0  0  0  0  0  0  0  0  0  0  0
   38.3140   31.1820   41.0610 O   0  0  0  0  0  0  0  0  0  0  0  0
   37.9040   32.2850   40.3320 C   0  0  0  0  0  0  0  0  0  0  0  0
   37.0460   32.7740   40.8320 H   0  0  0  0  0  0  0  0  0  0  0  0
   38.7290   33.0270   40.3580 H   0  0  0  0  0  0  0  0  0  0  0  0
   37.5690   31.9540   38.9640 N   0  0  0  0  0  0  0  0  0  0  0  0
   37.1010   31.0220   38.9320 H   0  0  0  0  0  0  0  0  0  0  0  0
   39.0480   31.8030   38.0700 S   0  0  0  0  0  0  0  0  0  0  0  0
   39.5020   30.3660   38.0310 O   0  0  0  0  0  1  0  0  0  0  0  0
   40.1410   32.6000   38.7110 O   0  0  0  0  0  1  0  0  0  0  0  0
   38.8510   32.3080   36.4860 O   0  0  0  0  0  0  0  0  0  0  0  0
   39.2760   33.1980   36.3180 H   0  0  0  0  0  0  0  0  0  0  0  0
  2  1  2  6  0  0  0
  2  3  1  0  0  0  0
  2  5  1  0  0  0  0
  4  3  1  0  0  0  0
  5 10  1  0  0  0  0
  6  7  1  0  0  0  0
  7 13  1  0  0  0  0
  7  8  2  0  0  0  0
  8 14  1  0  0  0  0
  9  8  1  0  0  0  0
 10  9  2  0  0  0  0
 11  6  2  0  0  0  0
 11 10  1  0  0  0  0
 12  6  1  0  0  0  0
 15  2  1  0  0  0  0
 16 18  1  0  0  0  0
 16 17  1  0  0  0  0
 16 15  1  0  0  0  0
 19 16  1  0  0  0  0
 20 19  1  0  0  0  0
 21 23  1  0  0  0  0
 21 19  1  0  0  0  0
 22 21  1  0  0  0  0
 24 21  1  0  0  0  0
 25 24  1  0  0  0  0
M  END
>  <minimizedAffinity>
-4.54915905

$$$$

 OpenBabel03252505313D

 25 25  0  0  0  0  0  0  0  0999 V2000
   37.1690   30.4380   39.2570 O   0  0  0  0  0  0  0  0  0  0  0  0
   37.0260   31.3130   40.5040 P   0  0  1  0  0  0  0  0  0  0  0  0
   35.5930   31.0410   41.3190 O   0  0  0  0  0  0  0  0  0  0  0  0
   35.4150   30.0600   41.3310 H   0  0  0  0  0  0  0  0  0  0  0  0
   38.3710   30.9850   41.4870 O   0  0  0  0  0  0  0  0  0  0  0  0
   37.7140   28.1150   43.4560 C   0  0  0  0  0  0  0  0  0  0  0  0
   38.9640   27.4440   43.5670 C   0  0  0  0  0  0  0  0  0  0  0  0
   40.0500   28.0700   42.9030 C   0  0  0  0  0  0  0  0  0  0  0  0
   39.8180   29.2310   42.2300 N   0  0  0  0  0  0  0  0  0  0  0  0
   38.6140   29.8080   42.1670 C   0  0  0  0  0  0  0  0  0  0  0  0
   37.5670   29.2480   42.7800 N   0  0  0  0  0  0  0  0  0  0  0  0
   36.8820   27.6240   43.9730 H   0  0  0  0  0  0  0  0  0  0  0  0
   39.0830   26.5190   44.1200 H   0  0  0  0  0  0  0  0  0  0  0  0
   41.0180   27.6100   42.9490 H   0  0  0  0  0  0  0  0  0  0  0  0
   37.0470   32.9100   39.9590 O   0  0  0  0  0  0  0  0  0  0  0  0
   38.3390   33.3910   40.0820 C   0  0  0  0  0  0  0  0  0  0  0  0
   38.3330   34.4970   40.1120 H   0  0  0  0  0  0  0  0  0  0  0  0
   38.7230   33.0650   41.0710 H   0  0  0  0  0  0  0  0  0  0  0  0
   39.2090   32.9210   39.0260 N   0  0  0  0  0  0  0  0  0  0  0  0
   38.8410   32.0250   38.6390 H   0  0  0  0  0  0  0  0  0  0  0  0
   40.7580   32.5660   39.7230 S   0  0  0  0  0  0  0  0  0  0  0  0
   41.8200   33.4660   39.1430 O   0  0  0  0  0  1  0  0  0  0  0  0
   41.1620   31.1550   39.4320 O   0  0  0  0  0  1  0  0  0  0  0  0
   40.7470   32.8090   41.3790 O   0  0  0  0  0  0  0  0  0  0  0  0
   40.7380   31.9470   41.8870 H   0  0  0  0  0  0  0  0  0  0  0  0
  2  1  2  6  0  0  0
  2  3  1  0  0  0  0
  2  5  1  0  0  0  0
  3  4  1  0  0  0  0
  5 10  1  0  0  0  0
  6  7  1  0  0  0  0
  6 12  1  0  0  0  0
  7 13  1  0  0  0  0
  8 14  1  0  0  0  0
  8  7  2  0  0  0  0
  9  8  1  0  0  0  0
 10  9  2  0  0  0  0
 10 11  1  0  0  0  0
 11  6  2  0  0  0  0
 15 16  1  0  0  0  0
 15  2  1  0  0  0  0
 16 17  1  0  0  0  0
 16 18  1  0  0  0  0
 19 21  1  0  0  0  0
 19 16  1  0  0  0  0
 20 19  1  0  0  0  0
 21 24  1  0  0  0  0
 22 21  1  0  0  0  0
 23 21  1  0  0  0  0
 24 25  1  0  0  0  0
M  END
>  <minimizedAffinity>
-4.4939003

$$$$

 OpenBabel03252505313D

 25 25  0  0  0  0  0  0  0  0999 V2000
   35.1280   28.8680   40.5590 O   0  0  0  0  0  0  0  0  0  0  0  0
   36.4540   28.9250   41.3190 P   0  0  1  0  0  0  0  0  0  0  0  0
   36.6580   30.3640   42.1450 O   0  0  0  0  0  0  0  0  0  0  0  0
   35.7900   30.6160   42.5650 H   0  0  0  0  0  0  0  0  0  0  0  0
   36.4700   27.5960   42.3750 O   0  0  0  0  0  0  0  0  0  0  0  0
   39.6000   26.5720   43.6770 C   0  0  0  0  0  0  0  0  0  0  0  0
   39.7730   25.2330   43.2250 C   0  0  0  0  0  0  0  0  0  0  0  0
   38.7140   24.7180   42.4340 C   0  0  0  0  0  0  0  0  0  0  0  0
   37.6460   25.5220   42.1750 N   0  0  0  0  0  0  0  0  0  0  0  0
   37.5490   26.7750   42.6330 C   0  0  0  0  0  0  0  0  0  0  0  0
   38.5270   27.2940   43.3810 N   0  0  0  0  0  0  0  0  0  0  0  0
   40.4240   26.9600   44.2870 H   0  0  0  0  0  0  0  0  0  0  0  0
   40.6500   24.6440   43.4670 H   0  0  0  0  0  0  0  0  0  0  0  0
   38.7860   23.7130   42.0650 H   0  0  0  0  0  0  0  0  0  0  0  0
   37.6670   28.7910   40.1540 O   0  0  0  0  0  0  0  0  0  0  0  0
   38.6160   29.7680   40.4060 C   0  0  0  0  0  0  0  0  0  0  0  0
   38.4880   30.1680   41.4290 H   0  0  0  0  0  0  0  0  0  0  0  0
   39.6100   29.2770   40.3960 H   0  0  0  0  0  0  0  0  0  0  0  0
   38.5770   30.8420   39.4370 N   0  0  0  0  0  0  0  0  0  0  0  0
   39.4420   30.8210   38.8530 H   0  0  0  0  0  0  0  0  0  0  0  0
   38.5920   32.3470   40.3000 S   0  0  0  0  0  0  0  0  0  0  0  0
   39.4250   33.3700   39.5700 O   0  0  0  0  0  1  0  0  0  0  0  0
   39.1890   32.1730   41.6610 O   0  0  0  0  0  1  0  0  0  0  0  0
   37.0470   32.9740   40.4480 O   0  0  0  0  0  0  0  0  0  0  0  0
   36.6860   32.8740   41.3760 H   0  0  0  0  0  0  0  0  0  0  0  0
  2  1  2  6  0  0  0
  2  3  1  0  0  0  0
  2  5  1  0  0  0  0
  3  4  1  0  0  0  0
  5 10  1  0  0  0  0
  6 12  1  0  0  0  0
  7 13  1  0  0  0  0
  7  6  2  0  0  0  0
  8  7  1  0  0  0  0
  9  8  2  0  0  0  0
  9 10  1  0  0  0  0
 10 11  2  0  0  0  0
 11  6  1  0  0  0  0
 14  8  1  0  0  0  0
 15 16  1  0  0  0  0
 15  2  1  0  0  0  0
 16 17  1  0  0  0  0
 18 16  1  0  0  0  0
 19 21  1  0  0  0  0
 19 16  1  0  0  0  0
 20 19  1  0  0  0  0
 21 24  1  0  0  0  0
 21 23  1  0  0  0  0
 22 21  1  0  0  0  0
 24 25  1  0  0  0  0
M  END
>  <minimizedAffinity>
-4.28428221

$$$$

 OpenBabel03252505313D

 25 25  0  0  0  0  0  0  0  0999 V2000
   38.1700   30.6700   41.5380 O   0  0  0  0  0  0  0  0  0  0  0  0
   36.9520   31.0260   40.6850 P   0  0  1  0  0  0  0  0  0  0  0  0
   35.6090   31.3990   41.6070 O   0  0  0  0  0  0  0  0  0  0  0  0
   35.9000   31.9540   42.3830 H   0  0  0  0  0  0  0  0  0  0  0  0
   37.4100   32.3310   39.7000 O   0  0  0  0  0  0  0  0  0  0  0  0
   40.6540   33.6760   39.2390 C   0  0  0  0  0  0  0  0  0  0  0  0
   41.1760   33.0100   38.0940 C   0  0  0  0  0  0  0  0  0  0  0  0
   40.3090   32.0590   37.4980 C   0  0  0  0  0  0  0  0  0  0  0  0
   39.0810   31.8620   38.0520 N   0  0  0  0  0  0  0  0  0  0  0  0
   38.6540   32.5250   39.1320 C   0  0  0  0  0  0  0  0  0  0  0  0
   39.4430   33.4280   39.7210 N   0  0  0  0  0  0  0  0  0  0  0  0
   41.3320   34.4090   39.6920 H   0  0  0  0  0  0  0  0  0  0  0  0
   42.1650   33.2120   37.7010 H   0  0  0  0  0  0  0  0  0  0  0  0
   40.6460   31.5230   36.6320 H   0  0  0  0  0  0  0  0  0  0  0  0
   36.6120   29.6560   39.7600 O   0  0  0  0  0  0  0  0  0  0  0  0
   35.6230   28.9340   40.4070 C   0  0  0  0  0  0  0  0  0  0  0  0
   34.7020   29.5410   40.4910 H   0  0  0  0  0  0  0  0  0  0  0  0
   35.3590   28.0750   39.7560 H   0  0  0  0  0  0  0  0  0  0  0  0
   36.0400   28.4670   41.7110 N   0  0  0  0  0  0  0  0  0  0  0  0
   36.5570   29.2250   42.2080 H   0  0  0  0  0  0  0  0  0  0  0  0
   37.1590   27.1620   41.4830 S   0  0  0  0  0  0  0  0  0  0  0  0
   36.6560   26.2070   40.4300 O   0  0  0  0  0  1  0  0  0  0  0  0
   37.3310   26.3810   42.7480 O   0  0  0  0  0  1  0  0  0  0  0  0
   38.6510   27.7250   40.9730 O   0  0  0  0  0  0  0  0  0  0  0  0
   39.3360   27.6920   41.7020 H   0  0  0  0  0  0  0  0  0  0  0  0
  2  1  2  1  0  0  0
  2  3  1  0  0  0  0
  3  4  1  0  0  0  0
  5  2  1  0  0  0  0
  6 12  1  0  0  0  0
  6 11  1  0  0  0  0
  7  6  2  0  0  0  0
  8  9  2  0  0  0  0
  8  7  1  0  0  0  0
  9 10  1  0  0  0  0
 10  5  1  0  0  0  0
 10 11  2  0  0  0  0
 13  7  1  0  0  0  0
 14  8  1  0  0  0  0
 15 16  1  0  0  0  0
 15  2  1  0  0  0  0
 16 17  1  0  0  0  0
 16 19  1  0  0  0  0
 18 16  1  0  0  0  0
 19 20  1  0  0  0  0
 21 19  1  0  0  0  0
 21 23  1  0  0  0  0
 22 21  1  0  0  0  0
 24 21  1  0  0  0  0
 24 25  1  0  0  0  0
M  END
>  <minimizedAffinity>
-4.10813379

$$$$

 OpenBabel03252505313D

 25 25  0  0  0  0  0  0  0  0999 V2000
   38.9370   27.4950   43.5740 O   0  0  0  0  0  0  0  0  0  0  0  0
   37.8410   28.1910   42.7660 P   0  0  1  0  0  0  0  0  0  0  0  0
   36.9630   29.2800   43.6800 O   0  0  0  0  0  0  0  0  0  0  0  0
   37.5920   29.7810   44.2690 H   0  0  0  0  0  0  0  0  0  0  0  0
   38.6090   28.9550   41.4580 O   0  0  0  0  0  0  0  0  0  0  0  0
   36.9020   31.2470   39.3660 C   0  0  0  0  0  0  0  0  0  0  0  0
   37.4380   32.5230   39.6940 C   0  0  0  0  0  0  0  0  0  0  0  0
   38.4390   32.5210   40.6990 C   0  0  0  0  0  0  0  0  0  0  0  0
   38.7980   31.3310   41.2560 N   0  0  0  0  0  0  0  0  0  0  0  0
   38.2510   30.1650   40.8990 C   0  0  0  0  0  0  0  0  0  0  0  0
   37.3050   30.1280   39.9550 N   0  0  0  0  0  0  0  0  0  0  0  0
   36.1300   31.2600   38.5890 H   0  0  0  0  0  0  0  0  0  0  0  0
   37.1090   33.4370   39.2130 H   0  0  0  0  0  0  0  0  0  0  0  0
   38.8810   33.4540   40.9910 H   0  0  0  0  0  0  0  0  0  0  0  0
   36.8050   26.9700   42.2330 O   0  0  0  0  0  0  0  0  0  0  0  0
   37.2840   26.4950   41.0240 C   0  0  0  0  0  0  0  0  0  0  0  0
   36.5750   25.7620   40.5950 H   0  0  0  0  0  0  0  0  0  0  0  0
   37.3010   27.3480   40.3150 H   0  0  0  0  0  0  0  0  0  0  0  0
   38.6030   25.9120   41.1390 N   0  0  0  0  0  0  0  0  0  0  0  0
   39.1280   26.0480   40.2480 H   0  0  0  0  0  0  0  0  0  0  0  0
   38.4180   24.2010   41.3560 S   0  0  0  0  0  0  0  0  0  0  0  0
   39.0380   23.4490   40.2050 O   0  0  0  0  0  1  0  0  0  0  0  0
   36.9700   23.8250   41.4070 O   0  0  0  0  0  1  0  0  0  0  0  0
   39.1750   23.6820   42.7560 O   0  0  0  0  0  0  0  0  0  0  0  0
   38.5200   23.4680   43.4810 H   0  0  0  0  0  0  0  0  0  0  0  0
  2  1  2  1  0  0  0
  2  3  1  0  0  0  0
  3  4  1  0  0  0  0
  5  2  1  0  0  0  0
  6  7  2  0  0  0  0
  6 11  1  0  0  0  0
  7  8  1  0  0  0  0
  8 14  1  0  0  0  0
  8  9  2  0  0  0  0
 10  9  1  0  0  0  0
 10  5  1  0  0  0  0
 11 10  2  0  0  0  0
 12  6  1  0  0  0  0
 13  7  1  0  0  0  0
 15  2  1  0  0  0  0
 16 19  1  0  0  0  0
 16 15  1  0  0  0  0
 17 16  1  0  0  0  0
 18 16  1  0  0  0  0
 19 21  1  0  0  0  0
 20 19  1  0  0  0  0
 21 23  1  0  0  0  0
 21 24  1  0  0  0  0
 22 21  1  0  0  0  0
 24 25  1  0  0  0  0
M  END
>  <minimizedAffinity>
-4.08956623

$$$$

 OpenBabel03252505313D

 25 25  0  0  0  0  0  0  0  0999 V2000
   37.5680   28.8090   38.7080 O   0  0  0  0  0  0  0  0  0  0  0  0
   36.4370   29.8340   38.8020 P   0  0  1  0  0  0  0  0  0  0  0  0
   35.0620   29.3510   37.9840 O   0  0  0  0  0  0  0  0  0  0  0  0
   34.9180   28.3780   38.1510 H   0  0  0  0  0  0  0  0  0  0  0  0
   36.1250   30.0680   40.4550 O   0  0  0  0  0  0  0  0  0  0  0  0
   36.6410   27.4390   42.7710 C   0  0  0  0  0  0  0  0  0  0  0  0
   37.7450   27.8540   43.5680 C   0  0  0  0  0  0  0  0  0  0  0  0
   38.2930   29.1190   43.2330 C   0  0  0  0  0  0  0  0  0  0  0  0
   37.7360   29.8170   42.2060 N   0  0  0  0  0  0  0  0  0  0  0  0
   36.6960   29.3660   41.4980 C   0  0  0  0  0  0  0  0  0  0  0  0
   36.1530   28.1790   41.7840 N   0  0  0  0  0  0  0  0  0  0  0  0
   36.2250   26.4610   43.0380 H   0  0  0  0  0  0  0  0  0  0  0  0
   38.1430   27.2490   44.3740 H   0  0  0  0  0  0  0  0  0  0  0  0
   39.1290   29.4850   43.7970 H   0  0  0  0  0  0  0  0  0  0  0  0
   37.0250   31.2460   38.0890 O   0  0  0  0  0  0  0  0  0  0  0  0
   38.4080   31.2160   38.1500 C   0  0  0  0  0  0  0  0  0  0  0  0
   38.7970   30.3700   37.5520 H   0  0  0  0  0  0  0  0  0  0  0  0
   38.7830   32.1340   37.6520 H   0  0  0  0  0  0  0  0  0  0  0  0
   38.9020   31.1430   39.5070 N   0  0  0  0  0  0  0  0  0  0  0  0
   38.3260   30.4680   40.0560 H   0  0  0  0  0  0  0  0  0  0  0  0
   38.6870   32.6990   40.2430 S   0  0  0  0  0  0  0  0  0  0  0  0
   39.3290   33.7770   39.4050 O   0  0  0  0  0  1  0  0  0  0  0  0
   39.3300   32.7420   41.5940 O   0  0  0  0  0  1  0  0  0  0  0  0
   37.0640   33.0810   40.3890 O   0  0  0  0  0  0  0  0  0  0  0  0
   36.7420   33.0050   41.3330 H   0  0  0  0  0  0  0  0  0  0  0  0
  2  1  2  6  0  0  0
  2  5  1  0  0  0  0
  3  4  1  0  0  0  0
  3  2  1  0  0  0  0
  5 10  1  0  0  0  0
  6 12  1  0  0  0  0
  6  7  1  0  0  0  0
  7 13  1  0  0  0  0
  8  7  2  0  0  0  0
  8 14  1  0  0  0  0
  9  8  1  0  0  0  0
 10 11  1  0  0  0  0
 10  9  2  0  0  0  0
 11  6  2  0  0  0  0
 15 16  1  0  0  0  0
 15  2  1  0  0  0  0
 16 19  1  0  0  0  0
 17 16  1  0  0  0  0
 18 16  1  0  0  0  0
 19 20  1  0  0  0  0
 19 21  1  0  0  0  0
 21 24  1  0  0  0  0
 21 23  1  0  0  0  0
 22 21  1  0  0  0  0
 24 25  1  0  0  0  0
M  END
>  <minimizedAffinity>
-4.00829554

$$$$
