REMARK  Name = 
REMARK  4 active torsions:
REMARK  status: ('A' for Active; 'I' for Inactive)
REMARK    1  A    between atoms: N_1  and  C_11
REMARK    2  A    between atoms: C_13  and  C_22
REMARK    3  A    between atoms: O_20  and  C_21
REMARK    4  A    between atoms: C_28  and  O_29
REMARK                            x       y       z     vdW  Elec       q    Type
REMARK                         _______ _______ _______ _____ _____    ______ ____
ROOT
ATOM      1  C   UNL     1      44.496  36.033  44.761  0.00  0.00    +0.000 A 
ATOM      2  C   UNL     1      45.138  35.926  43.503  0.00  0.00    +0.000 A 
ATOM      3  C   UNL     1      45.969  34.820  43.297  0.00  0.00    +0.000 A 
ATOM      4  N   UNL     1      46.108  33.923  44.310  0.00  0.00    +0.000 NA
ATOM      5  C   UNL     1      45.491  34.047  45.488  0.00  0.00    +0.000 A 
ATOM      6  N   UNL     1      44.672  35.113  45.725  0.00  0.00    +0.000 NA
ATOM      7  H   UNL     1      43.849  36.903  44.907  0.00  0.00    +0.000 HD
ATOM      8  H   UNL     1      44.970  36.688  42.753  0.00  0.00    +0.000 HD
ENDROOT
BRANCH   3   9
ATOM      9  N   UNL     1      46.623  34.698  42.035  0.00  0.00    +0.000 N 
ATOM     10  C   UNL     1      47.876  35.184  41.935  0.00  0.00    +0.000 A 
ATOM     11  C   UNL     1      48.531  35.075  40.712  0.00  0.00    +0.000 A 
ATOM     12  C   UNL     1      47.863  34.479  39.679  0.00  0.00    +0.000 A 
ATOM     13  O   UNL     1      48.465  34.380  38.559  0.00  0.00    +0.000 OA
ATOM     14  N   UNL     1      46.607  33.989  39.770  0.00  0.00    +0.000 N 
ATOM     15  C   UNL     1      46.028  34.127  40.982  0.00  0.00    +0.000 A 
ATOM     16  O   UNL     1      44.864  33.708  41.181  0.00  0.00    +0.000 OA
ATOM     17  H   UNL     1      48.401  35.657  42.764  0.00  0.00    +0.000 HD
ATOM     18  H   UNL     1      49.540  35.463  40.623  0.00  0.00    +0.000 HD
ATOM     19  H   UNL     1      46.114  33.534  38.959  0.00  0.00    +0.000 HD
ENDBRANCH   3   9
BRANCH   5  21
ATOM     20  C   UNL     1      47.016  33.202  47.250  0.00  0.00    +0.000 C 
ATOM     21  C   UNL     1      45.681  33.033  46.562  0.00  0.00    +0.000 C 
ATOM     22  C   UNL     1      45.499  31.674  45.963  0.00  0.00    +0.000 C 
ATOM     23  H   UNL     1      44.927  31.758  45.020  0.00  0.00    +0.000 HD
ATOM     24  O   UNL     1      46.733  31.124  45.666  0.00  0.00    +0.000 OA
ATOM     25  C   UNL     1      47.440  30.774  46.814  0.00  0.00    +0.000 C 
ATOM     26  H   UNL     1      46.934  29.877  47.239  0.00  0.00    +0.000 HD
ATOM     27  C   UNL     1      47.404  31.871  47.846  0.00  0.00    +0.000 C 
BRANCH  20  28
ATOM     28  O   UNL     1      47.983  33.681  46.374  0.00  0.00    +0.000 OA
ATOM     29  H   UNL     1      48.157  32.977  45.700  0.00  0.00    +0.000 HD
ENDBRANCH  20  28
BRANCH  27  30
ATOM     30  O   UNL     1      48.670  31.997  48.391  0.00  0.00    +0.000 OA
ATOM     31  H   UNL     1      48.960  32.944  48.436  0.00  0.00    +0.000 HD
ENDBRANCH  27  30
ENDBRANCH   5  21
TORSDOF 4
