
 OpenBabel03252504203D

 22 23  0  0  1  0  0  0  0  0999 V2000
   46.9930   30.7380   47.3470 C   0  0  1  0  0  3  0  0  0  0  0  0
   46.0000   31.4220   46.4060 C   0  0  1  0  0  3  0  0  0  0  0  0
   45.8970   32.8390   46.9230 C   0  0  0  0  0  3  0  0  0  0  0  0
   45.3930   33.5190   46.2350 H   0  0  0  0  0  0  0  0  0  0  0  0
   45.1830   32.7830   48.0920 O   0  0  0  0  0  0  0  0  0  0  0  0
   45.7390   32.0480   49.0960 C   0  0  0  0  0  3  0  0  0  0  0  0
   46.4450   32.6390   49.7450 H   0  0  0  0  0  0  0  0  0  0  0  0
   46.3810   30.7600   48.7170 C   0  0  1  0  0  3  0  0  0  0  0  0
   45.8790   31.3020   42.7430 C   0  0  0  0  0  0  0  0  0  0  0  0
   47.2320   31.0960   42.4090 C   0  0  0  0  0  0  0  0  0  0  0  0
   48.1690   31.0010   43.4500 C   0  0  0  0  0  0  0  0  0  0  0  0
   47.7120   31.1140   44.7250 N   0  0  0  0  0  0  0  0  0  0  0  0
   46.4120   31.3100   45.0040 C   0  0  0  0  0  0  0  0  0  0  0  0
   45.4880   31.4060   44.0360 N   0  0  0  0  0  0  0  0  0  0  0  0
   47.5540   31.0130   41.3880 H   0  0  0  0  0  0  0  0  0  0  0  0
   49.2190   30.8430   43.2330 H   0  0  0  0  0  0  0  0  0  0  0  0
   44.7600   31.4100   41.3410 S   0  0  0  0  0  0  0  0  0  0  0  0
   44.7450   32.7170   40.8480 H   0  0  0  0  0  0  0  0  0  0  0  0
   47.1310   29.4190   46.9080 O   0  0  0  0  0  0  0  0  0  0  0  0
   47.8020   28.9380   47.4470 H   0  0  0  0  0  0  0  0  0  0  0  0
   45.5000   29.6770   48.8120 O   0  0  0  0  0  0  0  0  0  0  0  0
   44.7510   29.7860   48.1930 H   0  0  0  0  0  0  0  0  0  0  0  0
  1 19  1  6  0  0  0
  1  8  1  0  0  0  0
  2 13  1  6  0  0  0
  2  3  1  0  0  0  0
  2  1  1  0  0  0  0
  3  5  1  0  0  0  0
  4  3  1  0  0  0  0
  5  6  1  0  0  0  0
  6  7  1  0  0  0  0
  8 21  1  6  0  0  0
  8  6  1  0  0  0  0
  9 14  1  0  0  0  0
 10  9  2  0  0  0  0
 10 11  1  0  0  0  0
 11 12  2  0  0  0  0
 12 13  1  0  0  0  0
 14 13  2  0  0  0  0
 15 10  1  0  0  0  0
 16 11  1  0  0  0  0
 17  9  1  0  0  0  0
 18 17  1  0  0  0  0
 19 20  1  0  0  0  0
 22 21  1  0  0  0  0
M  END
>  <minimizedAffinity>
-3.37029648

>  <minimizedRMSD>
2.83934641

$$$$
