
 OpenBabel03242519053D

 46 49  0  0  1  0  0  0  0  0999 V2000
   49.1730   32.0700   41.9720 N   0  0  0  0  0  0  0  0  0  0  0  0
   49.5080   32.1020   42.9630 H   0  0  0  0  0  0  0  0  0  0  0  0
   51.3350   30.9290   39.3830 N   0  0  0  0  0  0  0  0  0  0  0  0
   50.0940   30.7560   40.1210 C   0  0  0  0  0  0  0  0  0  0  0  0
   50.0860   32.0510   40.8740 C   0  0  2  0  0  0  0  0  0  0  0  0
   51.4980   32.0920   41.4350 C   0  0  0  0  0  0  0  0  0  0  0  0
   52.3060   31.4570   40.3330 C   0  0  0  0  0  0  0  0  0  0  0  0
   50.1630   29.9270   40.8430 H   0  0  0  0  0  0  0  0  0  0  0  0
   49.2050   30.6630   39.4750 H   0  0  0  0  0  0  0  0  0  0  0  0
   49.9010   32.9240   40.2140 H   0  0  0  0  0  0  0  0  0  0  0  0
   51.5800   31.5740   42.4060 H   0  0  0  0  0  0  0  0  0  0  0  0
   51.7970   33.1680   41.5580 H   0  0  0  0  0  0  0  0  0  0  0  0
   52.8570   30.6080   40.7780 H   0  0  0  0  0  0  0  0  0  0  0  0
   53.0130   32.1620   39.8840 H   0  0  0  0  0  0  0  0  0  0  0  0
   51.1930   30.6200   35.6780 C   0  0  0  0  0  0  0  0  0  0  0  0
   50.7830   30.9110   36.9750 C   0  0  0  0  0  0  0  0  0  0  0  0
   51.6440   30.6740   38.0430 C   0  0  0  0  0  0  0  0  0  0  0  0
   52.8620   30.1600   37.7310 N   0  0  0  0  0  0  0  0  0  0  0  0
   53.2690   29.8750   36.4860 C   0  0  0  0  0  0  0  0  0  0  0  0
   52.4190   30.1110   35.4490 N   0  0  0  0  0  0  0  0  0  0  0  0
   50.4870   30.8210   34.8820 H   0  0  0  0  0  0  0  0  0  0  0  0
   49.8050   31.3260   37.2380 H   0  0  0  0  0  0  0  0  0  0  0  0
   54.2570   29.4640   36.2960 H   0  0  0  0  0  0  0  0  0  0  0  0
   46.9360   33.0530   41.5630 C   0  0  0  0  0  0  0  0  0  0  0  0
   47.7680   32.0520   42.0480 C   0  0  0  0  0  0  0  0  0  0  0  0
   47.0860   31.0150   42.6250 C   0  0  0  0  0  0  0  0  0  0  0  0
   45.7200   30.9090   42.7450 C   0  0  0  0  0  0  0  0  0  0  0  0
   44.9390   31.9280   42.2470 C   0  0  0  0  0  0  0  0  0  0  0  0
   45.5620   33.0030   41.6530 C   0  0  0  0  0  0  0  0  0  0  0  0
   47.6310   30.1750   43.0390 H   0  0  0  0  0  0  0  0  0  0  0  0
   45.2300   30.0640   43.2110 H   0  0  0  0  0  0  0  0  0  0  0  0
   43.8580   31.9620   42.2810 H   0  0  0  0  0  0  0  0  0  0  0  0
   43.7250   34.4800   42.1050 C   0  0  2  0  0  3  0  0  0  0  0  0
   44.7960   34.1480   41.0890 C   0  0  2  0  0  3  0  0  0  0  0  0
   44.0860   33.8170   39.8050 C   0  0  0  0  0  3  0  0  0  0  0  0
   44.1230   34.7380   39.1540 H   0  0  0  0  0  0  0  0  0  0  0  0
   42.7310   33.5750   40.0130 O   0  0  0  0  0  0  0  0  0  0  0  0
   42.0930   34.7690   40.3430 C   0  0  0  0  0  3  0  0  0  0  0  0
   42.2240   35.4560   39.4790 H   0  0  0  0  0  0  0  0  0  0  0  0
   42.6970   35.4430   41.5580 C   0  0  1  0  0  3  0  0  0  0  0  0
   44.2150   35.0000   43.2860 O   0  0  0  0  0  0  0  0  0  0  0  0
   44.4050   34.3040   43.9600 H   0  0  0  0  0  0  0  0  0  0  0  0
   41.7330   35.6030   42.5600 O   0  0  0  0  0  0  0  0  0  0  0  0
   42.0860   35.3190   43.4550 H   0  0  0  0  0  0  0  0  0  0  0  0
   48.0910   35.1140   40.4250 N   0  0  0  0  0  0  0  0  0  0  0  0
   47.5730   34.2060   40.9270 C   0  0  0  0  0  0  0  0  0  0  0  0
  1 25  1  0  0  0  0
  1  2  1  0  0  0  0
  3  4  1  0  0  0  0
  3  7  1  0  0  0  0
  4  8  1  0  0  0  0
  4  5  1  0  0  0  0
  5 10  1  6  0  0  0
  5  6  1  0  0  0  0
  5  1  1  0  0  0  0
  6 12  1  0  0  0  0
  6 11  1  0  0  0  0
  7 13  1  0  0  0  0
  7  6  1  0  0  0  0
  9  4  1  0  0  0  0
 14  7  1  0  0  0  0
 15 16  1  0  0  0  0
 16 22  1  0  0  0  0
 16 17  2  0  0  0  0
 17  3  1  0  0  0  0
 18 17  1  0  0  0  0
 19 18  2  0  0  0  0
 20 15  2  0  0  0  0
 20 19  1  0  0  0  0
 21 15  1  0  0  0  0
 23 19  1  0  0  0  0
 24 29  2  0  0  0  0
 24 25  1  0  0  0  0
 25 26  2  0  0  0  0
 26 27  1  0  0  0  0
 26 30  1  0  0  0  0
 27 31  1  0  0  0  0
 28 32  1  0  0  0  0
 28 27  2  0  0  0  0
 29 28  1  0  0  0  0
 33 41  1  1  0  0  0
 34 29  1  1  0  0  0
 34 33  1  0  0  0  0
 35 37  1  0  0  0  0
 35 34  1  0  0  0  0
 36 35  1  0  0  0  0
 37 38  1  0  0  0  0
 38 40  1  0  0  0  0
 39 38  1  0  0  0  0
 40 33  1  0  0  0  0
 40 43  1  1  0  0  0
 41 42  1  0  0  0  0
 43 44  1  0  0  0  0
 45 46  3  0  0  0  0
 46 24  1  0  0  0  0
M  END
>  <minimizedAffinity>
-4.75000858

>  <minimizedRMSD>
8.76541042

$$$$
