
 OpenBabel03252506183D

 26 27  0  0  1  0  0  0  0  0999 V2000
   44.9810   35.6930   43.6410 C   0  0  0  0  0  0  0  0  0  0  0  0
   44.1030   35.2590   42.6160 C   0  0  0  0  0  0  0  0  0  0  0  0
   44.2490   33.9580   42.1540 C   0  0  0  0  0  0  0  0  0  0  0  0
   45.2170   33.1660   42.6990 N   0  0  0  0  0  0  0  0  0  0  0  0
   46.0410   33.6140   43.6790 C   0  0  0  0  0  0  0  0  0  0  0  0
   45.9030   34.8760   44.1310 N   0  0  0  0  0  0  0  0  0  0  0  0
   43.3460   35.8980   42.1990 H   0  0  0  0  0  0  0  0  0  0  0  0
   43.6120   33.5530   41.3690 H   0  0  0  0  0  0  0  0  0  0  0  0
   46.8130   32.2390   45.6110 C   0  0  2  0  0  3  0  0  0  0  0  0
   47.0480   32.6780   44.1940 C   0  0  1  0  0  3  0  0  0  0  0  0
   47.0520   31.4230   43.3110 C   0  0  0  0  0  3  0  0  0  0  0  0
   46.2130   30.7680   43.6860 H   0  0  0  0  0  0  0  0  0  0  0  0
   48.2360   30.7800   43.6780 O   0  0  0  0  0  0  0  0  0  0  0  0
   48.0240   30.1350   44.8670 C   0  0  0  0  0  3  0  0  0  0  0  0
   49.0430   29.7860   45.2120 H   0  0  0  0  0  0  0  0  0  0  0  0
   47.3180   30.8760   45.9290 C   0  0  2  0  0  3  0  0  0  0  0  0
   45.4310   32.3860   45.8380 O   0  0  0  0  0  0  0  0  0  0  0  0
   45.0090   31.6060   45.3800 H   0  0  0  0  0  0  0  0  0  0  0  0
   46.1930   30.1130   46.3200 O   0  0  0  0  0  0  0  0  0  0  0  0
   46.0890   30.0520   47.2830 H   0  0  0  0  0  0  0  0  0  0  0  0
   44.8340   37.0680   44.1360 C   0  0  0  0  0  3  0  0  0  0  0  0
   45.4910   38.0320   43.5050 C   0  0  0  0  0  3  0  0  0  0  0  0
   45.3780   39.4450   43.9660 C   0  0  0  0  0  0  0  0  0  0  0  0
   44.4210   39.8750   43.6090 H   0  0  0  0  0  0  0  0  0  0  0  0
   45.3440   39.5140   45.0870 H   0  0  0  0  0  0  0  0  0  0  0  0
   46.1910   40.0660   43.5730 H   0  0  0  0  0  0  0  0  0  0  0  0
  1  6  1  0  0  0  0
  1 21  1  0  0  0  0
  2  1  2  0  0  0  0
  3  2  1  0  0  0  0
  3  4  2  0  0  0  0
  4  5  1  0  0  0  0
  5  6  2  0  0  0  0
  7  2  1  0  0  0  0
  8  3  1  0  0  0  0
  9 17  1  6  0  0  0
  9 16  1  0  0  0  0
 10  5  1  6  0  0  0
 10  9  1  0  0  0  0
 11 13  1  0  0  0  0
 11 12  1  0  0  0  0
 11 10  1  0  0  0  0
 13 14  1  0  0  0  0
 14 15  1  0  0  0  0
 14 16  1  0  0  0  0
 16 19  1  6  0  0  0
 18 17  1  0  0  0  0
 19 20  1  0  0  0  0
 22 23  1  0  0  0  0
 22 21  2  0  0  0  0
 23 25  1  0  0  0  0
 24 23  1  0  0  0  0
 26 23  1  0  0  0  0
M  END
>  <minimizedAffinity>
-3.55676007

>  <minimizedRMSD>
1.73781109

$$$$
