
 OpenBabel03242523393D

 22 23  0  0  1  0  0  0  0  0999 V2000
   36.5180   31.0500   40.1910 C   0  0  2  0  0  3  0  0  0  0  0  0
   37.1250   29.6960   39.9200 C   0  0  1  0  0  3  0  0  0  0  0  0
   38.3700   29.8720   39.1070 C   0  0  0  0  0  3  0  0  0  0  0  0
   39.2750   30.0210   39.7580 H   0  0  0  0  0  0  0  0  0  0  0  0
   38.2060   31.0460   38.3470 O   0  0  0  0  0  0  0  0  0  0  0  0
   38.5330   32.1240   39.1890 C   0  0  0  0  0  3  0  0  0  0  0  0
   38.5160   33.0550   38.5830 H   0  0  0  0  0  0  0  0  0  0  0  0
   37.5560   32.1510   40.3330 C   0  0  1  0  0  3  0  0  0  0  0  0
   37.9410   28.7790   43.4290 C   0  0  0  0  0  0  0  0  0  0  0  0
   37.7220   27.3730   43.4210 C   0  0  0  0  0  0  0  0  0  0  0  0
   37.3040   26.7850   42.2210 C   0  0  0  0  0  0  0  0  0  0  0  0
   37.1300   27.5860   41.1320 N   0  0  0  0  0  0  0  0  0  0  0  0
   37.3510   28.9270   41.1810 C   0  0  0  0  0  0  0  0  0  0  0  0
   37.7500   29.5170   42.3100 N   0  0  0  0  0  0  0  0  0  0  0  0
   38.2640   29.2180   44.3620 H   0  0  0  0  0  0  0  0  0  0  0  0
   37.8790   26.7950   44.3230 H   0  0  0  0  0  0  0  0  0  0  0  0
   37.0120   25.0270   42.1470 S   0  0  0  0  0  0  0  0  0  0  0  0
   36.3180   24.6310   43.3040 H   0  0  0  0  0  0  0  0  0  0  0  0
   35.6850   31.0480   41.2840 O   0  0  0  0  0  0  0  0  0  0  0  0
   36.0300   30.5680   42.0740 H   0  0  0  0  0  0  0  0  0  0  0  0
   36.8470   33.3620   40.2600 O   0  0  0  0  0  0  0  0  0  0  0  0
   35.9430   33.2240   40.6600 H   0  0  0  0  0  0  0  0  0  0  0  0
  1  8  1  0  0  0  0
  1 19  1  1  0  0  0
  2  1  1  0  0  0  0
  2 13  1  1  0  0  0
  3  4  1  0  0  0  0
  3  2  1  0  0  0  0
  5  3  1  0  0  0  0
  5  6  1  0  0  0  0
  6  8  1  0  0  0  0
  7  6  1  0  0  0  0
  8 21  1  6  0  0  0
  9 15  1  0  0  0  0
 10  9  1  0  0  0  0
 10 16  1  0  0  0  0
 11 10  2  0  0  0  0
 12 13  2  0  0  0  0
 12 11  1  0  0  0  0
 13 14  1  0  0  0  0
 14  9  2  0  0  0  0
 17 11  1  0  0  0  0
 17 18  1  0  0  0  0
 19 20  1  0  0  0  0
 21 22  1  0  0  0  0
M  END
>  <minimizedAffinity>
-5.50999784

$$$$

 OpenBabel03242523393D

 22 23  0  0  1  0  0  0  0  0999 V2000
   36.3890   30.9220   40.2520 C   0  0  2  0  0  3  0  0  0  0  0  0
   36.9120   29.5400   39.9500 C   0  0  1  0  0  3  0  0  0  0  0  0
   38.0640   29.6500   38.9990 C   0  0  0  0  0  3  0  0  0  0  0  0
   39.0410   29.7770   39.5420 H   0  0  0  0  0  0  0  0  0  0  0  0
   37.8590   30.8130   38.2330 O   0  0  0  0  0  0  0  0  0  0  0  0
   38.3170   31.8950   39.0050 C   0  0  0  0  0  3  0  0  0  0  0  0
   38.2670   32.8130   38.3820 H   0  0  0  0  0  0  0  0  0  0  0  0
   37.4760   31.9850   40.2510 C   0  0  1  0  0  3  0  0  0  0  0  0
   36.6640   27.5530   43.0820 C   0  0  0  0  0  0  0  0  0  0  0  0
   38.0310   27.4400   43.4640 C   0  0  0  0  0  0  0  0  0  0  0  0
   38.9890   28.0450   42.6420 C   0  0  0  0  0  0  0  0  0  0  0  0
   38.5660   28.7050   41.5270 N   0  0  0  0  0  0  0  0  0  0  0  0
   37.2490   28.7900   41.1970 C   0  0  0  0  0  0  0  0  0  0  0  0
   36.3120   28.2240   41.9600 N   0  0  0  0  0  0  0  0  0  0  0  0
   35.9360   27.0820   43.7260 H   0  0  0  0  0  0  0  0  0  0  0  0
   38.2990   26.9000   44.3640 H   0  0  0  0  0  0  0  0  0  0  0  0
   40.7190   27.9380   43.0670 S   0  0  0  0  0  0  0  0  0  0  0  0
   41.0040   26.6280   43.4890 H   0  0  0  0  0  0  0  0  0  0  0  0
   35.6840   30.9760   41.4300 O   0  0  0  0  0  0  0  0  0  0  0  0
   36.0980   30.4990   42.1890 H   0  0  0  0  0  0  0  0  0  0  0  0
   36.8090   33.2210   40.2250 O   0  0  0  0  0  0  0  0  0  0  0  0
   35.9500   33.1270   40.7270 H   0  0  0  0  0  0  0  0  0  0  0  0
  1 19  1  1  0  0  0
  2  1  1  0  0  0  0
  2 13  1  1  0  0  0
  3  4  1  0  0  0  0
  3  2  1  0  0  0  0
  5  3  1  0  0  0  0
  5  6  1  0  0  0  0
  6  8  1  0  0  0  0
  7  6  1  0  0  0  0
  8 21  1  6  0  0  0
  8  1  1  0  0  0  0
  9 10  1  0  0  0  0
  9 15  1  0  0  0  0
 10 16  1  0  0  0  0
 11 17  1  0  0  0  0
 11 10  2  0  0  0  0
 12 11  1  0  0  0  0
 13 12  2  0  0  0  0
 13 14  1  0  0  0  0
 14  9  2  0  0  0  0
 17 18  1  0  0  0  0
 19 20  1  0  0  0  0
 21 22  1  0  0  0  0
M  END
>  <minimizedAffinity>
-5.42795801

$$$$

 OpenBabel03242523393D

 22 23  0  0  1  0  0  0  0  0999 V2000
   41.4260   32.3850   37.5720 C   0  0  2  0  0  3  0  0  0  0  0  0
   41.0850   31.6970   38.8690 C   0  0  1  0  0  3  0  0  0  0  0  0
   42.0430   32.1460   39.9290 C   0  0  0  0  0  3  0  0  0  0  0  0
   41.6780   33.0710   40.4550 H   0  0  0  0  0  0  0  0  0  0  0  0
   43.2470   32.4840   39.2810 O   0  0  0  0  0  0  0  0  0  0  0  0
   43.0900   33.7900   38.7850 C   0  0  0  0  0  3  0  0  0  0  0  0
   44.0630   34.1210   38.3630 H   0  0  0  0  0  0  0  0  0  0  0  0
   41.9810   33.7860   37.7680 C   0  0  1  0  0  3  0  0  0  0  0  0
   37.9520   33.0760   40.3180 C   0  0  0  0  0  0  0  0  0  0  0  0
   36.9810   32.1430   39.8560 C   0  0  0  0  0  0  0  0  0  0  0  0
   37.4280   31.0760   39.0660 C   0  0  0  0  0  0  0  0  0  0  0  0
   38.7580   30.9890   38.7850 N   0  0  0  0  0  0  0  0  0  0  0  0
   39.6540   31.9020   39.2470 C   0  0  0  0  0  0  0  0  0  0  0  0
   39.2600   32.9290   40.0010 N   0  0  0  0  0  0  0  0  0  0  0  0
   37.5930   33.8940   40.9270 H   0  0  0  0  0  0  0  0  0  0  0  0
   35.9380   32.2720   40.1170 H   0  0  0  0  0  0  0  0  0  0  0  0
   36.2590   29.8740   38.4560 S   0  0  0  0  0  0  0  0  0  0  0  0
   35.1120   30.5450   37.9980 H   0  0  0  0  0  0  0  0  0  0  0  0
   40.3670   32.4200   36.6960 O   0  0  0  0  0  0  0  0  0  0  0  0
   39.5000   32.6660   37.0970 H   0  0  0  0  0  0  0  0  0  0  0  0
   42.5360   34.1590   36.5320 O   0  0  0  0  0  0  0  0  0  0  0  0
   41.9990   33.7360   35.8040 H   0  0  0  0  0  0  0  0  0  0  0  0
  1 19  1  6  0  0  0
  1  8  1  0  0  0  0
  1  2  1  0  0  0  0
  2 13  1  1  0  0  0
  2  3  1  0  0  0  0
  3  4  1  0  0  0  0
  5  3  1  0  0  0  0
  6  5  1  0  0  0  0
  7  6  1  0  0  0  0
  8 21  1  6  0  0  0
  8  6  1  0  0  0  0
  9 15  1  0  0  0  0
 10 16  1  0  0  0  0
 10  9  2  0  0  0  0
 11 10  1  0  0  0  0
 12 11  2  0  0  0  0
 12 13  1  0  0  0  0
 13 14  2  0  0  0  0
 14  9  1  0  0  0  0
 17 11  1  0  0  0  0
 18 17  1  0  0  0  0
 19 20  1  0  0  0  0
 22 21  1  0  0  0  0
M  END
>  <minimizedAffinity>
-4.92335558

$$$$

 OpenBabel03242523393D

 22 23  0  0  1  0  0  0  0  0999 V2000
   37.8810   32.4710   39.9950 C   0  0  2  0  0  3  0  0  0  0  0  0
   38.1770   31.2020   39.2350 C   0  0  1  0  0  3  0  0  0  0  0  0
   39.6590   31.0750   39.0530 C   0  0  0  0  0  3  0  0  0  0  0  0
   40.1390   30.5360   39.9160 H   0  0  0  0  0  0  0  0  0  0  0  0
   40.1860   32.3810   39.0320 O   0  0  0  0  0  0  0  0  0  0  0  0
   40.3250   32.7850   40.3720 C   0  0  0  0  0  3  0  0  0  0  0  0
   40.8400   33.7700   40.3860 H   0  0  0  0  0  0  0  0  0  0  0  0
   38.9600   32.8280   41.0040 C   0  0  1  0  0  3  0  0  0  0  0  0
   35.9140   28.3700   40.0580 C   0  0  0  0  0  0  0  0  0  0  0  0
   36.5530   27.8090   41.1990 C   0  0  0  0  0  0  0  0  0  0  0  0
   37.7330   28.4140   41.6490 C   0  0  0  0  0  0  0  0  0  0  0  0
   38.2030   29.5020   40.9750 N   0  0  0  0  0  0  0  0  0  0  0  0
   37.5620   30.0070   39.8880 C   0  0  0  0  0  0  0  0  0  0  0  0
   36.4360   29.4530   39.4350 N   0  0  0  0  0  0  0  0  0  0  0  0
   35.0050   27.8920   39.7220 H   0  0  0  0  0  0  0  0  0  0  0  0
   36.1250   26.9420   41.6880 H   0  0  0  0  0  0  0  0  0  0  0  0
   38.5810   27.7570   43.0750 S   0  0  0  0  0  0  0  0  0  0  0  0
   38.6010   26.3540   42.9860 H   0  0  0  0  0  0  0  0  0  0  0  0
   36.6530   32.4440   40.6120 O   0  0  0  0  0  0  0  0  0  0  0  0
   36.4390   31.6030   41.0820 H   0  0  0  0  0  0  0  0  0  0  0  0
   38.7080   34.1570   41.3840 O   0  0  0  0  0  0  0  0  0  0  0  0
   37.7220   34.3120   41.3600 H   0  0  0  0  0  0  0  0  0  0  0  0
  1 19  1  1  0  0  0
  1  8  1  0  0  0  0
  2 13  1  1  0  0  0
  2  1  1  0  0  0  0
  3  2  1  0  0  0  0
  3  4  1  0  0  0  0
  5  3  1  0  0  0  0
  5  6  1  0  0  0  0
  6  7  1  0  0  0  0
  6  8  1  0  0  0  0
  8 21  1  6  0  0  0
  9 10  1  0  0  0  0
 10 11  2  0  0  0  0
 10 16  1  0  0  0  0
 11 17  1  0  0  0  0
 12 11  1  0  0  0  0
 13 12  2  0  0  0  0
 14 13  1  0  0  0  0
 14  9  2  0  0  0  0
 15  9  1  0  0  0  0
 18 17  1  0  0  0  0
 19 20  1  0  0  0  0
 22 21  1  0  0  0  0
M  END
>  <minimizedAffinity>
-4.73020458

$$$$

 OpenBabel03242523393D

 22 23  0  0  1  0  0  0  0  0999 V2000
   36.3600   30.3710   41.3090 C   0  0  2  0  0  3  0  0  0  0  0  0
   37.8320   30.2350   41.6040 C   0  0  1  0  0  3  0  0  0  0  0  0
   38.2380   28.8040   41.4180 C   0  0  0  0  0  3  0  0  0  0  0  0
   38.5480   28.5940   40.3580 H   0  0  0  0  0  0  0  0  0  0  0  0
   37.1030   28.0140   41.6850 O   0  0  0  0  0  0  0  0  0  0  0  0
   36.3270   28.0080   40.5120 C   0  0  0  0  0  3  0  0  0  0  0  0
   35.4800   27.3050   40.6600 H   0  0  0  0  0  0  0  0  0  0  0  0
   35.8770   29.4160   40.2290 C   0  0  1  0  0  3  0  0  0  0  0  0
   39.4380   33.3210   40.2970 C   0  0  0  0  0  0  0  0  0  0  0  0
   40.2120   32.8120   39.2170 C   0  0  0  0  0  0  0  0  0  0  0  0
   40.1600   31.4340   38.9710 C   0  0  0  0  0  0  0  0  0  0  0  0
   39.3760   30.6610   39.7730 N   0  0  0  0  0  0  0  0  0  0  0  0
   38.6510   31.1870   40.7960 C   0  0  0  0  0  0  0  0  0  0  0  0
   38.6800   32.4950   41.0560 N   0  0  0  0  0  0  0  0  0  0  0  0
   39.4880   34.3860   40.4750 H   0  0  0  0  0  0  0  0  0  0  0  0
   40.8140   33.4840   38.6180 H   0  0  0  0  0  0  0  0  0  0  0  0
   41.1080   30.7360   37.6310 S   0  0  0  0  0  0  0  0  0  0  0  0
   42.3880   31.3170   37.6270 H   0  0  0  0  0  0  0  0  0  0  0  0
   36.0010   31.6590   40.9890 O   0  0  0  0  0  0  0  0  0  0  0  0
   36.6090   32.1200   40.3630 H   0  0  0  0  0  0  0  0  0  0  0  0
   34.4740   29.4360   40.2940 O   0  0  0  0  0  0  0  0  0  0  0  0
   34.1830   30.3500   40.5740 H   0  0  0  0  0  0  0  0  0  0  0  0
  1 19  1  6  0  0  0
  1  2  1  0  0  0  0
  2 13  1  6  0  0  0
  3  2  1  0  0  0  0
  3  5  1  0  0  0  0
  4  3  1  0  0  0  0
  6  7  1  0  0  0  0
  6  5  1  0  0  0  0
  8 21  1  1  0  0  0
  8  6  1  0  0  0  0
  8  1  1  0  0  0  0
  9 15  1  0  0  0  0
  9 14  1  0  0  0  0
 10  9  2  0  0  0  0
 11 10  1  0  0  0  0
 11 12  2  0  0  0  0
 12 13  1  0  0  0  0
 13 14  2  0  0  0  0
 16 10  1  0  0  0  0
 17 11  1  0  0  0  0
 18 17  1  0  0  0  0
 20 19  1  0  0  0  0
 21 22  1  0  0  0  0
M  END
>  <minimizedAffinity>
-4.54618692

$$$$

 OpenBabel03242523393D

 22 23  0  0  1  0  0  0  0  0999 V2000
   37.6000   31.1830   39.7830 C   0  0  2  0  0  3  0  0  0  0  0  0
   38.6650   30.1960   40.1860 C   0  0  1  0  0  3  0  0  0  0  0  0
   39.8940   30.9450   40.6030 C   0  0  0  0  0  3  0  0  0  0  0  0
   39.8760   31.1980   41.6990 H   0  0  0  0  0  0  0  0  0  0  0  0
   39.8970   32.1620   39.8940 O   0  0  0  0  0  0  0  0  0  0  0  0
   39.0510   33.0420   40.5920 C   0  0  0  0  0  3  0  0  0  0  0  0
   39.1200   34.0420   40.1140 H   0  0  0  0  0  0  0  0  0  0  0  0
   37.6560   32.4780   40.5760 C   0  0  1  0  0  3  0  0  0  0  0  0
   37.5450   28.7200   43.4090 C   0  0  0  0  0  0  0  0  0  0  0  0
   37.2680   27.3760   43.0330 C   0  0  0  0  0  0  0  0  0  0  0  0
   37.4740   27.0180   41.6950 C   0  0  0  0  0  0  0  0  0  0  0  0
   37.9240   27.9700   40.8300 N   0  0  0  0  0  0  0  0  0  0  0  0
   38.1760   29.2450   41.2290 C   0  0  0  0  0  0  0  0  0  0  0  0
   37.9910   29.6170   42.4970 N   0  0  0  0  0  0  0  0  0  0  0  0
   37.3820   28.9820   44.4450 H   0  0  0  0  0  0  0  0  0  0  0  0
   36.9130   26.6690   43.7720 H   0  0  0  0  0  0  0  0  0  0  0  0
   37.1450   25.3470   41.1630 S   0  0  0  0  0  0  0  0  0  0  0  0
   35.9400   24.9130   41.7410 H   0  0  0  0  0  0  0  0  0  0  0  0
   36.3340   30.6510   39.8460 O   0  0  0  0  0  0  0  0  0  0  0  0
   36.1420   30.1190   40.6550 H   0  0  0  0  0  0  0  0  0  0  0  0
   36.8370   33.3890   39.8870 O   0  0  0  0  0  0  0  0  0  0  0  0
   36.0870   32.8830   39.4640 H   0  0  0  0  0  0  0  0  0  0  0  0
  1 19  1  1  0  0  0
  1  2  1  0  0  0  0
  1  8  1  0  0  0  0
  2  3  1  0  0  0  0
  2 13  1  1  0  0  0
  3  4  1  0  0  0  0
  5  6  1  0  0  0  0
  5  3  1  0  0  0  0
  7  6  1  0  0  0  0
  8 21  1  6  0  0  0
  8  6  1  0  0  0  0
  9 15  1  0  0  0  0
 10  9  1  0  0  0  0
 10 16  1  0  0  0  0
 11 10  2  0  0  0  0
 12 13  2  0  0  0  0
 12 11  1  0  0  0  0
 13 14  1  0  0  0  0
 14  9  2  0  0  0  0
 17 11  1  0  0  0  0
 17 18  1  0  0  0  0
 19 20  1  0  0  0  0
 22 21  1  0  0  0  0
M  END
>  <minimizedAffinity>
-4.45873404

$$$$

 OpenBabel03242523393D

 22 23  0  0  1  0  0  0  0  0999 V2000
   36.2940   28.3810   41.4910 C   0  0  2  0  0  3  0  0  0  0  0  0
   37.1580   27.3480   40.8150 C   0  0  1  0  0  3  0  0  0  0  0  0
   37.6410   27.8940   39.5060 C   0  0  0  0  0  3  0  0  0  0  0  0
   38.6070   28.4590   39.6220 H   0  0  0  0  0  0  0  0  0  0  0  0
   36.6720   28.8120   39.0580 O   0  0  0  0  0  0  0  0  0  0  0  0
   36.9220   30.0250   39.7250 C   0  0  0  0  0  3  0  0  0  0  0  0
   36.2390   30.7970   39.3100 H   0  0  0  0  0  0  0  0  0  0  0  0
   36.7330   29.8080   41.2020 C   0  0  1  0  0  3  0  0  0  0  0  0
   39.2960   25.2920   43.0540 C   0  0  0  0  0  0  0  0  0  0  0  0
   40.3820   26.1750   43.3130 C   0  0  0  0  0  0  0  0  0  0  0  0
   40.3480   27.4410   42.7160 C   0  0  0  0  0  0  0  0  0  0  0  0
   39.2840   27.7570   41.9240 N   0  0  0  0  0  0  0  0  0  0  0  0
   38.2660   26.8830   41.7020 C   0  0  0  0  0  0  0  0  0  0  0  0
   38.2700   25.6700   42.2570 N   0  0  0  0  0  0  0  0  0  0  0  0
   39.3360   24.3180   43.5220 H   0  0  0  0  0  0  0  0  0  0  0  0
   41.1960   25.8600   43.9530 H   0  0  0  0  0  0  0  0  0  0  0  0
   41.6790   28.5940   43.0020 S   0  0  0  0  0  0  0  0  0  0  0  0
   42.9020   27.9060   42.9230 H   0  0  0  0  0  0  0  0  0  0  0  0
   36.2000   28.1870   42.8490 O   0  0  0  0  0  0  0  0  0  0  0  0
   37.0510   27.9770   43.3020 H   0  0  0  0  0  0  0  0  0  0  0  0
   35.6740   30.6310   41.6210 O   0  0  0  0  0  0  0  0  0  0  0  0
   35.2310   30.2010   42.4070 H   0  0  0  0  0  0  0  0  0  0  0  0
  1 19  1  1  0  0  0
  2  1  1  0  0  0  0
  2 13  1  1  0  0  0
  3  4  1  0  0  0  0
  3  2  1  0  0  0  0
  5  3  1  0  0  0  0
  5  6  1  0  0  0  0
  6  8  1  0  0  0  0
  7  6  1  0  0  0  0
  8  1  1  0  0  0  0
  8 21  1  6  0  0  0
  9 10  1  0  0  0  0
  9 15  1  0  0  0  0
 10 16  1  0  0  0  0
 11 17  1  0  0  0  0
 11 10  2  0  0  0  0
 12 11  1  0  0  0  0
 13 12  2  0  0  0  0
 13 14  1  0  0  0  0
 14  9  2  0  0  0  0
 18 17  1  0  0  0  0
 19 20  1  0  0  0  0
 21 22  1  0  0  0  0
M  END
>  <minimizedAffinity>
-4.40708971

$$$$

 OpenBabel03242523393D

 22 23  0  0  1  0  0  0  0  0999 V2000
   36.2270   29.2900   40.1510 C   0  0  2  0  0  3  0  0  0  0  0  0
   37.3070   28.3240   39.7320 C   0  0  1  0  0  3  0  0  0  0  0  0
   38.6450   28.9560   39.9630 C   0  0  0  0  0  3  0  0  0  0  0  0
   39.0270   28.7540   41.0020 H   0  0  0  0  0  0  0  0  0  0  0  0
   38.4710   30.3480   39.8470 O   0  0  0  0  0  0  0  0  0  0  0  0
   37.9780   30.8020   41.0830 C   0  0  0  0  0  3  0  0  0  0  0  0
   37.9340   31.9110   41.0540 H   0  0  0  0  0  0  0  0  0  0  0  0
   36.6340   30.1670   41.3240 C   0  0  1  0  0  3  0  0  0  0  0  0
   37.3540   25.5900   42.2490 C   0  0  0  0  0  0  0  0  0  0  0  0
   36.8240   24.4990   41.5050 C   0  0  0  0  0  0  0  0  0  0  0  0
   36.4690   24.7320   40.1700 C   0  0  0  0  0  0  0  0  0  0  0  0
   36.6490   25.9830   39.6600 N   0  0  0  0  0  0  0  0  0  0  0  0
   37.1590   26.9990   40.4060 C   0  0  0  0  0  0  0  0  0  0  0  0
   37.5060   26.8090   41.6800 N   0  0  0  0  0  0  0  0  0  0  0  0
   37.6230   25.3950   43.2780 H   0  0  0  0  0  0  0  0  0  0  0  0
   36.7080   23.5290   41.9720 H   0  0  0  0  0  0  0  0  0  0  0  0
   35.8000   23.4040   39.1840 S   0  0  0  0  0  0  0  0  0  0  0  0
   34.8680   22.6890   39.9560 H   0  0  0  0  0  0  0  0  0  0  0  0
   35.0350   28.6650   40.4270 O   0  0  0  0  0  0  0  0  0  0  0  0
   35.1080   27.8420   40.9680 H   0  0  0  0  0  0  0  0  0  0  0  0
   35.6820   31.1980   41.3850 O   0  0  0  0  0  0  0  0  0  0  0  0
   34.8020   30.8350   41.0800 H   0  0  0  0  0  0  0  0  0  0  0  0
  1 19  1  1  0  0  0
  1  8  1  0  0  0  0
  2  3  1  0  0  0  0
  2  1  1  0  0  0  0
  2 13  1  1  0  0  0
  3  4  1  0  0  0  0
  5  3  1  0  0  0  0
  5  6  1  0  0  0  0
  6  8  1  0  0  0  0
  7  6  1  0  0  0  0
  8 21  1  6  0  0  0
  9 15  1  0  0  0  0
 10 16  1  0  0  0  0
 10  9  2  0  0  0  0
 11 10  1  0  0  0  0
 12 11  2  0  0  0  0
 12 13  1  0  0  0  0
 13 14  2  0  0  0  0
 14  9  1  0  0  0  0
 17 18  1  0  0  0  0
 17 11  1  0  0  0  0
 19 20  1  0  0  0  0
 22 21  1  0  0  0  0
M  END
>  <minimizedAffinity>
-4.39899349

$$$$

 OpenBabel03242523393D

 22 23  0  0  1  0  0  0  0  0999 V2000
   39.6260   33.5210   40.3540 C   0  0  2  0  0  3  0  0  0  0  0  0
   38.9140   32.6050   39.3910 C   0  0  1  0  0  3  0  0  0  0  0  0
   39.9130   32.0300   38.4340 C   0  0  0  0  0  3  0  0  0  0  0  0
   40.3650   31.0780   38.8270 H   0  0  0  0  0  0  0  0  0  0  0  0
   40.9560   32.9670   38.3110 O   0  0  0  0  0  0  0  0  0  0  0  0
   41.8100   32.7730   39.4110 C   0  0  0  0  0  3  0  0  0  0  0  0
   42.6990   33.4270   39.2810 H   0  0  0  0  0  0  0  0  0  0  0  0
   41.0420   33.0690   40.6710 C   0  0  1  0  0  3  0  0  0  0  0  0
   36.1190   30.7150   40.9500 C   0  0  0  0  0  0  0  0  0  0  0  0
   36.7860   29.5540   41.4340 C   0  0  0  0  0  0  0  0  0  0  0  0
   38.1650   29.4560   41.2120 C   0  0  0  0  0  0  0  0  0  0  0  0
   38.7910   30.4690   40.5500 N   0  0  0  0  0  0  0  0  0  0  0  0
   38.1160   31.5630   40.1040 C   0  0  0  0  0  0  0  0  0  0  0  0
   36.8020   31.6860   40.2990 N   0  0  0  0  0  0  0  0  0  0  0  0
   35.0550   30.7780   41.1290 H   0  0  0  0  0  0  0  0  0  0  0  0
   36.2280   28.7850   41.9530 H   0  0  0  0  0  0  0  0  0  0  0  0
   39.0580   28.0250   41.7940 S   0  0  0  0  0  0  0  0  0  0  0  0
   38.3030   26.8720   41.5150 H   0  0  0  0  0  0  0  0  0  0  0  0
   38.9240   33.7130   41.5200 O   0  0  0  0  0  0  0  0  0  0  0  0
   38.5340   32.8970   41.9140 H   0  0  0  0  0  0  0  0  0  0  0  0
   41.6640   34.1600   41.3020 O   0  0  0  0  0  0  0  0  0  0  0  0
   40.9750   34.6570   41.8270 H   0  0  0  0  0  0  0  0  0  0  0  0
  1  8  1  0  0  0  0
  1 19  1  1  0  0  0
  2 13  1  1  0  0  0
  2  1  1  0  0  0  0
  3  4  1  0  0  0  0
  3  2  1  0  0  0  0
  5  3  1  0  0  0  0
  5  6  1  0  0  0  0
  6  8  1  0  0  0  0
  7  6  1  0  0  0  0
  8 21  1  6  0  0  0
  9 15  1  0  0  0  0
  9 10  1  0  0  0  0
 10 16  1  0  0  0  0
 11 10  2  0  0  0  0
 11 17  1  0  0  0  0
 12 11  1  0  0  0  0
 13 14  1  0  0  0  0
 13 12  2  0  0  0  0
 14  9  2  0  0  0  0
 18 17  1  0  0  0  0
 19 20  1  0  0  0  0
 21 22  1  0  0  0  0
M  END
>  <minimizedAffinity>
-4.38418055

$$$$
