
     RDKit          3D

 27 28  0  0  0  0  0  0  0  0999 V2000
   45.0014   35.4817   44.1935 C   0  0  0  0  0  0  0  0  0  0  0  0
   45.9783   34.9340   43.3369 C   0  0  0  0  0  0  0  0  0  0  0  0
   46.7152   33.8314   43.8375 C   0  0  0  0  0  0  0  0  0  0  0  0
   46.4376   33.3795   45.0913 N   0  0  0  0  0  0  0  0  0  0  0  0
   45.4967   33.9398   45.8615 C   0  0  0  0  0  0  0  0  0  0  0  0
   44.7796   34.9920   45.4092 N   0  0  0  0  0  0  0  0  0  0  0  0
   44.2892   36.5446   43.7142 O   0  0  0  0  0  0  0  0  0  0  0  0
   46.2038   35.2791   42.3548 H   0  0  0  0  0  0  0  0  0  0  0  0
   47.4837   33.3662   43.2207 H   0  0  0  0  0  0  0  0  0  0  0  0
   44.1583   37.3606   44.3259 H   0  0  0  0  0  0  0  0  0  0  0  0
   47.3345   32.2692   46.9093 O   0  0  0  0  0  0  0  0  0  0  0  0
   46.3378   32.6219   47.8089 C   0  0  2  0  0  0  0  0  0  0  0  0
   45.2253   33.4135   47.2281 C   0  0  1  0  0  0  0  0  0  0  0  0
   44.9349   34.6613   48.0717 C   0  0  2  0  0  0  0  0  0  0  0  0
   44.0035   35.1466   47.7487 H   0  0  0  0  0  0  0  0  0  0  0  0
   44.6987   34.1524   49.3559 O   0  0  0  0  0  0  0  0  0  0  0  0
   45.8564   33.7177   49.9743 C   0  0  2  0  0  0  0  0  0  0  0  0
   45.5822   32.8123   50.5580 H   0  0  0  0  0  0  0  0  0  0  0  0
   46.9540   33.3541   48.9959 C   0  0  1  0  0  0  0  0  0  0  0  0
   47.8595   32.4748   49.5826 O   0  0  0  0  0  0  0  0  0  0  0  0
   47.5849   31.2997   47.0036 H   0  0  0  0  0  0  0  0  0  0  0  0
   45.9156   31.6743   48.2396 H   0  0  0  0  0  0  0  0  0  0  0  0
   44.2609   32.8253   47.2286 H   0  0  0  0  0  0  0  0  0  0  0  0
   45.8045   35.3304   48.1161 H   0  0  0  0  0  0  0  0  0  0  0  0
   46.2137   34.5580   50.6270 H   0  0  0  0  0  0  0  0  0  0  0  0
   47.5319   34.2409   48.6584 H   0  0  0  0  0  0  0  0  0  0  0  0
   48.2006   31.7802   48.9701 H   0  0  0  0  0  0  0  0  0  0  0  0
  1  6  2  0
  2  3  2  0
  2  1  1  0
  3  4  1  0
  4  5  2  0
  6  5  1  0
  7  1  1  0
  2  8  1  0
  3  9  1  0
  7 10  1  0
 11 12  1  0
 12 13  1  0
 13 14  1  0
 14 15  1  6
 14 16  1  0
 16 17  1  0
 17 18  1  1
 17 19  1  0
 19 20  1  0
 19 12  1  0
 11 21  1  0
 12 22  1  1
 13 23  1  6
 14 24  1  0
 17 25  1  0
 19 26  1  6
 20 27  1  0
  5 13  1  0
M  ISO  5   8  14   9  14  10   3  15   8  18   8
M  END
>  <DihAtoms>  (1) 
3,4,12,11

>  <DihDeg>  (1) 
-54.163965129470995

$$$$
