
     RDKit          3D

 27 28  0  0  0  0  0  0  0  0999 V2000
   44.5381   36.0313   44.5308 C   0  0  0  0  0  0  0  0  0  0  0  0
   45.2653   35.8886   43.3162 C   0  0  0  0  0  0  0  0  0  0  0  0
   46.1333   34.7960   43.1999 C   0  0  0  0  0  0  0  0  0  0  0  0
   46.2343   33.9331   44.2501 N   0  0  0  0  0  0  0  0  0  0  0  0
   45.5211   34.1047   45.3954 C   0  0  0  0  0  0  0  0  0  0  0  0
   44.6864   35.1359   45.5356 N   0  0  0  0  0  0  0  0  0  0  0  0
   47.0725   34.5634   41.7010 S   0  0  0  0  0  0  0  0  0  0  0  0
   43.8722   36.8792   44.6060 H   0  0  0  0  0  0  0  0  0  0  0  0
   45.1373   36.6121   42.5202 H   0  0  0  0  0  0  0  0  0  0  0  0
   47.5826   35.8053   41.2858 H   0  0  0  0  0  0  0  0  0  0  0  0
   44.2763   34.5195   47.7543 O   0  0  0  0  0  0  0  0  0  0  0  0
   44.6836   33.2200   47.5620 C   0  0  2  0  0  0  0  0  0  0  0  0
   45.7197   33.0906   46.4735 C   0  0  1  0  0  0  0  0  0  0  0  0
   45.7195   31.6819   45.9634 C   0  0  1  0  0  0  0  0  0  0  0  0
   44.9850   31.5427   45.1238 H   0  0  0  0  0  0  0  0  0  0  0  0
   45.2998   30.8582   47.0261 O   0  0  0  0  0  0  0  0  0  0  0  0
   43.8945   30.9109   47.0509 C   0  0  2  0  0  0  0  0  0  0  0  0
   43.5321   30.1856   47.8102 H   0  0  0  0  0  0  0  0  0  0  0  0
   43.4741   32.3258   47.3443 C   0  0  1  0  0  0  0  0  0  0  0  0
   42.7749   32.3180   48.5626 O   0  0  0  0  0  0  0  0  0  0  0  0
   44.0965   35.0282   46.9275 H   0  0  0  0  0  0  0  0  0  0  0  0
   45.1432   32.8618   48.5132 H   0  0  0  0  0  0  0  0  0  0  0  0
   46.7132   33.2948   46.9499 H   0  0  0  0  0  0  0  0  0  0  0  0
   46.7457   31.3373   45.6749 H   0  0  0  0  0  0  0  0  0  0  0  0
   43.5610   30.6112   46.0160 H   0  0  0  0  0  0  0  0  0  0  0  0
   42.7850   32.7273   46.5547 H   0  0  0  0  0  0  0  0  0  0  0  0
   42.8929   33.2075   49.0009 H   0  0  0  0  0  0  0  0  0  0  0  0
  1  6  2  0
  2  1  1  0
  3  2  2  0
  3  4  1  0
  4  5  2  0
  5  6  1  0
  7  3  1  0
  1  8  1  0
  2  9  1  0
  7 10  1  0
 11 12  1  0
 12 13  1  0
 13 14  1  0
 14 15  1  6
 14 16  1  0
 16 17  1  0
 17 18  1  1
 17 19  1  0
 19 20  1  0
 19 12  1  0
 11 21  1  0
 12 22  1  1
 13 23  1  1
 14 24  1  0
 17 25  1  0
 19 26  1  6
 20 27  1  0
  5 13  1  0
M  ISO  5   8  14   9  14  10  11  15   8  18   8
M  END
>  <DihAtoms>  (1) 
3,4,12,11

>  <DihDeg>  (1) 
116.73696216272855

$$$$
