
 OpenBabel03252506303D

 50 54  0  0  1  0  0  0  0  0999 V2000
   38.2600   31.5170   38.5570 C   0  0  0  0  0  0  0  0  0  0  0  0
   38.9360   30.4430   37.9500 C   0  0  0  0  0  0  0  0  0  0  0  0
   38.0230   29.5450   37.5200 C   0  0  0  0  0  0  0  0  0  0  0  0
   36.8320   30.0380   37.8460 N   0  0  0  0  0  0  0  0  0  0  0  0
   36.9550   31.2100   38.4630 N   0  0  0  0  0  0  0  0  0  0  0  0
   40.0040   30.3690   37.8550 H   0  0  0  0  0  0  0  0  0  0  0  0
   38.2550   28.6230   37.0170 H   0  0  0  0  0  0  0  0  0  0  0  0
   38.8350   34.4730   40.6230 C   0  0  0  0  0  0  0  0  0  0  0  0
   40.1090   34.8720   40.2620 C   0  0  0  0  0  0  0  0  0  0  0  0
   40.7790   34.1200   39.2990 C   0  0  0  0  0  0  0  0  0  0  0  0
   40.1250   33.0520   38.7910 N   0  0  0  0  0  0  0  0  0  0  0  0
   38.9060   32.6700   39.1370 C   0  0  0  0  0  0  0  0  0  0  0  0
   38.2640   33.3950   40.0640 N   0  0  0  0  0  0  0  0  0  0  0  0
   38.3520   35.0870   41.3760 H   0  0  0  0  0  0  0  0  0  0  0  0
   40.6400   35.7130   40.6510 H   0  0  0  0  0  0  0  0  0  0  0  0
   42.4130   33.6910   37.4910 C   0  0  2  0  0  3  0  0  0  0  0  0
   42.1580   34.4030   38.7860 C   0  0  2  0  0  3  0  0  0  0  0  0
   43.1220   34.0410   39.8830 C   0  0  0  0  0  3  0  0  0  0  0  0
   43.0230   34.8350   40.6560 H   0  0  0  0  0  0  0  0  0  0  0  0
   44.4370   33.9780   39.4780 O   0  0  0  0  0  0  0  0  0  0  0  0
   44.6430   33.2150   38.3560 C   0  0  0  0  0  3  0  0  0  0  0  0
   45.1510   33.7920   37.5420 H   0  0  0  0  0  0  0  0  0  0  0  0
   43.4140   32.5930   37.7780 C   0  0  2  0  0  3  0  0  0  0  0  0
   42.9610   34.5440   36.5460 O   0  0  0  0  0  0  0  0  0  0  0  0
   43.2130   35.3860   37.0100 H   0  0  0  0  0  0  0  0  0  0  0  0
   43.7700   31.9200   36.6130 O   0  0  0  0  0  0  0  0  0  0  0  0
   43.8400   32.5390   35.8310 H   0  0  0  0  0  0  0  0  0  0  0  0
   35.5470   29.4040   37.5760 C   0  0  0  0  0  0  0  0  0  0  0  0
   35.7540   28.4890   36.9890 H   0  0  0  0  0  0  0  0  0  0  0  0
   34.8890   30.0870   37.0280 H   0  0  0  0  0  0  0  0  0  0  0  0
   34.8790   29.0050   38.8360 C   0  0  0  0  0  0  0  0  0  0  0  0
   33.9560   28.4180   38.5640 H   0  0  0  0  0  0  0  0  0  0  0  0
   34.4560   29.9420   39.2980 H   0  0  0  0  0  0  0  0  0  0  0  0
   36.3070   27.0960   39.7450 C   0  0  0  0  0  0  0  0  0  0  0  0
   35.6830   28.3220   39.8260 C   0  0  0  0  0  0  0  0  0  0  0  0
   35.8410   29.0120   41.0250 C   0  0  0  0  0  0  0  0  0  0  0  0
   36.5740   28.5020   42.0640 C   0  0  0  0  0  0  0  0  0  0  0  0
   36.8900   28.9340   43.3070 N   0  0  0  0  0  0  0  0  0  0  0  0
   37.6530   28.0480   43.9560 C   0  0  0  0  0  0  0  0  0  0  0  0
   37.8690   26.9550   43.1160 C   0  0  0  0  0  0  0  0  0  0  0  0
   37.1900   27.2890   41.9830 C   0  0  0  0  0  0  0  0  0  0  0  0
   37.0420   26.5940   40.7990 C   0  0  0  0  0  0  0  0  0  0  0  0
   36.1650   26.5830   38.7980 H   0  0  0  0  0  0  0  0  0  0  0  0
   35.4050   29.9920   41.2290 H   0  0  0  0  0  0  0  0  0  0  0  0
   36.5770   29.8600   43.7240 H   0  0  0  0  0  0  0  0  0  0  0  0
   38.0420   28.1540   44.9660 H   0  0  0  0  0  0  0  0  0  0  0  0
   38.4550   26.0950   43.3940 H   0  0  0  0  0  0  0  0  0  0  0  0
   37.6790   25.2830   40.6450 C   0  0  0  0  0  0  0  0  0  0  0  0
   37.0890   24.2270   40.9810 O   0  0  0  0  0  0  0  0  0  0  0  0
   38.6790   25.2070   40.2360 H   0  0  0  0  0  0  0  0  0  0  0  0
  1 12  1  0  0  0  0
  2  1  1  0  0  0  0
  3  4  1  0  0  0  0
  3  2  2  0  0  0  0
  4  5  1  0  0  0  0
  5  1  2  0  0  0  0
  6  2  1  0  0  0  0
  7  3  1  0  0  0  0
  8 14  1  0  0  0  0
  9  8  1  0  0  0  0
  9 15  1  0  0  0  0
 10  9  2  0  0  0  0
 11 12  2  0  0  0  0
 11 10  1  0  0  0  0
 12 13  1  0  0  0  0
 13  8  2  0  0  0  0
 16 24  1  6  0  0  0
 16 23  1  0  0  0  0
 16 17  1  0  0  0  0
 17 10  1  1  0  0  0
 17 18  1  0  0  0  0
 18 19  1  0  0  0  0
 20 18  1  0  0  0  0
 21 20  1  0  0  0  0
 22 21  1  0  0  0  0
 23 26  1  6  0  0  0
 23 21  1  0  0  0  0
 24 25  1  0  0  0  0
 27 26  1  0  0  0  0
 28  4  1  0  0  0  0
 28 31  1  0  0  0  0
 29 28  1  0  0  0  0
 30 28  1  0  0  0  0
 31 33  1  0  0  0  0
 31 35  1  0  0  0  0
 32 31  1  0  0  0  0
 34 35  2  0  0  0  0
 34 42  1  0  0  0  0
 35 36  1  0  0  0  0
 36 44  1  0  0  0  0
 36 37  2  0  0  0  0
 37 38  1  0  0  0  0
 38 45  1  0  0  0  0
 38 39  1  0  0  0  0
 39 46  1  0  0  0  0
 40 47  1  0  0  0  0
 40 39  2  0  0  0  0
 41 37  1  0  0  0  0
 41 40  1  0  0  0  0
 42 41  2  0  0  0  0
 43 34  1  0  0  0  0
 48 42  1  0  0  0  0
 48 49  2  0  0  0  0
 50 48  1  0  0  0  0
M  END
>  <minimizedAffinity>
-7.97638464

$$$$

 OpenBabel03252506303D

 50 54  0  0  1  0  0  0  0  0999 V2000
   37.9580   31.9440   38.7540 C   0  0  0  0  0  0  0  0  0  0  0  0
   38.1880   31.3450   37.5030 C   0  0  0  0  0  0  0  0  0  0  0  0
   37.2520   30.3920   37.3010 C   0  0  0  0  0  0  0  0  0  0  0  0
   36.4760   30.3960   38.3800 N   0  0  0  0  0  0  0  0  0  0  0  0
   36.8810   31.3130   39.2540 N   0  0  0  0  0  0  0  0  0  0  0  0
   38.9830   31.6160   36.8320 H   0  0  0  0  0  0  0  0  0  0  0  0
   37.1840   29.7710   36.4250 H   0  0  0  0  0  0  0  0  0  0  0  0
   38.9660   34.7780   40.8250 C   0  0  0  0  0  0  0  0  0  0  0  0
   40.2560   35.0400   40.4010 C   0  0  0  0  0  0  0  0  0  0  0  0
   40.7880   34.2370   39.3940 C   0  0  0  0  0  0  0  0  0  0  0  0
   39.9930   33.2580   38.9080 N   0  0  0  0  0  0  0  0  0  0  0  0
   38.7590   33.0070   39.3140 C   0  0  0  0  0  0  0  0  0  0  0  0
   38.2500   33.7810   40.2830 N   0  0  0  0  0  0  0  0  0  0  0  0
   38.5950   35.4280   41.6100 H   0  0  0  0  0  0  0  0  0  0  0  0
   40.8980   35.8090   40.7720 H   0  0  0  0  0  0  0  0  0  0  0  0
   42.2640   33.6750   37.4890 C   0  0  2  0  0  3  0  0  0  0  0  0
   42.1620   34.3740   38.8120 C   0  0  2  0  0  3  0  0  0  0  0  0
   43.1340   33.8730   39.8450 C   0  0  0  0  0  3  0  0  0  0  0  0
   43.1680   34.6510   40.6400 H   0  0  0  0  0  0  0  0  0  0  0  0
   44.4090   33.6710   39.3660 O   0  0  0  0  0  0  0  0  0  0  0  0
   44.4660   32.9220   38.2170 C   0  0  0  0  0  3  0  0  0  0  0  0
   44.9940   33.4600   37.3900 H   0  0  0  0  0  0  0  0  0  0  0  0
   43.1440   32.4610   37.6950 C   0  0  2  0  0  3  0  0  0  0  0  0
   42.8560   34.4870   36.5350 O   0  0  0  0  0  0  0  0  0  0  0  0
   43.2290   35.2810   37.0020 H   0  0  0  0  0  0  0  0  0  0  0  0
   43.3580   31.7870   36.4980 O   0  0  0  0  0  0  0  0  0  0  0  0
   43.4580   32.4160   35.7270 H   0  0  0  0  0  0  0  0  0  0  0  0
   35.3260   29.5280   38.6040 C   0  0  0  0  0  0  0  0  0  0  0  0
   34.5420   29.8370   37.8880 H   0  0  0  0  0  0  0  0  0  0  0  0
   34.9760   29.6120   39.6390 H   0  0  0  0  0  0  0  0  0  0  0  0
   35.6710   28.1130   38.3300 C   0  0  0  0  0  0  0  0  0  0  0  0
   36.3610   28.0950   37.4390 H   0  0  0  0  0  0  0  0  0  0  0  0
   34.7390   27.6150   37.9390 H   0  0  0  0  0  0  0  0  0  0  0  0
   36.4500   27.7200   40.7280 C   0  0  0  0  0  0  0  0  0  0  0  0
   36.1890   27.3310   39.4320 C   0  0  0  0  0  0  0  0  0  0  0  0
   36.4570   25.9990   39.1250 C   0  0  0  0  0  0  0  0  0  0  0  0
   36.9510   25.1260   40.0590 C   0  0  0  0  0  0  0  0  0  0  0  0
   37.2960   23.8170   40.0470 N   0  0  0  0  0  0  0  0  0  0  0  0
   37.7390   23.4160   41.2440 C   0  0  0  0  0  0  0  0  0  0  0  0
   37.6960   24.5030   42.1160 C   0  0  0  0  0  0  0  0  0  0  0  0
   37.2100   25.5120   41.3400 C   0  0  0  0  0  0  0  0  0  0  0  0
   36.9480   26.8300   41.6570 C   0  0  0  0  0  0  0  0  0  0  0  0
   36.2310   28.7630   40.9350 H   0  0  0  0  0  0  0  0  0  0  0  0
   36.2980   25.5540   38.1420 H   0  0  0  0  0  0  0  0  0  0  0  0
   37.2260   23.1800   39.1990 H   0  0  0  0  0  0  0  0  0  0  0  0
   38.0770   22.4140   41.4990 H   0  0  0  0  0  0  0  0  0  0  0  0
   37.9990   24.4530   43.1490 H   0  0  0  0  0  0  0  0  0  0  0  0
   37.2030   27.3100   43.0180 C   0  0  0  0  0  0  0  0  0  0  0  0
   37.4390   28.5220   43.2490 O   0  0  0  0  0  0  0  0  0  0  0  0
   37.1920   26.6190   43.8520 H   0  0  0  0  0  0  0  0  0  0  0  0
  1  5  2  0  0  0  0
  1 12  1  0  0  0  0
  2  1  1  0  0  0  0
  3  2  2  0  0  0  0
  3  4  1  0  0  0  0
  4 28  1  0  0  0  0
  4  5  1  0  0  0  0
  6  2  1  0  0  0  0
  7  3  1  0  0  0  0
  8 14  1  0  0  0  0
  9 15  1  0  0  0  0
  9  8  1  0  0  0  0
 10  9  2  0  0  0  0
 11 12  2  0  0  0  0
 11 10  1  0  0  0  0
 12 13  1  0  0  0  0
 13  8  2  0  0  0  0
 16 24  1  6  0  0  0
 16 23  1  0  0  0  0
 16 17  1  0  0  0  0
 17 10  1  1  0  0  0
 17 18  1  0  0  0  0
 18 19  1  0  0  0  0
 20 18  1  0  0  0  0
 21 20  1  0  0  0  0
 22 21  1  0  0  0  0
 23 26  1  6  0  0  0
 23 21  1  0  0  0  0
 24 25  1  0  0  0  0
 27 26  1  0  0  0  0
 28 30  1  0  0  0  0
 29 28  1  0  0  0  0
 31 28  1  0  0  0  0
 31 35  1  0  0  0  0
 32 31  1  0  0  0  0
 33 31  1  0  0  0  0
 34 43  1  0  0  0  0
 34 42  1  0  0  0  0
 35 34  2  0  0  0  0
 36 35  1  0  0  0  0
 36 37  2  0  0  0  0
 37 41  1  0  0  0  0
 38 37  1  0  0  0  0
 38 39  1  0  0  0  0
 39 46  1  0  0  0  0
 39 40  2  0  0  0  0
 40 47  1  0  0  0  0
 41 42  2  0  0  0  0
 41 40  1  0  0  0  0
 42 48  1  0  0  0  0
 44 36  1  0  0  0  0
 45 38  1  0  0  0  0
 48 49  2  0  0  0  0
 48 50  1  0  0  0  0
M  END
>  <minimizedAffinity>
-7.58401346

$$$$

 OpenBabel03252506303D

 50 54  0  0  1  0  0  0  0  0999 V2000
   42.2100   30.9000   42.4360 C   0  0  0  0  0  0  0  0  0  0  0  0
   42.9300   31.0350   43.6360 C   0  0  0  0  0  0  0  0  0  0  0  0
   43.1860   29.8030   44.1290 C   0  0  0  0  0  0  0  0  0  0  0  0
   42.6480   28.9390   43.2730 N   0  0  0  0  0  0  0  0  0  0  0  0
   42.0640   29.5750   42.2610 N   0  0  0  0  0  0  0  0  0  0  0  0
   43.2200   31.9740   44.0730 H   0  0  0  0  0  0  0  0  0  0  0  0
   43.7220   29.6030   45.0400 H   0  0  0  0  0  0  0  0  0  0  0  0
   42.0850   34.1800   40.8370 C   0  0  0  0  0  0  0  0  0  0  0  0
   40.9280   34.1230   40.0810 C   0  0  0  0  0  0  0  0  0  0  0  0
   40.1810   32.9470   40.1200 C   0  0  0  0  0  0  0  0  0  0  0  0
   40.6520   31.9480   40.8990 N   0  0  0  0  0  0  0  0  0  0  0  0
   41.7590   32.0020   41.6220 C   0  0  0  0  0  0  0  0  0  0  0  0
   42.4760   33.1350   41.5830 N   0  0  0  0  0  0  0  0  0  0  0  0
   42.6330   35.1140   40.7760 H   0  0  0  0  0  0  0  0  0  0  0  0
   40.5400   34.9020   39.4610 H   0  0  0  0  0  0  0  0  0  0  0  0
   37.7190   32.7670   40.2840 C   0  0  2  0  0  3  0  0  0  0  0  0
   38.9060   32.7060   39.3700 C   0  0  2  0  0  3  0  0  0  0  0  0
   39.0570   31.3950   38.6490 C   0  0  0  0  0  3  0  0  0  0  0  0
   39.7580   31.5830   37.8070 H   0  0  0  0  0  0  0  0  0  0  0  0
   37.8780   30.8940   38.1410 O   0  0  0  0  0  0  0  0  0  0  0  0
   36.8480   30.8550   39.0480 C   0  0  0  0  0  3  0  0  0  0  0  0
   35.9490   31.4160   38.6870 H   0  0  0  0  0  0  0  0  0  0  0  0
   37.1850   31.3570   40.4130 C   0  0  2  0  0  3  0  0  0  0  0  0
   36.7170   33.5660   39.7560 O   0  0  0  0  0  0  0  0  0  0  0  0
   36.9590   33.7710   38.8140 H   0  0  0  0  0  0  0  0  0  0  0  0
   36.0310   31.3250   41.1890 O   0  0  0  0  0  0  0  0  0  0  0  0
   35.4490   32.1220   41.0250 H   0  0  0  0  0  0  0  0  0  0  0  0
   42.6780   27.4870   43.3990 C   0  0  0  0  0  0  0  0  0  0  0  0
   43.6450   27.2230   43.8670 H   0  0  0  0  0  0  0  0  0  0  0  0
   42.5680   27.0140   42.4170 H   0  0  0  0  0  0  0  0  0  0  0  0
   41.5900   27.0100   44.2840 C   0  0  0  0  0  0  0  0  0  0  0  0
   41.4640   27.7660   45.1100 H   0  0  0  0  0  0  0  0  0  0  0  0
   41.9790   26.1030   44.8270 H   0  0  0  0  0  0  0  0  0  0  0  0
   39.2170   27.4650   43.4630 C   0  0  0  0  0  0  0  0  0  0  0  0
   40.3270   26.6730   43.6610 C   0  0  0  0  0  0  0  0  0  0  0  0
   40.2370   25.3620   43.2020 C   0  0  0  0  0  0  0  0  0  0  0  0
   39.1080   24.8860   42.5880 C   0  0  0  0  0  0  0  0  0  0  0  0
   38.7450   23.6950   42.0580 N   0  0  0  0  0  0  0  0  0  0  0  0
   37.5030   23.7350   41.5640 C   0  0  0  0  0  0  0  0  0  0  0  0
   36.9900   25.0160   41.7680 C   0  0  0  0  0  0  0  0  0  0  0  0
   38.0100   25.6690   42.3940 C   0  0  0  0  0  0  0  0  0  0  0  0
   38.0870   26.9710   42.8440 C   0  0  0  0  0  0  0  0  0  0  0  0
   39.3190   28.4810   43.8320 H   0  0  0  0  0  0  0  0  0  0  0  0
   41.0380   24.6260   43.2900 H   0  0  0  0  0  0  0  0  0  0  0  0
   39.3630   22.8300   42.0300 H   0  0  0  0  0  0  0  0  0  0  0  0
   36.9760   22.9130   41.0850 H   0  0  0  0  0  0  0  0  0  0  0  0
   36.0020   25.3200   41.4630 H   0  0  0  0  0  0  0  0  0  0  0  0
   36.9400   27.8670   42.6660 C   0  0  0  0  0  0  0  0  0  0  0  0
   37.0200   29.0900   42.9380 O   0  0  0  0  0  0  0  0  0  0  0  0
   36.0000   27.4820   42.2930 H   0  0  0  0  0  0  0  0  0  0  0  0
  1  2  1  0  0  0  0
  2  6  1  0  0  0  0
  2  3  2  0  0  0  0
  3  7  1  0  0  0  0
  4 28  1  0  0  0  0
  4  3  1  0  0  0  0
  5  1  2  0  0  0  0
  5  4  1  0  0  0  0
  8 13  1  0  0  0  0
  9 10  1  0  0  0  0
  9  8  2  0  0  0  0
 10 11  2  0  0  0  0
 11 12  1  0  0  0  0
 12  1  1  0  0  0  0
 13 12  2  0  0  0  0
 14  8  1  0  0  0  0
 15  9  1  0  0  0  0
 16 24  1  6  0  0  0
 16 23  1  0  0  0  0
 17 10  1  1  0  0  0
 17 16  1  0  0  0  0
 18 17  1  0  0  0  0
 19 18  1  0  0  0  0
 20 18  1  0  0  0  0
 20 21  1  0  0  0  0
 21 23  1  0  0  0  0
 22 21  1  0  0  0  0
 23 26  1  1  0  0  0
 25 24  1  0  0  0  0
 27 26  1  0  0  0  0
 28 29  1  0  0  0  0
 28 31  1  0  0  0  0
 30 28  1  0  0  0  0
 31 33  1  0  0  0  0
 31 32  1  0  0  0  0
 34 35  1  0  0  0  0
 34 43  1  0  0  0  0
 35 31  1  0  0  0  0
 36 44  1  0  0  0  0
 36 35  2  0  0  0  0
 37 36  1  0  0  0  0
 38 37  1  0  0  0  0
 39 40  2  0  0  0  0
 39 38  1  0  0  0  0
 40 41  1  0  0  0  0
 41 37  2  0  0  0  0
 41 42  1  0  0  0  0
 42 34  2  0  0  0  0
 45 38  1  0  0  0  0
 46 39  1  0  0  0  0
 47 40  1  0  0  0  0
 48 42  1  0  0  0  0
 48 49  2  0  0  0  0
 50 48  1  0  0  0  0
M  END
>  <minimizedAffinity>
-7.54285765

$$$$

 OpenBabel03252506303D

 50 54  0  0  1  0  0  0  0  0999 V2000
   39.7060   31.0640   41.4330 C   0  0  0  0  0  0  0  0  0  0  0  0
   40.6130   30.0170   41.1920 C   0  0  0  0  0  0  0  0  0  0  0  0
   40.2010   28.9220   41.8680 C   0  0  0  0  0  0  0  0  0  0  0  0
   39.0870   29.2730   42.5030 N   0  0  0  0  0  0  0  0  0  0  0  0
   38.7790   30.5430   42.2550 N   0  0  0  0  0  0  0  0  0  0  0  0
   41.4860   30.0960   40.5680 H   0  0  0  0  0  0  0  0  0  0  0  0
   40.7050   27.9710   41.8670 H   0  0  0  0  0  0  0  0  0  0  0  0
   38.8910   34.5100   40.5420 C   0  0  0  0  0  0  0  0  0  0  0  0
   40.0020   34.9280   39.8320 C   0  0  0  0  0  0  0  0  0  0  0  0
   41.0430   34.0180   39.6570 C   0  0  0  0  0  0  0  0  0  0  0  0
   40.8820   32.7900   40.1980 N   0  0  0  0  0  0  0  0  0  0  0  0
   39.8190   32.3910   40.8780 C   0  0  0  0  0  0  0  0  0  0  0  0
   38.8190   33.2680   41.0460 N   0  0  0  0  0  0  0  0  0  0  0  0
   38.1070   35.2510   40.6550 H   0  0  0  0  0  0  0  0  0  0  0  0
   40.1470   35.8920   39.3970 H   0  0  0  0  0  0  0  0  0  0  0  0
   42.3330   33.6050   37.5860 C   0  0  2  0  0  3  0  0  0  0  0  0
   42.3180   34.2930   38.9180 C   0  0  2  0  0  3  0  0  0  0  0  0
   43.4510   33.8970   39.8250 C   0  0  0  0  0  3  0  0  0  0  0  0
   43.4990   34.6760   40.6180 H   0  0  0  0  0  0  0  0  0  0  0  0
   44.6750   33.8250   39.1970 O   0  0  0  0  0  0  0  0  0  0  0  0
   44.6710   33.0830   38.0420 C   0  0  0  0  0  3  0  0  0  0  0  0
   45.0400   33.6710   37.1630 H   0  0  0  0  0  0  0  0  0  0  0  0
   43.3510   32.4890   37.6750 C   0  0  2  0  0  3  0  0  0  0  0  0
   42.7230   34.4710   36.5760 O   0  0  0  0  0  0  0  0  0  0  0  0
   43.0650   35.3000   37.0040 H   0  0  0  0  0  0  0  0  0  0  0  0
   43.4890   31.8360   36.4540 O   0  0  0  0  0  0  0  0  0  0  0  0
   43.4330   32.4700   35.6830 H   0  0  0  0  0  0  0  0  0  0  0  0
   38.2880   28.4060   43.3610 C   0  0  0  0  0  0  0  0  0  0  0  0
   38.0670   28.9760   44.2830 H   0  0  0  0  0  0  0  0  0  0  0  0
   38.8300   27.4810   43.5850 H   0  0  0  0  0  0  0  0  0  0  0  0
   37.0020   28.0610   42.7110 C   0  0  0  0  0  0  0  0  0  0  0  0
   36.5630   29.0100   42.2930 H   0  0  0  0  0  0  0  0  0  0  0  0
   36.2790   27.7880   43.5330 H   0  0  0  0  0  0  0  0  0  0  0  0
   36.6570   27.0280   40.4040 C   0  0  0  0  0  0  0  0  0  0  0  0
   37.0170   26.9940   41.7330 C   0  0  0  0  0  0  0  0  0  0  0  0
   37.4620   25.7670   42.2180 C   0  0  0  0  0  0  0  0  0  0  0  0
   37.5360   24.6560   41.4190 C   0  0  0  0  0  0  0  0  0  0  0  0
   37.9160   23.3710   41.6100 N   0  0  0  0  0  0  0  0  0  0  0  0
   37.8040   22.6540   40.4870 C   0  0  0  0  0  0  0  0  0  0  0  0
   37.3220   23.4880   39.4780 C   0  0  0  0  0  0  0  0  0  0  0  0
   37.1780   24.6900   40.1040 C   0  0  0  0  0  0  0  0  0  0  0  0
   36.7370   25.9010   39.6110 C   0  0  0  0  0  0  0  0  0  0  0  0
   36.3160   27.9980   40.0570 H   0  0  0  0  0  0  0  0  0  0  0  0
   37.7790   25.5940   43.2480 H   0  0  0  0  0  0  0  0  0  0  0  0
   38.2630   22.9730   42.5320 H   0  0  0  0  0  0  0  0  0  0  0  0
   38.0440   21.5990   40.3720 H   0  0  0  0  0  0  0  0  0  0  0  0
   37.1390   23.1610   38.4680 H   0  0  0  0  0  0  0  0  0  0  0  0
   36.3370   26.0070   38.2050 C   0  0  0  0  0  0  0  0  0  0  0  0
   35.1520   25.8010   37.8460 O   0  0  0  0  0  0  0  0  0  0  0  0
   37.0680   26.2670   37.4480 H   0  0  0  0  0  0  0  0  0  0  0  0
  1  5  2  0  0  0  0
  2  1  1  0  0  0  0
  2  3  2  0  0  0  0
  3  4  1  0  0  0  0
  4 28  1  0  0  0  0
  5  4  1  0  0  0  0
  6  2  1  0  0  0  0
  7  3  1  0  0  0  0
  8 14  1  0  0  0  0
  8 13  1  0  0  0  0
  9  8  2  0  0  0  0
 10  9  1  0  0  0  0
 10 11  2  0  0  0  0
 11 12  1  0  0  0  0
 12 13  2  0  0  0  0
 12  1  1  0  0  0  0
 15  9  1  0  0  0  0
 16 24  1  6  0  0  0
 16 23  1  0  0  0  0
 16 17  1  0  0  0  0
 17 10  1  1  0  0  0
 17 18  1  0  0  0  0
 18 19  1  0  0  0  0
 20 18  1  0  0  0  0
 21 20  1  0  0  0  0
 22 21  1  0  0  0  0
 23 26  1  6  0  0  0
 23 21  1  0  0  0  0
 24 25  1  0  0  0  0
 27 26  1  0  0  0  0
 28 30  1  0  0  0  0
 28 29  1  0  0  0  0
 31 28  1  0  0  0  0
 31 33  1  0  0  0  0
 32 31  1  0  0  0  0
 34 35  1  0  0  0  0
 35 36  2  0  0  0  0
 35 31  1  0  0  0  0
 36 44  1  0  0  0  0
 37 38  1  0  0  0  0
 37 36  1  0  0  0  0
 38 45  1  0  0  0  0
 39 38  1  0  0  0  0
 40 41  1  0  0  0  0
 40 39  2  0  0  0  0
 41 37  2  0  0  0  0
 42 41  1  0  0  0  0
 42 34  2  0  0  0  0
 43 34  1  0  0  0  0
 46 39  1  0  0  0  0
 47 40  1  0  0  0  0
 48 42  1  0  0  0  0
 49 48  2  0  0  0  0
 50 48  1  0  0  0  0
M  END
>  <minimizedAffinity>
-7.52836275

$$$$

 OpenBabel03252506303D

 50 54  0  0  1  0  0  0  0  0999 V2000
   42.3300   30.0470   42.9390 C   0  0  0  0  0  0  0  0  0  0  0  0
   43.2280   29.5630   43.9080 C   0  0  0  0  0  0  0  0  0  0  0  0
   42.8710   28.3030   44.2390 C   0  0  0  0  0  0  0  0  0  0  0  0
   41.7970   28.0150   43.5100 N   0  0  0  0  0  0  0  0  0  0  0  0
   41.4630   29.0410   42.7320 N   0  0  0  0  0  0  0  0  0  0  0  0
   44.0570   30.1220   44.3060 H   0  0  0  0  0  0  0  0  0  0  0  0
   43.3820   27.6870   44.9580 H   0  0  0  0  0  0  0  0  0  0  0  0
   43.4030   33.4660   42.2380 C   0  0  0  0  0  0  0  0  0  0  0  0
   42.5440   33.8700   41.2320 C   0  0  0  0  0  0  0  0  0  0  0  0
   41.5850   32.9610   40.7890 C   0  0  0  0  0  0  0  0  0  0  0  0
   41.5720   31.7470   41.3820 N   0  0  0  0  0  0  0  0  0  0  0  0
   42.3940   31.3600   42.3440 C   0  0  0  0  0  0  0  0  0  0  0  0
   43.3160   32.2370   42.7690 N   0  0  0  0  0  0  0  0  0  0  0  0
   44.1320   34.2060   42.5510 H   0  0  0  0  0  0  0  0  0  0  0  0
   42.5390   34.8250   40.7530 H   0  0  0  0  0  0  0  0  0  0  0  0
   39.2730   33.6890   40.2930 C   0  0  2  0  0  3  0  0  0  0  0  0
   40.5760   33.2230   39.7140 C   0  0  2  0  0  3  0  0  0  0  0  0
   40.4660   31.9680   38.8910 C   0  0  0  0  0  3  0  0  0  0  0  0
   41.3990   31.9110   38.2880 H   0  0  0  0  0  0  0  0  0  0  0  0
   39.3840   31.9470   38.0390 O   0  0  0  0  0  0  0  0  0  0  0  0
   38.1910   32.2620   38.6380 C   0  0  0  0  0  3  0  0  0  0  0  0
   37.6810   33.1230   38.1350 H   0  0  0  0  0  0  0  0  0  0  0  0
   38.2750   32.5670   40.0980 C   0  0  2  0  0  3  0  0  0  0  0  0
   38.8010   34.8130   39.6340 O   0  0  0  0  0  0  0  0  0  0  0  0
   39.3560   34.9410   38.8200 H   0  0  0  0  0  0  0  0  0  0  0  0
   37.0100   32.9380   40.5410 O   0  0  0  0  0  0  0  0  0  0  0  0
   36.8090   33.8970   40.3390 H   0  0  0  0  0  0  0  0  0  0  0  0
   41.0650   26.7550   43.5350 C   0  0  0  0  0  0  0  0  0  0  0  0
   41.5730   26.1000   44.2690 H   0  0  0  0  0  0  0  0  0  0  0  0
   41.0490   26.2990   42.5400 H   0  0  0  0  0  0  0  0  0  0  0  0
   39.6700   26.9630   43.9880 C   0  0  0  0  0  0  0  0  0  0  0  0
   39.6760   27.7990   44.7440 H   0  0  0  0  0  0  0  0  0  0  0  0
   39.3850   26.0650   44.6060 H   0  0  0  0  0  0  0  0  0  0  0  0
   38.1740   26.2670   42.0420 C   0  0  0  0  0  0  0  0  0  0  0  0
   38.6640   27.1630   42.9670 C   0  0  0  0  0  0  0  0  0  0  0  0
   38.1240   28.4460   42.9260 C   0  0  0  0  0  0  0  0  0  0  0  0
   37.1600   28.7970   42.0170 C   0  0  0  0  0  0  0  0  0  0  0  0
   36.4740   29.9330   41.7500 N   0  0  0  0  0  0  0  0  0  0  0  0
   35.6180   29.7620   40.7360 C   0  0  0  0  0  0  0  0  0  0  0  0
   35.7250   28.4470   40.2870 C   0  0  0  0  0  0  0  0  0  0  0  0
   36.6770   27.9100   41.1020 C   0  0  0  0  0  0  0  0  0  0  0  0
   37.2040   26.6350   41.1330 C   0  0  0  0  0  0  0  0  0  0  0  0
   38.6140   25.2770   42.1000 H   0  0  0  0  0  0  0  0  0  0  0  0
   38.4160   29.2550   43.5970 H   0  0  0  0  0  0  0  0  0  0  0  0
   36.5910   30.8490   42.2760 H   0  0  0  0  0  0  0  0  0  0  0  0
   34.9510   30.5170   40.3270 H   0  0  0  0  0  0  0  0  0  0  0  0
   35.1440   28.0440   39.4740 H   0  0  0  0  0  0  0  0  0  0  0  0
   36.7270   25.6320   40.1760 C   0  0  0  0  0  0  0  0  0  0  0  0
   36.7030   24.4110   40.4680 O   0  0  0  0  0  0  0  0  0  0  0  0
   36.3850   25.9340   39.1940 H   0  0  0  0  0  0  0  0  0  0  0  0
  1  2  1  0  0  0  0
  2  3  2  0  0  0  0
  2  6  1  0  0  0  0
  3  7  1  0  0  0  0
  4 28  1  0  0  0  0
  4  3  1  0  0  0  0
  5  1  2  0  0  0  0
  5  4  1  0  0  0  0
  8 14  1  0  0  0  0
  8 13  1  0  0  0  0
  9  8  2  0  0  0  0
 10  9  1  0  0  0  0
 10 11  2  0  0  0  0
 11 12  1  0  0  0  0
 12 13  2  0  0  0  0
 12  1  1  0  0  0  0
 15  9  1  0  0  0  0
 16 24  1  6  0  0  0
 17 16  1  0  0  0  0
 17 10  1  1  0  0  0
 18 17  1  0  0  0  0
 19 18  1  0  0  0  0
 20 21  1  0  0  0  0
 20 18  1  0  0  0  0
 21 23  1  0  0  0  0
 22 21  1  0  0  0  0
 23 16  1  0  0  0  0
 23 26  1  6  0  0  0
 25 24  1  0  0  0  0
 27 26  1  0  0  0  0
 28 31  1  0  0  0  0
 28 29  1  0  0  0  0
 30 28  1  0  0  0  0
 31 33  1  0  0  0  0
 31 32  1  0  0  0  0
 34 43  1  0  0  0  0
 34 35  1  0  0  0  0
 35 31  1  0  0  0  0
 36 35  2  0  0  0  0
 36 44  1  0  0  0  0
 37 36  1  0  0  0  0
 38 37  1  0  0  0  0
 38 45  1  0  0  0  0
 39 38  1  0  0  0  0
 40 39  2  0  0  0  0
 40 41  1  0  0  0  0
 41 42  1  0  0  0  0
 41 37  2  0  0  0  0
 42 34  2  0  0  0  0
 46 39  1  0  0  0  0
 47 40  1  0  0  0  0
 48 49  2  0  0  0  0
 48 42  1  0  0  0  0
 50 48  1  0  0  0  0
M  END
>  <minimizedAffinity>
-7.14298916

$$$$

 OpenBabel03252506303D

 50 54  0  0  1  0  0  0  0  0999 V2000
   39.2280   31.5140   40.3690 C   0  0  0  0  0  0  0  0  0  0  0  0
   38.1900   32.4390   40.5820 C   0  0  0  0  0  0  0  0  0  0  0  0
   37.1110   32.0500   39.8700 C   0  0  0  0  0  0  0  0  0  0  0  0
   37.4610   30.9330   39.2400 N   0  0  0  0  0  0  0  0  0  0  0  0
   38.7170   30.6000   39.5260 N   0  0  0  0  0  0  0  0  0  0  0  0
   38.2660   33.3070   41.2130 H   0  0  0  0  0  0  0  0  0  0  0  0
   36.1700   32.5700   39.8440 H   0  0  0  0  0  0  0  0  0  0  0  0
   41.9070   31.3470   42.8450 C   0  0  0  0  0  0  0  0  0  0  0  0
   43.0230   31.7530   42.1360 C   0  0  0  0  0  0  0  0  0  0  0  0
   42.8560   32.0890   40.7930 C   0  0  0  0  0  0  0  0  0  0  0  0
   41.6070   31.9890   40.2880 N   0  0  0  0  0  0  0  0  0  0  0  0
   40.5390   31.6000   40.9660 C   0  0  0  0  0  0  0  0  0  0  0  0
   40.7030   31.2780   42.2580 N   0  0  0  0  0  0  0  0  0  0  0  0
   42.0850   31.0950   43.8850 H   0  0  0  0  0  0  0  0  0  0  0  0
   44.0170   31.8390   42.5180 H   0  0  0  0  0  0  0  0  0  0  0  0
   43.5410   33.7810   39.1240 C   0  0  2  0  0  3  0  0  0  0  0  0
   43.9460   32.5480   39.8740 C   0  0  2  0  0  3  0  0  0  0  0  0
   44.3030   31.3840   38.9910 C   0  0  0  0  0  3  0  0  0  0  0  0
   44.8630   30.6690   39.6330 H   0  0  0  0  0  0  0  0  0  0  0  0
   45.0880   31.7180   37.9090 O   0  0  0  0  0  0  0  0  0  0  0  0
   44.6140   32.7780   37.1780 C   0  0  0  0  0  3  0  0  0  0  0  0
   45.3690   33.6010   37.0910 H   0  0  0  0  0  0  0  0  0  0  0  0
   43.3410   33.3760   37.6790 C   0  0  2  0  0  3  0  0  0  0  0  0
   44.5310   34.7500   39.1720 O   0  0  0  0  0  0  0  0  0  0  0  0
   45.3470   34.3290   39.5500 H   0  0  0  0  0  0  0  0  0  0  0  0
   43.0320   34.4770   36.8860 O   0  0  0  0  0  0  0  0  0  0  0  0
   43.5390   35.2920   37.1650 H   0  0  0  0  0  0  0  0  0  0  0  0
   36.6070   30.1540   38.3520 C   0  0  0  0  0  0  0  0  0  0  0  0
   37.2590   29.4270   37.8300 H   0  0  0  0  0  0  0  0  0  0  0  0
   36.0930   30.8090   37.6400 H   0  0  0  0  0  0  0  0  0  0  0  0
   35.5930   29.3970   39.1230 C   0  0  0  0  0  0  0  0  0  0  0  0
   34.8620   28.9560   38.3870 H   0  0  0  0  0  0  0  0  0  0  0  0
   34.9680   30.1520   39.6790 H   0  0  0  0  0  0  0  0  0  0  0  0
   36.2910   28.5330   41.4200 C   0  0  0  0  0  0  0  0  0  0  0  0
   36.0760   28.4090   40.0640 C   0  0  0  0  0  0  0  0  0  0  0  0
   36.3600   27.1650   39.5080 C   0  0  0  0  0  0  0  0  0  0  0  0
   36.8250   26.1220   40.2650 C   0  0  0  0  0  0  0  0  0  0  0  0
   37.1770   24.8410   40.0050 N   0  0  0  0  0  0  0  0  0  0  0  0
   37.5790   24.2090   41.1120 C   0  0  0  0  0  0  0  0  0  0  0  0
   37.5020   25.1000   42.1820 C   0  0  0  0  0  0  0  0  0  0  0  0
   37.0380   26.2450   41.6060 C   0  0  0  0  0  0  0  0  0  0  0  0
   36.7600   27.4740   42.1690 C   0  0  0  0  0  0  0  0  0  0  0  0
   36.0600   29.5140   41.8230 H   0  0  0  0  0  0  0  0  0  0  0  0
   36.2370   26.9250   38.4500 H   0  0  0  0  0  0  0  0  0  0  0  0
   37.1380   24.3850   39.0460 H   0  0  0  0  0  0  0  0  0  0  0  0
   37.9130   23.1750   41.1750 H   0  0  0  0  0  0  0  0  0  0  0  0
   37.7700   24.8450   43.1940 H   0  0  0  0  0  0  0  0  0  0  0  0
   36.9660   27.6730   43.6070 C   0  0  0  0  0  0  0  0  0  0  0  0
   36.0330   27.5050   44.4300 O   0  0  0  0  0  0  0  0  0  0  0  0
   37.9370   27.9720   43.9830 H   0  0  0  0  0  0  0  0  0  0  0  0
  1  2  1  0  0  0  0
  1 12  1  0  0  0  0
  2  6  1  0  0  0  0
  3  2  2  0  0  0  0
  4  5  1  0  0  0  0
  4  3  1  0  0  0  0
  5  1  2  0  0  0  0
  7  3  1  0  0  0  0
  8 14  1  0  0  0  0
  9 15  1  0  0  0  0
  9  8  2  0  0  0  0
 10  9  1  0  0  0  0
 11 10  2  0  0  0  0
 11 12  1  0  0  0  0
 12 13  2  0  0  0  0
 13  8  1  0  0  0  0
 16 24  1  6  0  0  0
 16 17  1  0  0  0  0
 17 10  1  1  0  0  0
 18 19  1  0  0  0  0
 18 17  1  0  0  0  0
 20 18  1  0  0  0  0
 21 23  1  0  0  0  0
 21 20  1  0  0  0  0
 22 21  1  0  0  0  0
 23 26  1  6  0  0  0
 23 16  1  0  0  0  0
 24 25  1  0  0  0  0
 26 27  1  0  0  0  0
 28 31  1  0  0  0  0
 28  4  1  0  0  0  0
 29 28  1  0  0  0  0
 30 28  1  0  0  0  0
 31 33  1  0  0  0  0
 31 35  1  0  0  0  0
 32 31  1  0  0  0  0
 34 43  1  0  0  0  0
 34 42  1  0  0  0  0
 35 34  2  0  0  0  0
 36 35  1  0  0  0  0
 36 37  2  0  0  0  0
 37 41  1  0  0  0  0
 38 37  1  0  0  0  0
 38 39  1  0  0  0  0
 39 46  1  0  0  0  0
 39 40  2  0  0  0  0
 40 47  1  0  0  0  0
 41 42  2  0  0  0  0
 41 40  1  0  0  0  0
 42 48  1  0  0  0  0
 44 36  1  0  0  0  0
 45 38  1  0  0  0  0
 48 50  1  0  0  0  0
 48 49  2  0  0  0  0
M  END
>  <minimizedAffinity>
-6.91612196

$$$$

 OpenBabel03252506303D

 50 54  0  0  1  0  0  0  0  0999 V2000
   40.1010   27.9540   36.9680 C   0  0  0  0  0  0  0  0  0  0  0  0
   40.2720   26.5660   37.1190 C   0  0  0  0  0  0  0  0  0  0  0  0
   39.0550   25.9890   37.2230 C   0  0  0  0  0  0  0  0  0  0  0  0
   38.1660   26.9750   37.1420 N   0  0  0  0  0  0  0  0  0  0  0  0
   38.7710   28.1490   36.9900 N   0  0  0  0  0  0  0  0  0  0  0  0
   41.2240   26.0670   37.1440 H   0  0  0  0  0  0  0  0  0  0  0  0
   38.8810   24.9350   37.3470 H   0  0  0  0  0  0  0  0  0  0  0  0
   43.4130   29.3330   36.2870 C   0  0  0  0  0  0  0  0  0  0  0  0
   43.2570   30.6820   36.5470 C   0  0  0  0  0  0  0  0  0  0  0  0
   42.0020   31.1250   36.9620 C   0  0  0  0  0  0  0  0  0  0  0  0
   41.0310   30.1930   37.0760 N   0  0  0  0  0  0  0  0  0  0  0  0
   41.1800   28.9020   36.8270 C   0  0  0  0  0  0  0  0  0  0  0  0
   42.3880   28.4780   36.4280 N   0  0  0  0  0  0  0  0  0  0  0  0
   44.4050   29.0340   35.9670 H   0  0  0  0  0  0  0  0  0  0  0  0
   44.0130   31.4320   36.4630 H   0  0  0  0  0  0  0  0  0  0  0  0
   42.8790   33.3950   37.4120 C   0  0  2  0  0  3  0  0  0  0  0  0
   41.6500   32.5450   37.2880 C   0  0  2  0  0  3  0  0  0  0  0  0
   40.7970   32.5170   38.5260 C   0  0  0  0  0  3  0  0  0  0  0  0
   39.8050   32.1260   38.2100 H   0  0  0  0  0  0  0  0  0  0  0  0
   40.6210   33.7500   39.1160 O   0  0  0  0  0  0  0  0  0  0  0  0
   41.7870   34.4450   39.3220 C   0  0  0  0  0  3  0  0  0  0  0  0
   41.7670   35.4540   38.8370 H   0  0  0  0  0  0  0  0  0  0  0  0
   43.0290   33.7460   38.8770 C   0  0  2  0  0  3  0  0  0  0  0  0
   42.7530   34.5720   36.6920 O   0  0  0  0  0  0  0  0  0  0  0  0
   41.8060   34.6490   36.4020 H   0  0  0  0  0  0  0  0  0  0  0  0
   44.1090   34.6000   39.0810 O   0  0  0  0  0  0  0  0  0  0  0  0
   44.2030   35.2660   38.3410 H   0  0  0  0  0  0  0  0  0  0  0  0
   36.7180   26.8200   37.2060 C   0  0  0  0  0  0  0  0  0  0  0  0
   36.5150   25.7680   37.4830 H   0  0  0  0  0  0  0  0  0  0  0  0
   36.2610   27.0740   36.2440 H   0  0  0  0  0  0  0  0  0  0  0  0
   36.1390   27.6930   38.2540 C   0  0  0  0  0  0  0  0  0  0  0  0
   35.0250   27.7360   38.0880 H   0  0  0  0  0  0  0  0  0  0  0  0
   36.4700   28.7470   38.0270 H   0  0  0  0  0  0  0  0  0  0  0  0
   36.7140   26.1640   40.2140 C   0  0  0  0  0  0  0  0  0  0  0  0
   36.4700   27.3880   39.6300 C   0  0  0  0  0  0  0  0  0  0  0  0
   36.5500   28.4960   40.4680 C   0  0  0  0  0  0  0  0  0  0  0  0
   36.8540   28.3780   41.8000 C   0  0  0  0  0  0  0  0  0  0  0  0
   36.9950   29.2500   42.8240 N   0  0  0  0  0  0  0  0  0  0  0  0
   37.3060   28.6230   43.9640 C   0  0  0  0  0  0  0  0  0  0  0  0
   37.3780   27.2540   43.7070 C   0  0  0  0  0  0  0  0  0  0  0  0
   37.0940   27.1670   42.3770 C   0  0  0  0  0  0  0  0  0  0  0  0
   37.0180   26.0600   41.5560 C   0  0  0  0  0  0  0  0  0  0  0  0
   36.6440   25.3210   39.5350 H   0  0  0  0  0  0  0  0  0  0  0  0
   36.3820   29.5240   40.1420 H   0  0  0  0  0  0  0  0  0  0  0  0
   36.8800   30.3040   42.7430 H   0  0  0  0  0  0  0  0  0  0  0  0
   37.4730   29.0940   44.9300 H   0  0  0  0  0  0  0  0  0  0  0  0
   37.6120   26.5170   44.4580 H   0  0  0  0  0  0  0  0  0  0  0  0
   37.2660   24.7270   42.1140 C   0  0  0  0  0  0  0  0  0  0  0  0
   37.8040   23.8230   41.4290 O   0  0  0  0  0  0  0  0  0  0  0  0
   36.9840   24.5020   43.1350 H   0  0  0  0  0  0  0  0  0  0  0  0
  1  5  2  0  0  0  0
  1  2  1  0  0  0  0
  2  6  1  0  0  0  0
  2  3  2  0  0  0  0
  3  7  1  0  0  0  0
  4 28  1  0  0  0  0
  4  3  1  0  0  0  0
  5  4  1  0  0  0  0
  8 13  2  0  0  0  0
  8  9  1  0  0  0  0
  9 10  2  0  0  0  0
 10 11  1  0  0  0  0
 12  1  1  0  0  0  0
 12 11  2  0  0  0  0
 13 12  1  0  0  0  0
 14  8  1  0  0  0  0
 15  9  1  0  0  0  0
 16 24  1  6  0  0  0
 16 23  1  0  0  0  0
 17 10  1  1  0  0  0
 17 16  1  0  0  0  0
 17 18  1  0  0  0  0
 18 20  1  0  0  0  0
 19 18  1  0  0  0  0
 20 21  1  0  0  0  0
 22 21  1  0  0  0  0
 23 26  1  6  0  0  0
 23 21  1  0  0  0  0
 25 24  1  0  0  0  0
 27 26  1  0  0  0  0
 28 29  1  0  0  0  0
 28 31  1  0  0  0  0
 30 28  1  0  0  0  0
 31 35  1  0  0  0  0
 32 31  1  0  0  0  0
 33 31  1  0  0  0  0
 34 42  1  0  0  0  0
 35 34  2  0  0  0  0
 35 36  1  0  0  0  0
 36 37  2  0  0  0  0
 37 41  1  0  0  0  0
 37 38  1  0  0  0  0
 38 39  1  0  0  0  0
 39 46  1  0  0  0  0
 40 39  2  0  0  0  0
 40 47  1  0  0  0  0
 41 40  1  0  0  0  0
 42 48  1  0  0  0  0
 42 41  2  0  0  0  0
 43 34  1  0  0  0  0
 44 36  1  0  0  0  0
 45 38  1  0  0  0  0
 48 50  1  0  0  0  0
 49 48  2  0  0  0  0
M  END
>  <minimizedAffinity>
-6.86399269

$$$$

 OpenBabel03252506303D

 50 54  0  0  1  0  0  0  0  0999 V2000
   40.2840   29.8850   42.4400 C   0  0  0  0  0  0  0  0  0  0  0  0
   40.4670   28.5480   42.8370 C   0  0  0  0  0  0  0  0  0  0  0  0
   39.2750   27.9160   42.7930 C   0  0  0  0  0  0  0  0  0  0  0  0
   38.3870   28.8190   42.3880 N   0  0  0  0  0  0  0  0  0  0  0  0
   38.9700   29.9950   42.1740 N   0  0  0  0  0  0  0  0  0  0  0  0
   41.4120   28.1200   43.1240 H   0  0  0  0  0  0  0  0  0  0  0  0
   39.1160   26.8820   43.0450 H   0  0  0  0  0  0  0  0  0  0  0  0
   43.3370   31.7360   43.2060 C   0  0  0  0  0  0  0  0  0  0  0  0
   43.3570   32.7300   42.2450 C   0  0  0  0  0  0  0  0  0  0  0  0
   42.3120   32.7680   41.3240 C   0  0  0  0  0  0  0  0  0  0  0  0
   41.3550   31.8210   41.4440 N   0  0  0  0  0  0  0  0  0  0  0  0
   41.3360   30.8700   42.3640 C   0  0  0  0  0  0  0  0  0  0  0  0
   42.3430   30.8360   43.2490 N   0  0  0  0  0  0  0  0  0  0  0  0
   44.1700   31.7450   43.9010 H   0  0  0  0  0  0  0  0  0  0  0  0
   44.1040   33.4860   42.1360 H   0  0  0  0  0  0  0  0  0  0  0  0
   40.9610   33.4810   39.3770 C   0  0  2  0  0  3  0  0  0  0  0  0
   42.1680   33.7690   40.2190 C   0  0  2  0  0  3  0  0  0  0  0  0
   43.4620   33.7730   39.4520 C   0  0  0  0  0  3  0  0  0  0  0  0
   44.2050   34.2870   40.1010 H   0  0  0  0  0  0  0  0  0  0  0  0
   43.3980   34.4310   38.2430 O   0  0  0  0  0  0  0  0  0  0  0  0
   42.3450   34.0480   37.4510 C   0  0  0  0  0  3  0  0  0  0  0  0
   41.6980   34.9150   37.1620 H   0  0  0  0  0  0  0  0  0  0  0  0
   41.4630   32.9930   38.0350 C   0  0  2  0  0  3  0  0  0  0  0  0
   40.2050   34.6230   39.1720 O   0  0  0  0  0  0  0  0  0  0  0  0
   40.7370   35.4000   39.4900 H   0  0  0  0  0  0  0  0  0  0  0  0
   40.4080   32.7690   37.1560 O   0  0  0  0  0  0  0  0  0  0  0  0
   39.6840   33.4500   37.2600 H   0  0  0  0  0  0  0  0  0  0  0  0
   36.9620   28.5830   42.1940 C   0  0  0  0  0  0  0  0  0  0  0  0
   36.5160   28.4470   43.1980 H   0  0  0  0  0  0  0  0  0  0  0  0
   36.8000   27.7020   41.5630 H   0  0  0  0  0  0  0  0  0  0  0  0
   36.3150   29.7530   41.5550 C   0  0  0  0  0  0  0  0  0  0  0  0
   36.9200   30.6660   41.8180 H   0  0  0  0  0  0  0  0  0  0  0  0
   35.3420   29.9290   42.0960 H   0  0  0  0  0  0  0  0  0  0  0  0
   36.8060   30.1310   39.0800 C   0  0  0  0  0  0  0  0  0  0  0  0
   36.0480   29.6700   40.1350 C   0  0  0  0  0  0  0  0  0  0  0  0
   34.8560   29.0330   39.8020 C   0  0  0  0  0  0  0  0  0  0  0  0
   34.4580   28.8740   38.5010 C   0  0  0  0  0  0  0  0  0  0  0  0
   33.3840   28.3150   37.8970 N   0  0  0  0  0  0  0  0  0  0  0  0
   33.4620   28.4160   36.5650 C   0  0  0  0  0  0  0  0  0  0  0  0
   34.6460   29.0780   36.2430 C   0  0  0  0  0  0  0  0  0  0  0  0
   35.2080   29.3310   37.4580 C   0  0  0  0  0  0  0  0  0  0  0  0
   36.3930   29.9640   37.7740 C   0  0  0  0  0  0  0  0  0  0  0  0
   37.7290   30.6230   39.3720 H   0  0  0  0  0  0  0  0  0  0  0  0
   34.1590   28.6190   40.5330 H   0  0  0  0  0  0  0  0  0  0  0  0
   32.5760   27.8490   38.4070 H   0  0  0  0  0  0  0  0  0  0  0  0
   32.7290   28.0470   35.8500 H   0  0  0  0  0  0  0  0  0  0  0  0
   34.9550   29.2920   35.2330 H   0  0  0  0  0  0  0  0  0  0  0  0
   37.2470   30.4790   36.7000 C   0  0  0  0  0  0  0  0  0  0  0  0
   37.7230   31.6400   36.7440 O   0  0  0  0  0  0  0  0  0  0  0  0
   37.4810   29.8580   35.8440 H   0  0  0  0  0  0  0  0  0  0  0  0
  1  2  1  0  0  0  0
  2  6  1  0  0  0  0
  3  2  2  0  0  0  0
  3  7  1  0  0  0  0
  4  3  1  0  0  0  0
  5  4  1  0  0  0  0
  5  1  2  0  0  0  0
  8 13  1  0  0  0  0
  8 14  1  0  0  0  0
  9  8  2  0  0  0  0
 10 11  2  0  0  0  0
 10  9  1  0  0  0  0
 11 12  1  0  0  0  0
 12  1  1  0  0  0  0
 12 13  2  0  0  0  0
 15  9  1  0  0  0  0
 16 24  1  6  0  0  0
 16 17  1  0  0  0  0
 17 10  1  1  0  0  0
 18 19  1  0  0  0  0
 18 17  1  0  0  0  0
 20 18  1  0  0  0  0
 21 23  1  0  0  0  0
 21 20  1  0  0  0  0
 22 21  1  0  0  0  0
 23 26  1  6  0  0  0
 23 16  1  0  0  0  0
 24 25  1  0  0  0  0
 26 27  1  0  0  0  0
 28  4  1  0  0  0  0
 28 29  1  0  0  0  0
 30 28  1  0  0  0  0
 31 32  1  0  0  0  0
 31 33  1  0  0  0  0
 31 28  1  0  0  0  0
 34 43  1  0  0  0  0
 34 35  1  0  0  0  0
 35 31  1  0  0  0  0
 36 35  2  0  0  0  0
 36 44  1  0  0  0  0
 37 36  1  0  0  0  0
 38 45  1  0  0  0  0
 38 37  1  0  0  0  0
 39 38  1  0  0  0  0
 40 39  2  0  0  0  0
 40 41  1  0  0  0  0
 41 42  1  0  0  0  0
 41 37  2  0  0  0  0
 42 34  2  0  0  0  0
 46 39  1  0  0  0  0
 47 40  1  0  0  0  0
 48 49  2  0  0  0  0
 48 42  1  0  0  0  0
 50 48  1  0  0  0  0
M  END
>  <minimizedAffinity>
-6.814188

$$$$

 OpenBabel03252506303D

 50 54  0  0  1  0  0  0  0  0999 V2000
   37.5200   30.4410   41.1420 C   0  0  0  0  0  0  0  0  0  0  0  0
   36.4720   29.7310   40.5280 C   0  0  0  0  0  0  0  0  0  0  0  0
   36.1850   28.6470   41.2810 C   0  0  0  0  0  0  0  0  0  0  0  0
   37.0180   28.6800   42.3170 N   0  0  0  0  0  0  0  0  0  0  0  0
   37.8180   29.7410   42.2500 N   0  0  0  0  0  0  0  0  0  0  0  0
   35.9930   30.0210   39.6100 H   0  0  0  0  0  0  0  0  0  0  0  0
   35.4240   27.9210   41.0520 H   0  0  0  0  0  0  0  0  0  0  0  0
   37.8210   33.8770   39.9400 C   0  0  0  0  0  0  0  0  0  0  0  0
   39.1660   33.9940   39.6430 C   0  0  0  0  0  0  0  0  0  0  0  0
   39.9800   32.8830   39.8560 C   0  0  0  0  0  0  0  0  0  0  0  0
   39.3850   31.7710   40.3410 N   0  0  0  0  0  0  0  0  0  0  0  0
   38.0970   31.6590   40.6250 C   0  0  0  0  0  0  0  0  0  0  0  0
   37.3160   32.7290   40.4190 N   0  0  0  0  0  0  0  0  0  0  0  0
   37.2260   34.7650   39.7590 H   0  0  0  0  0  0  0  0  0  0  0  0
   39.6540   34.8630   39.2590 H   0  0  0  0  0  0  0  0  0  0  0  0
   41.9050   34.0020   38.7760 C   0  0  2  0  0  3  0  0  0  0  0  0
   41.4540   32.8270   39.5910 C   0  0  2  0  0  3  0  0  0  0  0  0
   41.7400   31.4940   38.9550 C   0  0  0  0  0  3  0  0  0  0  0  0
   41.6480   30.7380   39.7660 H   0  0  0  0  0  0  0  0  0  0  0  0
   42.9960   31.3950   38.3970 O   0  0  0  0  0  0  0  0  0  0  0  0
   43.3220   32.4330   37.5600 C   0  0  0  0  0  3  0  0  0  0  0  0
   44.2670   32.9460   37.8730 H   0  0  0  0  0  0  0  0  0  0  0  0
   42.2650   33.4760   37.4030 C   0  0  2  0  0  3  0  0  0  0  0  0
   43.0310   34.5940   39.3250 O   0  0  0  0  0  0  0  0  0  0  0  0
   43.3730   33.9920   40.0380 H   0  0  0  0  0  0  0  0  0  0  0  0
   42.7680   34.4900   36.5930 O   0  0  0  0  0  0  0  0  0  0  0  0
   43.3400   35.1290   37.1060 H   0  0  0  0  0  0  0  0  0  0  0  0
   37.0700   27.7030   43.3970 C   0  0  0  0  0  0  0  0  0  0  0  0
   36.2630   26.9690   43.2100 H   0  0  0  0  0  0  0  0  0  0  0  0
   36.9440   28.1950   44.3670 H   0  0  0  0  0  0  0  0  0  0  0  0
   38.3630   26.9790   43.3930 C   0  0  0  0  0  0  0  0  0  0  0  0
   38.4900   26.4980   44.4040 H   0  0  0  0  0  0  0  0  0  0  0  0
   39.1780   27.7580   43.3790 H   0  0  0  0  0  0  0  0  0  0  0  0
   37.8470   24.9510   41.9330 C   0  0  0  0  0  0  0  0  0  0  0  0
   38.5970   26.0430   42.3150 C   0  0  0  0  0  0  0  0  0  0  0  0
   39.7440   26.2930   41.5660 C   0  0  0  0  0  0  0  0  0  0  0  0
   40.1060   25.4980   40.5090 C   0  0  0  0  0  0  0  0  0  0  0  0
   41.1340   25.4980   39.6290 N   0  0  0  0  0  0  0  0  0  0  0  0
   41.0370   24.4850   38.7620 C   0  0  0  0  0  0  0  0  0  0  0  0
   39.8880   23.7550   39.0640 C   0  0  0  0  0  0  0  0  0  0  0  0
   39.3650   24.4180   40.1340 C   0  0  0  0  0  0  0  0  0  0  0  0
   38.2250   24.1600   40.8680 C   0  0  0  0  0  0  0  0  0  0  0  0
   36.9600   24.7840   42.5360 H   0  0  0  0  0  0  0  0  0  0  0  0
   40.4290   27.1200   41.7530 H   0  0  0  0  0  0  0  0  0  0  0  0
   41.9230   26.2100   39.6190 H   0  0  0  0  0  0  0  0  0  0  0  0
   41.7330   24.2620   37.9560 H   0  0  0  0  0  0  0  0  0  0  0  0
   39.5720   22.8830   38.5150 H   0  0  0  0  0  0  0  0  0  0  0  0
   37.3820   23.0140   40.5160 C   0  0  0  0  0  0  0  0  0  0  0  0
   36.2570   23.1710   39.9800 O   0  0  0  0  0  0  0  0  0  0  0  0
   37.7210   22.0050   40.7170 H   0  0  0  0  0  0  0  0  0  0  0  0
  1  5  2  0  0  0  0
  2  1  1  0  0  0  0
  2  3  2  0  0  0  0
  3  4  1  0  0  0  0
  4 28  1  0  0  0  0
  5  4  1  0  0  0  0
  6  2  1  0  0  0  0
  7  3  1  0  0  0  0
  8 13  1  0  0  0  0
  9 10  1  0  0  0  0
  9  8  2  0  0  0  0
 10 11  2  0  0  0  0
 11 12  1  0  0  0  0
 12  1  1  0  0  0  0
 13 12  2  0  0  0  0
 14  8  1  0  0  0  0
 15  9  1  0  0  0  0
 16 24  1  1  0  0  0
 16 17  1  0  0  0  0
 17 10  1  6  0  0  0
 18 17  1  0  0  0  0
 18 19  1  0  0  0  0
 20 18  1  0  0  0  0
 21 22  1  0  0  0  0
 21 20  1  0  0  0  0
 23 26  1  6  0  0  0
 23 21  1  0  0  0  0
 23 16  1  0  0  0  0
 24 25  1  0  0  0  0
 26 27  1  0  0  0  0
 28 30  1  0  0  0  0
 29 28  1  0  0  0  0
 31 28  1  0  0  0  0
 31 32  1  0  0  0  0
 33 31  1  0  0  0  0
 34 35  1  0  0  0  0
 34 43  1  0  0  0  0
 35 31  1  0  0  0  0
 36 44  1  0  0  0  0
 36 35  2  0  0  0  0
 37 36  1  0  0  0  0
 38 37  1  0  0  0  0
 39 40  2  0  0  0  0
 39 38  1  0  0  0  0
 40 41  1  0  0  0  0
 41 37  2  0  0  0  0
 41 42  1  0  0  0  0
 42 34  2  0  0  0  0
 45 38  1  0  0  0  0
 46 39  1  0  0  0  0
 47 40  1  0  0  0  0
 48 50  1  0  0  0  0
 48 42  1  0  0  0  0
 49 48  2  0  0  0  0
M  END
>  <minimizedAffinity>
-6.80682278

$$$$
