
     RDKit          3D

 39 41  0  0  0  0  0  0  0  0999 V2000
   46.6972   34.2518   40.6835 C   0  0  0  0  0  0  0  0  0  0  0  0
   48.0480   34.1807   41.3012 C   0  0  0  0  0  0  0  0  0  0  0  0
   48.7503   32.9832   41.1641 C   0  0  0  0  0  0  0  0  0  0  0  0
   50.0077   32.8698   41.7191 C   0  0  0  0  0  0  0  0  0  0  0  0
   50.5215   33.9486   42.3895 N   0  0  0  0  0  0  0  0  0  0  0  0
   49.8083   35.0937   42.5008 C   0  0  0  0  0  0  0  0  0  0  0  0
   48.6037   35.1968   41.9669 N   0  0  0  0  0  0  0  0  0  0  0  0
   48.0032   31.6100   40.2676 S   0  0  0  0  0  0  0  0  0  0  0  0
   45.6142   34.5770   41.6431 C   0  0  0  0  0  0  0  0  0  0  0  0
   44.2558   34.6670   41.0678 C   0  0  0  0  0  0  0  0  0  0  0  0
   43.2436   35.4748   41.6807 C   0  0  0  0  0  0  0  0  0  0  0  0
   41.7923   35.2158   40.5698 S   0  0  0  0  0  0  0  0  0  0  0  0
   42.8104   34.0633   39.4762 C   0  0  0  0  0  0  0  0  0  0  0  0
   43.8257   34.0554   39.9878 N   0  0  0  0  0  0  0  0  0  0  0  0
   46.7638   35.1245   39.9685 H   0  0  0  0  0  0  0  0  0  0  0  0
   46.4937   33.3904   40.0604 H   0  0  0  0  0  0  0  0  0  0  0  0
   50.5806   31.9610   41.6341 H   0  0  0  0  0  0  0  0  0  0  0  0
   50.2194   35.9512   43.0350 H   0  0  0  0  0  0  0  0  0  0  0  0
   47.9112   30.4796   41.1285 H   0  0  0  0  0  0  0  0  0  0  0  0
   45.8664   35.5180   42.1696 H   0  0  0  0  0  0  0  0  0  0  0  0
   45.5683   33.7412   42.3911 H   0  0  0  0  0  0  0  0  0  0  0  0
   43.3754   36.0656   42.5778 H   0  0  0  0  0  0  0  0  0  0  0  0
   40.0921   34.0206   38.9641 O   0  0  0  0  0  0  0  0  0  0  0  0
   40.9152   34.0634   37.8667 C   0  0  1  0  0  0  0  0  0  0  0  0
   42.2419   33.4020   38.2550 C   0  0  2  0  0  0  0  0  0  0  0  0
   41.9709   31.9815   38.6186 C   0  0  1  0  0  0  0  0  0  0  0  0
   42.6726   31.3310   38.0440 H   0  0  0  0  0  0  0  0  0  0  0  0
   40.6952   31.6032   38.1570 O   0  0  0  0  0  0  0  0  0  0  0  0
   40.5387   31.9014   36.8078 C   0  0  1  0  0  0  0  0  0  0  0  0
   41.3916   31.5124   36.1942 H   0  0  0  0  0  0  0  0  0  0  0  0
   40.3976   33.3821   36.6431 C   0  0  2  0  0  0  0  0  0  0  0  0
   41.1584   33.8597   35.5513 O   0  0  0  0  0  0  0  0  0  0  0  0
   39.6576   34.8794   39.1795 H   0  0  0  0  0  0  0  0  0  0  0  0
   41.1550   35.1402   37.6596 H   0  0  0  0  0  0  0  0  0  0  0  0
   42.9479   33.4757   37.4030 H   0  0  0  0  0  0  0  0  0  0  0  0
   42.0074   31.7825   39.6986 H   0  0  0  0  0  0  0  0  0  0  0  0
   39.5731   31.4436   36.5089 H   0  0  0  0  0  0  0  0  0  0  0  0
   39.3368   33.6870   36.4691 H   0  0  0  0  0  0  0  0  0  0  0  0
   41.5281   34.7470   35.7758 H   0  0  0  0  0  0  0  0  0  0  0  0
  1  2  1  0
  1  9  1  0
  2  7  1  0
  3  2  2  0
  3  4  1  0
  4  5  2  0
  5  6  1  0
  7  6  2  0
  8  3  1  0
 10  9  1  0
 10 11  2  0
 12 11  1  0
 13 14  2  0
 13 12  1  0
 14 10  1  0
  1 15  1  0
  1 16  1  0
  4 17  1  0
  6 18  1  0
  8 19  1  0
  9 20  1  0
  9 21  1  0
 11 22  1  0
 23 24  1  0
 24 25  1  0
 25 26  1  0
 26 27  1  6
 26 28  1  0
 28 29  1  0
 29 30  1  6
 29 31  1  0
 31 32  1  0
 31 24  1  0
 23 33  1  0
 24 34  1  6
 25 35  1  6
 26 36  1  0
 29 37  1  0
 31 38  1  6
 32 39  1  0
 13 25  1  0
M  ISO  8  15   8  16   8  17  14  18  14  19  11  20   8  21   8  22  14
M  ISO  2  27   8  30   8
M  END
>  <DihAtoms>  (1) 
13,12,24,23

>  <DihDeg>  (1) 
59.173815065872304

$$$$
