
     RDKit          3D

 33 34  0  0  0  0  0  0  0  0999 V2000
   44.6888   35.5189   43.6043 C   0  0  0  0  0  0  0  0  0  0  0  0
   43.9357   35.4293   42.4059 C   0  0  0  0  0  0  0  0  0  0  0  0
   43.7836   34.1722   41.8357 C   0  0  0  0  0  0  0  0  0  0  0  0
   44.3570   33.0946   42.4447 N   0  0  0  0  0  0  0  0  0  0  0  0
   45.0721   33.2162   43.5923 C   0  0  0  0  0  0  0  0  0  0  0  0
   45.2221   34.4335   44.1488 N   0  0  0  0  0  0  0  0  0  0  0  0
   44.8549   36.8442   44.2145 C   0  0  0  0  0  0  0  0  0  0  0  0
   45.2414   37.8455   43.4357 C   0  0  0  0  0  0  0  0  0  0  0  0
   45.4254   39.2116   44.0042 C   0  0  0  0  0  0  0  0  0  0  0  0
   43.4912   36.2903   41.9405 H   0  0  0  0  0  0  0  0  0  0  0  0
   43.2198   34.0242   40.9170 H   0  0  0  0  0  0  0  0  0  0  0  0
   44.6867   37.0727   45.2549 H   0  0  0  0  0  0  0  0  0  0  0  0
   45.4028   37.5906   42.3999 H   0  0  0  0  0  0  0  0  0  0  0  0
   44.4371   39.6982   44.1250 H   0  0  0  0  0  0  0  0  0  0  0  0
   45.8755   39.1765   45.0327 H   0  0  0  0  0  0  0  0  0  0  0  0
   46.0317   39.8454   43.3466 H   0  0  0  0  0  0  0  0  0  0  0  0
   44.8091   31.0942   42.1893 O   0  0  0  0  0  0  0  0  0  0  0  0
   45.1873   30.7268   43.4952 C   0  0  2  0  0  0  0  0  0  0  0  0
   45.6462   31.9911   44.1635 C   0  0  1  0  0  0  0  0  0  0  0  0
   47.1745   32.0586   44.0376 C   0  0  1  0  0  0  0  0  0  0  0  0
   47.4226   31.7173   42.9900 H   0  0  0  0  0  0  0  0  0  0  0  0
   47.6073   31.0378   44.8856 O   0  0  0  0  0  0  0  0  0  0  0  0
   47.4486   29.8430   44.2386 C   0  0  2  0  0  0  0  0  0  0  0  0
   47.6375   29.0452   45.0162 H   0  0  0  0  0  0  0  0  0  0  0  0
   46.1754   29.6152   43.5281 C   0  0  2  0  0  0  0  0  0  0  0  0
   46.4763   29.3065   42.1815 O   0  0  0  0  0  0  0  0  0  0  0  0
   45.6664   31.2076   41.6935 H   0  0  0  0  0  0  0  0  0  0  0  0
   44.2531   30.3969   43.9951 H   0  0  0  0  0  0  0  0  0  0  0  0
   45.4504   31.9965   45.2563 H   0  0  0  0  0  0  0  0  0  0  0  0
   47.5801   33.0425   44.2814 H   0  0  0  0  0  0  0  0  0  0  0  0
   48.3472   29.7361   43.5624 H   0  0  0  0  0  0  0  0  0  0  0  0
   45.7035   28.6718   43.9192 H   0  0  0  0  0  0  0  0  0  0  0  0
   45.9744   28.5466   41.8424 H   0  0  0  0  0  0  0  0  0  0  0  0
  1  6  2  0
  1  7  1  0
  2  1  1  0
  3  2  2  0
  3  4  1  0
  4  5  2  0
  5  6  1  0
  8  9  1  0
  8  7  2  0
  2 10  1  0
  3 11  1  0
  7 12  1  0
  8 13  1  0
  9 14  1  0
  9 15  1  0
  9 16  1  0
 17 18  1  0
 18 19  1  0
 19 20  1  0
 20 21  1  6
 20 22  1  0
 22 23  1  0
 23 24  1  1
 23 25  1  0
 25 26  1  0
 25 18  1  0
 17 27  1  0
 18 28  1  1
 19 29  1  1
 20 30  1  0
 23 31  1  0
 25 32  1  1
 26 33  1  0
  5 19  1  0
M  ISO  7  10  14  11  14  14   8  15   8  16   8  21   8  24   8
M  END
>  <DihAtoms>  (1) 
3,4,18,17

>  <DihDeg>  (1) 
126.43163265647952

$$$$
