
 OpenBabel03252500253D

 40 42  0  0  1  0  0  0  0  0999 V2000
   52.1560   27.9330   44.7800 C   0  0  2  0  0  0  0  0  0  0  0  0
   53.5190   28.2330   44.2850 C   0  0  2  0  0  0  0  0  0  0  0  0
   54.3930   27.3320   45.0760 C   0  0  0  0  0  0  0  0  0  0  0  0
   53.6550   26.2020   45.3790 O   0  0  0  0  0  0  0  0  0  0  0  0
   52.3550   26.4230   45.0560 C   0  0  0  0  0  0  0  0  0  0  0  0
   51.7320   28.2680   45.6810 H   0  0  0  0  0  0  0  0  0  0  0  0
   53.5120   27.9790   43.2050 H   0  0  0  0  0  0  0  0  0  0  0  0
   55.0020   27.7520   45.8680 H   0  0  0  0  0  0  0  0  0  0  0  0
   55.1720   26.9390   44.3500 H   0  0  0  0  0  0  0  0  0  0  0  0
   52.1120   25.8380   44.1480 H   0  0  0  0  0  0  0  0  0  0  0  0
   51.6980   26.0460   45.8430 H   0  0  0  0  0  0  0  0  0  0  0  0
   53.8730   29.5600   44.3900 O   0  0  0  0  0  0  0  0  0  0  0  0
   52.1740   31.4840   44.4990 O   0  0  0  0  0  0  0  0  0  0  0  0
   52.7520   30.3670   45.3220 P   0  0  1  0  0  0  0  0  0  0  0  0
   51.5030   29.3060   45.7490 O   0  0  0  0  0  0  0  0  0  0  0  0
   50.7410   29.8050   46.1370 H   0  0  0  0  0  0  0  0  0  0  0  0
   53.4480   31.0910   46.7070 O   0  0  0  0  0  0  0  0  0  0  0  0
   54.8470   30.3710   49.9120 C   0  0  0  0  0  0  0  0  0  0  0  0
   54.7380   28.9590   50.0270 C   0  0  0  0  0  0  0  0  0  0  0  0
   54.1590   28.2740   48.9500 C   0  0  0  0  0  0  0  0  0  0  0  0
   53.7470   29.0000   47.8810 N   0  0  0  0  0  0  0  0  0  0  0  0
   53.8690   30.3380   47.8080 C   0  0  0  0  0  0  0  0  0  0  0  0
   54.4190   31.0150   48.8250 N   0  0  0  0  0  0  0  0  0  0  0  0
   55.0790   28.4130   50.9010 H   0  0  0  0  0  0  0  0  0  0  0  0
   54.0460   27.2000   48.9770 H   0  0  0  0  0  0  0  0  0  0  0  0
   55.4150   31.0440   50.9720 O   0  0  0  0  0  0  0  0  0  0  0  0
   55.2530   32.0230   51.1600 H   0  0  0  0  0  0  0  0  0  0  0  0
   51.1690   28.1560   43.8560 O   0  0  0  0  0  0  0  0  0  0  0  0
   49.8790   27.6670   41.8910 C   0  0  2  0  0  3  0  0  0  0  0  0
   50.5720   27.1710   43.1870 C   0  0  2  0  0  3  0  0  0  0  0  0
   49.4310   26.6190   44.0100 C   0  0  0  0  0  3  0  0  0  0  0  0
   49.7100   26.0360   44.8780 H   0  0  0  0  0  0  0  0  0  0  0  0
   48.5210   25.9180   43.2220 O   0  0  0  0  0  0  0  0  0  0  0  0
   47.6840   26.7910   42.5320 C   0  0  0  0  0  3  0  0  0  0  0  0
   47.4370   26.2800   41.5810 H   0  0  0  0  0  0  0  0  0  0  0  0
   48.4280   28.0550   42.1970 C   0  0  2  0  0  3  0  0  0  0  0  0
   49.7650   26.6150   40.9800 O   0  0  0  0  0  0  0  0  0  0  0  0
   49.4790   27.0170   40.1350 H   0  0  0  0  0  0  0  0  0  0  0  0
   47.9240   28.5120   40.9710 O   0  0  0  0  0  0  0  0  0  0  0  0
   47.4650   29.3700   41.0190 H   0  0  0  0  0  0  0  0  0  0  0  0
  1  5  1  0  0  0  0
  1  6  1  1  0  0  0
  2  7  1  6  0  0  0
  2 12  1  0  0  0  0
  2  1  1  0  0  0  0
  2  3  1  0  0  0  0
  3  4  1  0  0  0  0
  3  8  1  0  0  0  0
  5  4  1  0  0  0  0
  5 11  1  0  0  0  0
  9  3  1  0  0  0  0
 10  5  1  0  0  0  0
 12 14  1  0  0  0  0
 14 13  2  6  0  0  0
 14 15  1  0  0  0  0
 14 17  1  0  0  0  0
 15 16  1  0  0  0  0
 17 22  1  0  0  0  0
 18 19  1  0  0  0  0
 18 26  1  0  0  0  0
 19 24  1  0  0  0  0
 20 25  1  0  0  0  0
 20 19  2  0  0  0  0
 21 20  1  0  0  0  0
 22 21  2  0  0  0  0
 22 23  1  0  0  0  0
 23 18  2  0  0  0  0
 26 27  1  0  0  0  0
 28  1  1  0  0  0  0
 29 37  1  6  0  0  0
 29 36  1  0  0  0  0
 29 30  1  0  0  0  0
 30 28  1  1  0  0  0
 30 31  1  0  0  0  0
 31 32  1  0  0  0  0
 33 31  1  0  0  0  0
 34 33  1  0  0  0  0
 35 34  1  0  0  0  0
 36 39  1  6  0  0  0
 36 34  1  0  0  0  0
 38 37  1  0  0  0  0
 39 40  1  0  0  0  0
M  END
>  <minimizedAffinity>
0.10833399

>  <minimizedRMSD>
9.62471104

$$$$
