
     RDKit          3D

 27 28  0  0  0  0  0  0  0  0999 V2000
   45.0018   35.4849   44.1873 C   0  0  0  0  0  0  0  0  0  0  0  0
   45.9772   34.9333   43.3400 C   0  0  0  0  0  0  0  0  0  0  0  0
   46.7135   33.8312   43.8408 C   0  0  0  0  0  0  0  0  0  0  0  0
   46.4417   33.3774   45.0873 N   0  0  0  0  0  0  0  0  0  0  0  0
   45.4956   33.9415   45.8607 C   0  0  0  0  0  0  0  0  0  0  0  0
   44.7804   34.9843   45.4204 N   0  0  0  0  0  0  0  0  0  0  0  0
   44.2877   36.5503   43.7075 O   0  0  0  0  0  0  0  0  0  0  0  0
   46.1735   35.3158   42.3489 H   0  0  0  0  0  0  0  0  0  0  0  0
   45.2501   33.6030   46.8679 H   0  0  0  0  0  0  0  0  0  0  0  0
   44.7226   37.4641   43.7177 H   0  0  0  0  0  0  0  0  0  0  0  0
   47.0030   31.4197   44.3331 O   0  0  0  0  0  0  0  0  0  0  0  0
   48.1128   31.8831   43.5931 C   0  0  1  0  0  0  0  0  0  0  0  0
   47.7564   33.2069   42.9924 C   0  0  2  0  0  0  0  0  0  0  0  0
   48.9161   34.1859   42.9677 C   0  0  1  0  0  0  0  0  0  0  0  0
   48.8215   34.7672   42.0264 H   0  0  0  0  0  0  0  0  0  0  0  0
   50.1487   33.5631   42.9134 O   0  0  0  0  0  0  0  0  0  0  0  0
   50.4215   32.7991   44.0421 C   0  0  1  0  0  0  0  0  0  0  0  0
   51.1849   32.0435   43.7494 H   0  0  0  0  0  0  0  0  0  0  0  0
   49.2319   32.0770   44.5863 C   0  0  2  0  0  0  0  0  0  0  0  0
   49.6177   30.8137   45.0341 O   0  0  0  0  0  0  0  0  0  0  0  0
   47.0310   30.4712   44.5325 H   0  0  0  0  0  0  0  0  0  0  0  0
   48.3663   31.0909   42.8852 H   0  0  0  0  0  0  0  0  0  0  0  0
   47.3079   33.0969   41.9764 H   0  0  0  0  0  0  0  0  0  0  0  0
   48.8467   34.9498   43.7814 H   0  0  0  0  0  0  0  0  0  0  0  0
   50.8738   33.4101   44.8772 H   0  0  0  0  0  0  0  0  0  0  0  0
   48.8492   32.6223   45.4813 H   0  0  0  0  0  0  0  0  0  0  0  0
   48.8950   30.2416   45.3312 H   0  0  0  0  0  0  0  0  0  0  0  0
  1  6  2  0
  2  3  2  0
  2  1  1  0
  3  4  1  0
  4  5  2  0
  6  5  1  0
  7  1  1  0
  2  8  1  0
  5  9  1  0
  7 10  1  0
 11 12  1  0
 12 13  1  0
 13 14  1  0
 14 15  1  6
 14 16  1  0
 16 17  1  0
 17 18  1  6
 17 19  1  0
 19 20  1  0
 19 12  1  0
 11 21  1  0
 12 22  1  6
 13 23  1  6
 14 24  1  0
 17 25  1  0
 19 26  1  1
 20 27  1  0
  3 13  1  0
M  ISO  5   8  14   9  14  10   3  15   8  18   8
M  END
>  <DihAtoms>  (1) 
1,2,12,11

>  <DihDeg>  (1) 
-120.32930638789271

$$$$
