
 OpenBabel03252507383D

 41 45  0  0  1  0  0  0  0  0999 V2000
   45.6840   34.7820   43.5160 C   0  0  0  0  0  0  0  0  0  0  0  0
   46.3880   33.7120   44.1270 C   0  0  0  0  0  0  0  0  0  0  0  0
   46.1310   33.4790   45.4760 C   0  0  0  0  0  0  0  0  0  0  0  0
   45.2580   34.2500   46.1210 N   0  0  0  0  0  0  0  0  0  0  0  0
   44.5970   35.2680   45.5170 C   0  0  0  0  0  0  0  0  0  0  0  0
   44.8130   35.5240   44.2320 N   0  0  0  0  0  0  0  0  0  0  0  0
   47.0850   33.0920   43.6260 H   0  0  0  0  0  0  0  0  0  0  0  0
   43.9080   35.8350   46.1310 H   0  0  0  0  0  0  0  0  0  0  0  0
   47.0290   32.6550   47.5810 C   0  0  0  0  0  0  0  0  0  0  0  0
   46.7930   32.4030   46.2280 C   0  0  0  0  0  0  0  0  0  0  0  0
   47.1810   31.2120   45.7100 C   0  0  0  0  0  0  0  0  0  0  0  0
   47.8010   30.2320   46.4590 C   0  0  0  0  0  0  0  0  0  0  0  0
   48.2610   29.0000   46.1500 N   0  0  0  0  0  0  0  0  0  0  0  0
   48.7930   28.4650   47.3150 C   0  0  0  0  0  0  0  0  0  0  0  0
   48.6430   29.3850   48.3010 N   0  0  0  0  0  0  0  0  0  0  0  0
   48.0430   30.4580   47.7850 C   0  0  0  0  0  0  0  0  0  0  0  0
   47.6600   31.6600   48.3430 C   0  0  0  0  0  0  0  0  0  0  0  0
   46.7710   33.5660   48.1240 H   0  0  0  0  0  0  0  0  0  0  0  0
   46.9810   31.0550   44.6610 H   0  0  0  0  0  0  0  0  0  0  0  0
   48.2350   28.5140   45.2210 H   0  0  0  0  0  0  0  0  0  0  0  0
   49.2400   27.4820   47.3820 H   0  0  0  0  0  0  0  0  0  0  0  0
   47.8690   31.7990   49.3960 H   0  0  0  0  0  0  0  0  0  0  0  0
   45.9340   35.0250   42.1650 O   0  0  0  0  0  0  0  0  0  0  0  0
   44.9710   34.7020   41.2150 C   0  0  0  0  0  0  0  0  0  0  0  0
   45.5970   33.7270   40.5310 C   0  0  0  0  0  0  0  0  0  0  0  0
   44.2910   33.2680   39.2240 S   0  0  0  0  0  0  0  0  0  0  0  0
   43.1360   34.5790   39.9520 C   0  0  0  0  0  0  0  0  0  0  0  0
   43.7640   34.9720   40.7670 N   0  0  0  0  0  0  0  0  0  0  0  0
   46.4940   33.0190   40.3040 H   0  0  0  0  0  0  0  0  0  0  0  0
   41.0950   33.5180   39.2910 C   0  0  1  0  0  3  0  0  0  0  0  0
   41.7860   34.8320   39.3980 C   0  0  1  0  0  3  0  0  0  0  0  0
   41.0500   35.7270   40.3710 C   0  0  0  0  0  3  0  0  0  0  0  0
   40.9130   36.7550   39.9770 H   0  0  0  0  0  0  0  0  0  0  0  0
   39.7950   35.1980   40.7020 O   0  0  0  0  0  0  0  0  0  0  0  0
   39.9610   34.0160   41.4240 C   0  0  0  0  0  3  0  0  0  0  0  0
   38.9260   33.6540   41.6280 H   0  0  0  0  0  0  0  0  0  0  0  0
   40.6960   32.9850   40.6270 C   0  0  1  0  0  3  0  0  0  0  0  0
   39.9760   33.6230   38.4380 O   0  0  0  0  0  0  0  0  0  0  0  0
   39.7220   32.7280   38.0910 H   0  0  0  0  0  0  0  0  0  0  0  0
   39.9010   31.8530   40.4000 O   0  0  0  0  0  0  0  0  0  0  0  0
   38.9470   32.1470   40.5050 H   0  0  0  0  0  0  0  0  0  0  0  0
  1  2  2  0  0  0  0
  1  6  1  0  0  0  0
  2  3  1  0  0  0  0
  3  4  2  0  0  0  0
  3 10  1  0  0  0  0
  5  4  1  0  0  0  0
  5  8  1  0  0  0  0
  6  5  2  0  0  0  0
  7  2  1  0  0  0  0
  9 18  1  0  0  0  0
  9 17  1  0  0  0  0
 10  9  2  0  0  0  0
 11 10  1  0  0  0  0
 11 12  2  0  0  0  0
 12 16  1  0  0  0  0
 13 12  1  0  0  0  0
 13 14  1  0  0  0  0
 14 21  1  0  0  0  0
 14 15  2  0  0  0  0
 16 15  1  0  0  0  0
 16 17  2  0  0  0  0
 17 22  1  0  0  0  0
 19 11  1  0  0  0  0
 20 13  1  0  0  0  0
 23  1  1  0  0  0  0
 24 23  1  0  0  0  0
 25 24  2  0  0  0  0
 26 27  1  0  0  0  0
 26 25  1  0  0  0  0
 27 28  2  0  0  0  0
 28 24  1  0  0  0  0
 29 25  1  0  0  0  0
 30 38  1  6  0  0  0
 30 31  1  0  0  0  0
 30 37  1  0  0  0  0
 31 27  1  1  0  0  0
 31 32  1  0  0  0  0
 32 34  1  0  0  0  0
 33 32  1  0  0  0  0
 34 35  1  0  0  0  0
 35 36  1  0  0  0  0
 37 40  1  6  0  0  0
 37 35  1  0  0  0  0
 39 38  1  0  0  0  0
 40 41  1  0  0  0  0
M  END
>  <minimizedAffinity>
-6.79160595

>  <minimizedRMSD>
1.51102054

$$$$
