
 OpenBabel03252506193D

 26 27  0  0  1  0  0  0  0  0999 V2000
   36.5580   28.8230   40.1420 C   0  0  0  0  0  0  0  0  0  0  0  0
   35.6230   28.6250   39.0940 C   0  0  0  0  0  0  0  0  0  0  0  0
   35.6500   29.5190   38.0320 C   0  0  0  0  0  0  0  0  0  0  0  0
   36.5610   30.5330   38.0430 N   0  0  0  0  0  0  0  0  0  0  0  0
   37.4430   30.6950   39.0620 C   0  0  0  0  0  0  0  0  0  0  0  0
   37.4210   29.8290   40.0950 N   0  0  0  0  0  0  0  0  0  0  0  0
   34.9130   27.8190   39.1030 H   0  0  0  0  0  0  0  0  0  0  0  0
   34.9640   29.4320   37.1920 H   0  0  0  0  0  0  0  0  0  0  0  0
   37.8600   33.1030   39.5550 C   0  0  2  0  0  3  0  0  0  0  0  0
   38.3810   31.8210   38.9720 C   0  0  1  0  0  3  0  0  0  0  0  0
   39.6670   31.4520   39.7270 C   0  0  0  0  0  3  0  0  0  0  0  0
   39.4690   31.6700   40.8170 H   0  0  0  0  0  0  0  0  0  0  0  0
   40.5740   32.4240   39.3010 O   0  0  0  0  0  0  0  0  0  0  0  0
   40.3170   33.5820   39.9810 C   0  0  0  0  0  3  0  0  0  0  0  0
   40.9450   34.3780   39.4830 H   0  0  0  0  0  0  0  0  0  0  0  0
   38.9080   34.0040   40.1070 C   0  0  2  0  0  3  0  0  0  0  0  0
   36.8920   32.7310   40.5080 O   0  0  0  0  0  0  0  0  0  0  0  0
   37.4130   32.4230   41.2990 H   0  0  0  0  0  0  0  0  0  0  0  0
   38.6200   34.1600   41.4820 O   0  0  0  0  0  0  0  0  0  0  0  0
   38.1350   34.9780   41.6800 H   0  0  0  0  0  0  0  0  0  0  0  0
   36.5390   27.8830   41.2690 C   0  0  0  0  0  3  0  0  0  0  0  0
   36.7860   28.3580   42.4830 C   0  0  0  0  0  3  0  0  0  0  0  0
   36.7790   27.4480   43.6630 C   0  0  0  0  0  0  0  0  0  0  0  0
   35.7330   27.2440   43.9660 H   0  0  0  0  0  0  0  0  0  0  0  0
   37.2270   26.4470   43.4180 H   0  0  0  0  0  0  0  0  0  0  0  0
   37.2950   27.8930   44.5210 H   0  0  0  0  0  0  0  0  0  0  0  0
  1 21  1  0  0  0  0
  2  7  1  0  0  0  0
  2  1  2  0  0  0  0
  3  4  2  0  0  0  0
  3  2  1  0  0  0  0
  4  5  1  0  0  0  0
  5  6  2  0  0  0  0
  6  1  1  0  0  0  0
  8  3  1  0  0  0  0
  9 16  1  0  0  0  0
  9 17  1  1  0  0  0
 10  5  1  1  0  0  0
 10  9  1  0  0  0  0
 10 11  1  0  0  0  0
 11 12  1  0  0  0  0
 13 11  1  0  0  0  0
 13 14  1  0  0  0  0
 14 16  1  0  0  0  0
 15 14  1  0  0  0  0
 16 19  1  1  0  0  0
 17 18  1  0  0  0  0
 19 20  1  0  0  0  0
 21 22  2  0  0  0  0
 22 23  1  0  0  0  0
 23 24  1  0  0  0  0
 23 26  1  0  0  0  0
 25 23  1  0  0  0  0
M  END
>  <minimizedAffinity>
-5.46354246

$$$$

 OpenBabel03252506193D

 26 27  0  0  1  0  0  0  0  0999 V2000
   37.9080   31.7260   39.6390 C   0  0  0  0  0  0  0  0  0  0  0  0
   37.3160   32.9590   40.0150 C   0  0  0  0  0  0  0  0  0  0  0  0
   38.1530   34.0590   40.1450 C   0  0  0  0  0  0  0  0  0  0  0  0
   39.4870   33.9080   39.9090 N   0  0  0  0  0  0  0  0  0  0  0  0
   40.0220   32.7130   39.5510 C   0  0  0  0  0  0  0  0  0  0  0  0
   39.2130   31.6420   39.4230 N   0  0  0  0  0  0  0  0  0  0  0  0
   36.2610   33.0580   40.1960 H   0  0  0  0  0  0  0  0  0  0  0  0
   37.7720   35.0380   40.4300 H   0  0  0  0  0  0  0  0  0  0  0  0
   41.8610   32.5390   37.8760 C   0  0  2  0  0  3  0  0  0  0  0  0
   41.4710   32.6630   39.3210 C   0  0  1  0  0  3  0  0  0  0  0  0
   42.1010   33.9520   39.8660 C   0  0  0  0  0  3  0  0  0  0  0  0
   41.9750   34.7330   39.0610 H   0  0  0  0  0  0  0  0  0  0  0  0
   43.4640   33.6500   39.8960 O   0  0  0  0  0  0  0  0  0  0  0  0
   43.9580   33.7580   38.6260 C   0  0  0  0  0  3  0  0  0  0  0  0
   45.0050   33.3360   38.6660 H   0  0  0  0  0  0  0  0  0  0  0  0
   43.1720   33.1540   37.5320 C   0  0  2  0  0  3  0  0  0  0  0  0
   40.7880   33.0750   37.1370 O   0  0  0  0  0  0  0  0  0  0  0  0
   40.8840   34.0630   37.2210 H   0  0  0  0  0  0  0  0  0  0  0  0
   42.9060   34.1610   36.5770 O   0  0  0  0  0  0  0  0  0  0  0  0
   43.0600   33.8710   35.6630 H   0  0  0  0  0  0  0  0  0  0  0  0
   37.0310   30.5570   39.4980 C   0  0  0  0  0  3  0  0  0  0  0  0
   36.5190   30.3020   38.3010 C   0  0  0  0  0  3  0  0  0  0  0  0
   35.6230   29.1270   38.1020 C   0  0  0  0  0  0  0  0  0  0  0  0
   36.2330   28.2050   38.0270 H   0  0  0  0  0  0  0  0  0  0  0  0
   34.9400   28.9720   38.9810 H   0  0  0  0  0  0  0  0  0  0  0  0
   35.0380   29.2170   37.1800 H   0  0  0  0  0  0  0  0  0  0  0  0
  1  2  1  0  0  0  0
  2  3  2  0  0  0  0
  2  7  1  0  0  0  0
  3  8  1  0  0  0  0
  4  3  1  0  0  0  0
  5  4  2  0  0  0  0
  6  5  1  0  0  0  0
  6  1  2  0  0  0  0
  9 17  1  6  0  0  0
  9 10  1  0  0  0  0
 10  5  1  6  0  0  0
 10 11  1  0  0  0  0
 11 13  1  0  0  0  0
 12 11  1  0  0  0  0
 14 15  1  0  0  0  0
 14 13  1  0  0  0  0
 16 19  1  6  0  0  0
 16  9  1  0  0  0  0
 16 14  1  0  0  0  0
 17 18  1  0  0  0  0
 20 19  1  0  0  0  0
 21  1  1  0  0  0  0
 22 21  2  0  0  0  0
 23 22  1  0  0  0  0
 23 25  1  0  0  0  0
 24 23  1  0  0  0  0
 26 23  1  0  0  0  0
M  END
>  <minimizedAffinity>
-5.25194454

$$$$

 OpenBabel03252506193D

 26 27  0  0  1  0  0  0  0  0999 V2000
   37.3960   27.0930   41.7880 C   0  0  0  0  0  0  0  0  0  0  0  0
   37.2110   27.3220   43.1750 C   0  0  0  0  0  0  0  0  0  0  0  0
   37.5130   28.5870   43.6630 C   0  0  0  0  0  0  0  0  0  0  0  0
   37.9670   29.5390   42.7990 N   0  0  0  0  0  0  0  0  0  0  0  0
   38.1340   29.2860   41.4760 C   0  0  0  0  0  0  0  0  0  0  0  0
   37.8420   28.0600   40.9980 N   0  0  0  0  0  0  0  0  0  0  0  0
   36.8500   26.5590   43.8410 H   0  0  0  0  0  0  0  0  0  0  0  0
   37.3960   28.8380   44.7150 H   0  0  0  0  0  0  0  0  0  0  0  0
   37.5600   31.0930   39.8570 C   0  0  2  0  0  3  0  0  0  0  0  0
   38.6300   30.3830   40.6350 C   0  0  1  0  0  3  0  0  0  0  0  0
   39.3200   31.4190   41.5340 C   0  0  0  0  0  3  0  0  0  0  0  0
   38.5000   32.0740   41.9510 H   0  0  0  0  0  0  0  0  0  0  0  0
   40.0190   32.2130   40.6230 O   0  0  0  0  0  0  0  0  0  0  0  0
   39.1360   33.0760   40.0370 C   0  0  0  0  0  3  0  0  0  0  0  0
   39.7010   33.5670   39.1900 H   0  0  0  0  0  0  0  0  0  0  0  0
   37.8440   32.5270   39.5780 C   0  0  2  0  0  3  0  0  0  0  0  0
   36.3630   30.8950   40.5720 O   0  0  0  0  0  0  0  0  0  0  0  0
   36.4140   31.5250   41.3420 H   0  0  0  0  0  0  0  0  0  0  0  0
   36.8110   33.2690   40.1950 O   0  0  0  0  0  0  0  0  0  0  0  0
   36.1050   33.5250   39.5790 H   0  0  0  0  0  0  0  0  0  0  0  0
   37.0790   25.7590   41.2630 C   0  0  0  0  0  3  0  0  0  0  0  0
   37.9040   24.7610   41.5550 C   0  0  0  0  0  3  0  0  0  0  0  0
   37.6300   23.3860   41.0480 C   0  0  0  0  0  0  0  0  0  0  0  0
   36.8480   22.9110   41.6720 H   0  0  0  0  0  0  0  0  0  0  0  0
   37.2180   23.4040   40.0020 H   0  0  0  0  0  0  0  0  0  0  0  0
   38.5240   22.7540   41.0910 H   0  0  0  0  0  0  0  0  0  0  0  0
  1  2  1  0  0  0  0
  2  3  2  0  0  0  0
  2  7  1  0  0  0  0
  3  8  1  0  0  0  0
  4  3  1  0  0  0  0
  5  4  2  0  0  0  0
  6  5  1  0  0  0  0
  6  1  2  0  0  0  0
  9 17  1  1  0  0  0
  9 10  1  0  0  0  0
 10  5  1  1  0  0  0
 10 11  1  0  0  0  0
 11 12  1  0  0  0  0
 13 11  1  0  0  0  0
 14 13  1  0  0  0  0
 15 14  1  0  0  0  0
 16  9  1  0  0  0  0
 16 14  1  0  0  0  0
 16 19  1  1  0  0  0
 17 18  1  0  0  0  0
 20 19  1  0  0  0  0
 21 22  2  0  0  0  0
 21  1  1  0  0  0  0
 23 26  1  0  0  0  0
 23 22  1  0  0  0  0
 23 24  1  0  0  0  0
 25 23  1  0  0  0  0
M  END
>  <minimizedAffinity>
-5.13908529

$$$$

 OpenBabel03252506193D

 26 27  0  0  1  0  0  0  0  0999 V2000
   37.1690   28.2890   40.6460 C   0  0  0  0  0  0  0  0  0  0  0  0
   36.0290   29.0510   41.0100 C   0  0  0  0  0  0  0  0  0  0  0  0
   36.1210   30.4320   40.9050 C   0  0  0  0  0  0  0  0  0  0  0  0
   37.2850   30.9880   40.4640 N   0  0  0  0  0  0  0  0  0  0  0  0
   38.3580   30.2290   40.1230 C   0  0  0  0  0  0  0  0  0  0  0  0
   38.2740   28.8870   40.2220 N   0  0  0  0  0  0  0  0  0  0  0  0
   35.1200   28.5950   41.3550 H   0  0  0  0  0  0  0  0  0  0  0  0
   35.2890   31.0830   41.1670 H   0  0  0  0  0  0  0  0  0  0  0  0
   39.8320   30.7830   38.1900 C   0  0  2  0  0  3  0  0  0  0  0  0
   39.5620   30.9300   39.6600 C   0  0  1  0  0  3  0  0  0  0  0  0
   39.4050   32.4280   39.9590 C   0  0  0  0  0  3  0  0  0  0  0  0
   38.7960   32.8590   39.1120 H   0  0  0  0  0  0  0  0  0  0  0  0
   40.7000   32.9220   39.7900 O   0  0  0  0  0  0  0  0  0  0  0  0
   40.9410   33.0520   38.4510 C   0  0  0  0  0  3  0  0  0  0  0  0
   42.0440   33.2780   38.3570 H   0  0  0  0  0  0  0  0  0  0  0  0
   40.5400   31.9360   37.5710 C   0  0  2  0  0  3  0  0  0  0  0  0
   38.5860   30.5130   37.5910 O   0  0  0  0  0  0  0  0  0  0  0  0
   38.1190   31.3920   37.5570 H   0  0  0  0  0  0  0  0  0  0  0  0
   39.6770   32.4520   36.5770 O   0  0  0  0  0  0  0  0  0  0  0  0
   39.8910   32.1340   35.6840 H   0  0  0  0  0  0  0  0  0  0  0  0
   37.0810   26.8270   40.7520 C   0  0  0  0  0  3  0  0  0  0  0  0
   37.1210   26.2860   41.9620 C   0  0  0  0  0  3  0  0  0  0  0  0
   37.0370   24.8070   42.1280 C   0  0  0  0  0  0  0  0  0  0  0  0
   35.9820   24.4840   42.0280 H   0  0  0  0  0  0  0  0  0  0  0  0
   37.6010   24.2660   41.3200 H   0  0  0  0  0  0  0  0  0  0  0  0
   37.3930   24.4890   43.1150 H   0  0  0  0  0  0  0  0  0  0  0  0
  1 21  1  0  0  0  0
  1  2  1  0  0  0  0
  2  7  1  0  0  0  0
  3  2  2  0  0  0  0
  3  8  1  0  0  0  0
  4  3  1  0  0  0  0
  5  6  1  0  0  0  0
  5  4  2  0  0  0  0
  6  1  2  0  0  0  0
  9 17  1  6  0  0  0
  9 10  1  0  0  0  0
 10 11  1  0  0  0  0
 10  5  1  6  0  0  0
 12 11  1  0  0  0  0
 13 11  1  0  0  0  0
 14 13  1  0  0  0  0
 15 14  1  0  0  0  0
 16 19  1  6  0  0  0
 16  9  1  0  0  0  0
 16 14  1  0  0  0  0
 18 17  1  0  0  0  0
 20 19  1  0  0  0  0
 21 22  2  0  0  0  0
 22 23  1  0  0  0  0
 23 26  1  0  0  0  0
 24 23  1  0  0  0  0
 25 23  1  0  0  0  0
M  END
>  <minimizedAffinity>
-4.99882317

$$$$

 OpenBabel03252506193D

 26 27  0  0  1  0  0  0  0  0999 V2000
   35.6280   29.1960   38.8560 C   0  0  0  0  0  0  0  0  0  0  0  0
   36.2600   28.1670   39.6000 C   0  0  0  0  0  0  0  0  0  0  0  0
   37.5360   28.4180   40.0880 C   0  0  0  0  0  0  0  0  0  0  0  0
   38.1160   29.6260   39.8340 N   0  0  0  0  0  0  0  0  0  0  0  0
   37.4830   30.5900   39.1180 C   0  0  0  0  0  0  0  0  0  0  0  0
   36.2450   30.3510   38.6430 N   0  0  0  0  0  0  0  0  0  0  0  0
   35.7860   27.2220   39.7900 H   0  0  0  0  0  0  0  0  0  0  0  0
   38.0840   27.6780   40.6660 H   0  0  0  0  0  0  0  0  0  0  0  0
   37.6120   33.0260   39.6340 C   0  0  2  0  0  3  0  0  0  0  0  0
   38.2000   31.8530   38.9040 C   0  0  1  0  0  3  0  0  0  0  0  0
   39.6500   31.6840   39.3820 C   0  0  0  0  0  3  0  0  0  0  0  0
   39.6370   31.8500   40.4990 H   0  0  0  0  0  0  0  0  0  0  0  0
   40.2940   32.7950   38.8370 O   0  0  0  0  0  0  0  0  0  0  0  0
   40.0000   33.8860   39.6070 C   0  0  0  0  0  3  0  0  0  0  0  0
   40.3880   34.7800   39.0350 H   0  0  0  0  0  0  0  0  0  0  0  0
   38.5950   34.0750   40.0180 C   0  0  2  0  0  3  0  0  0  0  0  0
   36.9180   32.4890   40.7360 O   0  0  0  0  0  0  0  0  0  0  0  0
   37.6240   32.2550   41.3980 H   0  0  0  0  0  0  0  0  0  0  0  0
   38.5610   34.1610   41.4280 O   0  0  0  0  0  0  0  0  0  0  0  0
   38.0030   34.8880   41.7530 H   0  0  0  0  0  0  0  0  0  0  0  0
   34.2790   28.9410   38.3370 C   0  0  0  0  0  3  0  0  0  0  0  0
   34.0940   29.0030   37.0250 C   0  0  0  0  0  3  0  0  0  0  0  0
   32.7440   28.7520   36.4430 C   0  0  0  0  0  0  0  0  0  0  0  0
   32.5530   27.6610   36.4100 H   0  0  0  0  0  0  0  0  0  0  0  0
   31.9290   29.1860   37.0850 H   0  0  0  0  0  0  0  0  0  0  0  0
   32.6660   29.1370   35.4210 H   0  0  0  0  0  0  0  0  0  0  0  0
  1  2  1  0  0  0  0
  2  7  1  0  0  0  0
  2  3  2  0  0  0  0
  3  8  1  0  0  0  0
  4  3  1  0  0  0  0
  5  4  2  0  0  0  0
  6  1  2  0  0  0  0
  6  5  1  0  0  0  0
  9 16  1  0  0  0  0
  9 17  1  1  0  0  0
 10  5  1  1  0  0  0
 10 11  1  0  0  0  0
 10  9  1  0  0  0  0
 11 12  1  0  0  0  0
 13 11  1  0  0  0  0
 13 14  1  0  0  0  0
 14 16  1  0  0  0  0
 15 14  1  0  0  0  0
 16 19  1  1  0  0  0
 17 18  1  0  0  0  0
 19 20  1  0  0  0  0
 21  1  1  0  0  0  0
 22 21  2  0  0  0  0
 23 22  1  0  0  0  0
 23 25  1  0  0  0  0
 24 23  1  0  0  0  0
 26 23  1  0  0  0  0
M  END
>  <minimizedAffinity>
-4.99378538

$$$$

 OpenBabel03252506193D

 26 27  0  0  1  0  0  0  0  0999 V2000
   37.8130   31.2310   38.9260 C   0  0  0  0  0  0  0  0  0  0  0  0
   38.2040   32.5350   39.3220 C   0  0  0  0  0  0  0  0  0  0  0  0
   38.7810   32.6790   40.5770 C   0  0  0  0  0  0  0  0  0  0  0  0
   38.9440   31.5760   41.3620 N   0  0  0  0  0  0  0  0  0  0  0  0
   38.5580   30.3410   40.9520 C   0  0  0  0  0  0  0  0  0  0  0  0
   37.9980   30.1960   39.7340 N   0  0  0  0  0  0  0  0  0  0  0  0
   38.0680   33.3930   38.6890 H   0  0  0  0  0  0  0  0  0  0  0  0
   39.1050   33.6490   40.9510 H   0  0  0  0  0  0  0  0  0  0  0  0
   37.8270   29.1830   43.0350 C   0  0  2  0  0  3  0  0  0  0  0  0
   38.7810   29.2220   41.8760 C   0  0  1  0  0  3  0  0  0  0  0  0
   38.6280   27.9050   41.1010 C   0  0  0  0  0  3  0  0  0  0  0  0
   37.5210   27.6860   41.0600 H   0  0  0  0  0  0  0  0  0  0  0  0
   39.1740   26.9600   41.9720 O   0  0  0  0  0  0  0  0  0  0  0  0
   38.2500   26.6810   42.9400 C   0  0  0  0  0  3  0  0  0  0  0  0
   38.7910   26.0600   43.7120 H   0  0  0  0  0  0  0  0  0  0  0  0
   37.5440   27.8200   43.5600 C   0  0  2  0  0  3  0  0  0  0  0  0
   36.6690   29.8630   42.6090 O   0  0  0  0  0  0  0  0  0  0  0  0
   36.1930   29.2180   42.0180 H   0  0  0  0  0  0  0  0  0  0  0  0
   36.1550   27.6090   43.4040 O   0  0  0  0  0  0  0  0  0  0  0  0
   35.6490   27.7790   44.2160 H   0  0  0  0  0  0  0  0  0  0  0  0
   37.2030   31.0680   37.6000 C   0  0  0  0  0  3  0  0  0  0  0  0
   37.0560   29.8370   37.1280 C   0  0  0  0  0  3  0  0  0  0  0  0
   36.4420   29.6140   35.7880 C   0  0  0  0  0  0  0  0  0  0  0  0
   35.3410   29.7060   35.8660 H   0  0  0  0  0  0  0  0  0  0  0  0
   36.7630   30.3980   35.0490 H   0  0  0  0  0  0  0  0  0  0  0  0
   36.6680   28.6140   35.4010 H   0  0  0  0  0  0  0  0  0  0  0  0
  1  2  2  0  0  0  0
  1  6  1  0  0  0  0
  2  3  1  0  0  0  0
  3  8  1  0  0  0  0
  3  4  2  0  0  0  0
  5  4  1  0  0  0  0
  6  5  2  0  0  0  0
  7  2  1  0  0  0  0
  9 17  1  6  0  0  0
  9 16  1  0  0  0  0
 10  5  1  6  0  0  0
 10  9  1  0  0  0  0
 11 10  1  0  0  0  0
 11 13  1  0  0  0  0
 12 11  1  0  0  0  0
 13 14  1  0  0  0  0
 14 16  1  0  0  0  0
 14 15  1  0  0  0  0
 16 19  1  6  0  0  0
 18 17  1  0  0  0  0
 19 20  1  0  0  0  0
 21  1  1  0  0  0  0
 22 21  2  0  0  0  0
 23 24  1  0  0  0  0
 23 22  1  0  0  0  0
 25 23  1  0  0  0  0
 26 23  1  0  0  0  0
M  END
>  <minimizedAffinity>
-4.92443657

$$$$

 OpenBabel03252506193D

 26 27  0  0  1  0  0  0  0  0999 V2000
   36.8960   24.8640   40.8440 C   0  0  0  0  0  0  0  0  0  0  0  0
   37.6190   24.7720   42.0600 C   0  0  0  0  0  0  0  0  0  0  0  0
   38.2150   25.9300   42.5410 C   0  0  0  0  0  0  0  0  0  0  0  0
   38.0800   27.0880   41.8340 N   0  0  0  0  0  0  0  0  0  0  0  0
   37.3800   27.1420   40.6730 C   0  0  0  0  0  0  0  0  0  0  0  0
   36.7990   26.0200   40.2020 N   0  0  0  0  0  0  0  0  0  0  0  0
   37.7140   23.8500   42.6030 H   0  0  0  0  0  0  0  0  0  0  0  0
   38.7870   25.9370   43.4680 H   0  0  0  0  0  0  0  0  0  0  0  0
   35.9960   29.1620   40.1990 C   0  0  2  0  0  3  0  0  0  0  0  0
   37.2970   28.4410   39.9930 C   0  0  1  0  0  3  0  0  0  0  0  0
   38.4210   29.3450   40.5210 C   0  0  0  0  0  3  0  0  0  0  0  0
   38.0410   29.7950   41.4830 H   0  0  0  0  0  0  0  0  0  0  0  0
   38.4490   30.3880   39.5940 O   0  0  0  0  0  0  0  0  0  0  0  0
   37.4170   31.2410   39.8730 C   0  0  0  0  0  3  0  0  0  0  0  0
   37.3680   31.9600   39.0030 H   0  0  0  0  0  0  0  0  0  0  0  0
   36.0960   30.6460   40.1570 C   0  0  2  0  0  3  0  0  0  0  0  0
   35.4710   28.6760   41.4130 O   0  0  0  0  0  0  0  0  0  0  0  0
   35.9970   29.1360   42.1240 H   0  0  0  0  0  0  0  0  0  0  0  0
   35.6700   31.1130   41.4210 O   0  0  0  0  0  0  0  0  0  0  0  0
   34.7430   31.4040   41.4280 H   0  0  0  0  0  0  0  0  0  0  0  0
   36.2610   23.6450   40.3260 C   0  0  0  0  0  3  0  0  0  0  0  0
   35.4640   23.7570   39.2710 C   0  0  0  0  0  3  0  0  0  0  0  0
   34.7940   22.5510   38.7050 C   0  0  0  0  0  0  0  0  0  0  0  0
   35.5170   21.9830   38.0870 H   0  0  0  0  0  0  0  0  0  0  0  0
   34.4590   21.8450   39.5120 H   0  0  0  0  0  0  0  0  0  0  0  0
   33.9470   22.8230   38.0640 H   0  0  0  0  0  0  0  0  0  0  0  0
  1  2  1  0  0  0  0
  2  3  2  0  0  0  0
  2  7  1  0  0  0  0
  3  8  1  0  0  0  0
  4  3  1  0  0  0  0
  5  4  2  0  0  0  0
  6  5  1  0  0  0  0
  6  1  2  0  0  0  0
  9 17  1  1  0  0  0
 10  9  1  0  0  0  0
 10 11  1  0  0  0  0
 10  5  1  1  0  0  0
 11 12  1  0  0  0  0
 13 14  1  0  0  0  0
 13 11  1  0  0  0  0
 14 16  1  0  0  0  0
 15 14  1  0  0  0  0
 16  9  1  0  0  0  0
 16 19  1  1  0  0  0
 17 18  1  0  0  0  0
 19 20  1  0  0  0  0
 21  1  1  0  0  0  0
 22 21  2  0  0  0  0
 23 22  1  0  0  0  0
 23 25  1  0  0  0  0
 24 23  1  0  0  0  0
 26 23  1  0  0  0  0
M  END
>  <minimizedAffinity>
-4.85307169

$$$$

 OpenBabel03252506193D

 26 27  0  0  1  0  0  0  0  0999 V2000
   39.5270   26.0730   41.8670 C   0  0  0  0  0  0  0  0  0  0  0  0
   38.8270   24.9310   42.3300 C   0  0  0  0  0  0  0  0  0  0  0  0
   37.4820   24.8260   42.0040 C   0  0  0  0  0  0  0  0  0  0  0  0
   36.9010   25.8120   41.2630 N   0  0  0  0  0  0  0  0  0  0  0  0
   37.6000   26.8940   40.8360 C   0  0  0  0  0  0  0  0  0  0  0  0
   38.9070   27.0000   41.1490 N   0  0  0  0  0  0  0  0  0  0  0  0
   39.3030   24.1620   42.9130 H   0  0  0  0  0  0  0  0  0  0  0  0
   36.8790   23.9780   42.3240 H   0  0  0  0  0  0  0  0  0  0  0  0
   35.7910   28.6100   40.7990 C   0  0  2  0  0  3  0  0  0  0  0  0
   36.8760   27.8970   40.0440 C   0  0  1  0  0  3  0  0  0  0  0  0
   37.8770   28.9540   39.5550 C   0  0  0  0  0  3  0  0  0  0  0  0
   38.0110   29.6830   40.4050 H   0  0  0  0  0  0  0  0  0  0  0  0
   37.1590   29.6380   38.5720 O   0  0  0  0  0  0  0  0  0  0  0  0
   36.3030   30.5060   39.1900 C   0  0  0  0  0  3  0  0  0  0  0  0
   35.6250   30.9010   38.3760 H   0  0  0  0  0  0  0  0  0  0  0  0
   35.5290   30.0010   40.3410 C   0  0  2  0  0  3  0  0  0  0  0  0
   36.1500   28.5340   42.1590 O   0  0  0  0  0  0  0  0  0  0  0  0
   36.8680   29.2140   42.2760 H   0  0  0  0  0  0  0  0  0  0  0  0
   35.7900   30.8440   41.4450 O   0  0  0  0  0  0  0  0  0  0  0  0
   34.9870   31.0960   41.9310 H   0  0  0  0  0  0  0  0  0  0  0  0
   40.9510   26.1930   42.2060 C   0  0  0  0  0  3  0  0  0  0  0  0
   41.4620   25.3250   43.0690 C   0  0  0  0  0  3  0  0  0  0  0  0
   42.9010   25.4000   43.4490 C   0  0  0  0  0  0  0  0  0  0  0  0
   43.5190   24.9530   42.6460 H   0  0  0  0  0  0  0  0  0  0  0  0
   43.2490   26.4650   43.5450 H   0  0  0  0  0  0  0  0  0  0  0  0
   43.1050   24.8510   44.3750 H   0  0  0  0  0  0  0  0  0  0  0  0
  1 21  1  0  0  0  0
  1  2  1  0  0  0  0
  2  7  1  0  0  0  0
  3  8  1  0  0  0  0
  3  2  2  0  0  0  0
  4  3  1  0  0  0  0
  5  6  1  0  0  0  0
  5  4  2  0  0  0  0
  6  1  2  0  0  0  0
  9 17  1  1  0  0  0
 10  9  1  0  0  0  0
 10  5  1  1  0  0  0
 11 10  1  0  0  0  0
 11 12  1  0  0  0  0
 13 14  1  0  0  0  0
 13 11  1  0  0  0  0
 14 16  1  0  0  0  0
 15 14  1  0  0  0  0
 16  9  1  0  0  0  0
 16 19  1  1  0  0  0
 17 18  1  0  0  0  0
 19 20  1  0  0  0  0
 21 22  2  0  0  0  0
 22 23  1  0  0  0  0
 23 25  1  0  0  0  0
 23 26  1  0  0  0  0
 24 23  1  0  0  0  0
M  END
>  <minimizedAffinity>
-4.79936695

$$$$

 OpenBabel03252506193D

 26 27  0  0  1  0  0  0  0  0999 V2000
   38.4940   29.0390   41.5870 C   0  0  0  0  0  0  0  0  0  0  0  0
   37.0910   29.0230   41.7910 C   0  0  0  0  0  0  0  0  0  0  0  0
   36.3540   30.0750   41.2640 C   0  0  0  0  0  0  0  0  0  0  0  0
   37.0010   31.0620   40.5820 N   0  0  0  0  0  0  0  0  0  0  0  0
   38.3470   31.0470   40.4040 C   0  0  0  0  0  0  0  0  0  0  0  0
   39.0670   30.0280   40.9140 N   0  0  0  0  0  0  0  0  0  0  0  0
   36.5980   28.2350   42.3310 H   0  0  0  0  0  0  0  0  0  0  0  0
   35.2730   30.1310   41.3800 H   0  0  0  0  0  0  0  0  0  0  0  0
   39.2740   33.3600   40.4930 C   0  0  2  0  0  3  0  0  0  0  0  0
   38.9420   32.1600   39.6540 C   0  0  1  0  0  3  0  0  0  0  0  0
   40.2430   31.6730   38.9990 C   0  0  0  0  0  3  0  0  0  0  0  0
   41.0430   31.7440   39.7910 H   0  0  0  0  0  0  0  0  0  0  0  0
   40.5280   32.6790   38.0740 O   0  0  0  0  0  0  0  0  0  0  0  0
   41.0750   33.7380   38.7440 C   0  0  0  0  0  3  0  0  0  0  0  0
   41.1210   34.5840   37.9960 H   0  0  0  0  0  0  0  0  0  0  0  0
   40.4270   34.1610   40.0010 C   0  0  2  0  0  3  0  0  0  0  0  0
   39.4550   32.8780   41.8040 O   0  0  0  0  0  0  0  0  0  0  0  0
   40.3580   32.4570   41.8030 H   0  0  0  0  0  0  0  0  0  0  0  0
   41.4010   34.1350   41.0250 O   0  0  0  0  0  0  0  0  0  0  0  0
   41.3850   34.9260   41.5880 H   0  0  0  0  0  0  0  0  0  0  0  0
   39.2840   27.9320   42.1410 C   0  0  0  0  0  3  0  0  0  0  0  0
   38.7290   27.1810   43.0830 C   0  0  0  0  0  3  0  0  0  0  0  0
   39.4850   26.0430   43.6800 C   0  0  0  0  0  0  0  0  0  0  0  0
   39.4590   25.1780   42.9880 H   0  0  0  0  0  0  0  0  0  0  0  0
   40.5720   26.2930   43.8150 H   0  0  0  0  0  0  0  0  0  0  0  0
   39.0490   25.7230   44.6330 H   0  0  0  0  0  0  0  0  0  0  0  0
  1  2  1  0  0  0  0
  1 21  1  0  0  0  0
  2  7  1  0  0  0  0
  3  8  1  0  0  0  0
  3  2  2  0  0  0  0
  4  3  1  0  0  0  0
  5  4  2  0  0  0  0
  5  6  1  0  0  0  0
  6  1  2  0  0  0  0
  9 17  1  1  0  0  0
 10  5  1  1  0  0  0
 10  9  1  0  0  0  0
 11 10  1  0  0  0  0
 11 12  1  0  0  0  0
 13 14  1  0  0  0  0
 13 11  1  0  0  0  0
 14 16  1  0  0  0  0
 15 14  1  0  0  0  0
 16  9  1  0  0  0  0
 16 19  1  1  0  0  0
 18 17  1  0  0  0  0
 19 20  1  0  0  0  0
 21 22  2  0  0  0  0
 22 23  1  0  0  0  0
 23 25  1  0  0  0  0
 23 26  1  0  0  0  0
 24 23  1  0  0  0  0
M  END
>  <minimizedAffinity>
-4.58647585

$$$$
