
 OpenBabel03252507443D

 34 36  0  0  1  0  0  0  0  0999 V2000
   37.1910   29.2760   41.7470 C   0  0  0  0  0  0  0  0  0  0  0  0
   36.0850   28.8220   40.9580 C   0  0  0  0  0  0  0  0  0  0  0  0
   36.2910   29.7720   39.3880 S   0  0  0  0  0  0  0  0  0  0  0  0
   37.8330   30.6130   40.0770 C   0  0  0  0  0  0  0  0  0  0  0  0
   37.9280   30.1620   41.1170 N   0  0  0  0  0  0  0  0  0  0  0  0
   35.3490   28.0940   41.2740 H   0  0  0  0  0  0  0  0  0  0  0  0
   39.6790   30.9090   38.4380 C   0  0  1  0  0  3  0  0  0  0  0  0
   38.6210   31.6180   39.2900 C   0  0  2  0  0  3  0  0  0  0  0  0
   39.3200   32.4890   40.2780 C   0  0  0  0  0  3  0  0  0  0  0  0
   38.8820   33.5140   40.2160 H   0  0  0  0  0  0  0  0  0  0  0  0
   40.6650   32.6660   39.8950 O   0  0  0  0  0  0  0  0  0  0  0  0
   40.7600   33.0880   38.5740 C   0  0  0  0  0  3  0  0  0  0  0  0
   40.0960   33.9670   38.3680 H   0  0  0  0  0  0  0  0  0  0  0  0
   40.4250   31.9460   37.6660 C   0  0  2  0  0  3  0  0  0  0  0  0
   40.4370   30.1310   39.2770 O   0  0  0  0  0  0  0  0  0  0  0  0
   40.5670   29.2050   38.9660 H   0  0  0  0  0  0  0  0  0  0  0  0
   39.5880   32.3530   36.6020 O   0  0  0  0  0  0  0  0  0  0  0  0
   38.9470   31.6300   36.3990 H   0  0  0  0  0  0  0  0  0  0  0  0
   37.4170   28.7610   43.1130 C   0  0  0  0  0  0  0  0  0  0  0  0
   38.4140   29.0770   43.4770 H   0  0  0  0  0  0  0  0  0  0  0  0
   36.6270   29.2420   43.7500 H   0  0  0  0  0  0  0  0  0  0  0  0
   37.2830   27.2940   43.2760 C   0  0  0  0  0  0  0  0  0  0  0  0
   36.6730   26.9280   42.3980 H   0  0  0  0  0  0  0  0  0  0  0  0
   36.7230   26.9930   44.1530 H   0  0  0  0  0  0  0  0  0  0  0  0
   38.5680   26.5540   43.1610 C   0  0  0  0  0  0  0  0  0  0  0  0
   38.5470   25.3400   42.4740 C   0  0  0  0  0  0  0  0  0  0  0  0
   39.7150   24.6180   42.3410 C   0  0  0  0  0  0  0  0  0  0  0  0
   40.8600   25.1280   42.8950 N   0  0  0  0  0  0  0  0  0  0  0  0
   40.8390   26.3090   43.5560 C   0  0  0  0  0  0  0  0  0  0  0  0
   39.7170   26.9970   43.6790 N   0  0  0  0  0  0  0  0  0  0  0  0
   39.7380   23.6770   41.8170 H   0  0  0  0  0  0  0  0  0  0  0  0
   41.7510   26.7120   43.9960 H   0  0  0  0  0  0  0  0  0  0  0  0
   36.9990   24.7390   41.7760 S   0  0  0  0  0  0  0  0  0  0  0  0
   36.6940   23.4650   42.3320 H   0  0  0  0  0  0  0  0  0  0  0  0
  1 19  1  0  0  0  0
  2  6  1  0  0  0  0
  2  1  2  0  0  0  0
  3  4  1  0  0  0  0
  3  2  1  0  0  0  0
  4  5  2  0  0  0  0
  5  1  1  0  0  0  0
  7 15  1  1  0  0  0
  7  8  1  0  0  0  0
  8  4  1  1  0  0  0
  8  9  1  0  0  0  0
 10  9  1  0  0  0  0
 11  9  1  0  0  0  0
 12 11  1  0  0  0  0
 13 12  1  0  0  0  0
 14 17  1  6  0  0  0
 14  7  1  0  0  0  0
 14 12  1  0  0  0  0
 16 15  1  0  0  0  0
 18 17  1  0  0  0  0
 19 22  1  0  0  0  0
 19 20  1  0  0  0  0
 19 21  1  0  0  0  0
 22 24  1  0  0  0  0
 23 22  1  0  0  0  0
 25 22  1  0  0  0  0
 25 30  1  0  0  0  0
 26 25  2  0  0  0  0
 27 26  1  0  0  0  0
 27 28  2  0  0  0  0
 28 29  1  0  0  0  0
 29 30  2  0  0  0  0
 29 32  1  0  0  0  0
 31 27  1  0  0  0  0
 33 34  1  0  0  0  0
 33 26  1  0  0  0  0
M  END
>  <minimizedAffinity>
-5.49384642

$$$$

 OpenBabel03252507443D

 34 36  0  0  1  0  0  0  0  0999 V2000
   37.1220   29.2300   41.7520 C   0  0  0  0  0  0  0  0  0  0  0  0
   35.9370   28.9150   41.0110 C   0  0  0  0  0  0  0  0  0  0  0  0
   36.1250   29.9480   39.4920 S   0  0  0  0  0  0  0  0  0  0  0  0
   37.7700   30.6210   40.1280 C   0  0  0  0  0  0  0  0  0  0  0  0
   37.8900   30.0960   41.1300 N   0  0  0  0  0  0  0  0  0  0  0  0
   35.1650   28.2280   41.3300 H   0  0  0  0  0  0  0  0  0  0  0  0
   39.6180   30.8810   38.4860 C   0  0  1  0  0  3  0  0  0  0  0  0
   38.5880   31.6120   39.3540 C   0  0  2  0  0  3  0  0  0  0  0  0
   39.3200   32.4420   40.3530 C   0  0  0  0  0  3  0  0  0  0  0  0
   38.9160   33.4820   40.3100 H   0  0  0  0  0  0  0  0  0  0  0  0
   40.6680   32.5800   39.9670 O   0  0  0  0  0  0  0  0  0  0  0  0
   40.7720   33.0200   38.6520 C   0  0  0  0  0  3  0  0  0  0  0  0
   40.1380   33.9240   38.4640 H   0  0  0  0  0  0  0  0  0  0  0  0
   40.3960   31.9050   37.7280 C   0  0  2  0  0  3  0  0  0  0  0  0
   40.3520   30.0650   39.3090 O   0  0  0  0  0  0  0  0  0  0  0  0
   40.4500   29.1400   38.9820 H   0  0  0  0  0  0  0  0  0  0  0  0
   39.5680   32.3570   36.6750 O   0  0  0  0  0  0  0  0  0  0  0  0
   38.9020   31.6600   36.4620 H   0  0  0  0  0  0  0  0  0  0  0  0
   37.3890   28.6100   43.0660 C   0  0  0  0  0  0  0  0  0  0  0  0
   37.5080   29.3940   43.8390 H   0  0  0  0  0  0  0  0  0  0  0  0
   36.4740   28.0020   43.3010 H   0  0  0  0  0  0  0  0  0  0  0  0
   38.5530   27.6930   43.1190 C   0  0  0  0  0  0  0  0  0  0  0  0
   38.7120   27.4390   44.2090 H   0  0  0  0  0  0  0  0  0  0  0  0
   39.4850   28.1410   42.7960 H   0  0  0  0  0  0  0  0  0  0  0  0
   38.3160   26.3780   42.4680 C   0  0  0  0  0  0  0  0  0  0  0  0
   39.3890   25.7990   41.7900 C   0  0  0  0  0  0  0  0  0  0  0  0
   39.2180   24.5790   41.1700 C   0  0  0  0  0  0  0  0  0  0  0  0
   37.9880   23.9780   41.2470 N   0  0  0  0  0  0  0  0  0  0  0  0
   36.9720   24.5730   41.9140 C   0  0  0  0  0  0  0  0  0  0  0  0
   37.1420   25.7420   42.5060 N   0  0  0  0  0  0  0  0  0  0  0  0
   40.0230   24.1000   40.6370 H   0  0  0  0  0  0  0  0  0  0  0  0
   35.9940   24.0940   41.9730 H   0  0  0  0  0  0  0  0  0  0  0  0
   40.9740   26.6540   41.7350 S   0  0  0  0  0  0  0  0  0  0  0  0
   41.3350   26.8910   40.3780 H   0  0  0  0  0  0  0  0  0  0  0  0
  1 19  1  0  0  0  0
  2  6  1  0  0  0  0
  2  1  2  0  0  0  0
  3  4  1  0  0  0  0
  3  2  1  0  0  0  0
  4  5  2  0  0  0  0
  5  1  1  0  0  0  0
  7 15  1  1  0  0  0
  7  8  1  0  0  0  0
  8  4  1  1  0  0  0
  8  9  1  0  0  0  0
 10  9  1  0  0  0  0
 11  9  1  0  0  0  0
 12 11  1  0  0  0  0
 13 12  1  0  0  0  0
 14 17  1  6  0  0  0
 14  7  1  0  0  0  0
 14 12  1  0  0  0  0
 16 15  1  0  0  0  0
 18 17  1  0  0  0  0
 19 22  1  0  0  0  0
 19 21  1  0  0  0  0
 19 20  1  0  0  0  0
 22 23  1  0  0  0  0
 24 22  1  0  0  0  0
 25 30  1  0  0  0  0
 25 22  1  0  0  0  0
 26 25  2  0  0  0  0
 27 28  2  0  0  0  0
 27 26  1  0  0  0  0
 28 29  1  0  0  0  0
 29 32  1  0  0  0  0
 29 30  2  0  0  0  0
 31 27  1  0  0  0  0
 33 26  1  0  0  0  0
 34 33  1  0  0  0  0
M  END
>  <minimizedAffinity>
-5.31411982

$$$$

 OpenBabel03252507443D

 34 36  0  0  1  0  0  0  0  0999 V2000
   38.8640   28.3180   43.1900 C   0  0  0  0  0  0  0  0  0  0  0  0
   40.1590   27.7080   43.2550 C   0  0  0  0  0  0  0  0  0  0  0  0
   41.2580   29.0160   42.5540 S   0  0  0  0  0  0  0  0  0  0  0  0
   39.7740   30.1540   42.2990 C   0  0  0  0  0  0  0  0  0  0  0  0
   38.9030   29.5290   42.6840 N   0  0  0  0  0  0  0  0  0  0  0  0
   40.3630   26.7160   43.6360 H   0  0  0  0  0  0  0  0  0  0  0  0
   38.6440   31.8810   40.9140 C   0  0  1  0  0  3  0  0  0  0  0  0
   39.9040   31.5270   41.7110 C   0  0  2  0  0  3  0  0  0  0  0  0
   41.0590   31.4870   40.7700 C   0  0  0  0  0  3  0  0  0  0  0  0
   41.8770   32.1220   41.1880 H   0  0  0  0  0  0  0  0  0  0  0  0
   40.7150   32.1220   39.5600 O   0  0  0  0  0  0  0  0  0  0  0  0
   40.1910   33.3890   39.7880 C   0  0  0  0  0  3  0  0  0  0  0  0
   40.8480   33.9960   40.4640 H   0  0  0  0  0  0  0  0  0  0  0  0
   38.8150   33.2580   40.3620 C   0  0  2  0  0  3  0  0  0  0  0  0
   38.4440   30.8890   39.9880 O   0  0  0  0  0  0  0  0  0  0  0  0
   37.5230   30.5400   39.9590 H   0  0  0  0  0  0  0  0  0  0  0  0
   38.6070   34.1610   41.4300 O   0  0  0  0  0  0  0  0  0  0  0  0
   38.0450   33.7290   42.1170 H   0  0  0  0  0  0  0  0  0  0  0  0
   37.6590   27.6050   43.6620 C   0  0  0  0  0  0  0  0  0  0  0  0
   37.9150   26.9550   44.5210 H   0  0  0  0  0  0  0  0  0  0  0  0
   36.9530   28.4060   44.0080 H   0  0  0  0  0  0  0  0  0  0  0  0
   36.9480   26.8010   42.6390 C   0  0  0  0  0  0  0  0  0  0  0  0
   35.9520   26.5160   43.0910 H   0  0  0  0  0  0  0  0  0  0  0  0
   37.4290   25.8600   42.4000 H   0  0  0  0  0  0  0  0  0  0  0  0
   36.5890   27.5640   41.4140 C   0  0  0  0  0  0  0  0  0  0  0  0
   37.1760   27.1590   40.2150 C   0  0  0  0  0  0  0  0  0  0  0  0
   36.8720   27.8360   39.0520 C   0  0  0  0  0  0  0  0  0  0  0  0
   35.9980   28.8890   39.1220 N   0  0  0  0  0  0  0  0  0  0  0  0
   35.4500   29.2510   40.3060 C   0  0  0  0  0  0  0  0  0  0  0  0
   35.7440   28.5990   41.4170 N   0  0  0  0  0  0  0  0  0  0  0  0
   37.3060   27.5530   38.1070 H   0  0  0  0  0  0  0  0  0  0  0  0
   34.7550   30.0900   40.3600 H   0  0  0  0  0  0  0  0  0  0  0  0
   38.3170   25.7650   40.2080 S   0  0  0  0  0  0  0  0  0  0  0  0
   39.5790   26.1910   39.7050 H   0  0  0  0  0  0  0  0  0  0  0  0
  1  2  2  0  0  0  0
  1 19  1  0  0  0  0
  2  6  1  0  0  0  0
  3  2  1  0  0  0  0
  4  3  1  0  0  0  0
  4  5  2  0  0  0  0
  5  1  1  0  0  0  0
  7 15  1  6  0  0  0
  7  8  1  0  0  0  0
  8  4  1  6  0  0  0
  9 10  1  0  0  0  0
  9  8  1  0  0  0  0
 11 12  1  0  0  0  0
 11  9  1  0  0  0  0
 12 14  1  0  0  0  0
 12 13  1  0  0  0  0
 14  7  1  0  0  0  0
 14 17  1  1  0  0  0
 16 15  1  0  0  0  0
 17 18  1  0  0  0  0
 19 21  1  0  0  0  0
 19 20  1  0  0  0  0
 22 23  1  0  0  0  0
 22 19  1  0  0  0  0
 24 22  1  0  0  0  0
 25 30  1  0  0  0  0
 25 22  1  0  0  0  0
 26 25  2  0  0  0  0
 27 28  2  0  0  0  0
 27 26  1  0  0  0  0
 28 29  1  0  0  0  0
 29 32  1  0  0  0  0
 29 30  2  0  0  0  0
 31 27  1  0  0  0  0
 33 26  1  0  0  0  0
 34 33  1  0  0  0  0
M  END
>  <minimizedAffinity>
-5.29593945

$$$$

 OpenBabel03252507443D

 34 36  0  0  1  0  0  0  0  0999 V2000
   37.1730   28.0090   38.9260 C   0  0  0  0  0  0  0  0  0  0  0  0
   36.5890   28.0950   37.6210 C   0  0  0  0  0  0  0  0  0  0  0  0
   36.8500   29.8690   37.1770 S   0  0  0  0  0  0  0  0  0  0  0  0
   37.7010   30.1780   38.8330 C   0  0  0  0  0  0  0  0  0  0  0  0
   37.6650   29.1570   39.3340 N   0  0  0  0  0  0  0  0  0  0  0  0
   36.1250   27.2750   37.0880 H   0  0  0  0  0  0  0  0  0  0  0  0
   37.9500   31.7950   40.7050 C   0  0  1  0  0  3  0  0  0  0  0  0
   38.2370   31.5230   39.2250 C   0  0  2  0  0  3  0  0  0  0  0  0
   37.5030   32.5340   38.4110 C   0  0  0  0  0  3  0  0  0  0  0  0
   38.2230   33.0000   37.6960 H   0  0  0  0  0  0  0  0  0  0  0  0
   37.0910   33.6030   39.2310 O   0  0  0  0  0  0  0  0  0  0  0  0
   38.1540   34.1090   39.9700 C   0  0  0  0  0  3  0  0  0  0  0  0
   39.0430   34.3310   39.3250 H   0  0  0  0  0  0  0  0  0  0  0  0
   38.5120   33.1340   41.0490 C   0  0  2  0  0  3  0  0  0  0  0  0
   36.6000   31.6470   40.9020 O   0  0  0  0  0  0  0  0  0  0  0  0
   36.3610   31.0840   41.6750 H   0  0  0  0  0  0  0  0  0  0  0  0
   39.9120   32.9780   41.1670 O   0  0  0  0  0  0  0  0  0  0  0  0
   40.1170   32.0370   41.3850 H   0  0  0  0  0  0  0  0  0  0  0  0
   37.1870   26.7350   39.6740 C   0  0  0  0  0  0  0  0  0  0  0  0
   36.4430   26.0360   39.2460 H   0  0  0  0  0  0  0  0  0  0  0  0
   38.2150   26.3110   39.5250 H   0  0  0  0  0  0  0  0  0  0  0  0
   36.9640   26.8470   41.1360 C   0  0  0  0  0  0  0  0  0  0  0  0
   36.0580   26.2130   41.3710 H   0  0  0  0  0  0  0  0  0  0  0  0
   36.7050   27.8440   41.4710 H   0  0  0  0  0  0  0  0  0  0  0  0
   38.0500   26.2520   41.9590 C   0  0  0  0  0  0  0  0  0  0  0  0
   38.6750   27.0840   42.8880 C   0  0  0  0  0  0  0  0  0  0  0  0
   39.6870   26.5770   43.6760 C   0  0  0  0  0  0  0  0  0  0  0  0
   40.0430   25.2640   43.5110 N   0  0  0  0  0  0  0  0  0  0  0  0
   39.4120   24.4890   42.5970 C   0  0  0  0  0  0  0  0  0  0  0  0
   38.4430   24.9800   41.8460 N   0  0  0  0  0  0  0  0  0  0  0  0
   40.1940   27.1890   44.4050 H   0  0  0  0  0  0  0  0  0  0  0  0
   39.6970   23.4450   42.4680 H   0  0  0  0  0  0  0  0  0  0  0  0
   38.1490   28.8010   43.0420 S   0  0  0  0  0  0  0  0  0  0  0  0
   39.2570   29.6570   42.7900 H   0  0  0  0  0  0  0  0  0  0  0  0
  1  5  1  0  0  0  0
  1 19  1  0  0  0  0
  2  1  2  0  0  0  0
  3  2  1  0  0  0  0
  3  4  1  0  0  0  0
  4  5  2  0  0  0  0
  6  2  1  0  0  0  0
  7 15  1  6  0  0  0
  7 14  1  0  0  0  0
  8  4  1  6  0  0  0
  8  7  1  0  0  0  0
  9  8  1  0  0  0  0
  9 11  1  0  0  0  0
 10  9  1  0  0  0  0
 11 12  1  0  0  0  0
 12 14  1  0  0  0  0
 13 12  1  0  0  0  0
 14 17  1  6  0  0  0
 15 16  1  0  0  0  0
 17 18  1  0  0  0  0
 19 22  1  0  0  0  0
 20 19  1  0  0  0  0
 21 19  1  0  0  0  0
 22 23  1  0  0  0  0
 22 24  1  0  0  0  0
 22 25  1  0  0  0  0
 25 26  1  0  0  0  0
 26 33  1  0  0  0  0
 26 27  2  0  0  0  0
 27 31  1  0  0  0  0
 28 27  1  0  0  0  0
 29 28  2  0  0  0  0
 30 25  2  0  0  0  0
 30 29  1  0  0  0  0
 32 29  1  0  0  0  0
 34 33  1  0  0  0  0
M  END
>  <minimizedAffinity>
-5.18391323

$$$$

 OpenBabel03252507443D

 34 36  0  0  1  0  0  0  0  0999 V2000
   36.7180   27.4640   39.4090 C   0  0  0  0  0  0  0  0  0  0  0  0
   35.8000   27.3050   38.3200 C   0  0  0  0  0  0  0  0  0  0  0  0
   36.0520   28.8560   37.3490 S   0  0  0  0  0  0  0  0  0  0  0  0
   37.3510   29.4420   38.5870 C   0  0  0  0  0  0  0  0  0  0  0  0
   37.3840   28.5940   39.3450 N   0  0  0  0  0  0  0  0  0  0  0  0
   35.1490   26.4530   38.1700 H   0  0  0  0  0  0  0  0  0  0  0  0
   39.5090   30.5140   37.9720 C   0  0  1  0  0  3  0  0  0  0  0  0
   38.0690   30.7510   38.4410 C   0  0  2  0  0  3  0  0  0  0  0  0
   38.1130   31.3730   39.7950 C   0  0  0  0  0  3  0  0  0  0  0  0
   37.4690   32.2850   39.7840 H   0  0  0  0  0  0  0  0  0  0  0  0
   39.4060   31.8690   40.0540 O   0  0  0  0  0  0  0  0  0  0  0  0
   39.8480   32.6870   39.0200 C   0  0  0  0  0  3  0  0  0  0  0  0
   39.0920   33.4710   38.7570 H   0  0  0  0  0  0  0  0  0  0  0  0
   40.1750   31.8420   37.8290 C   0  0  2  0  0  3  0  0  0  0  0  0
   40.0970   29.6450   38.8560 O   0  0  0  0  0  0  0  0  0  0  0  0
   40.5710   28.8920   38.4310 H   0  0  0  0  0  0  0  0  0  0  0  0
   39.6940   32.4200   36.6320 O   0  0  0  0  0  0  0  0  0  0  0  0
   39.3840   31.7040   36.0270 H   0  0  0  0  0  0  0  0  0  0  0  0
   36.8490   26.4280   40.4540 C   0  0  0  0  0  0  0  0  0  0  0  0
   35.9740   25.7500   40.4290 H   0  0  0  0  0  0  0  0  0  0  0  0
   37.7700   25.8460   40.1850 H   0  0  0  0  0  0  0  0  0  0  0  0
   37.0330   26.9320   41.8370 C   0  0  0  0  0  0  0  0  0  0  0  0
   36.2160   26.4620   42.4610 H   0  0  0  0  0  0  0  0  0  0  0  0
   36.8900   28.0000   41.9430 H   0  0  0  0  0  0  0  0  0  0  0  0
   38.2930   26.4760   42.4810 C   0  0  0  0  0  0  0  0  0  0  0  0
   39.1350   27.4590   43.0030 C   0  0  0  0  0  0  0  0  0  0  0  0
   40.3150   27.0850   43.6120 C   0  0  0  0  0  0  0  0  0  0  0  0
   40.6160   25.7500   43.6800 N   0  0  0  0  0  0  0  0  0  0  0  0
   39.7730   24.8260   43.1600 C   0  0  0  0  0  0  0  0  0  0  0  0
   38.6440   25.1900   42.5790 N   0  0  0  0  0  0  0  0  0  0  0  0
   40.9910   27.8150   44.0260 H   0  0  0  0  0  0  0  0  0  0  0  0
   40.0150   23.7650   43.2150 H   0  0  0  0  0  0  0  0  0  0  0  0
   38.6670   29.1940   42.8720 S   0  0  0  0  0  0  0  0  0  0  0  0
   39.6750   29.9010   42.1580 H   0  0  0  0  0  0  0  0  0  0  0  0
  1 19  1  0  0  0  0
  2  1  2  0  0  0  0
  3  2  1  0  0  0  0
  3  4  1  0  0  0  0
  4  5  2  0  0  0  0
  5  1  1  0  0  0  0
  6  2  1  0  0  0  0
  7  8  1  0  0  0  0
  7 15  1  1  0  0  0
  8  4  1  1  0  0  0
  8  9  1  0  0  0  0
  9 11  1  0  0  0  0
 10  9  1  0  0  0  0
 12 11  1  0  0  0  0
 13 12  1  0  0  0  0
 14 17  1  6  0  0  0
 14  7  1  0  0  0  0
 14 12  1  0  0  0  0
 16 15  1  0  0  0  0
 18 17  1  0  0  0  0
 19 22  1  0  0  0  0
 20 19  1  0  0  0  0
 21 19  1  0  0  0  0
 22 24  1  0  0  0  0
 22 23  1  0  0  0  0
 22 25  1  0  0  0  0
 25 30  2  0  0  0  0
 25 26  1  0  0  0  0
 26 27  2  0  0  0  0
 27 28  1  0  0  0  0
 27 31  1  0  0  0  0
 29 32  1  0  0  0  0
 29 28  2  0  0  0  0
 30 29  1  0  0  0  0
 33 26  1  0  0  0  0
 34 33  1  0  0  0  0
M  END
>  <minimizedAffinity>
-5.16247416

$$$$

 OpenBabel03252507443D

 34 36  0  0  1  0  0  0  0  0999 V2000
   37.7230   29.3750   41.6710 C   0  0  0  0  0  0  0  0  0  0  0  0
   38.4940   29.5530   42.8650 C   0  0  0  0  0  0  0  0  0  0  0  0
   39.7090   30.8530   42.3720 S   0  0  0  0  0  0  0  0  0  0  0  0
   38.9580   30.9260   40.6410 C   0  0  0  0  0  0  0  0  0  0  0  0
   38.1230   30.1550   40.6920 N   0  0  0  0  0  0  0  0  0  0  0  0
   38.3420   29.0170   43.7930 H   0  0  0  0  0  0  0  0  0  0  0  0
   40.1390   31.0380   38.4570 C   0  0  1  0  0  3  0  0  0  0  0  0
   39.4760   31.8470   39.5770 C   0  0  2  0  0  3  0  0  0  0  0  0
   40.5150   32.7050   40.2160 C   0  0  0  0  0  3  0  0  0  0  0  0
   40.1330   33.7540   40.2490 H   0  0  0  0  0  0  0  0  0  0  0  0
   41.6520   32.7790   39.3870 O   0  0  0  0  0  0  0  0  0  0  0  0
   41.3080   33.1450   38.0910 C   0  0  0  0  0  3  0  0  0  0  0  0
   40.6580   34.0580   38.0750 H   0  0  0  0  0  0  0  0  0  0  0  0
   40.6250   31.9950   37.4190 C   0  0  2  0  0  3  0  0  0  0  0  0
   41.1000   30.2440   39.0290 O   0  0  0  0  0  0  0  0  0  0  0  0
   41.0690   29.3010   38.7460 H   0  0  0  0  0  0  0  0  0  0  0  0
   39.4930   32.4180   36.6840 O   0  0  0  0  0  0  0  0  0  0  0  0
   38.7860   31.7320   36.7530 H   0  0  0  0  0  0  0  0  0  0  0  0
   36.6110   28.4040   41.6170 C   0  0  0  0  0  0  0  0  0  0  0  0
   36.5930   27.7960   42.5430 H   0  0  0  0  0  0  0  0  0  0  0  0
   35.6750   29.0220   41.5690 H   0  0  0  0  0  0  0  0  0  0  0  0
   36.6040   27.4990   40.4420 C   0  0  0  0  0  0  0  0  0  0  0  0
   37.4430   27.8440   39.7670 H   0  0  0  0  0  0  0  0  0  0  0  0
   35.7090   27.5650   39.8360 H   0  0  0  0  0  0  0  0  0  0  0  0
   36.9510   26.0900   40.7640 C   0  0  0  0  0  0  0  0  0  0  0  0
   36.6900   25.1290   39.7860 C   0  0  0  0  0  0  0  0  0  0  0  0
   36.9950   23.8080   40.0380 C   0  0  0  0  0  0  0  0  0  0  0  0
   37.5470   23.4890   41.2510 N   0  0  0  0  0  0  0  0  0  0  0  0
   37.7830   24.4500   42.1750 C   0  0  0  0  0  0  0  0  0  0  0  0
   37.4900   25.7140   41.9270 N   0  0  0  0  0  0  0  0  0  0  0  0
   36.8090   23.0380   39.3080 H   0  0  0  0  0  0  0  0  0  0  0  0
   38.2220   24.1940   43.1390 H   0  0  0  0  0  0  0  0  0  0  0  0
   35.9610   25.6310   38.2160 S   0  0  0  0  0  0  0  0  0  0  0  0
   34.7320   24.9400   38.0250 H   0  0  0  0  0  0  0  0  0  0  0  0
  1  2  2  0  0  0  0
  2  6  1  0  0  0  0
  3  2  1  0  0  0  0
  4  5  2  0  0  0  0
  4  3  1  0  0  0  0
  5  1  1  0  0  0  0
  7 15  1  1  0  0  0
  7  8  1  0  0  0  0
  8  9  1  0  0  0  0
  8  4  1  1  0  0  0
  9 10  1  0  0  0  0
 11  9  1  0  0  0  0
 12 11  1  0  0  0  0
 13 12  1  0  0  0  0
 14 17  1  1  0  0  0
 14 12  1  0  0  0  0
 14  7  1  0  0  0  0
 16 15  1  0  0  0  0
 17 18  1  0  0  0  0
 19  1  1  0  0  0  0
 19 20  1  0  0  0  0
 21 19  1  0  0  0  0
 22 25  1  0  0  0  0
 22 19  1  0  0  0  0
 23 22  1  0  0  0  0
 24 22  1  0  0  0  0
 25 30  1  0  0  0  0
 26 27  1  0  0  0  0
 26 25  2  0  0  0  0
 27 28  2  0  0  0  0
 28 29  1  0  0  0  0
 29 32  1  0  0  0  0
 30 29  2  0  0  0  0
 31 27  1  0  0  0  0
 33 26  1  0  0  0  0
 34 33  1  0  0  0  0
M  END
>  <minimizedAffinity>
-5.15275669

$$$$

 OpenBabel03252507443D

 34 36  0  0  1  0  0  0  0  0999 V2000
   38.9430   28.5520   43.0360 C   0  0  0  0  0  0  0  0  0  0  0  0
   40.2660   28.0200   42.8960 C   0  0  0  0  0  0  0  0  0  0  0  0
   41.1650   29.3920   42.0480 S   0  0  0  0  0  0  0  0  0  0  0  0
   39.5950   30.4390   42.0340 C   0  0  0  0  0  0  0  0  0  0  0  0
   38.8320   29.7640   42.5420 N   0  0  0  0  0  0  0  0  0  0  0  0
   40.5850   27.0420   43.2310 H   0  0  0  0  0  0  0  0  0  0  0  0
   38.5590   31.8640   40.2800 C   0  0  1  0  0  3  0  0  0  0  0  0
   39.5520   31.8190   41.4470 C   0  0  2  0  0  3  0  0  0  0  0  0
   40.9150   32.1050   40.9160 C   0  0  0  0  0  3  0  0  0  0  0  0
   41.3710   32.9140   41.5350 H   0  0  0  0  0  0  0  0  0  0  0  0
   40.8200   32.6690   39.6280 O   0  0  0  0  0  0  0  0  0  0  0  0
   39.9490   33.7530   39.6170 C   0  0  0  0  0  3  0  0  0  0  0  0
   40.1840   34.4850   40.4320 H   0  0  0  0  0  0  0  0  0  0  0  0
   38.5420   33.2560   39.7400 C   0  0  2  0  0  3  0  0  0  0  0  0
   38.9180   30.8840   39.3890 O   0  0  0  0  0  0  0  0  0  0  0  0
   38.1730   30.3120   39.0930 H   0  0  0  0  0  0  0  0  0  0  0  0
   37.7880   34.0410   40.6420 O   0  0  0  0  0  0  0  0  0  0  0  0
   37.1670   33.4570   41.1400 H   0  0  0  0  0  0  0  0  0  0  0  0
   37.8690   27.7670   43.6800 C   0  0  0  0  0  0  0  0  0  0  0  0
   38.2710   26.8020   44.0450 H   0  0  0  0  0  0  0  0  0  0  0  0
   37.5360   28.3800   44.5590 H   0  0  0  0  0  0  0  0  0  0  0  0
   36.6730   27.5100   42.8430 C   0  0  0  0  0  0  0  0  0  0  0  0
   36.2890   28.5200   42.5110 H   0  0  0  0  0  0  0  0  0  0  0  0
   35.8470   27.0560   43.3760 H   0  0  0  0  0  0  0  0  0  0  0  0
   36.9680   26.7960   41.5720 C   0  0  0  0  0  0  0  0  0  0  0  0
   36.5970   27.4270   40.3840 C   0  0  0  0  0  0  0  0  0  0  0  0
   36.8510   26.8040   39.1800 C   0  0  0  0  0  0  0  0  0  0  0  0
   37.4630   25.5790   39.1990 N   0  0  0  0  0  0  0  0  0  0  0  0
   37.8070   24.9990   40.3730 C   0  0  0  0  0  0  0  0  0  0  0  0
   37.5620   25.6000   41.5240 N   0  0  0  0  0  0  0  0  0  0  0  0
   36.5790   27.2600   38.2420 H   0  0  0  0  0  0  0  0  0  0  0  0
   38.2940   24.0230   40.3860 H   0  0  0  0  0  0  0  0  0  0  0  0
   35.7940   29.0390   40.4450 S   0  0  0  0  0  0  0  0  0  0  0  0
   34.5210   28.9560   39.8130 H   0  0  0  0  0  0  0  0  0  0  0  0
  1 19  1  0  0  0  0
  2  1  2  0  0  0  0
  2  6  1  0  0  0  0
  3  2  1  0  0  0  0
  4  3  1  0  0  0  0
  4  5  2  0  0  0  0
  5  1  1  0  0  0  0
  7 15  1  6  0  0  0
  7  8  1  0  0  0  0
  8  4  1  6  0  0  0
  9  8  1  0  0  0  0
  9 10  1  0  0  0  0
 11  9  1  0  0  0  0
 12 11  1  0  0  0  0
 12 14  1  0  0  0  0
 12 13  1  0  0  0  0
 14  7  1  0  0  0  0
 14 17  1  1  0  0  0
 16 15  1  0  0  0  0
 17 18  1  0  0  0  0
 19 20  1  0  0  0  0
 19 21  1  0  0  0  0
 22 24  1  0  0  0  0
 22 19  1  0  0  0  0
 23 22  1  0  0  0  0
 25 22  1  0  0  0  0
 26 33  1  0  0  0  0
 26 25  2  0  0  0  0
 27 28  2  0  0  0  0
 27 26  1  0  0  0  0
 28 29  1  0  0  0  0
 29 32  1  0  0  0  0
 29 30  2  0  0  0  0
 30 25  1  0  0  0  0
 31 27  1  0  0  0  0
 34 33  1  0  0  0  0
M  END
>  <minimizedAffinity>
-5.09516907

$$$$

 OpenBabel03252507443D

 34 36  0  0  1  0  0  0  0  0999 V2000
   33.9340   28.9850   36.4770 C   0  0  0  0  0  0  0  0  0  0  0  0
   34.8170   29.1830   35.3660 C   0  0  0  0  0  0  0  0  0  0  0  0
   36.4470   29.4530   36.1900 S   0  0  0  0  0  0  0  0  0  0  0  0
   35.6460   29.2500   37.8870 C   0  0  0  0  0  0  0  0  0  0  0  0
   34.5540   29.0590   37.6330 N   0  0  0  0  0  0  0  0  0  0  0  0
   34.5240   29.1650   34.3250 H   0  0  0  0  0  0  0  0  0  0  0  0
   35.6420   28.7110   40.3130 C   0  0  1  0  0  3  0  0  0  0  0  0
   36.4270   29.3500   39.1630 C   0  0  2  0  0  3  0  0  0  0  0  0
   36.5920   30.8020   39.4560 C   0  0  0  0  0  3  0  0  0  0  0  0
   37.6720   31.0630   39.3490 H   0  0  0  0  0  0  0  0  0  0  0  0
   36.3110   31.0530   40.8140 O   0  0  0  0  0  0  0  0  0  0  0  0
   37.0350   30.2030   41.6430 C   0  0  0  0  0  3  0  0  0  0  0  0
   38.1260   30.2000   41.3850 H   0  0  0  0  0  0  0  0  0  0  0  0
   36.4640   28.8230   41.5550 C   0  0  2  0  0  3  0  0  0  0  0  0
   34.4090   29.3100   40.3600 O   0  0  0  0  0  0  0  0  0  0  0  0
   33.6530   28.6800   40.4150 H   0  0  0  0  0  0  0  0  0  0  0  0
   37.4790   27.8420   41.4690 O   0  0  0  0  0  0  0  0  0  0  0  0
   37.1810   27.1170   40.8690 H   0  0  0  0  0  0  0  0  0  0  0  0
   32.4930   28.7290   36.2710 C   0  0  0  0  0  0  0  0  0  0  0  0
   32.2660   28.6850   35.1880 H   0  0  0  0  0  0  0  0  0  0  0  0
   32.3010   27.7200   36.7250 H   0  0  0  0  0  0  0  0  0  0  0  0
   31.5700   29.6890   36.9230 C   0  0  0  0  0  0  0  0  0  0  0  0
   32.1960   30.2980   37.6410 H   0  0  0  0  0  0  0  0  0  0  0  0
   30.8070   29.2250   37.5360 H   0  0  0  0  0  0  0  0  0  0  0  0
   30.9950   30.6970   35.9940 C   0  0  0  0  0  0  0  0  0  0  0  0
   29.9500   31.4860   36.4760 C   0  0  0  0  0  0  0  0  0  0  0  0
   29.3850   32.4370   35.6510 C   0  0  0  0  0  0  0  0  0  0  0  0
   29.8760   32.5680   34.3790 N   0  0  0  0  0  0  0  0  0  0  0  0
   30.8910   31.7820   33.9480 C   0  0  0  0  0  0  0  0  0  0  0  0
   31.4290   30.8740   34.7430 N   0  0  0  0  0  0  0  0  0  0  0  0
   28.5760   33.0650   35.9880 H   0  0  0  0  0  0  0  0  0  0  0  0
   31.2800   31.8880   32.9350 H   0  0  0  0  0  0  0  0  0  0  0  0
   29.3610   31.2500   38.1630 S   0  0  0  0  0  0  0  0  0  0  0  0
   27.9770   30.9190   38.1360 H   0  0  0  0  0  0  0  0  0  0  0  0
  1  5  1  0  0  0  0
  2  3  1  0  0  0  0
  2  1  2  0  0  0  0
  3  4  1  0  0  0  0
  5  4  2  0  0  0  0
  6  2  1  0  0  0  0
  7 15  1  1  0  0  0
  7 14  1  0  0  0  0
  8  4  1  6  0  0  0
  8  9  1  0  0  0  0
  8  7  1  0  0  0  0
  9 11  1  0  0  0  0
 10  9  1  0  0  0  0
 11 12  1  0  0  0  0
 13 12  1  0  0  0  0
 14 17  1  6  0  0  0
 14 12  1  0  0  0  0
 15 16  1  0  0  0  0
 18 17  1  0  0  0  0
 19  1  1  0  0  0  0
 19 21  1  0  0  0  0
 19 22  1  0  0  0  0
 20 19  1  0  0  0  0
 22 24  1  0  0  0  0
 22 23  1  0  0  0  0
 25 26  1  0  0  0  0
 25 22  1  0  0  0  0
 26 33  1  0  0  0  0
 27 31  1  0  0  0  0
 27 26  2  0  0  0  0
 28 27  1  0  0  0  0
 29 28  2  0  0  0  0
 29 30  1  0  0  0  0
 30 25  2  0  0  0  0
 32 29  1  0  0  0  0
 34 33  1  0  0  0  0
M  END
>  <minimizedAffinity>
-5.02366447

$$$$

 OpenBabel03252507443D

 34 36  0  0  1  0  0  0  0  0999 V2000
   37.6060   30.1510   39.2290 C   0  0  0  0  0  0  0  0  0  0  0  0
   37.9550   29.3020   38.1280 C   0  0  0  0  0  0  0  0  0  0  0  0
   39.6840   29.8250   37.7470 S   0  0  0  0  0  0  0  0  0  0  0  0
   39.6280   31.0960   39.1420 C   0  0  0  0  0  0  0  0  0  0  0  0
   38.5820   30.9620   39.5680 N   0  0  0  0  0  0  0  0  0  0  0  0
   37.3070   28.5590   37.6830 H   0  0  0  0  0  0  0  0  0  0  0  0
   40.2980   33.2650   40.1540 C   0  0  1  0  0  3  0  0  0  0  0  0
   40.7900   31.9880   39.4660 C   0  0  2  0  0  3  0  0  0  0  0  0
   41.4190   32.3650   38.1680 C   0  0  0  0  0  3  0  0  0  0  0  0
   42.4290   31.8910   38.1160 H   0  0  0  0  0  0  0  0  0  0  0  0
   41.6880   33.7480   38.1500 O   0  0  0  0  0  0  0  0  0  0  0  0
   42.3980   34.1390   39.2800 C   0  0  0  0  0  3  0  0  0  0  0  0
   43.2960   33.4920   39.4520 H   0  0  0  0  0  0  0  0  0  0  0  0
   41.4880   34.1110   40.4680 C   0  0  2  0  0  3  0  0  0  0  0  0
   39.3560   33.8410   39.3400 O   0  0  0  0  0  0  0  0  0  0  0  0
   38.5250   34.1020   39.8010 H   0  0  0  0  0  0  0  0  0  0  0  0
   42.1190   33.5360   41.5950 O   0  0  0  0  0  0  0  0  0  0  0  0
   41.4570   33.0120   42.1060 H   0  0  0  0  0  0  0  0  0  0  0  0
   36.2750   30.0670   39.8660 C   0  0  0  0  0  0  0  0  0  0  0  0
   36.1720   30.8600   40.6330 H   0  0  0  0  0  0  0  0  0  0  0  0
   35.5360   30.2570   39.0420 H   0  0  0  0  0  0  0  0  0  0  0  0
   35.9340   28.7580   40.4710 C   0  0  0  0  0  0  0  0  0  0  0  0
   36.1250   27.9770   39.6760 H   0  0  0  0  0  0  0  0  0  0  0  0
   34.8880   28.6460   40.7300 H   0  0  0  0  0  0  0  0  0  0  0  0
   36.8250   28.3610   41.5940 C   0  0  0  0  0  0  0  0  0  0  0  0
   37.3560   27.0710   41.5630 C   0  0  0  0  0  0  0  0  0  0  0  0
   38.1890   26.6590   42.5820 C   0  0  0  0  0  0  0  0  0  0  0  0
   38.4640   27.5410   43.5940 N   0  0  0  0  0  0  0  0  0  0  0  0
   37.9280   28.7840   43.5880 C   0  0  0  0  0  0  0  0  0  0  0  0
   37.1310   29.1740   42.6090 N   0  0  0  0  0  0  0  0  0  0  0  0
   38.6190   25.6700   42.5930 H   0  0  0  0  0  0  0  0  0  0  0  0
   38.1470   29.4840   44.3950 H   0  0  0  0  0  0  0  0  0  0  0  0
   36.9450   25.9720   40.1960 S   0  0  0  0  0  0  0  0  0  0  0  0
   36.3250   24.7960   40.7070 H   0  0  0  0  0  0  0  0  0  0  0  0
  1  5  1  0  0  0  0
  1 19  1  0  0  0  0
  2  1  2  0  0  0  0
  3  2  1  0  0  0  0
  3  4  1  0  0  0  0
  4  5  2  0  0  0  0
  6  2  1  0  0  0  0
  7 15  1  6  0  0  0
  7 14  1  0  0  0  0
  8  4  1  6  0  0  0
  8  7  1  0  0  0  0
  9  8  1  0  0  0  0
 10  9  1  0  0  0  0
 11  9  1  0  0  0  0
 11 12  1  0  0  0  0
 12 13  1  0  0  0  0
 12 14  1  0  0  0  0
 14 17  1  1  0  0  0
 15 16  1  0  0  0  0
 17 18  1  0  0  0  0
 19 22  1  0  0  0  0
 19 20  1  0  0  0  0
 21 19  1  0  0  0  0
 22 24  1  0  0  0  0
 22 25  1  0  0  0  0
 23 22  1  0  0  0  0
 25 30  1  0  0  0  0
 26 25  2  0  0  0  0
 26 27  1  0  0  0  0
 27 31  1  0  0  0  0
 27 28  2  0  0  0  0
 29 28  1  0  0  0  0
 29 32  1  0  0  0  0
 30 29  2  0  0  0  0
 33 34  1  0  0  0  0
 33 26  1  0  0  0  0
M  END
>  <minimizedAffinity>
-4.94099188

$$$$
