
 OpenBabel03242523463D

 22 23  0  0  1  0  0  0  0  0999 V2000
   48.5140   33.7160   42.2960 C   0  0  1  0  0  3  0  0  0  0  0  0
   47.3460   32.8210   42.5660 C   0  0  2  0  0  3  0  0  0  0  0  0
   46.4060   32.6880   41.3810 C   0  0  0  0  0  3  0  0  0  0  0  0
   46.0390   31.6390   41.3820 H   0  0  0  0  0  0  0  0  0  0  0  0
   47.0390   32.8720   40.1660 O   0  0  0  0  0  0  0  0  0  0  0  0
   47.5470   34.1570   40.0070 C   0  0  0  0  0  3  0  0  0  0  0  0
   48.3550   34.0970   39.2440 H   0  0  0  0  0  0  0  0  0  0  0  0
   48.1230   34.7380   41.2570 C   0  0  2  0  0  3  0  0  0  0  0  0
   44.7940   34.8930   44.4090 C   0  0  0  0  0  0  0  0  0  0  0  0
   45.5230   34.3530   43.3360 C   0  0  0  0  0  0  0  0  0  0  0  0
   46.5440   33.4240   43.6560 C   0  0  0  0  0  0  0  0  0  0  0  0
   46.7580   33.1120   44.9560 N   0  0  0  0  0  0  0  0  0  0  0  0
   46.0320   33.6580   45.9490 C   0  0  0  0  0  0  0  0  0  0  0  0
   45.0580   34.5390   45.6840 N   0  0  0  0  0  0  0  0  0  0  0  0
   45.3300   34.6200   42.3070 H   0  0  0  0  0  0  0  0  0  0  0  0
   46.1750   33.4310   47.0060 H   0  0  0  0  0  0  0  0  0  0  0  0
   43.8070   35.7910   44.1050 O   0  0  0  0  0  0  0  0  0  0  0  0
   44.0730   36.7440   43.8890 H   0  0  0  0  0  0  0  0  0  0  0  0
   48.7970   34.4410   43.4750 O   0  0  0  0  0  0  0  0  0  0  0  0
   49.6810   34.8380   43.4900 H   0  0  0  0  0  0  0  0  0  0  0  0
   49.2650   35.4750   40.9440 O   0  0  0  0  0  0  0  0  0  0  0  0
   49.7530   35.8250   41.7040 H   0  0  0  0  0  0  0  0  0  0  0  0
  1  2  1  0  0  0  0
  1 19  1  1  0  0  0
  2 11  1  1  0  0  0
  3  4  1  0  0  0  0
  3  2  1  0  0  0  0
  5  3  1  0  0  0  0
  6  5  1  0  0  0  0
  6  8  1  0  0  0  0
  7  6  1  0  0  0  0
  8 21  1  6  0  0  0
  8  1  1  0  0  0  0
  9 14  1  0  0  0  0
 10 11  1  0  0  0  0
 10  9  2  0  0  0  0
 11 12  2  0  0  0  0
 12 13  1  0  0  0  0
 13 16  1  0  0  0  0
 14 13  2  0  0  0  0
 15 10  1  0  0  0  0
 17  9  1  0  0  0  0
 18 17  1  0  0  0  0
 19 20  1  0  0  0  0
 21 22  1  0  0  0  0
M  END
>  <minimizedAffinity>
-5.03266954

>  <minimizedRMSD>
1.28166091

$$$$
