
     RDKit          3D

 27 28  0  0  0  0  0  0  0  0999 V2000
   45.5319   34.7114   44.2320 C   0  0  0  0  0  0  0  0  0  0  0  0
   46.5809   33.9061   43.7469 C   0  0  0  0  0  0  0  0  0  0  0  0
   47.1166   32.9262   44.5982 C   0  0  0  0  0  0  0  0  0  0  0  0
   46.5888   32.8122   45.8454 N   0  0  0  0  0  0  0  0  0  0  0  0
   45.5869   33.6005   46.2713 C   0  0  0  0  0  0  0  0  0  0  0  0
   45.0497   34.5474   45.4871 N   0  0  0  0  0  0  0  0  0  0  0  0
   44.9151   35.9343   43.0691 S   0  0  0  0  0  0  0  0  0  0  0  0
   46.9716   34.0270   42.7535 H   0  0  0  0  0  0  0  0  0  0  0  0
   47.9245   32.2873   44.2609 H   0  0  0  0  0  0  0  0  0  0  0  0
   45.7068   37.0842   43.1279 H   0  0  0  0  0  0  0  0  0  0  0  0
   45.2357   31.0784   47.3844 O   0  0  0  0  0  0  0  0  0  0  0  0
   45.5786   32.1127   48.2575 C   0  0  1  0  0  0  0  0  0  0  0  0
   45.0732   33.4140   47.6313 C   0  0  1  0  0  0  0  0  0  0  0  0
   45.4765   34.4928   48.6113 C   0  0  2  0  0  0  0  0  0  0  0  0
   45.3803   35.5035   48.2120 H   0  0  0  0  0  0  0  0  0  0  0  0
   44.6526   34.3663   49.6993 O   0  0  0  0  0  0  0  0  0  0  0  0
   44.7319   33.1849   50.3747 C   0  0  1  0  0  0  0  0  0  0  0  0
   45.5228   33.1810   51.1768 H   0  0  0  0  0  0  0  0  0  0  0  0
   44.8509   31.9464   49.5604 C   0  0  1  0  0  0  0  0  0  0  0  0
   43.6071   31.3667   49.2867 O   0  0  0  0  0  0  0  0  0  0  0  0
   45.5817   30.2148   47.7101 H   0  0  0  0  0  0  0  0  0  0  0  0
   46.6583   32.2323   48.3976 H   0  0  0  0  0  0  0  0  0  0  0  0
   43.9449   33.4218   47.6248 H   0  0  0  0  0  0  0  0  0  0  0  0
   46.5501   34.3191   48.8377 H   0  0  0  0  0  0  0  0  0  0  0  0
   43.7662   33.0965   50.9507 H   0  0  0  0  0  0  0  0  0  0  0  0
   45.4266   31.1814   50.1352 H   0  0  0  0  0  0  0  0  0  0  0  0
   43.0524   31.9722   48.7573 H   0  0  0  0  0  0  0  0  0  0  0  0
  1  6  2  0
  2  1  1  0
  2  3  2  0
  3  4  1  0
  4  5  2  0
  6  5  1  0
  7  1  1  0
  2  8  1  0
  3  9  1  0
  7 10  1  0
 11 12  1  0
 12 13  1  0
 13 14  1  0
 14 15  1  6
 14 16  1  0
 16 17  1  0
 17 18  1  1
 17 19  1  0
 19 20  1  0
 19 12  1  0
 11 21  1  0
 12 22  1  1
 13 23  1  6
 14 24  1  0
 17 25  1  0
 19 26  1  1
 20 27  1  0
  5 13  1  0
M  ISO  5   8  14   9  14  10  11  15   8  18   8
M  END
>  <DihAtoms>  (1) 
3,4,12,11

>  <DihDeg>  (1) 
122.38469572383744

$$$$
