
     RDKit          3D

 27 28  0  0  0  0  0  0  0  0999 V2000
   44.5381   36.0313   44.5308 C   0  0  0  0  0  0  0  0  0  0  0  0
   45.2653   35.8886   43.3162 C   0  0  0  0  0  0  0  0  0  0  0  0
   46.1333   34.7960   43.1999 C   0  0  0  0  0  0  0  0  0  0  0  0
   46.2343   33.9331   44.2501 N   0  0  0  0  0  0  0  0  0  0  0  0
   45.5211   34.1047   45.3954 C   0  0  0  0  0  0  0  0  0  0  0  0
   44.6864   35.1359   45.5356 N   0  0  0  0  0  0  0  0  0  0  0  0
   47.0725   34.5634   41.7010 S   0  0  0  0  0  0  0  0  0  0  0  0
   43.8722   36.8792   44.6060 H   0  0  0  0  0  0  0  0  0  0  0  0
   45.1373   36.6121   42.5202 H   0  0  0  0  0  0  0  0  0  0  0  0
   47.5826   35.8053   41.2858 H   0  0  0  0  0  0  0  0  0  0  0  0
   48.0308   33.2129   45.8337 O   0  0  0  0  0  0  0  0  0  0  0  0
   47.1682   32.9810   46.8795 C   0  0  2  0  0  0  0  0  0  0  0  0
   45.7197   33.0906   46.4735 C   0  0  1  0  0  0  0  0  0  0  0  0
   44.8894   33.3569   47.6918 C   0  0  1  0  0  0  0  0  0  0  0  0
   44.7962   34.4575   47.9004 H   0  0  0  0  0  0  0  0  0  0  0  0
   45.5644   32.7804   48.7854 O   0  0  0  0  0  0  0  0  0  0  0  0
   46.5505   33.7002   49.1854 C   0  0  2  0  0  0  0  0  0  0  0  0
   47.0264   33.3189   50.1138 H   0  0  0  0  0  0  0  0  0  0  0  0
   47.5282   33.8750   48.0547 C   0  0  1  0  0  0  0  0  0  0  0  0
   48.7833   33.4340   48.5056 O   0  0  0  0  0  0  0  0  0  0  0  0
   47.8012   33.9874   45.2660 H   0  0  0  0  0  0  0  0  0  0  0  0
   47.3421   31.9402   47.2413 H   0  0  0  0  0  0  0  0  0  0  0  0
   45.4268   32.0927   46.0561 H   0  0  0  0  0  0  0  0  0  0  0  0
   43.8861   32.8615   47.6354 H   0  0  0  0  0  0  0  0  0  0  0  0
   46.0028   34.6666   49.3809 H   0  0  0  0  0  0  0  0  0  0  0  0
   47.6291   34.9517   47.7547 H   0  0  0  0  0  0  0  0  0  0  0  0
   49.3027   33.1013   47.7203 H   0  0  0  0  0  0  0  0  0  0  0  0
  1  6  2  0
  2  1  1  0
  3  2  2  0
  3  4  1  0
  4  5  2  0
  5  6  1  0
  7  3  1  0
  1  8  1  0
  2  9  1  0
  7 10  1  0
 11 12  1  0
 12 13  1  0
 13 14  1  0
 14 15  1  1
 14 16  1  0
 16 17  1  0
 17 18  1  1
 17 19  1  0
 19 20  1  0
 19 12  1  0
 11 21  1  0
 12 22  1  1
 13 23  1  6
 14 24  1  0
 17 25  1  0
 19 26  1  6
 20 27  1  0
  5 13  1  0
M  ISO  5   8  14   9  14  10  11  15   8  18   8
M  END
>  <DihAtoms>  (1) 
3,4,12,11

>  <DihDeg>  (1) 
116.73696216272855

$$$$
