
     RDKit          3D

 51 54  0  0  0  0  0  0  0  0999 V2000
   47.3531   33.4057   43.6424 N   0  0  0  0  0  0  0  0  0  0  0  0
   48.1430   34.0341   42.5962 C   0  0  0  0  0  0  0  0  0  0  0  0
   48.0389   32.9669   41.5503 C   0  0  2  0  0  0  0  0  0  0  0  0
   48.3841   31.7187   42.3455 C   0  0  0  0  0  0  0  0  0  0  0  0
   47.7748   32.0119   43.6925 C   0  0  0  0  0  0  0  0  0  0  0  0
   44.5860   35.4420   45.0706 C   0  0  0  0  0  0  0  0  0  0  0  0
   45.5331   34.9965   44.1554 C   0  0  0  0  0  0  0  0  0  0  0  0
   46.3684   33.9328   44.4854 C   0  0  0  0  0  0  0  0  0  0  0  0
   46.1919   33.3894   45.7178 N   0  0  0  0  0  0  0  0  0  0  0  0
   45.2831   33.8091   46.6090 C   0  0  0  0  0  0  0  0  0  0  0  0
   44.4713   34.8501   46.2762 N   0  0  0  0  0  0  0  0  0  0  0  0
   48.9966   33.0995   40.4988 N   0  0  0  0  0  0  0  0  0  0  0  0
   49.4198   32.1928   38.2320 C   0  0  0  0  0  0  0  0  0  0  0  0
   48.8790   33.1359   39.0967 C   0  0  0  0  0  0  0  0  0  0  0  0
   48.2011   34.1348   38.4515 C   0  0  0  0  0  0  0  0  0  0  0  0
   48.0333   34.2548   37.0920 C   0  0  0  0  0  0  0  0  0  0  0  0
   48.5885   33.2943   36.2771 C   0  0  0  0  0  0  0  0  0  0  0  0
   49.2853   32.2593   36.8619 C   0  0  0  0  0  0  0  0  0  0  0  0
   50.7451   30.2047   39.3117 N   0  0  0  0  0  0  0  0  0  0  0  0
   50.1644   31.0838   38.8279 C   0  0  0  0  0  0  0  0  0  0  0  0
   49.1990   34.1385   42.8916 H   0  0  0  0  0  0  0  0  0  0  0  0
   47.7225   34.9895   42.2384 H   0  0  0  0  0  0  0  0  0  0  0  0
   47.0183   32.8901   41.1232 H   0  0  0  0  0  0  0  0  0  0  0  0
   49.4696   31.5269   42.3779 H   0  0  0  0  0  0  0  0  0  0  0  0
   47.8622   30.8441   41.8728 H   0  0  0  0  0  0  0  0  0  0  0  0
   48.5806   31.9176   44.4436 H   0  0  0  0  0  0  0  0  0  0  0  0
   46.9624   31.3210   43.9348 H   0  0  0  0  0  0  0  0  0  0  0  0
   43.9604   36.2717   44.7677 H   0  0  0  0  0  0  0  0  0  0  0  0
   45.6844   35.4265   43.1600 H   0  0  0  0  0  0  0  0  0  0  0  0
   45.1873   33.3350   47.5817 H   0  0  0  0  0  0  0  0  0  0  0  0
   50.0201   33.1955   40.6977 H   0  0  0  0  0  0  0  0  0  0  0  0
   47.7356   34.9285   39.0250 H   0  0  0  0  0  0  0  0  0  0  0  0
   47.4864   35.0671   36.6316 H   0  0  0  0  0  0  0  0  0  0  0  0
   48.5269   33.2769   35.1974 H   0  0  0  0  0  0  0  0  0  0  0  0
   51.9979   31.3027   37.3024 O   0  0  0  0  0  0  0  0  0  0  0  0
   51.4040   31.4617   36.0669 C   0  0  2  0  0  0  0  0  0  0  0  0
   49.9178   31.1783   36.0582 C   0  0  2  0  0  0  0  0  0  0  0  0
   49.4865   31.1748   34.6166 C   0  0  1  0  0  0  0  0  0  0  0  0
   49.4275   30.0977   34.2872 H   0  0  0  0  0  0  0  0  0  0  0  0
   50.4448   31.7549   33.7909 O   0  0  0  0  0  0  0  0  0  0  0  0
   51.5572   30.9192   33.7137 C   0  0  1  0  0  0  0  0  0  0  0  0
   51.2105   29.9599   33.2719 H   0  0  0  0  0  0  0  0  0  0  0  0
   52.1552   30.6075   35.0709 C   0  0  1  0  0  0  0  0  0  0  0  0
   53.4907   31.0207   35.1246 O   0  0  0  0  0  0  0  0  0  0  0  0
   52.0039   32.1365   37.8330 H   0  0  0  0  0  0  0  0  0  0  0  0
   51.5622   32.5280   35.7816 H   0  0  0  0  0  0  0  0  0  0  0  0
   49.6885   30.2130   36.5240 H   0  0  0  0  0  0  0  0  0  0  0  0
   48.4841   31.5883   34.4356 H   0  0  0  0  0  0  0  0  0  0  0  0
   52.3082   31.3289   33.0194 H   0  0  0  0  0  0  0  0  0  0  0  0
   52.1092   29.5378   35.3330 H   0  0  0  0  0  0  0  0  0  0  0  0
   53.6853   31.5221   35.9723 H   0  0  0  0  0  0  0  0  0  0  0  0
  1  5  1  0
  1  8  1  0
  2  1  1  0
  3  4  1  0
  3  2  1  0
  4  5  1  0
  6 11  2  0
  7  8  2  0
  7  6  1  0
  8  9  1  0
  9 10  2  0
 11 10  1  0
 12  3  1  0
 13 20  1  0
 13 14  2  0
 14 12  1  0
 15 14  1  0
 16 15  2  0
 17 18  2  0
 17 16  1  0
 18 13  1  0
 20 19  3  0
  2 21  1  0
  2 22  1  0
  3 23  1  6
  4 24  1  0
  4 25  1  0
  5 26  1  0
  5 27  1  0
  6 28  1  0
  7 29  1  0
 10 30  1  0
 12 31  1  0
 15 32  1  0
 16 33  1  0
 17 34  1  0
 35 36  1  0
 36 37  1  0
 37 38  1  0
 38 39  1  6
 38 40  1  0
 40 41  1  0
 41 42  1  6
 41 43  1  0
 43 44  1  0
 43 36  1  0
 35 45  1  0
 36 46  1  6
 37 47  1  1
 38 48  1  0
 41 49  1  0
 43 50  1  1
 44 51  1  0
 18 37  1  0
M  ISO  8  21  13  22  13  23  13  24  13  25  13  26  13  27  13  28  14
M  ISO  7  29  14  30  14  32  14  33  14  34  14  39   8  42   8
M  END
>  <DihAtoms>  (1) 
16,17,36,35

>  <DihDeg>  (1) 
90.0011101323333

$$$$
