
 OpenBabel03252506183D

 26 27  0  0  1  0  0  0  0  0999 V2000
   44.9090   35.7530   44.0360 C   0  0  0  0  0  0  0  0  0  0  0  0
   44.3100   35.2930   42.8360 C   0  0  0  0  0  0  0  0  0  0  0  0
   44.3960   33.9360   42.5540 C   0  0  0  0  0  0  0  0  0  0  0  0
   45.0430   33.1170   43.4320 N   0  0  0  0  0  0  0  0  0  0  0  0
   45.6050   33.5900   44.5720 C   0  0  0  0  0  0  0  0  0  0  0  0
   45.5240   34.9060   44.8500 N   0  0  0  0  0  0  0  0  0  0  0  0
   43.8030   35.9540   42.1560 H   0  0  0  0  0  0  0  0  0  0  0  0
   43.9610   33.5090   41.6520 H   0  0  0  0  0  0  0  0  0  0  0  0
   45.9190   32.7500   46.8990 C   0  0  2  0  0  3  0  0  0  0  0  0
   46.2780   32.6210   45.4460 C   0  0  1  0  0  3  0  0  0  0  0  0
   45.8980   31.2040   44.9950 C   0  0  0  0  0  3  0  0  0  0  0  0
   44.8980   30.9760   45.4690 H   0  0  0  0  0  0  0  0  0  0  0  0
   46.8270   30.4010   45.6580 O   0  0  0  0  0  0  0  0  0  0  0  0
   46.4280   30.2630   46.9590 C   0  0  0  0  0  3  0  0  0  0  0  0
   47.2910   29.7650   47.4940 H   0  0  0  0  0  0  0  0  0  0  0  0
   45.9820   31.4780   47.6680 C   0  0  2  0  0  3  0  0  0  0  0  0
   44.6470   33.3550   46.9320 O   0  0  0  0  0  0  0  0  0  0  0  0
   44.0080   32.6270   46.6970 H   0  0  0  0  0  0  0  0  0  0  0  0
   44.6780   31.2410   48.1600 O   0  0  0  0  0  0  0  0  0  0  0  0
   44.5590   31.5260   49.0810 H   0  0  0  0  0  0  0  0  0  0  0  0
   44.8230   37.1860   44.3430 C   0  0  0  0  0  3  0  0  0  0  0  0
   45.4610   38.0340   43.5460 C   0  0  0  0  0  3  0  0  0  0  0  0
   45.4070   39.5000   43.8120 C   0  0  0  0  0  0  0  0  0  0  0  0
   44.4410   39.9050   43.4540 H   0  0  0  0  0  0  0  0  0  0  0  0
   45.4440   39.7240   44.9130 H   0  0  0  0  0  0  0  0  0  0  0  0
   46.2090   40.0350   43.2900 H   0  0  0  0  0  0  0  0  0  0  0  0
  1 21  1  0  0  0  0
  1  6  1  0  0  0  0
  2  1  2  0  0  0  0
  3  2  1  0  0  0  0
  3  4  2  0  0  0  0
  4  5  1  0  0  0  0
  5  6  2  0  0  0  0
  7  2  1  0  0  0  0
  8  3  1  0  0  0  0
  9 17  1  6  0  0  0
  9 16  1  0  0  0  0
 10  5  1  6  0  0  0
 10  9  1  0  0  0  0
 11 10  1  0  0  0  0
 11 12  1  0  0  0  0
 11 13  1  0  0  0  0
 13 14  1  0  0  0  0
 14 15  1  0  0  0  0
 14 16  1  0  0  0  0
 16 19  1  6  0  0  0
 18 17  1  0  0  0  0
 19 20  1  0  0  0  0
 22 23  1  0  0  0  0
 22 21  2  0  0  0  0
 23 25  1  0  0  0  0
 24 23  1  0  0  0  0
 26 23  1  0  0  0  0
M  END
>  <minimizedAffinity>
-4.04284048

>  <minimizedRMSD>
1.1937989

$$$$
