
 OpenBabel03252500263D

 40 42  0  0  1  0  0  0  0  0999 V2000
   41.1760   32.4530   39.7440 C   0  0  2  0  0  0  0  0  0  0  0  0
   41.9330   32.7360   40.9850 C   0  0  2  0  0  0  0  0  0  0  0  0
   42.7450   33.9300   40.6420 C   0  0  0  0  0  0  0  0  0  0  0  0
   42.0350   34.6570   39.7040 O   0  0  0  0  0  0  0  0  0  0  0  0
   40.9870   33.9140   39.2680 C   0  0  0  0  0  0  0  0  0  0  0  0
   41.5470   31.9860   38.8800 H   0  0  0  0  0  0  0  0  0  0  0  0
   41.1710   32.9490   41.7620 H   0  0  0  0  0  0  0  0  0  0  0  0
   43.8100   33.8110   40.4750 H   0  0  0  0  0  0  0  0  0  0  0  0
   42.7140   34.5990   41.5580 H   0  0  0  0  0  0  0  0  0  0  0  0
   40.0550   34.3320   39.6950 H   0  0  0  0  0  0  0  0  0  0  0  0
   40.8860   33.9960   38.1830 H   0  0  0  0  0  0  0  0  0  0  0  0
   42.6900   31.6770   41.4330 O   0  0  0  0  0  0  0  0  0  0  0  0
   42.7440   30.8660   43.8700 O   0  0  0  0  0  0  0  0  0  0  0  0
   41.8730   30.8760   42.6450 P   0  0  1  0  0  0  0  0  0  0  0  0
   40.4410   31.7060   43.0040 O   0  0  0  0  0  0  0  0  0  0  0  0
   40.0390   31.3590   43.8410 H   0  0  0  0  0  0  0  0  0  0  0  0
   41.5590   29.2410   42.2560 O   0  0  0  0  0  0  0  0  0  0  0  0
   38.2180   28.5580   43.3150 C   0  0  0  0  0  0  0  0  0  0  0  0
   38.2910   27.2520   43.8690 C   0  0  0  0  0  0  0  0  0  0  0  0
   39.5440   26.6230   43.8570 C   0  0  0  0  0  0  0  0  0  0  0  0
   40.5910   27.3000   43.3220 N   0  0  0  0  0  0  0  0  0  0  0  0
   40.4810   28.5380   42.8070 C   0  0  0  0  0  0  0  0  0  0  0  0
   39.2940   29.1590   42.8080 N   0  0  0  0  0  0  0  0  0  0  0  0
   37.4300   26.7430   44.2880 H   0  0  0  0  0  0  0  0  0  0  0  0
   39.6650   25.6300   44.2630 H   0  0  0  0  0  0  0  0  0  0  0  0
   36.9850   29.1750   43.3250 O   0  0  0  0  0  0  0  0  0  0  0  0
   36.7310   29.9200   42.6930 H   0  0  0  0  0  0  0  0  0  0  0  0
   39.9750   31.8280   39.9580 O   0  0  0  0  0  0  0  0  0  0  0  0
   37.6580   32.2870   40.3880 C   0  0  2  0  0  3  0  0  0  0  0  0
   38.8410   32.2310   39.3870 C   0  0  2  0  0  3  0  0  0  0  0  0
   38.3960   31.2080   38.3680 C   0  0  0  0  0  3  0  0  0  0  0  0
   38.9850   31.1530   37.4610 H   0  0  0  0  0  0  0  0  0  0  0  0
   37.0430   31.3420   38.0640 O   0  0  0  0  0  0  0  0  0  0  0  0
   36.2510   30.7820   39.0620 C   0  0  0  0  0  3  0  0  0  0  0  0
   35.3210   31.3840   39.0810 H   0  0  0  0  0  0  0  0  0  0  0  0
   36.9270   30.9380   40.3980 C   0  0  2  0  0  3  0  0  0  0  0  0
   36.6960   33.1910   39.9390 O   0  0  0  0  0  0  0  0  0  0  0  0
   36.0640   33.3070   40.6770 H   0  0  0  0  0  0  0  0  0  0  0  0
   35.9120   31.1000   41.3520 O   0  0  0  0  0  0  0  0  0  0  0  0
   35.8590   30.3820   42.0090 H   0  0  0  0  0  0  0  0  0  0  0  0
  1  6  1  6  0  0  0
  1 28  1  0  0  0  0
  1  2  1  0  0  0  0
  2 12  1  0  0  0  0
  2  7  1  1  0  0  0
  3  2  1  0  0  0  0
  3  9  1  0  0  0  0
  4  3  1  0  0  0  0
  5 10  1  0  0  0  0
  5  4  1  0  0  0  0
  5  1  1  0  0  0  0
  8  3  1  0  0  0  0
 11  5  1  0  0  0  0
 12 14  1  0  0  0  0
 14 15  1  0  0  0  0
 14 13  2  1  0  0  0
 15 16  1  0  0  0  0
 17 14  1  0  0  0  0
 17 22  1  0  0  0  0
 18 26  1  0  0  0  0
 18 19  1  0  0  0  0
 19 24  1  0  0  0  0
 20 19  2  0  0  0  0
 20 25  1  0  0  0  0
 21 20  1  0  0  0  0
 22 23  1  0  0  0  0
 22 21  2  0  0  0  0
 23 18  2  0  0  0  0
 27 26  1  0  0  0  0
 29 37  1  6  0  0  0
 29 36  1  0  0  0  0
 30 28  1  1  0  0  0
 30 29  1  0  0  0  0
 31 30  1  0  0  0  0
 32 31  1  0  0  0  0
 33 31  1  0  0  0  0
 33 34  1  0  0  0  0
 34 35  1  0  0  0  0
 34 36  1  0  0  0  0
 36 39  1  1  0  0  0
 37 38  1  0  0  0  0
 39 40  1  0  0  0  0
M  END
>  <minimizedAffinity>
-6.33451653

$$$$

 OpenBabel03252500263D

 40 42  0  0  1  0  0  0  0  0999 V2000
   38.9590   30.2770   38.3310 C   0  0  2  0  0  0  0  0  0  0  0  0
   38.5640   29.4560   39.4990 C   0  0  2  0  0  0  0  0  0  0  0  0
   39.1580   28.1250   39.2160 C   0  0  0  0  0  0  0  0  0  0  0  0
   40.3040   28.3340   38.4700 O   0  0  0  0  0  0  0  0  0  0  0  0
   40.3420   29.6310   38.0710 C   0  0  0  0  0  0  0  0  0  0  0  0
   38.5230   30.2540   37.3760 H   0  0  0  0  0  0  0  0  0  0  0  0
   39.0210   29.9470   40.3820 H   0  0  0  0  0  0  0  0  0  0  0  0
   38.5080   27.3140   38.9100 H   0  0  0  0  0  0  0  0  0  0  0  0
   39.5660   27.7520   40.2080 H   0  0  0  0  0  0  0  0  0  0  0  0
   41.1210   30.1580   38.6560 H   0  0  0  0  0  0  0  0  0  0  0  0
   40.6520   29.6990   37.0260 H   0  0  0  0  0  0  0  0  0  0  0  0
   37.2050   29.4080   39.7140 O   0  0  0  0  0  0  0  0  0  0  0  0
   38.1310   30.2540   41.9560 O   0  0  0  0  0  0  0  0  0  0  0  0
   36.8800   29.7170   41.3190 P   0  0  1  0  0  0  0  0  0  0  0  0
   35.6660   30.8930   41.4320 O   0  0  0  0  0  0  0  0  0  0  0  0
   35.5920   31.2250   42.3630 H   0  0  0  0  0  0  0  0  0  0  0  0
   36.4570   28.3050   42.1870 O   0  0  0  0  0  0  0  0  0  0  0  0
   39.1520   26.3400   43.4610 C   0  0  0  0  0  0  0  0  0  0  0  0
   39.1170   25.1560   42.6770 C   0  0  0  0  0  0  0  0  0  0  0  0
   38.1220   25.0710   41.6930 C   0  0  0  0  0  0  0  0  0  0  0  0
   37.2690   26.1170   41.5590 N   0  0  0  0  0  0  0  0  0  0  0  0
   37.3340   27.2240   42.3220 C   0  0  0  0  0  0  0  0  0  0  0  0
   38.2770   27.3270   43.2690 N   0  0  0  0  0  0  0  0  0  0  0  0
   39.8190   24.3400   42.8140 H   0  0  0  0  0  0  0  0  0  0  0  0
   38.0430   24.1970   41.0640 H   0  0  0  0  0  0  0  0  0  0  0  0
   40.1300   26.4210   44.4290 O   0  0  0  0  0  0  0  0  0  0  0  0
   40.0610   27.0200   45.2390 H   0  0  0  0  0  0  0  0  0  0  0  0
   39.0660   31.6150   38.6050 O   0  0  0  0  0  0  0  0  0  0  0  0
   39.5690   32.8310   40.6130 C   0  0  2  0  0  3  0  0  0  0  0  0
   40.0650   32.1260   39.3230 C   0  0  2  0  0  3  0  0  0  0  0  0
   40.7310   33.2370   38.5450 C   0  0  0  0  0  3  0  0  0  0  0  0
   41.3280   32.9300   37.6950 H   0  0  0  0  0  0  0  0  0  0  0  0
   41.4660   34.0790   39.3790 O   0  0  0  0  0  0  0  0  0  0  0  0
   40.6300   34.9660   40.0500 C   0  0  0  0  0  3  0  0  0  0  0  0
   41.1180   35.1590   41.0260 H   0  0  0  0  0  0  0  0  0  0  0  0
   39.3010   34.3130   40.3200 C   0  0  2  0  0  3  0  0  0  0  0  0
   40.5890   32.8520   41.5660 O   0  0  0  0  0  0  0  0  0  0  0  0
   40.1750   33.1530   42.4010 H   0  0  0  0  0  0  0  0  0  0  0  0
   38.8340   34.8290   41.5380 O   0  0  0  0  0  0  0  0  0  0  0  0
   38.0140   35.3500   41.4650 H   0  0  0  0  0  0  0  0  0  0  0  0
  1  6  1  6  0  0  0
  1 28  1  0  0  0  0
  1  2  1  0  0  0  0
  2 12  1  0  0  0  0
  2  7  1  1  0  0  0
  3  2  1  0  0  0  0
  3  9  1  0  0  0  0
  4  3  1  0  0  0  0
  5  1  1  0  0  0  0
  5  4  1  0  0  0  0
  5 10  1  0  0  0  0
  8  3  1  0  0  0  0
 11  5  1  0  0  0  0
 12 14  1  0  0  0  0
 14 15  1  0  0  0  0
 14 13  2  1  0  0  0
 14 17  1  0  0  0  0
 15 16  1  0  0  0  0
 17 22  1  0  0  0  0
 18 26  1  0  0  0  0
 19 24  1  0  0  0  0
 19 18  2  0  0  0  0
 20 19  1  0  0  0  0
 21 20  2  0  0  0  0
 21 22  1  0  0  0  0
 22 23  2  0  0  0  0
 23 18  1  0  0  0  0
 25 20  1  0  0  0  0
 26 27  1  0  0  0  0
 29 37  1  1  0  0  0
 30 28  1  6  0  0  0
 30 29  1  0  0  0  0
 31 30  1  0  0  0  0
 31 33  1  0  0  0  0
 32 31  1  0  0  0  0
 33 34  1  0  0  0  0
 34 36  1  0  0  0  0
 34 35  1  0  0  0  0
 36 29  1  0  0  0  0
 36 39  1  1  0  0  0
 37 38  1  0  0  0  0
 40 39  1  0  0  0  0
M  END
>  <minimizedAffinity>
-6.30877829

$$$$

 OpenBabel03252500263D

 40 42  0  0  1  0  0  0  0  0999 V2000
   36.4470   30.5990   39.2610 C   0  0  2  0  0  0  0  0  0  0  0  0
   36.5220   29.6690   40.4110 C   0  0  2  0  0  0  0  0  0  0  0  0
   35.2120   28.9720   40.3940 C   0  0  0  0  0  0  0  0  0  0  0  0
   34.7910   28.9180   39.0770 O   0  0  0  0  0  0  0  0  0  0  0  0
   35.5920   29.7120   38.3230 C   0  0  0  0  0  0  0  0  0  0  0  0
   35.9300   31.5130   39.2310 H   0  0  0  0  0  0  0  0  0  0  0  0
   37.3690   28.9870   40.1940 H   0  0  0  0  0  0  0  0  0  0  0  0
   34.4700   29.2290   41.1410 H   0  0  0  0  0  0  0  0  0  0  0  0
   35.4360   27.8860   40.6330 H   0  0  0  0  0  0  0  0  0  0  0  0
   36.2510   29.0680   37.7090 H   0  0  0  0  0  0  0  0  0  0  0  0
   34.9960   30.2950   37.6170 H   0  0  0  0  0  0  0  0  0  0  0  0
   36.7910   30.2860   41.6130 O   0  0  0  0  0  0  0  0  0  0  0  0
   39.0760   30.2780   42.7860 O   0  0  0  0  0  0  0  0  0  0  0  0
   37.9060   29.3900   42.4670 P   0  0  1  0  0  0  0  0  0  0  0  0
   37.2140   28.8620   43.9200 O   0  0  0  0  0  0  0  0  0  0  0  0
   37.9090   28.4940   44.5220 H   0  0  0  0  0  0  0  0  0  0  0  0
   38.5240   28.0760   41.5630 O   0  0  0  0  0  0  0  0  0  0  0  0
   38.7730   24.5650   42.1620 C   0  0  0  0  0  0  0  0  0  0  0  0
   39.6460   24.4660   43.2790 C   0  0  0  0  0  0  0  0  0  0  0  0
   40.1410   25.6650   43.8100 C   0  0  0  0  0  0  0  0  0  0  0  0
   39.7560   26.8270   43.2250 N   0  0  0  0  0  0  0  0  0  0  0  0
   38.9250   26.8790   42.1680 C   0  0  0  0  0  0  0  0  0  0  0  0
   38.4390   25.7470   41.6440 N   0  0  0  0  0  0  0  0  0  0  0  0
   39.9320   23.5160   43.7180 H   0  0  0  0  0  0  0  0  0  0  0  0
   40.8100   25.6570   44.6580 H   0  0  0  0  0  0  0  0  0  0  0  0
   38.2880   23.3850   41.6400 O   0  0  0  0  0  0  0  0  0  0  0  0
   37.9520   23.2930   40.6920 H   0  0  0  0  0  0  0  0  0  0  0  0
   37.6640   30.8980   38.7100 O   0  0  0  0  0  0  0  0  0  0  0  0
   39.4920   32.3230   39.3360 C   0  0  2  0  0  3  0  0  0  0  0  0
   38.1280   32.1440   38.6200 C   0  0  2  0  0  3  0  0  0  0  0  0
   37.2090   33.0820   39.3670 C   0  0  0  0  0  3  0  0  0  0  0  0
   36.2470   33.2700   38.9080 H   0  0  0  0  0  0  0  0  0  0  0  0
   37.8440   34.2830   39.6780 O   0  0  0  0  0  0  0  0  0  0  0  0
   38.6840   34.1300   40.7780 C   0  0  0  0  0  3  0  0  0  0  0  0
   39.5190   34.8410   40.6190 H   0  0  0  0  0  0  0  0  0  0  0  0
   39.2590   32.7400   40.7930 C   0  0  2  0  0  3  0  0  0  0  0  0
   40.1840   33.4010   38.7810 O   0  0  0  0  0  0  0  0  0  0  0  0
   41.0890   33.3640   39.1510 H   0  0  0  0  0  0  0  0  0  0  0  0
   40.5480   32.8380   41.3380 O   0  0  0  0  0  0  0  0  0  0  0  0
   40.6630   32.3710   42.1860 H   0  0  0  0  0  0  0  0  0  0  0  0
  1  6  1  1  0  0  0
  1  2  1  0  0  0  0
  2  7  1  6  0  0  0
  2 12  1  0  0  0  0
  3  2  1  0  0  0  0
  3  9  1  0  0  0  0
  3  8  1  0  0  0  0
  4  3  1  0  0  0  0
  5  4  1  0  0  0  0
  5  1  1  0  0  0  0
 10  5  1  0  0  0  0
 11  5  1  0  0  0  0
 12 14  1  0  0  0  0
 14 13  2  1  0  0  0
 14 15  1  0  0  0  0
 15 16  1  0  0  0  0
 17 22  1  0  0  0  0
 17 14  1  0  0  0  0
 18 19  1  0  0  0  0
 19 24  1  0  0  0  0
 19 20  2  0  0  0  0
 20 25  1  0  0  0  0
 21 20  1  0  0  0  0
 22 21  2  0  0  0  0
 23 18  2  0  0  0  0
 23 22  1  0  0  0  0
 26 18  1  0  0  0  0
 27 26  1  0  0  0  0
 28  1  1  0  0  0  0
 29 37  1  6  0  0  0
 29 36  1  0  0  0  0
 30 28  1  1  0  0  0
 30 29  1  0  0  0  0
 30 31  1  0  0  0  0
 31 33  1  0  0  0  0
 32 31  1  0  0  0  0
 33 34  1  0  0  0  0
 34 36  1  0  0  0  0
 35 34  1  0  0  0  0
 36 39  1  1  0  0  0
 37 38  1  0  0  0  0
 39 40  1  0  0  0  0
M  END
>  <minimizedAffinity>
-6.2945838

$$$$

 OpenBabel03252500263D

 40 42  0  0  1  0  0  0  0  0999 V2000
   41.9650   32.0540   40.9240 C   0  0  2  0  0  0  0  0  0  0  0  0
   40.5520   31.9090   41.3420 C   0  0  2  0  0  0  0  0  0  0  0  0
   40.6220   31.0410   42.5440 C   0  0  0  0  0  0  0  0  0  0  0  0
   41.8370   31.2860   43.1590 O   0  0  0  0  0  0  0  0  0  0  0  0
   42.6090   32.0360   42.3320 C   0  0  0  0  0  0  0  0  0  0  0  0
   42.5400   31.3410   40.4100 H   0  0  0  0  0  0  0  0  0  0  0  0
   40.1990   32.9340   41.5770 H   0  0  0  0  0  0  0  0  0  0  0  0
   40.3060   30.0080   42.4660 H   0  0  0  0  0  0  0  0  0  0  0  0
   39.8740   31.4720   43.2810 H   0  0  0  0  0  0  0  0  0  0  0  0
   42.6630   33.0660   42.7350 H   0  0  0  0  0  0  0  0  0  0  0  0
   43.6350   31.6600   42.3240 H   0  0  0  0  0  0  0  0  0  0  0  0
   39.7270   31.4070   40.3600 O   0  0  0  0  0  0  0  0  0  0  0  0
   38.5900   33.6160   41.0120 O   0  0  0  0  0  0  0  0  0  0  0  0
   38.3540   32.3440   40.2460 P   0  0  1  0  0  0  0  0  0  0  0  0
   38.0680   32.7330   38.6230 O   0  0  0  0  0  0  0  0  0  0  0  0
   37.3750   33.4370   38.5520 H   0  0  0  0  0  0  0  0  0  0  0  0
   36.9880   31.5950   40.9530 O   0  0  0  0  0  0  0  0  0  0  0  0
   37.2050   28.4190   42.5690 C   0  0  0  0  0  0  0  0  0  0  0  0
   36.7810   27.4960   41.5760 C   0  0  0  0  0  0  0  0  0  0  0  0
   36.4180   28.0230   40.3280 C   0  0  0  0  0  0  0  0  0  0  0  0
   36.4970   29.3660   40.1580 N   0  0  0  0  0  0  0  0  0  0  0  0
   36.9040   30.2090   41.1240 C   0  0  0  0  0  0  0  0  0  0  0  0
   37.2560   29.7280   42.3240 N   0  0  0  0  0  0  0  0  0  0  0  0
   36.7320   26.4260   41.7500 H   0  0  0  0  0  0  0  0  0  0  0  0
   36.0870   27.3740   39.5320 H   0  0  0  0  0  0  0  0  0  0  0  0
   37.5600   27.9000   43.7950 O   0  0  0  0  0  0  0  0  0  0  0  0
   37.5520   28.4370   44.6500 H   0  0  0  0  0  0  0  0  0  0  0  0
   42.2290   33.2220   40.2590 O   0  0  0  0  0  0  0  0  0  0  0  0
   41.6520   33.4590   37.9400 C   0  0  2  0  0  3  0  0  0  0  0  0
   42.7380   33.2520   39.0280 C   0  0  2  0  0  3  0  0  0  0  0  0
   43.3260   31.9010   38.6900 C   0  0  0  0  0  3  0  0  0  0  0  0
   44.2430   31.6410   39.2030 H   0  0  0  0  0  0  0  0  0  0  0  0
   43.4710   31.7340   37.3150 O   0  0  0  0  0  0  0  0  0  0  0  0
   42.2520   31.4210   36.7210 C   0  0  0  0  0  3  0  0  0  0  0  0
   42.2930   31.8560   35.7020 H   0  0  0  0  0  0  0  0  0  0  0  0
   41.1310   32.0960   37.4650 C   0  0  2  0  0  3  0  0  0  0  0  0
   42.2220   34.0210   36.7980 O   0  0  0  0  0  0  0  0  0  0  0  0
   41.4770   34.2780   36.2190 H   0  0  0  0  0  0  0  0  0  0  0  0
   40.1450   32.4110   36.5190 O   0  0  0  0  0  0  0  0  0  0  0  0
   39.3000   31.9440   36.6490 H   0  0  0  0  0  0  0  0  0  0  0  0
  1  6  1  6  0  0  0
  1  2  1  0  0  0  0
  1  5  1  0  0  0  0
  2  7  1  1  0  0  0
  2  3  1  0  0  0  0
  3  4  1  0  0  0  0
  3  9  1  0  0  0  0
  5 10  1  0  0  0  0
  5  4  1  0  0  0  0
  8  3  1  0  0  0  0
 11  5  1  0  0  0  0
 12  2  1  0  0  0  0
 14 12  1  0  0  0  0
 14 17  1  0  0  0  0
 14 13  2  1  0  0  0
 15 14  1  0  0  0  0
 16 15  1  0  0  0  0
 17 22  1  0  0  0  0
 18 26  1  0  0  0  0
 19 24  1  0  0  0  0
 19 18  2  0  0  0  0
 20 19  1  0  0  0  0
 21 20  2  0  0  0  0
 21 22  1  0  0  0  0
 22 23  2  0  0  0  0
 23 18  1  0  0  0  0
 25 20  1  0  0  0  0
 26 27  1  0  0  0  0
 28  1  1  0  0  0  0
 29 37  1  6  0  0  0
 29 30  1  0  0  0  0
 30 28  1  1  0  0  0
 31 30  1  0  0  0  0
 31 32  1  0  0  0  0
 33 31  1  0  0  0  0
 34 33  1  0  0  0  0
 34 36  1  0  0  0  0
 35 34  1  0  0  0  0
 36 39  1  6  0  0  0
 36 29  1  0  0  0  0
 38 37  1  0  0  0  0
 39 40  1  0  0  0  0
M  END
>  <minimizedAffinity>
-6.13589478

$$$$

 OpenBabel03252500263D

 40 42  0  0  1  0  0  0  0  0999 V2000
   38.4550   31.7640   40.7580 C   0  0  2  0  0  0  0  0  0  0  0  0
   38.1590   30.4330   41.3350 C   0  0  2  0  0  0  0  0  0  0  0  0
   36.6760   30.3870   41.3860 C   0  0  0  0  0  0  0  0  0  0  0  0
   36.2040   31.1640   40.3430 O   0  0  0  0  0  0  0  0  0  0  0  0
   37.2360   31.8630   39.8080 C   0  0  0  0  0  0  0  0  0  0  0  0
   38.4160   32.6850   41.2620 H   0  0  0  0  0  0  0  0  0  0  0  0
   38.5830   29.6940   40.6250 H   0  0  0  0  0  0  0  0  0  0  0  0
   36.1790   30.4890   42.3440 H   0  0  0  0  0  0  0  0  0  0  0  0
   36.3880   29.3360   41.0700 H   0  0  0  0  0  0  0  0  0  0  0  0
   37.4890   31.4230   38.8240 H   0  0  0  0  0  0  0  0  0  0  0  0
   36.9360   32.8950   39.6100 H   0  0  0  0  0  0  0  0  0  0  0  0
   38.7490   30.2100   42.5590 O   0  0  0  0  0  0  0  0  0  0  0  0
   40.5560   28.4940   43.1840 O   0  0  0  0  0  0  0  0  0  0  0  0
   39.1320   28.5960   42.7120 P   0  0  1  0  0  0  0  0  0  0  0  0
   38.1240   27.8840   43.8730 O   0  0  0  0  0  0  0  0  0  0  0  0
   38.4560   26.9820   44.1140 H   0  0  0  0  0  0  0  0  0  0  0  0
   39.0500   27.7570   41.2240 O   0  0  0  0  0  0  0  0  0  0  0  0
   39.1130   24.3180   42.1830 C   0  0  0  0  0  0  0  0  0  0  0  0
   38.4250   23.6540   41.1320 C   0  0  0  0  0  0  0  0  0  0  0  0
   37.9420   24.4490   40.0830 C   0  0  0  0  0  0  0  0  0  0  0  0
   38.1620   25.7860   40.1440 N   0  0  0  0  0  0  0  0  0  0  0  0
   38.8190   26.3790   41.1580 C   0  0  0  0  0  0  0  0  0  0  0  0
   39.2910   25.6400   42.1710 N   0  0  0  0  0  0  0  0  0  0  0  0
   38.2690   22.5810   41.1190 H   0  0  0  0  0  0  0  0  0  0  0  0
   37.4100   24.0040   39.2560 H   0  0  0  0  0  0  0  0  0  0  0  0
   39.5870   23.5360   43.2140 O   0  0  0  0  0  0  0  0  0  0  0  0
   39.7810   23.8930   44.1380 H   0  0  0  0  0  0  0  0  0  0  0  0
   39.6400   31.8210   40.0730 O   0  0  0  0  0  0  0  0  0  0  0  0
   40.1350   31.7100   37.7270 C   0  0  2  0  0  3  0  0  0  0  0  0
   39.8060   32.5630   38.9800 C   0  0  2  0  0  3  0  0  0  0  0  0
   41.0250   33.4400   39.1430 C   0  0  0  0  0  3  0  0  0  0  0  0
   40.9300   34.2600   39.8420 H   0  0  0  0  0  0  0  0  0  0  0  0
   41.4970   33.8980   37.9140 O   0  0  0  0  0  0  0  0  0  0  0  0
   42.2210   32.9060   37.2580 C   0  0  0  0  0  3  0  0  0  0  0  0
   42.0590   33.0820   36.1760 H   0  0  0  0  0  0  0  0  0  0  0  0
   41.6550   31.5530   37.5950 C   0  0  2  0  0  3  0  0  0  0  0  0
   39.7640   32.3980   36.5710 O   0  0  0  0  0  0  0  0  0  0  0  0
   39.8390   31.7560   35.8350 H   0  0  0  0  0  0  0  0  0  0  0  0
   41.8240   30.7470   36.4590 O   0  0  0  0  0  0  0  0  0  0  0  0
   42.4250   29.9900   36.5890 H   0  0  0  0  0  0  0  0  0  0  0  0
  1  6  1  1  0  0  0
  1  2  1  0  0  0  0
  2  7  1  6  0  0  0
  2  3  1  0  0  0  0
  2 12  1  0  0  0  0
  3  8  1  0  0  0  0
  4  3  1  0  0  0  0
  5  4  1  0  0  0  0
  5  1  1  0  0  0  0
  9  3  1  0  0  0  0
 10  5  1  0  0  0  0
 11  5  1  0  0  0  0
 12 14  1  0  0  0  0
 14 13  2  1  0  0  0
 14 15  1  0  0  0  0
 15 16  1  0  0  0  0
 17 14  1  0  0  0  0
 18 26  1  0  0  0  0
 19 18  2  0  0  0  0
 20 21  2  0  0  0  0
 20 19  1  0  0  0  0
 21 22  1  0  0  0  0
 22 17  1  0  0  0  0
 22 23  2  0  0  0  0
 23 18  1  0  0  0  0
 24 19  1  0  0  0  0
 25 20  1  0  0  0  0
 26 27  1  0  0  0  0
 28  1  1  0  0  0  0
 29 37  1  6  0  0  0
 29 30  1  0  0  0  0
 30 31  1  0  0  0  0
 30 28  1  1  0  0  0
 31 32  1  0  0  0  0
 33 31  1  0  0  0  0
 34 36  1  0  0  0  0
 34 33  1  0  0  0  0
 35 34  1  0  0  0  0
 36 39  1  6  0  0  0
 36 29  1  0  0  0  0
 38 37  1  0  0  0  0
 39 40  1  0  0  0  0
M  END
>  <minimizedAffinity>
-6.09465218

$$$$

 OpenBabel03252500263D

 40 42  0  0  1  0  0  0  0  0999 V2000
   37.2970   26.4280   42.1710 C   0  0  2  0  0  0  0  0  0  0  0  0
   37.1920   27.8890   41.9500 C   0  0  2  0  0  0  0  0  0  0  0  0
   37.8880   28.4780   43.1210 C   0  0  0  0  0  0  0  0  0  0  0  0
   38.8680   27.5830   43.5110 O   0  0  0  0  0  0  0  0  0  0  0  0
   38.6890   26.4130   42.8500 C   0  0  0  0  0  0  0  0  0  0  0  0
   36.7220   25.8550   42.8360 H   0  0  0  0  0  0  0  0  0  0  0  0
   37.7210   28.0890   40.9960 H   0  0  0  0  0  0  0  0  0  0  0  0
   37.2990   28.9400   43.9050 H   0  0  0  0  0  0  0  0  0  0  0  0
   38.4880   29.3520   42.7170 H   0  0  0  0  0  0  0  0  0  0  0  0
   39.4820   26.3150   42.0820 H   0  0  0  0  0  0  0  0  0  0  0  0
   38.8190   25.5670   43.5280 H   0  0  0  0  0  0  0  0  0  0  0  0
   35.8990   28.3410   41.8050 O   0  0  0  0  0  0  0  0  0  0  0  0
   34.6310   29.2280   39.7550 O   0  0  0  0  0  0  0  0  0  0  0  0
   35.8400   29.4970   40.6070 P   0  0  1  0  0  0  0  0  0  0  0  0
   35.6790   31.0300   41.3080 O   0  0  0  0  0  0  0  0  0  0  0  0
   35.4530   31.7050   40.6190 H   0  0  0  0  0  0  0  0  0  0  0  0
   37.1950   29.4330   39.5650 O   0  0  0  0  0  0  0  0  0  0  0  0
   39.2740   31.8870   38.0140 C   0  0  0  0  0  0  0  0  0  0  0  0
   39.8650   32.5780   39.1040 C   0  0  0  0  0  0  0  0  0  0  0  0
   39.5100   32.1580   40.3940 C   0  0  0  0  0  0  0  0  0  0  0  0
   38.6350   31.1280   40.5090 N   0  0  0  0  0  0  0  0  0  0  0  0
   38.0970   30.4970   39.4500 C   0  0  0  0  0  0  0  0  0  0  0  0
   38.4200   30.8810   38.2080 N   0  0  0  0  0  0  0  0  0  0  0  0
   40.5620   33.3990   38.9710 H   0  0  0  0  0  0  0  0  0  0  0  0
   39.9250   32.6440   41.2650 H   0  0  0  0  0  0  0  0  0  0  0  0
   39.6220   32.3020   36.7460 O   0  0  0  0  0  0  0  0  0  0  0  0
   39.0500   32.1370   35.9310 H   0  0  0  0  0  0  0  0  0  0  0  0
   37.2860   25.6910   41.0160 O   0  0  0  0  0  0  0  0  0  0  0  0
   38.2970   23.5510   40.6110 C   0  0  2  0  0  3  0  0  0  0  0  0
   37.0460   24.3810   41.0000 C   0  0  2  0  0  3  0  0  0  0  0  0
   36.0540   24.0610   39.9050 C   0  0  0  0  0  3  0  0  0  0  0  0
   35.0340   24.3780   40.0820 H   0  0  0  0  0  0  0  0  0  0  0  0
   36.0930   22.7130   39.5540 O   0  0  0  0  0  0  0  0  0  0  0  0
   37.1830   22.4460   38.7300 C   0  0  0  0  0  3  0  0  0  0  0  0
   37.4860   21.4050   38.9610 H   0  0  0  0  0  0  0  0  0  0  0  0
   38.3310   23.3500   39.0910 C   0  0  2  0  0  3  0  0  0  0  0  0
   38.1890   22.2570   41.1220 O   0  0  0  0  0  0  0  0  0  0  0  0
   39.0640   21.8380   40.9920 H   0  0  0  0  0  0  0  0  0  0  0  0
   39.5090   22.6240   38.8620 O   0  0  0  0  0  0  0  0  0  0  0  0
   40.0770   22.9900   38.1590 H   0  0  0  0  0  0  0  0  0  0  0  0
  1  6  1  1  0  0  0
  1  5  1  0  0  0  0
  2  7  1  6  0  0  0
  2  1  1  0  0  0  0
  2  3  1  0  0  0  0
  3  4  1  0  0  0  0
  3  8  1  0  0  0  0
  5  4  1  0  0  0  0
  5 11  1  0  0  0  0
  9  3  1  0  0  0  0
 10  5  1  0  0  0  0
 12  2  1  0  0  0  0
 14 13  2  6  0  0  0
 14 15  1  0  0  0  0
 14 12  1  0  0  0  0
 16 15  1  0  0  0  0
 17 14  1  0  0  0  0
 18 23  2  0  0  0  0
 18 19  1  0  0  0  0
 19 20  2  0  0  0  0
 20 21  1  0  0  0  0
 20 25  1  0  0  0  0
 22 17  1  0  0  0  0
 22 21  2  0  0  0  0
 23 22  1  0  0  0  0
 24 19  1  0  0  0  0
 26 18  1  0  0  0  0
 27 26  1  0  0  0  0
 28  1  1  0  0  0  0
 29 30  1  0  0  0  0
 29 37  1  1  0  0  0
 30 28  1  6  0  0  0
 31 32  1  0  0  0  0
 31 30  1  0  0  0  0
 33 31  1  0  0  0  0
 34 35  1  0  0  0  0
 34 36  1  0  0  0  0
 34 33  1  0  0  0  0
 36 39  1  1  0  0  0
 36 29  1  0  0  0  0
 38 37  1  0  0  0  0
 40 39  1  0  0  0  0
M  END
>  <minimizedAffinity>
-6.09266186

$$$$

 OpenBabel03252500263D

 40 42  0  0  1  0  0  0  0  0999 V2000
   37.0970   30.7690   40.0720 C   0  0  2  0  0  0  0  0  0  0  0  0
   36.8520   29.5700   40.9070 C   0  0  2  0  0  0  0  0  0  0  0  0
   35.4570   29.1860   40.5780 C   0  0  0  0  0  0  0  0  0  0  0  0
   35.2180   29.5730   39.2720 O   0  0  0  0  0  0  0  0  0  0  0  0
   36.2400   30.3600   38.8490 C   0  0  0  0  0  0  0  0  0  0  0  0
   36.7540   31.7430   40.2650 H   0  0  0  0  0  0  0  0  0  0  0  0
   37.5920   28.8140   40.5730 H   0  0  0  0  0  0  0  0  0  0  0  0
   34.6740   29.3790   41.3030 H   0  0  0  0  0  0  0  0  0  0  0  0
   35.4550   28.0530   40.5120 H   0  0  0  0  0  0  0  0  0  0  0  0
   36.8570   29.7830   38.1330 H   0  0  0  0  0  0  0  0  0  0  0  0
   35.8560   31.2180   38.2950 H   0  0  0  0  0  0  0  0  0  0  0  0
   37.0550   29.7750   42.2530 O   0  0  0  0  0  0  0  0  0  0  0  0
   37.0960   28.2370   44.3100 O   0  0  0  0  0  0  0  0  0  0  0  0
   37.6940   28.3990   42.9400 P   0  0  1  0  0  0  0  0  0  0  0  0
   37.2750   27.0520   42.0030 O   0  0  0  0  0  0  0  0  0  0  0  0
   37.4800   26.2130   42.4890 H   0  0  0  0  0  0  0  0  0  0  0  0
   39.3880   28.4980   43.1570 O   0  0  0  0  0  0  0  0  0  0  0  0
   40.3580   25.0620   43.1440 C   0  0  0  0  0  0  0  0  0  0  0  0
   41.7550   25.0980   42.8920 C   0  0  0  0  0  0  0  0  0  0  0  0
   42.3410   26.3610   42.7270 C   0  0  0  0  0  0  0  0  0  0  0  0
   41.5400   27.4510   42.8180 N   0  0  0  0  0  0  0  0  0  0  0  0
   40.2180   27.3760   43.0600 C   0  0  0  0  0  0  0  0  0  0  0  0
   39.6360   26.1800   43.2210 N   0  0  0  0  0  0  0  0  0  0  0  0
   42.3630   24.2020   42.8250 H   0  0  0  0  0  0  0  0  0  0  0  0
   43.3990   26.4550   42.5320 H   0  0  0  0  0  0  0  0  0  0  0  0
   39.7820   23.8200   43.3050 O   0  0  0  0  0  0  0  0  0  0  0  0
   38.8000   23.6390   43.1580 H   0  0  0  0  0  0  0  0  0  0  0  0
   38.4120   30.9510   39.7350 O   0  0  0  0  0  0  0  0  0  0  0  0
   39.5040   31.4370   37.6530 C   0  0  2  0  0  3  0  0  0  0  0  0
   38.8240   31.9460   38.9500 C   0  0  2  0  0  3  0  0  0  0  0  0
   39.9210   32.7190   39.6460 C   0  0  0  0  0  3  0  0  0  0  0  0
   39.6110   33.3330   40.4820 H   0  0  0  0  0  0  0  0  0  0  0  0
   40.6740   33.4660   38.7440 O   0  0  0  0  0  0  0  0  0  0  0  0
   41.5860   32.6590   38.0700 C   0  0  0  0  0  3  0  0  0  0  0  0
   41.7040   33.1120   37.0650 H   0  0  0  0  0  0  0  0  0  0  0  0
   41.0120   31.2790   37.8880 C   0  0  2  0  0  3  0  0  0  0  0  0
   39.4170   32.4090   36.6560 O   0  0  0  0  0  0  0  0  0  0  0  0
   39.7080   31.9780   35.8270 H   0  0  0  0  0  0  0  0  0  0  0  0
   41.5050   30.7900   36.6700 O   0  0  0  0  0  0  0  0  0  0  0  0
   42.0830   30.0100   36.7540 H   0  0  0  0  0  0  0  0  0  0  0  0
  1  6  1  1  0  0  0
  1  2  1  0  0  0  0
  2  7  1  6  0  0  0
  2 12  1  0  0  0  0
  3  2  1  0  0  0  0
  3  8  1  0  0  0  0
  4  3  1  0  0  0  0
  5  4  1  0  0  0  0
  5  1  1  0  0  0  0
  9  3  1  0  0  0  0
 10  5  1  0  0  0  0
 11  5  1  0  0  0  0
 12 14  1  0  0  0  0
 14 17  1  0  0  0  0
 14 13  2  1  0  0  0
 15 16  1  0  0  0  0
 15 14  1  0  0  0  0
 18 23  1  0  0  0  0
 18 26  1  0  0  0  0
 19 18  2  0  0  0  0
 20 21  2  0  0  0  0
 20 19  1  0  0  0  0
 21 22  1  0  0  0  0
 22 17  1  0  0  0  0
 22 23  2  0  0  0  0
 24 19  1  0  0  0  0
 25 20  1  0  0  0  0
 27 26  1  0  0  0  0
 28  1  1  0  0  0  0
 29 37  1  6  0  0  0
 29 36  1  0  0  0  0
 29 30  1  0  0  0  0
 30 31  1  0  0  0  0
 30 28  1  1  0  0  0
 31 32  1  0  0  0  0
 33 31  1  0  0  0  0
 34 33  1  0  0  0  0
 35 34  1  0  0  0  0
 36 39  1  6  0  0  0
 36 34  1  0  0  0  0
 38 37  1  0  0  0  0
 39 40  1  0  0  0  0
M  END
>  <minimizedAffinity>
-6.00492477

$$$$

 OpenBabel03252500263D

 40 42  0  0  1  0  0  0  0  0999 V2000
   40.6040   27.5310   42.1120 C   0  0  2  0  0  0  0  0  0  0  0  0
   39.4230   27.4180   42.9990 C   0  0  2  0  0  0  0  0  0  0  0  0
   39.8550   26.4620   44.0490 C   0  0  0  0  0  0  0  0  0  0  0  0
   41.2220   26.6060   44.2010 O   0  0  0  0  0  0  0  0  0  0  0  0
   41.7010   27.3790   43.1940 C   0  0  0  0  0  0  0  0  0  0  0  0
   40.9090   26.8330   41.3900 H   0  0  0  0  0  0  0  0  0  0  0  0
   39.2470   28.4380   43.3990 H   0  0  0  0  0  0  0  0  0  0  0  0
   39.4620   25.4520   44.0340 H   0  0  0  0  0  0  0  0  0  0  0  0
   39.4470   26.8700   45.0260 H   0  0  0  0  0  0  0  0  0  0  0  0
   41.9640   28.3730   43.6060 H   0  0  0  0  0  0  0  0  0  0  0  0
   42.6290   26.9600   42.7990 H   0  0  0  0  0  0  0  0  0  0  0  0
   38.2720   27.0280   42.3520 O   0  0  0  0  0  0  0  0  0  0  0  0
   36.1750   27.3140   43.8080 O   0  0  0  0  0  0  0  0  0  0  0  0
   37.0150   28.0310   42.7870 P   0  0  1  0  0  0  0  0  0  0  0  0
   37.6360   29.4420   43.4900 O   0  0  0  0  0  0  0  0  0  0  0  0
   36.9110   29.9610   43.9230 H   0  0  0  0  0  0  0  0  0  0  0  0
   35.9820   28.3970   41.4750 O   0  0  0  0  0  0  0  0  0  0  0  0
   36.8010   31.5910   40.1070 C   0  0  0  0  0  0  0  0  0  0  0  0
   36.9540   31.3430   38.7170 C   0  0  0  0  0  0  0  0  0  0  0  0
   36.7620   30.0250   38.2790 C   0  0  0  0  0  0  0  0  0  0  0  0
   36.4460   29.0860   39.2060 N   0  0  0  0  0  0  0  0  0  0  0  0
   36.3090   29.3610   40.5150 C   0  0  0  0  0  0  0  0  0  0  0  0
   36.4880   30.6140   40.9570 N   0  0  0  0  0  0  0  0  0  0  0  0
   37.2090   32.1220   38.0050 H   0  0  0  0  0  0  0  0  0  0  0  0
   36.8650   29.7720   37.2340 H   0  0  0  0  0  0  0  0  0  0  0  0
   36.9920   32.8870   40.5360 O   0  0  0  0  0  0  0  0  0  0  0  0
   37.2380   33.1270   41.4860 H   0  0  0  0  0  0  0  0  0  0  0  0
   40.6940   28.7320   41.4600 O   0  0  0  0  0  0  0  0  0  0  0  0
   40.6510   30.9710   42.3250 C   0  0  2  0  0  3  0  0  0  0  0  0
   41.4690   29.7280   41.8870 C   0  0  2  0  0  3  0  0  0  0  0  0
   42.3110   30.2420   40.7430 C   0  0  0  0  0  3  0  0  0  0  0  0
   43.1100   29.5910   40.4120 H   0  0  0  0  0  0  0  0  0  0  0  0
   42.7990   31.5220   40.9990 O   0  0  0  0  0  0  0  0  0  0  0  0
   41.8140   32.4810   40.7860 C   0  0  0  0  0  3  0  0  0  0  0  0
   42.0290   33.2980   41.5040 H   0  0  0  0  0  0  0  0  0  0  0  0
   40.4630   31.9120   41.1280 C   0  0  2  0  0  3  0  0  0  0  0  0
   41.3850   31.7270   43.2390 O   0  0  0  0  0  0  0  0  0  0  0  0
   40.7670   32.3950   43.6000 H   0  0  0  0  0  0  0  0  0  0  0  0
   39.6920   32.9690   41.6340 O   0  0  0  0  0  0  0  0  0  0  0  0
   38.9170   33.1980   41.0890 H   0  0  0  0  0  0  0  0  0  0  0  0
  1  6  1  6  0  0  0
  1  2  1  0  0  0  0
  1  5  1  0  0  0  0
  2  7  1  1  0  0  0
  2  3  1  0  0  0  0
  3  4  1  0  0  0  0
  3  9  1  0  0  0  0
  5 10  1  0  0  0  0
  5  4  1  0  0  0  0
  8  3  1  0  0  0  0
 11  5  1  0  0  0  0
 12 14  1  0  0  0  0
 12  2  1  0  0  0  0
 14 15  1  0  0  0  0
 14 13  2  1  0  0  0
 15 16  1  0  0  0  0
 17 14  1  0  0  0  0
 18 26  1  0  0  0  0
 18 23  1  0  0  0  0
 19 18  2  0  0  0  0
 20 19  1  0  0  0  0
 20 21  2  0  0  0  0
 21 22  1  0  0  0  0
 22 23  2  0  0  0  0
 22 17  1  0  0  0  0
 24 19  1  0  0  0  0
 25 20  1  0  0  0  0
 26 27  1  0  0  0  0
 28  1  1  0  0  0  0
 29 37  1  1  0  0  0
 30 28  1  6  0  0  0
 30 29  1  0  0  0  0
 31 33  1  0  0  0  0
 31 30  1  0  0  0  0
 32 31  1  0  0  0  0
 34 33  1  0  0  0  0
 34 36  1  0  0  0  0
 34 35  1  0  0  0  0
 36 39  1  1  0  0  0
 36 29  1  0  0  0  0
 37 38  1  0  0  0  0
 40 39  1  0  0  0  0
M  END
>  <minimizedAffinity>
-5.96943378

$$$$

 OpenBabel03252500263D

 40 42  0  0  1  0  0  0  0  0999 V2000
   36.9260   30.5950   38.4440 C   0  0  2  0  0  0  0  0  0  0  0  0
   37.2200   29.4530   39.3390 C   0  0  2  0  0  0  0  0  0  0  0  0
   37.0990   28.2660   38.4560 C   0  0  0  0  0  0  0  0  0  0  0  0
   37.4500   28.6640   37.1790 O   0  0  0  0  0  0  0  0  0  0  0  0
   37.5460   30.0170   37.1470 C   0  0  0  0  0  0  0  0  0  0  0  0
   35.9770   30.9010   38.1150 H   0  0  0  0  0  0  0  0  0  0  0  0
   38.2570   29.6110   39.7000 H   0  0  0  0  0  0  0  0  0  0  0  0
   36.2310   27.6240   38.5540 H   0  0  0  0  0  0  0  0  0  0  0  0
   37.9490   27.5740   38.7500 H   0  0  0  0  0  0  0  0  0  0  0  0
   38.6170   30.2940   37.0860 H   0  0  0  0  0  0  0  0  0  0  0  0
   37.0790   30.4120   36.2420 H   0  0  0  0  0  0  0  0  0  0  0  0
   36.4060   29.3880   40.4480 O   0  0  0  0  0  0  0  0  0  0  0  0
   37.7810   29.9860   42.5350 O   0  0  0  0  0  0  0  0  0  0  0  0
   37.2740   28.8090   41.7480 P   0  0  1  0  0  0  0  0  0  0  0  0
   36.2560   27.8900   42.7420 O   0  0  0  0  0  0  0  0  0  0  0  0
   36.6980   27.6980   43.6080 H   0  0  0  0  0  0  0  0  0  0  0  0
   38.6490   27.9110   41.2730 O   0  0  0  0  0  0  0  0  0  0  0  0
   38.6590   24.4410   42.1140 C   0  0  0  0  0  0  0  0  0  0  0  0
   39.6670   24.3290   43.1080 C   0  0  0  0  0  0  0  0  0  0  0  0
   40.3390   25.5050   43.4710 C   0  0  0  0  0  0  0  0  0  0  0  0
   39.9830   26.6580   42.8510 N   0  0  0  0  0  0  0  0  0  0  0  0
   39.0210   26.7240   41.9130 C   0  0  0  0  0  0  0  0  0  0  0  0
   38.3650   25.6130   41.5510 N   0  0  0  0  0  0  0  0  0  0  0  0
   39.9240   23.3870   43.5810 H   0  0  0  0  0  0  0  0  0  0  0  0
   41.1160   25.4860   44.2200 H   0  0  0  0  0  0  0  0  0  0  0  0
   38.0000   23.2840   41.7570 O   0  0  0  0  0  0  0  0  0  0  0  0
   37.5280   23.1630   40.8730 H   0  0  0  0  0  0  0  0  0  0  0  0
   37.5310   31.7650   38.8200 O   0  0  0  0  0  0  0  0  0  0  0  0
   38.5730   32.6980   40.7710 C   0  0  2  0  0  3  0  0  0  0  0  0
   38.6690   31.7980   39.5120 C   0  0  2  0  0  3  0  0  0  0  0  0
   39.7470   32.4590   38.6840 C   0  0  0  0  0  3  0  0  0  0  0  0
   40.1220   31.8840   37.8470 H   0  0  0  0  0  0  0  0  0  0  0  0
   40.8000   32.9100   39.4780 O   0  0  0  0  0  0  0  0  0  0  0  0
   40.4680   34.1030   40.1120 C   0  0  0  0  0  3  0  0  0  0  0  0
   41.0130   34.0920   41.0770 H   0  0  0  0  0  0  0  0  0  0  0  0
   38.9940   34.1300   40.4150 C   0  0  2  0  0  3  0  0  0  0  0  0
   39.5140   32.2940   41.7190 O   0  0  0  0  0  0  0  0  0  0  0  0
   39.2990   32.7800   42.5410 H   0  0  0  0  0  0  0  0  0  0  0  0
   38.8370   34.8460   41.6100 O   0  0  0  0  0  0  0  0  0  0  0  0
   38.3380   35.6780   41.5170 H   0  0  0  0  0  0  0  0  0  0  0  0
  1  6  1  6  0  0  0
  1 28  1  0  0  0  0
  1  2  1  0  0  0  0
  2  7  1  1  0  0  0
  2 12  1  0  0  0  0
  3  8  1  0  0  0  0
  3  9  1  0  0  0  0
  3  2  1  0  0  0  0
  4  3  1  0  0  0  0
  5  4  1  0  0  0  0
  5  1  1  0  0  0  0
 10  5  1  0  0  0  0
 11  5  1  0  0  0  0
 12 14  1  0  0  0  0
 14 13  2  1  0  0  0
 14 15  1  0  0  0  0
 15 16  1  0  0  0  0
 17 14  1  0  0  0  0
 17 22  1  0  0  0  0
 18 19  1  0  0  0  0
 19 20  2  0  0  0  0
 19 24  1  0  0  0  0
 20 25  1  0  0  0  0
 21 20  1  0  0  0  0
 22 21  2  0  0  0  0
 23 22  1  0  0  0  0
 23 18  2  0  0  0  0
 26 18  1  0  0  0  0
 27 26  1  0  0  0  0
 29 37  1  1  0  0  0
 30 28  1  6  0  0  0
 30 29  1  0  0  0  0
 31 33  1  0  0  0  0
 31 30  1  0  0  0  0
 32 31  1  0  0  0  0
 33 34  1  0  0  0  0
 34 36  1  0  0  0  0
 34 35  1  0  0  0  0
 36 29  1  0  0  0  0
 36 39  1  1  0  0  0
 37 38  1  0  0  0  0
 40 39  1  0  0  0  0
M  END
>  <minimizedAffinity>
-5.9631319

$$$$
