REMARK  Name = 
REMARK  7 active torsions:
REMARK  status: ('A' for Active; 'I' for Inactive)
REMARK    1  A    between atoms: C_1  and  C_4
REMARK    2  A    between atoms: C_1  and  C_9
REMARK    3  A    between atoms: C_2  and  O_7
REMARK    4  A    between atoms: C_8  and  C_10
REMARK    5  A    between atoms: C_14  and  C_31
REMARK    6  A    between atoms: O_29  and  C_30
REMARK    7  A    between atoms: C_37  and  O_38
REMARK                            x       y       z     vdW  Elec       q    Type
REMARK                         _______ _______ _______ _____ _____    ______ ____
ROOT
ATOM      1  C   UNL     1      49.505  31.948  41.680  0.00  0.00    +0.000 A 
ATOM      2  C   UNL     1      50.896  31.882  41.926  0.00  0.00    +0.000 A 
ATOM      3  C   UNL     1      51.779  31.708  40.844  0.00  0.00    +0.000 A 
ATOM      4  N   UNL     1      51.224  31.614  39.614  0.00  0.00    +0.000 NA
ATOM      5  C   UNL     1      49.887  31.681  39.405  0.00  0.00    +0.000 A 
ATOM      6  N   UNL     1      49.075  31.845  40.439  0.00  0.00    +0.000 NA
ATOM      7  H   UNL     1      51.367  31.954  42.907  0.00  0.00    +0.000 HD
ATOM      8  H   UNL     1      52.849  31.654  41.013  0.00  0.00    +0.000 HD
ENDROOT
BRANCH   5  10
ATOM      9  C   UNL     1      47.998  31.988  37.848  0.00  0.00    +0.000 C 
ATOM     10  C   UNL     1      49.424  31.561  37.988  0.00  0.00    +0.000 C 
ATOM     11  C   UNL     1      49.549  30.148  37.483  0.00  0.00    +0.000 C 
ATOM     12  H   UNL     1      50.256  29.595  38.140  0.00  0.00    +0.000 HD
ATOM     13  O   UNL     1      48.337  29.464  37.529  0.00  0.00    +0.000 OA
ATOM     14  C   UNL     1      47.427  29.963  36.602  0.00  0.00    +0.000 C 
ATOM     15  H   UNL     1      46.429  29.576  36.892  0.00  0.00    +0.000 HD
ATOM     16  C   UNL     1      47.382  31.456  36.580  0.00  0.00    +0.000 C 
BRANCH   9  17
ATOM     17  O   UNL     1      47.869  33.382  37.842  0.00  0.00    +0.000 OA
ATOM     18  H   UNL     1      48.673  33.763  37.411  0.00  0.00    +0.000 HD
ENDBRANCH   9  17
BRANCH  16  19
ATOM     19  O   UNL     1      47.997  31.987  35.433  0.00  0.00    +0.000 OA
ATOM     20  H   UNL     1      48.260  32.927  35.568  0.00  0.00    +0.000 HD
ENDBRANCH  16  19
ENDBRANCH   5  10
BRANCH   1  21
ATOM     21  C   UNL     1      48.645  32.129  42.840  0.00  0.00    +0.000 C 
ATOM     22  C   UNL     1      48.044  33.307  42.998  0.00  0.00    +0.000 C 
BRANCH  22  23
ATOM     23  C   UNL     1      47.151  33.599  44.136  0.00  0.00    +0.000 C 
ATOM     24  H   UNL     1      46.967  32.710  44.745  0.00  0.00    +0.000 HD
ATOM     25  H   UNL     1      47.678  34.353  44.784  0.00  0.00    +0.000 HD
BRANCH  23  28
ATOM     26  C   UNL     1      44.753  36.203  43.429  0.00  0.00    +0.000 C 
ATOM     27  C   UNL     1      45.928  35.395  42.878  0.00  0.00    +0.000 C 
ATOM     28  C   UNL     1      45.797  34.138  43.670  0.00  0.00    +0.000 C 
ATOM     29  O   UNL     1      44.943  34.346  44.721  0.00  0.00    +0.000 OA
ATOM     30  C   UNL     1      44.705  35.693  44.849  0.00  0.00    +0.000 C 
ATOM     31  H   UNL     1      43.830  35.901  42.896  0.00  0.00    +0.000 HD
ATOM     32  H   UNL     1      46.863  35.937  43.098  0.00  0.00    +0.000 HD
ATOM     33  H   UNL     1      45.803  35.144  41.812  0.00  0.00    +0.000 HD
ATOM     34  H   UNL     1      45.369  33.309  43.054  0.00  0.00    +0.000 HD
ATOM     35  H   UNL     1      45.392  36.222  45.526  0.00  0.00    +0.000 HD
ATOM     36  H   UNL     1      43.657  35.850  45.211  0.00  0.00    +0.000 HD
BRANCH  26  37
ATOM     37  O   UNL     1      45.026  37.563  43.364  0.00  0.00    +0.000 OA
ATOM     38  H   UNL     1      44.810  37.861  42.446  0.00  0.00    +0.000 HD
ENDBRANCH  26  37
ENDBRANCH  23  28
ENDBRANCH  22  23
ENDBRANCH   1  21
TORSDOF 7
