
 OpenBabel03242519063D

 46 49  0  0  1  0  0  0  0  0999 V2000
   49.1230   32.8430   39.9890 N   0  0  0  0  0  0  0  0  0  0  0  0
   50.1560   32.8290   40.1570 H   0  0  0  0  0  0  0  0  0  0  0  0
   47.4790   33.7270   43.0200 N   0  0  0  0  0  0  0  0  0  0  0  0
   48.1970   34.1620   41.8340 C   0  0  0  0  0  0  0  0  0  0  0  0
   48.1890   32.8740   41.0690 C   0  0  2  0  0  0  0  0  0  0  0  0
   48.6580   31.8850   42.1240 C   0  0  0  0  0  0  0  0  0  0  0  0
   48.0330   32.4290   43.3820 C   0  0  0  0  0  0  0  0  0  0  0  0
   49.2400   34.4300   42.0670 H   0  0  0  0  0  0  0  0  0  0  0  0
   47.6840   34.9630   41.2760 H   0  0  0  0  0  0  0  0  0  0  0  0
   47.1770   32.6060   40.7020 H   0  0  0  0  0  0  0  0  0  0  0  0
   49.7580   31.8060   42.1680 H   0  0  0  0  0  0  0  0  0  0  0  0
   48.2190   30.8790   41.8830 H   0  0  0  0  0  0  0  0  0  0  0  0
   48.8490   32.5880   44.1110 H   0  0  0  0  0  0  0  0  0  0  0  0
   47.2920   31.7420   43.8030 H   0  0  0  0  0  0  0  0  0  0  0  0
   44.7160   35.9730   44.1010 C   0  0  0  0  0  0  0  0  0  0  0  0
   45.7150   35.4350   43.2960 C   0  0  0  0  0  0  0  0  0  0  0  0
   46.4530   34.3450   43.7460 C   0  0  0  0  0  0  0  0  0  0  0  0
   46.1350   33.8680   44.9780 N   0  0  0  0  0  0  0  0  0  0  0  0
   45.1750   34.3770   45.7620 C   0  0  0  0  0  0  0  0  0  0  0  0
   44.4580   35.4440   45.3130 N   0  0  0  0  0  0  0  0  0  0  0  0
   44.1690   36.8210   43.7080 H   0  0  0  0  0  0  0  0  0  0  0  0
   45.9800   35.8100   42.3030 H   0  0  0  0  0  0  0  0  0  0  0  0
   44.9630   33.9530   46.7410 H   0  0  0  0  0  0  0  0  0  0  0  0
   49.4200   31.8140   37.7540 C   0  0  0  0  0  0  0  0  0  0  0  0
   48.9660   32.8270   38.5900 C   0  0  0  0  0  0  0  0  0  0  0  0
   48.3350   33.8390   37.9190 C   0  0  0  0  0  0  0  0  0  0  0  0
   48.1350   33.9110   36.5600 C   0  0  0  0  0  0  0  0  0  0  0  0
   48.6040   32.8820   35.7750 C   0  0  0  0  0  0  0  0  0  0  0  0
   49.2490   31.8300   36.3870 C   0  0  0  0  0  0  0  0  0  0  0  0
   47.9390   34.6850   38.4680 H   0  0  0  0  0  0  0  0  0  0  0  0
   47.6280   34.7370   36.0790 H   0  0  0  0  0  0  0  0  0  0  0  0
   48.5100   32.8220   34.6980 H   0  0  0  0  0  0  0  0  0  0  0  0
   49.3640   29.4330   36.3680 C   0  0  2  0  0  3  0  0  0  0  0  0
   49.7880   30.6760   35.6160 C   0  0  2  0  0  3  0  0  0  0  0  0
   51.2910   30.6510   35.5500 C   0  0  0  0  0  3  0  0  0  0  0  0
   51.5740   30.2560   34.5310 H   0  0  0  0  0  0  0  0  0  0  0  0
   51.8300   29.7410   36.4540 O   0  0  0  0  0  0  0  0  0  0  0  0
   51.5470   28.4430   36.0330 C   0  0  0  0  0  3  0  0  0  0  0  0
   52.0260   28.3150   35.0390 H   0  0  0  0  0  0  0  0  0  0  0  0
   50.0630   28.1920   35.8600 C   0  0  1  0  0  3  0  0  0  0  0  0
   48.0040   29.2000   36.3450 O   0  0  0  0  0  0  0  0  0  0  0  0
   47.5320   29.6200   37.1050 H   0  0  0  0  0  0  0  0  0  0  0  0
   49.6450   27.1400   36.6830 O   0  0  0  0  0  0  0  0  0  0  0  0
   48.8000   27.3720   37.1740 H   0  0  0  0  0  0  0  0  0  0  0  0
   50.6480   29.7940   38.8880 N   0  0  0  0  0  0  0  0  0  0  0  0
   50.1090   30.6860   38.3800 C   0  0  0  0  0  0  0  0  0  0  0  0
  1  2  1  0  0  0  0
  1  5  1  0  0  0  0
  3  7  1  0  0  0  0
  3 17  1  0  0  0  0
  4  8  1  0  0  0  0
  4  3  1  0  0  0  0
  5 10  1  6  0  0  0
  5  4  1  0  0  0  0
  5  6  1  0  0  0  0
  6 11  1  0  0  0  0
  6  7  1  0  0  0  0
  7 14  1  0  0  0  0
  7 13  1  0  0  0  0
  9  4  1  0  0  0  0
 12  6  1  0  0  0  0
 15 20  1  0  0  0  0
 16 17  1  0  0  0  0
 16 15  2  0  0  0  0
 17 18  2  0  0  0  0
 18 19  1  0  0  0  0
 19 23  1  0  0  0  0
 20 19  2  0  0  0  0
 21 15  1  0  0  0  0
 22 16  1  0  0  0  0
 24 46  1  0  0  0  0
 24 25  1  0  0  0  0
 25  1  1  0  0  0  0
 26 30  1  0  0  0  0
 26 25  2  0  0  0  0
 27 26  1  0  0  0  0
 28 29  1  0  0  0  0
 28 27  2  0  0  0  0
 29 24  2  0  0  0  0
 31 27  1  0  0  0  0
 32 28  1  0  0  0  0
 33 41  1  6  0  0  0
 34 33  1  0  0  0  0
 34 29  1  1  0  0  0
 35 34  1  0  0  0  0
 35 37  1  0  0  0  0
 36 35  1  0  0  0  0
 38 37  1  0  0  0  0
 39 38  1  0  0  0  0
 40 38  1  0  0  0  0
 40 33  1  0  0  0  0
 40 43  1  1  0  0  0
 41 42  1  0  0  0  0
 43 44  1  0  0  0  0
 46 45  3  0  0  0  0
M  END
>  <minimizedAffinity>
-4.60958004

>  <minimizedRMSD>
0.800840318

$$$$
