
 OpenBabel03242513073D

 44 48  0  0  1  0  0  0  0  0999 V2000
   45.9430   33.2400   41.6240 C   0  0  0  0  0  0  0  0  0  0  0  0
   47.1290   33.9220   41.3260 C   0  0  0  0  0  0  0  0  0  0  0  0
   48.1000   33.9630   42.3120 C   0  0  0  0  0  0  0  0  0  0  0  0
   47.8260   33.3370   43.4980 N   0  0  0  0  0  0  0  0  0  0  0  0
   46.6970   32.6940   43.7700 C   0  0  0  0  0  0  0  0  0  0  0  0
   45.7370   32.6380   42.8260 N   0  0  0  0  0  0  0  0  0  0  0  0
   45.1730   33.1940   40.8740 H   0  0  0  0  0  0  0  0  0  0  0  0
   46.7110   30.7290   45.2330 C   0  0  0  0  0  0  0  0  0  0  0  0
   46.5100   32.0640   45.0600 C   0  0  0  0  0  0  0  0  0  0  0  0
   46.1120   32.9120   46.1160 C   0  0  0  0  0  0  0  0  0  0  0  0
   45.9100   32.3860   47.3890 C   0  0  0  0  0  0  0  0  0  0  0  0
   45.5370   32.8780   48.6050 N   0  0  0  0  0  0  0  0  0  0  0  0
   45.5240   31.8250   49.4760 C   0  0  0  0  0  0  0  0  0  0  0  0
   45.8850   30.7090   48.7920 N   0  0  0  0  0  0  0  0  0  0  0  0
   46.1260   31.0270   47.5100 C   0  0  0  0  0  0  0  0  0  0  0  0
   46.5150   30.1790   46.4970 C   0  0  0  0  0  0  0  0  0  0  0  0
   47.0160   30.1120   44.3990 H   0  0  0  0  0  0  0  0  0  0  0  0
   45.9500   33.9760   45.9910 H   0  0  0  0  0  0  0  0  0  0  0  0
   45.3190   33.8810   48.7690 H   0  0  0  0  0  0  0  0  0  0  0  0
   45.2610   31.9360   50.5180 H   0  0  0  0  0  0  0  0  0  0  0  0
   46.6670   29.1210   46.6610 H   0  0  0  0  0  0  0  0  0  0  0  0
   49.3770   34.6680   42.0580 C   0  0  0  0  0  0  0  0  0  0  0  0
   49.1590   35.7990   41.2580 F   0  0  0  0  0  0  0  0  0  0  0  0
   49.9130   35.1300   43.2370 F   0  0  0  0  0  0  0  0  0  0  0  0
   50.2260   33.8080   41.4230 F   0  0  0  0  0  0  0  0  0  0  0  0
   47.2720   34.4990   40.1120 O   0  0  0  0  0  0  0  0  0  0  0  0
   47.3750   33.7560   38.9510 C   0  0  0  0  0  0  0  0  0  0  0  0
   48.3870   34.4020   38.2510 C   0  0  0  0  0  0  0  0  0  0  0  0
   48.5460   33.4350   36.7030 S   0  0  0  0  0  0  0  0  0  0  0  0
   47.1630   32.2740   37.2830 C   0  0  0  0  0  0  0  0  0  0  0  0
   46.9500   32.7500   38.2540 N   0  0  0  0  0  0  0  0  0  0  0  0
   49.2260   35.2590   38.1040 H   0  0  0  0  0  0  0  0  0  0  0  0
   45.8310   30.1610   37.3930 C   0  0  2  0  0  3  0  0  0  0  0  0
   46.6200   31.0890   36.5310 C   0  0  2  0  0  3  0  0  0  0  0  0
   47.7520   30.3550   35.8230 C   0  0  0  0  0  3  0  0  0  0  0  0
   47.2420   29.6180   35.1530 H   0  0  0  0  0  0  0  0  0  0  0  0
   48.6180   29.7390   36.7160 O   0  0  0  0  0  0  0  0  0  0  0  0
   47.9510   28.8000   37.4860 C   0  0  0  0  0  3  0  0  0  0  0  0
   48.3130   27.7850   37.2340 H   0  0  0  0  0  0  0  0  0  0  0  0
   46.4590   28.7820   37.2670 C   0  0  1  0  0  3  0  0  0  0  0  0
   44.4960   30.0320   37.0110 O   0  0  0  0  0  0  0  0  0  0  0  0
   43.9980   30.8720   37.0080 H   0  0  0  0  0  0  0  0  0  0  0  0
   45.9290   28.0070   38.3150 O   0  0  0  0  0  0  0  0  0  0  0  0
   46.2470   27.0690   38.1950 H   0  0  0  0  0  0  0  0  0  0  0  0
  1  6  1  0  0  0  0
  2  1  2  0  0  0  0
  2  3  1  0  0  0  0
  3  4  2  0  0  0  0
  4  5  1  0  0  0  0
  5  9  1  0  0  0  0
  6  5  2  0  0  0  0
  7  1  1  0  0  0  0
  8 16  1  0  0  0  0
  9  8  2  0  0  0  0
  9 10  1  0  0  0  0
 10 11  2  0  0  0  0
 11 15  1  0  0  0  0
 11 12  1  0  0  0  0
 12 19  1  0  0  0  0
 12 13  1  0  0  0  0
 13 20  1  0  0  0  0
 14 13  2  0  0  0  0
 15 14  1  0  0  0  0
 16 21  1  0  0  0  0
 16 15  2  0  0  0  0
 17  8  1  0  0  0  0
 18 10  1  0  0  0  0
 22  3  1  0  0  0  0
 22 24  1  0  0  0  0
 23 22  1  0  0  0  0
 25 22  1  0  0  0  0
 26  2  1  0  0  0  0
 27 26  1  0  0  0  0
 28 27  2  0  0  0  0
 29 30  1  0  0  0  0
 29 28  1  0  0  0  0
 30 31  2  0  0  0  0
 31 27  1  0  0  0  0
 32 28  1  0  0  0  0
 33 41  1  6  0  0  0
 34 30  1  1  0  0  0
 34 33  1  0  0  0  0
 35 34  1  0  0  0  0
 35 37  1  0  0  0  0
 36 35  1  0  0  0  0
 37 38  1  0  0  0  0
 39 38  1  0  0  0  0
 40 33  1  0  0  0  0
 40 38  1  0  0  0  0
 40 43  1  1  0  0  0
 42 41  1  0  0  0  0
 44 43  1  0  0  0  0
M  END
>  <minimizedAffinity>
-6.12795782

>  <minimizedRMSD>
0.163208067

$$$$
