
 OpenBabel03252506183D

 26 27  0  0  1  0  0  0  0  0999 V2000
   45.1040   35.9710   43.3430 C   0  0  0  0  0  0  0  0  0  0  0  0
   44.3270   35.7190   42.1840 C   0  0  0  0  0  0  0  0  0  0  0  0
   44.5450   34.5240   41.5120 C   0  0  0  0  0  0  0  0  0  0  0  0
   45.4830   33.6570   41.9890 N   0  0  0  0  0  0  0  0  0  0  0  0
   46.2100   33.9290   43.1020 C   0  0  0  0  0  0  0  0  0  0  0  0
   46.0020   35.0870   43.7580 N   0  0  0  0  0  0  0  0  0  0  0  0
   43.5910   36.4150   41.8240 H   0  0  0  0  0  0  0  0  0  0  0  0
   43.9870   34.2620   40.6150 H   0  0  0  0  0  0  0  0  0  0  0  0
   46.8370   32.2150   44.8030 C   0  0  2  0  0  3  0  0  0  0  0  0
   47.1940   32.9250   43.5280 C   0  0  1  0  0  3  0  0  0  0  0  0
   47.3270   31.8660   42.4250 C   0  0  0  0  0  3  0  0  0  0  0  0
   46.4790   31.1380   42.5790 H   0  0  0  0  0  0  0  0  0  0  0  0
   48.4900   31.1820   42.7810 O   0  0  0  0  0  0  0  0  0  0  0  0
   48.1870   30.3160   43.7950 C   0  0  0  0  0  3  0  0  0  0  0  0
   49.1780   29.9210   44.1680 H   0  0  0  0  0  0  0  0  0  0  0  0
   47.3550   30.8250   44.9030 C   0  0  2  0  0  3  0  0  0  0  0  0
   45.4350   32.2950   44.9100 O   0  0  0  0  0  0  0  0  0  0  0  0
   45.0880   31.6130   44.2720 H   0  0  0  0  0  0  0  0  0  0  0  0
   46.2240   29.9830   45.0210 O   0  0  0  0  0  0  0  0  0  0  0  0
   46.0280   29.7340   45.9400 H   0  0  0  0  0  0  0  0  0  0  0  0
   44.8810   37.2310   44.0620 C   0  0  0  0  0  3  0  0  0  0  0  0
   45.5000   38.3190   43.6210 C   0  0  0  0  0  3  0  0  0  0  0  0
   45.3090   39.6250   44.3130 C   0  0  0  0  0  0  0  0  0  0  0  0
   44.3390   40.0650   44.0100 H   0  0  0  0  0  0  0  0  0  0  0  0
   45.2520   39.5000   45.4290 H   0  0  0  0  0  0  0  0  0  0  0  0
   46.0970   40.3400   44.0530 H   0  0  0  0  0  0  0  0  0  0  0  0
  1  6  1  0  0  0  0
  1 21  1  0  0  0  0
  2  1  2  0  0  0  0
  3  4  2  0  0  0  0
  3  2  1  0  0  0  0
  4  5  1  0  0  0  0
  5  6  2  0  0  0  0
  7  2  1  0  0  0  0
  8  3  1  0  0  0  0
  9 16  1  0  0  0  0
  9 17  1  6  0  0  0
 10  5  1  6  0  0  0
 10  9  1  0  0  0  0
 11 12  1  0  0  0  0
 11 13  1  0  0  0  0
 11 10  1  0  0  0  0
 13 14  1  0  0  0  0
 14 15  1  0  0  0  0
 14 16  1  0  0  0  0
 16 19  1  6  0  0  0
 18 17  1  0  0  0  0
 19 20  1  0  0  0  0
 22 21  2  0  0  0  0
 22 23  1  0  0  0  0
 23 25  1  0  0  0  0
 24 23  1  0  0  0  0
 26 23  1  0  0  0  0
M  END
>  <minimizedAffinity>
-3.51098299

>  <minimizedRMSD>
1.68214095

$$$$
