
     RDKit          3D

 27 28  0  0  0  0  0  0  0  0999 V2000
   45.0018   35.4849   44.1873 C   0  0  0  0  0  0  0  0  0  0  0  0
   45.9772   34.9333   43.3400 C   0  0  0  0  0  0  0  0  0  0  0  0
   46.7135   33.8312   43.8408 C   0  0  0  0  0  0  0  0  0  0  0  0
   46.4417   33.3774   45.0873 N   0  0  0  0  0  0  0  0  0  0  0  0
   45.4956   33.9415   45.8607 C   0  0  0  0  0  0  0  0  0  0  0  0
   44.7804   34.9843   45.4204 N   0  0  0  0  0  0  0  0  0  0  0  0
   44.2877   36.5503   43.7075 O   0  0  0  0  0  0  0  0  0  0  0  0
   46.1735   35.3158   42.3489 H   0  0  0  0  0  0  0  0  0  0  0  0
   45.2501   33.6030   46.8679 H   0  0  0  0  0  0  0  0  0  0  0  0
   44.7226   37.4641   43.7177 H   0  0  0  0  0  0  0  0  0  0  0  0
   47.3198   35.2517   41.9027 O   0  0  0  0  0  0  0  0  0  0  0  0
   47.7930   33.9389   41.6873 C   0  0  1  0  0  0  0  0  0  0  0  0
   47.7564   33.2069   42.9924 C   0  0  2  0  0  0  0  0  0  0  0  0
   47.3617   31.7480   42.8509 C   0  0  1  0  0  0  0  0  0  0  0  0
   47.9564   31.1837   43.5998 H   0  0  0  0  0  0  0  0  0  0  0  0
   47.6902   31.2160   41.6184 O   0  0  0  0  0  0  0  0  0  0  0  0
   47.0074   31.8175   40.5676 C   0  0  1  0  0  0  0  0  0  0  0  0
   47.6048   31.6407   39.6450 H   0  0  0  0  0  0  0  0  0  0  0  0
   46.8224   33.2912   40.7308 C   0  0  2  0  0  0  0  0  0  0  0  0
   46.9706   33.9197   39.4945 O   0  0  0  0  0  0  0  0  0  0  0  0
   47.5525   35.8748   41.1972 H   0  0  0  0  0  0  0  0  0  0  0  0
   48.7766   34.0360   41.2225 H   0  0  0  0  0  0  0  0  0  0  0  0
   48.7160   33.3060   43.5535 H   0  0  0  0  0  0  0  0  0  0  0  0
   46.2965   31.5647   43.1375 H   0  0  0  0  0  0  0  0  0  0  0  0
   45.9931   31.3536   40.3909 H   0  0  0  0  0  0  0  0  0  0  0  0
   45.7766   33.4954   41.0617 H   0  0  0  0  0  0  0  0  0  0  0  0
   46.9464   34.8876   39.5170 H   0  0  0  0  0  0  0  0  0  0  0  0
  1  6  2  0
  2  3  2  0
  2  1  1  0
  3  4  1  0
  4  5  2  0
  6  5  1  0
  7  1  1  0
  2  8  1  0
  5  9  1  0
  7 10  1  0
 11 12  1  0
 12 13  1  0
 13 14  1  0
 14 15  1  1
 14 16  1  0
 16 17  1  0
 17 18  1  6
 17 19  1  0
 19 20  1  0
 19 12  1  0
 11 21  1  0
 12 22  1  6
 13 23  1  1
 14 24  1  0
 17 25  1  0
 19 26  1  1
 20 27  1  0
  3 13  1  0
M  ISO  5   8  14   9  14  10   3  15   8  18   8
M  END
>  <DihAtoms>  (1) 
1,2,12,11

>  <DihDeg>  (1) 
-120.32930638789271

$$$$
