
 OpenBabel03242519053D

 46 49  0  0  1  0  0  0  0  0999 V2000
   49.0720   33.0580   39.9450 N   0  0  0  0  0  0  0  0  0  0  0  0
   50.0950   33.2180   40.1000 H   0  0  0  0  0  0  0  0  0  0  0  0
   47.4640   33.7170   43.0520 N   0  0  0  0  0  0  0  0  0  0  0  0
   48.1780   34.2370   41.8980 C   0  0  0  0  0  0  0  0  0  0  0  0
   48.1470   33.0140   41.0330 C   0  0  2  0  0  0  0  0  0  0  0  0
   48.6120   31.9390   42.0010 C   0  0  0  0  0  0  0  0  0  0  0  0
   48.0050   32.3880   43.3050 C   0  0  0  0  0  0  0  0  0  0  0  0
   49.2260   34.4730   42.1420 H   0  0  0  0  0  0  0  0  0  0  0  0
   47.6710   35.0860   41.4100 H   0  0  0  0  0  0  0  0  0  0  0  0
   47.1290   32.7880   40.6550 H   0  0  0  0  0  0  0  0  0  0  0  0
   49.7110   31.8440   42.0280 H   0  0  0  0  0  0  0  0  0  0  0  0
   48.1590   30.9610   41.6850 H   0  0  0  0  0  0  0  0  0  0  0  0
   48.8290   32.4780   44.0360 H   0  0  0  0  0  0  0  0  0  0  0  0
   47.2580   31.6790   43.6750 H   0  0  0  0  0  0  0  0  0  0  0  0
   44.6820   35.8510   44.2980 C   0  0  0  0  0  0  0  0  0  0  0  0
   45.6600   35.3610   43.4400 C   0  0  0  0  0  0  0  0  0  0  0  0
   46.4520   34.2870   43.8340 C   0  0  0  0  0  0  0  0  0  0  0  0
   46.2040   33.7770   45.0690 N   0  0  0  0  0  0  0  0  0  0  0  0
   45.2630   34.2390   45.9050 C   0  0  0  0  0  0  0  0  0  0  0  0
   44.4940   35.2900   45.5090 N   0  0  0  0  0  0  0  0  0  0  0  0
   44.0910   36.6870   43.9460 H   0  0  0  0  0  0  0  0  0  0  0  0
   45.8700   35.7630   42.4440 H   0  0  0  0  0  0  0  0  0  0  0  0
   45.1090   33.7910   46.8830 H   0  0  0  0  0  0  0  0  0  0  0  0
   49.3960   31.8600   37.8010 C   0  0  0  0  0  0  0  0  0  0  0  0
   48.9160   32.9250   38.5520 C   0  0  0  0  0  0  0  0  0  0  0  0
   48.2600   33.8640   37.8030 C   0  0  0  0  0  0  0  0  0  0  0  0
   48.0590   33.8210   36.4420 C   0  0  0  0  0  0  0  0  0  0  0  0
   48.5540   32.7430   35.7420 C   0  0  0  0  0  0  0  0  0  0  0  0
   49.2250   31.7600   36.4370 C   0  0  0  0  0  0  0  0  0  0  0  0
   47.8430   34.7410   38.2820 H   0  0  0  0  0  0  0  0  0  0  0  0
   47.5320   34.5910   35.8970 H   0  0  0  0  0  0  0  0  0  0  0  0
   48.4620   32.5940   34.6750 H   0  0  0  0  0  0  0  0  0  0  0  0
   49.6030   29.4080   36.7220 C   0  0  2  0  0  3  0  0  0  0  0  0
   49.7930   30.5620   35.7610 C   0  0  2  0  0  3  0  0  0  0  0  0
   51.2700   30.6670   35.4980 C   0  0  0  0  0  3  0  0  0  0  0  0
   51.4720   30.1570   34.5120 H   0  0  0  0  0  0  0  0  0  0  0  0
   52.0130   29.9540   36.4340 O   0  0  0  0  0  0  0  0  0  0  0  0
   51.8260   28.5890   36.2300 C   0  0  0  0  0  3  0  0  0  0  0  0
   52.1940   28.3610   35.2070 H   0  0  0  0  0  0  0  0  0  0  0  0
   50.3700   28.1770   36.2940 C   0  0  1  0  0  3  0  0  0  0  0  0
   48.2840   29.0490   36.9120 O   0  0  0  0  0  0  0  0  0  0  0  0
   47.8640   29.5290   37.6670 H   0  0  0  0  0  0  0  0  0  0  0  0
   50.1730   27.2220   37.2980 O   0  0  0  0  0  0  0  0  0  0  0  0
   49.3730   27.4430   37.8630 H   0  0  0  0  0  0  0  0  0  0  0  0
   50.6720   29.9680   39.0920 N   0  0  0  0  0  0  0  0  0  0  0  0
   50.1120   30.8030   38.5140 C   0  0  0  0  0  0  0  0  0  0  0  0
  1  2  1  0  0  0  0
  1  5  1  0  0  0  0
  3  7  1  0  0  0  0
  3 17  1  0  0  0  0
  4  8  1  0  0  0  0
  4  3  1  0  0  0  0
  5 10  1  6  0  0  0
  5  4  1  0  0  0  0
  5  6  1  0  0  0  0
  6 11  1  0  0  0  0
  6  7  1  0  0  0  0
  7 14  1  0  0  0  0
  7 13  1  0  0  0  0
  9  4  1  0  0  0  0
 12  6  1  0  0  0  0
 15 20  1  0  0  0  0
 16 17  1  0  0  0  0
 16 15  2  0  0  0  0
 17 18  2  0  0  0  0
 18 19  1  0  0  0  0
 19 23  1  0  0  0  0
 20 19  2  0  0  0  0
 21 15  1  0  0  0  0
 22 16  1  0  0  0  0
 24 46  1  0  0  0  0
 24 25  1  0  0  0  0
 25  1  1  0  0  0  0
 26 30  1  0  0  0  0
 26 25  2  0  0  0  0
 27 26  1  0  0  0  0
 28 29  1  0  0  0  0
 28 27  2  0  0  0  0
 29 24  2  0  0  0  0
 31 27  1  0  0  0  0
 32 28  1  0  0  0  0
 33 41  1  6  0  0  0
 34 29  1  1  0  0  0
 34 33  1  0  0  0  0
 35 34  1  0  0  0  0
 35 37  1  0  0  0  0
 36 35  1  0  0  0  0
 38 40  1  0  0  0  0
 38 37  1  0  0  0  0
 39 38  1  0  0  0  0
 40 33  1  0  0  0  0
 40 43  1  1  0  0  0
 41 42  1  0  0  0  0
 43 44  1  0  0  0  0
 46 45  3  0  0  0  0
M  END
>  <minimizedAffinity>
-4.56119823

>  <minimizedRMSD>
0.700590789

$$$$
