
 OpenBabel03242519053D

 46 49  0  0  1  0  0  0  0  0999 V2000
   48.9240   32.8560   40.1030 N   0  0  0  0  0  0  0  0  0  0  0  0
   49.9620   32.7990   40.2230 H   0  0  0  0  0  0  0  0  0  0  0  0
   47.4080   33.5840   43.2420 N   0  0  0  0  0  0  0  0  0  0  0  0
   48.0730   34.0800   42.0470 C   0  0  0  0  0  0  0  0  0  0  0  0
   48.0380   32.8290   41.2230 C   0  0  2  0  0  0  0  0  0  0  0  0
   48.5580   31.7950   42.2080 C   0  0  0  0  0  0  0  0  0  0  0  0
   47.9850   32.2740   43.5170 C   0  0  0  0  0  0  0  0  0  0  0  0
   49.1230   34.3440   42.2470 H   0  0  0  0  0  0  0  0  0  0  0  0
   47.5310   34.9030   41.5500 H   0  0  0  0  0  0  0  0  0  0  0  0
   47.0130   32.5710   40.8880 H   0  0  0  0  0  0  0  0  0  0  0  0
   49.6590   31.7230   42.2010 H   0  0  0  0  0  0  0  0  0  0  0  0
   48.1140   30.7990   41.9400 H   0  0  0  0  0  0  0  0  0  0  0  0
   48.8320   32.4050   44.2170 H   0  0  0  0  0  0  0  0  0  0  0  0
   47.2670   31.5630   43.9360 H   0  0  0  0  0  0  0  0  0  0  0  0
   44.6450   35.7200   44.5240 C   0  0  0  0  0  0  0  0  0  0  0  0
   45.6060   35.2240   43.6490 C   0  0  0  0  0  0  0  0  0  0  0  0
   46.4120   34.1590   44.0390 C   0  0  0  0  0  0  0  0  0  0  0  0
   46.1950   33.6640   45.2860 N   0  0  0  0  0  0  0  0  0  0  0  0
   45.2720   34.1320   46.1370 C   0  0  0  0  0  0  0  0  0  0  0  0
   44.4880   35.1750   45.7460 N   0  0  0  0  0  0  0  0  0  0  0  0
   44.0420   36.5490   44.1750 H   0  0  0  0  0  0  0  0  0  0  0  0
   45.7900   35.6140   42.6440 H   0  0  0  0  0  0  0  0  0  0  0  0
   45.1420   33.6960   47.1240 H   0  0  0  0  0  0  0  0  0  0  0  0
   48.8320   31.9020   37.8190 C   0  0  0  0  0  0  0  0  0  0  0  0
   48.7080   32.9550   38.7160 C   0  0  0  0  0  0  0  0  0  0  0  0
   48.3480   34.1330   38.1200 C   0  0  0  0  0  0  0  0  0  0  0  0
   48.1160   34.3260   36.7780 C   0  0  0  0  0  0  0  0  0  0  0  0
   48.2520   33.2500   35.9290 C   0  0  0  0  0  0  0  0  0  0  0  0
   48.6120   32.0330   36.4640 C   0  0  0  0  0  0  0  0  0  0  0  0
   48.2220   35.0250   38.7210 H   0  0  0  0  0  0  0  0  0  0  0  0
   47.8330   35.2820   36.3570 H   0  0  0  0  0  0  0  0  0  0  0  0
   48.0980   33.2740   34.8580 H   0  0  0  0  0  0  0  0  0  0  0  0
   49.9460   31.1060   34.6980 C   0  0  2  0  0  3  0  0  0  0  0  0
   48.7820   30.8180   35.6210 C   0  0  2  0  0  3  0  0  0  0  0  0
   47.5940   30.5290   34.7440 C   0  0  0  0  0  3  0  0  0  0  0  0
   47.4850   29.4080   34.6870 H   0  0  0  0  0  0  0  0  0  0  0  0
   47.8100   30.9400   33.4330 O   0  0  0  0  0  0  0  0  0  0  0  0
   48.7590   30.1110   32.8370 C   0  0  0  0  0  3  0  0  0  0  0  0
   48.3400   29.0820   32.8450 H   0  0  0  0  0  0  0  0  0  0  0  0
   50.0700   30.0760   33.5980 C   0  0  1  0  0  3  0  0  0  0  0  0
   51.1630   31.1960   35.3410 O   0  0  0  0  0  0  0  0  0  0  0  0
   51.3760   32.1180   35.6260 H   0  0  0  0  0  0  0  0  0  0  0  0
   51.1230   30.4990   32.7790 O   0  0  0  0  0  0  0  0  0  0  0  0
   51.7140   31.1580   33.2530 H   0  0  0  0  0  0  0  0  0  0  0  0
   49.5090   29.5680   38.8040 N   0  0  0  0  0  0  0  0  0  0  0  0
   49.2130   30.5990   38.3620 C   0  0  0  0  0  0  0  0  0  0  0  0
  1  2  1  0  0  0  0
  1  5  1  0  0  0  0
  3  7  1  0  0  0  0
  3 17  1  0  0  0  0
  4  8  1  0  0  0  0
  4  3  1  0  0  0  0
  5 10  1  6  0  0  0
  5  4  1  0  0  0  0
  5  6  1  0  0  0  0
  6  7  1  0  0  0  0
  7 14  1  0  0  0  0
  7 13  1  0  0  0  0
  9  4  1  0  0  0  0
 11  6  1  0  0  0  0
 12  6  1  0  0  0  0
 15 20  1  0  0  0  0
 16 17  1  0  0  0  0
 16 15  2  0  0  0  0
 17 18  2  0  0  0  0
 18 19  1  0  0  0  0
 19 23  1  0  0  0  0
 20 19  2  0  0  0  0
 21 15  1  0  0  0  0
 22 16  1  0  0  0  0
 24 46  1  0  0  0  0
 24 25  1  0  0  0  0
 25  1  1  0  0  0  0
 26 25  2  0  0  0  0
 26 30  1  0  0  0  0
 27 26  1  0  0  0  0
 28 29  1  0  0  0  0
 28 27  2  0  0  0  0
 29 24  2  0  0  0  0
 31 27  1  0  0  0  0
 32 28  1  0  0  0  0
 33 41  1  1  0  0  0
 33 34  1  0  0  0  0
 34 29  1  1  0  0  0
 35 34  1  0  0  0  0
 36 35  1  0  0  0  0
 37 35  1  0  0  0  0
 38 39  1  0  0  0  0
 38 37  1  0  0  0  0
 38 40  1  0  0  0  0
 40 43  1  6  0  0  0
 40 33  1  0  0  0  0
 41 42  1  0  0  0  0
 43 44  1  0  0  0  0
 46 45  3  0  0  0  0
M  END
>  <minimizedAffinity>
-5.10857773

>  <minimizedRMSD>
1.58134568

$$$$
