
     RDKit          3D

 27 28  0  0  0  0  0  0  0  0999 V2000
   44.5381   36.0313   44.5308 C   0  0  0  0  0  0  0  0  0  0  0  0
   45.2653   35.8886   43.3162 C   0  0  0  0  0  0  0  0  0  0  0  0
   46.1333   34.7960   43.1999 C   0  0  0  0  0  0  0  0  0  0  0  0
   46.2343   33.9331   44.2501 N   0  0  0  0  0  0  0  0  0  0  0  0
   45.5211   34.1047   45.3954 C   0  0  0  0  0  0  0  0  0  0  0  0
   44.6864   35.1359   45.5356 N   0  0  0  0  0  0  0  0  0  0  0  0
   47.0725   34.5634   41.7010 S   0  0  0  0  0  0  0  0  0  0  0  0
   43.8722   36.8792   44.6060 H   0  0  0  0  0  0  0  0  0  0  0  0
   45.1373   36.6121   42.5202 H   0  0  0  0  0  0  0  0  0  0  0  0
   47.5826   35.8053   41.2858 H   0  0  0  0  0  0  0  0  0  0  0  0
   47.5894   34.4643   47.0921 O   0  0  0  0  0  0  0  0  0  0  0  0
   46.6268   33.6030   47.5642 C   0  0  2  0  0  0  0  0  0  0  0  0
   45.7197   33.0906   46.4735 C   0  0  1  0  0  0  0  0  0  0  0  0
   44.4346   32.6235   47.0857 C   0  0  1  0  0  0  0  0  0  0  0  0
   43.6829   33.4557   47.1632 H   0  0  0  0  0  0  0  0  0  0  0  0
   44.7305   32.2048   48.3976 O   0  0  0  0  0  0  0  0  0  0  0  0
   44.7582   33.3617   49.1971 C   0  0  2  0  0  0  0  0  0  0  0  0
   44.8823   33.0503   50.2561 H   0  0  0  0  0  0  0  0  0  0  0  0
   45.8719   34.2508   48.7133 C   0  0  1  0  0  0  0  0  0  0  0  0
   46.7988   34.3798   49.7608 O   0  0  0  0  0  0  0  0  0  0  0  0
   47.2667   35.1403   46.4490 H   0  0  0  0  0  0  0  0  0  0  0  0
   47.1459   32.7246   48.0152 H   0  0  0  0  0  0  0  0  0  0  0  0
   46.2355   32.2076   46.0152 H   0  0  0  0  0  0  0  0  0  0  0  0
   44.0114   31.7341   46.5518 H   0  0  0  0  0  0  0  0  0  0  0  0
   43.7609   33.8640   49.0390 H   0  0  0  0  0  0  0  0  0  0  0  0
   45.5012   35.2777   48.4533 H   0  0  0  0  0  0  0  0  0  0  0  0
   47.7025   34.5376   49.3661 H   0  0  0  0  0  0  0  0  0  0  0  0
  1  6  2  0
  2  1  1  0
  3  2  2  0
  3  4  1  0
  4  5  2  0
  5  6  1  0
  7  3  1  0
  1  8  1  0
  2  9  1  0
  7 10  1  0
 11 12  1  0
 12 13  1  0
 13 14  1  0
 14 15  1  1
 14 16  1  0
 16 17  1  0
 17 18  1  1
 17 19  1  0
 19 20  1  0
 19 12  1  0
 11 21  1  0
 12 22  1  1
 13 23  1  6
 14 24  1  0
 17 25  1  0
 19 26  1  6
 20 27  1  0
  5 13  1  0
M  ISO  5   8  14   9  14  10  11  15   8  18   8
M  END
>  <DihAtoms>  (1) 
3,4,12,11

>  <DihDeg>  (1) 
116.73696216272855

$$$$
