
     RDKit          3D

 36 38  0  0  0  0  0  0  0  0999 V2000
   46.6232   34.6984   42.0354 N   0  0  0  0  0  0  0  0  0  0  0  0
   47.8760   35.1838   41.9349 C   0  0  0  0  0  0  0  0  0  0  0  0
   48.5312   35.0747   40.7115 C   0  0  0  0  0  0  0  0  0  0  0  0
   47.8634   34.4792   39.6793 C   0  0  0  0  0  0  0  0  0  0  0  0
   48.4652   34.3799   38.5585 O   0  0  0  0  0  0  0  0  0  0  0  0
   46.6066   33.9891   39.7701 N   0  0  0  0  0  0  0  0  0  0  0  0
   46.0284   34.1266   40.9822 C   0  0  0  0  0  0  0  0  0  0  0  0
   44.8637   33.7077   41.1805 O   0  0  0  0  0  0  0  0  0  0  0  0
   44.4956   36.0329   44.7610 C   0  0  0  0  0  0  0  0  0  0  0  0
   45.1379   35.9260   43.5029 C   0  0  0  0  0  0  0  0  0  0  0  0
   45.9693   34.8201   43.2970 C   0  0  0  0  0  0  0  0  0  0  0  0
   46.1082   33.9231   44.3098 N   0  0  0  0  0  0  0  0  0  0  0  0
   45.4913   34.0465   45.4878 C   0  0  0  0  0  0  0  0  0  0  0  0
   44.6719   35.1130   45.7251 N   0  0  0  0  0  0  0  0  0  0  0  0
   48.4009   35.6572   42.7637 H   0  0  0  0  0  0  0  0  0  0  0  0
   49.5402   35.4634   40.6235 H   0  0  0  0  0  0  0  0  0  0  0  0
   46.1137   33.5343   38.9586 H   0  0  0  0  0  0  0  0  0  0  0  0
   43.8489   36.9028   44.9069 H   0  0  0  0  0  0  0  0  0  0  0  0
   44.9697   36.6883   42.7530 H   0  0  0  0  0  0  0  0  0  0  0  0
   46.5781   31.7169   44.7675 O   0  0  0  0  0  0  0  0  0  0  0  0
   46.6490   31.9532   46.1356 C   0  0  1  0  0  0  0  0  0  0  0  0
   45.6807   33.0330   46.5616 C   0  0  2  0  0  0  0  0  0  0  0  0
   44.3371   32.4970   46.9446 C   0  0  2  0  0  0  0  0  0  0  0  0
   43.5514   33.2104   46.6333 H   0  0  0  0  0  0  0  0  0  0  0  0
   44.1082   31.2982   46.2931 O   0  0  0  0  0  0  0  0  0  0  0  0
   44.9117   30.2727   46.7865 C   0  0  1  0  0  0  0  0  0  0  0  0
   44.5153   30.0142   47.7958 H   0  0  0  0  0  0  0  0  0  0  0  0
   46.3439   30.7125   46.9389 C   0  0  1  0  0  0  0  0  0  0  0  0
   47.1622   29.6934   46.4828 O   0  0  0  0  0  0  0  0  0  0  0  0
   45.6913   31.3226   44.5734 H   0  0  0  0  0  0  0  0  0  0  0  0
   47.6983   32.2449   46.3801 H   0  0  0  0  0  0  0  0  0  0  0  0
   46.1141   33.5040   47.4771 H   0  0  0  0  0  0  0  0  0  0  0  0
   44.2319   32.3864   48.0578 H   0  0  0  0  0  0  0  0  0  0  0  0
   44.8429   29.3909   46.1366 H   0  0  0  0  0  0  0  0  0  0  0  0
   46.5998   30.9118   47.9976 H   0  0  0  0  0  0  0  0  0  0  0  0
   47.8730   30.0317   45.8795 H   0  0  0  0  0  0  0  0  0  0  0  0
  1 11  1  0
  2  1  1  0
  3  2  2  0
  4  6  1  0
  4  3  1  0
  5  4  2  0
  6  7  1  0
  7  8  2  0
  7  1  1  0
  9 14  2  0
 10  9  1  0
 11 10  2  0
 11 12  1  0
 12 13  2  0
 13 14  1  0
  2 15  1  0
  3 16  1  0
  6 17  1  0
  9 18  1  0
 10 19  1  0
 20 21  1  0
 21 22  1  0
 22 23  1  0
 23 24  1  6
 23 25  1  0
 25 26  1  0
 26 27  1  1
 26 28  1  0
 28 29  1  0
 28 21  1  0
 20 30  1  0
 21 31  1  6
 22 32  1  1
 23 33  1  0
 26 34  1  0
 28 35  1  1
 29 36  1  0
 13 22  1  0
M  ISO  7  15  14  16  14  17   9  18  14  19  14  24   8  27   8
M  END
>  <DihAtoms>  (1) 
11,12,21,20

>  <DihDeg>  (1) 
61.71446280843274

$$$$
