
     RDKit          3D

 27 28  0  0  0  0  0  0  0  0999 V2000
   45.5319   34.7114   44.2320 C   0  0  0  0  0  0  0  0  0  0  0  0
   46.5809   33.9061   43.7469 C   0  0  0  0  0  0  0  0  0  0  0  0
   47.1166   32.9262   44.5982 C   0  0  0  0  0  0  0  0  0  0  0  0
   46.5888   32.8122   45.8454 N   0  0  0  0  0  0  0  0  0  0  0  0
   45.5869   33.6005   46.2713 C   0  0  0  0  0  0  0  0  0  0  0  0
   45.0497   34.5474   45.4871 N   0  0  0  0  0  0  0  0  0  0  0  0
   44.9151   35.9343   43.0691 S   0  0  0  0  0  0  0  0  0  0  0  0
   46.9716   34.0270   42.7535 H   0  0  0  0  0  0  0  0  0  0  0  0
   47.9245   32.2873   44.2609 H   0  0  0  0  0  0  0  0  0  0  0  0
   45.7068   37.0842   43.1279 H   0  0  0  0  0  0  0  0  0  0  0  0
   43.6323   31.7166   46.8663 O   0  0  0  0  0  0  0  0  0  0  0  0
   44.5747   31.9858   47.8609 C   0  0  1  0  0  0  0  0  0  0  0  0
   45.0732   33.4140   47.6313 C   0  0  1  0  0  0  0  0  0  0  0  0
   46.0896   33.6459   48.7268 C   0  0  2  0  0  0  0  0  0  0  0  0
   46.6966   34.5399   48.5770 H   0  0  0  0  0  0  0  0  0  0  0  0
   45.3870   33.7783   49.8961 O   0  0  0  0  0  0  0  0  0  0  0  0
   44.6518   32.6956   50.2773 C   0  0  1  0  0  0  0  0  0  0  0  0
   45.2327   31.9577   50.8994 H   0  0  0  0  0  0  0  0  0  0  0  0
   43.9157   31.9675   49.2100 C   0  0  1  0  0  0  0  0  0  0  0  0
   42.6050   32.4319   49.0542 O   0  0  0  0  0  0  0  0  0  0  0  0
   43.3099   30.7874   46.9305 H   0  0  0  0  0  0  0  0  0  0  0  0
   45.4563   31.3371   47.8208 H   0  0  0  0  0  0  0  0  0  0  0  0
   44.2401   34.1470   47.8357 H   0  0  0  0  0  0  0  0  0  0  0  0
   46.7699   32.7678   48.7080 H   0  0  0  0  0  0  0  0  0  0  0  0
   43.8720   33.0910   50.9899 H   0  0  0  0  0  0  0  0  0  0  0  0
   43.8286   30.8903   49.4917 H   0  0  0  0  0  0  0  0  0  0  0  0
   42.6008   33.3691   48.7783 H   0  0  0  0  0  0  0  0  0  0  0  0
  1  6  2  0
  2  1  1  0
  2  3  2  0
  3  4  1  0
  4  5  2  0
  6  5  1  0
  7  1  1  0
  2  8  1  0
  3  9  1  0
  7 10  1  0
 11 12  1  0
 12 13  1  0
 13 14  1  0
 14 15  1  6
 14 16  1  0
 16 17  1  0
 17 18  1  1
 17 19  1  0
 19 20  1  0
 19 12  1  0
 11 21  1  0
 12 22  1  1
 13 23  1  1
 14 24  1  0
 17 25  1  0
 19 26  1  1
 20 27  1  0
  5 13  1  0
M  ISO  5   8  14   9  14  10  11  15   8  18   8
M  END
>  <DihAtoms>  (1) 
3,4,12,11

>  <DihDeg>  (1) 
122.38469572383744

$$$$
