
 OpenBabel03242517183D

 36 38  0  0  1  0  0  0  0  0999 V2000
   39.4310   31.6750   39.0890 C   0  0  0  0  0  0  0  0  0  0  0  0
   38.4890   32.0570   40.0800 C   0  0  0  0  0  0  0  0  0  0  0  0
   38.6340   33.3100   40.6670 C   0  0  0  0  0  0  0  0  0  0  0  0
   39.6780   34.0840   40.2420 N   0  0  0  0  0  0  0  0  0  0  0  0
   40.5420   33.6960   39.3120 C   0  0  0  0  0  0  0  0  0  0  0  0
   40.4240   32.4950   38.7340 N   0  0  0  0  0  0  0  0  0  0  0  0
   39.3100   30.7110   38.6440 H   0  0  0  0  0  0  0  0  0  0  0  0
   37.9120   33.5770   41.4120 H   0  0  0  0  0  0  0  0  0  0  0  0
   42.5180   33.8410   37.9120 C   0  0  2  0  0  3  0  0  0  0  0  0
   41.6660   34.5890   38.8890 C   0  0  2  0  0  3  0  0  0  0  0  0
   42.4640   34.8330   40.1770 C   0  0  0  0  0  3  0  0  0  0  0  0
   41.7020   35.1860   40.9250 H   0  0  0  0  0  0  0  0  0  0  0  0
   42.9020   33.6030   40.6190 O   0  0  0  0  0  0  0  0  0  0  0  0
   43.9560   33.1240   39.8380 C   0  0  0  0  0  3  0  0  0  0  0  0
   44.9310   33.3620   40.2970 H   0  0  0  0  0  0  0  0  0  0  0  0
   43.9300   33.6460   38.4220 C   0  0  2  0  0  3  0  0  0  0  0  0
   42.5890   34.5180   36.6990 O   0  0  0  0  0  0  0  0  0  0  0  0
   42.7580   35.4730   36.8490 H   0  0  0  0  0  0  0  0  0  0  0  0
   44.6800   34.8300   38.2900 O   0  0  0  0  0  0  0  0  0  0  0  0
   45.3730   34.7520   39.0140 H   0  0  0  0  0  0  0  0  0  0  0  0
   37.4020   31.1740   40.4770 C   0  0  0  0  0  3  0  0  0  0  0  0
   36.7910   30.3180   39.7060 C   0  0  0  0  0  3  0  0  0  0  0  0
   35.6810   29.4410   40.1760 C   0  0  0  0  0  0  0  0  0  0  0  0
   35.1370   29.1010   39.2650 H   0  0  0  0  0  0  0  0  0  0  0  0
   34.9430   30.0270   40.7720 H   0  0  0  0  0  0  0  0  0  0  0  0
   36.3730   27.1140   38.8030 F   0  0  0  0  0  0  0  0  0  0  0  0
   36.5340   27.1140   40.1470 C   0  0  0  0  0  0  0  0  0  0  0  0
   36.1950   28.2690   40.8690 C   0  0  0  0  0  0  0  0  0  0  0  0
   36.4030   28.1400   42.2130 C   0  0  0  0  0  0  0  0  0  0  0  0
   36.8900   27.0400   42.8940 C   0  0  0  0  0  0  0  0  0  0  0  0
   37.1990   25.9370   42.0860 C   0  0  0  0  0  0  0  0  0  0  0  0
   37.0340   25.9430   40.7230 C   0  0  0  0  0  0  0  0  0  0  0  0
   36.1670   28.9840   42.8470 H   0  0  0  0  0  0  0  0  0  0  0  0
   37.0260   27.0140   43.9510 H   0  0  0  0  0  0  0  0  0  0  0  0
   37.5870   25.0220   42.5130 H   0  0  0  0  0  0  0  0  0  0  0  0
   37.2670   25.1030   40.0840 H   0  0  0  0  0  0  0  0  0  0  0  0
  1  2  1  0  0  0  0
  2 21  1  0  0  0  0
  2  3  2  0  0  0  0
  3  8  1  0  0  0  0
  4  3  1  0  0  0  0
  5  4  2  0  0  0  0
  6  1  2  0  0  0  0
  6  5  1  0  0  0  0
  7  1  1  0  0  0  0
  9 17  1  6  0  0  0
  9 16  1  0  0  0  0
  9 10  1  0  0  0  0
 10  5  1  1  0  0  0
 10 11  1  0  0  0  0
 11 13  1  0  0  0  0
 11 12  1  0  0  0  0
 14 15  1  0  0  0  0
 14 13  1  0  0  0  0
 16 19  1  1  0  0  0
 16 14  1  0  0  0  0
 17 18  1  0  0  0  0
 19 20  1  0  0  0  0
 22 23  1  0  0  0  0
 22 21  2  0  0  0  0
 23 25  1  0  0  0  0
 23 28  1  0  0  0  0
 24 23  1  0  0  0  0
 26 27  1  0  0  0  0
 27 32  2  0  0  0  0
 27 28  1  0  0  0  0
 28 29  2  0  0  0  0
 29 33  1  0  0  0  0
 29 30  1  0  0  0  0
 30 34  1  0  0  0  0
 31 35  1  0  0  0  0
 31 30  2  0  0  0  0
 32 31  1  0  0  0  0
 36 32  1  0  0  0  0
M  END
>  <minimizedAffinity>
-6.80968332

$$$$

 OpenBabel03242517183D

 36 38  0  0  1  0  0  0  0  0999 V2000
   40.2570   30.5230   40.0670 C   0  0  0  0  0  0  0  0  0  0  0  0
   39.1610   30.7850   40.9310 C   0  0  0  0  0  0  0  0  0  0  0  0
   38.7680   32.1090   41.1020 C   0  0  0  0  0  0  0  0  0  0  0  0
   39.4710   33.0640   40.4200 N   0  0  0  0  0  0  0  0  0  0  0  0
   40.4920   32.7850   39.6190 C   0  0  0  0  0  0  0  0  0  0  0  0
   40.8880   31.5200   39.4390 N   0  0  0  0  0  0  0  0  0  0  0  0
   40.5500   29.5040   39.9420 H   0  0  0  0  0  0  0  0  0  0  0  0
   37.9390   32.2820   41.7580 H   0  0  0  0  0  0  0  0  0  0  0  0
   42.3350   33.2570   38.1140 C   0  0  2  0  0  3  0  0  0  0  0  0
   41.2220   33.8760   38.9000 C   0  0  2  0  0  3  0  0  0  0  0  0
   41.8110   34.7420   40.0210 C   0  0  0  0  0  3  0  0  0  0  0  0
   40.9390   34.9810   40.6900 H   0  0  0  0  0  0  0  0  0  0  0  0
   42.6540   33.9350   40.7540 O   0  0  0  0  0  0  0  0  0  0  0  0
   43.8450   33.6830   40.0700 C   0  0  0  0  0  3  0  0  0  0  0  0
   44.6400   34.3820   40.3860 H   0  0  0  0  0  0  0  0  0  0  0  0
   43.6930   33.7460   38.5700 C   0  0  2  0  0  3  0  0  0  0  0  0
   42.2050   33.5490   36.7610 O   0  0  0  0  0  0  0  0  0  0  0  0
   42.0010   34.5000   36.6330 H   0  0  0  0  0  0  0  0  0  0  0  0
   43.9550   35.0360   38.0740 O   0  0  0  0  0  0  0  0  0  0  0  0
   44.5930   35.4240   38.7470 H   0  0  0  0  0  0  0  0  0  0  0  0
   38.4640   29.7100   41.6210 C   0  0  0  0  0  3  0  0  0  0  0  0
   38.4300   29.5240   42.9110 C   0  0  0  0  0  3  0  0  0  0  0  0
   37.6950   28.3980   43.5560 C   0  0  0  0  0  0  0  0  0  0  0  0
   36.7020   28.3380   43.0560 H   0  0  0  0  0  0  0  0  0  0  0  0
   37.4850   28.6290   44.6270 H   0  0  0  0  0  0  0  0  0  0  0  0
   36.6510   26.3990   41.9150 F   0  0  0  0  0  0  0  0  0  0  0  0
   37.8350   26.1500   42.5220 C   0  0  0  0  0  0  0  0  0  0  0  0
   38.3890   27.1350   43.3560 C   0  0  0  0  0  0  0  0  0  0  0  0
   39.5820   26.7600   43.9060 C   0  0  0  0  0  0  0  0  0  0  0  0
   40.2600   25.5680   43.7300 C   0  0  0  0  0  0  0  0  0  0  0  0
   39.6260   24.6500   42.8810 C   0  0  0  0  0  0  0  0  0  0  0  0
   38.4260   24.9090   42.2680 C   0  0  0  0  0  0  0  0  0  0  0  0
   40.0790   27.4600   44.5640 H   0  0  0  0  0  0  0  0  0  0  0  0
   41.1920   25.3470   44.1970 H   0  0  0  0  0  0  0  0  0  0  0  0
   40.0670   23.6850   42.6720 H   0  0  0  0  0  0  0  0  0  0  0  0
   37.9230   24.2140   41.6110 H   0  0  0  0  0  0  0  0  0  0  0  0
  1  2  1  0  0  0  0
  2  3  2  0  0  0  0
  2 21  1  0  0  0  0
  3  8  1  0  0  0  0
  4  3  1  0  0  0  0
  5  4  2  0  0  0  0
  6  5  1  0  0  0  0
  6  1  2  0  0  0  0
  7  1  1  0  0  0  0
  9 17  1  6  0  0  0
  9 16  1  0  0  0  0
  9 10  1  0  0  0  0
 10  5  1  1  0  0  0
 10 11  1  0  0  0  0
 11 12  1  0  0  0  0
 11 13  1  0  0  0  0
 14 15  1  0  0  0  0
 14 13  1  0  0  0  0
 16 19  1  1  0  0  0
 16 14  1  0  0  0  0
 18 17  1  0  0  0  0
 19 20  1  0  0  0  0
 21 22  2  0  0  0  0
 22 23  1  0  0  0  0
 23 25  1  0  0  0  0
 24 23  1  0  0  0  0
 26 27  1  0  0  0  0
 27 28  1  0  0  0  0
 28 23  1  0  0  0  0
 28 29  2  0  0  0  0
 29 33  1  0  0  0  0
 30 29  1  0  0  0  0
 30 34  1  0  0  0  0
 31 30  2  0  0  0  0
 32 27  2  0  0  0  0
 32 31  1  0  0  0  0
 35 31  1  0  0  0  0
 36 32  1  0  0  0  0
M  END
>  <minimizedAffinity>
-6.69636536

$$$$

 OpenBabel03242517183D

 36 38  0  0  1  0  0  0  0  0999 V2000
   39.2020   31.8280   38.7890 C   0  0  0  0  0  0  0  0  0  0  0  0
   38.2460   32.2140   39.7650 C   0  0  0  0  0  0  0  0  0  0  0  0
   38.4450   33.4180   40.4320 C   0  0  0  0  0  0  0  0  0  0  0  0
   39.5540   34.1440   40.0960 N   0  0  0  0  0  0  0  0  0  0  0  0
   40.4300   33.7550   39.1770 C   0  0  0  0  0  0  0  0  0  0  0  0
   40.2590   32.6010   38.5230 N   0  0  0  0  0  0  0  0  0  0  0  0
   39.0390   30.9020   38.2820 H   0  0  0  0  0  0  0  0  0  0  0  0
   37.7100   33.6880   41.1640 H   0  0  0  0  0  0  0  0  0  0  0  0
   42.4860   33.8360   37.8930 C   0  0  2  0  0  3  0  0  0  0  0  0
   41.6260   34.5950   38.8540 C   0  0  2  0  0  3  0  0  0  0  0  0
   42.3620   34.7400   40.1920 C   0  0  0  0  0  3  0  0  0  0  0  0
   41.5810   35.1090   40.9120 H   0  0  0  0  0  0  0  0  0  0  0  0
   42.7040   33.4700   40.6040 O   0  0  0  0  0  0  0  0  0  0  0  0
   43.7690   32.9590   39.8610 C   0  0  0  0  0  3  0  0  0  0  0  0
   44.7300   33.1210   40.3820 H   0  0  0  0  0  0  0  0  0  0  0  0
   43.8530   33.5370   38.4690 C   0  0  2  0  0  3  0  0  0  0  0  0
   42.6640   34.5540   36.7160 O   0  0  0  0  0  0  0  0  0  0  0  0
   42.8790   35.4900   36.9150 H   0  0  0  0  0  0  0  0  0  0  0  0
   44.6770   34.6770   38.4280 O   0  0  0  0  0  0  0  0  0  0  0  0
   45.3220   34.5300   39.1840 H   0  0  0  0  0  0  0  0  0  0  0  0
   37.0880   31.3830   40.0650 C   0  0  0  0  0  3  0  0  0  0  0  0
   37.1170   30.2060   40.6250 C   0  0  0  0  0  3  0  0  0  0  0  0
   35.8910   29.4030   40.9040 C   0  0  0  0  0  0  0  0  0  0  0  0
   35.1060   30.1240   41.2260 H   0  0  0  0  0  0  0  0  0  0  0  0
   36.0560   28.7240   41.7730 H   0  0  0  0  0  0  0  0  0  0  0  0
   37.1150   27.0730   39.9830 F   0  0  0  0  0  0  0  0  0  0  0  0
   36.0660   27.5470   39.2710 C   0  0  0  0  0  0  0  0  0  0  0  0
   35.4270   28.7190   39.7070 C   0  0  0  0  0  0  0  0  0  0  0  0
   34.3870   29.0910   38.9030 C   0  0  0  0  0  0  0  0  0  0  0  0
   33.9270   28.4590   37.7630 C   0  0  0  0  0  0  0  0  0  0  0  0
   34.6310   27.2990   37.4090 C   0  0  0  0  0  0  0  0  0  0  0  0
   35.6930   26.8220   38.1350 C   0  0  0  0  0  0  0  0  0  0  0  0
   33.8370   29.9850   39.1650 H   0  0  0  0  0  0  0  0  0  0  0  0
   33.1050   28.8120   37.1840 H   0  0  0  0  0  0  0  0  0  0  0  0
   34.3570   26.7240   36.5340 H   0  0  0  0  0  0  0  0  0  0  0  0
   36.2470   25.9300   37.8790 H   0  0  0  0  0  0  0  0  0  0  0  0
  1  2  1  0  0  0  0
  2 21  1  0  0  0  0
  2  3  2  0  0  0  0
  3  8  1  0  0  0  0
  4  3  1  0  0  0  0
  5  4  2  0  0  0  0
  6  1  2  0  0  0  0
  6  5  1  0  0  0  0
  7  1  1  0  0  0  0
  9 17  1  6  0  0  0
  9 16  1  0  0  0  0
  9 10  1  0  0  0  0
 10  5  1  1  0  0  0
 10 11  1  0  0  0  0
 11 13  1  0  0  0  0
 11 12  1  0  0  0  0
 14 15  1  0  0  0  0
 14 13  1  0  0  0  0
 16 19  1  1  0  0  0
 16 14  1  0  0  0  0
 17 18  1  0  0  0  0
 19 20  1  0  0  0  0
 21 22  2  0  0  0  0
 22 23  1  0  0  0  0
 23 24  1  0  0  0  0
 23 25  1  0  0  0  0
 27 28  1  0  0  0  0
 27 26  1  0  0  0  0
 28 23  1  0  0  0  0
 29 33  1  0  0  0  0
 29 28  2  0  0  0  0
 30 29  1  0  0  0  0
 31 30  2  0  0  0  0
 31 32  1  0  0  0  0
 32 27  2  0  0  0  0
 34 30  1  0  0  0  0
 35 31  1  0  0  0  0
 36 32  1  0  0  0  0
M  END
>  <minimizedAffinity>
-6.34770632

$$$$

 OpenBabel03242517183D

 36 38  0  0  1  0  0  0  0  0999 V2000
   39.2990   31.7530   38.2840 C   0  0  0  0  0  0  0  0  0  0  0  0
   38.3600   31.9530   39.3300 C   0  0  0  0  0  0  0  0  0  0  0  0
   38.5590   33.0300   40.1870 C   0  0  0  0  0  0  0  0  0  0  0  0
   39.6500   33.8210   39.9560 N   0  0  0  0  0  0  0  0  0  0  0  0
   40.5110   33.6060   38.9680 C   0  0  0  0  0  0  0  0  0  0  0  0
   40.3410   32.5760   38.1310 N   0  0  0  0  0  0  0  0  0  0  0  0
   39.1370   30.9230   37.6320 H   0  0  0  0  0  0  0  0  0  0  0  0
   37.8380   33.1610   40.9680 H   0  0  0  0  0  0  0  0  0  0  0  0
   42.6420   33.8340   37.8310 C   0  0  2  0  0  3  0  0  0  0  0  0
   41.6880   34.5080   38.7670 C   0  0  2  0  0  3  0  0  0  0  0  0
   42.3290   34.6130   40.1570 C   0  0  0  0  0  3  0  0  0  0  0  0
   41.4870   34.9130   40.8400 H   0  0  0  0  0  0  0  0  0  0  0  0
   42.6960   33.3380   40.5290 O   0  0  0  0  0  0  0  0  0  0  0  0
   43.8290   32.9080   39.8360 C   0  0  0  0  0  3  0  0  0  0  0  0
   44.7460   33.0800   40.4280 H   0  0  0  0  0  0  0  0  0  0  0  0
   43.9800   33.5600   38.4830 C   0  0  2  0  0  3  0  0  0  0  0  0
   42.8650   34.6180   36.7040 O   0  0  0  0  0  0  0  0  0  0  0  0
   43.0270   35.5500   36.9630 H   0  0  0  0  0  0  0  0  0  0  0  0
   44.7540   34.7320   38.5530 O   0  0  0  0  0  0  0  0  0  0  0  0
   45.3550   34.5720   39.3430 H   0  0  0  0  0  0  0  0  0  0  0  0
   37.2210   31.0640   39.5080 C   0  0  0  0  0  3  0  0  0  0  0  0
   36.8070   30.1700   38.6540 C   0  0  0  0  0  3  0  0  0  0  0  0
   35.6280   29.2890   38.8980 C   0  0  0  0  0  0  0  0  0  0  0  0
   35.0290   29.7760   39.7000 H   0  0  0  0  0  0  0  0  0  0  0  0
   35.9520   28.3060   39.3120 H   0  0  0  0  0  0  0  0  0  0  0  0
   32.8430   29.2460   39.0500 F   0  0  0  0  0  0  0  0  0  0  0  0
   33.4000   29.1600   37.8190 C   0  0  0  0  0  0  0  0  0  0  0  0
   34.8000   29.1790   37.7060 C   0  0  0  0  0  0  0  0  0  0  0  0
   35.2330   29.0850   36.4140 C   0  0  0  0  0  0  0  0  0  0  0  0
   34.4680   28.9790   35.2680 C   0  0  0  0  0  0  0  0  0  0  0  0
   33.0830   28.9690   35.4840 C   0  0  0  0  0  0  0  0  0  0  0  0
   32.5240   29.0570   36.7350 C   0  0  0  0  0  0  0  0  0  0  0  0
   36.3000   29.0910   36.2350 H   0  0  0  0  0  0  0  0  0  0  0  0
   34.8810   28.9100   34.2880 H   0  0  0  0  0  0  0  0  0  0  0  0
   32.3880   28.8900   34.6580 H   0  0  0  0  0  0  0  0  0  0  0  0
   31.4590   29.0500   36.9210 H   0  0  0  0  0  0  0  0  0  0  0  0
  1  2  1  0  0  0  0
  2 21  1  0  0  0  0
  2  3  2  0  0  0  0
  3  8  1  0  0  0  0
  4  3  1  0  0  0  0
  5  4  2  0  0  0  0
  6  1  2  0  0  0  0
  6  5  1  0  0  0  0
  7  1  1  0  0  0  0
  9 17  1  6  0  0  0
  9 16  1  0  0  0  0
  9 10  1  0  0  0  0
 10  5  1  1  0  0  0
 10 11  1  0  0  0  0
 11 13  1  0  0  0  0
 11 12  1  0  0  0  0
 14 15  1  0  0  0  0
 14 13  1  0  0  0  0
 16 19  1  1  0  0  0
 16 14  1  0  0  0  0
 17 18  1  0  0  0  0
 19 20  1  0  0  0  0
 22 23  1  0  0  0  0
 22 21  2  0  0  0  0
 23 25  1  0  0  0  0
 23 24  1  0  0  0  0
 27 26  1  0  0  0  0
 28 27  1  0  0  0  0
 28 23  1  0  0  0  0
 29 28  2  0  0  0  0
 30 31  2  0  0  0  0
 30 29  1  0  0  0  0
 31 32  1  0  0  0  0
 32 36  1  0  0  0  0
 32 27  2  0  0  0  0
 33 29  1  0  0  0  0
 34 30  1  0  0  0  0
 35 31  1  0  0  0  0
M  END
>  <minimizedAffinity>
-6.29841137

$$$$

 OpenBabel03242517183D

 36 38  0  0  1  0  0  0  0  0999 V2000
   38.3090   28.8340   39.8550 C   0  0  0  0  0  0  0  0  0  0  0  0
   37.1330   28.7760   40.6480 C   0  0  0  0  0  0  0  0  0  0  0  0
   36.4320   29.9580   40.8610 C   0  0  0  0  0  0  0  0  0  0  0  0
   36.9320   31.0950   40.2880 N   0  0  0  0  0  0  0  0  0  0  0  0
   38.0360   31.1150   39.5510 C   0  0  0  0  0  0  0  0  0  0  0  0
   38.7270   29.9910   39.3320 N   0  0  0  0  0  0  0  0  0  0  0  0
   38.8390   27.9210   39.6960 H   0  0  0  0  0  0  0  0  0  0  0  0
   35.5480   29.8900   41.4630 H   0  0  0  0  0  0  0  0  0  0  0  0
   39.8310   32.1130   38.2600 C   0  0  2  0  0  3  0  0  0  0  0  0
   38.5330   32.3930   38.9500 C   0  0  2  0  0  3  0  0  0  0  0  0
   38.7850   33.3080   40.1560 C   0  0  0  0  0  3  0  0  0  0  0  0
   37.8240   33.2860   40.7410 H   0  0  0  0  0  0  0  0  0  0  0  0
   39.7330   32.6890   40.9410 O   0  0  0  0  0  0  0  0  0  0  0  0
   41.0060   32.7770   40.3740 C   0  0  0  0  0  3  0  0  0  0  0  0
   41.5700   33.6280   40.7940 H   0  0  0  0  0  0  0  0  0  0  0  0
   40.9770   32.8910   38.8690 C   0  0  2  0  0  3  0  0  0  0  0  0
   39.7540   32.4460   36.9120 O   0  0  0  0  0  0  0  0  0  0  0  0
   39.3320   33.3240   36.7990 H   0  0  0  0  0  0  0  0  0  0  0  0
   40.9530   34.2340   38.4490 O   0  0  0  0  0  0  0  0  0  0  0  0
   41.4110   34.7240   39.1980 H   0  0  0  0  0  0  0  0  0  0  0  0
   36.6660   27.5230   41.2230 C   0  0  0  0  0  3  0  0  0  0  0  0
   37.4130   26.5070   41.5540 C   0  0  0  0  0  3  0  0  0  0  0  0
   36.8700   25.2480   42.1400 C   0  0  0  0  0  0  0  0  0  0  0  0
   35.8070   25.4520   42.4010 H   0  0  0  0  0  0  0  0  0  0  0  0
   37.3820   25.0100   43.1020 H   0  0  0  0  0  0  0  0  0  0  0  0
   39.0970   23.5870   41.8880 F   0  0  0  0  0  0  0  0  0  0  0  0
   38.0440   23.3430   41.0730 C   0  0  0  0  0  0  0  0  0  0  0  0
   36.9070   24.1610   41.1730 C   0  0  0  0  0  0  0  0  0  0  0  0
   35.9190   23.8100   40.2970 C   0  0  0  0  0  0  0  0  0  0  0  0
   35.9300   22.7840   39.3720 C   0  0  0  0  0  0  0  0  0  0  0  0
   37.1090   22.0250   39.3480 C   0  0  0  0  0  0  0  0  0  0  0  0
   38.1730   22.2770   40.1780 C   0  0  0  0  0  0  0  0  0  0  0  0
   35.0050   24.3890   40.3050 H   0  0  0  0  0  0  0  0  0  0  0  0
   35.1150   22.5710   38.7180 H   0  0  0  0  0  0  0  0  0  0  0  0
   37.2270   21.1970   38.6630 H   0  0  0  0  0  0  0  0  0  0  0  0
   39.0890   21.7040   40.1740 H   0  0  0  0  0  0  0  0  0  0  0  0
  1  2  1  0  0  0  0
  2  3  2  0  0  0  0
  2 21  1  0  0  0  0
  3  8  1  0  0  0  0
  4  3  1  0  0  0  0
  5  4  2  0  0  0  0
  6  5  1  0  0  0  0
  6  1  2  0  0  0  0
  7  1  1  0  0  0  0
  9 17  1  6  0  0  0
  9 16  1  0  0  0  0
  9 10  1  0  0  0  0
 10  5  1  1  0  0  0
 10 11  1  0  0  0  0
 11 12  1  0  0  0  0
 11 13  1  0  0  0  0
 14 15  1  0  0  0  0
 14 13  1  0  0  0  0
 16 19  1  1  0  0  0
 16 14  1  0  0  0  0
 18 17  1  0  0  0  0
 19 20  1  0  0  0  0
 21 22  2  0  0  0  0
 22 23  1  0  0  0  0
 23 24  1  0  0  0  0
 23 25  1  0  0  0  0
 27 28  1  0  0  0  0
 27 26  1  0  0  0  0
 28 23  1  0  0  0  0
 29 33  1  0  0  0  0
 29 28  2  0  0  0  0
 30 29  1  0  0  0  0
 31 30  2  0  0  0  0
 31 32  1  0  0  0  0
 32 27  2  0  0  0  0
 34 30  1  0  0  0  0
 35 31  1  0  0  0  0
 36 32  1  0  0  0  0
M  END
>  <minimizedAffinity>
-6.09793568

$$$$

 OpenBabel03242517183D

 36 38  0  0  1  0  0  0  0  0999 V2000
   36.7000   28.5570   38.6980 C   0  0  0  0  0  0  0  0  0  0  0  0
   35.3230   28.8990   38.7540 C   0  0  0  0  0  0  0  0  0  0  0  0
   34.7640   29.1430   40.0040 C   0  0  0  0  0  0  0  0  0  0  0  0
   35.5870   29.0350   41.0910 N   0  0  0  0  0  0  0  0  0  0  0  0
   36.8720   28.7120   41.0030 C   0  0  0  0  0  0  0  0  0  0  0  0
   37.4320   28.4730   39.8120 N   0  0  0  0  0  0  0  0  0  0  0  0
   37.1200   28.3730   37.7330 H   0  0  0  0  0  0  0  0  0  0  0  0
   33.7240   29.3990   40.0220 H   0  0  0  0  0  0  0  0  0  0  0  0
   39.0500   28.0450   41.8360 C   0  0  2  0  0  3  0  0  0  0  0  0
   37.7220   28.6090   42.2310 C   0  0  2  0  0  3  0  0  0  0  0  0
   36.9840   27.6000   43.1210 C   0  0  0  0  0  3  0  0  0  0  0  0
   35.9300   27.9870   43.1840 H   0  0  0  0  0  0  0  0  0  0  0  0
   36.9220   26.4150   42.4190 O   0  0  0  0  0  0  0  0  0  0  0  0
   38.1590   25.7690   42.3930 C   0  0  0  0  0  3  0  0  0  0  0  0
   38.2260   25.0080   43.1910 H   0  0  0  0  0  0  0  0  0  0  0  0
   39.3270   26.7180   42.5090 C   0  0  2  0  0  3  0  0  0  0  0  0
   40.0770   28.9200   42.1740 O   0  0  0  0  0  0  0  0  0  0  0  0
   39.9530   29.2590   43.0860 H   0  0  0  0  0  0  0  0  0  0  0  0
   39.7150   26.9040   43.8480 O   0  0  0  0  0  0  0  0  0  0  0  0
   39.4400   26.0470   44.2960 H   0  0  0  0  0  0  0  0  0  0  0  0
   34.5140   28.9950   37.5480 C   0  0  0  0  0  3  0  0  0  0  0  0
   33.2120   28.9500   37.4950 C   0  0  0  0  0  3  0  0  0  0  0  0
   32.4410   29.0530   36.2230 C   0  0  0  0  0  0  0  0  0  0  0  0
   31.7970   28.1460   36.1670 H   0  0  0  0  0  0  0  0  0  0  0  0
   33.1250   28.9980   35.3440 H   0  0  0  0  0  0  0  0  0  0  0  0
   32.2430   30.7210   33.9960 F   0  0  0  0  0  0  0  0  0  0  0  0
   31.5060   31.0460   35.0840 C   0  0  0  0  0  0  0  0  0  0  0  0
   31.5820   30.2280   36.2230 C   0  0  0  0  0  0  0  0  0  0  0  0
   30.7930   30.6650   37.2480 C   0  0  0  0  0  0  0  0  0  0  0  0
   29.9700   31.7750   37.2720 C   0  0  0  0  0  0  0  0  0  0  0  0
   29.9630   32.5280   36.0890 C   0  0  0  0  0  0  0  0  0  0  0  0
   30.7120   32.1930   34.9890 C   0  0  0  0  0  0  0  0  0  0  0  0
   30.7910   30.0930   38.1660 H   0  0  0  0  0  0  0  0  0  0  0  0
   29.3800   32.0540   38.1150 H   0  0  0  0  0  0  0  0  0  0  0  0
   29.3550   33.4180   35.9960 H   0  0  0  0  0  0  0  0  0  0  0  0
   30.7190   32.7600   34.0690 H   0  0  0  0  0  0  0  0  0  0  0  0
  1  2  2  0  0  0  0
  1  6  1  0  0  0  0
  2  3  1  0  0  0  0
  3  8  1  0  0  0  0
  3  4  2  0  0  0  0
  5  4  1  0  0  0  0
  6  5  2  0  0  0  0
  7  1  1  0  0  0  0
  9 17  1  1  0  0  0
  9 10  1  0  0  0  0
  9 16  1  0  0  0  0
 10  5  1  6  0  0  0
 10 11  1  0  0  0  0
 11 12  1  0  0  0  0
 13 11  1  0  0  0  0
 14 13  1  0  0  0  0
 14 16  1  0  0  0  0
 14 15  1  0  0  0  0
 16 19  1  1  0  0  0
 17 18  1  0  0  0  0
 19 20  1  0  0  0  0
 21  2  1  0  0  0  0
 22 21  2  0  0  0  0
 23 28  1  0  0  0  0
 23 22  1  0  0  0  0
 24 23  1  0  0  0  0
 25 23  1  0  0  0  0
 26 27  1  0  0  0  0
 27 28  1  0  0  0  0
 28 29  2  0  0  0  0
 29 30  1  0  0  0  0
 29 33  1  0  0  0  0
 30 34  1  0  0  0  0
 31 30  2  0  0  0  0
 32 27  2  0  0  0  0
 32 31  1  0  0  0  0
 35 31  1  0  0  0  0
 36 32  1  0  0  0  0
M  END
>  <minimizedAffinity>
-6.04903889

$$$$

 OpenBabel03242517183D

 36 38  0  0  1  0  0  0  0  0999 V2000
   37.8310   29.3950   41.8360 C   0  0  0  0  0  0  0  0  0  0  0  0
   38.6640   28.3850   42.3840 C   0  0  0  0  0  0  0  0  0  0  0  0
   40.0000   28.6960   42.6140 C   0  0  0  0  0  0  0  0  0  0  0  0
   40.4130   29.9590   42.2930 N   0  0  0  0  0  0  0  0  0  0  0  0
   39.6070   30.8820   41.7810 C   0  0  0  0  0  0  0  0  0  0  0  0
   38.3180   30.6060   41.5510 N   0  0  0  0  0  0  0  0  0  0  0  0
   36.8060   29.1450   41.6650 H   0  0  0  0  0  0  0  0  0  0  0  0
   40.6100   27.9180   43.0280 H   0  0  0  0  0  0  0  0  0  0  0  0
   39.0050   33.0280   40.8240 C   0  0  2  0  0  3  0  0  0  0  0  0
   40.1190   32.2490   41.4500 C   0  0  2  0  0  3  0  0  0  0  0  0
   41.2160   32.0020   40.4070 C   0  0  0  0  0  3  0  0  0  0  0  0
   41.8920   31.2350   40.8750 H   0  0  0  0  0  0  0  0  0  0  0  0
   40.6160   31.3860   39.3290 O   0  0  0  0  0  0  0  0  0  0  0  0
   39.8530   32.2860   38.5840 C   0  0  0  0  0  3  0  0  0  0  0  0
   40.4270   32.6790   37.7270 H   0  0  0  0  0  0  0  0  0  0  0  0
   39.3270   33.4390   39.4040 C   0  0  2  0  0  3  0  0  0  0  0  0
   38.7380   34.1810   41.5550 O   0  0  0  0  0  0  0  0  0  0  0  0
   39.5730   34.6410   41.7870 H   0  0  0  0  0  0  0  0  0  0  0  0
   40.2100   34.5350   39.3860 O   0  0  0  0  0  0  0  0  0  0  0  0
   40.6890   34.4380   38.5070 H   0  0  0  0  0  0  0  0  0  0  0  0
   38.1470   27.0610   42.7000 C   0  0  0  0  0  3  0  0  0  0  0  0
   37.2250   26.4210   42.0360 C   0  0  0  0  0  3  0  0  0  0  0  0
   36.7370   25.0630   42.4140 C   0  0  0  0  0  0  0  0  0  0  0  0
   35.6500   25.1660   42.6300 H   0  0  0  0  0  0  0  0  0  0  0  0
   37.2090   24.7280   43.3680 H   0  0  0  0  0  0  0  0  0  0  0  0
   39.1330   23.6930   42.0110 F   0  0  0  0  0  0  0  0  0  0  0  0
   38.1230   23.4480   41.1440 C   0  0  0  0  0  0  0  0  0  0  0  0
   36.9030   24.1210   41.3170 C   0  0  0  0  0  0  0  0  0  0  0  0
   35.9690   23.7860   40.3780 C   0  0  0  0  0  0  0  0  0  0  0  0
   36.1020   22.8960   39.3290 C   0  0  0  0  0  0  0  0  0  0  0  0
   37.3570   22.2750   39.2400 C   0  0  0  0  0  0  0  0  0  0  0  0
   38.3770   22.5270   40.1230 C   0  0  0  0  0  0  0  0  0  0  0  0
   34.9980   24.2590   40.4360 H   0  0  0  0  0  0  0  0  0  0  0  0
   35.3240   22.6850   38.6330 H   0  0  0  0  0  0  0  0  0  0  0  0
   37.5720   21.5600   38.4570 H   0  0  0  0  0  0  0  0  0  0  0  0
   39.3490   22.0590   40.0700 H   0  0  0  0  0  0  0  0  0  0  0  0
  1  2  1  0  0  0  0
  2  3  2  0  0  0  0
  2 21  1  0  0  0  0
  3  8  1  0  0  0  0
  4  3  1  0  0  0  0
  5  4  2  0  0  0  0
  6  5  1  0  0  0  0
  6  1  2  0  0  0  0
  7  1  1  0  0  0  0
  9 10  1  0  0  0  0
  9 17  1  1  0  0  0
 10  5  1  6  0  0  0
 11 12  1  0  0  0  0
 11 10  1  0  0  0  0
 13 11  1  0  0  0  0
 14 13  1  0  0  0  0
 14 16  1  0  0  0  0
 15 14  1  0  0  0  0
 16 19  1  1  0  0  0
 16  9  1  0  0  0  0
 17 18  1  0  0  0  0
 20 19  1  0  0  0  0
 22 23  1  0  0  0  0
 22 21  2  0  0  0  0
 23 24  1  0  0  0  0
 23 25  1  0  0  0  0
 27 28  1  0  0  0  0
 27 26  1  0  0  0  0
 28 23  1  0  0  0  0
 29 33  1  0  0  0  0
 29 28  2  0  0  0  0
 30 29  1  0  0  0  0
 31 30  2  0  0  0  0
 31 32  1  0  0  0  0
 32 27  2  0  0  0  0
 34 30  1  0  0  0  0
 35 31  1  0  0  0  0
 36 32  1  0  0  0  0
M  END
>  <minimizedAffinity>
-6.01689291

$$$$

 OpenBabel03242517183D

 36 38  0  0  1  0  0  0  0  0999 V2000
   39.4340   32.1760   38.8080 C   0  0  0  0  0  0  0  0  0  0  0  0
   39.7410   31.0670   39.6400 C   0  0  0  0  0  0  0  0  0  0  0  0
   41.0320   30.5500   39.5870 C   0  0  0  0  0  0  0  0  0  0  0  0
   41.9120   31.1520   38.7320 N   0  0  0  0  0  0  0  0  0  0  0  0
   41.5930   32.1890   37.9660 C   0  0  0  0  0  0  0  0  0  0  0  0
   40.3580   32.7030   38.0000 N   0  0  0  0  0  0  0  0  0  0  0  0
   38.4410   32.5650   38.8580 H   0  0  0  0  0  0  0  0  0  0  0  0
   41.2400   29.7140   40.2230 H   0  0  0  0  0  0  0  0  0  0  0  0
   43.9150   32.1200   37.2680 C   0  0  2  0  0  3  0  0  0  0  0  0
   42.6030   32.8050   37.0490 C   0  0  2  0  0  3  0  0  0  0  0  0
   42.7050   34.2620   37.5180 C   0  0  0  0  0  3  0  0  0  0  0  0
   41.6440   34.6340   37.5350 H   0  0  0  0  0  0  0  0  0  0  0  0
   43.1280   34.2340   38.8300 O   0  0  0  0  0  0  0  0  0  0  0  0
   44.4840   33.9140   38.9240 C   0  0  0  0  0  3  0  0  0  0  0  0
   45.1020   34.8260   39.0020 H   0  0  0  0  0  0  0  0  0  0  0  0
   44.9770   33.0730   37.7720 C   0  0  2  0  0  3  0  0  0  0  0  0
   44.3760   31.5480   36.0870 O   0  0  0  0  0  0  0  0  0  0  0  0
   44.2850   32.1790   35.3420 H   0  0  0  0  0  0  0  0  0  0  0  0
   45.4770   33.8670   36.7240 O   0  0  0  0  0  0  0  0  0  0  0  0
   45.7910   34.7020   37.1890 H   0  0  0  0  0  0  0  0  0  0  0  0
   38.7450   30.4830   40.5260 C   0  0  0  0  0  3  0  0  0  0  0  0
   37.4530   30.6380   40.4330 C   0  0  0  0  0  3  0  0  0  0  0  0
   36.4840   30.0110   41.3770 C   0  0  0  0  0  0  0  0  0  0  0  0
   35.4710   30.1670   40.9420 H   0  0  0  0  0  0  0  0  0  0  0  0
   36.4840   30.5480   42.3550 H   0  0  0  0  0  0  0  0  0  0  0  0
   37.3130   28.8600   43.7790 F   0  0  0  0  0  0  0  0  0  0  0  0
   37.1360   28.0330   42.7220 C   0  0  0  0  0  0  0  0  0  0  0  0
   36.7190   28.5800   41.4970 C   0  0  0  0  0  0  0  0  0  0  0  0
   36.5780   27.6420   40.5140 C   0  0  0  0  0  0  0  0  0  0  0  0
   36.7940   26.2800   40.6030 C   0  0  0  0  0  0  0  0  0  0  0  0
   37.2080   25.8310   41.8650 C   0  0  0  0  0  0  0  0  0  0  0  0
   37.3860   26.6740   42.9340 C   0  0  0  0  0  0  0  0  0  0  0  0
   36.2600   27.9760   39.5350 H   0  0  0  0  0  0  0  0  0  0  0  0
   36.6630   25.6070   39.7860 H   0  0  0  0  0  0  0  0  0  0  0  0
   37.4070   24.7840   42.0490 H   0  0  0  0  0  0  0  0  0  0  0  0
   37.7040   26.3470   43.9130 H   0  0  0  0  0  0  0  0  0  0  0  0
  1  7  1  0  0  0  0
  1  2  1  0  0  0  0
  2 21  1  0  0  0  0
  3  2  2  0  0  0  0
  3  8  1  0  0  0  0
  4  3  1  0  0  0  0
  5  6  1  0  0  0  0
  5  4  2  0  0  0  0
  6  1  2  0  0  0  0
  9 17  1  6  0  0  0
  9 16  1  0  0  0  0
 10  9  1  0  0  0  0
 10 11  1  0  0  0  0
 10  5  1  1  0  0  0
 11 12  1  0  0  0  0
 11 13  1  0  0  0  0
 13 14  1  0  0  0  0
 14 15  1  0  0  0  0
 16 19  1  6  0  0  0
 16 14  1  0  0  0  0
 18 17  1  0  0  0  0
 19 20  1  0  0  0  0
 22 21  2  0  0  0  0
 22 23  1  0  0  0  0
 23 28  1  0  0  0  0
 23 25  1  0  0  0  0
 24 23  1  0  0  0  0
 27 32  1  0  0  0  0
 27 26  1  0  0  0  0
 28 27  2  0  0  0  0
 29 30  2  0  0  0  0
 29 28  1  0  0  0  0
 30 31  1  0  0  0  0
 31 35  1  0  0  0  0
 31 32  2  0  0  0  0
 32 36  1  0  0  0  0
 33 29  1  0  0  0  0
 34 30  1  0  0  0  0
M  END
>  <minimizedAffinity>
-5.83640003

$$$$

 OpenBabel03242517183D

 36 38  0  0  1  0  0  0  0  0999 V2000
   35.7490   27.7700   38.8810 C   0  0  0  0  0  0  0  0  0  0  0  0
   35.5240   28.9930   38.1970 C   0  0  0  0  0  0  0  0  0  0  0  0
   36.3920   30.0500   38.4490 C   0  0  0  0  0  0  0  0  0  0  0  0
   37.4040   29.8290   39.3430 N   0  0  0  0  0  0  0  0  0  0  0  0
   37.5870   28.6710   39.9660 C   0  0  0  0  0  0  0  0  0  0  0  0
   36.7640   27.6410   39.7400 N   0  0  0  0  0  0  0  0  0  0  0  0
   35.0760   26.9650   38.6790 H   0  0  0  0  0  0  0  0  0  0  0  0
   36.2030   30.9630   37.9220 H   0  0  0  0  0  0  0  0  0  0  0  0
   38.5960   27.1300   41.5450 C   0  0  2  0  0  3  0  0  0  0  0  0
   38.7140   28.4910   40.9340 C   0  0  2  0  0  3  0  0  0  0  0  0
   38.4640   29.5560   42.0110 C   0  0  0  0  0  3  0  0  0  0  0  0
   38.3450   30.5190   41.4420 H   0  0  0  0  0  0  0  0  0  0  0  0
   37.2360   29.2810   42.5720 O   0  0  0  0  0  0  0  0  0  0  0  0
   37.2950   28.1720   43.4190 C   0  0  0  0  0  3  0  0  0  0  0  0
   37.4310   28.4820   44.4700 H   0  0  0  0  0  0  0  0  0  0  0  0
   38.3830   27.1960   43.0420 C   0  0  2  0  0  3  0  0  0  0  0  0
   39.7430   26.3810   41.3070 O   0  0  0  0  0  0  0  0  0  0  0  0
   40.5450   26.9170   41.4840 H   0  0  0  0  0  0  0  0  0  0  0  0
   39.5890   27.4770   43.7100 O   0  0  0  0  0  0  0  0  0  0  0  0
   39.2900   27.9260   44.5580 H   0  0  0  0  0  0  0  0  0  0  0  0
   34.4220   29.1480   37.2580 C   0  0  0  0  0  3  0  0  0  0  0  0
   33.3630   28.3890   37.1900 C   0  0  0  0  0  3  0  0  0  0  0  0
   32.2670   28.6010   36.2000 C   0  0  0  0  0  0  0  0  0  0  0  0
   31.6080   27.7070   36.2600 H   0  0  0  0  0  0  0  0  0  0  0  0
   32.6740   28.6130   35.1610 H   0  0  0  0  0  0  0  0  0  0  0  0
   31.9730   30.7210   34.4110 F   0  0  0  0  0  0  0  0  0  0  0  0
   31.3520   30.8280   35.6090 C   0  0  0  0  0  0  0  0  0  0  0  0
   31.4800   29.7790   36.5340 C   0  0  0  0  0  0  0  0  0  0  0  0
   30.8070   30.0100   37.7000 C   0  0  0  0  0  0  0  0  0  0  0  0
   30.0530   31.1180   38.0400 C   0  0  0  0  0  0  0  0  0  0  0  0
   29.9870   32.1100   37.0510 C   0  0  0  0  0  0  0  0  0  0  0  0
   30.6190   31.9950   35.8380 C   0  0  0  0  0  0  0  0  0  0  0  0
   30.8520   29.2520   38.4710 H   0  0  0  0  0  0  0  0  0  0  0  0
   29.5550   31.2270   38.9750 H   0  0  0  0  0  0  0  0  0  0  0  0
   29.4240   33.0200   37.2090 H   0  0  0  0  0  0  0  0  0  0  0  0
   30.5790   32.7490   35.0640 H   0  0  0  0  0  0  0  0  0  0  0  0
  1  6  1  0  0  0  0
  2  3  1  0  0  0  0
  2  1  2  0  0  0  0
  3  4  2  0  0  0  0
  4  5  1  0  0  0  0
  6  5  2  0  0  0  0
  7  1  1  0  0  0  0
  8  3  1  0  0  0  0
  9 17  1  1  0  0  0
  9 16  1  0  0  0  0
 10  5  1  6  0  0  0
 10  9  1  0  0  0  0
 10 11  1  0  0  0  0
 11 13  1  0  0  0  0
 12 11  1  0  0  0  0
 13 14  1  0  0  0  0
 14 15  1  0  0  0  0
 16 14  1  0  0  0  0
 16 19  1  1  0  0  0
 17 18  1  0  0  0  0
 19 20  1  0  0  0  0
 21  2  1  0  0  0  0
 22 21  2  0  0  0  0
 23 24  1  0  0  0  0
 23 28  1  0  0  0  0
 23 22  1  0  0  0  0
 25 23  1  0  0  0  0
 26 27  1  0  0  0  0
 27 32  2  0  0  0  0
 27 28  1  0  0  0  0
 28 29  2  0  0  0  0
 29 30  1  0  0  0  0
 29 33  1  0  0  0  0
 30 34  1  0  0  0  0
 31 35  1  0  0  0  0
 31 30  2  0  0  0  0
 32 31  1  0  0  0  0
 36 32  1  0  0  0  0
M  END
>  <minimizedAffinity>
-5.73538589

$$$$
