REMARK  Name = 
REMARK  4 active torsions:
REMARK  status: ('A' for Active; 'I' for Inactive)
REMARK    1  A    between atoms: C_1  and  S_7
REMARK    2  A    between atoms: C_5  and  C_13
REMARK    3  A    between atoms: O_11  and  C_12
REMARK    4  A    between atoms: C_19  and  O_20
REMARK                            x       y       z     vdW  Elec       q    Type
REMARK                         _______ _______ _______ _____ _____    ______ ____
ROOT
ATOM      1  C   UNL     1      44.575  31.986  47.861  0.00  0.00    +0.000 C 
ATOM      2  C   UNL     1      45.073  33.414  47.631  0.00  0.00    +0.000 C 
ATOM      3  C   UNL     1      46.090  33.646  48.727  0.00  0.00    +0.000 C 
ATOM      4  H   UNL     1      46.697  34.540  48.577  0.00  0.00    +0.000 HD
ATOM      5  O   UNL     1      45.387  33.778  49.896  0.00  0.00    +0.000 OA
ATOM      6  C   UNL     1      44.652  32.696  50.277  0.00  0.00    +0.000 C 
ATOM      7  H   UNL     1      45.233  31.958  50.899  0.00  0.00    +0.000 HD
ATOM      8  C   UNL     1      43.916  31.968  49.210  0.00  0.00    +0.000 C 
ENDROOT
BRANCH   2  13
ATOM      9  C   UNL     1      45.532  34.711  44.232  0.00  0.00    +0.000 A 
ATOM     10  C   UNL     1      46.581  33.906  43.747  0.00  0.00    +0.000 A 
ATOM     11  C   UNL     1      47.117  32.926  44.598  0.00  0.00    +0.000 A 
ATOM     12  N   UNL     1      46.589  32.812  45.845  0.00  0.00    +0.000 NA
ATOM     13  C   UNL     1      45.587  33.600  46.271  0.00  0.00    +0.000 A 
ATOM     14  N   UNL     1      45.050  34.547  45.487  0.00  0.00    +0.000 NA
ATOM     15  H   UNL     1      46.972  34.027  42.754  0.00  0.00    +0.000 HD
ATOM     16  H   UNL     1      47.925  32.287  44.261  0.00  0.00    +0.000 HD
BRANCH   9  17
ATOM     17  S   UNL     1      44.915  35.934  43.069  0.00  0.00    +0.000 S 
ATOM     18  H   UNL     1      45.707  37.084  43.128  0.00  0.00    +0.000 HD
ENDBRANCH   9  17
ENDBRANCH   2  13
BRANCH   1  19
ATOM     19  O   UNL     1      43.632  31.717  46.866  0.00  0.00    +0.000 OA
ATOM     20  H   UNL     1      43.310  30.787  46.931  0.00  0.00    +0.000 HD
ENDBRANCH   1  19
BRANCH   8  21
ATOM     21  O   UNL     1      42.605  32.432  49.054  0.00  0.00    +0.000 OA
ATOM     22  H   UNL     1      42.601  33.369  48.778  0.00  0.00    +0.000 HD
ENDBRANCH   8  21
TORSDOF 4
