
 OpenBabel03252507383D

 41 45  0  0  1  0  0  0  0  0999 V2000
   45.6300   34.8020   43.4930 C   0  0  0  0  0  0  0  0  0  0  0  0
   46.3270   33.7270   44.1040 C   0  0  0  0  0  0  0  0  0  0  0  0
   46.0790   33.5060   45.4570 C   0  0  0  0  0  0  0  0  0  0  0  0
   45.2230   34.2920   46.1050 N   0  0  0  0  0  0  0  0  0  0  0  0
   44.5690   35.3140   45.5020 C   0  0  0  0  0  0  0  0  0  0  0  0
   44.7750   35.5590   44.2130 N   0  0  0  0  0  0  0  0  0  0  0  0
   47.0100   33.0950   43.6000 H   0  0  0  0  0  0  0  0  0  0  0  0
   43.8930   35.8940   46.1180 H   0  0  0  0  0  0  0  0  0  0  0  0
   47.0130   32.6940   47.5510 C   0  0  0  0  0  0  0  0  0  0  0  0
   46.7350   32.4270   46.2090 C   0  0  0  0  0  0  0  0  0  0  0  0
   47.0800   31.2180   45.7010 C   0  0  0  0  0  0  0  0  0  0  0  0
   47.6960   30.2350   46.4500 C   0  0  0  0  0  0  0  0  0  0  0  0
   48.1180   28.9870   46.1500 N   0  0  0  0  0  0  0  0  0  0  0  0
   48.6670   28.4590   47.3090 C   0  0  0  0  0  0  0  0  0  0  0  0
   48.5660   29.3980   48.2830 N   0  0  0  0  0  0  0  0  0  0  0  0
   47.9790   30.4760   47.7660 C   0  0  0  0  0  0  0  0  0  0  0  0
   47.6400   31.6960   48.3130 C   0  0  0  0  0  0  0  0  0  0  0  0
   46.7910   33.6200   48.0850 H   0  0  0  0  0  0  0  0  0  0  0  0
   46.8490   31.0490   44.6610 H   0  0  0  0  0  0  0  0  0  0  0  0
   48.0560   28.4870   45.2310 H   0  0  0  0  0  0  0  0  0  0  0  0
   49.0930   27.4660   47.3820 H   0  0  0  0  0  0  0  0  0  0  0  0
   47.8800   31.8470   49.3580 H   0  0  0  0  0  0  0  0  0  0  0  0
   45.8700   35.0330   42.1380 O   0  0  0  0  0  0  0  0  0  0  0  0
   44.8730   34.7700   41.2050 C   0  0  0  0  0  0  0  0  0  0  0  0
   45.4340   33.7720   40.4990 C   0  0  0  0  0  0  0  0  0  0  0  0
   44.0810   33.3930   39.2150 S   0  0  0  0  0  0  0  0  0  0  0  0
   43.0090   34.7540   39.9780 C   0  0  0  0  0  0  0  0  0  0  0  0
   43.6730   35.1060   40.7840 N   0  0  0  0  0  0  0  0  0  0  0  0
   46.2880   33.0200   40.2480 H   0  0  0  0  0  0  0  0  0  0  0  0
   40.9850   33.7970   39.1350 C   0  0  1  0  0  3  0  0  0  0  0  0
   41.6630   35.0820   39.4540 C   0  0  1  0  0  3  0  0  0  0  0  0
   40.9100   35.8080   40.5470 C   0  0  0  0  0  3  0  0  0  0  0  0
   40.7680   36.8840   40.3180 H   0  0  0  0  0  0  0  0  0  0  0  0
   39.6550   35.2250   40.7750 O   0  0  0  0  0  0  0  0  0  0  0  0
   39.8240   33.9460   41.3050 C   0  0  0  0  0  3  0  0  0  0  0  0
   38.7900   33.5500   41.4380 H   0  0  0  0  0  0  0  0  0  0  0  0
   40.5760   33.0580   40.3650 C   0  0  1  0  0  3  0  0  0  0  0  0
   39.8740   34.0270   38.2940 O   0  0  0  0  0  0  0  0  0  0  0  0
   39.6320   33.1950   37.8080 H   0  0  0  0  0  0  0  0  0  0  0  0
   39.7930   31.9700   39.9540 O   0  0  0  0  0  0  0  0  0  0  0  0
   38.8360   32.2380   40.0930 H   0  0  0  0  0  0  0  0  0  0  0  0
  1  2  2  0  0  0  0
  1  6  1  0  0  0  0
  2  3  1  0  0  0  0
  3  4  2  0  0  0  0
  3 10  1  0  0  0  0
  5  4  1  0  0  0  0
  5  8  1  0  0  0  0
  6  5  2  0  0  0  0
  7  2  1  0  0  0  0
  9 18  1  0  0  0  0
  9 17  1  0  0  0  0
 10  9  2  0  0  0  0
 11 10  1  0  0  0  0
 11 12  2  0  0  0  0
 12 16  1  0  0  0  0
 13 12  1  0  0  0  0
 13 14  1  0  0  0  0
 14 21  1  0  0  0  0
 14 15  2  0  0  0  0
 16 15  1  0  0  0  0
 16 17  2  0  0  0  0
 17 22  1  0  0  0  0
 19 11  1  0  0  0  0
 20 13  1  0  0  0  0
 23  1  1  0  0  0  0
 24 23  1  0  0  0  0
 25 24  2  0  0  0  0
 26 27  1  0  0  0  0
 26 25  1  0  0  0  0
 27 28  2  0  0  0  0
 28 24  1  0  0  0  0
 29 25  1  0  0  0  0
 30 38  1  6  0  0  0
 30 31  1  0  0  0  0
 30 37  1  0  0  0  0
 31 27  1  1  0  0  0
 31 32  1  0  0  0  0
 32 34  1  0  0  0  0
 33 32  1  0  0  0  0
 34 35  1  0  0  0  0
 35 36  1  0  0  0  0
 37 40  1  6  0  0  0
 37 35  1  0  0  0  0
 39 38  1  0  0  0  0
 40 41  1  0  0  0  0
M  END
>  <minimizedAffinity>
-6.81498623

>  <minimizedRMSD>
0.873361111

$$$$
