REMARK  Name = 
REMARK  4 active torsions:
REMARK  status: ('A' for Active; 'I' for Inactive)
REMARK    1  A    between atoms: C_3  and  S_7
REMARK    2  A    between atoms: C_5  and  C_13
REMARK    3  A    between atoms: O_11  and  C_12
REMARK    4  A    between atoms: C_19  and  O_20
REMARK                            x       y       z     vdW  Elec       q    Type
REMARK                         _______ _______ _______ _____ _____    ______ ____
ROOT
ATOM      1  C   UNL     1      46.311  33.705  47.718  0.00  0.00    +0.000 C 
ATOM      2  C   UNL     1      45.720  33.091  46.474  0.00  0.00    +0.000 C 
ATOM      3  C   UNL     1      44.461  32.365  46.837  0.00  0.00    +0.000 C 
ATOM      4  H   UNL     1      43.563  33.039  46.794  0.00  0.00    +0.000 HD
ATOM      5  O   UNL     1      44.600  31.941  48.173  0.00  0.00    +0.000 OA
ATOM      6  C   UNL     1      44.269  33.041  48.985  0.00  0.00    +0.000 C 
ATOM      7  H   UNL     1      44.266  32.704  50.044  0.00  0.00    +0.000 HD
ATOM      8  C   UNL     1      45.260  34.143  48.725  0.00  0.00    +0.000 C 
ENDROOT
BRANCH   2  13
ATOM      9  C   UNL     1      44.538  36.031  44.531  0.00  0.00    +0.000 A 
ATOM     10  C   UNL     1      45.265  35.889  43.316  0.00  0.00    +0.000 A 
ATOM     11  C   UNL     1      46.133  34.796  43.200  0.00  0.00    +0.000 A 
ATOM     12  N   UNL     1      46.234  33.933  44.250  0.00  0.00    +0.000 NA
ATOM     13  C   UNL     1      45.521  34.105  45.395  0.00  0.00    +0.000 A 
ATOM     14  N   UNL     1      44.686  35.136  45.536  0.00  0.00    +0.000 NA
ATOM     15  H   UNL     1      43.872  36.879  44.606  0.00  0.00    +0.000 HD
ATOM     16  H   UNL     1      45.137  36.612  42.520  0.00  0.00    +0.000 HD
BRANCH  11  17
ATOM     17  S   UNL     1      47.072  34.563  41.701  0.00  0.00    +0.000 S 
ATOM     18  H   UNL     1      47.583  35.805  41.286  0.00  0.00    +0.000 HD
ENDBRANCH  11  17
ENDBRANCH   2  13
BRANCH   1  19
ATOM     19  O   UNL     1      47.159  34.751  47.441  0.00  0.00    +0.000 OA
ATOM     20  H   UNL     1      46.830  35.388  46.763  0.00  0.00    +0.000 HD
ENDBRANCH   1  19
BRANCH   8  21
ATOM     21  O   UNL     1      45.951  34.386  49.923  0.00  0.00    +0.000 OA
ATOM     22  H   UNL     1      46.862  34.727  49.700  0.00  0.00    +0.000 HD
ENDBRANCH   8  21
TORSDOF 4
