REMARK  Name = 
REMARK  4 active torsions:
REMARK  status: ('A' for Active; 'I' for Inactive)
REMARK    1  A    between atoms: C_1  and  O_7
REMARK    2  A    between atoms: C_3  and  C_13
REMARK    3  A    between atoms: O_11  and  C_12
REMARK    4  A    between atoms: C_19  and  O_20
REMARK                            x       y       z     vdW  Elec       q    Type
REMARK                         _______ _______ _______ _____ _____    ______ ____
ROOT
ATOM      1  C   UNL     1      49.052  33.909  43.257  0.00  0.00    +0.000 C 
ATOM      2  C   UNL     1      47.756  33.207  42.992  0.00  0.00    +0.000 C 
ATOM      3  C   UNL     1      47.275  33.356  41.561  0.00  0.00    +0.000 C 
ATOM      4  H   UNL     1      46.797  32.393  41.284  0.00  0.00    +0.000 HD
ATOM      5  O   UNL     1      48.306  33.547  40.660  0.00  0.00    +0.000 OA
ATOM      6  C   UNL     1      49.000  34.733  40.872  0.00  0.00    +0.000 C 
ATOM      7  H   UNL     1      50.007  34.609  40.413  0.00  0.00    +0.000 HD
ATOM      8  C   UNL     1      49.181  35.079  42.314  0.00  0.00    +0.000 C 
ENDROOT
BRANCH   2  11
ATOM      9  C   UNL     1      45.002  35.485  44.187  0.00  0.00    +0.000 A 
ATOM     10  C   UNL     1      45.977  34.933  43.340  0.00  0.00    +0.000 A 
ATOM     11  C   UNL     1      46.714  33.831  43.841  0.00  0.00    +0.000 A 
ATOM     12  N   UNL     1      46.442  33.377  45.087  0.00  0.00    +0.000 NA
ATOM     13  C   UNL     1      45.496  33.941  45.861  0.00  0.00    +0.000 A 
ATOM     14  N   UNL     1      44.780  34.984  45.420  0.00  0.00    +0.000 NA
ATOM     15  H   UNL     1      46.173  35.316  42.349  0.00  0.00    +0.000 HD
ATOM     16  H   UNL     1      45.250  33.603  46.868  0.00  0.00    +0.000 HD
BRANCH   9  17
ATOM     17  O   UNL     1      44.288  36.550  43.708  0.00  0.00    +0.000 OA
ATOM     18  H   UNL     1      44.723  37.464  43.718  0.00  0.00    +0.000 HD
ENDBRANCH   9  17
ENDBRANCH   2  11
BRANCH   1  19
ATOM     19  O   UNL     1      49.002  34.453  44.559  0.00  0.00    +0.000 OA
ATOM     20  H   UNL     1      49.871  34.688  44.921  0.00  0.00    +0.000 HD
ENDBRANCH   1  19
BRANCH   8  21
ATOM     21  O   UNL     1      50.446  35.634  42.505  0.00  0.00    +0.000 OA
ATOM     22  H   UNL     1      50.683  35.816  43.426  0.00  0.00    +0.000 HD
ENDBRANCH   8  21
TORSDOF 4
