
 OpenBabel03242511333D

 38 40  0  0  1  0  0  0  0  0999 V2000
   49.6930   31.8820   41.3170 C   0  0  0  0  0  0  0  0  0  0  0  0
   51.0480   31.6560   41.6510 C   0  0  0  0  0  0  0  0  0  0  0  0
   51.9930   31.4920   40.6220 C   0  0  0  0  0  0  0  0  0  0  0  0
   51.5300   31.5640   39.3530 N   0  0  0  0  0  0  0  0  0  0  0  0
   50.2260   31.7830   39.0590 C   0  0  0  0  0  0  0  0  0  0  0  0
   49.3540   31.9340   40.0450 N   0  0  0  0  0  0  0  0  0  0  0  0
   51.4450   31.5920   42.6650 H   0  0  0  0  0  0  0  0  0  0  0  0
   53.0370   31.3160   40.8590 H   0  0  0  0  0  0  0  0  0  0  0  0
   48.9890   33.0110   37.3130 C   0  0  2  0  0  0  0  0  0  0  0  0
   49.8670   31.8370   37.6080 C   0  0  2  0  0  0  0  0  0  0  0  0
   49.1520   30.5860   37.1680 C   0  0  0  0  0  0  0  0  0  0  0  0
   49.3490   29.7820   37.9110 H   0  0  0  0  0  0  0  0  0  0  0  0
   47.7710   30.7600   37.1190 O   0  0  0  0  0  0  0  0  0  0  0  0
   47.3960   31.6170   36.0890 C   0  0  0  0  0  0  0  0  0  0  0  0
   46.3490   31.9240   36.2920 H   0  0  0  0  0  0  0  0  0  0  0  0
   48.2520   32.8380   36.0100 C   0  0  2  0  0  0  0  0  0  0  0  0
   49.7190   34.2030   37.2440 O   0  0  0  0  0  0  0  0  0  0  0  0
   50.6150   33.9950   36.8820 H   0  0  0  0  0  0  0  0  0  0  0  0
   49.1270   32.7990   34.9110 O   0  0  0  0  0  0  0  0  0  0  0  0
   49.8920   33.4090   35.0380 H   0  0  0  0  0  0  0  0  0  0  0  0
   48.7650   32.0440   42.4260 C   0  0  0  0  0  0  0  0  0  0  0  0
   48.3930   33.2790   42.7580 C   0  0  0  0  0  0  0  0  0  0  0  0
   47.4570   33.5580   43.8650 C   0  0  0  0  0  0  0  0  0  0  0  0
   47.3010   32.6790   44.4950 H   0  0  0  0  0  0  0  0  0  0  0  0
   47.9290   34.3560   44.5030 H   0  0  0  0  0  0  0  0  0  0  0  0
   44.8690   35.9910   43.2190 C   0  0  1  0  0  0  0  0  0  0  0  0
   46.1510   35.3500   42.6870 C   0  0  0  0  0  0  0  0  0  0  0  0
   46.0910   34.0150   43.3490 C   0  0  2  0  0  0  0  0  0  0  0  0
   45.1530   34.0420   44.3480 O   0  0  0  0  0  0  0  0  0  0  0  0
   44.7770   35.3430   44.5790 C   0  0  0  0  0  0  0  0  0  0  0  0
   44.0170   35.6600   42.5930 H   0  0  0  0  0  0  0  0  0  0  0  0
   47.0120   35.9500   43.0250 H   0  0  0  0  0  0  0  0  0  0  0  0
   46.1220   35.1940   41.5960 H   0  0  0  0  0  0  0  0  0  0  0  0
   45.7870   33.2150   42.6300 H   0  0  0  0  0  0  0  0  0  0  0  0
   45.3630   35.8630   45.3510 H   0  0  0  0  0  0  0  0  0  0  0  0
   43.6970   35.3680   44.8740 H   0  0  0  0  0  0  0  0  0  0  0  0
   45.0130   37.3700   43.2990 O   0  0  0  0  0  0  0  0  0  0  0  0
   44.8300   37.7350   42.3980 H   0  0  0  0  0  0  0  0  0  0  0  0
  1  2  1  0  0  0  0
  1 21  1  0  0  0  0
  2  7  1  0  0  0  0
  3  8  1  0  0  0  0
  3  2  2  0  0  0  0
  4  3  1  0  0  0  0
  5  4  2  0  0  0  0
  5  6  1  0  0  0  0
  6  1  2  0  0  0  0
  9 17  1  6  0  0  0
  9 10  1  0  0  0  0
 10  5  1  1  0  0  0
 11 10  1  0  0  0  0
 11 12  1  0  0  0  0
 13 11  1  0  0  0  0
 14 15  1  0  0  0  0
 14 13  1  0  0  0  0
 16 19  1  6  0  0  0
 16 14  1  0  0  0  0
 16  9  1  0  0  0  0
 18 17  1  0  0  0  0
 19 20  1  0  0  0  0
 21 22  2  0  0  0  0
 22 23  1  0  0  0  0
 23 24  1  0  0  0  0
 23 25  1  0  0  0  0
 26 31  1  6  0  0  0
 26 37  1  0  0  0  0
 26 30  1  0  0  0  0
 27 32  1  0  0  0  0
 27 26  1  0  0  0  0
 27 28  1  0  0  0  0
 28 34  1  6  0  0  0
 28 23  1  0  0  0  0
 28 29  1  0  0  0  0
 29 30  1  0  0  0  0
 30 36  1  0  0  0  0
 30 35  1  0  0  0  0
 33 27  1  0  0  0  0
 38 37  1  0  0  0  0
M  END
>  <minimizedAffinity>
-5.67043734

>  <minimizedRMSD>
0.630068123

$$$$
