
 OpenBabel03252507383D

 41 45  0  0  1  0  0  0  0  0999 V2000
   45.6590   34.5850   43.7870 C   0  0  0  0  0  0  0  0  0  0  0  0
   46.4090   33.5480   44.4000 C   0  0  0  0  0  0  0  0  0  0  0  0
   46.1900   33.3320   45.7590 C   0  0  0  0  0  0  0  0  0  0  0  0
   45.3090   34.0870   46.4100 N   0  0  0  0  0  0  0  0  0  0  0  0
   44.6020   35.0730   45.8040 C   0  0  0  0  0  0  0  0  0  0  0  0
   44.7810   35.3120   44.5100 N   0  0  0  0  0  0  0  0  0  0  0  0
   47.1130   32.9410   43.8940 H   0  0  0  0  0  0  0  0  0  0  0  0
   43.9100   35.6290   46.4230 H   0  0  0  0  0  0  0  0  0  0  0  0
   47.2580   32.6160   47.8230 C   0  0  0  0  0  0  0  0  0  0  0  0
   46.9020   32.2910   46.5130 C   0  0  0  0  0  0  0  0  0  0  0  0
   47.2290   31.0650   46.0360 C   0  0  0  0  0  0  0  0  0  0  0  0
   47.9000   30.1200   46.7860 C   0  0  0  0  0  0  0  0  0  0  0  0
   48.3170   28.8640   46.5130 N   0  0  0  0  0  0  0  0  0  0  0  0
   48.9420   28.3890   47.6570 C   0  0  0  0  0  0  0  0  0  0  0  0
   48.8900   29.3680   48.5950 N   0  0  0  0  0  0  0  0  0  0  0  0
   48.2600   30.4180   48.0700 C   0  0  0  0  0  0  0  0  0  0  0  0
   47.9410   31.6570   48.5860 C   0  0  0  0  0  0  0  0  0  0  0  0
   47.0590   33.5620   48.3310 H   0  0  0  0  0  0  0  0  0  0  0  0
   46.9370   30.8500   45.0190 H   0  0  0  0  0  0  0  0  0  0  0  0
   48.2050   28.3240   45.6200 H   0  0  0  0  0  0  0  0  0  0  0  0
   49.3820   27.4040   47.7440 H   0  0  0  0  0  0  0  0  0  0  0  0
   48.2430   31.8540   49.6070 H   0  0  0  0  0  0  0  0  0  0  0  0
   45.8700   34.8100   42.4260 O   0  0  0  0  0  0  0  0  0  0  0  0
   44.9830   34.2850   41.4930 C   0  0  0  0  0  0  0  0  0  0  0  0
   45.8280   33.8950   40.5210 C   0  0  0  0  0  0  0  0  0  0  0  0
   44.6310   33.1690   39.2310 S   0  0  0  0  0  0  0  0  0  0  0  0
   43.1820   33.5880   40.3750 C   0  0  0  0  0  0  0  0  0  0  0  0
   43.7180   34.0440   41.2230 N   0  0  0  0  0  0  0  0  0  0  0  0
   46.8830   33.7610   40.0440 H   0  0  0  0  0  0  0  0  0  0  0  0
   40.9190   34.3140   40.6590 C   0  0  1  0  0  3  0  0  0  0  0  0
   41.7790   33.2870   40.0080 C   0  0  1  0  0  3  0  0  0  0  0  0
   41.6640   33.3930   38.5030 C   0  0  0  0  0  3  0  0  0  0  0  0
   41.5280   32.4040   38.0210 H   0  0  0  0  0  0  0  0  0  0  0  0
   40.6000   34.2270   38.1310 O   0  0  0  0  0  0  0  0  0  0  0  0
   40.8770   35.5380   38.5190 C   0  0  0  0  0  3  0  0  0  0  0  0
   39.9810   36.1270   38.2060 H   0  0  0  0  0  0  0  0  0  0  0  0
   41.0450   35.6470   40.0020 C   0  0  1  0  0  3  0  0  0  0  0  0
   39.5750   33.8850   40.6750 O   0  0  0  0  0  0  0  0  0  0  0  0
   39.0680   34.3670   41.3810 H   0  0  0  0  0  0  0  0  0  0  0  0
   40.0690   36.4790   40.5660 O   0  0  0  0  0  0  0  0  0  0  0  0
   39.3040   36.5050   39.9190 H   0  0  0  0  0  0  0  0  0  0  0  0
  1  2  2  0  0  0  0
  1  6  1  0  0  0  0
  2  3  1  0  0  0  0
  3  4  2  0  0  0  0
  3 10  1  0  0  0  0
  5  4  1  0  0  0  0
  5  8  1  0  0  0  0
  6  5  2  0  0  0  0
  7  2  1  0  0  0  0
  9 18  1  0  0  0  0
  9 17  1  0  0  0  0
 10  9  2  0  0  0  0
 11 10  1  0  0  0  0
 11 12  2  0  0  0  0
 12 16  1  0  0  0  0
 13 12  1  0  0  0  0
 13 14  1  0  0  0  0
 14 21  1  0  0  0  0
 14 15  2  0  0  0  0
 16 17  2  0  0  0  0
 16 15  1  0  0  0  0
 17 22  1  0  0  0  0
 19 11  1  0  0  0  0
 20 13  1  0  0  0  0
 23  1  1  0  0  0  0
 24 23  1  0  0  0  0
 25 24  2  0  0  0  0
 26 27  1  0  0  0  0
 26 25  1  0  0  0  0
 27 28  2  0  0  0  0
 28 24  1  0  0  0  0
 29 25  1  0  0  0  0
 30 38  1  6  0  0  0
 31 27  1  6  0  0  0
 31 30  1  0  0  0  0
 32 31  1  0  0  0  0
 33 32  1  0  0  0  0
 34 32  1  0  0  0  0
 34 35  1  0  0  0  0
 35 37  1  0  0  0  0
 36 35  1  0  0  0  0
 37 40  1  1  0  0  0
 37 30  1  0  0  0  0
 38 39  1  0  0  0  0
 41 40  1  0  0  0  0
M  END
>  <minimizedAffinity>
-6.72925377

>  <minimizedRMSD>
1.64710629

$$$$
