
 OpenBabel03252506183D

 26 27  0  0  1  0  0  0  0  0999 V2000
   44.6910   35.5220   43.5590 C   0  0  0  0  0  0  0  0  0  0  0  0
   43.8800   35.4540   42.3980 C   0  0  0  0  0  0  0  0  0  0  0  0
   43.6970   34.2060   41.8160 C   0  0  0  0  0  0  0  0  0  0  0  0
   44.2960   33.1180   42.3790 N   0  0  0  0  0  0  0  0  0  0  0  0
   45.0660   33.2190   43.4910 C   0  0  0  0  0  0  0  0  0  0  0  0
   45.2470   34.4270   44.0600 N   0  0  0  0  0  0  0  0  0  0  0  0
   43.4150   36.3230   41.9700 H   0  0  0  0  0  0  0  0  0  0  0  0
   43.0880   34.0750   40.9230 H   0  0  0  0  0  0  0  0  0  0  0  0
   46.6560   31.3410   43.0870 C   0  0  2  0  0  3  0  0  0  0  0  0
   45.6640   31.9840   44.0130 C   0  0  1  0  0  3  0  0  0  0  0  0
   46.3910   32.3050   45.3270 C   0  0  0  0  0  3  0  0  0  0  0  0
   47.4070   32.7060   45.0380 H   0  0  0  0  0  0  0  0  0  0  0  0
   46.6180   31.0440   45.8800 O   0  0  0  0  0  0  0  0  0  0  0  0
   47.6890   30.4800   45.2410 C   0  0  0  0  0  3  0  0  0  0  0  0
   47.7230   29.4060   45.5900 H   0  0  0  0  0  0  0  0  0  0  0  0
   47.7320   30.5730   43.7690 C   0  0  2  0  0  3  0  0  0  0  0  0
   47.1460   32.3740   42.2660 O   0  0  0  0  0  0  0  0  0  0  0  0
   47.7940   32.8720   42.8370 H   0  0  0  0  0  0  0  0  0  0  0  0
   48.9530   31.1870   43.4060 O   0  0  0  0  0  0  0  0  0  0  0  0
   49.4060   30.7330   42.6750 H   0  0  0  0  0  0  0  0  0  0  0  0
   44.8900   36.8370   44.1830 C   0  0  0  0  0  3  0  0  0  0  0  0
   45.2260   37.8540   43.4000 C   0  0  0  0  0  3  0  0  0  0  0  0
   45.4410   39.2100   43.9810 C   0  0  0  0  0  0  0  0  0  0  0  0
   44.4610   39.6910   44.1700 H   0  0  0  0  0  0  0  0  0  0  0  0
   45.9540   39.1570   44.9800 H   0  0  0  0  0  0  0  0  0  0  0  0
   46.0060   39.8570   43.3000 H   0  0  0  0  0  0  0  0  0  0  0  0
  1  6  1  0  0  0  0
  1 21  1  0  0  0  0
  2  1  2  0  0  0  0
  3  4  2  0  0  0  0
  3  2  1  0  0  0  0
  4  5  1  0  0  0  0
  5  6  2  0  0  0  0
  7  2  1  0  0  0  0
  8  3  1  0  0  0  0
  9 17  1  1  0  0  0
  9 16  1  0  0  0  0
  9 10  1  0  0  0  0
 10  5  1  6  0  0  0
 10 11  1  0  0  0  0
 11 13  1  0  0  0  0
 12 11  1  0  0  0  0
 14 15  1  0  0  0  0
 14 13  1  0  0  0  0
 16 19  1  1  0  0  0
 16 14  1  0  0  0  0
 17 18  1  0  0  0  0
 20 19  1  0  0  0  0
 22 23  1  0  0  0  0
 22 21  2  0  0  0  0
 23 24  1  0  0  0  0
 23 25  1  0  0  0  0
 26 23  1  0  0  0  0
M  END
>  <minimizedAffinity>
-3.42001557

>  <minimizedRMSD>
0.77527827

$$$$
