REMARK  Name = 
REMARK  4 active torsions:
REMARK  status: ('A' for Active; 'I' for Inactive)
REMARK    1  A    between atoms: C_1  and  O_7
REMARK    2  A    between atoms: C_5  and  C_13
REMARK    3  A    between atoms: O_11  and  C_12
REMARK    4  A    between atoms: C_19  and  O_20
REMARK                            x       y       z     vdW  Elec       q    Type
REMARK                         _______ _______ _______ _____ _____    ______ ____
ROOT
ATOM      1  C   UNL     1      46.338  32.622  47.809  0.00  0.00    +0.000 C 
ATOM      2  C   UNL     1      45.225  33.413  47.228  0.00  0.00    +0.000 C 
ATOM      3  C   UNL     1      44.935  34.661  48.072  0.00  0.00    +0.000 C 
ATOM      4  H   UNL     1      44.004  35.147  47.749  0.00  0.00    +0.000 HD
ATOM      5  O   UNL     1      44.699  34.152  49.356  0.00  0.00    +0.000 OA
ATOM      6  C   UNL     1      45.856  33.718  49.974  0.00  0.00    +0.000 C 
ATOM      7  H   UNL     1      45.582  32.812  50.558  0.00  0.00    +0.000 HD
ATOM      8  C   UNL     1      46.954  33.354  48.996  0.00  0.00    +0.000 C 
ENDROOT
BRANCH   2  13
ATOM      9  C   UNL     1      45.001  35.482  44.194  0.00  0.00    +0.000 A 
ATOM     10  C   UNL     1      45.978  34.934  43.337  0.00  0.00    +0.000 A 
ATOM     11  C   UNL     1      46.715  33.831  43.837  0.00  0.00    +0.000 A 
ATOM     12  N   UNL     1      46.438  33.380  45.091  0.00  0.00    +0.000 NA
ATOM     13  C   UNL     1      45.497  33.940  45.861  0.00  0.00    +0.000 A 
ATOM     14  N   UNL     1      44.780  34.992  45.409  0.00  0.00    +0.000 NA
ATOM     15  H   UNL     1      46.204  35.279  42.355  0.00  0.00    +0.000 HD
ATOM     16  H   UNL     1      47.484  33.366  43.221  0.00  0.00    +0.000 HD
BRANCH   9  17
ATOM     17  O   UNL     1      44.289  36.545  43.714  0.00  0.00    +0.000 OA
ATOM     18  H   UNL     1      44.158  37.361  44.326  0.00  0.00    +0.000 HD
ENDBRANCH   9  17
ENDBRANCH   2  13
BRANCH   1  19
ATOM     19  O   UNL     1      47.334  32.269  46.909  0.00  0.00    +0.000 OA
ATOM     20  H   UNL     1      47.585  31.300  47.004  0.00  0.00    +0.000 HD
ENDBRANCH   1  19
BRANCH   8  21
ATOM     21  O   UNL     1      47.859  32.475  49.583  0.00  0.00    +0.000 OA
ATOM     22  H   UNL     1      48.201  31.780  48.970  0.00  0.00    +0.000 HD
ENDBRANCH   8  21
TORSDOF 4
