
 OpenBabel03252506283D

 50 54  0  0  1  0  0  0  0  0999 V2000
   46.2700   32.9000   45.9720 C   0  0  0  0  0  0  0  0  0  0  0  0
   47.2870   31.9870   45.6370 C   0  0  0  0  0  0  0  0  0  0  0  0
   47.4530   31.1280   46.6650 C   0  0  0  0  0  0  0  0  0  0  0  0
   46.5800   31.4890   47.6000 N   0  0  0  0  0  0  0  0  0  0  0  0
   45.8680   32.5410   47.2040 N   0  0  0  0  0  0  0  0  0  0  0  0
   47.8300   31.9910   44.7080 H   0  0  0  0  0  0  0  0  0  0  0  0
   48.1650   30.3210   46.6850 H   0  0  0  0  0  0  0  0  0  0  0  0
   44.4900   35.8730   44.8210 C   0  0  0  0  0  0  0  0  0  0  0  0
   44.9230   36.0190   43.5160 C   0  0  0  0  0  0  0  0  0  0  0  0
   45.8360   35.0880   43.0240 C   0  0  0  0  0  0  0  0  0  0  0  0
   46.2280   34.1090   43.8680 N   0  0  0  0  0  0  0  0  0  0  0  0
   45.8130   33.9690   45.1170 C   0  0  0  0  0  0  0  0  0  0  0  0
   44.9360   34.8670   45.5890 N   0  0  0  0  0  0  0  0  0  0  0  0
   43.7810   36.6210   45.1610 H   0  0  0  0  0  0  0  0  0  0  0  0
   44.6240   36.7850   42.8340 H   0  0  0  0  0  0  0  0  0  0  0  0
   46.0450   33.8370   40.8990 C   0  0  2  0  0  3  0  0  0  0  0  0
   46.4110   35.0880   41.6400 C   0  0  2  0  0  3  0  0  0  0  0  0
   47.8930   35.3100   41.7760 C   0  0  0  0  0  3  0  0  0  0  0  0
   48.0230   36.3790   42.0530 H   0  0  0  0  0  0  0  0  0  0  0  0
   48.6060   35.0600   40.6240 O   0  0  0  0  0  0  0  0  0  0  0  0
   48.3290   33.8470   40.0440 C   0  0  0  0  0  3  0  0  0  0  0  0
   47.9980   33.9560   38.9800 H   0  0  0  0  0  0  0  0  0  0  0  0
   47.3120   33.0190   40.7590 C   0  0  2  0  0  3  0  0  0  0  0  0
   45.5680   34.1230   39.6300 O   0  0  0  0  0  0  0  0  0  0  0  0
   45.7420   35.0850   39.4510 H   0  0  0  0  0  0  0  0  0  0  0  0
   47.0850   31.8660   40.0150 O   0  0  0  0  0  0  0  0  0  0  0  0
   46.4460   32.0260   39.2630 H   0  0  0  0  0  0  0  0  0  0  0  0
   46.4000   30.8400   48.8930 C   0  0  0  0  0  0  0  0  0  0  0  0
   46.4820   31.6290   49.6660 H   0  0  0  0  0  0  0  0  0  0  0  0
   47.1550   30.0600   49.0390 H   0  0  0  0  0  0  0  0  0  0  0  0
   45.0550   30.2290   48.9950 C   0  0  0  0  0  0  0  0  0  0  0  0
   44.2960   31.0300   48.7640 H   0  0  0  0  0  0  0  0  0  0  0  0
   44.8710   30.0140   50.0870 H   0  0  0  0  0  0  0  0  0  0  0  0
   44.9290   27.7060   48.6360 C   0  0  0  0  0  0  0  0  0  0  0  0
   44.8150   29.0200   48.2370 C   0  0  0  0  0  0  0  0  0  0  0  0
   44.4140   29.2290   46.9200 C   0  0  0  0  0  0  0  0  0  0  0  0
   44.1470   28.1880   46.0700 C   0  0  0  0  0  0  0  0  0  0  0  0
   43.7530   28.0920   44.7790 N   0  0  0  0  0  0  0  0  0  0  0  0
   43.6270   26.8170   44.3970 C   0  0  0  0  0  0  0  0  0  0  0  0
   43.9530   26.0000   45.4790 C   0  0  0  0  0  0  0  0  0  0  0  0
   44.2610   26.8890   46.4650 C   0  0  0  0  0  0  0  0  0  0  0  0
   44.6570   26.6680   47.7690 C   0  0  0  0  0  0  0  0  0  0  0  0
   45.2430   27.5770   49.6670 H   0  0  0  0  0  0  0  0  0  0  0  0
   44.2820   30.2150   46.4700 H   0  0  0  0  0  0  0  0  0  0  0  0
   43.5620   28.9210   44.1410 H   0  0  0  0  0  0  0  0  0  0  0  0
   43.3240   26.4690   43.4120 H   0  0  0  0  0  0  0  0  0  0  0  0
   43.9350   24.9230   45.4420 H   0  0  0  0  0  0  0  0  0  0  0  0
   44.7980   25.2940   48.2590 C   0  0  0  0  0  0  0  0  0  0  0  0
   45.2340   25.0530   49.4120 O   0  0  0  0  0  0  0  0  0  0  0  0
   44.5260   24.4580   47.6260 H   0  0  0  0  0  0  0  0  0  0  0  0
  1  5  2  0  0  0  0
  2  1  1  0  0  0  0
  2  3  2  0  0  0  0
  3  7  1  0  0  0  0
  3  4  1  0  0  0  0
  4 28  1  0  0  0  0
  5  4  1  0  0  0  0
  6  2  1  0  0  0  0
  8 14  1  0  0  0  0
  8 13  1  0  0  0  0
  9  8  2  0  0  0  0
 10  9  1  0  0  0  0
 10 11  2  0  0  0  0
 11 12  1  0  0  0  0
 12 13  2  0  0  0  0
 12  1  1  0  0  0  0
 15  9  1  0  0  0  0
 16 24  1  6  0  0  0
 16 17  1  0  0  0  0
 17 18  1  0  0  0  0
 17 10  1  1  0  0  0
 18 19  1  0  0  0  0
 20 18  1  0  0  0  0
 21 20  1  0  0  0  0
 21 23  1  0  0  0  0
 22 21  1  0  0  0  0
 23 26  1  6  0  0  0
 23 16  1  0  0  0  0
 25 24  1  0  0  0  0
 27 26  1  0  0  0  0
 28 31  1  0  0  0  0
 28 30  1  0  0  0  0
 28 29  1  0  0  0  0
 31 33  1  0  0  0  0
 32 31  1  0  0  0  0
 34 43  1  0  0  0  0
 35 34  1  0  0  0  0
 35 31  1  0  0  0  0
 36 35  2  0  0  0  0
 37 41  2  0  0  0  0
 37 36  1  0  0  0  0
 38 37  1  0  0  0  0
 39 38  1  0  0  0  0
 39 40  2  0  0  0  0
 40 41  1  0  0  0  0
 41 42  1  0  0  0  0
 42 48  1  0  0  0  0
 42 34  2  0  0  0  0
 44 36  1  0  0  0  0
 45 38  1  0  0  0  0
 46 39  1  0  0  0  0
 47 40  1  0  0  0  0
 48 49  2  0  0  0  0
 50 48  1  0  0  0  0
M  END
>  <minimizedAffinity>
-6.37481976

>  <minimizedRMSD>
0.956891954

$$$$
