
 OpenBabel03242523463D

 22 23  0  0  1  0  0  0  0  0999 V2000
   47.5780   34.3620   41.8410 C   0  0  1  0  0  3  0  0  0  0  0  0
   46.4690   33.3560   41.8380 C   0  0  2  0  0  3  0  0  0  0  0  0
   46.5240   32.4070   40.6550 C   0  0  0  0  0  3  0  0  0  0  0  0
   46.1860   31.4170   41.0260 H   0  0  0  0  0  0  0  0  0  0  0  0
   47.8040   32.2210   40.1700 O   0  0  0  0  0  0  0  0  0  0  0  0
   48.3630   33.3840   39.6510 C   0  0  0  0  0  3  0  0  0  0  0  0
   49.4680   33.2550   39.6760 H   0  0  0  0  0  0  0  0  0  0  0  0
   48.0170   34.6160   40.4200 C   0  0  2  0  0  3  0  0  0  0  0  0
   43.3970   34.9770   40.3770 C   0  0  0  0  0  0  0  0  0  0  0  0
   44.6130   34.2760   40.4340 C   0  0  0  0  0  0  0  0  0  0  0  0
   45.1870   34.0880   41.7160 C   0  0  0  0  0  0  0  0  0  0  0  0
   44.5420   34.5840   42.7980 N   0  0  0  0  0  0  0  0  0  0  0  0
   43.3770   35.2500   42.6910 C   0  0  0  0  0  0  0  0  0  0  0  0
   42.8050   35.4460   41.4960 N   0  0  0  0  0  0  0  0  0  0  0  0
   45.1050   33.8910   39.5530 H   0  0  0  0  0  0  0  0  0  0  0  0
   42.8300   35.6630   43.5390 H   0  0  0  0  0  0  0  0  0  0  0  0
   42.8390   35.1620   39.1410 O   0  0  0  0  0  0  0  0  0  0  0  0
   43.2140   35.8920   38.5490 H   0  0  0  0  0  0  0  0  0  0  0  0
   47.0650   35.5850   42.3230 O   0  0  0  0  0  0  0  0  0  0  0  0
   47.7460   36.2120   42.6140 H   0  0  0  0  0  0  0  0  0  0  0  0
   49.1260   35.4620   40.4700 O   0  0  0  0  0  0  0  0  0  0  0  0
   49.0190   36.2530   41.0190 H   0  0  0  0  0  0  0  0  0  0  0  0
  1 19  1  6  0  0  0
  2 11  1  6  0  0  0
  2  1  1  0  0  0  0
  3  4  1  0  0  0  0
  3  2  1  0  0  0  0
  5  3  1  0  0  0  0
  6  7  1  0  0  0  0
  6  5  1  0  0  0  0
  6  8  1  0  0  0  0
  8 21  1  1  0  0  0
  8  1  1  0  0  0  0
  9 10  2  0  0  0  0
  9 14  1  0  0  0  0
 10 11  1  0  0  0  0
 11 12  2  0  0  0  0
 13 12  1  0  0  0  0
 13 16  1  0  0  0  0
 14 13  2  0  0  0  0
 15 10  1  0  0  0  0
 17  9  1  0  0  0  0
 18 17  1  0  0  0  0
 19 20  1  0  0  0  0
 21 22  1  0  0  0  0
M  END
>  <minimizedAffinity>
-3.88287663

>  <minimizedRMSD>
3.63178563

$$$$
