
 OpenBabel03252507383D

 41 45  0  0  1  0  0  0  0  0999 V2000
   45.2200   34.2910   43.6600 C   0  0  0  0  0  0  0  0  0  0  0  0
   45.9850   33.2730   44.2840 C   0  0  0  0  0  0  0  0  0  0  0  0
   46.0200   33.2770   45.6770 C   0  0  0  0  0  0  0  0  0  0  0  0
   45.3530   34.2130   46.3480 N   0  0  0  0  0  0  0  0  0  0  0  0
   44.6280   35.1770   45.7310 C   0  0  0  0  0  0  0  0  0  0  0  0
   44.5670   35.2090   44.4050 N   0  0  0  0  0  0  0  0  0  0  0  0
   46.5200   32.5230   43.7630 H   0  0  0  0  0  0  0  0  0  0  0  0
   44.1220   35.8920   46.3680 H   0  0  0  0  0  0  0  0  0  0  0  0
   47.1570   32.6560   47.7360 C   0  0  0  0  0  0  0  0  0  0  0  0
   46.7760   32.2790   46.4470 C   0  0  0  0  0  0  0  0  0  0  0  0
   47.1210   31.0450   46.0020 C   0  0  0  0  0  0  0  0  0  0  0  0
   47.8330   30.1410   46.7640 C   0  0  0  0  0  0  0  0  0  0  0  0
   48.2720   28.8870   46.5220 N   0  0  0  0  0  0  0  0  0  0  0  0
   48.9370   28.4650   47.6640 C   0  0  0  0  0  0  0  0  0  0  0  0
   48.8850   29.4730   48.5710 N   0  0  0  0  0  0  0  0  0  0  0  0
   48.2170   30.4910   48.0290 C   0  0  0  0  0  0  0  0  0  0  0  0
   47.8810   31.7380   48.5120 C   0  0  0  0  0  0  0  0  0  0  0  0
   46.9470   33.6130   48.2180 H   0  0  0  0  0  0  0  0  0  0  0  0
   46.8090   30.7900   45.0010 H   0  0  0  0  0  0  0  0  0  0  0  0
   48.1510   28.3160   45.6510 H   0  0  0  0  0  0  0  0  0  0  0  0
   49.4020   27.4950   47.7730 H   0  0  0  0  0  0  0  0  0  0  0  0
   48.2030   31.9760   49.5180 H   0  0  0  0  0  0  0  0  0  0  0  0
   45.1760   34.2970   42.2650 O   0  0  0  0  0  0  0  0  0  0  0  0
   44.0590   33.7960   41.6070 C   0  0  0  0  0  0  0  0  0  0  0  0
   44.5990   32.7780   40.9130 C   0  0  0  0  0  0  0  0  0  0  0  0
   43.0810   32.0760   40.0040 S   0  0  0  0  0  0  0  0  0  0  0  0
   42.0060   33.4020   40.8220 C   0  0  0  0  0  0  0  0  0  0  0  0
   42.7630   33.9350   41.4210 N   0  0  0  0  0  0  0  0  0  0  0  0
   45.4810   32.0980   40.5700 H   0  0  0  0  0  0  0  0  0  0  0  0
   40.3460   34.5900   39.5740 C   0  0  1  0  0  3  0  0  0  0  0  0
   40.5510   33.5020   40.5690 C   0  0  1  0  0  3  0  0  0  0  0  0
   40.0930   32.1800   39.9920 C   0  0  0  0  0  3  0  0  0  0  0  0
   39.4730   31.6010   40.7060 H   0  0  0  0  0  0  0  0  0  0  0  0
   39.3650   32.3650   38.8090 O   0  0  0  0  0  0  0  0  0  0  0  0
   40.2070   32.8680   37.8160 C   0  0  0  0  0  3  0  0  0  0  0  0
   39.5510   33.0020   36.9230 H   0  0  0  0  0  0  0  0  0  0  0  0
   40.7870   34.1900   38.2080 C   0  0  1  0  0  3  0  0  0  0  0  0
   38.9940   34.9960   39.5680 O   0  0  0  0  0  0  0  0  0  0  0  0
   38.9110   35.9100   39.1900 H   0  0  0  0  0  0  0  0  0  0  0  0
   40.3820   35.2050   37.3290 O   0  0  0  0  0  0  0  0  0  0  0  0
   39.5420   34.8820   36.8850 H   0  0  0  0  0  0  0  0  0  0  0  0
  1  2  2  0  0  0  0
  1  6  1  0  0  0  0
  2  3  1  0  0  0  0
  3  4  2  0  0  0  0
  3 10  1  0  0  0  0
  5  4  1  0  0  0  0
  5  8  1  0  0  0  0
  6  5  2  0  0  0  0
  7  2  1  0  0  0  0
  9 18  1  0  0  0  0
  9 17  1  0  0  0  0
 10  9  2  0  0  0  0
 11 10  1  0  0  0  0
 11 12  2  0  0  0  0
 12 16  1  0  0  0  0
 13 12  1  0  0  0  0
 13 14  1  0  0  0  0
 14 21  1  0  0  0  0
 14 15  2  0  0  0  0
 16 17  2  0  0  0  0
 16 15  1  0  0  0  0
 17 22  1  0  0  0  0
 19 11  1  0  0  0  0
 20 13  1  0  0  0  0
 23  1  1  0  0  0  0
 24 23  1  0  0  0  0
 25 24  2  0  0  0  0
 26 27  1  0  0  0  0
 26 25  1  0  0  0  0
 27 28  2  0  0  0  0
 28 24  1  0  0  0  0
 29 25  1  0  0  0  0
 30 38  1  6  0  0  0
 30 31  1  0  0  0  0
 31 27  1  6  0  0  0
 32 31  1  0  0  0  0
 32 33  1  0  0  0  0
 34 32  1  0  0  0  0
 35 37  1  0  0  0  0
 35 34  1  0  0  0  0
 36 35  1  0  0  0  0
 37 40  1  6  0  0  0
 37 30  1  0  0  0  0
 39 38  1  0  0  0  0
 41 40  1  0  0  0  0
M  END
>  <minimizedAffinity>
-6.23949146

>  <minimizedRMSD>
1.68957889

$$$$
