
 OpenBabel03252506183D

 26 27  0  0  1  0  0  0  0  0999 V2000
   44.7480   35.7010   43.5090 C   0  0  0  0  0  0  0  0  0  0  0  0
   44.0550   35.6640   42.2730 C   0  0  0  0  0  0  0  0  0  0  0  0
   43.8770   34.4240   41.6740 C   0  0  0  0  0  0  0  0  0  0  0  0
   44.3700   33.3130   42.2920 N   0  0  0  0  0  0  0  0  0  0  0  0
   45.0290   33.3840   43.4760 C   0  0  0  0  0  0  0  0  0  0  0  0
   45.2040   34.5850   44.0610 N   0  0  0  0  0  0  0  0  0  0  0  0
   43.6730   36.5510   41.8010 H   0  0  0  0  0  0  0  0  0  0  0  0
   43.3560   34.3150   40.7250 H   0  0  0  0  0  0  0  0  0  0  0  0
   46.4930   31.3860   43.1830 C   0  0  2  0  0  3  0  0  0  0  0  0
   45.5190   32.1260   44.0540 C   0  0  1  0  0  3  0  0  0  0  0  0
   46.2200   32.4350   45.3840 C   0  0  0  0  0  3  0  0  0  0  0  0
   47.2720   32.7530   45.1220 H   0  0  0  0  0  0  0  0  0  0  0  0
   46.3380   31.1780   45.9790 O   0  0  0  0  0  0  0  0  0  0  0  0
   47.3870   30.5210   45.3970 C   0  0  0  0  0  3  0  0  0  0  0  0
   47.3330   29.4580   45.7760 H   0  0  0  0  0  0  0  0  0  0  0  0
   47.4880   30.5660   43.9240 C   0  0  2  0  0  3  0  0  0  0  0  0
   47.0850   32.3580   42.3520 O   0  0  0  0  0  0  0  0  0  0  0  0
   47.7460   32.8260   42.9310 H   0  0  0  0  0  0  0  0  0  0  0  0
   48.7620   31.0800   43.5890 O   0  0  0  0  0  0  0  0  0  0  0  0
   49.2060   30.5750   42.8890 H   0  0  0  0  0  0  0  0  0  0  0  0
   44.9400   37.0080   44.1510 C   0  0  0  0  0  3  0  0  0  0  0  0
   45.2530   38.0410   43.3800 C   0  0  0  0  0  3  0  0  0  0  0  0
   45.4600   39.3910   43.9800 C   0  0  0  0  0  0  0  0  0  0  0  0
   44.4770   39.8560   44.1900 H   0  0  0  0  0  0  0  0  0  0  0  0
   45.9860   39.3280   44.9710 H   0  0  0  0  0  0  0  0  0  0  0  0
   46.0070   40.0550   43.3020 H   0  0  0  0  0  0  0  0  0  0  0  0
  1  6  1  0  0  0  0
  1 21  1  0  0  0  0
  2  1  2  0  0  0  0
  3  2  1  0  0  0  0
  3  4  2  0  0  0  0
  4  5  1  0  0  0  0
  5  6  2  0  0  0  0
  7  2  1  0  0  0  0
  8  3  1  0  0  0  0
  9 17  1  1  0  0  0
  9 16  1  0  0  0  0
  9 10  1  0  0  0  0
 10  5  1  6  0  0  0
 10 11  1  0  0  0  0
 11 13  1  0  0  0  0
 12 11  1  0  0  0  0
 14 15  1  0  0  0  0
 14 13  1  0  0  0  0
 16 19  1  1  0  0  0
 16 14  1  0  0  0  0
 17 18  1  0  0  0  0
 20 19  1  0  0  0  0
 22 23  1  0  0  0  0
 22 21  2  0  0  0  0
 23 24  1  0  0  0  0
 23 25  1  0  0  0  0
 26 23  1  0  0  0  0
M  END
>  <minimizedAffinity>
-3.41094065

>  <minimizedRMSD>
1.33305502

$$$$
