
     RDKit          3D

 39 41  0  0  0  0  0  0  0  0999 V2000
   46.6972   34.2518   40.6835 C   0  0  0  0  0  0  0  0  0  0  0  0
   48.0480   34.1807   41.3012 C   0  0  0  0  0  0  0  0  0  0  0  0
   48.7503   32.9832   41.1641 C   0  0  0  0  0  0  0  0  0  0  0  0
   50.0077   32.8698   41.7191 C   0  0  0  0  0  0  0  0  0  0  0  0
   50.5215   33.9486   42.3895 N   0  0  0  0  0  0  0  0  0  0  0  0
   49.8083   35.0937   42.5008 C   0  0  0  0  0  0  0  0  0  0  0  0
   48.6037   35.1968   41.9669 N   0  0  0  0  0  0  0  0  0  0  0  0
   48.0032   31.6100   40.2676 S   0  0  0  0  0  0  0  0  0  0  0  0
   45.6142   34.5770   41.6431 C   0  0  0  0  0  0  0  0  0  0  0  0
   44.2558   34.6670   41.0678 C   0  0  0  0  0  0  0  0  0  0  0  0
   43.2436   35.4748   41.6807 C   0  0  0  0  0  0  0  0  0  0  0  0
   41.7923   35.2158   40.5698 S   0  0  0  0  0  0  0  0  0  0  0  0
   42.8104   34.0633   39.4762 C   0  0  0  0  0  0  0  0  0  0  0  0
   43.8257   34.0554   39.9878 N   0  0  0  0  0  0  0  0  0  0  0  0
   46.7638   35.1245   39.9685 H   0  0  0  0  0  0  0  0  0  0  0  0
   46.4937   33.3904   40.0604 H   0  0  0  0  0  0  0  0  0  0  0  0
   50.5806   31.9610   41.6341 H   0  0  0  0  0  0  0  0  0  0  0  0
   50.2194   35.9512   43.0350 H   0  0  0  0  0  0  0  0  0  0  0  0
   47.9112   30.4796   41.1285 H   0  0  0  0  0  0  0  0  0  0  0  0
   45.8664   35.5180   42.1696 H   0  0  0  0  0  0  0  0  0  0  0  0
   45.5683   33.7412   42.3911 H   0  0  0  0  0  0  0  0  0  0  0  0
   43.3754   36.0656   42.5778 H   0  0  0  0  0  0  0  0  0  0  0  0
   44.0331   31.8862   38.2853 O   0  0  0  0  0  0  0  0  0  0  0  0
   42.6636   31.9294   38.2084 C   0  0  1  0  0  0  0  0  0  0  0  0
   42.2419   33.4020   38.2550 C   0  0  2  0  0  0  0  0  0  0  0  0
   42.8288   34.0972   37.0735 C   0  0  1  0  0  0  0  0  0  0  0  0
   42.0139   34.6533   36.5516 H   0  0  0  0  0  0  0  0  0  0  0  0
   43.2607   33.1497   36.1252 O   0  0  0  0  0  0  0  0  0  0  0  0
   42.2524   32.2397   35.8268 C   0  0  1  0  0  0  0  0  0  0  0  0
   41.2911   32.7540   35.5686 H   0  0  0  0  0  0  0  0  0  0  0  0
   42.0645   31.3136   36.9872 C   0  0  2  0  0  0  0  0  0  0  0  0
   40.6952   31.0958   37.2636 O   0  0  0  0  0  0  0  0  0  0  0  0
   44.3826   31.2448   38.9481 H   0  0  0  0  0  0  0  0  0  0  0  0
   42.2526   31.4600   39.1415 H   0  0  0  0  0  0  0  0  0  0  0  0
   41.1347   33.4633   38.2538 H   0  0  0  0  0  0  0  0  0  0  0  0
   43.6852   34.7418   37.3150 H   0  0  0  0  0  0  0  0  0  0  0  0
   42.6359   31.6332   34.9804 H   0  0  0  0  0  0  0  0  0  0  0  0
   42.5316   30.3145   36.8081 H   0  0  0  0  0  0  0  0  0  0  0  0
   40.5680   31.0223   38.2397 H   0  0  0  0  0  0  0  0  0  0  0  0
  1  2  1  0
  1  9  1  0
  2  7  1  0
  3  2  2  0
  3  4  1  0
  4  5  2  0
  5  6  1  0
  7  6  2  0
  8  3  1  0
 10  9  1  0
 10 11  2  0
 12 11  1  0
 13 14  2  0
 13 12  1  0
 14 10  1  0
  1 15  1  0
  1 16  1  0
  4 17  1  0
  6 18  1  0
  8 19  1  0
  9 20  1  0
  9 21  1  0
 11 22  1  0
 23 24  1  0
 24 25  1  0
 25 26  1  0
 26 27  1  6
 26 28  1  0
 28 29  1  0
 29 30  1  6
 29 31  1  0
 31 32  1  0
 31 24  1  0
 23 33  1  0
 24 34  1  1
 25 35  1  1
 26 36  1  0
 29 37  1  0
 31 38  1  6
 32 39  1  0
 13 25  1  0
M  ISO  8  15   8  16   8  17  14  18  14  19  11  20   8  21   8  22  14
M  ISO  2  27   8  30   8
M  END
>  <DihAtoms>  (1) 
13,12,24,23

>  <DihDeg>  (1) 
59.173815065872304

$$$$
