
     RDKit          3D

 27 28  0  0  0  0  0  0  0  0999 V2000
   45.0018   35.4849   44.1873 C   0  0  0  0  0  0  0  0  0  0  0  0
   45.9772   34.9333   43.3400 C   0  0  0  0  0  0  0  0  0  0  0  0
   46.7135   33.8312   43.8408 C   0  0  0  0  0  0  0  0  0  0  0  0
   46.4417   33.3774   45.0873 N   0  0  0  0  0  0  0  0  0  0  0  0
   45.4956   33.9415   45.8607 C   0  0  0  0  0  0  0  0  0  0  0  0
   44.7804   34.9843   45.4204 N   0  0  0  0  0  0  0  0  0  0  0  0
   44.2877   36.5503   43.7075 O   0  0  0  0  0  0  0  0  0  0  0  0
   46.1735   35.3158   42.3489 H   0  0  0  0  0  0  0  0  0  0  0  0
   45.2501   33.6030   46.8679 H   0  0  0  0  0  0  0  0  0  0  0  0
   44.7226   37.4641   43.7177 H   0  0  0  0  0  0  0  0  0  0  0  0
   45.8132   31.9845   42.4548 O   0  0  0  0  0  0  0  0  0  0  0  0
   47.2227   31.9045   42.4832 C   0  0  1  0  0  0  0  0  0  0  0  0
   47.7564   33.2069   42.9924 C   0  0  2  0  0  0  0  0  0  0  0  0
   48.9775   33.0486   43.8801 C   0  0  1  0  0  0  0  0  0  0  0  0
   49.6417   33.9119   43.6640 H   0  0  0  0  0  0  0  0  0  0  0  0
   49.7132   31.9150   43.5908 O   0  0  0  0  0  0  0  0  0  0  0  0
   49.0127   30.7378   43.8270 C   0  0  1  0  0  0  0  0  0  0  0  0
   49.4864   29.9446   43.2060 H   0  0  0  0  0  0  0  0  0  0  0  0
   47.5644   30.8126   43.4668 C   0  0  2  0  0  0  0  0  0  0  0  0
   47.1603   29.6017   42.9052 O   0  0  0  0  0  0  0  0  0  0  0  0
   45.3917   31.3107   41.8995 H   0  0  0  0  0  0  0  0  0  0  0  0
   47.5377   31.6210   41.4765 H   0  0  0  0  0  0  0  0  0  0  0  0
   47.9581   33.9275   42.1645 H   0  0  0  0  0  0  0  0  0  0  0  0
   48.7305   33.1453   44.9663 H   0  0  0  0  0  0  0  0  0  0  0  0
   49.0903   30.3982   44.9012 H   0  0  0  0  0  0  0  0  0  0  0  0
   46.9612   30.9426   44.3964 H   0  0  0  0  0  0  0  0  0  0  0  0
   46.2531   29.5850   42.5667 H   0  0  0  0  0  0  0  0  0  0  0  0
  1  6  2  0
  2  3  2  0
  2  1  1  0
  3  4  1  0
  4  5  2  0
  6  5  1  0
  7  1  1  0
  2  8  1  0
  5  9  1  0
  7 10  1  0
 11 12  1  0
 12 13  1  0
 13 14  1  0
 14 15  1  6
 14 16  1  0
 16 17  1  0
 17 18  1  6
 17 19  1  0
 19 20  1  0
 19 12  1  0
 11 21  1  0
 12 22  1  6
 13 23  1  6
 14 24  1  0
 17 25  1  0
 19 26  1  1
 20 27  1  0
  3 13  1  0
M  ISO  5   8  14   9  14  10   3  15   8  18   8
M  END
>  <DihAtoms>  (1) 
1,2,12,11

>  <DihDeg>  (1) 
-120.32930638789271

$$$$
