
     RDKit          3D

 51 54  0  0  0  0  0  0  0  0999 V2000
   47.3531   33.4057   43.6424 N   0  0  0  0  0  0  0  0  0  0  0  0
   48.1430   34.0341   42.5962 C   0  0  0  0  0  0  0  0  0  0  0  0
   48.0389   32.9669   41.5503 C   0  0  2  0  0  0  0  0  0  0  0  0
   48.3841   31.7187   42.3455 C   0  0  0  0  0  0  0  0  0  0  0  0
   47.7748   32.0119   43.6925 C   0  0  0  0  0  0  0  0  0  0  0  0
   44.5860   35.4420   45.0706 C   0  0  0  0  0  0  0  0  0  0  0  0
   45.5331   34.9965   44.1554 C   0  0  0  0  0  0  0  0  0  0  0  0
   46.3684   33.9328   44.4854 C   0  0  0  0  0  0  0  0  0  0  0  0
   46.1919   33.3894   45.7178 N   0  0  0  0  0  0  0  0  0  0  0  0
   45.2831   33.8091   46.6090 C   0  0  0  0  0  0  0  0  0  0  0  0
   44.4713   34.8501   46.2762 N   0  0  0  0  0  0  0  0  0  0  0  0
   48.9966   33.0995   40.4988 N   0  0  0  0  0  0  0  0  0  0  0  0
   49.4198   32.1928   38.2320 C   0  0  0  0  0  0  0  0  0  0  0  0
   48.8790   33.1359   39.0967 C   0  0  0  0  0  0  0  0  0  0  0  0
   48.2011   34.1348   38.4515 C   0  0  0  0  0  0  0  0  0  0  0  0
   48.0333   34.2548   37.0920 C   0  0  0  0  0  0  0  0  0  0  0  0
   48.5885   33.2943   36.2771 C   0  0  0  0  0  0  0  0  0  0  0  0
   49.2853   32.2593   36.8619 C   0  0  0  0  0  0  0  0  0  0  0  0
   50.7451   30.2047   39.3117 N   0  0  0  0  0  0  0  0  0  0  0  0
   50.1644   31.0838   38.8279 C   0  0  0  0  0  0  0  0  0  0  0  0
   49.1990   34.1385   42.8916 H   0  0  0  0  0  0  0  0  0  0  0  0
   47.7225   34.9895   42.2384 H   0  0  0  0  0  0  0  0  0  0  0  0
   47.0183   32.8901   41.1232 H   0  0  0  0  0  0  0  0  0  0  0  0
   49.4696   31.5269   42.3779 H   0  0  0  0  0  0  0  0  0  0  0  0
   47.8622   30.8441   41.8728 H   0  0  0  0  0  0  0  0  0  0  0  0
   48.5806   31.9176   44.4436 H   0  0  0  0  0  0  0  0  0  0  0  0
   46.9624   31.3210   43.9348 H   0  0  0  0  0  0  0  0  0  0  0  0
   43.9604   36.2717   44.7677 H   0  0  0  0  0  0  0  0  0  0  0  0
   45.6844   35.4265   43.1600 H   0  0  0  0  0  0  0  0  0  0  0  0
   45.1873   33.3350   47.5817 H   0  0  0  0  0  0  0  0  0  0  0  0
   50.0201   33.1955   40.6977 H   0  0  0  0  0  0  0  0  0  0  0  0
   47.7356   34.9285   39.0250 H   0  0  0  0  0  0  0  0  0  0  0  0
   47.4864   35.0671   36.6316 H   0  0  0  0  0  0  0  0  0  0  0  0
   48.5269   33.2769   35.1974 H   0  0  0  0  0  0  0  0  0  0  0  0
   49.1329   29.4376   37.5563 O   0  0  0  0  0  0  0  0  0  0  0  0
   50.2435   30.0660   37.0308 C   0  0  2  0  0  0  0  0  0  0  0  0
   49.9178   31.1783   36.0582 C   0  0  2  0  0  0  0  0  0  0  0  0
   51.2172   31.5897   35.4205 C   0  0  1  0  0  0  0  0  0  0  0  0
   51.2722   31.0822   34.4148 H   0  0  0  0  0  0  0  0  0  0  0  0
   52.3138   31.1094   36.1300 O   0  0  0  0  0  0  0  0  0  0  0  0
   52.3952   29.7267   35.9771 C   0  0  1  0  0  0  0  0  0  0  0  0
   52.5331   29.5292   34.8919 H   0  0  0  0  0  0  0  0  0  0  0  0
   51.1338   29.0103   36.4154 C   0  0  1  0  0  0  0  0  0  0  0  0
   51.4192   28.0930   37.4323 O   0  0  0  0  0  0  0  0  0  0  0  0
   48.8197   29.8552   38.3955 H   0  0  0  0  0  0  0  0  0  0  0  0
   50.7915   30.5037   37.8977 H   0  0  0  0  0  0  0  0  0  0  0  0
   49.2078   30.8484   35.2912 H   0  0  0  0  0  0  0  0  0  0  0  0
   51.3048   32.6647   35.2077 H   0  0  0  0  0  0  0  0  0  0  0  0
   53.2894   29.3282   36.4827 H   0  0  0  0  0  0  0  0  0  0  0  0
   50.6274   28.4763   35.5947 H   0  0  0  0  0  0  0  0  0  0  0  0
   50.7601   28.1647   38.1861 H   0  0  0  0  0  0  0  0  0  0  0  0
  1  5  1  0
  1  8  1  0
  2  1  1  0
  3  4  1  0
  3  2  1  0
  4  5  1  0
  6 11  2  0
  7  8  2  0
  7  6  1  0
  8  9  1  0
  9 10  2  0
 11 10  1  0
 12  3  1  0
 13 20  1  0
 13 14  2  0
 14 12  1  0
 15 14  1  0
 16 15  2  0
 17 18  2  0
 17 16  1  0
 18 13  1  0
 20 19  3  0
  2 21  1  0
  2 22  1  0
  3 23  1  6
  4 24  1  0
  4 25  1  0
  5 26  1  0
  5 27  1  0
  6 28  1  0
  7 29  1  0
 10 30  1  0
 12 31  1  0
 15 32  1  0
 16 33  1  0
 17 34  1  0
 35 36  1  0
 36 37  1  0
 37 38  1  0
 38 39  1  6
 38 40  1  0
 40 41  1  0
 41 42  1  6
 41 43  1  0
 43 44  1  0
 43 36  1  0
 35 45  1  0
 36 46  1  1
 37 47  1  6
 38 48  1  0
 41 49  1  0
 43 50  1  6
 44 51  1  0
 18 37  1  0
M  ISO  8  21  13  22  13  23  13  24  13  25  13  26  13  27  13  28  14
M  ISO  7  29  14  30  14  32  14  33  14  34  14  39   8  42   8
M  END
>  <DihAtoms>  (1) 
16,17,36,35

>  <DihDeg>  (1) 
90.0011101323333

$$$$
