
 OpenBabel03252506183D

 26 27  0  0  1  0  0  0  0  0999 V2000
   44.9830   35.6860   43.6430 C   0  0  0  0  0  0  0  0  0  0  0  0
   44.1070   35.2490   42.6180 C   0  0  0  0  0  0  0  0  0  0  0  0
   44.2550   33.9480   42.1580 C   0  0  0  0  0  0  0  0  0  0  0  0
   45.2230   33.1580   42.7050 N   0  0  0  0  0  0  0  0  0  0  0  0
   46.0450   33.6070   43.6860 C   0  0  0  0  0  0  0  0  0  0  0  0
   45.9050   34.8700   44.1360 N   0  0  0  0  0  0  0  0  0  0  0  0
   43.3490   35.8870   42.1990 H   0  0  0  0  0  0  0  0  0  0  0  0
   43.6200   33.5420   41.3730 H   0  0  0  0  0  0  0  0  0  0  0  0
   46.8140   32.2320   45.6190 C   0  0  2  0  0  3  0  0  0  0  0  0
   47.0530   32.6730   44.2040 C   0  0  1  0  0  3  0  0  0  0  0  0
   47.0630   31.4190   43.3180 C   0  0  0  0  0  3  0  0  0  0  0  0
   46.2230   30.7610   43.6910 H   0  0  0  0  0  0  0  0  0  0  0  0
   48.2470   30.7780   43.6910 O   0  0  0  0  0  0  0  0  0  0  0  0
   48.0320   30.1320   44.8760 C   0  0  0  0  0  3  0  0  0  0  0  0
   49.0500   29.7850   45.2250 H   0  0  0  0  0  0  0  0  0  0  0  0
   47.3210   30.8700   45.9380 C   0  0  2  0  0  3  0  0  0  0  0  0
   45.4300   32.3760   45.8410 O   0  0  0  0  0  0  0  0  0  0  0  0
   45.0130   31.5960   45.3820 H   0  0  0  0  0  0  0  0  0  0  0  0
   46.1960   30.1050   46.3230 O   0  0  0  0  0  0  0  0  0  0  0  0
   46.0880   30.0430   47.2870 H   0  0  0  0  0  0  0  0  0  0  0  0
   44.8340   37.0610   44.1370 C   0  0  0  0  0  3  0  0  0  0  0  0
   45.4910   38.0250   43.5050 C   0  0  0  0  0  3  0  0  0  0  0  0
   45.3760   39.4390   43.9640 C   0  0  0  0  0  0  0  0  0  0  0  0
   44.4190   39.8670   43.6050 H   0  0  0  0  0  0  0  0  0  0  0  0
   45.3400   39.5090   45.0850 H   0  0  0  0  0  0  0  0  0  0  0  0
   46.1890   40.0590   43.5720 H   0  0  0  0  0  0  0  0  0  0  0  0
  1  6  1  0  0  0  0
  1 21  1  0  0  0  0
  2  1  2  0  0  0  0
  3  2  1  0  0  0  0
  3  4  2  0  0  0  0
  4  5  1  0  0  0  0
  5  6  2  0  0  0  0
  7  2  1  0  0  0  0
  8  3  1  0  0  0  0
  9 17  1  6  0  0  0
  9 16  1  0  0  0  0
 10  5  1  6  0  0  0
 10  9  1  0  0  0  0
 11 12  1  0  0  0  0
 11 13  1  0  0  0  0
 11 10  1  0  0  0  0
 13 14  1  0  0  0  0
 14 15  1  0  0  0  0
 14 16  1  0  0  0  0
 16 19  1  6  0  0  0
 18 17  1  0  0  0  0
 19 20  1  0  0  0  0
 22 23  1  0  0  0  0
 22 21  2  0  0  0  0
 23 25  1  0  0  0  0
 24 23  1  0  0  0  0
 26 23  1  0  0  0  0
M  END
>  <minimizedAffinity>
-3.55711174

>  <minimizedRMSD>
1.85046911

$$$$
