REMARK  Name = 
REMARK  7 active torsions:
REMARK  status: ('A' for Active; 'I' for Inactive)
REMARK    1  A    between atoms: C_2  and  O_20
REMARK    2  A    between atoms: C_3  and  C_16
REMARK    3  A    between atoms: C_5  and  C_8
REMARK    4  A    between atoms: O_20  and  C_21
REMARK    5  A    between atoms: C_24  and  C_35
REMARK    6  A    between atoms: O_33  and  C_34
REMARK    7  A    between atoms: C_41  and  O_42
REMARK                            x       y       z     vdW  Elec       q    Type
REMARK                         _______ _______ _______ _____ _____    ______ ____
ROOT
ATOM      1  C   UNL     1      45.954  33.171  41.648  0.00  0.00    +0.000 A 
ATOM      2  C   UNL     1      47.118  33.878  41.322  0.00  0.00    +0.000 A 
ATOM      3  C   UNL     1      48.100  33.962  42.294  0.00  0.00    +0.000 A 
ATOM      4  N   UNL     1      47.858  33.350  43.494  0.00  0.00    +0.000 NA
ATOM      5  C   UNL     1      46.750  32.683  43.792  0.00  0.00    +0.000 A 
ATOM      6  N   UNL     1      45.779  32.586  42.863  0.00  0.00    +0.000 NA
ATOM      7  H   UNL     1      45.175  33.092  40.909  0.00  0.00    +0.000 HD
ENDROOT
BRANCH   5   9
ATOM      8  C   UNL     1      46.910  30.764  45.307  0.00  0.00    +0.000 A 
ATOM      9  C   UNL     1      46.596  32.072  45.096  0.00  0.00    +0.000 A 
ATOM     10  C   UNL     1      46.107  32.908  46.123  0.00  0.00    +0.000 A 
ATOM     11  C   UNL     1      45.930  32.398  47.406  0.00  0.00    +0.000 A 
ATOM     12  N   UNL     1      45.495  32.886  48.603  0.00  0.00    +0.000 N 
ATOM     13  C   UNL     1      45.559  31.858  49.501  0.00  0.00    +0.000 A 
ATOM     14  N   UNL     1      46.027  30.761  48.852  0.00  0.00    +0.000 NA
ATOM     15  C   UNL     1      46.262  31.067  47.566  0.00  0.00    +0.000 A 
ATOM     16  C   UNL     1      46.741  30.231  46.582  0.00  0.00    +0.000 A 
ATOM     17  H   UNL     1      47.282  30.156  44.494  0.00  0.00    +0.000 HD
ATOM     18  H   UNL     1      45.855  33.950  45.967  0.00  0.00    +0.000 HD
ATOM     19  H   UNL     1      45.187  33.870  48.737  0.00  0.00    +0.000 HD
ATOM     20  H   UNL     1      45.269  31.971  50.536  0.00  0.00    +0.000 HD
ATOM     21  H   UNL     1      46.982  29.195  46.776  0.00  0.00    +0.000 HD
ENDBRANCH   5   9
BRANCH   3  22
ATOM     22  C   UNL     1      49.355  34.695  42.010  0.00  0.00    +0.000 C 
ATOM     23  F   UNL     1      49.093  35.822  41.218  0.00  0.00    +0.000 F 
ATOM     24  F   UNL     1      49.909  35.167  43.176  0.00  0.00    +0.000 F 
ATOM     25  F   UNL     1      50.207  33.855  41.353  0.00  0.00    +0.000 F 
ENDBRANCH   3  22
BRANCH   2  26
ATOM     26  O   UNL     1      47.230  34.437  40.096  0.00  0.00    +0.000 OA
BRANCH  26  27
ATOM     27  C   UNL     1      47.372  33.677  38.950  0.00  0.00    +0.000 A 
ATOM     28  C   UNL     1      48.347  34.362  38.235  0.00  0.00    +0.000 A 
ATOM     29  S   UNL     1      48.557  33.373  36.707  0.00  0.00    +0.000 S 
ATOM     30  C   UNL     1      47.239  32.151  37.314  0.00  0.00    +0.000 A 
ATOM     31  N   UNL     1      47.001  32.635  38.275  0.00  0.00    +0.000 NA
ATOM     32  H   UNL     1      49.138  35.260  38.069  0.00  0.00    +0.000 HD
BRANCH  30  34
ATOM     33  C   UNL     1      47.808  30.320  35.709  0.00  0.00    +0.000 C 
ATOM     34  C   UNL     1      46.761  30.923  36.587  0.00  0.00    +0.000 C 
ATOM     35  C   UNL     1      45.497  31.241  35.799  0.00  0.00    +0.000 C 
ATOM     36  H   UNL     1      45.118  30.246  35.451  0.00  0.00    +0.000 HD
ATOM     37  O   UNL     1      45.740  32.107  34.743  0.00  0.00    +0.000 OA
ATOM     38  C   UNL     1      46.644  31.558  33.847  0.00  0.00    +0.000 C 
ATOM     39  H   UNL     1      46.138  31.351  32.886  0.00  0.00    +0.000 HD
ATOM     40  C   UNL     1      47.233  30.246  34.304  0.00  0.00    +0.000 C 
BRANCH  33  41
ATOM     41  O   UNL     1      48.165  29.020  36.067  0.00  0.00    +0.000 OA
ATOM     42  H   UNL     1      48.508  28.936  36.977  0.00  0.00    +0.000 HD
ENDBRANCH  33  41
BRANCH  40  43
ATOM     43  O   UNL     1      48.317  29.995  33.444  0.00  0.00    +0.000 OA
ATOM     44  H   UNL     1      47.953  29.841  32.528  0.00  0.00    +0.000 HD
ENDBRANCH  40  43
ENDBRANCH  30  34
ENDBRANCH  26  27
ENDBRANCH   2  26
TORSDOF 7
