
 OpenBabel03252507433D

 34 36  0  0  1  0  0  0  0  0999 V2000
   44.3670   34.6200   41.1480 C   0  0  0  0  0  0  0  0  0  0  0  0
   43.4690   35.6380   41.6050 C   0  0  0  0  0  0  0  0  0  0  0  0
   41.9470   35.3100   40.6130 S   0  0  0  0  0  0  0  0  0  0  0  0
   42.7940   33.8570   39.7570 C   0  0  0  0  0  0  0  0  0  0  0  0
   43.8280   33.8480   40.2320 N   0  0  0  0  0  0  0  0  0  0  0  0
   43.7000   36.3840   42.3550 H   0  0  0  0  0  0  0  0  0  0  0  0
   41.1140   32.0630   39.3830 C   0  0  1  0  0  3  0  0  0  0  0  0
   42.1060   33.0230   38.7170 C   0  0  2  0  0  3  0  0  0  0  0  0
   43.1620   32.2140   38.0430 C   0  0  0  0  0  3  0  0  0  0  0  0
   43.2580   32.5700   36.9900 H   0  0  0  0  0  0  0  0  0  0  0  0
   42.7360   30.8770   37.9170 O   0  0  0  0  0  0  0  0  0  0  0  0
   41.4780   30.8030   37.3290 C   0  0  0  0  0  3  0  0  0  0  0  0
   41.4250   31.4010   36.3840 H   0  0  0  0  0  0  0  0  0  0  0  0
   40.4480   31.2670   38.3100 C   0  0  2  0  0  3  0  0  0  0  0  0
   41.8030   31.3360   40.3210 O   0  0  0  0  0  0  0  0  0  0  0  0
   41.3670   31.2950   41.2040 H   0  0  0  0  0  0  0  0  0  0  0  0
   39.4920   32.1140   37.7010 O   0  0  0  0  0  0  0  0  0  0  0  0
   39.2280   32.8190   38.3390 H   0  0  0  0  0  0  0  0  0  0  0  0
   45.7360   34.5080   41.6920 C   0  0  0  0  0  0  0  0  0  0  0  0
   45.9930   35.4210   42.2640 H   0  0  0  0  0  0  0  0  0  0  0  0
   45.7080   33.6330   42.3950 H   0  0  0  0  0  0  0  0  0  0  0  0
   46.8020   34.2420   40.6970 C   0  0  0  0  0  0  0  0  0  0  0  0
   46.8850   35.1710   40.0580 H   0  0  0  0  0  0  0  0  0  0  0  0
   46.5730   33.4420   40.0030 H   0  0  0  0  0  0  0  0  0  0  0  0
   48.1560   34.0850   41.2910 C   0  0  0  0  0  0  0  0  0  0  0  0
   48.8220   32.8820   41.0540 C   0  0  0  0  0  0  0  0  0  0  0  0
   50.0810   32.6910   41.5850 C   0  0  0  0  0  0  0  0  0  0  0  0
   50.6320   33.7000   42.3300 N   0  0  0  0  0  0  0  0  0  0  0  0
   49.9530   34.8520   42.5380 C   0  0  0  0  0  0  0  0  0  0  0  0
   48.7480   35.0300   42.0270 N   0  0  0  0  0  0  0  0  0  0  0  0
   50.6270   31.7750   41.4230 H   0  0  0  0  0  0  0  0  0  0  0  0
   50.3940   35.6540   43.1310 H   0  0  0  0  0  0  0  0  0  0  0  0
   48.0270   31.6040   40.0640 S   0  0  0  0  0  0  0  0  0  0  0  0
   47.9100   30.4140   40.8360 H   0  0  0  0  0  0  0  0  0  0  0  0
  1  2  2  0  0  0  0
  1 19  1  0  0  0  0
  2  6  1  0  0  0  0
  3  2  1  0  0  0  0
  4  5  2  0  0  0  0
  4  3  1  0  0  0  0
  5  1  1  0  0  0  0
  7 15  1  1  0  0  0
  8  7  1  0  0  0  0
  8  4  1  1  0  0  0
  9  8  1  0  0  0  0
 10  9  1  0  0  0  0
 11  9  1  0  0  0  0
 12 11  1  0  0  0  0
 12 14  1  0  0  0  0
 13 12  1  0  0  0  0
 14 17  1  6  0  0  0
 14  7  1  0  0  0  0
 15 16  1  0  0  0  0
 17 18  1  0  0  0  0
 19 20  1  0  0  0  0
 19 21  1  0  0  0  0
 22 25  1  0  0  0  0
 22 19  1  0  0  0  0
 23 22  1  0  0  0  0
 24 22  1  0  0  0  0
 25 30  1  0  0  0  0
 26 25  2  0  0  0  0
 26 27  1  0  0  0  0
 27 28  2  0  0  0  0
 28 29  1  0  0  0  0
 29 32  1  0  0  0  0
 30 29  2  0  0  0  0
 31 27  1  0  0  0  0
 33 34  1  0  0  0  0
 33 26  1  0  0  0  0
M  END
>  <minimizedAffinity>
-4.41933584

>  <minimizedRMSD>
1.34092927

$$$$
