
     RDKit          3D

 27 28  0  0  0  0  0  0  0  0999 V2000
   44.5381   36.0313   44.5308 C   0  0  0  0  0  0  0  0  0  0  0  0
   45.2653   35.8886   43.3162 C   0  0  0  0  0  0  0  0  0  0  0  0
   46.1333   34.7960   43.1999 C   0  0  0  0  0  0  0  0  0  0  0  0
   46.2343   33.9331   44.2501 N   0  0  0  0  0  0  0  0  0  0  0  0
   45.5211   34.1047   45.3954 C   0  0  0  0  0  0  0  0  0  0  0  0
   44.6864   35.1359   45.5356 N   0  0  0  0  0  0  0  0  0  0  0  0
   47.0725   34.5634   41.7010 S   0  0  0  0  0  0  0  0  0  0  0  0
   43.8722   36.8792   44.6060 H   0  0  0  0  0  0  0  0  0  0  0  0
   45.1373   36.6121   42.5202 H   0  0  0  0  0  0  0  0  0  0  0  0
   47.5826   35.8053   41.2858 H   0  0  0  0  0  0  0  0  0  0  0  0
   43.3356   32.8358   46.3439 O   0  0  0  0  0  0  0  0  0  0  0  0
   44.5179   32.1920   46.6255 C   0  0  2  0  0  0  0  0  0  0  0  0
   45.7197   33.0906   46.4735 C   0  0  1  0  0  0  0  0  0  0  0  0
   46.9394   32.2451   46.2684 C   0  0  1  0  0  0  0  0  0  0  0  0
   47.1125   32.0198   45.1808 H   0  0  0  0  0  0  0  0  0  0  0  0
   46.7041   31.0170   46.9168 O   0  0  0  0  0  0  0  0  0  0  0  0
   45.9403   30.2314   46.0349 C   0  0  2  0  0  0  0  0  0  0  0  0
   45.8320   29.2178   46.4762 H   0  0  0  0  0  0  0  0  0  0  0  0
   44.6194   30.9155   45.8068 C   0  0  1  0  0  0  0  0  0  0  0  0
   43.6109   30.0653   46.2897 O   0  0  0  0  0  0  0  0  0  0  0  0
   43.3497   33.4010   45.5345 H   0  0  0  0  0  0  0  0  0  0  0  0
   44.4781   31.8542   47.6879 H   0  0  0  0  0  0  0  0  0  0  0  0
   45.8310   33.6445   47.4413 H   0  0  0  0  0  0  0  0  0  0  0  0
   47.8484   32.6925   46.7465 H   0  0  0  0  0  0  0  0  0  0  0  0
   46.5305   30.1919   45.0746 H   0  0  0  0  0  0  0  0  0  0  0  0
   44.4261   31.0936   44.7157 H   0  0  0  0  0  0  0  0  0  0  0  0
   42.8379   30.6257   46.5825 H   0  0  0  0  0  0  0  0  0  0  0  0
  1  6  2  0
  2  1  1  0
  3  2  2  0
  3  4  1  0
  4  5  2  0
  5  6  1  0
  7  3  1  0
  1  8  1  0
  2  9  1  0
  7 10  1  0
 11 12  1  0
 12 13  1  0
 13 14  1  0
 14 15  1  6
 14 16  1  0
 16 17  1  0
 17 18  1  1
 17 19  1  0
 19 20  1  0
 19 12  1  0
 11 21  1  0
 12 22  1  1
 13 23  1  1
 14 24  1  0
 17 25  1  0
 19 26  1  6
 20 27  1  0
  5 13  1  0
M  ISO  5   8  14   9  14  10  11  15   8  18   8
M  END
>  <DihAtoms>  (1) 
3,4,12,11

>  <DihDeg>  (1) 
116.73696216272855

$$$$
