
 OpenBabel03242513073D

 44 48  0  0  1  0  0  0  0  0999 V2000
   45.9200   33.3600   41.5400 C   0  0  0  0  0  0  0  0  0  0  0  0
   47.1300   34.0170   41.2830 C   0  0  0  0  0  0  0  0  0  0  0  0
   48.0800   34.0100   42.2900 C   0  0  0  0  0  0  0  0  0  0  0  0
   47.7640   33.3640   43.4550 N   0  0  0  0  0  0  0  0  0  0  0  0
   46.6130   32.7450   43.6870 C   0  0  0  0  0  0  0  0  0  0  0  0
   45.6720   32.7370   42.7230 N   0  0  0  0  0  0  0  0  0  0  0  0
   45.1650   33.3520   40.7730 H   0  0  0  0  0  0  0  0  0  0  0  0
   46.4430   30.7370   45.0810 C   0  0  0  0  0  0  0  0  0  0  0  0
   46.3810   32.0910   44.9590 C   0  0  0  0  0  0  0  0  0  0  0  0
   46.0920   32.9370   46.0520 C   0  0  0  0  0  0  0  0  0  0  0  0
   45.8560   32.3880   47.3090 C   0  0  0  0  0  0  0  0  0  0  0  0
   45.5570   32.8710   48.5490 N   0  0  0  0  0  0  0  0  0  0  0  0
   45.4480   31.7940   49.3820 C   0  0  0  0  0  0  0  0  0  0  0  0
   45.6770   30.6720   48.6520 N   0  0  0  0  0  0  0  0  0  0  0  0
   45.9300   31.0100   47.3780 C   0  0  0  0  0  0  0  0  0  0  0  0
   46.2110   30.1640   46.3280 C   0  0  0  0  0  0  0  0  0  0  0  0
   46.6680   30.1230   44.2190 H   0  0  0  0  0  0  0  0  0  0  0  0
   46.0410   34.0160   45.9670 H   0  0  0  0  0  0  0  0  0  0  0  0
   45.4490   33.8850   48.7520 H   0  0  0  0  0  0  0  0  0  0  0  0
   45.2140   31.8920   50.4330 H   0  0  0  0  0  0  0  0  0  0  0  0
   46.2530   29.0910   46.4520 H   0  0  0  0  0  0  0  0  0  0  0  0
   49.3800   34.6860   42.0790 C   0  0  0  0  0  0  0  0  0  0  0  0
   49.2090   35.8420   41.3050 F   0  0  0  0  0  0  0  0  0  0  0  0
   49.9040   35.1030   43.2800 F   0  0  0  0  0  0  0  0  0  0  0  0
   50.2190   33.8200   41.4400 F   0  0  0  0  0  0  0  0  0  0  0  0
   47.3140   34.6180   40.0860 O   0  0  0  0  0  0  0  0  0  0  0  0
   47.3770   33.9030   38.9050 C   0  0  0  0  0  0  0  0  0  0  0  0
   48.6110   34.2690   38.3790 C   0  0  0  0  0  0  0  0  0  0  0  0
   48.7220   33.3320   36.8090 S   0  0  0  0  0  0  0  0  0  0  0  0
   47.0150   32.5720   37.1380 C   0  0  0  0  0  0  0  0  0  0  0  0
   46.8030   33.0650   38.1010 N   0  0  0  0  0  0  0  0  0  0  0  0
   49.6570   34.8720   38.3920 H   0  0  0  0  0  0  0  0  0  0  0  0
   44.8780   31.9930   35.9790 C   0  0  2  0  0  3  0  0  0  0  0  0
   46.2900   31.5950   36.2530 C   0  0  2  0  0  3  0  0  0  0  0  0
   46.3620   30.1950   36.8500 C   0  0  0  0  0  3  0  0  0  0  0  0
   45.9680   29.5200   36.0480 H   0  0  0  0  0  0  0  0  0  0  0  0
   45.6380   30.0880   38.0280 O   0  0  0  0  0  0  0  0  0  0  0  0
   44.2950   30.3640   37.8120 C   0  0  0  0  0  3  0  0  0  0  0  0
   43.6960   29.4460   37.9660 H   0  0  0  0  0  0  0  0  0  0  0  0
   43.9890   30.8370   36.4140 C   0  0  1  0  0  3  0  0  0  0  0  0
   44.6070   32.2220   34.6300 O   0  0  0  0  0  0  0  0  0  0  0  0
   45.1570   32.9200   34.2260 H   0  0  0  0  0  0  0  0  0  0  0  0
   42.6780   31.3430   36.4620 O   0  0  0  0  0  0  0  0  0  0  0  0
   42.0610   30.5800   36.6460 H   0  0  0  0  0  0  0  0  0  0  0  0
  1  6  1  0  0  0  0
  2  1  2  0  0  0  0
  2  3  1  0  0  0  0
  3  4  2  0  0  0  0
  4  5  1  0  0  0  0
  5  9  1  0  0  0  0
  6  5  2  0  0  0  0
  7  1  1  0  0  0  0
  8 16  1  0  0  0  0
  9  8  2  0  0  0  0
  9 10  1  0  0  0  0
 10 11  2  0  0  0  0
 11 15  1  0  0  0  0
 11 12  1  0  0  0  0
 12 19  1  0  0  0  0
 12 13  1  0  0  0  0
 13 20  1  0  0  0  0
 14 13  2  0  0  0  0
 15 14  1  0  0  0  0
 16 21  1  0  0  0  0
 16 15  2  0  0  0  0
 17  8  1  0  0  0  0
 18 10  1  0  0  0  0
 22  3  1  0  0  0  0
 22 24  1  0  0  0  0
 23 22  1  0  0  0  0
 25 22  1  0  0  0  0
 26  2  1  0  0  0  0
 27 26  1  0  0  0  0
 28 32  1  0  0  0  0
 28 27  2  0  0  0  0
 29 30  1  0  0  0  0
 29 28  1  0  0  0  0
 30 31  2  0  0  0  0
 31 27  1  0  0  0  0
 33 41  1  6  0  0  0
 33 34  1  0  0  0  0
 33 40  1  0  0  0  0
 34 35  1  0  0  0  0
 34 30  1  1  0  0  0
 35 37  1  0  0  0  0
 36 35  1  0  0  0  0
 38 39  1  0  0  0  0
 38 37  1  0  0  0  0
 40 43  1  1  0  0  0
 40 38  1  0  0  0  0
 42 41  1  0  0  0  0
 43 44  1  0  0  0  0
M  END
>  <minimizedAffinity>
-6.71731186

>  <minimizedRMSD>
2.1290071

$$$$
