
     RDKit          3D

 27 28  0  0  0  0  0  0  0  0999 V2000
   45.0018   35.4849   44.1873 C   0  0  0  0  0  0  0  0  0  0  0  0
   45.9772   34.9333   43.3400 C   0  0  0  0  0  0  0  0  0  0  0  0
   46.7135   33.8312   43.8408 C   0  0  0  0  0  0  0  0  0  0  0  0
   46.4417   33.3774   45.0873 N   0  0  0  0  0  0  0  0  0  0  0  0
   45.4956   33.9415   45.8607 C   0  0  0  0  0  0  0  0  0  0  0  0
   44.7804   34.9843   45.4204 N   0  0  0  0  0  0  0  0  0  0  0  0
   44.2877   36.5503   43.7075 O   0  0  0  0  0  0  0  0  0  0  0  0
   46.1735   35.3158   42.3489 H   0  0  0  0  0  0  0  0  0  0  0  0
   45.2501   33.6030   46.8679 H   0  0  0  0  0  0  0  0  0  0  0  0
   44.7226   37.4641   43.7177 H   0  0  0  0  0  0  0  0  0  0  0  0
   48.9608   33.9484   44.8789 O   0  0  0  0  0  0  0  0  0  0  0  0
   49.0939   33.6379   43.5079 C   0  0  1  0  0  0  0  0  0  0  0  0
   47.7564   33.2069   42.9924 C   0  0  2  0  0  0  0  0  0  0  0  0
   47.4796   33.6774   41.5760 C   0  0  1  0  0  0  0  0  0  0  0  0
   46.9104   32.8651   41.0768 H   0  0  0  0  0  0  0  0  0  0  0  0
   48.6297   33.8558   40.8309 O   0  0  0  0  0  0  0  0  0  0  0  0
   49.4494   34.8618   41.3292 C   0  0  1  0  0  0  0  0  0  0  0  0
   50.4782   34.6620   40.9539 H   0  0  0  0  0  0  0  0  0  0  0  0
   49.4978   34.9194   42.8215 C   0  0  2  0  0  0  0  0  0  0  0  0
   50.7945   35.2249   43.2346 O   0  0  0  0  0  0  0  0  0  0  0  0
   49.8022   33.9762   45.3598 H   0  0  0  0  0  0  0  0  0  0  0  0
   49.8944   32.8986   43.4335 H   0  0  0  0  0  0  0  0  0  0  0  0
   47.6111   32.1039   43.0799 H   0  0  0  0  0  0  0  0  0  0  0  0
   46.7966   34.5623   41.5465 H   0  0  0  0  0  0  0  0  0  0  0  0
   49.1579   35.8839   40.9475 H   0  0  0  0  0  0  0  0  0  0  0  0
   48.8512   35.7559   43.1777 H   0  0  0  0  0  0  0  0  0  0  0  0
   50.9392   35.2045   44.1920 H   0  0  0  0  0  0  0  0  0  0  0  0
  1  6  2  0
  2  3  2  0
  2  1  1  0
  3  4  1  0
  4  5  2  0
  6  5  1  0
  7  1  1  0
  2  8  1  0
  5  9  1  0
  7 10  1  0
 11 12  1  0
 12 13  1  0
 13 14  1  0
 14 15  1  6
 14 16  1  0
 16 17  1  0
 17 18  1  6
 17 19  1  0
 19 20  1  0
 19 12  1  0
 11 21  1  0
 12 22  1  1
 13 23  1  6
 14 24  1  0
 17 25  1  0
 19 26  1  1
 20 27  1  0
  3 13  1  0
M  ISO  5   8  14   9  14  10   3  15   8  18   8
M  END
>  <DihAtoms>  (1) 
1,2,12,11

>  <DihDeg>  (1) 
-120.32930638789271

$$$$
