
 OpenBabel03242513073D

 44 48  0  0  1  0  0  0  0  0999 V2000
   45.9390   33.3400   41.5780 C   0  0  0  0  0  0  0  0  0  0  0  0
   47.1490   33.9920   41.3130 C   0  0  0  0  0  0  0  0  0  0  0  0
   48.1050   33.9830   42.3140 C   0  0  0  0  0  0  0  0  0  0  0  0
   47.7930   33.3410   43.4820 N   0  0  0  0  0  0  0  0  0  0  0  0
   46.6410   32.7280   43.7230 C   0  0  0  0  0  0  0  0  0  0  0  0
   45.6950   32.7210   42.7640 N   0  0  0  0  0  0  0  0  0  0  0  0
   45.1790   33.3340   40.8150 H   0  0  0  0  0  0  0  0  0  0  0  0
   46.4900   30.7250   45.1250 C   0  0  0  0  0  0  0  0  0  0  0  0
   46.4140   32.0780   44.9970 C   0  0  0  0  0  0  0  0  0  0  0  0
   46.1130   32.9260   46.0850 C   0  0  0  0  0  0  0  0  0  0  0  0
   45.8810   32.3800   47.3440 C   0  0  0  0  0  0  0  0  0  0  0  0
   45.5750   32.8670   48.5810 N   0  0  0  0  0  0  0  0  0  0  0  0
   45.4750   31.7920   49.4200 C   0  0  0  0  0  0  0  0  0  0  0  0
   45.7180   30.6700   48.6960 N   0  0  0  0  0  0  0  0  0  0  0  0
   45.9700   31.0040   47.4200 C   0  0  0  0  0  0  0  0  0  0  0  0
   46.2620   30.1560   46.3760 C   0  0  0  0  0  0  0  0  0  0  0  0
   46.7230   30.1090   44.2680 H   0  0  0  0  0  0  0  0  0  0  0  0
   46.0510   34.0030   45.9940 H   0  0  0  0  0  0  0  0  0  0  0  0
   45.4550   33.8800   48.7790 H   0  0  0  0  0  0  0  0  0  0  0  0
   45.2390   31.8940   50.4700 H   0  0  0  0  0  0  0  0  0  0  0  0
   46.3160   29.0840   46.5050 H   0  0  0  0  0  0  0  0  0  0  0  0
   49.4070   34.6540   42.0940 C   0  0  0  0  0  0  0  0  0  0  0  0
   49.2440   35.7780   41.2720 F   0  0  0  0  0  0  0  0  0  0  0  0
   49.9130   35.1210   43.2840 F   0  0  0  0  0  0  0  0  0  0  0  0
   50.2560   33.7650   41.5020 F   0  0  0  0  0  0  0  0  0  0  0  0
   47.3290   34.5890   40.1130 O   0  0  0  0  0  0  0  0  0  0  0  0
   47.2220   33.8960   38.9220 C   0  0  0  0  0  0  0  0  0  0  0  0
   48.4490   34.1240   38.3120 C   0  0  0  0  0  0  0  0  0  0  0  0
   48.3350   33.2130   36.7260 S   0  0  0  0  0  0  0  0  0  0  0  0
   46.5760   32.6560   37.1700 C   0  0  0  0  0  0  0  0  0  0  0  0
   46.4940   33.1510   38.1510 N   0  0  0  0  0  0  0  0  0  0  0  0
   49.5600   34.5970   38.2550 H   0  0  0  0  0  0  0  0  0  0  0  0
   44.4890   31.2830   37.0760 C   0  0  2  0  0  3  0  0  0  0  0  0
   45.6770   31.7910   36.3280 C   0  0  2  0  0  3  0  0  0  0  0  0
   46.4750   30.6470   35.7160 C   0  0  0  0  0  3  0  0  0  0  0  0
   45.7800   30.1780   34.9740 H   0  0  0  0  0  0  0  0  0  0  0  0
   46.9090   29.7400   36.6720 O   0  0  0  0  0  0  0  0  0  0  0  0
   45.8370   29.1700   37.3400 C   0  0  0  0  0  3  0  0  0  0  0  0
   45.7730   28.0930   37.0930 H   0  0  0  0  0  0  0  0  0  0  0  0
   44.5030   29.7660   36.9700 C   0  0  1  0  0  3  0  0  0  0  0  0
   43.2680   31.7120   36.5560 O   0  0  0  0  0  0  0  0  0  0  0  0
   43.1640   32.6830   36.5300 H   0  0  0  0  0  0  0  0  0  0  0  0
   43.5940   29.2930   37.9330 O   0  0  0  0  0  0  0  0  0  0  0  0
   43.5080   28.3060   37.8160 H   0  0  0  0  0  0  0  0  0  0  0  0
  1  6  1  0  0  0  0
  2  1  2  0  0  0  0
  2  3  1  0  0  0  0
  3  4  2  0  0  0  0
  4  5  1  0  0  0  0
  5  9  1  0  0  0  0
  6  5  2  0  0  0  0
  7  1  1  0  0  0  0
  8 16  1  0  0  0  0
  9  8  2  0  0  0  0
  9 10  1  0  0  0  0
 10 11  2  0  0  0  0
 11 15  1  0  0  0  0
 11 12  1  0  0  0  0
 12 19  1  0  0  0  0
 12 13  1  0  0  0  0
 13 20  1  0  0  0  0
 14 13  2  0  0  0  0
 15 14  1  0  0  0  0
 16 21  1  0  0  0  0
 16 15  2  0  0  0  0
 17  8  1  0  0  0  0
 18 10  1  0  0  0  0
 22  3  1  0  0  0  0
 22 24  1  0  0  0  0
 23 22  1  0  0  0  0
 25 22  1  0  0  0  0
 26  2  1  0  0  0  0
 27 26  1  0  0  0  0
 28 27  2  0  0  0  0
 29 30  1  0  0  0  0
 29 28  1  0  0  0  0
 30 31  2  0  0  0  0
 31 27  1  0  0  0  0
 32 28  1  0  0  0  0
 33 41  1  6  0  0  0
 34 33  1  0  0  0  0
 34 30  1  1  0  0  0
 35 34  1  0  0  0  0
 35 37  1  0  0  0  0
 36 35  1  0  0  0  0
 37 38  1  0  0  0  0
 39 38  1  0  0  0  0
 40 33  1  0  0  0  0
 40 38  1  0  0  0  0
 40 43  1  1  0  0  0
 42 41  1  0  0  0  0
 44 43  1  0  0  0  0
M  END
>  <minimizedAffinity>
-6.41909552

>  <minimizedRMSD>
1.46059847

$$$$
