
 OpenBabel03242523463D

 22 23  0  0  1  0  0  0  0  0999 V2000
   47.9670   33.1900   41.4650 C   0  0  1  0  0  3  0  0  0  0  0  0
   47.8970   34.5230   42.1410 C   0  0  2  0  0  3  0  0  0  0  0  0
   49.2110   34.9430   42.7750 C   0  0  0  0  0  3  0  0  0  0  0  0
   49.2910   36.0420   42.6410 H   0  0  0  0  0  0  0  0  0  0  0  0
   50.3140   34.3960   42.1460 O   0  0  0  0  0  0  0  0  0  0  0  0
   50.3620   33.0110   42.2410 C   0  0  0  0  0  3  0  0  0  0  0  0
   50.9980   32.6470   41.4030 H   0  0  0  0  0  0  0  0  0  0  0  0
   49.0260   32.3500   42.1360 C   0  0  2  0  0  3  0  0  0  0  0  0
   44.8640   35.0870   44.3050 C   0  0  0  0  0  0  0  0  0  0  0  0
   45.7530   35.2230   43.2270 C   0  0  0  0  0  0  0  0  0  0  0  0
   46.9220   34.4230   43.2530 C   0  0  0  0  0  0  0  0  0  0  0  0
   47.1140   33.5840   44.2980 N   0  0  0  0  0  0  0  0  0  0  0  0
   46.2310   33.4890   45.3090 C   0  0  0  0  0  0  0  0  0  0  0  0
   45.1150   34.2310   45.3170 N   0  0  0  0  0  0  0  0  0  0  0  0
   45.5740   35.9020   42.4050 H   0  0  0  0  0  0  0  0  0  0  0  0
   46.3520   32.8260   46.1660 H   0  0  0  0  0  0  0  0  0  0  0  0
   43.7330   35.8590   44.2850 O   0  0  0  0  0  0  0  0  0  0  0  0
   43.8100   36.8320   44.5540 H   0  0  0  0  0  0  0  0  0  0  0  0
   46.7400   32.5210   41.6740 O   0  0  0  0  0  0  0  0  0  0  0  0
   46.5850   31.7840   41.0650 H   0  0  0  0  0  0  0  0  0  0  0  0
   49.1470   31.1670   41.4060 O   0  0  0  0  0  0  0  0  0  0  0  0
   48.3150   30.7110   41.2170 H   0  0  0  0  0  0  0  0  0  0  0  0
  1 19  1  1  0  0  0
  1  8  1  0  0  0  0
  1  2  1  0  0  0  0
  2  3  1  0  0  0  0
  2 11  1  1  0  0  0
  4  3  1  0  0  0  0
  5  6  1  0  0  0  0
  5  3  1  0  0  0  0
  7  6  1  0  0  0  0
  8 21  1  6  0  0  0
  8  6  1  0  0  0  0
  9 14  1  0  0  0  0
 10 11  1  0  0  0  0
 10  9  2  0  0  0  0
 11 12  2  0  0  0  0
 12 13  1  0  0  0  0
 13 14  2  0  0  0  0
 13 16  1  0  0  0  0
 15 10  1  0  0  0  0
 17  9  1  0  0  0  0
 17 18  1  0  0  0  0
 20 19  1  0  0  0  0
 22 21  1  0  0  0  0
M  END
>  <minimizedAffinity>
-4.72036266

>  <minimizedRMSD>
1.82413924

$$$$
