
     RDKit          3D

 53 55  0  0  0  0  0  0  0  0999 V2000
   45.3058   34.2805   43.7490 C   0  0  0  0  0  0  0  0  0  0  0  0
   46.4719   34.7670   43.1225 C   0  0  0  0  0  0  0  0  0  0  0  0
   47.6463   34.0734   43.2517 C   0  0  0  0  0  0  0  0  0  0  0  0
   47.5908   32.9531   43.9871 N   0  0  0  0  0  0  0  0  0  0  0  0
   46.4981   32.4954   44.5752 C   0  0  0  0  0  0  0  0  0  0  0  0
   45.3541   33.1596   44.4562 N   0  0  0  0  0  0  0  0  0  0  0  0
   48.9084   34.4778   42.6247 C   0  0  0  0  0  0  0  0  0  0  0  0
   48.7563   35.6594   41.7171 C   0  0  0  0  0  0  0  0  0  0  0  0
   48.5133   35.3045   40.3188 C   0  0  0  0  0  0  0  0  0  0  0  0
   48.2697   34.2577   39.5396 C   0  0  0  0  0  0  0  0  0  0  0  0
   48.1683   34.2548   38.0267 C   0  0  0  0  0  0  0  0  0  0  0  0
   46.4667   31.3449   45.3222 O   0  0  0  0  0  0  0  0  0  0  0  0
   45.4425   30.1820   47.2326 C   0  0  0  0  0  0  0  0  0  0  0  0
   46.0658   31.2301   46.6457 C   0  0  0  0  0  0  0  0  0  0  0  0
   46.3631   32.3398   47.4150 C   0  0  0  0  0  0  0  0  0  0  0  0
   46.0535   32.4253   48.7517 C   0  0  0  0  0  0  0  0  0  0  0  0
   45.4174   31.3495   49.3436 C   0  0  0  0  0  0  0  0  0  0  0  0
   45.1186   30.2356   48.5727 C   0  0  0  0  0  0  0  0  0  0  0  0
   44.9889   28.8681   46.2038 S   0  0  0  0  0  0  0  0  0  0  0  0
   43.5414   28.7549   45.9436 O   0  0  0  0  0  0  0  0  0  0  0  0
   45.3609   27.5817   46.9796 O   0  0  0  0  0  0  0  0  0  0  0  0
   44.3725   34.8237   43.6513 H   0  0  0  0  0  0  0  0  0  0  0  0
   46.3430   35.6789   42.5676 H   0  0  0  0  0  0  0  0  0  0  0  0
   49.6652   34.6816   43.4097 H   0  0  0  0  0  0  0  0  0  0  0  0
   49.3380   33.6305   42.0325 H   0  0  0  0  0  0  0  0  0  0  0  0
   48.0900   36.4192   42.0900 H   0  0  0  0  0  0  0  0  0  0  0  0
   49.7822   36.1553   41.7208 H   0  0  0  0  0  0  0  0  0  0  0  0
   48.5348   36.2052   39.6756 H   0  0  0  0  0  0  0  0  0  0  0  0
   48.1954   33.2528   39.9755 H   0  0  0  0  0  0  0  0  0  0  0  0
   47.1081   34.1128   37.7638 H   0  0  0  0  0  0  0  0  0  0  0  0
   48.8016   33.4415   37.6258 H   0  0  0  0  0  0  0  0  0  0  0  0
   48.5846   35.2134   37.7030 H   0  0  0  0  0  0  0  0  0  0  0  0
   46.8589   33.2192   47.0253 H   0  0  0  0  0  0  0  0  0  0  0  0
   46.2771   33.2755   49.3559 H   0  0  0  0  0  0  0  0  0  0  0  0
   45.1411   31.3494   50.4055 H   0  0  0  0  0  0  0  0  0  0  0  0
   44.6126   29.3789   49.0444 H   0  0  0  0  0  0  0  0  0  0  0  0
   45.9691   26.4981   45.5899 O   0  0  0  0  0  0  0  0  0  0  0  0
   46.4597   27.2802   44.5419 C   0  0  2  0  0  0  0  0  0  0  0  0
   45.9290   28.6885   44.7339 C   0  0  1  0  0  0  0  0  0  0  0  0
   44.9495   28.9213   43.5926 C   0  0  1  0  0  0  0  0  0  0  0  0
   44.0733   28.2506   43.6548 H   0  0  0  0  0  0  0  0  0  0  0  0
   45.6047   28.8711   42.3889 O   0  0  0  0  0  0  0  0  0  0  0  0
   45.9341   27.5741   42.0893 C   0  0  1  0  0  0  0  0  0  0  0  0
   45.2265   27.1470   41.3343 H   0  0  0  0  0  0  0  0  0  0  0  0
   45.9702   26.6360   43.2616 C   0  0  2  0  0  0  0  0  0  0  0  0
   44.7621   25.9674   43.4534 O   0  0  0  0  0  0  0  0  0  0  0  0
   46.6346   25.8823   45.9676 H   0  0  0  0  0  0  0  0  0  0  0  0
   47.5691   27.2730   44.4859 H   0  0  0  0  0  0  0  0  0  0  0  0
   46.7162   29.4504   44.5863 H   0  0  0  0  0  0  0  0  0  0  0  0
   44.5607   29.9578   43.7093 H   0  0  0  0  0  0  0  0  0  0  0  0
   46.9272   27.5883   41.5594 H   0  0  0  0  0  0  0  0  0  0  0  0
   46.6948   25.8338   42.9866 H   0  0  0  0  0  0  0  0  0  0  0  0
   44.9225   25.0410   43.8216 H   0  0  0  0  0  0  0  0  0  0  0  0
  1  6  2  0
  2  3  2  0
  2  1  1  0
  3  4  1  0
  4  5  2  0
  5 12  1  0
  6  5  1  0
  7  3  1  0
  8  7  1  0
  9  8  1  0
 10  9  2  0
 11 10  1  0
 12 14  1  0
 13 18  2  0
 14 13  1  0
 14 15  2  0
 15 16  1  0
 16 17  2  0
 18 17  1  0
 19 21  2  0
 19 13  1  0
 20 19  2  0
  1 22  1  0
  2 23  1  0
  7 24  1  0
  7 25  1  0
  8 26  1  0
  8 27  1  0
  9 28  1  0
 10 29  1  0
 11 30  1  0
 11 31  1  0
 11 32  1  0
 15 33  1  0
 16 34  1  0
 17 35  1  0
 18 36  1  0
 37 38  1  0
 38 39  1  0
 39 40  1  0
 40 41  1  6
 40 42  1  0
 42 43  1  0
 43 44  1  6
 43 45  1  0
 45 46  1  0
 45 38  1  0
 37 47  1  0
 38 48  1  6
 39 49  1  1
 40 50  1  0
 43 51  1  0
 45 52  1  6
 46 53  1  0
 19 39  1  0
M  ISO  8  22  14  23  14  24   8  25   8  26   8  27   8  30   8  31   8
M  ISO  7  32   8  33  14  34  14  35  14  36  14  41   8  44   8
M  END
>  <DihAtoms>  (1) 
20,18,38,37

>  <DihDeg>  (1) 
-45.35092881333666

$$$$
