
 OpenBabel03242517553D

 46 48  0  0  1  0  0  0  0  0999 V2000
   45.5040   30.1470   47.3320 C   0  0  0  0  0  0  0  0  0  0  0  0
   46.0000   31.2400   46.7070 C   0  0  0  0  0  0  0  0  0  0  0  0
   46.1450   32.4090   47.4310 C   0  0  0  0  0  0  0  0  0  0  0  0
   45.8080   32.5090   48.7600 C   0  0  0  0  0  0  0  0  0  0  0  0
   45.3020   31.3870   49.3910 C   0  0  0  0  0  0  0  0  0  0  0  0
   45.1560   30.2150   48.6650 C   0  0  0  0  0  0  0  0  0  0  0  0
   46.5330   33.3260   47.0080 H   0  0  0  0  0  0  0  0  0  0  0  0
   45.9150   33.4050   49.3300 H   0  0  0  0  0  0  0  0  0  0  0  0
   45.0130   31.3950   50.4500 H   0  0  0  0  0  0  0  0  0  0  0  0
   44.7540   29.3210   49.1670 H   0  0  0  0  0  0  0  0  0  0  0  0
   45.2310   28.7460   46.3550 S   0  0  0  0  0  0  0  0  0  0  0  0
   44.4080   28.9770   45.1530 O   0  0  0  0  0  0  0  0  0  0  0  0
   44.4010   27.7790   47.2330 O   0  0  0  0  0  0  0  0  0  0  0  0
   47.1870   28.0190   44.5950 C   0  0  2  0  0  3  0  0  0  0  0  0
   46.6500   27.7790   45.9940 C   0  0  1  0  0  3  0  0  0  0  0  0
   47.7320   28.2720   46.9430 C   0  0  0  0  0  3  0  0  0  0  0  0
   47.8940   29.3620   46.8580 H   0  0  0  0  0  0  0  0  0  0  0  0
   48.8730   27.5270   46.7890 O   0  0  0  0  0  0  0  0  0  0  0  0
   49.4930   27.8590   45.6120 C   0  0  0  0  0  3  0  0  0  0  0  0
   50.3670   28.5320   45.7980 H   0  0  0  0  0  0  0  0  0  0  0  0
   48.6140   28.5240   44.5920 C   0  0  2  0  0  3  0  0  0  0  0  0
   46.4110   29.0230   44.0120 O   0  0  0  0  0  0  0  0  0  0  0  0
   46.1810   28.8490   43.0740 H   0  0  0  0  0  0  0  0  0  0  0  0
   48.6660   29.9150   44.6610 O   0  0  0  0  0  0  0  0  0  0  0  0
   48.5530   30.3220   43.7450 H   0  0  0  0  0  0  0  0  0  0  0  0
   46.4020   31.3500   45.3830 O   0  0  0  0  0  0  0  0  0  0  0  0
   45.2880   34.3060   43.8140 C   0  0  0  0  0  0  0  0  0  0  0  0
   46.4610   34.7740   43.1880 C   0  0  0  0  0  0  0  0  0  0  0  0
   47.6240   34.0610   43.3150 C   0  0  0  0  0  0  0  0  0  0  0  0
   47.5510   32.9410   44.0490 N   0  0  0  0  0  0  0  0  0  0  0  0
   46.4510   32.5000   44.6370 C   0  0  0  0  0  0  0  0  0  0  0  0
   45.3180   33.1830   44.5190 N   0  0  0  0  0  0  0  0  0  0  0  0
   44.3630   34.8640   43.7170 H   0  0  0  0  0  0  0  0  0  0  0  0
   46.3460   35.6880   42.6340 H   0  0  0  0  0  0  0  0  0  0  0  0
   48.8920   34.4460   42.6880 C   0  0  0  0  0  0  0  0  0  0  0  0
   49.6460   34.6590   43.4730 H   0  0  0  0  0  0  0  0  0  0  0  0
   49.3190   33.5850   42.1120 H   0  0  0  0  0  0  0  0  0  0  0  0
   48.7530   35.6120   41.7590 C   0  0  0  0  0  0  0  0  0  0  0  0
   48.0350   36.3490   42.0800 H   0  0  0  0  0  0  0  0  0  0  0  0
   49.7560   36.1490   41.8230 H   0  0  0  0  0  0  0  0  0  0  0  0
   48.6150   35.2360   40.3520 C   0  0  0  0  0  3  0  0  0  0  0  0
   48.0340   34.3350   39.5700 C   0  0  0  0  0  3  0  0  0  0  0  0
   48.2080   34.1850   38.0710 C   0  0  0  0  0  0  0  0  0  0  0  0
   47.2750   34.5230   37.5920 H   0  0  0  0  0  0  0  0  0  0  0  0
   48.4260   33.1250   37.8390 H   0  0  0  0  0  0  0  0  0  0  0  0
   49.0850   34.7860   37.8160 H   0  0  0  0  0  0  0  0  0  0  0  0
  1  6  1  0  0  0  0
  2  1  2  0  0  0  0
  2  3  1  0  0  0  0
  3  4  2  0  0  0  0
  4  8  1  0  0  0  0
  4  5  1  0  0  0  0
  5  9  1  0  0  0  0
  6 10  1  0  0  0  0
  6  5  2  0  0  0  0
  7  3  1  0  0  0  0
 11 13  2  0  0  0  0
 11  1  1  0  0  0  0
 12 11  2  0  0  0  0
 14 22  1  1  0  0  0
 14 15  1  0  0  0  0
 15 11  1  6  0  0  0
 15 16  1  0  0  0  0
 17 16  1  0  0  0  0
 18 16  1  0  0  0  0
 19 20  1  0  0  0  0
 19 18  1  0  0  0  0
 21 14  1  0  0  0  0
 21 24  1  1  0  0  0
 21 19  1  0  0  0  0
 23 22  1  0  0  0  0
 25 24  1  0  0  0  0
 26  2  1  0  0  0  0
 27 32  1  0  0  0  0
 28 29  1  0  0  0  0
 28 27  2  0  0  0  0
 29 30  2  0  0  0  0
 30 31  1  0  0  0  0
 31 26  1  0  0  0  0
 32 31  2  0  0  0  0
 33 27  1  0  0  0  0
 34 28  1  0  0  0  0
 35 29  1  0  0  0  0
 35 36  1  0  0  0  0
 37 35  1  0  0  0  0
 38 40  1  0  0  0  0
 38 39  1  0  0  0  0
 38 35  1  0  0  0  0
 41 38  1  0  0  0  0
 42 41  2  0  0  0  0
 43 42  1  0  0  0  0
 44 43  1  0  0  0  0
 45 43  1  0  0  0  0
 46 43  1  0  0  0  0
M  END
>  <minimizedAffinity>
-5.72332525

>  <minimizedRMSD>
2.01831174

$$$$
