REMARK  Name = 
REMARK  10 active torsions:
REMARK  status: ('A' for Active; 'I' for Inactive)
REMARK    1  A    between atoms: C_3  and  C_7
REMARK    2  A    between atoms: C_5  and  O_12
REMARK    3  A    between atoms: C_7  and  C_8
REMARK    4  A    between atoms: C_8  and  C_9
REMARK    5  A    between atoms: C_10  and  C_11
REMARK    6  A    between atoms: O_12  and  C_14
REMARK    7  A    between atoms: C_13  and  S_19
REMARK    8  A    between atoms: S_19  and  C_39
REMARK    9  A    between atoms: O_37  and  C_38
REMARK   10  A    between atoms: C_45  and  O_46
REMARK                            x       y       z     vdW  Elec       q    Type
REMARK                         _______ _______ _______ _____ _____    ______ ____
ROOT
ATOM      1  C   UNL     1      45.443  30.182  47.233  0.00  0.00    +0.000 A 
ATOM      2  C   UNL     1      46.066  31.230  46.646  0.00  0.00    +0.000 A 
ATOM      3  C   UNL     1      46.363  32.340  47.415  0.00  0.00    +0.000 A 
ATOM      4  C   UNL     1      46.053  32.425  48.752  0.00  0.00    +0.000 A 
ATOM      5  C   UNL     1      45.417  31.349  49.344  0.00  0.00    +0.000 A 
ATOM      6  C   UNL     1      45.119  30.236  48.573  0.00  0.00    +0.000 A 
ATOM      7  H   UNL     1      46.859  33.219  47.025  0.00  0.00    +0.000 HD
ATOM      8  H   UNL     1      46.277  33.276  49.356  0.00  0.00    +0.000 HD
ATOM      9  H   UNL     1      45.141  31.349  50.406  0.00  0.00    +0.000 HD
ATOM     10  H   UNL     1      44.613  29.379  49.044  0.00  0.00    +0.000 HD
ENDROOT
BRANCH   1  11
ATOM     11  S   UNL     1      44.989  28.868  46.204  0.00  0.00    +0.000 S 
ATOM     12  O   UNL     1      43.541  28.755  45.944  0.00  0.00    +0.000 OA
ATOM     13  O   UNL     1      45.361  27.582  46.980  0.00  0.00    +0.000 OA
BRANCH  11  15
ATOM     14  C   UNL     1      47.357  28.250  44.998  0.00  0.00    +0.000 C 
ATOM     15  C   UNL     1      45.929  28.689  44.734  0.00  0.00    +0.000 C 
ATOM     16  C   UNL     1      45.278  27.543  43.971  0.00  0.00    +0.000 C 
ATOM     17  H   UNL     1      45.211  26.624  44.581  0.00  0.00    +0.000 HD
ATOM     18  O   UNL     1      45.901  27.365  42.763  0.00  0.00    +0.000 OA
ATOM     19  C   UNL     1      47.131  26.788  42.951  0.00  0.00    +0.000 C 
ATOM     20  H   UNL     1      47.100  25.695  42.710  0.00  0.00    +0.000 HD
ATOM     21  C   UNL     1      47.702  26.934  44.333  0.00  0.00    +0.000 C 
BRANCH  14  22
ATOM     22  O   UNL     1      47.488  28.044  46.373  0.00  0.00    +0.000 OA
ATOM     23  H   UNL     1      48.329  28.389  46.745  0.00  0.00    +0.000 HD
ENDBRANCH  14  22
BRANCH  21  24
ATOM     24  O   UNL     1      47.401  25.850  45.156  0.00  0.00    +0.000 OA
ATOM     25  H   UNL     1      48.152  25.680  45.809  0.00  0.00    +0.000 HD
ENDBRANCH  21  24
ENDBRANCH  11  15
ENDBRANCH   1  11
BRANCH   2  26
ATOM     26  O   UNL     1      46.467  31.345  45.322  0.00  0.00    +0.000 OA
BRANCH  26  31
ATOM     27  C   UNL     1      45.306  34.281  43.749  0.00  0.00    +0.000 A 
ATOM     28  C   UNL     1      46.472  34.767  43.123  0.00  0.00    +0.000 A 
ATOM     29  C   UNL     1      47.646  34.073  43.252  0.00  0.00    +0.000 A 
ATOM     30  N   UNL     1      47.591  32.953  43.987  0.00  0.00    +0.000 NA
ATOM     31  C   UNL     1      46.498  32.495  44.575  0.00  0.00    +0.000 A 
ATOM     32  N   UNL     1      45.354  33.160  44.456  0.00  0.00    +0.000 NA
ATOM     33  H   UNL     1      44.373  34.824  43.651  0.00  0.00    +0.000 HD
ATOM     34  H   UNL     1      46.343  35.679  42.568  0.00  0.00    +0.000 HD
BRANCH  29  35
ATOM     35  C   UNL     1      48.908  34.478  42.625  0.00  0.00    +0.000 C 
ATOM     36  H   UNL     1      49.665  34.682  43.410  0.00  0.00    +0.000 HD
ATOM     37  H   UNL     1      49.338  33.630  42.032  0.00  0.00    +0.000 HD
BRANCH  35  38
ATOM     38  C   UNL     1      48.756  35.659  41.717  0.00  0.00    +0.000 C 
ATOM     39  H   UNL     1      48.090  36.419  42.090  0.00  0.00    +0.000 HD
ATOM     40  H   UNL     1      49.782  36.155  41.721  0.00  0.00    +0.000 HD
BRANCH  38  41
ATOM     41  C   UNL     1      48.513  35.304  40.319  0.00  0.00    +0.000 C 
ATOM     42  C   UNL     1      48.270  34.258  39.540  0.00  0.00    +0.000 C 
BRANCH  42  43
ATOM     43  C   UNL     1      48.168  34.255  38.027  0.00  0.00    +0.000 C 
ATOM     44  H   UNL     1      47.108  34.113  37.764  0.00  0.00    +0.000 HD
ATOM     45  H   UNL     1      48.802  33.441  37.626  0.00  0.00    +0.000 HD
ATOM     46  H   UNL     1      48.585  35.213  37.703  0.00  0.00    +0.000 HD
ENDBRANCH  42  43
ENDBRANCH  38  41
ENDBRANCH  35  38
ENDBRANCH  29  35
ENDBRANCH  26  31
ENDBRANCH   2  26
TORSDOF 10
