
 OpenBabel03242522203D

 48 51  0  0  1  0  0  0  0  0999 V2000
   42.6890   34.1630   39.9510 C   0  0  0  0  0  0  0  0  0  0  0  0
   42.5690   33.6590   38.6900 C   0  0  0  0  0  0  0  0  0  0  0  0
   41.5460   32.8690   38.2170 C   0  0  0  0  0  0  0  0  0  0  0  0
   40.5720   32.5820   39.1210 C   0  0  0  0  0  0  0  0  0  0  0  0
   40.6700   33.0770   40.3930 C   0  0  0  0  0  0  0  0  0  0  0  0
   41.6850   33.8480   40.8280 N   0  0  0  0  0  0  0  0  0  0  0  0
   43.3930   33.9370   38.0290 H   0  0  0  0  0  0  0  0  0  0  0  0
   41.5530   32.5260   37.2040 H   0  0  0  0  0  0  0  0  0  0  0  0
   39.5560   32.7110   41.3190 C   0  0  0  0  0  0  0  0  0  0  0  0
   38.3330   33.0520   40.6990 F   0  0  0  0  0  0  0  0  0  0  0  0
   39.6720   33.2560   42.5690 F   0  0  0  0  0  0  0  0  0  0  0  0
   39.5200   31.3350   41.4740 F   0  0  0  0  0  0  0  0  0  0  0  0
   43.7220   34.9960   40.5370 C   0  0  0  0  0  0  0  0  0  0  0  0
   44.6390   34.3760   40.6400 H   0  0  0  0  0  0  0  0  0  0  0  0
   44.0150   35.8150   39.8200 H   0  0  0  0  0  0  0  0  0  0  0  0
   43.4250   35.6240   41.8470 C   0  0  0  0  0  0  0  0  0  0  0  0
   43.6110   36.7150   41.8110 H   0  0  0  0  0  0  0  0  0  0  0  0
   42.3520   35.4650   42.1120 H   0  0  0  0  0  0  0  0  0  0  0  0
   45.4910   33.5310   44.0960 C   0  0  0  0  0  0  0  0  0  0  0  0
   45.5190   34.3390   45.1800 C   0  0  0  0  0  0  0  0  0  0  0  0
   44.5110   35.7670   44.5990 S   0  0  0  0  0  0  0  0  0  0  0  0
   44.2260   34.9900   42.9420 C   0  0  0  0  0  0  0  0  0  0  0  0
   44.8090   34.0310   43.1150 N   0  0  0  0  0  0  0  0  0  0  0  0
   46.0180   34.2000   46.1880 H   0  0  0  0  0  0  0  0  0  0  0  0
   47.6520   30.6310   43.0660 C   0  0  0  0  0  0  0  0  0  0  0  0
   47.0610   31.9030   43.0430 C   0  0  0  0  0  0  0  0  0  0  0  0
   46.1640   32.2190   44.0330 C   0  0  0  0  0  0  0  0  0  0  0  0
   45.9060   31.2430   44.9940 N   0  0  0  0  0  0  0  0  0  0  0  0
   46.5010   30.0490   44.9620 C   0  0  0  0  0  0  0  0  0  0  0  0
   47.3750   29.7330   44.0040 N   0  0  0  0  0  0  0  0  0  0  0  0
   48.3670   30.3440   42.2980 H   0  0  0  0  0  0  0  0  0  0  0  0
   46.1710   29.4340   45.7900 H   0  0  0  0  0  0  0  0  0  0  0  0
   47.4290   32.7850   41.9950 N   0  0  0  0  0  0  0  0  0  0  0  0
   47.8270   33.7230   42.2390 H   0  0  0  0  0  0  0  0  0  0  0  0
   47.2740   32.4280   41.0140 H   0  0  0  0  0  0  0  0  0  0  0  0
   39.1720   31.5530   38.6270 S   0  0  0  0  0  0  0  0  0  0  0  0
   39.6770   28.9450   38.3390 C   0  0  2  0  0  3  0  0  0  0  0  0
   39.6870   30.2440   37.5240 C   0  0  1  0  0  3  0  0  0  0  0  0
   38.7160   30.0270   36.3890 C   0  0  0  0  0  3  0  0  0  0  0  0
   37.9660   30.8340   36.3130 H   0  0  0  0  0  0  0  0  0  0  0  0
   38.1160   28.7900   36.4090 O   0  0  0  0  0  0  0  0  0  0  0  0
   37.4190   28.4900   37.5520 C   0  0  0  0  0  3  0  0  0  0  0  0
   37.1880   27.3870   37.4960 H   0  0  0  0  0  0  0  0  0  0  0  0
   38.2560   28.6770   38.7880 C   0  0  2  0  0  3  0  0  0  0  0  0
   40.4740   29.1220   39.4490 O   0  0  0  0  0  0  0  0  0  0  0  0
   39.9830   29.6500   40.1170 H   0  0  0  0  0  0  0  0  0  0  0  0
   37.7720   29.7140   39.5860 O   0  0  0  0  0  0  0  0  0  0  0  0
   37.0520   29.4230   40.1810 H   0  0  0  0  0  0  0  0  0  0  0  0
  1 13  1  0  0  0  0
  1  6  1  0  0  0  0
  2  1  2  0  0  0  0
  3  2  1  0  0  0  0
  3  4  2  0  0  0  0
  4  5  1  0  0  0  0
  5  6  2  0  0  0  0
  5  9  1  0  0  0  0
  7  2  1  0  0  0  0
  8  3  1  0  0  0  0
  9 12  1  0  0  0  0
  9 11  1  0  0  0  0
 10  9  1  0  0  0  0
 13 14  1  0  0  0  0
 13 16  1  0  0  0  0
 15 13  1  0  0  0  0
 16 18  1  0  0  0  0
 16 22  1  0  0  0  0
 17 16  1  0  0  0  0
 19 20  2  0  0  0  0
 20 24  1  0  0  0  0
 21 20  1  0  0  0  0
 22 23  2  0  0  0  0
 22 21  1  0  0  0  0
 23 19  1  0  0  0  0
 25 30  1  0  0  0  0
 26 25  2  0  0  0  0
 26 27  1  0  0  0  0
 27 19  1  0  0  0  0
 27 28  2  0  0  0  0
 29 28  1  0  0  0  0
 29 32  1  0  0  0  0
 30 29  2  0  0  0  0
 31 25  1  0  0  0  0
 33 34  1  0  0  0  0
 33 26  1  0  0  0  0
 35 33  1  0  0  0  0
 36  4  1  0  0  0  0
 37 44  1  0  0  0  0
 37 45  1  1  0  0  0
 38 37  1  0  0  0  0
 38 36  1  1  0  0  0
 39 41  1  0  0  0  0
 39 38  1  0  0  0  0
 40 39  1  0  0  0  0
 41 42  1  0  0  0  0
 42 44  1  0  0  0  0
 43 42  1  0  0  0  0
 44 47  1  6  0  0  0
 45 46  1  0  0  0  0
 47 48  1  0  0  0  0
M  END
>  <minimizedAffinity>
-5.22556162

>  <minimizedRMSD>
2.92277789

$$$$
