
 OpenBabel03242517553D

 46 48  0  0  1  0  0  0  0  0999 V2000
   45.6510   30.0700   47.2380 C   0  0  0  0  0  0  0  0  0  0  0  0
   46.0270   31.1980   46.5910 C   0  0  0  0  0  0  0  0  0  0  0  0
   46.0410   32.3900   47.2920 C   0  0  0  0  0  0  0  0  0  0  0  0
   45.6890   32.4790   48.6180 C   0  0  0  0  0  0  0  0  0  0  0  0
   45.3070   31.3220   49.2710 C   0  0  0  0  0  0  0  0  0  0  0  0
   45.2930   30.1260   48.5690 C   0  0  0  0  0  0  0  0  0  0  0  0
   46.3280   33.3360   46.8520 H   0  0  0  0  0  0  0  0  0  0  0  0
   45.6960   33.3930   49.1690 H   0  0  0  0  0  0  0  0  0  0  0  0
   45.0140   31.3200   50.3290 H   0  0  0  0  0  0  0  0  0  0  0  0
   44.9890   29.2040   49.0880 H   0  0  0  0  0  0  0  0  0  0  0  0
   45.5380   28.6280   46.2890 S   0  0  0  0  0  0  0  0  0  0  0  0
   45.4030   27.3820   47.0680 O   0  0  0  0  0  0  0  0  0  0  0  0
   46.8950   28.5020   45.5580 O   0  0  0  0  0  0  0  0  0  0  0  0
   44.5210   27.4770   44.0330 C   0  0  2  0  0  3  0  0  0  0  0  0
   44.4080   28.6820   44.9490 C   0  0  1  0  0  3  0  0  0  0  0  0
   43.0240   28.5960   45.5780 C   0  0  0  0  0  3  0  0  0  0  0  0
   42.9180   27.7060   46.2250 H   0  0  0  0  0  0  0  0  0  0  0  0
   42.0580   28.7000   44.6100 O   0  0  0  0  0  0  0  0  0  0  0  0
   42.0010   27.5430   43.8780 C   0  0  0  0  0  3  0  0  0  0  0  0
   41.1330   26.9120   44.1960 H   0  0  0  0  0  0  0  0  0  0  0  0
   43.2330   26.6860   43.9400 C   0  0  2  0  0  3  0  0  0  0  0  0
   45.4740   26.6170   44.5850 O   0  0  0  0  0  0  0  0  0  0  0  0
   46.0820   26.2260   43.9200 H   0  0  0  0  0  0  0  0  0  0  0  0
   43.1600   25.7080   44.9310 O   0  0  0  0  0  0  0  0  0  0  0  0
   43.6550   24.8760   44.6470 H   0  0  0  0  0  0  0  0  0  0  0  0
   46.4210   31.3250   45.2660 O   0  0  0  0  0  0  0  0  0  0  0  0
   45.2800   34.2650   43.6860 C   0  0  0  0  0  0  0  0  0  0  0  0
   46.4620   34.7740   43.1100 C   0  0  0  0  0  0  0  0  0  0  0  0
   47.6400   34.0930   43.2740 C   0  0  0  0  0  0  0  0  0  0  0  0
   47.5720   32.9630   43.9930 N   0  0  0  0  0  0  0  0  0  0  0  0
   46.4640   32.4840   44.5350 C   0  0  0  0  0  0  0  0  0  0  0  0
   45.3170   33.1360   44.3810 N   0  0  0  0  0  0  0  0  0  0  0  0
   44.3450   34.7980   43.5600 H   0  0  0  0  0  0  0  0  0  0  0  0
   46.3420   35.6910   42.5610 H   0  0  0  0  0  0  0  0  0  0  0  0
   48.9180   34.5220   42.6990 C   0  0  0  0  0  0  0  0  0  0  0  0
   49.6270   34.7750   43.5140 H   0  0  0  0  0  0  0  0  0  0  0  0
   49.4060   33.6710   42.1560 H   0  0  0  0  0  0  0  0  0  0  0  0
   48.7750   35.6690   41.7470 C   0  0  0  0  0  0  0  0  0  0  0  0
   48.0580   36.4100   42.0560 H   0  0  0  0  0  0  0  0  0  0  0  0
   49.7780   36.2070   41.7970 H   0  0  0  0  0  0  0  0  0  0  0  0
   48.6330   35.2640   40.3490 C   0  0  0  0  0  3  0  0  0  0  0  0
   48.0360   34.3580   39.5850 C   0  0  0  0  0  3  0  0  0  0  0  0
   48.2100   34.1720   38.0900 C   0  0  0  0  0  0  0  0  0  0  0  0
   47.2870   34.5190   37.6010 H   0  0  0  0  0  0  0  0  0  0  0  0
   48.4060   33.1020   37.8830 H   0  0  0  0  0  0  0  0  0  0  0  0
   49.1010   34.7470   37.8250 H   0  0  0  0  0  0  0  0  0  0  0  0
  1  6  1  0  0  0  0
  2  1  2  0  0  0  0
  2  3  1  0  0  0  0
  3  4  2  0  0  0  0
  4  8  1  0  0  0  0
  4  5  1  0  0  0  0
  5  9  1  0  0  0  0
  6 10  1  0  0  0  0
  6  5  2  0  0  0  0
  7  3  1  0  0  0  0
 11 12  2  0  0  0  0
 11  1  1  0  0  0  0
 13 11  2  0  0  0  0
 14 22  1  1  0  0  0
 14 15  1  0  0  0  0
 15 16  1  0  0  0  0
 15 11  1  1  0  0  0
 16 17  1  0  0  0  0
 18 16  1  0  0  0  0
 19 21  1  0  0  0  0
 19 20  1  0  0  0  0
 19 18  1  0  0  0  0
 21 14  1  0  0  0  0
 21 24  1  1  0  0  0
 23 22  1  0  0  0  0
 25 24  1  0  0  0  0
 26  2  1  0  0  0  0
 27 32  1  0  0  0  0
 28 29  1  0  0  0  0
 28 27  2  0  0  0  0
 29 30  2  0  0  0  0
 30 31  1  0  0  0  0
 31 26  1  0  0  0  0
 32 31  2  0  0  0  0
 33 27  1  0  0  0  0
 34 28  1  0  0  0  0
 35 29  1  0  0  0  0
 35 36  1  0  0  0  0
 37 35  1  0  0  0  0
 38 40  1  0  0  0  0
 38 39  1  0  0  0  0
 38 35  1  0  0  0  0
 41 38  1  0  0  0  0
 42 41  2  0  0  0  0
 43 42  1  0  0  0  0
 44 43  1  0  0  0  0
 45 43  1  0  0  0  0
 46 43  1  0  0  0  0
M  END
>  <minimizedAffinity>
-5.78829002

>  <minimizedRMSD>
1.74482501

$$$$
