
 OpenBabel03242521293D

 38 40  0  0  1  0  0  0  0  0999 V2000
   39.7650   30.8340   40.8630 C   0  0  1  0  0  0  0  0  0  0  0  0
   38.3110   30.4720   40.6790 C   0  0  2  0  0  0  0  0  0  0  0  0
   37.4680   31.5110   41.0140 O   0  0  0  0  0  0  0  0  0  0  0  0
   37.6350   32.4880   40.0510 C   0  0  0  0  0  0  0  0  0  0  0  0
   38.9790   33.1470   40.2680 C   0  0  2  0  0  0  0  0  0  0  0  0
   40.1210   32.2000   40.3930 C   0  0  2  0  0  0  0  0  0  0  0  0
   40.3230   30.0710   40.2440 H   0  0  0  0  0  0  0  0  0  0  0  0
   38.1730   30.2410   39.5880 H   0  0  0  0  0  0  0  0  0  0  0  0
   36.8740   33.2710   40.0620 H   0  0  0  0  0  0  0  0  0  0  0  0
   37.7130   31.9570   39.0610 H   0  0  0  0  0  0  0  0  0  0  0  0
   39.0740   33.8730   39.4450 H   0  0  0  0  0  0  0  0  0  0  0  0
   40.8150   32.6270   41.1680 H   0  0  0  0  0  0  0  0  0  0  0  0
   37.5400   26.8930   41.6190 C   0  0  0  0  0  0  0  0  0  0  0  0
   37.8890   27.9980   40.8290 C   0  0  0  0  0  0  0  0  0  0  0  0
   37.9590   29.2730   41.4600 C   0  0  0  0  0  0  0  0  0  0  0  0
   37.6900   29.3690   42.7830 N   0  0  0  0  0  0  0  0  0  0  0  0
   37.3540   28.2560   43.5110 C   0  0  0  0  0  0  0  0  0  0  0  0
   37.2820   27.0340   42.9300 N   0  0  0  0  0  0  0  0  0  0  0  0
   37.4700   25.9050   41.2090 H   0  0  0  0  0  0  0  0  0  0  0  0
   38.0950   27.8860   39.7810 H   0  0  0  0  0  0  0  0  0  0  0  0
   37.1680   28.4910   44.5520 H   0  0  0  0  0  0  0  0  0  0  0  0
   40.1940   30.5760   42.1700 O   0  0  0  0  0  0  0  0  0  0  0  0
   40.5690   29.6720   42.2880 H   0  0  0  0  0  0  0  0  0  0  0  0
   38.8300   33.9290   41.4300 O   0  0  0  0  0  0  0  0  0  0  0  0
   39.4430   33.6330   42.1480 H   0  0  0  0  0  0  0  0  0  0  0  0
   40.9160   32.1260   39.2320 O   0  0  0  0  0  0  0  0  0  0  0  0
   41.8580   32.9840   37.3040 C   0  0  2  0  0  3  0  0  0  0  0  0
   41.3440   33.2940   38.7130 C   0  0  2  0  0  3  0  0  0  0  0  0
   42.6080   33.6910   39.4900 C   0  0  0  0  0  3  0  0  0  0  0  0
   42.4040   34.4630   40.2360 H   0  0  0  0  0  0  0  0  0  0  0  0
   43.6140   34.1600   38.6610 O   0  0  0  0  0  0  0  0  0  0  0  0
   44.1760   33.0340   38.0230 C   0  0  0  0  0  3  0  0  0  0  0  0
   44.8540   32.5010   38.7450 H   0  0  0  0  0  0  0  0  0  0  0  0
   43.0990   32.1160   37.5470 C   0  0  2  0  0  3  0  0  0  0  0  0
   42.2930   34.1610   36.7220 O   0  0  0  0  0  0  0  0  0  0  0  0
   42.3790   34.0170   35.7450 H   0  0  0  0  0  0  0  0  0  0  0  0
   43.4180   31.4480   36.3640 O   0  0  0  0  0  0  0  0  0  0  0  0
   43.6610   30.4960   36.5330 H   0  0  0  0  0  0  0  0  0  0  0  0
  1  7  1  6  0  0  0
  1 22  1  0  0  0  0
  2  8  1  6  0  0  0
  2  1  1  0  0  0  0
  2  3  1  0  0  0  0
  2 15  1  0  0  0  0
  4  9  1  0  0  0  0
  4  5  1  0  0  0  0
  4  3  1  0  0  0  0
  5 11  1  6  0  0  0
  5  6  1  0  0  0  0
  5 24  1  0  0  0  0
  6  1  1  0  0  0  0
  6 12  1  1  0  0  0
 10  4  1  0  0  0  0
 13 18  1  0  0  0  0
 14 15  1  0  0  0  0
 14 13  2  0  0  0  0
 15 16  2  0  0  0  0
 16 17  1  0  0  0  0
 17 21  1  0  0  0  0
 18 17  2  0  0  0  0
 19 13  1  0  0  0  0
 20 14  1  0  0  0  0
 22 23  1  0  0  0  0
 24 25  1  0  0  0  0
 26  6  1  0  0  0  0
 27 35  1  1  0  0  0
 27 34  1  0  0  0  0
 27 28  1  0  0  0  0
 28 26  1  1  0  0  0
 28 29  1  0  0  0  0
 29 30  1  0  0  0  0
 31 29  1  0  0  0  0
 32 31  1  0  0  0  0
 32 33  1  0  0  0  0
 34 37  1  6  0  0  0
 34 32  1  0  0  0  0
 36 35  1  0  0  0  0
 37 38  1  0  0  0  0
M  END
>  <minimizedAffinity>
-6.26359034

$$$$

 OpenBabel03242521293D

 38 40  0  0  1  0  0  0  0  0999 V2000
   39.1540   31.8620   38.2780 C   0  0  1  0  0  0  0  0  0  0  0  0
   40.1270   32.5290   39.2210 C   0  0  2  0  0  0  0  0  0  0  0  0
   39.6480   33.7300   39.7010 O   0  0  0  0  0  0  0  0  0  0  0  0
   38.5980   33.4330   40.5490 C   0  0  0  0  0  0  0  0  0  0  0  0
   37.4210   32.9860   39.7110 C   0  0  2  0  0  0  0  0  0  0  0  0
   37.7340   31.9210   38.7180 C   0  0  2  0  0  0  0  0  0  0  0  0
   39.4890   30.7830   38.2490 H   0  0  0  0  0  0  0  0  0  0  0  0
   40.2630   31.8290   40.0900 H   0  0  0  0  0  0  0  0  0  0  0  0
   38.2670   34.2670   41.1700 H   0  0  0  0  0  0  0  0  0  0  0  0
   38.9090   32.5290   41.1440 H   0  0  0  0  0  0  0  0  0  0  0  0
   36.6410   32.7150   40.4420 H   0  0  0  0  0  0  0  0  0  0  0  0
   37.1300   32.1460   37.7970 H   0  0  0  0  0  0  0  0  0  0  0  0
   43.2880   34.1610   37.9460 C   0  0  0  0  0  0  0  0  0  0  0  0
   42.0470   34.0210   38.5820 C   0  0  0  0  0  0  0  0  0  0  0  0
   41.4360   32.7350   38.5760 C   0  0  0  0  0  0  0  0  0  0  0  0
   42.0690   31.7080   37.9630 N   0  0  0  0  0  0  0  0  0  0  0  0
   43.2840   31.8970   37.3550 C   0  0  0  0  0  0  0  0  0  0  0  0
   43.8820   33.1140   37.3500 N   0  0  0  0  0  0  0  0  0  0  0  0
   43.8040   35.1010   37.9130 H   0  0  0  0  0  0  0  0  0  0  0  0
   41.5710   34.8590   39.0590 H   0  0  0  0  0  0  0  0  0  0  0  0
   43.6630   30.9860   36.9100 H   0  0  0  0  0  0  0  0  0  0  0  0
   39.3380   32.3000   36.9610 O   0  0  0  0  0  0  0  0  0  0  0  0
   39.9690   31.7450   36.4480 H   0  0  0  0  0  0  0  0  0  0  0  0
   36.9430   34.1510   39.0820 O   0  0  0  0  0  0  0  0  0  0  0  0
   37.0030   34.0830   38.0960 H   0  0  0  0  0  0  0  0  0  0  0  0
   37.2900   30.6430   39.1090 O   0  0  0  0  0  0  0  0  0  0  0  0
   37.5580   29.9470   41.2980 C   0  0  2  0  0  3  0  0  0  0  0  0
   36.6070   30.5650   40.2690 C   0  0  2  0  0  3  0  0  0  0  0  0
   35.5230   29.4950   40.0770 C   0  0  0  0  0  3  0  0  0  0  0  0
   34.5400   29.9350   39.8940 H   0  0  0  0  0  0  0  0  0  0  0  0
   35.4110   28.6500   41.1690 O   0  0  0  0  0  0  0  0  0  0  0  0
   36.5090   27.7650   41.1160 C   0  0  0  0  0  3  0  0  0  0  0  0
   36.3120   26.9790   40.3370 H   0  0  0  0  0  0  0  0  0  0  0  0
   37.7620   28.5120   40.7960 C   0  0  2  0  0  3  0  0  0  0  0  0
   36.9040   29.8640   42.5130 O   0  0  0  0  0  0  0  0  0  0  0  0
   37.5780   29.7140   43.2250 H   0  0  0  0  0  0  0  0  0  0  0  0
   38.8990   27.9800   41.4050 O   0  0  0  0  0  0  0  0  0  0  0  0
   39.4600   27.4710   40.7570 H   0  0  0  0  0  0  0  0  0  0  0  0
  1  7  1  6  0  0  0
  1  6  1  0  0  0  0
  1  2  1  0  0  0  0
  2  3  1  0  0  0  0
  2  8  1  1  0  0  0
  3  4  1  0  0  0  0
  4 10  1  0  0  0  0
  4  9  1  0  0  0  0
  5 11  1  1  0  0  0
  5  4  1  0  0  0  0
  6 12  1  6  0  0  0
  6 26  1  0  0  0  0
  6  5  1  0  0  0  0
 13 14  1  0  0  0  0
 14 20  1  0  0  0  0
 15 14  2  0  0  0  0
 15  2  1  0  0  0  0
 16 15  1  0  0  0  0
 17 16  2  0  0  0  0
 18 17  1  0  0  0  0
 18 13  2  0  0  0  0
 19 13  1  0  0  0  0
 21 17  1  0  0  0  0
 22  1  1  0  0  0  0
 23 22  1  0  0  0  0
 24  5  1  0  0  0  0
 25 24  1  0  0  0  0
 27 35  1  1  0  0  0
 28 26  1  6  0  0  0
 28 27  1  0  0  0  0
 29 28  1  0  0  0  0
 29 31  1  0  0  0  0
 30 29  1  0  0  0  0
 32 31  1  0  0  0  0
 33 32  1  0  0  0  0
 34 32  1  0  0  0  0
 34 27  1  0  0  0  0
 34 37  1  1  0  0  0
 35 36  1  0  0  0  0
 38 37  1  0  0  0  0
M  END
>  <minimizedAffinity>
-6.24095535

$$$$

 OpenBabel03242521293D

 38 40  0  0  1  0  0  0  0  0999 V2000
   36.8790   28.7200   41.4350 C   0  0  1  0  0  0  0  0  0  0  0  0
   37.1060   27.5950   40.4540 C   0  0  2  0  0  0  0  0  0  0  0  0
   35.9780   27.3140   39.7110 O   0  0  0  0  0  0  0  0  0  0  0  0
   35.7800   28.3860   38.8630 C   0  0  0  0  0  0  0  0  0  0  0  0
   35.2820   29.5560   39.6810 C   0  0  2  0  0  0  0  0  0  0  0  0
   36.1020   29.8650   40.8860 C   0  0  2  0  0  0  0  0  0  0  0  0
   37.9190   29.0720   41.7020 H   0  0  0  0  0  0  0  0  0  0  0  0
   37.9150   27.9380   39.7530 H   0  0  0  0  0  0  0  0  0  0  0  0
   35.0570   28.2060   38.0650 H   0  0  0  0  0  0  0  0  0  0  0  0
   36.7960   28.6900   38.4830 H   0  0  0  0  0  0  0  0  0  0  0  0
   35.1950   30.3870   38.9620 H   0  0  0  0  0  0  0  0  0  0  0  0
   35.3870   30.1750   41.6960 H   0  0  0  0  0  0  0  0  0  0  0  0
   37.3890   24.0060   41.6060 C   0  0  0  0  0  0  0  0  0  0  0  0
   36.9130   25.1310   40.9170 C   0  0  0  0  0  0  0  0  0  0  0  0
   37.5680   26.3760   41.1410 C   0  0  0  0  0  0  0  0  0  0  0  0
   38.6130   26.4260   42.0000 N   0  0  0  0  0  0  0  0  0  0  0  0
   39.0410   25.2950   42.6480 C   0  0  0  0  0  0  0  0  0  0  0  0
   38.4310   24.1000   42.4480 N   0  0  0  0  0  0  0  0  0  0  0  0
   36.9440   23.0380   41.4830 H   0  0  0  0  0  0  0  0  0  0  0  0
   36.0800   25.0560   40.2430 H   0  0  0  0  0  0  0  0  0  0  0  0
   39.8830   25.4920   43.2990 H   0  0  0  0  0  0  0  0  0  0  0  0
   36.3700   28.2450   42.6480 O   0  0  0  0  0  0  0  0  0  0  0  0
   37.0680   28.0250   43.3070 H   0  0  0  0  0  0  0  0  0  0  0  0
   33.9570   29.2340   40.0300 O   0  0  0  0  0  0  0  0  0  0  0  0
   33.8440   29.1700   41.0120 H   0  0  0  0  0  0  0  0  0  0  0  0
   36.9360   30.9880   40.7230 O   0  0  0  0  0  0  0  0  0  0  0  0
   38.9920   31.7850   41.4160 C   0  0  2  0  0  3  0  0  0  0  0  0
   38.2540   30.7500   40.5640 C   0  0  2  0  0  3  0  0  0  0  0  0
   38.6050   31.1380   39.1200 C   0  0  0  0  0  3  0  0  0  0  0  0
   38.6920   30.2640   38.4700 H   0  0  0  0  0  0  0  0  0  0  0  0
   39.7930   31.8460   39.0360 O   0  0  0  0  0  0  0  0  0  0  0  0
   39.5200   33.1570   39.4840 C   0  0  0  0  0  3  0  0  0  0  0  0
   38.9860   33.7200   38.6700 H   0  0  0  0  0  0  0  0  0  0  0  0
   38.6870   33.1180   40.7230 C   0  0  2  0  0  3  0  0  0  0  0  0
   40.3530   31.5670   41.2980 O   0  0  0  0  0  0  0  0  0  0  0  0
   40.8140   32.0510   42.0300 H   0  0  0  0  0  0  0  0  0  0  0  0
   38.9600   34.1600   41.6100 O   0  0  0  0  0  0  0  0  0  0  0  0
   38.2530   34.8610   41.5850 H   0  0  0  0  0  0  0  0  0  0  0  0
  1  7  1  1  0  0  0
  1 22  1  0  0  0  0
  2  8  1  6  0  0  0
  2 15  1  0  0  0  0
  2  1  1  0  0  0  0
  3  2  1  0  0  0  0
  4  5  1  0  0  0  0
  4  3  1  0  0  0  0
  5 11  1  6  0  0  0
  5 24  1  0  0  0  0
  5  6  1  0  0  0  0
  6  1  1  0  0  0  0
  6 12  1  1  0  0  0
  9  4  1  0  0  0  0
 10  4  1  0  0  0  0
 13 18  1  0  0  0  0
 14 15  1  0  0  0  0
 14 13  2  0  0  0  0
 15 16  2  0  0  0  0
 16 17  1  0  0  0  0
 17 21  1  0  0  0  0
 18 17  2  0  0  0  0
 19 13  1  0  0  0  0
 20 14  1  0  0  0  0
 22 23  1  0  0  0  0
 24 25  1  0  0  0  0
 26  6  1  0  0  0  0
 27 35  1  6  0  0  0
 28 26  1  6  0  0  0
 28 27  1  0  0  0  0
 29 28  1  0  0  0  0
 30 29  1  0  0  0  0
 31 29  1  0  0  0  0
 31 32  1  0  0  0  0
 32 34  1  0  0  0  0
 33 32  1  0  0  0  0
 34 27  1  0  0  0  0
 34 37  1  1  0  0  0
 35 36  1  0  0  0  0
 38 37  1  0  0  0  0
M  END
>  <minimizedAffinity>
-5.94308281

$$$$

 OpenBabel03242521293D

 38 40  0  0  1  0  0  0  0  0999 V2000
   38.8130   28.0240   40.7360 C   0  0  1  0  0  0  0  0  0  0  0  0
   37.5960   27.1830   40.4340 C   0  0  2  0  0  0  0  0  0  0  0  0
   36.5760   27.3970   41.3380 O   0  0  0  0  0  0  0  0  0  0  0  0
   36.0970   28.6730   41.1060 C   0  0  0  0  0  0  0  0  0  0  0  0
   37.1210   29.6650   41.6120 C   0  0  2  0  0  0  0  0  0  0  0  0
   38.5080   29.4280   41.1240 C   0  0  2  0  0  0  0  0  0  0  0  0
   39.3980   28.0250   39.7700 H   0  0  0  0  0  0  0  0  0  0  0  0
   37.2370   27.4930   39.4150 H   0  0  0  0  0  0  0  0  0  0  0  0
   35.1470   28.8960   41.5960 H   0  0  0  0  0  0  0  0  0  0  0  0
   36.0670   28.8090   39.9890 H   0  0  0  0  0  0  0  0  0  0  0  0
   36.7070   30.6530   41.3530 H   0  0  0  0  0  0  0  0  0  0  0  0
   39.1990   29.6740   41.9760 H   0  0  0  0  0  0  0  0  0  0  0  0
   37.5730   23.4640   41.1050 C   0  0  0  0  0  0  0  0  0  0  0  0
   37.1990   24.8130   41.1740 C   0  0  0  0  0  0  0  0  0  0  0  0
   37.9360   25.7500   40.3950 C   0  0  0  0  0  0  0  0  0  0  0  0
   38.9580   25.3070   39.6260 N   0  0  0  0  0  0  0  0  0  0  0  0
   39.2840   23.9750   39.5940 C   0  0  0  0  0  0  0  0  0  0  0  0
   38.5940   23.0680   40.3270 N   0  0  0  0  0  0  0  0  0  0  0  0
   37.0600   22.7060   41.6650 H   0  0  0  0  0  0  0  0  0  0  0  0
   36.3820   25.1310   41.7960 H   0  0  0  0  0  0  0  0  0  0  0  0
   40.1200   23.7750   38.9360 H   0  0  0  0  0  0  0  0  0  0  0  0
   39.6670   27.3800   41.6380 O   0  0  0  0  0  0  0  0  0  0  0  0
   40.3550   26.8270   41.2010 H   0  0  0  0  0  0  0  0  0  0  0  0
   37.0500   29.5950   43.0160 O   0  0  0  0  0  0  0  0  0  0  0  0
   37.9100   29.3000   43.4090 H   0  0  0  0  0  0  0  0  0  0  0  0
   38.9020   30.3140   40.1030 O   0  0  0  0  0  0  0  0  0  0  0  0
   38.4540   32.2580   38.9350 C   0  0  2  0  0  3  0  0  0  0  0  0
   38.6700   31.6250   40.3130 C   0  0  2  0  0  3  0  0  0  0  0  0
   39.9900   32.2390   40.8010 C   0  0  0  0  0  3  0  0  0  0  0  0
   39.9960   32.3920   41.8820 H   0  0  0  0  0  0  0  0  0  0  0  0
   40.2620   33.4580   40.2000 O   0  0  0  0  0  0  0  0  0  0  0  0
   40.7000   33.1790   38.8880 C   0  0  0  0  0  3  0  0  0  0  0  0
   41.7660   32.8220   38.9230 H   0  0  0  0  0  0  0  0  0  0  0  0
   39.8260   32.1440   38.2590 C   0  0  2  0  0  3  0  0  0  0  0  0
   38.1940   33.6060   39.1020 O   0  0  0  0  0  0  0  0  0  0  0  0
   37.8050   33.9580   38.2610 H   0  0  0  0  0  0  0  0  0  0  0  0
   39.6640   32.3130   36.8830 O   0  0  0  0  0  0  0  0  0  0  0  0
   40.2070   31.6570   36.3650 H   0  0  0  0  0  0  0  0  0  0  0  0
  1  7  1  6  0  0  0
  1  6  1  0  0  0  0
  1 22  1  0  0  0  0
  2  8  1  6  0  0  0
  2  1  1  0  0  0  0
  2  3  1  0  0  0  0
  4  3  1  0  0  0  0
  4  9  1  0  0  0  0
  4  5  1  0  0  0  0
  5 11  1  6  0  0  0
  5 24  1  0  0  0  0
  6  5  1  0  0  0  0
  6 12  1  1  0  0  0
 10  4  1  0  0  0  0
 13 14  1  0  0  0  0
 13 19  1  0  0  0  0
 14 20  1  0  0  0  0
 15  2  1  0  0  0  0
 15 14  2  0  0  0  0
 16 15  1  0  0  0  0
 17 16  2  0  0  0  0
 17 18  1  0  0  0  0
 18 13  2  0  0  0  0
 21 17  1  0  0  0  0
 23 22  1  0  0  0  0
 24 25  1  0  0  0  0
 26  6  1  0  0  0  0
 27 35  1  1  0  0  0
 27 28  1  0  0  0  0
 28 26  1  6  0  0  0
 28 29  1  0  0  0  0
 29 30  1  0  0  0  0
 31 29  1  0  0  0  0
 32 33  1  0  0  0  0
 32 31  1  0  0  0  0
 34 37  1  6  0  0  0
 34 32  1  0  0  0  0
 34 27  1  0  0  0  0
 36 35  1  0  0  0  0
 38 37  1  0  0  0  0
M  END
>  <minimizedAffinity>
-5.92720604

$$$$

 OpenBabel03242521293D

 38 40  0  0  1  0  0  0  0  0999 V2000
   37.6710   29.3090   39.3280 C   0  0  1  0  0  0  0  0  0  0  0  0
   36.3540   29.9850   39.0320 C   0  0  2  0  0  0  0  0  0  0  0  0
   35.5930   30.1640   40.1690 O   0  0  0  0  0  0  0  0  0  0  0  0
   36.2320   31.1220   40.9320 C   0  0  0  0  0  0  0  0  0  0  0  0
   37.4750   30.5030   41.5320 C   0  0  2  0  0  0  0  0  0  0  0  0
   38.3540   29.8040   40.5540 C   0  0  2  0  0  0  0  0  0  0  0  0
   38.3130   29.5410   38.4270 H   0  0  0  0  0  0  0  0  0  0  0  0
   36.6000   30.9960   38.6080 H   0  0  0  0  0  0  0  0  0  0  0  0
   35.6320   31.5250   41.7510 H   0  0  0  0  0  0  0  0  0  0  0  0
   36.6000   31.9120   40.2190 H   0  0  0  0  0  0  0  0  0  0  0  0
   37.9630   31.3240   42.0810 H   0  0  0  0  0  0  0  0  0  0  0  0
   38.7620   28.8940   41.0740 H   0  0  0  0  0  0  0  0  0  0  0  0
   33.5700   28.0870   37.3220 C   0  0  0  0  0  0  0  0  0  0  0  0
   34.2520   28.8090   38.3110 C   0  0  0  0  0  0  0  0  0  0  0  0
   35.5830   29.2310   38.0280 C   0  0  0  0  0  0  0  0  0  0  0  0
   36.1320   28.9240   36.8300 N   0  0  0  0  0  0  0  0  0  0  0  0
   35.4200   28.2150   35.8960 C   0  0  0  0  0  0  0  0  0  0  0  0
   34.1520   27.8040   36.1450 N   0  0  0  0  0  0  0  0  0  0  0  0
   32.5660   27.7390   37.4680 H   0  0  0  0  0  0  0  0  0  0  0  0
   33.7870   29.0350   39.2520 H   0  0  0  0  0  0  0  0  0  0  0  0
   35.9900   28.0470   34.9910 H   0  0  0  0  0  0  0  0  0  0  0  0
   37.5480   27.9150   39.2950 O   0  0  0  0  0  0  0  0  0  0  0  0
   37.7300   27.5260   38.4080 H   0  0  0  0  0  0  0  0  0  0  0  0
   37.0120   29.6220   42.5290 O   0  0  0  0  0  0  0  0  0  0  0  0
   37.2700   28.6860   42.3350 H   0  0  0  0  0  0  0  0  0  0  0  0
   39.5040   30.5400   40.2100 O   0  0  0  0  0  0  0  0  0  0  0  0
   39.1180   32.5220   39.0840 C   0  0  2  0  0  3  0  0  0  0  0  0
   39.4620   31.8700   40.4260 C   0  0  2  0  0  3  0  0  0  0  0  0
   40.9040   32.3230   40.7000 C   0  0  0  0  0  3  0  0  0  0  0  0
   41.0900   32.4760   41.7650 H   0  0  0  0  0  0  0  0  0  0  0  0
   41.2240   33.5000   40.0420 O   0  0  0  0  0  0  0  0  0  0  0  0
   41.4230   33.1690   38.6850 C   0  0  0  0  0  3  0  0  0  0  0  0
   42.4330   32.6870   38.5670 H   0  0  0  0  0  0  0  0  0  0  0  0
   40.3490   32.2450   38.2130 C   0  0  2  0  0  3  0  0  0  0  0  0
   39.0450   33.8910   39.2620 O   0  0  0  0  0  0  0  0  0  0  0  0
   38.5790   34.2860   38.4810 H   0  0  0  0  0  0  0  0  0  0  0  0
   40.0030   32.4290   36.8740 O   0  0  0  0  0  0  0  0  0  0  0  0
   40.3800   31.7120   36.2930 H   0  0  0  0  0  0  0  0  0  0  0  0
  1  7  1  6  0  0  0
  1  6  1  0  0  0  0
  2  8  1  6  0  0  0
  2  1  1  0  0  0  0
  2  3  1  0  0  0  0
  3  4  1  0  0  0  0
  4  5  1  0  0  0  0
  4  9  1  0  0  0  0
  5 11  1  1  0  0  0
  5 24  1  0  0  0  0
  6 12  1  1  0  0  0
  6  5  1  0  0  0  0
 10  4  1  0  0  0  0
 13 19  1  0  0  0  0
 13 14  1  0  0  0  0
 14 20  1  0  0  0  0
 15 14  2  0  0  0  0
 15  2  1  0  0  0  0
 16 15  1  0  0  0  0
 17 18  1  0  0  0  0
 17 16  2  0  0  0  0
 18 13  2  0  0  0  0
 21 17  1  0  0  0  0
 22  1  1  0  0  0  0
 23 22  1  0  0  0  0
 25 24  1  0  0  0  0
 26  6  1  0  0  0  0
 27 35  1  1  0  0  0
 27 28  1  0  0  0  0
 28 26  1  6  0  0  0
 28 29  1  0  0  0  0
 29 30  1  0  0  0  0
 31 29  1  0  0  0  0
 32 31  1  0  0  0  0
 33 32  1  0  0  0  0
 34 37  1  6  0  0  0
 34 32  1  0  0  0  0
 34 27  1  0  0  0  0
 36 35  1  0  0  0  0
 38 37  1  0  0  0  0
M  END
>  <minimizedAffinity>
-5.62082529

$$$$

 OpenBabel03242521293D

 38 40  0  0  1  0  0  0  0  0999 V2000
   37.4620   27.8840   40.7690 C   0  0  1  0  0  0  0  0  0  0  0  0
   38.0220   29.2130   41.2170 C   0  0  2  0  0  0  0  0  0  0  0  0
   37.4750   29.6340   42.4110 O   0  0  0  0  0  0  0  0  0  0  0  0
   37.9530   28.7860   43.3920 C   0  0  0  0  0  0  0  0  0  0  0  0
   37.2700   27.4450   43.2380 C   0  0  2  0  0  0  0  0  0  0  0  0
   37.3120   26.8820   41.8590 C   0  0  2  0  0  0  0  0  0  0  0  0
   38.2140   27.5030   40.0170 H   0  0  0  0  0  0  0  0  0  0  0  0
   39.1250   29.0620   41.3660 H   0  0  0  0  0  0  0  0  0  0  0  0
   37.7820   29.1310   44.4130 H   0  0  0  0  0  0  0  0  0  0  0  0
   39.0390   28.6020   43.1590 H   0  0  0  0  0  0  0  0  0  0  0  0
   37.7290   26.8040   44.0080 H   0  0  0  0  0  0  0  0  0  0  0  0
   36.3240   26.3740   41.6850 H   0  0  0  0  0  0  0  0  0  0  0  0
   37.0930   32.4520   39.5070 C   0  0  0  0  0  0  0  0  0  0  0  0
   37.2650   31.5100   40.5300 C   0  0  0  0  0  0  0  0  0  0  0  0
   37.8250   30.2470   40.1860 C   0  0  0  0  0  0  0  0  0  0  0  0
   38.1670   30.0060   38.8980 N   0  0  0  0  0  0  0  0  0  0  0  0
   37.9780   30.9640   37.9340 C   0  0  0  0  0  0  0  0  0  0  0  0
   37.4470   32.1720   38.2410 N   0  0  0  0  0  0  0  0  0  0  0  0
   36.6770   33.4230   39.6960 H   0  0  0  0  0  0  0  0  0  0  0  0
   36.9820   31.7340   41.5420 H   0  0  0  0  0  0  0  0  0  0  0  0
   38.2980   30.6260   36.9560 H   0  0  0  0  0  0  0  0  0  0  0  0
   36.2950   28.0500   40.0140 O   0  0  0  0  0  0  0  0  0  0  0  0
   36.4610   28.1250   39.0460 H   0  0  0  0  0  0  0  0  0  0  0  0
   35.9460   27.6460   43.6710 O   0  0  0  0  0  0  0  0  0  0  0  0
   35.2950   27.4750   42.9440 H   0  0  0  0  0  0  0  0  0  0  0  0
   38.2550   25.8480   41.7060 O   0  0  0  0  0  0  0  0  0  0  0  0
   38.7910   23.6900   41.0720 C   0  0  2  0  0  3  0  0  0  0  0  0
   37.7960   24.5850   41.8170 C   0  0  2  0  0  3  0  0  0  0  0  0
   36.5160   24.4990   40.9740 C   0  0  0  0  0  3  0  0  0  0  0  0
   35.6150   24.5440   41.5900 H   0  0  0  0  0  0  0  0  0  0  0  0
   36.4550   23.3390   40.2190 O   0  0  0  0  0  0  0  0  0  0  0  0
   37.3400   23.5090   39.1340 C   0  0  0  0  0  3  0  0  0  0  0  0
   36.8600   24.1770   38.3670 H   0  0  0  0  0  0  0  0  0  0  0  0
   38.6280   24.1010   39.6040 C   0  0  2  0  0  3  0  0  0  0  0  0
   38.3690   22.3770   41.1760 O   0  0  0  0  0  0  0  0  0  0  0  0
   39.1240   21.7830   40.9290 H   0  0  0  0  0  0  0  0  0  0  0  0
   39.7410   23.6580   38.8880 O   0  0  0  0  0  0  0  0  0  0  0  0
   40.0680   24.3490   38.2490 H   0  0  0  0  0  0  0  0  0  0  0  0
  1  7  1  6  0  0  0
  1  2  1  0  0  0  0
  1  6  1  0  0  0  0
  2  8  1  1  0  0  0
  2  3  1  0  0  0  0
  3  4  1  0  0  0  0
  4  9  1  0  0  0  0
  5  4  1  0  0  0  0
  5 24  1  0  0  0  0
  5 11  1  1  0  0  0
  6 12  1  6  0  0  0
  6  5  1  0  0  0  0
 10  4  1  0  0  0  0
 13 19  1  0  0  0  0
 13 14  1  0  0  0  0
 14 20  1  0  0  0  0
 15 14  2  0  0  0  0
 15  2  1  0  0  0  0
 16 15  1  0  0  0  0
 17 18  1  0  0  0  0
 17 16  2  0  0  0  0
 18 13  2  0  0  0  0
 21 17  1  0  0  0  0
 22  1  1  0  0  0  0
 23 22  1  0  0  0  0
 25 24  1  0  0  0  0
 26  6  1  0  0  0  0
 27 35  1  6  0  0  0
 27 28  1  0  0  0  0
 28 26  1  6  0  0  0
 29 30  1  0  0  0  0
 29 28  1  0  0  0  0
 31 29  1  0  0  0  0
 32 34  1  0  0  0  0
 32 31  1  0  0  0  0
 33 32  1  0  0  0  0
 34 37  1  6  0  0  0
 34 27  1  0  0  0  0
 36 35  1  0  0  0  0
 38 37  1  0  0  0  0
M  END
>  <minimizedAffinity>
-5.56928062

$$$$

 OpenBabel03242521293D

 38 40  0  0  1  0  0  0  0  0999 V2000
   39.1590   31.7320   37.7480 C   0  0  1  0  0  0  0  0  0  0  0  0
   40.0510   32.1560   38.8900 C   0  0  2  0  0  0  0  0  0  0  0  0
   39.5090   33.1950   39.6170 O   0  0  0  0  0  0  0  0  0  0  0  0
   38.4170   32.6850   40.2920 C   0  0  0  0  0  0  0  0  0  0  0  0
   37.3070   32.4470   39.2930 C   0  0  2  0  0  0  0  0  0  0  0  0
   37.7120   31.6650   38.0910 C   0  0  2  0  0  0  0  0  0  0  0  0
   39.5240   30.6980   37.4770 H   0  0  0  0  0  0  0  0  0  0  0  0
   40.1510   31.2640   39.5670 H   0  0  0  0  0  0  0  0  0  0  0  0
   38.0250   33.3360   41.0760 H   0  0  0  0  0  0  0  0  0  0  0  0
   38.7140   31.6660   40.6660 H   0  0  0  0  0  0  0  0  0  0  0  0
   36.4910   31.9960   39.8790 H   0  0  0  0  0  0  0  0  0  0  0  0
   37.1610   32.1040   37.2150 H   0  0  0  0  0  0  0  0  0  0  0  0
   43.6960   31.9780   37.9110 C   0  0  0  0  0  0  0  0  0  0  0  0
   42.4390   31.5640   38.3720 C   0  0  0  0  0  0  0  0  0  0  0  0
   41.3920   32.5290   38.4070 C   0  0  0  0  0  0  0  0  0  0  0  0
   41.6470   33.7940   37.9990 N   0  0  0  0  0  0  0  0  0  0  0  0
   42.8960   34.1470   37.5550 C   0  0  0  0  0  0  0  0  0  0  0  0
   43.9060   33.2450   37.5140 N   0  0  0  0  0  0  0  0  0  0  0  0
   44.5290   31.3040   37.8580 H   0  0  0  0  0  0  0  0  0  0  0  0
   42.2710   30.5520   38.6890 H   0  0  0  0  0  0  0  0  0  0  0  0
   42.9460   35.1890   37.2640 H   0  0  0  0  0  0  0  0  0  0  0  0
   39.4130   32.4850   36.5960 O   0  0  0  0  0  0  0  0  0  0  0  0
   40.0900   32.0810   36.0050 H   0  0  0  0  0  0  0  0  0  0  0  0
   36.8390   33.7270   38.9390 O   0  0  0  0  0  0  0  0  0  0  0  0
   36.9630   33.9060   37.9730 H   0  0  0  0  0  0  0  0  0  0  0  0
   37.2800   30.3250   38.1240 O   0  0  0  0  0  0  0  0  0  0  0  0
   36.9780   29.4790   35.9940 C   0  0  2  0  0  3  0  0  0  0  0  0
   37.8570   29.4780   37.2480 C   0  0  2  0  0  3  0  0  0  0  0  0
   37.6880   28.0620   37.8190 C   0  0  0  0  0  3  0  0  0  0  0  0
   38.6040   27.6980   38.2890 H   0  0  0  0  0  0  0  0  0  0  0  0
   37.3130   27.1420   36.8530 O   0  0  0  0  0  0  0  0  0  0  0  0
   35.9450   27.3630   36.5860 C   0  0  0  0  0  3  0  0  0  0  0  0
   35.3320   26.9200   37.4180 H   0  0  0  0  0  0  0  0  0  0  0  0
   35.6710   28.8260   36.4600 C   0  0  2  0  0  3  0  0  0  0  0  0
   37.5430   28.6340   35.0560 O   0  0  0  0  0  0  0  0  0  0  0  0
   37.1360   28.8260   34.1730 H   0  0  0  0  0  0  0  0  0  0  0  0
   34.6660   29.1270   35.5410 O   0  0  0  0  0  0  0  0  0  0  0  0
   33.8120   29.3690   35.9940 H   0  0  0  0  0  0  0  0  0  0  0  0
  1  7  1  6  0  0  0
  1  6  1  0  0  0  0
  1  2  1  0  0  0  0
  2  8  1  1  0  0  0
  2  3  1  0  0  0  0
  3  4  1  0  0  0  0
  4 10  1  0  0  0  0
  4  9  1  0  0  0  0
  5 11  1  1  0  0  0
  5  4  1  0  0  0  0
  6 12  1  6  0  0  0
  6 26  1  0  0  0  0
  6  5  1  0  0  0  0
 13 14  1  0  0  0  0
 14 15  2  0  0  0  0
 14 20  1  0  0  0  0
 15  2  1  0  0  0  0
 16 15  1  0  0  0  0
 17 16  2  0  0  0  0
 18 17  1  0  0  0  0
 18 13  2  0  0  0  0
 19 13  1  0  0  0  0
 21 17  1  0  0  0  0
 22  1  1  0  0  0  0
 23 22  1  0  0  0  0
 24  5  1  0  0  0  0
 25 24  1  0  0  0  0
 27 35  1  6  0  0  0
 27 34  1  0  0  0  0
 27 28  1  0  0  0  0
 28 29  1  0  0  0  0
 28 26  1  1  0  0  0
 29 30  1  0  0  0  0
 31 29  1  0  0  0  0
 32 31  1  0  0  0  0
 32 33  1  0  0  0  0
 34 37  1  6  0  0  0
 34 32  1  0  0  0  0
 36 35  1  0  0  0  0
 37 38  1  0  0  0  0
M  END
>  <minimizedAffinity>
-5.55249596

$$$$

 OpenBabel03242521293D

 38 40  0  0  1  0  0  0  0  0999 V2000
   39.4100   28.9430   41.3880 C   0  0  1  0  0  0  0  0  0  0  0  0
   39.1950   27.4500   41.4440 C   0  0  2  0  0  0  0  0  0  0  0  0
   38.2820   27.0900   42.4140 O   0  0  0  0  0  0  0  0  0  0  0  0
   37.0460   27.5330   41.9850 C   0  0  0  0  0  0  0  0  0  0  0  0
   37.0060   29.0390   42.1190 C   0  0  2  0  0  0  0  0  0  0  0  0
   38.1640   29.7480   41.5060 C   0  0  2  0  0  0  0  0  0  0  0  0
   39.8710   29.1210   40.3720 H   0  0  0  0  0  0  0  0  0  0  0  0
   38.7850   27.1470   40.4430 H   0  0  0  0  0  0  0  0  0  0  0  0
   36.2000   27.1270   42.5420 H   0  0  0  0  0  0  0  0  0  0  0  0
   36.9940   27.3250   40.8800 H   0  0  0  0  0  0  0  0  0  0  0  0
   36.0230   29.3330   41.7150 H   0  0  0  0  0  0  0  0  0  0  0  0
   38.4110   30.6120   42.1820 H   0  0  0  0  0  0  0  0  0  0  0  0
   41.8340   25.1810   42.9160 C   0  0  0  0  0  0  0  0  0  0  0  0
   40.5990   25.8220   42.7480 C   0  0  0  0  0  0  0  0  0  0  0  0
   40.4660   26.7380   41.6660 C   0  0  0  0  0  0  0  0  0  0  0  0
   41.5240   26.9510   40.8490 N   0  0  0  0  0  0  0  0  0  0  0  0
   42.7110   26.2960   41.0570 C   0  0  0  0  0  0  0  0  0  0  0  0
   42.8580   25.4210   42.0810 N   0  0  0  0  0  0  0  0  0  0  0  0
   42.0030   24.4790   43.7100 H   0  0  0  0  0  0  0  0  0  0  0  0
   39.7800   25.6300   43.4160 H   0  0  0  0  0  0  0  0  0  0  0  0
   43.4610   26.5690   40.3250 H   0  0  0  0  0  0  0  0  0  0  0  0
   40.4100   29.3490   42.2800 O   0  0  0  0  0  0  0  0  0  0  0  0
   41.3090   29.3650   41.8790 H   0  0  0  0  0  0  0  0  0  0  0  0
   36.9230   29.2910   43.5020 O   0  0  0  0  0  0  0  0  0  0  0  0
   37.7050   29.8040   43.8260 H   0  0  0  0  0  0  0  0  0  0  0  0
   37.8580   30.3590   40.2750 O   0  0  0  0  0  0  0  0  0  0  0  0
   37.6130   32.1700   38.8590 C   0  0  2  0  0  3  0  0  0  0  0  0
   37.5530   31.6720   40.3060 C   0  0  2  0  0  3  0  0  0  0  0  0
   38.7260   32.3860   40.9940 C   0  0  0  0  0  3  0  0  0  0  0  0
   38.5020   32.6330   42.0340 H   0  0  0  0  0  0  0  0  0  0  0  0
   39.0850   33.5580   40.3480 O   0  0  0  0  0  0  0  0  0  0  0  0
   39.7940   33.1840   39.1870 C   0  0  0  0  0  3  0  0  0  0  0  0
   40.8380   32.8810   39.4740 H   0  0  0  0  0  0  0  0  0  0  0  0
   39.0980   32.0600   38.4930 C   0  0  2  0  0  3  0  0  0  0  0  0
   37.2880   33.5140   38.8400 O   0  0  0  0  0  0  0  0  0  0  0  0
   37.0740   33.7730   37.9070 H   0  0  0  0  0  0  0  0  0  0  0  0
   39.2220   32.0990   37.1040 O   0  0  0  0  0  0  0  0  0  0  0  0
   39.8780   31.4250   36.7730 H   0  0  0  0  0  0  0  0  0  0  0  0
  1  7  1  6  0  0  0
  1  2  1  0  0  0  0
  1  6  1  0  0  0  0
  1 22  1  0  0  0  0
  2  8  1  6  0  0  0
  2 15  1  0  0  0  0
  2  3  1  0  0  0  0
  4  5  1  0  0  0  0
  4  3  1  0  0  0  0
  4  9  1  0  0  0  0
  5 11  1  6  0  0  0
  5 24  1  0  0  0  0
  6  5  1  0  0  0  0
  6 12  1  1  0  0  0
 10  4  1  0  0  0  0
 13 19  1  0  0  0  0
 14 13  1  0  0  0  0
 14 20  1  0  0  0  0
 15 14  2  0  0  0  0
 16 17  2  0  0  0  0
 16 15  1  0  0  0  0
 17 18  1  0  0  0  0
 18 13  2  0  0  0  0
 21 17  1  0  0  0  0
 23 22  1  0  0  0  0
 24 25  1  0  0  0  0
 26  6  1  0  0  0  0
 27 35  1  1  0  0  0
 27 28  1  0  0  0  0
 28 26  1  6  0  0  0
 28 29  1  0  0  0  0
 29 30  1  0  0  0  0
 31 29  1  0  0  0  0
 32 33  1  0  0  0  0
 32 31  1  0  0  0  0
 34 37  1  6  0  0  0
 34 27  1  0  0  0  0
 34 32  1  0  0  0  0
 36 35  1  0  0  0  0
 38 37  1  0  0  0  0
M  END
>  <minimizedAffinity>
-5.54676867

$$$$

 OpenBabel03242521293D

 38 40  0  0  1  0  0  0  0  0999 V2000
   38.1370   28.2570   40.6230 C   0  0  1  0  0  0  0  0  0  0  0  0
   37.3090   27.3290   41.4790 C   0  0  2  0  0  0  0  0  0  0  0  0
   37.9680   26.9550   42.6310 O   0  0  0  0  0  0  0  0  0  0  0  0
   38.0440   28.0780   43.4320 C   0  0  0  0  0  0  0  0  0  0  0  0
   39.0610   29.0230   42.8330 C   0  0  2  0  0  0  0  0  0  0  0  0
   38.8640   29.3090   41.3840 C   0  0  2  0  0  0  0  0  0  0  0  0
   37.3860   28.7490   39.9360 H   0  0  0  0  0  0  0  0  0  0  0  0
   36.3840   27.8990   41.7680 H   0  0  0  0  0  0  0  0  0  0  0  0
   38.3410   27.8800   44.4640 H   0  0  0  0  0  0  0  0  0  0  0  0
   37.0520   28.6040   43.3470 H   0  0  0  0  0  0  0  0  0  0  0  0
   39.0360   29.9130   43.4820 H   0  0  0  0  0  0  0  0  0  0  0  0
   39.8870   29.3790   40.9240 H   0  0  0  0  0  0  0  0  0  0  0  0
   36.6110   23.7340   40.5460 C   0  0  0  0  0  0  0  0  0  0  0  0
   37.0030   24.8390   41.3140 C   0  0  0  0  0  0  0  0  0  0  0  0
   36.9020   26.1310   40.7240 C   0  0  0  0  0  0  0  0  0  0  0  0
   36.4360   26.2420   39.4580 N   0  0  0  0  0  0  0  0  0  0  0  0
   36.0650   25.1280   38.7480 C   0  0  0  0  0  0  0  0  0  0  0  0
   36.1530   23.8900   39.2930 N   0  0  0  0  0  0  0  0  0  0  0  0
   36.6610   22.7330   40.9290 H   0  0  0  0  0  0  0  0  0  0  0  0
   37.3700   24.7150   42.3170 H   0  0  0  0  0  0  0  0  0  0  0  0
   35.7140   25.3760   37.7550 H   0  0  0  0  0  0  0  0  0  0  0  0
   38.9650   27.5430   39.7490 O   0  0  0  0  0  0  0  0  0  0  0  0
   38.5500   27.3650   38.8740 H   0  0  0  0  0  0  0  0  0  0  0  0
   40.3140   28.4290   43.0740 O   0  0  0  0  0  0  0  0  0  0  0  0
   40.7850   28.2170   42.2290 H   0  0  0  0  0  0  0  0  0  0  0  0
   38.2950   30.5740   41.1350 O   0  0  0  0  0  0  0  0  0  0  0  0
   39.3500   32.1370   39.7980 C   0  0  2  0  0  3  0  0  0  0  0  0
   38.3160   31.0090   39.8590 C   0  0  2  0  0  3  0  0  0  0  0  0
   36.9770   31.7190   39.6090 C   0  0  0  0  0  3  0  0  0  0  0  0
   36.2790   31.0920   39.0500 H   0  0  0  0  0  0  0  0  0  0  0  0
   37.1290   32.9070   38.9120 O   0  0  0  0  0  0  0  0  0  0  0  0
   37.6360   33.8550   39.8260 C   0  0  0  0  0  3  0  0  0  0  0  0
   36.8000   34.2110   40.4890 H   0  0  0  0  0  0  0  0  0  0  0  0
   38.7290   33.2530   40.6460 C   0  0  2  0  0  3  0  0  0  0  0  0
   39.4190   32.6040   38.4980 O   0  0  0  0  0  0  0  0  0  0  0  0
   40.2490   33.1380   38.3990 H   0  0  0  0  0  0  0  0  0  0  0  0
   39.7290   34.1610   40.9960 O   0  0  0  0  0  0  0  0  0  0  0  0
   39.6550   34.4430   41.9490 H   0  0  0  0  0  0  0  0  0  0  0  0
  1  7  1  6  0  0  0
  1  6  1  0  0  0  0
  1  2  1  0  0  0  0
  2  8  1  1  0  0  0
  2  3  1  0  0  0  0
  3  4  1  0  0  0  0
  4  9  1  0  0  0  0
  5 24  1  0  0  0  0
  5  4  1  0  0  0  0
  5 11  1  1  0  0  0
  6 12  1  6  0  0  0
  6  5  1  0  0  0  0
 10  4  1  0  0  0  0
 13 19  1  0  0  0  0
 13 14  1  0  0  0  0
 14 20  1  0  0  0  0
 15 14  2  0  0  0  0
 15  2  1  0  0  0  0
 16 15  1  0  0  0  0
 17 18  1  0  0  0  0
 17 16  2  0  0  0  0
 18 13  2  0  0  0  0
 21 17  1  0  0  0  0
 22  1  1  0  0  0  0
 23 22  1  0  0  0  0
 25 24  1  0  0  0  0
 26  6  1  0  0  0  0
 27 35  1  6  0  0  0
 27 28  1  0  0  0  0
 27 34  1  0  0  0  0
 28 26  1  1  0  0  0
 29 28  1  0  0  0  0
 30 29  1  0  0  0  0
 31 29  1  0  0  0  0
 31 32  1  0  0  0  0
 32 33  1  0  0  0  0
 32 34  1  0  0  0  0
 34 37  1  6  0  0  0
 36 35  1  0  0  0  0
 37 38  1  0  0  0  0
M  END
>  <minimizedAffinity>
-5.48941326

$$$$
