
 OpenBabel03242523493D

 46 49  0  0  1  0  0  0  0  0999 V2000
   42.8330   34.5480   38.7170 C   0  0  1  0  0  0  0  0  0  0  0  0
   42.9370   35.1760   40.1080 C   0  0  1  0  0  0  0  0  0  0  0  0
   41.6430   35.3620   40.6270 O   0  0  0  0  0  0  0  0  0  0  0  0
   40.7040   35.6790   39.6450 C   0  0  0  0  0  0  0  0  0  0  0  0
   40.4330   34.4820   38.7410 C   0  0  2  0  0  0  0  0  0  0  0  0
   41.6630   33.5770   38.8150 C   0  0  1  0  0  0  0  0  0  0  0  0
   43.7860   34.0260   38.5490 H   0  0  0  0  0  0  0  0  0  0  0  0
   43.5010   36.1090   40.0730 H   0  0  0  0  0  0  0  0  0  0  0  0
   39.7830   35.9360   40.2070 H   0  0  0  0  0  0  0  0  0  0  0  0
   40.9570   36.5960   39.0750 H   0  0  0  0  0  0  0  0  0  0  0  0
   39.5020   33.9520   39.0070 H   0  0  0  0  0  0  0  0  0  0  0  0
   41.6630   33.1200   39.8390 H   0  0  0  0  0  0  0  0  0  0  0  0
   42.5640   35.5220   37.7600 O   0  0  0  0  0  0  0  0  0  0  0  0
   42.9610   35.1830   36.9060 H   0  0  0  0  0  0  0  0  0  0  0  0
   40.4230   34.9610   37.4150 O   0  0  0  0  0  0  0  0  0  0  0  0
   39.4890   35.2770   37.2430 H   0  0  0  0  0  0  0  0  0  0  0  0
   43.5040   34.1950   40.9310 O   0  0  0  0  0  0  0  0  0  0  0  0
   44.6020   34.3450   41.6740 C   0  0  0  0  0  0  0  0  0  0  0  0
   45.8610   34.4470   41.0850 C   0  0  0  0  0  0  0  0  0  0  0  0
   46.9670   34.6040   41.9130 C   0  0  0  0  0  0  0  0  0  0  0  0
   46.7920   34.6530   43.2870 N   0  0  0  0  0  0  0  0  0  0  0  0
   45.5670   34.5510   43.8080 C   0  0  0  0  0  0  0  0  0  0  0  0
   44.4760   34.3980   43.0190 N   0  0  0  0  0  0  0  0  0  0  0  0
   46.0140   34.4110   40.0260 H   0  0  0  0  0  0  0  0  0  0  0  0
   45.5000   34.5970   44.8820 H   0  0  0  0  0  0  0  0  0  0  0  0
   48.3510   34.7100   41.3150 C   0  0  0  0  0  0  0  0  0  0  0  0
   49.0790   36.0210   41.5040 C   0  0  0  0  0  0  0  0  0  0  0  0
   49.4990   34.7080   42.1870 C   0  0  0  0  0  0  0  0  0  0  0  0
   48.3700   34.3620   40.2820 H   0  0  0  0  0  0  0  0  0  0  0  0
   49.7000   36.4150   40.6970 H   0  0  0  0  0  0  0  0  0  0  0  0
   48.6030   36.7880   42.1450 H   0  0  0  0  0  0  0  0  0  0  0  0
   50.4600   34.3020   41.7660 H   0  0  0  0  0  0  0  0  0  0  0  0
   49.4220   34.6780   43.2880 H   0  0  0  0  0  0  0  0  0  0  0  0
   41.6420   32.6410   37.8020 O   0  0  0  0  0  0  0  0  0  0  0  0
   43.0970   31.0620   38.8900 C   0  0  2  0  0  3  0  0  0  0  0  0
   41.7480   31.3260   38.2290 C   0  0  2  0  0  3  0  0  0  0  0  0
   41.7090   30.4510   36.9940 C   0  0  0  0  0  3  0  0  0  0  0  0
   40.8000   30.6620   36.3630 H   0  0  0  0  0  0  0  0  0  0  0  0
   42.7990   30.8510   36.1940 O   0  0  0  0  0  0  0  0  0  0  0  0
   43.9160   30.1790   36.6950 C   0  0  0  0  0  3  0  0  0  0  0  0
   43.9720   29.2100   36.1570 H   0  0  0  0  0  0  0  0  0  0  0  0
   43.8430   29.9490   38.1870 C   0  0  1  0  0  3  0  0  0  0  0  0
   42.8650   30.6400   40.2010 O   0  0  0  0  0  0  0  0  0  0  0  0
   42.5890   29.6900   40.2200 H   0  0  0  0  0  0  0  0  0  0  0  0
   45.1350   29.9320   38.7230 O   0  0  0  0  0  0  0  0  0  0  0  0
   45.3260   29.1010   39.2340 H   0  0  0  0  0  0  0  0  0  0  0  0
  1  7  1  6  0  0  0
  1  6  1  0  0  0  0
  1  2  1  0  0  0  0
  2  8  1  6  0  0  0
  2  3  1  0  0  0  0
  2 17  1  0  0  0  0
  4  9  1  0  0  0  0
  4  3  1  0  0  0  0
  5  6  1  0  0  0  0
  5 11  1  1  0  0  0
  5  4  1  0  0  0  0
  6 12  1  1  0  0  0
 10  4  1  0  0  0  0
 13  1  1  0  0  0  0
 14 13  1  0  0  0  0
 15  5  1  0  0  0  0
 16 15  1  0  0  0  0
 17 18  1  0  0  0  0
 18 23  1  0  0  0  0
 19 18  2  0  0  0  0
 19 20  1  0  0  0  0
 20 21  2  0  0  0  0
 21 22  1  0  0  0  0
 22 25  1  0  0  0  0
 23 22  2  0  0  0  0
 24 19  1  0  0  0  0
 26 27  1  0  0  0  0
 26 20  1  0  0  0  0
 26 28  1  0  0  0  0
 27 31  1  0  0  0  0
 27 28  1  0  0  0  0
 28 33  1  0  0  0  0
 29 26  1  0  0  0  0
 30 27  1  0  0  0  0
 32 28  1  0  0  0  0
 34  6  1  0  0  0  0
 35 43  1  1  0  0  0
 36 34  1  6  0  0  0
 36 35  1  0  0  0  0
 37 36  1  0  0  0  0
 38 37  1  0  0  0  0
 39 40  1  0  0  0  0
 39 37  1  0  0  0  0
 40 42  1  0  0  0  0
 41 40  1  0  0  0  0
 42 45  1  1  0  0  0
 42 35  1  0  0  0  0
 43 44  1  0  0  0  0
 45 46  1  0  0  0  0
M  END
>  <minimizedAffinity>
-5.93857574

>  <minimizedRMSD>
0.123385713

$$$$
