REMARK  Name = 
REMARK  9 active torsions:
REMARK  status: ('A' for Active; 'I' for Inactive)
REMARK    1  A    between atoms: C_1  and  O_10
REMARK    2  A    between atoms: C_3  and  C_7
REMARK    3  A    between atoms: O_10  and  C_12
REMARK    4  A    between atoms: C_11  and  O_17
REMARK    5  A    between atoms: C_15  and  O_18
REMARK    6  A    between atoms: C_16  and  O_19
REMARK    7  A    between atoms: O_19  and  C_37
REMARK    8  A    between atoms: O_35  and  C_36
REMARK    9  A    between atoms: C_43  and  O_44
REMARK                            x       y       z     vdW  Elec       q    Type
REMARK                         _______ _______ _______ _____ _____    ______ ____
ROOT
ATOM      1  C   UNL     1      42.879  34.576  38.639  0.00  0.00    +0.000 C 
ATOM      2  C   UNL     1      42.967  35.162  40.049  0.00  0.00    +0.000 C 
ATOM      3  O   UNL     1      41.668  35.304  40.570  0.00  0.00    +0.000 OA
ATOM      4  C   UNL     1      40.725  35.632  39.595  0.00  0.00    +0.000 C 
ATOM      5  C   UNL     1      40.481  34.459  38.653  0.00  0.00    +0.000 C 
ATOM      6  C   UNL     1      41.730  33.578  38.703  0.00  0.00    +0.000 C 
ATOM      7  H   UNL     1      43.844  34.080  38.457  0.00  0.00    +0.000 HD
ATOM      8  H   UNL     1      43.511  36.108  40.045  0.00  0.00    +0.000 HD
ATOM      9  H   UNL     1      39.797  35.851  40.162  0.00  0.00    +0.000 HD
ATOM     10  H   UNL     1      40.959  36.572  39.055  0.00  0.00    +0.000 HD
ATOM     11  H   UNL     1      39.561  33.901  38.900  0.00  0.00    +0.000 HD
ATOM     12  H   UNL     1      41.738  33.089  39.712  0.00  0.00    +0.000 HD
ENDROOT
BRANCH   1  13
ATOM     13  O   UNL     1      42.592  35.574  37.712  0.00  0.00    +0.000 OA
ATOM     14  H   UNL     1      42.998  35.271  36.849  0.00  0.00    +0.000 HD
ENDBRANCH   1  13
BRANCH   5  15
ATOM     15  O   UNL     1      40.464  34.979  37.343  0.00  0.00    +0.000 OA
ATOM     16  H   UNL     1      39.524  35.280  37.178  0.00  0.00    +0.000 HD
ENDBRANCH   5  15
BRANCH   2  17
ATOM     17  O   UNL     1      43.553  34.168  40.843  0.00  0.00    +0.000 OA
BRANCH  17  18
ATOM     18  C   UNL     1      44.630  34.325  41.614  0.00  0.00    +0.000 A 
ATOM     19  C   UNL     1      45.902  34.443  41.058  0.00  0.00    +0.000 A 
ATOM     20  C   UNL     1      46.985  34.607  41.915  0.00  0.00    +0.000 A 
ATOM     21  N   UNL     1      46.774  34.648  43.285  0.00  0.00    +0.000 NA
ATOM     22  C   UNL     1      45.537  34.531  43.773  0.00  0.00    +0.000 A 
ATOM     23  N   UNL     1      44.468  34.371  42.956  0.00  0.00    +0.000 NA
ATOM     24  H   UNL     1      46.083  34.413  40.004  0.00  0.00    +0.000 HD
ATOM     25  H   UNL     1      45.442  34.571  44.845  0.00  0.00    +0.000 HD
BRANCH  20  26
ATOM     26  C   UNL     1      48.383  34.729  41.354  0.00  0.00    +0.000 C 
ATOM     27  C   UNL     1      49.077  36.059  41.532  0.00  0.00    +0.000 C 
ATOM     28  C   UNL     1      49.505  34.771  42.257  0.00  0.00    +0.000 C 
ATOM     29  H   UNL     1      48.438  34.358  40.330  0.00  0.00    +0.000 HD
ATOM     30  H   UNL     1      49.713  36.448  40.734  0.00  0.00    +0.000 HD
ATOM     31  H   UNL     1      48.568  36.830  42.142  0.00  0.00    +0.000 HD
ATOM     32  H   UNL     1      50.486  34.377  41.872  0.00  0.00    +0.000 HD
ATOM     33  H   UNL     1      49.398  34.765  43.356  0.00  0.00    +0.000 HD
ENDBRANCH  20  26
ENDBRANCH  17  18
ENDBRANCH   2  17
BRANCH   6  34
ATOM     34  O   UNL     1      41.732  32.674  37.661  0.00  0.00    +0.000 OA
BRANCH  34  36
ATOM     35  C   UNL     1      41.514  31.203  39.553  0.00  0.00    +0.000 C 
ATOM     36  C   UNL     1      41.743  31.344  38.051  0.00  0.00    +0.000 C 
ATOM     37  C   UNL     1      43.138  30.814  37.789  0.00  0.00    +0.000 C 
ATOM     38  H   UNL     1      43.455  30.986  36.722  0.00  0.00    +0.000 HD
ATOM     39  O   UNL     1      44.012  31.612  38.555  0.00  0.00    +0.000 OA
ATOM     40  C   UNL     1      43.999  31.076  39.844  0.00  0.00    +0.000 C 
ATOM     41  H   UNL     1      44.794  30.304  39.877  0.00  0.00    +0.000 HD
ATOM     42  C   UNL     1      42.663  30.473  40.216  0.00  0.00    +0.000 C 
BRANCH  35  43
ATOM     43  O   UNL     1      40.367  30.430  39.747  0.00  0.00    +0.000 OA
ATOM     44  H   UNL     1      40.565  29.470  39.615  0.00  0.00    +0.000 HD
ENDBRANCH  35  43
BRANCH  42  45
ATOM     45  O   UNL     1      42.465  30.587  41.596  0.00  0.00    +0.000 OA
ATOM     46  H   UNL     1      42.276  29.710  42.028  0.00  0.00    +0.000 HD
ENDBRANCH  42  45
ENDBRANCH  34  36
ENDBRANCH   6  34
TORSDOF 9
