
     RDKit          3D

 27 28  0  0  0  0  0  0  0  0999 V2000
   44.6636   36.0714   44.2603 C   0  0  0  0  0  0  0  0  0  0  0  0
   45.4969   35.5591   43.2321 C   0  0  0  0  0  0  0  0  0  0  0  0
   46.2028   34.3592   43.4919 C   0  0  0  0  0  0  0  0  0  0  0  0
   46.0240   33.7917   44.7126 N   0  0  0  0  0  0  0  0  0  0  0  0
   45.2239   34.3107   45.6595 C   0  0  0  0  0  0  0  0  0  0  0  0
   44.5571   35.4378   45.4235 N   0  0  0  0  0  0  0  0  0  0  0  0
   45.0476   33.7191   46.9102 O   0  0  0  0  0  0  0  0  0  0  0  0
   44.1703   36.9717   43.9874 H   0  0  0  0  0  0  0  0  0  0  0  0
   45.6353   36.0203   42.2551 H   0  0  0  0  0  0  0  0  0  0  0  0
   46.8487   33.9320   42.7397 H   0  0  0  0  0  0  0  0  0  0  0  0
   46.0830   32.6786   49.4976 O   0  0  0  0  0  0  0  0  0  0  0  0
   45.4427   31.9646   48.4870 C   0  0  1  0  0  0  0  0  0  0  0  0
   45.7748   32.5108   47.1369 C   0  0  1  0  0  0  0  0  0  0  0  0
   45.4309   31.4734   46.0813 C   0  0  2  0  0  0  0  0  0  0  0  0
   46.3453   30.9633   45.6748 H   0  0  0  0  0  0  0  0  0  0  0  0
   44.4859   30.5736   46.5315 O   0  0  0  0  0  0  0  0  0  0  0  0
   44.9527   29.7618   47.5548 C   0  0  1  0  0  0  0  0  0  0  0  0
   44.0656   29.4168   48.1312 H   0  0  0  0  0  0  0  0  0  0  0  0
   45.8463   30.5046   48.5175 C   0  0  2  0  0  0  0  0  0  0  0  0
   45.6321   30.0646   49.8417 O   0  0  0  0  0  0  0  0  0  0  0  0
   45.8423   32.2866   50.3758 H   0  0  0  0  0  0  0  0  0  0  0  0
   44.3389   31.9744   48.6593 H   0  0  0  0  0  0  0  0  0  0  0  0
   46.8612   32.6781   47.0466 H   0  0  0  0  0  0  0  0  0  0  0  0
   44.9776   32.0270   45.2295 H   0  0  0  0  0  0  0  0  0  0  0  0
   45.4685   28.8645   47.2025 H   0  0  0  0  0  0  0  0  0  0  0  0
   46.9088   30.4622   48.2592 H   0  0  0  0  0  0  0  0  0  0  0  0
   46.5178   29.8409   50.2277 H   0  0  0  0  0  0  0  0  0  0  0  0
  1  6  2  0
  2  3  2  0
  2  1  1  0
  3  4  1  0
  4  5  2  0
  5  7  1  0
  6  5  1  0
  1  8  1  0
  2  9  1  0
  3 10  1  0
 11 12  1  0
 12 13  1  0
 13 14  1  0
 14 15  1  6
 14 16  1  0
 16 17  1  0
 17 18  1  1
 17 19  1  0
 19 20  1  0
 19 12  1  0
 11 21  1  0
 12 22  1  1
 13 23  1  1
 14 24  1  0
 17 25  1  0
 19 26  1  6
 20 27  1  0
  7 13  1  0
M  ISO  5   8  14   9  14  10  14  15   8  18   8
M  END
>  <DihAtoms>  (1) 
4,6,12,11

>  <DihDeg>  (1) 
122.44779480635822

$$$$
