
 OpenBabel03252504263D

 25 26  0  0  1  0  0  0  0  0999 V2000
   41.7140   34.4180   41.6010 O   0  0  0  0  0  0  0  0  0  0  0  0
   39.6470   33.2970   41.4310 C   0  0  2  0  0  3  0  0  0  0  0  0
   41.0140   33.5000   40.8660 C   0  0  2  0  0  3  0  0  0  0  0  0
   41.6670   32.1470   40.7490 C   0  0  0  0  0  3  0  0  0  0  0  0
   42.7070   32.1870   40.4230 H   0  0  0  0  0  0  0  0  0  0  0  0
   40.9280   31.4880   39.7650 O   0  0  0  0  0  0  0  0  0  0  0  0
   39.7690   31.0350   40.3210 C   0  0  0  0  0  3  0  0  0  0  0  0
   39.9570   29.9940   40.6900 H   0  0  0  0  0  0  0  0  0  0  0  0
   39.1340   31.8970   41.3440 C   0  0  2  0  0  3  0  0  0  0  0  0
   38.7800   34.1820   40.7890 O   0  0  0  0  0  0  0  0  0  0  0  0
   38.1040   34.5500   41.3900 H   0  0  0  0  0  0  0  0  0  0  0  0
   37.7420   31.9220   41.2250 O   0  0  0  0  0  0  0  0  0  0  0  0
   37.4140   31.6370   40.3500 H   0  0  0  0  0  0  0  0  0  0  0  0
   42.6080   35.1700   40.8540 C   0  0  0  0  0  0  0  0  0  0  0  0
   42.3210   36.2300   40.7770 H   0  0  0  0  0  0  0  0  0  0  0  0
   42.5570   34.7220   39.8170 H   0  0  0  0  0  0  0  0  0  0  0  0
   44.3090   35.7810   42.4310 C   0  0  0  0  0  0  0  0  0  0  0  0
   43.9950   35.0480   41.3040 C   0  0  0  0  0  0  0  0  0  0  0  0
   45.0090   34.2890   40.7310 C   0  0  0  0  0  0  0  0  0  0  0  0
   46.2110   34.3290   41.3180 N   0  0  0  0  0  0  0  0  0  0  0  0
   46.5100   35.0410   42.4110 C   0  0  0  0  0  0  0  0  0  0  0  0
   45.5480   35.8130   43.0230 N   0  0  0  0  0  0  0  0  0  0  0  0
   43.5900   36.4060   42.9550 H   0  0  0  0  0  0  0  0  0  0  0  0
   44.7310   33.7360   39.8630 H   0  0  0  0  0  0  0  0  0  0  0  0
   47.5280   34.9750   42.7710 H   0  0  0  0  0  0  0  0  0  0  0  0
  2 10  1  6  0  0  0
  3  2  1  0  0  0  0
  3  1  1  1  0  0  0
  4  3  1  0  0  0  0
  5  4  1  0  0  0  0
  6  7  1  0  0  0  0
  6  4  1  0  0  0  0
  7  8  1  0  0  0  0
  7  9  1  0  0  0  0
  9 12  1  6  0  0  0
  9  2  1  0  0  0  0
 10 11  1  0  0  0  0
 13 12  1  0  0  0  0
 14 18  1  0  0  0  0
 14  1  1  0  0  0  0
 15 14  1  0  0  0  0
 16 14  1  0  0  0  0
 17 23  1  0  0  0  0
 17 22  1  0  0  0  0
 18 17  2  0  0  0  0
 19 18  1  0  0  0  0
 19 20  2  0  0  0  0
 20 21  1  0  0  0  0
 21 25  1  0  0  0  0
 21 22  2  0  0  0  0
 24 19  1  0  0  0  0
M  END
>  <minimizedAffinity>
-4.32569695

>  <minimizedRMSD>
3.71887875

$$$$
