
     RDKit          3D

 27 28  0  0  0  0  0  0  0  0999 V2000
   44.6636   36.0714   44.2603 C   0  0  0  0  0  0  0  0  0  0  0  0
   45.4969   35.5591   43.2321 C   0  0  0  0  0  0  0  0  0  0  0  0
   46.2028   34.3592   43.4919 C   0  0  0  0  0  0  0  0  0  0  0  0
   46.0240   33.7917   44.7126 N   0  0  0  0  0  0  0  0  0  0  0  0
   45.2239   34.3107   45.6595 C   0  0  0  0  0  0  0  0  0  0  0  0
   44.5571   35.4378   45.4235 N   0  0  0  0  0  0  0  0  0  0  0  0
   45.0476   33.7191   46.9102 O   0  0  0  0  0  0  0  0  0  0  0  0
   44.1703   36.9717   43.9874 H   0  0  0  0  0  0  0  0  0  0  0  0
   45.6353   36.0203   42.2551 H   0  0  0  0  0  0  0  0  0  0  0  0
   46.8487   33.9320   42.7397 H   0  0  0  0  0  0  0  0  0  0  0  0
   45.5555   32.3633   49.5088 O   0  0  0  0  0  0  0  0  0  0  0  0
   45.1896   31.7771   48.2990 C   0  0  1  0  0  0  0  0  0  0  0  0
   45.7748   32.5108   47.1369 C   0  0  1  0  0  0  0  0  0  0  0  0
   45.7257   31.6183   45.9082 C   0  0  2  0  0  0  0  0  0  0  0  0
   46.7333   31.1927   45.6530 H   0  0  0  0  0  0  0  0  0  0  0  0
   44.7573   30.6409   46.0195 O   0  0  0  0  0  0  0  0  0  0  0  0
   45.0364   29.7098   47.0090 C   0  0  1  0  0  0  0  0  0  0  0  0
   44.0663   29.2661   47.3258 H   0  0  0  0  0  0  0  0  0  0  0  0
   45.6579   30.3377   48.2323 C   0  0  2  0  0  0  0  0  0  0  0  0
   45.1873   29.7157   49.4091 O   0  0  0  0  0  0  0  0  0  0  0  0
   45.1529   31.8490   50.2546 H   0  0  0  0  0  0  0  0  0  0  0  0
   44.0760   31.7341   48.2222 H   0  0  0  0  0  0  0  0  0  0  0  0
   46.8439   32.7175   47.3117 H   0  0  0  0  0  0  0  0  0  0  0  0
   45.4370   32.2707   45.0546 H   0  0  0  0  0  0  0  0  0  0  0  0
   45.6653   28.8828   46.6686 H   0  0  0  0  0  0  0  0  0  0  0  0
   46.7518   30.3589   48.2128 H   0  0  0  0  0  0  0  0  0  0  0  0
   45.9797   29.4649   49.9501 H   0  0  0  0  0  0  0  0  0  0  0  0
  1  6  2  0
  2  3  2  0
  2  1  1  0
  3  4  1  0
  4  5  2  0
  5  7  1  0
  6  5  1  0
  1  8  1  0
  2  9  1  0
  3 10  1  0
 11 12  1  0
 12 13  1  0
 13 14  1  0
 14 15  1  6
 14 16  1  0
 16 17  1  0
 17 18  1  1
 17 19  1  0
 19 20  1  0
 19 12  1  0
 11 21  1  0
 12 22  1  6
 13 23  1  1
 14 24  1  0
 17 25  1  0
 19 26  1  6
 20 27  1  0
  7 13  1  0
M  ISO  5   8  14   9  14  10  14  15   8  18   8
M  END
>  <DihAtoms>  (1) 
4,6,12,11

>  <DihDeg>  (1) 
122.44779480635822

$$$$
