
 OpenBabel03252504263D

 25 26  0  0  1  0  0  0  0  0999 V2000
   42.2550   35.6780   41.1950 O   0  0  0  0  0  0  0  0  0  0  0  0
   40.6820   35.1010   39.5350 C   0  0  2  0  0  3  0  0  0  0  0  0
   41.3550   34.7200   40.8130 C   0  0  2  0  0  3  0  0  0  0  0  0
   40.2780   34.4180   41.8240 C   0  0  0  0  0  3  0  0  0  0  0  0
   40.6610   34.2090   42.8240 H   0  0  0  0  0  0  0  0  0  0  0  0
   39.6640   33.2620   41.3430 O   0  0  0  0  0  0  0  0  0  0  0  0
   38.8130   33.6070   40.3350 C   0  0  0  0  0  3  0  0  0  0  0  0
   37.8070   33.7940   40.7920 H   0  0  0  0  0  0  0  0  0  0  0  0
   39.2450   34.7060   39.4410 C   0  0  2  0  0  3  0  0  0  0  0  0
   41.4170   34.5530   38.4820 O   0  0  0  0  0  0  0  0  0  0  0  0
   41.4590   35.1430   37.7050 H   0  0  0  0  0  0  0  0  0  0  0  0
   38.9220   34.4580   38.1040 O   0  0  0  0  0  0  0  0  0  0  0  0
   38.7460   33.5180   37.9070 H   0  0  0  0  0  0  0  0  0  0  0  0
   43.5770   35.2740   41.0980 C   0  0  0  0  0  0  0  0  0  0  0  0
   44.2210   36.0190   40.6050 H   0  0  0  0  0  0  0  0  0  0  0  0
   43.5460   34.3550   40.4400 H   0  0  0  0  0  0  0  0  0  0  0  0
   44.2030   35.8500   43.3420 C   0  0  0  0  0  0  0  0  0  0  0  0
   44.1590   34.8630   42.3770 C   0  0  0  0  0  0  0  0  0  0  0  0
   44.6630   33.6130   42.7170 C   0  0  0  0  0  0  0  0  0  0  0  0
   45.1500   33.4640   43.9550 N   0  0  0  0  0  0  0  0  0  0  0  0
   45.1900   34.4240   44.8860 C   0  0  0  0  0  0  0  0  0  0  0  0
   44.7060   35.6840   44.6090 N   0  0  0  0  0  0  0  0  0  0  0  0
   43.8360   36.8600   43.1770 H   0  0  0  0  0  0  0  0  0  0  0  0
   44.6130   32.8760   41.9480 H   0  0  0  0  0  0  0  0  0  0  0  0
   45.6140   34.1550   45.8450 H   0  0  0  0  0  0  0  0  0  0  0  0
  2 10  1  6  0  0  0
  2  3  1  0  0  0  0
  3  1  1  1  0  0  0
  3  4  1  0  0  0  0
  4  5  1  0  0  0  0
  6  4  1  0  0  0  0
  7  8  1  0  0  0  0
  7  6  1  0  0  0  0
  9 12  1  6  0  0  0
  9  2  1  0  0  0  0
  9  7  1  0  0  0  0
 11 10  1  0  0  0  0
 13 12  1  0  0  0  0
 14  1  1  0  0  0  0
 14 18  1  0  0  0  0
 15 14  1  0  0  0  0
 16 14  1  0  0  0  0
 17 22  1  0  0  0  0
 18 19  1  0  0  0  0
 18 17  2  0  0  0  0
 19 20  2  0  0  0  0
 20 21  1  0  0  0  0
 21 25  1  0  0  0  0
 22 21  2  0  0  0  0
 23 17  1  0  0  0  0
 24 19  1  0  0  0  0
M  END
>  <minimizedAffinity>
-4.55153513

>  <minimizedRMSD>
2.63762116

$$$$
