REMARK  Name = 
REMARK  5 active torsions:
REMARK  status: ('A' for Active; 'I' for Inactive)
REMARK    1  A    between atoms: C_2  and  C_7
REMARK    2  A    between atoms: C_7  and  O_8
REMARK    3  A    between atoms: O_8  and  C_16
REMARK    4  A    between atoms: O_14  and  C_15
REMARK    5  A    between atoms: C_22  and  O_23
REMARK                            x       y       z     vdW  Elec       q    Type
REMARK                         _______ _______ _______ _____ _____    ______ ____
ROOT
ATOM      1  O   UNL     1      42.963  35.388  41.594  0.00  0.00    +0.000 OA
ENDROOT
BRANCH   1   3
ATOM      2  C   UNL     1      41.102  36.243  40.426  0.00  0.00    +0.000 C 
ATOM      3  C   UNL     1      42.575  36.000  40.433  0.00  0.00    +0.000 C 
ATOM      4  C   UNL     1      42.921  35.250  39.172  0.00  0.00    +0.000 C 
ATOM      5  H   UNL     1      43.966  34.944  39.115  0.00  0.00    +0.000 HD
ATOM      6  O   UNL     1      42.677  36.164  38.146  0.00  0.00    +0.000 OA
ATOM      7  C   UNL     1      41.334  36.212  37.914  0.00  0.00    +0.000 C 
ATOM      8  H   UNL     1      41.102  35.459  37.120  0.00  0.00    +0.000 HD
ATOM      9  C   UNL     1      40.447  36.090  39.094  0.00  0.00    +0.000 C 
BRANCH   2  10
ATOM     10  O   UNL     1      40.874  37.519  40.946  0.00  0.00    +0.000 OA
ATOM     11  H   UNL     1      40.072  37.563  41.501  0.00  0.00    +0.000 HD
ENDBRANCH   2  10
BRANCH   9  12
ATOM     12  O   UNL     1      39.346  36.947  39.020  0.00  0.00    +0.000 OA
ATOM     13  H   UNL     1      39.463  37.688  38.393  0.00  0.00    +0.000 HD
ENDBRANCH   9  12
ENDBRANCH   1   3
BRANCH   1  14
ATOM     14  C   UNL     1      44.250  35.712  41.995  0.00  0.00    +0.000 C 
ATOM     15  H   UNL     1      44.421  36.798  42.061  0.00  0.00    +0.000 HD
ATOM     16  H   UNL     1      44.913  35.308  41.173  0.00  0.00    +0.000 HD
BRANCH  14  18
ATOM     17  C   UNL     1      44.384  35.761  44.390  0.00  0.00    +0.000 A 
ATOM     18  C   UNL     1      44.660  35.054  43.236  0.00  0.00    +0.000 A 
ATOM     19  C   UNL     1      45.285  33.820  43.376  0.00  0.00    +0.000 A 
ATOM     20  N   UNL     1      45.569  33.414  44.619  0.00  0.00    +0.000 NA
ATOM     21  C   UNL     1      45.299  34.103  45.734  0.00  0.00    +0.000 A 
ATOM     22  N   UNL     1      44.681  35.332  45.660  0.00  0.00    +0.000 NA
ATOM     23  H   UNL     1      43.898  36.734  44.390  0.00  0.00    +0.000 HD
ATOM     24  H   UNL     1      45.483  33.303  42.465  0.00  0.00    +0.000 HD
ATOM     25  H   UNL     1      45.589  33.646  46.671  0.00  0.00    +0.000 HD
ENDBRANCH  14  18
ENDBRANCH   1  14
TORSDOF 5
