
     RDKit          3D

 30 31  0  0  0  0  0  0  0  0999 V2000
   44.3836   35.7605   44.3901 C   0  0  0  0  0  0  0  0  0  0  0  0
   44.6600   35.0542   43.2362 C   0  0  0  0  0  0  0  0  0  0  0  0
   45.2852   33.8197   43.3758 C   0  0  0  0  0  0  0  0  0  0  0  0
   45.5695   33.4140   44.6192 N   0  0  0  0  0  0  0  0  0  0  0  0
   45.2990   34.1034   45.7345 C   0  0  0  0  0  0  0  0  0  0  0  0
   44.6811   35.3317   45.6596 N   0  0  0  0  0  0  0  0  0  0  0  0
   44.2503   35.7116   41.9946 C   0  0  0  0  0  0  0  0  0  0  0  0
   42.9634   35.3879   41.5939 O   0  0  0  0  0  0  0  0  0  0  0  0
   43.8980   36.7337   44.3901 H   0  0  0  0  0  0  0  0  0  0  0  0
   45.4828   33.3034   42.4653 H   0  0  0  0  0  0  0  0  0  0  0  0
   45.5890   33.6457   46.6709 H   0  0  0  0  0  0  0  0  0  0  0  0
   44.4214   36.7978   42.0610 H   0  0  0  0  0  0  0  0  0  0  0  0
   44.9129   35.3080   41.1730 H   0  0  0  0  0  0  0  0  0  0  0  0
   40.2387   36.0465   40.3812 O   0  0  0  0  0  0  0  0  0  0  0  0
   41.3456   35.3595   39.8787 C   0  0  2  0  0  0  0  0  0  0  0  0
   42.5754   36.0001   40.4332 C   0  0  2  0  0  0  0  0  0  0  0  0
   43.6155   36.0130   39.3422 C   0  0  1  0  0  0  0  0  0  0  0  0
   44.5883   36.3853   39.6668 H   0  0  0  0  0  0  0  0  0  0  0  0
   43.1078   36.8953   38.3883 O   0  0  0  0  0  0  0  0  0  0  0  0
   42.1526   36.2493   37.6603 C   0  0  2  0  0  0  0  0  0  0  0  0
   42.6583   35.7892   36.7739 H   0  0  0  0  0  0  0  0  0  0  0  0
   41.2923   35.2885   38.3885 C   0  0  2  0  0  0  0  0  0  0  0  0
   39.9605   35.3492   37.9713 O   0  0  0  0  0  0  0  0  0  0  0  0
   39.4884   35.4557   40.5844 H   0  0  0  0  0  0  0  0  0  0  0  0
   41.2642   34.3408   40.3251 H   0  0  0  0  0  0  0  0  0  0  0  0
   42.3531   37.0705   40.6557 H   0  0  0  0  0  0  0  0  0  0  0  0
   43.7384   35.0406   38.8451 H   0  0  0  0  0  0  0  0  0  0  0  0
   41.4981   37.0417   37.1997 H   0  0  0  0  0  0  0  0  0  0  0  0
   41.6232   34.2590   38.0994 H   0  0  0  0  0  0  0  0  0  0  0  0
   39.7273   36.1774   37.5077 H   0  0  0  0  0  0  0  0  0  0  0  0
  1  6  2  0
  2  3  2  0
  2  1  1  0
  3  4  1  0
  4  5  2  0
  6  5  1  0
  7  2  1  0
  8  7  1  0
  1  9  1  0
  3 10  1  0
  5 11  1  0
  7 12  1  0
  7 13  1  0
 14 15  1  0
 15 16  1  0
 16 17  1  0
 17 18  1  1
 17 19  1  0
 19 20  1  0
 20 21  1  6
 20 22  1  0
 22 23  1  0
 22 15  1  0
 14 24  1  0
 15 25  1  1
 16 26  1  1
 17 27  1  0
 20 28  1  0
 22 29  1  1
 23 30  1  0
  8 16  1  0
M  ISO  7   9  14  10  14  11  14  12   8  13   8  18   8  21   8
M  END
>  <DihAtoms>  (1) 
6,7,15,14

>  <DihDeg>  (1) 
-119.3491678202437

$$$$
