
 OpenBabel03242517493D

 22 23  0  0  1  0  0  0  0  0999 V2000
   45.5340   32.0980   47.8960 C   0  0  1  0  0  3  0  0  0  0  0  0
   46.1220   32.4740   46.5750 C   0  0  1  0  0  3  0  0  0  0  0  0
   46.2210   31.2330   45.7030 C   0  0  0  0  0  3  0  0  0  0  0  0
   47.2730   30.8510   45.6280 H   0  0  0  0  0  0  0  0  0  0  0  0
   45.3340   30.2530   46.1000 O   0  0  0  0  0  0  0  0  0  0  0  0
   45.6330   29.7220   47.3460 C   0  0  0  0  0  3  0  0  0  0  0  0
   44.6870   29.3090   47.7630 H   0  0  0  0  0  0  0  0  0  0  0  0
   46.1260   30.7680   48.3140 C   0  0  2  0  0  3  0  0  0  0  0  0
   45.7780   33.0760   48.8590 O   0  0  0  0  0  0  0  0  0  0  0  0
   45.3770   32.7910   49.7200 H   0  0  0  0  0  0  0  0  0  0  0  0
   45.6420   30.5140   49.6160 O   0  0  0  0  0  0  0  0  0  0  0  0
   46.4210   30.5310   50.2310 H   0  0  0  0  0  0  0  0  0  0  0  0
   45.3090   33.4660   45.9470 O   0  0  0  0  0  0  0  0  0  0  0  0
   45.4250   35.4200   42.9680 C   0  0  0  0  0  0  0  0  0  0  0  0
   46.7050   35.1340   42.4280 C   0  0  0  0  0  0  0  0  0  0  0  0
   47.5350   34.2320   43.1390 C   0  0  0  0  0  0  0  0  0  0  0  0
   47.0330   33.7110   44.2880 N   0  0  0  0  0  0  0  0  0  0  0  0
   45.8130   34.0090   44.7650 C   0  0  0  0  0  0  0  0  0  0  0  0
   45.0280   34.8550   44.1030 N   0  0  0  0  0  0  0  0  0  0  0  0
   44.8650   36.1040   42.3770 H   0  0  0  0  0  0  0  0  0  0  0  0
   47.1000   35.5570   41.5050 H   0  0  0  0  0  0  0  0  0  0  0  0
   48.5170   33.9850   42.7660 H   0  0  0  0  0  0  0  0  0  0  0  0
  1  8  1  0  0  0  0
  1  9  1  1  0  0  0
  2 13  1  6  0  0  0
  2  1  1  0  0  0  0
  3  5  1  0  0  0  0
  3  2  1  0  0  0  0
  4  3  1  0  0  0  0
  5  6  1  0  0  0  0
  6  7  1  0  0  0  0
  6  8  1  0  0  0  0
  8 11  1  1  0  0  0
  9 10  1  0  0  0  0
 11 12  1  0  0  0  0
 14 19  1  0  0  0  0
 15 14  2  0  0  0  0
 15 16  1  0  0  0  0
 16 17  2  0  0  0  0
 17 18  1  0  0  0  0
 18 13  1  0  0  0  0
 19 18  2  0  0  0  0
 20 14  1  0  0  0  0
 21 15  1  0  0  0  0
 22 16  1  0  0  0  0
M  END
>  <minimizedAffinity>
-4.71739912

>  <minimizedRMSD>
1.07002771

$$$$
