
     RDKit          3D

 27 28  0  0  0  0  0  0  0  0999 V2000
   44.6636   36.0714   44.2603 C   0  0  0  0  0  0  0  0  0  0  0  0
   45.4969   35.5591   43.2321 C   0  0  0  0  0  0  0  0  0  0  0  0
   46.2028   34.3592   43.4919 C   0  0  0  0  0  0  0  0  0  0  0  0
   46.0240   33.7917   44.7126 N   0  0  0  0  0  0  0  0  0  0  0  0
   45.2239   34.3107   45.6595 C   0  0  0  0  0  0  0  0  0  0  0  0
   44.5571   35.4378   45.4235 N   0  0  0  0  0  0  0  0  0  0  0  0
   45.0476   33.7191   46.9102 O   0  0  0  0  0  0  0  0  0  0  0  0
   44.1703   36.9717   43.9874 H   0  0  0  0  0  0  0  0  0  0  0  0
   45.6353   36.0203   42.2551 H   0  0  0  0  0  0  0  0  0  0  0  0
   46.8487   33.9320   42.7397 H   0  0  0  0  0  0  0  0  0  0  0  0
   47.4817   33.3482   48.5795 O   0  0  0  0  0  0  0  0  0  0  0  0
   46.3619   32.5222   48.5104 C   0  0  1  0  0  0  0  0  0  0  0  0
   45.7748   32.5108   47.1369 C   0  0  1  0  0  0  0  0  0  0  0  0
   44.8636   31.3033   46.9945 C   0  0  2  0  0  0  0  0  0  0  0  0
   45.3339   30.4874   46.3825 H   0  0  0  0  0  0  0  0  0  0  0  0
   44.4161   30.8480   48.2184 O   0  0  0  0  0  0  0  0  0  0  0  0
   45.4292   30.3208   49.0055 C   0  0  1  0  0  0  0  0  0  0  0  0
   45.0978   30.4008   50.0648 H   0  0  0  0  0  0  0  0  0  0  0  0
   46.7172   31.0974   48.8833 C   0  0  2  0  0  0  0  0  0  0  0  0
   47.3790   31.1697   50.1283 O   0  0  0  0  0  0  0  0  0  0  0  0
   47.8448   33.3278   49.5018 H   0  0  0  0  0  0  0  0  0  0  0  0
   45.6047   32.8495   49.2638 H   0  0  0  0  0  0  0  0  0  0  0  0
   46.5670   32.3763   46.3814 H   0  0  0  0  0  0  0  0  0  0  0  0
   43.9712   31.6457   46.4253 H   0  0  0  0  0  0  0  0  0  0  0  0
   45.6265   29.2623   48.8158 H   0  0  0  0  0  0  0  0  0  0  0  0
   47.3891   30.7224   48.1054 H   0  0  0  0  0  0  0  0  0  0  0  0
   48.3157   30.8773   49.9846 H   0  0  0  0  0  0  0  0  0  0  0  0
  1  6  2  0
  2  3  2  0
  2  1  1  0
  3  4  1  0
  4  5  2  0
  5  7  1  0
  6  5  1  0
  1  8  1  0
  2  9  1  0
  3 10  1  0
 11 12  1  0
 12 13  1  0
 13 14  1  0
 14 15  1  6
 14 16  1  0
 16 17  1  0
 17 18  1  1
 17 19  1  0
 19 20  1  0
 19 12  1  0
 11 21  1  0
 12 22  1  1
 13 23  1  6
 14 24  1  0
 17 25  1  0
 19 26  1  6
 20 27  1  0
  7 13  1  0
M  ISO  5   8  14   9  14  10  14  15   8  18   8
M  END
>  <DihAtoms>  (1) 
4,6,12,11

>  <DihDeg>  (1) 
122.44779480635822

$$$$
