
     RDKit          3D

 27 28  0  0  0  0  0  0  0  0999 V2000
   44.6636   36.0714   44.2603 C   0  0  0  0  0  0  0  0  0  0  0  0
   45.4969   35.5591   43.2321 C   0  0  0  0  0  0  0  0  0  0  0  0
   46.2028   34.3592   43.4919 C   0  0  0  0  0  0  0  0  0  0  0  0
   46.0240   33.7917   44.7126 N   0  0  0  0  0  0  0  0  0  0  0  0
   45.2239   34.3107   45.6595 C   0  0  0  0  0  0  0  0  0  0  0  0
   44.5571   35.4378   45.4235 N   0  0  0  0  0  0  0  0  0  0  0  0
   45.0476   33.7191   46.9102 O   0  0  0  0  0  0  0  0  0  0  0  0
   44.1703   36.9717   43.9874 H   0  0  0  0  0  0  0  0  0  0  0  0
   45.6353   36.0203   42.2551 H   0  0  0  0  0  0  0  0  0  0  0  0
   46.8487   33.9320   42.7397 H   0  0  0  0  0  0  0  0  0  0  0  0
   44.1657   30.9340   46.3491 O   0  0  0  0  0  0  0  0  0  0  0  0
   45.4142   31.4994   46.0985 C   0  0  1  0  0  0  0  0  0  0  0  0
   45.7748   32.5108   47.1369 C   0  0  1  0  0  0  0  0  0  0  0  0
   47.2712   32.7689   47.0828 C   0  0  2  0  0  0  0  0  0  0  0  0
   47.8177   32.2724   47.9291 H   0  0  0  0  0  0  0  0  0  0  0  0
   47.8060   32.4443   45.8523 O   0  0  0  0  0  0  0  0  0  0  0  0
   47.7645   31.0842   45.5834 C   0  0  1  0  0  0  0  0  0  0  0  0
   47.7810   30.9673   44.4769 H   0  0  0  0  0  0  0  0  0  0  0  0
   46.4946   30.4373   46.0793 C   0  0  2  0  0  0  0  0  0  0  0  0
   46.0535   29.4434   45.1789 O   0  0  0  0  0  0  0  0  0  0  0  0
   43.9627   30.2676   45.6438 H   0  0  0  0  0  0  0  0  0  0  0  0
   45.4239   31.9556   45.0788 H   0  0  0  0  0  0  0  0  0  0  0  0
   45.5781   32.1123   48.1463 H   0  0  0  0  0  0  0  0  0  0  0  0
   47.4087   33.8640   47.2220 H   0  0  0  0  0  0  0  0  0  0  0  0
   48.6255   30.5336   45.9717 H   0  0  0  0  0  0  0  0  0  0  0  0
   46.5676   30.0385   47.0957 H   0  0  0  0  0  0  0  0  0  0  0  0
   45.8943   28.6168   45.7032 H   0  0  0  0  0  0  0  0  0  0  0  0
  1  6  2  0
  2  3  2  0
  2  1  1  0
  3  4  1  0
  4  5  2  0
  5  7  1  0
  6  5  1  0
  1  8  1  0
  2  9  1  0
  3 10  1  0
 11 12  1  0
 12 13  1  0
 13 14  1  0
 14 15  1  1
 14 16  1  0
 16 17  1  0
 17 18  1  6
 17 19  1  0
 19 20  1  0
 19 12  1  0
 11 21  1  0
 12 22  1  6
 13 23  1  1
 14 24  1  0
 17 25  1  0
 19 26  1  1
 20 27  1  0
  7 13  1  0
M  ISO  5   8  14   9  14  10  14  15   8  18   8
M  END
>  <DihAtoms>  (1) 
4,6,12,11

>  <DihDeg>  (1) 
122.44779480635822

$$$$
