
     RDKit          3D

 30 31  0  0  0  0  0  0  0  0999 V2000
   44.3836   35.7605   44.3901 C   0  0  0  0  0  0  0  0  0  0  0  0
   44.6600   35.0542   43.2362 C   0  0  0  0  0  0  0  0  0  0  0  0
   45.2852   33.8197   43.3758 C   0  0  0  0  0  0  0  0  0  0  0  0
   45.5695   33.4140   44.6192 N   0  0  0  0  0  0  0  0  0  0  0  0
   45.2990   34.1034   45.7345 C   0  0  0  0  0  0  0  0  0  0  0  0
   44.6811   35.3317   45.6596 N   0  0  0  0  0  0  0  0  0  0  0  0
   44.2503   35.7116   41.9946 C   0  0  0  0  0  0  0  0  0  0  0  0
   42.9634   35.3879   41.5939 O   0  0  0  0  0  0  0  0  0  0  0  0
   43.8980   36.7337   44.3901 H   0  0  0  0  0  0  0  0  0  0  0  0
   45.4828   33.3034   42.4653 H   0  0  0  0  0  0  0  0  0  0  0  0
   45.5890   33.6457   46.6709 H   0  0  0  0  0  0  0  0  0  0  0  0
   44.4214   36.7978   42.0610 H   0  0  0  0  0  0  0  0  0  0  0  0
   44.9129   35.3080   41.1730 H   0  0  0  0  0  0  0  0  0  0  0  0
   41.3179   37.8897   40.9926 O   0  0  0  0  0  0  0  0  0  0  0  0
   41.1996   36.5662   40.5639 C   0  0  2  0  0  0  0  0  0  0  0  0
   42.5754   36.0001   40.4332 C   0  0  2  0  0  0  0  0  0  0  0  0
   42.5920   35.1170   39.2117 C   0  0  1  0  0  0  0  0  0  0  0  0
   43.5322   34.5822   39.0688 H   0  0  0  0  0  0  0  0  0  0  0  0
   42.4256   35.9983   38.1432 O   0  0  0  0  0  0  0  0  0  0  0  0
   41.1065   36.3323   38.0538 C   0  0  2  0  0  0  0  0  0  0  0  0
   40.6208   35.6031   37.3568 H   0  0  0  0  0  0  0  0  0  0  0  0
   40.3666   36.4829   39.3279 C   0  0  2  0  0  0  0  0  0  0  0  0
   39.4761   37.5588   39.2986 O   0  0  0  0  0  0  0  0  0  0  0  0
   40.6192   38.1452   41.6250 H   0  0  0  0  0  0  0  0  0  0  0  0
   40.6986   36.0447   41.4129 H   0  0  0  0  0  0  0  0  0  0  0  0
   43.2867   36.8322   40.2180 H   0  0  0  0  0  0  0  0  0  0  0  0
   41.7535   34.4076   39.1748 H   0  0  0  0  0  0  0  0  0  0  0  0
   41.0508   37.3043   37.4877 H   0  0  0  0  0  0  0  0  0  0  0  0
   39.7077   35.5849   39.4390 H   0  0  0  0  0  0  0  0  0  0  0  0
   39.6706   38.2160   38.6019 H   0  0  0  0  0  0  0  0  0  0  0  0
  1  6  2  0
  2  3  2  0
  2  1  1  0
  3  4  1  0
  4  5  2  0
  6  5  1  0
  7  2  1  0
  8  7  1  0
  1  9  1  0
  3 10  1  0
  5 11  1  0
  7 12  1  0
  7 13  1  0
 14 15  1  0
 15 16  1  0
 16 17  1  0
 17 18  1  6
 17 19  1  0
 19 20  1  0
 20 21  1  6
 20 22  1  0
 22 23  1  0
 22 15  1  0
 14 24  1  0
 15 25  1  1
 16 26  1  6
 17 27  1  0
 20 28  1  0
 22 29  1  1
 23 30  1  0
  8 16  1  0
M  ISO  7   9  14  10  14  11  14  12   8  13   8  18   8  21   8
M  END
>  <DihAtoms>  (1) 
6,7,15,14

>  <DihDeg>  (1) 
-119.3491678202437

$$$$
