
     RDKit          3D

 27 28  0  0  0  0  0  0  0  0999 V2000
   44.6636   36.0714   44.2603 C   0  0  0  0  0  0  0  0  0  0  0  0
   45.4969   35.5591   43.2321 C   0  0  0  0  0  0  0  0  0  0  0  0
   46.2028   34.3592   43.4919 C   0  0  0  0  0  0  0  0  0  0  0  0
   46.0240   33.7917   44.7126 N   0  0  0  0  0  0  0  0  0  0  0  0
   45.2239   34.3107   45.6595 C   0  0  0  0  0  0  0  0  0  0  0  0
   44.5571   35.4378   45.4235 N   0  0  0  0  0  0  0  0  0  0  0  0
   45.0476   33.7191   46.9102 O   0  0  0  0  0  0  0  0  0  0  0  0
   44.1703   36.9717   43.9874 H   0  0  0  0  0  0  0  0  0  0  0  0
   45.6353   36.0203   42.2551 H   0  0  0  0  0  0  0  0  0  0  0  0
   46.8487   33.9320   42.7397 H   0  0  0  0  0  0  0  0  0  0  0  0
   45.0565   32.0355   49.3627 O   0  0  0  0  0  0  0  0  0  0  0  0
   44.9941   31.6103   48.0374 C   0  0  1  0  0  0  0  0  0  0  0  0
   45.7748   32.5108   47.1369 C   0  0  1  0  0  0  0  0  0  0  0  0
   46.0423   31.7932   45.8246 C   0  0  2  0  0  0  0  0  0  0  0  0
   47.1033   31.4331   45.7472 H   0  0  0  0  0  0  0  0  0  0  0  0
   45.1289   30.7845   45.5932 O   0  0  0  0  0  0  0  0  0  0  0  0
   45.2388   29.7349   46.4933 C   0  0  1  0  0  0  0  0  0  0  0  0
   44.2495   29.2267   46.5280 H   0  0  0  0  0  0  0  0  0  0  0  0
   45.5452   30.2063   47.8936 C   0  0  2  0  0  0  0  0  0  0  0  0
   44.8667   29.4175   48.8479 O   0  0  0  0  0  0  0  0  0  0  0  0
   44.5315   31.4139   49.9290 H   0  0  0  0  0  0  0  0  0  0  0  0
   43.9275   31.5488   47.7108 H   0  0  0  0  0  0  0  0  0  0  0  0
   46.7676   32.7199   47.5692 H   0  0  0  0  0  0  0  0  0  0  0  0
   45.9091   32.5480   45.0183 H   0  0  0  0  0  0  0  0  0  0  0  0
   45.9716   28.9789   46.1984 H   0  0  0  0  0  0  0  0  0  0  0  0
   46.6145   30.2589   48.1199 H   0  0  0  0  0  0  0  0  0  0  0  0
   45.5361   29.1163   49.5147 H   0  0  0  0  0  0  0  0  0  0  0  0
  1  6  2  0
  2  3  2  0
  2  1  1  0
  3  4  1  0
  4  5  2  0
  5  7  1  0
  6  5  1  0
  1  8  1  0
  2  9  1  0
  3 10  1  0
 11 12  1  0
 12 13  1  0
 13 14  1  0
 14 15  1  1
 14 16  1  0
 16 17  1  0
 17 18  1  1
 17 19  1  0
 19 20  1  0
 19 12  1  0
 11 21  1  0
 12 22  1  6
 13 23  1  1
 14 24  1  0
 17 25  1  0
 19 26  1  1
 20 27  1  0
  7 13  1  0
M  ISO  5   8  14   9  14  10  14  15   8  18   8
M  END
>  <DihAtoms>  (1) 
4,6,12,11

>  <DihDeg>  (1) 
122.44779480635822

$$$$
