REMARK  Name = 
REMARK  5 active torsions:
REMARK  status: ('A' for Active; 'I' for Inactive)
REMARK    1  A    between atoms: C_2  and  C_7
REMARK    2  A    between atoms: C_7  and  O_8
REMARK    3  A    between atoms: O_8  and  C_16
REMARK    4  A    between atoms: O_14  and  C_15
REMARK    5  A    between atoms: C_22  and  O_23
REMARK                            x       y       z     vdW  Elec       q    Type
REMARK                         _______ _______ _______ _____ _____    ______ ____
ROOT
ATOM      1  O   UNL     1      42.963  35.388  41.594  0.00  0.00    +0.000 OA
ENDROOT
BRANCH   1   3
ATOM      2  C   UNL     1      41.587  35.160  39.693  0.00  0.00    +0.000 C 
ATOM      3  C   UNL     1      42.575  36.000  40.433  0.00  0.00    +0.000 C 
ATOM      4  C   UNL     1      43.697  36.331  39.482  0.00  0.00    +0.000 C 
ATOM      5  H   UNL     1      44.521  36.874  39.947  0.00  0.00    +0.000 HD
ATOM      6  O   UNL     1      43.111  37.162  38.528  0.00  0.00    +0.000 OA
ATOM      7  C   UNL     1      42.408  36.391  37.650  0.00  0.00    +0.000 C 
ATOM      8  H   UNL     1      43.097  36.129  36.806  0.00  0.00    +0.000 HD
ATOM      9  C   UNL     1      41.712  35.208  38.206  0.00  0.00    +0.000 C 
BRANCH   2  10
ATOM     10  O   UNL     1      40.307  35.547  40.095  0.00  0.00    +0.000 OA
ATOM     11  H   UNL     1      39.691  34.793  40.167  0.00  0.00    +0.000 HD
ENDBRANCH   2  10
BRANCH   9  12
ATOM     12  O   UNL     1      40.453  35.017  37.631  0.00  0.00    +0.000 OA
ATOM     13  H   UNL     1      40.092  35.812  37.193  0.00  0.00    +0.000 HD
ENDBRANCH   9  12
ENDBRANCH   1   3
BRANCH   1  14
ATOM     14  C   UNL     1      44.250  35.712  41.995  0.00  0.00    +0.000 C 
ATOM     15  H   UNL     1      44.421  36.798  42.061  0.00  0.00    +0.000 HD
ATOM     16  H   UNL     1      44.913  35.308  41.173  0.00  0.00    +0.000 HD
BRANCH  14  18
ATOM     17  C   UNL     1      44.384  35.761  44.390  0.00  0.00    +0.000 A 
ATOM     18  C   UNL     1      44.660  35.054  43.236  0.00  0.00    +0.000 A 
ATOM     19  C   UNL     1      45.285  33.820  43.376  0.00  0.00    +0.000 A 
ATOM     20  N   UNL     1      45.569  33.414  44.619  0.00  0.00    +0.000 NA
ATOM     21  C   UNL     1      45.299  34.103  45.734  0.00  0.00    +0.000 A 
ATOM     22  N   UNL     1      44.681  35.332  45.660  0.00  0.00    +0.000 NA
ATOM     23  H   UNL     1      43.898  36.734  44.390  0.00  0.00    +0.000 HD
ATOM     24  H   UNL     1      45.483  33.303  42.465  0.00  0.00    +0.000 HD
ATOM     25  H   UNL     1      45.589  33.646  46.671  0.00  0.00    +0.000 HD
ENDBRANCH  14  18
ENDBRANCH   1  14
TORSDOF 5
