
 OpenBabel03242516333D

 47 50  0  0  1  0  0  0  0  0999 V2000
   48.6790   32.5590   37.3850 C   0  0  1  0  0  0  0  0  0  0  0  0
   48.5280   33.9700   38.1540 C   0  0  1  0  0  0  0  0  0  0  0  0
   47.7470   34.5920   37.2500 O   0  0  0  0  0  0  0  0  0  0  0  0
   46.6410   33.6970   37.2270 C   0  0  0  0  0  0  0  0  0  0  0  0
   47.3070   32.4110   36.8040 C   0  0  1  0  0  0  0  0  0  0  0  0
   49.0050   31.8120   38.0860 H   0  0  0  0  0  0  0  0  0  0  0  0
   49.5770   34.1790   38.3450 H   0  0  0  0  0  0  0  0  0  0  0  0
   46.1400   33.6470   38.1940 H   0  0  0  0  0  0  0  0  0  0  0  0
   45.9500   34.0900   36.4580 H   0  0  0  0  0  0  0  0  0  0  0  0
   46.7350   31.5720   37.2590 H   0  0  0  0  0  0  0  0  0  0  0  0
   49.5590   32.8410   36.3320 O   0  0  0  0  0  0  0  0  0  0  0  0
   49.3520   33.7560   36.0190 H   0  0  0  0  0  0  0  0  0  0  0  0
   47.7650   33.6380   39.2730 O   0  0  0  0  0  0  0  0  0  0  0  0
   48.1010   34.2970   41.5250 C   0  0  2  0  0  0  0  0  0  0  0  0
   46.6910   33.6900   41.7680 C   0  0  1  0  0  0  0  0  0  0  0  0
   47.0560   32.4080   42.0590 O   0  0  0  0  0  0  0  0  0  0  0  0
   47.9070   32.0500   40.9940 C   0  0  0  0  0  0  0  0  0  0  0  0
   48.4760   33.3560   40.4030 C   0  0  1  0  0  0  0  0  0  0  0  0
   48.0400   35.3520   41.2310 H   0  0  0  0  0  0  0  0  0  0  0  0
   46.1920   33.8430   40.7890 H   0  0  0  0  0  0  0  0  0  0  0  0
   47.2670   31.5700   40.2310 H   0  0  0  0  0  0  0  0  0  0  0  0
   48.7100   31.3690   41.3050 H   0  0  0  0  0  0  0  0  0  0  0  0
   49.5700   33.3200   40.2600 H   0  0  0  0  0  0  0  0  0  0  0  0
   44.7220   36.0650   43.9900 C   0  0  0  0  0  0  0  0  0  0  0  0
   45.3280   35.6120   42.8150 C   0  0  0  0  0  0  0  0  0  0  0  0
   45.9960   34.4080   42.8440 C   0  0  0  0  0  0  0  0  0  0  0  0
   46.0200   33.7250   44.0400 N   0  0  0  0  0  0  0  0  0  0  0  0
   45.4270   34.1870   45.1560 C   0  0  0  0  0  0  0  0  0  0  0  0
   44.7760   35.3650   45.1250 N   0  0  0  0  0  0  0  0  0  0  0  0
   44.2200   37.0190   43.8850 H   0  0  0  0  0  0  0  0  0  0  0  0
   45.3500   36.0880   41.8450 H   0  0  0  0  0  0  0  0  0  0  0  0
   45.4760   33.6080   46.0770 H   0  0  0  0  0  0  0  0  0  0  0  0
   48.9360   34.0230   42.5670 O   0  0  0  0  0  0  0  0  0  0  0  0
   49.4970   34.7590   42.8690 H   0  0  0  0  0  0  0  0  0  0  0  0
   47.3320   32.3430   35.4240 O   0  0  0  0  0  0  0  0  0  0  0  0
   45.1400   31.7560   34.6000 C   0  0  2  0  0  0  0  0  0  0  0  0
   46.4830   31.3020   35.0550 C   0  0  2  0  0  0  0  0  0  0  0  0
   46.2430   30.3390   36.2180 C   0  0  0  0  0  0  0  0  0  0  0  0
   45.9620   30.8600   37.1330 H   0  0  0  0  0  0  0  0  0  0  0  0
   45.2390   29.4740   35.8600 O   0  0  0  0  0  0  0  0  0  0  0  0
   45.0350   29.3390   34.5020 C   0  0  0  0  0  0  0  0  0  0  0  0
   45.8880   28.9130   33.9420 H   0  0  0  0  0  0  0  0  0  0  0  0
   44.4850   30.6120   33.8540 C   0  0  1  0  0  0  0  0  0  0  0  0
   45.1250   32.9470   33.8920 O   0  0  0  0  0  0  0  0  0  0  0  0
   44.9520   33.6970   34.5150 H   0  0  0  0  0  0  0  0  0  0  0  0
   43.1070   30.6360   33.9610 O   0  0  0  0  0  0  0  0  0  0  0  0
   42.7770   31.4930   34.3730 H   0  0  0  0  0  0  0  0  0  0  0  0
  1  6  1  1  0  0  0
  1  2  1  0  0  0  0
  2  7  1  1  0  0  0
  2 13  1  0  0  0  0
  3  2  1  0  0  0  0
  4  3  1  0  0  0  0
  4  8  1  0  0  0  0
  5  4  1  0  0  0  0
  5 10  1  1  0  0  0
  5  1  1  0  0  0  0
  9  4  1  0  0  0  0
 11  1  1  0  0  0  0
 12 11  1  0  0  0  0
 13 18  1  0  0  0  0
 14 19  1  6  0  0  0
 14 15  1  0  0  0  0
 14 33  1  0  0  0  0
 15 20  1  6  0  0  0
 15 16  1  0  0  0  0
 15 26  1  0  0  0  0
 17 22  1  0  0  0  0
 17 16  1  0  0  0  0
 18 23  1  6  0  0  0
 18 17  1  0  0  0  0
 18 14  1  0  0  0  0
 21 17  1  0  0  0  0
 24 29  1  0  0  0  0
 25 26  1  0  0  0  0
 25 24  2  0  0  0  0
 26 27  2  0  0  0  0
 27 28  1  0  0  0  0
 28 32  1  0  0  0  0
 29 28  2  0  0  0  0
 30 24  1  0  0  0  0
 31 25  1  0  0  0  0
 33 34  1  0  0  0  0
 35  5  1  0  0  0  0
 36 44  1  6  0  0  0
 36 37  1  0  0  0  0
 37 35  1  1  0  0  0
 37 38  1  0  0  0  0
 38 39  1  0  0  0  0
 40 38  1  0  0  0  0
 41 40  1  0  0  0  0
 42 41  1  0  0  0  0
 43 46  1  1  0  0  0
 43 41  1  0  0  0  0
 43 36  1  0  0  0  0
 44 45  1  0  0  0  0
 46 47  1  0  0  0  0
M  END
>  <minimizedAffinity>
-6.52873707

>  <minimizedRMSD>
1.56712461

$$$$
