
 OpenBabel03242517503D

 22 23  0  0  1  0  0  0  0  0999 V2000
   45.7250   32.0670   47.8600 C   0  0  1  0  0  3  0  0  0  0  0  0
   46.1920   32.2610   46.4550 C   0  0  1  0  0  3  0  0  0  0  0  0
   46.1370   30.9290   45.7240 C   0  0  0  0  0  3  0  0  0  0  0  0
   47.1560   30.4770   45.5920 H   0  0  0  0  0  0  0  0  0  0  0  0
   45.2470   30.0540   46.3120 O   0  0  0  0  0  0  0  0  0  0  0  0
   45.6440   29.6430   47.5760 C   0  0  0  0  0  3  0  0  0  0  0  0
   44.7270   29.3390   48.1270 H   0  0  0  0  0  0  0  0  0  0  0  0
   46.2880   30.7560   48.3690 C   0  0  2  0  0  3  0  0  0  0  0  0
   46.1150   33.1250   48.6790 O   0  0  0  0  0  0  0  0  0  0  0  0
   45.7920   32.9610   49.6010 H   0  0  0  0  0  0  0  0  0  0  0  0
   45.9280   30.6730   49.7310 O   0  0  0  0  0  0  0  0  0  0  0  0
   46.7650   30.7070   50.2620 H   0  0  0  0  0  0  0  0  0  0  0  0
   45.3710   33.2290   45.8000 O   0  0  0  0  0  0  0  0  0  0  0  0
   45.6070   35.3330   42.9330 C   0  0  0  0  0  0  0  0  0  0  0  0
   46.9160   35.0880   42.4430 C   0  0  0  0  0  0  0  0  0  0  0  0
   47.7210   34.1600   43.1480 C   0  0  0  0  0  0  0  0  0  0  0  0
   47.1710   33.5760   44.2430 N   0  0  0  0  0  0  0  0  0  0  0  0
   45.9250   33.8360   44.6740 C   0  0  0  0  0  0  0  0  0  0  0  0
   45.1620   34.7060   44.0170 N   0  0  0  0  0  0  0  0  0  0  0  0
   45.0680   36.0400   42.3500 H   0  0  0  0  0  0  0  0  0  0  0  0
   47.3500   35.5610   41.5630 H   0  0  0  0  0  0  0  0  0  0  0  0
   48.7240   33.9420   42.8120 H   0  0  0  0  0  0  0  0  0  0  0  0
  1  8  1  0  0  0  0
  1  9  1  1  0  0  0
  2 13  1  6  0  0  0
  2  1  1  0  0  0  0
  3  5  1  0  0  0  0
  3  2  1  0  0  0  0
  4  3  1  0  0  0  0
  5  6  1  0  0  0  0
  6  7  1  0  0  0  0
  6  8  1  0  0  0  0
  8 11  1  1  0  0  0
  9 10  1  0  0  0  0
 11 12  1  0  0  0  0
 14 19  1  0  0  0  0
 15 14  2  0  0  0  0
 15 16  1  0  0  0  0
 16 17  2  0  0  0  0
 17 18  1  0  0  0  0
 18 13  1  0  0  0  0
 19 18  2  0  0  0  0
 20 14  1  0  0  0  0
 21 15  1  0  0  0  0
 22 16  1  0  0  0  0
M  END
>  <minimizedAffinity>
-4.50724506

>  <minimizedRMSD>
1.22651947

$$$$
