
 OpenBabel03242516363D

 47 50  0  0  1  0  0  0  0  0999 V2000
   38.0040   32.2630   40.9140 C   0  0  1  0  0  0  0  0  0  0  0  0
   37.0020   31.0340   40.6200 C   0  0  1  0  0  0  0  0  0  0  0  0
   37.0960   31.0340   39.2770 O   0  0  0  0  0  0  0  0  0  0  0  0
   38.4970   30.8310   39.1310 C   0  0  0  0  0  0  0  0  0  0  0  0
   39.0480   32.0270   39.8670 C   0  0  1  0  0  0  0  0  0  0  0  0
   38.3140   32.2240   41.9420 H   0  0  0  0  0  0  0  0  0  0  0  0
   36.1450   31.3630   41.2010 H   0  0  0  0  0  0  0  0  0  0  0  0
   38.8120   29.8690   39.5360 H   0  0  0  0  0  0  0  0  0  0  0  0
   38.6970   30.8730   38.0440 H   0  0  0  0  0  0  0  0  0  0  0  0
   40.0310   31.7310   40.2980 H   0  0  0  0  0  0  0  0  0  0  0  0
   37.2700   33.3950   40.5350 O   0  0  0  0  0  0  0  0  0  0  0  0
   36.7350   33.1410   39.7420 H   0  0  0  0  0  0  0  0  0  0  0  0
   37.6930   29.9350   41.1320 O   0  0  0  0  0  0  0  0  0  0  0  0
   36.7210   27.9810   42.0550 C   0  0  2  0  0  0  0  0  0  0  0  0
   38.1480   27.3790   41.9300 C   0  0  1  0  0  0  0  0  0  0  0  0
   38.6430   27.7430   43.1490 O   0  0  0  0  0  0  0  0  0  0  0  0
   38.3610   29.1220   43.2280 C   0  0  0  0  0  0  0  0  0  0  0  0
   37.1790   29.4040   42.2790 C   0  0  1  0  0  0  0  0  0  0  0  0
   36.1390   27.8300   41.1380 H   0  0  0  0  0  0  0  0  0  0  0  0
   38.5630   27.9230   41.0560 H   0  0  0  0  0  0  0  0  0  0  0  0
   39.2540   29.6460   42.8410 H   0  0  0  0  0  0  0  0  0  0  0  0
   38.1390   29.4500   44.2520 H   0  0  0  0  0  0  0  0  0  0  0  0
   36.3860   30.0100   42.7510 H   0  0  0  0  0  0  0  0  0  0  0  0
   38.6650   23.6220   41.6650 C   0  0  0  0  0  0  0  0  0  0  0  0
   38.9870   24.9410   41.9940 C   0  0  0  0  0  0  0  0  0  0  0  0
   38.0830   25.9330   41.6830 C   0  0  0  0  0  0  0  0  0  0  0  0
   36.9120   25.5530   41.0640 N   0  0  0  0  0  0  0  0  0  0  0  0
   36.6310   24.2730   40.7600 C   0  0  0  0  0  0  0  0  0  0  0  0
   37.5170   23.3060   41.0650 N   0  0  0  0  0  0  0  0  0  0  0  0
   39.4270   22.9040   41.9420 H   0  0  0  0  0  0  0  0  0  0  0  0
   39.8780   25.3140   42.4780 H   0  0  0  0  0  0  0  0  0  0  0  0
   35.6900   24.0260   40.2700 H   0  0  0  0  0  0  0  0  0  0  0  0
   36.1190   27.5730   43.2090 O   0  0  0  0  0  0  0  0  0  0  0  0
   35.1860   27.3090   43.1320 H   0  0  0  0  0  0  0  0  0  0  0  0
   39.1570   33.0910   38.9920 O   0  0  0  0  0  0  0  0  0  0  0  0
   41.1030   32.5980   37.6510 C   0  0  2  0  0  3  0  0  0  0  0  0
   40.5180   33.3280   38.8090 C   0  0  2  0  0  3  0  0  0  0  0  0
   41.3260   32.9090   40.0380 C   0  0  0  0  0  3  0  0  0  0  0  0
   41.0740   31.9040   40.3740 H   0  0  0  0  0  0  0  0  0  0  0  0
   42.6590   32.9610   39.7130 O   0  0  0  0  0  0  0  0  0  0  0  0
   42.9730   33.7730   38.6430 C   0  0  0  0  0  3  0  0  0  0  0  0
   42.7530   34.8460   38.7900 H   0  0  0  0  0  0  0  0  0  0  0  0
   42.4330   33.2400   37.3130 C   0  0  1  0  0  3  0  0  0  0  0  0
   40.2690   32.4620   36.5530 O   0  0  0  0  0  0  0  0  0  0  0  0
   39.7920   31.5960   36.6080 H   0  0  0  0  0  0  0  0  0  0  0  0
   43.3290   32.3390   36.7700 O   0  0  0  0  0  0  0  0  0  0  0  0
   42.8890   31.4630   36.5430 H   0  0  0  0  0  0  0  0  0  0  0  0
  1  6  1  1  0  0  0
  2  1  1  0  0  0  0
  2 13  1  0  0  0  0
  2  7  1  1  0  0  0
  3  2  1  0  0  0  0
  4  3  1  0  0  0  0
  4  8  1  0  0  0  0
  4  5  1  0  0  0  0
  5 10  1  1  0  0  0
  5  1  1  0  0  0  0
  9  4  1  0  0  0  0
 11  1  1  0  0  0  0
 12 11  1  0  0  0  0
 13 18  1  0  0  0  0
 14 19  1  6  0  0  0
 14 18  1  0  0  0  0
 14 33  1  0  0  0  0
 15 20  1  6  0  0  0
 15 14  1  0  0  0  0
 15 16  1  0  0  0  0
 16 17  1  0  0  0  0
 17 22  1  0  0  0  0
 18 23  1  1  0  0  0
 18 17  1  0  0  0  0
 21 17  1  0  0  0  0
 24 30  1  0  0  0  0
 24 25  1  0  0  0  0
 25 31  1  0  0  0  0
 26 15  1  0  0  0  0
 26 25  2  0  0  0  0
 27 26  1  0  0  0  0
 28 27  2  0  0  0  0
 28 29  1  0  0  0  0
 29 24  2  0  0  0  0
 32 28  1  0  0  0  0
 34 33  1  0  0  0  0
 35  5  1  0  0  0  0
 36 44  1  6  0  0  0
 36 37  1  0  0  0  0
 37 35  1  1  0  0  0
 37 38  1  0  0  0  0
 38 39  1  0  0  0  0
 40 38  1  0  0  0  0
 41 42  1  0  0  0  0
 41 40  1  0  0  0  0
 43 46  1  1  0  0  0
 43 36  1  0  0  0  0
 43 41  1  0  0  0  0
 44 45  1  0  0  0  0
 47 46  1  0  0  0  0
M  END
>  <minimizedAffinity>
-6.78365469

$$$$

 OpenBabel03242516363D

 47 50  0  0  1  0  0  0  0  0999 V2000
   38.3470   28.2800   40.9860 C   0  0  1  0  0  0  0  0  0  0  0  0
   36.9030   28.9180   41.3190 C   0  0  1  0  0  0  0  0  0  0  0  0
   36.6630   28.2480   42.4620 O   0  0  0  0  0  0  0  0  0  0  0  0
   37.7910   28.6580   43.2270 C   0  0  0  0  0  0  0  0  0  0  0  0
   38.9280   28.1740   42.3620 C   0  0  1  0  0  0  0  0  0  0  0  0
   38.8540   28.9120   40.2800 H   0  0  0  0  0  0  0  0  0  0  0  0
   36.4130   28.7510   40.3650 H   0  0  0  0  0  0  0  0  0  0  0  0
   37.7900   29.7330   43.4060 H   0  0  0  0  0  0  0  0  0  0  0  0
   37.7230   28.1090   44.1840 H   0  0  0  0  0  0  0  0  0  0  0  0
   39.7870   28.8630   42.5200 H   0  0  0  0  0  0  0  0  0  0  0  0
   38.0500   26.9820   40.5480 O   0  0  0  0  0  0  0  0  0  0  0  0
   37.2840   26.6630   41.0870 H   0  0  0  0  0  0  0  0  0  0  0  0
   37.2080   30.2460   41.6170 O   0  0  0  0  0  0  0  0  0  0  0  0
   37.5250   32.3790   40.6330 C   0  0  2  0  0  0  0  0  0  0  0  0
   38.5740   31.6590   39.7410 C   0  0  1  0  0  0  0  0  0  0  0  0
   37.7580   31.2760   38.7160 O   0  0  0  0  0  0  0  0  0  0  0  0
   36.6840   30.6330   39.3630 C   0  0  0  0  0  0  0  0  0  0  0  0
   36.6260   31.1760   40.8050 C   0  0  1  0  0  0  0  0  0  0  0  0
   37.9730   32.7480   41.5640 H   0  0  0  0  0  0  0  0  0  0  0  0
   38.9350   30.8450   40.4040 H   0  0  0  0  0  0  0  0  0  0  0  0
   36.9410   29.5590   39.4030 H   0  0  0  0  0  0  0  0  0  0  0  0
   35.7280   30.7790   38.8420 H   0  0  0  0  0  0  0  0  0  0  0  0
   35.6080   31.4780   41.1090 H   0  0  0  0  0  0  0  0  0  0  0  0
   41.4000   33.6210   38.1230 C   0  0  0  0  0  0  0  0  0  0  0  0
   40.4360   32.6150   38.2360 C   0  0  0  0  0  0  0  0  0  0  0  0
   39.6600   32.5750   39.3740 C   0  0  0  0  0  0  0  0  0  0  0  0
   39.8890   33.5390   40.3310 N   0  0  0  0  0  0  0  0  0  0  0  0
   40.8250   34.4960   40.1940 C   0  0  0  0  0  0  0  0  0  0  0  0
   41.5820   34.5320   39.0810 N   0  0  0  0  0  0  0  0  0  0  0  0
   41.9670   33.5830   37.2020 H   0  0  0  0  0  0  0  0  0  0  0  0
   40.2000   31.8310   37.5310 H   0  0  0  0  0  0  0  0  0  0  0  0
   40.9650   35.2350   40.9810 H   0  0  0  0  0  0  0  0  0  0  0  0
   36.8220   33.2990   39.9130 O   0  0  0  0  0  0  0  0  0  0  0  0
   36.6710   34.1560   40.3480 H   0  0  0  0  0  0  0  0  0  0  0  0
   39.2330   26.8680   42.6980 O   0  0  0  0  0  0  0  0  0  0  0  0
   41.1480   25.4950   43.2220 C   0  0  2  0  0  3  0  0  0  0  0  0
   40.6150   26.7350   42.5930 C   0  0  2  0  0  3  0  0  0  0  0  0
   41.3400   27.9040   43.2600 C   0  0  0  0  0  3  0  0  0  0  0  0
   40.9710   28.0960   44.2680 H   0  0  0  0  0  0  0  0  0  0  0  0
   42.6780   27.6040   43.3150 O   0  0  0  0  0  0  0  0  0  0  0  0
   43.1080   26.6590   42.4080 C   0  0  0  0  0  3  0  0  0  0  0  0
   43.0020   26.9480   41.3460 H   0  0  0  0  0  0  0  0  0  0  0  0
   42.5480   25.2620   42.6930 C   0  0  1  0  0  3  0  0  0  0  0  0
   40.3330   24.3790   43.1150 O   0  0  0  0  0  0  0  0  0  0  0  0
   39.7630   24.3090   43.9210 H   0  0  0  0  0  0  0  0  0  0  0  0
   43.3540   24.6110   43.6080 O   0  0  0  0  0  0  0  0  0  0  0  0
   42.8270   24.2620   44.3910 H   0  0  0  0  0  0  0  0  0  0  0  0
  1  6  1  6  0  0  0
  1  2  1  0  0  0  0
  1  5  1  0  0  0  0
  2  7  1  6  0  0  0
  2 13  1  0  0  0  0
  2  3  1  0  0  0  0
  3  4  1  0  0  0  0
  4  8  1  0  0  0  0
  4  9  1  0  0  0  0
  5 10  1  1  0  0  0
  5 35  1  0  0  0  0
  5  4  1  0  0  0  0
 11  1  1  0  0  0  0
 11 12  1  0  0  0  0
 14 18  1  0  0  0  0
 14 19  1  1  0  0  0
 15 20  1  1  0  0  0
 15 14  1  0  0  0  0
 16 17  1  0  0  0  0
 16 15  1  0  0  0  0
 17 21  1  0  0  0  0
 17 18  1  0  0  0  0
 18 23  1  1  0  0  0
 18 13  1  0  0  0  0
 22 17  1  0  0  0  0
 24 25  2  0  0  0  0
 24 29  1  0  0  0  0
 25 26  1  0  0  0  0
 26 15  1  0  0  0  0
 26 27  2  0  0  0  0
 28 27  1  0  0  0  0
 28 32  1  0  0  0  0
 29 28  2  0  0  0  0
 30 24  1  0  0  0  0
 31 25  1  0  0  0  0
 33 34  1  0  0  0  0
 33 14  1  0  0  0  0
 36 44  1  6  0  0  0
 37 35  1  1  0  0  0
 37 36  1  0  0  0  0
 37 38  1  0  0  0  0
 38 40  1  0  0  0  0
 38 39  1  0  0  0  0
 41 43  1  0  0  0  0
 41 40  1  0  0  0  0
 42 41  1  0  0  0  0
 43 36  1  0  0  0  0
 43 46  1  1  0  0  0
 44 45  1  0  0  0  0
 46 47  1  0  0  0  0
M  END
>  <minimizedAffinity>
-6.60507488

$$$$

 OpenBabel03242516363D

 47 50  0  0  1  0  0  0  0  0999 V2000
   36.7130   28.4190   42.0420 C   0  0  1  0  0  0  0  0  0  0  0  0
   37.6840   29.6370   42.4610 C   0  0  1  0  0  0  0  0  0  0  0  0
   38.6970   28.9050   42.9620 O   0  0  0  0  0  0  0  0  0  0  0  0
   39.0230   28.1250   41.8180 C   0  0  0  0  0  0  0  0  0  0  0  0
   37.7170   27.4190   41.5560 C   0  0  1  0  0  0  0  0  0  0  0  0
   35.9870   28.7770   41.3360 H   0  0  0  0  0  0  0  0  0  0  0  0
   36.9800   30.2330   43.0350 H   0  0  0  0  0  0  0  0  0  0  0  0
   39.3730   28.7440   40.9920 H   0  0  0  0  0  0  0  0  0  0  0  0
   39.8220   27.4330   42.1430 H   0  0  0  0  0  0  0  0  0  0  0  0
   37.6470   27.2370   40.4610 H   0  0  0  0  0  0  0  0  0  0  0  0
   36.2070   27.9550   43.2640 O   0  0  0  0  0  0  0  0  0  0  0  0
   36.9370   28.0340   43.9280 H   0  0  0  0  0  0  0  0  0  0  0  0
   38.0660   30.1730   41.2310 O   0  0  0  0  0  0  0  0  0  0  0  0
   38.5630   32.4400   40.7510 C   0  0  2  0  0  0  0  0  0  0  0  0
   39.1250   31.8890   39.4110 C   0  0  1  0  0  0  0  0  0  0  0  0
   37.9880   31.9500   38.6590 O   0  0  0  0  0  0  0  0  0  0  0  0
   37.0250   31.2930   39.4510 C   0  0  0  0  0  0  0  0  0  0  0  0
   37.5030   31.3750   40.9150 C   0  0  1  0  0  0  0  0  0  0  0  0
   39.3280   32.4440   41.5370 H   0  0  0  0  0  0  0  0  0  0  0  0
   39.4670   30.8710   39.6940 H   0  0  0  0  0  0  0  0  0  0  0  0
   37.0340   30.2330   39.1390 H   0  0  0  0  0  0  0  0  0  0  0  0
   36.0200   31.7180   39.3340 H   0  0  0  0  0  0  0  0  0  0  0  0
   36.7080   31.7050   41.6070 H   0  0  0  0  0  0  0  0  0  0  0  0
   41.9260   33.6280   37.5170 C   0  0  0  0  0  0  0  0  0  0  0  0
   40.9010   32.7020   37.7270 C   0  0  0  0  0  0  0  0  0  0  0  0
   40.2400   32.7180   38.9360 C   0  0  0  0  0  0  0  0  0  0  0  0
   40.6390   33.6550   39.8640 N   0  0  0  0  0  0  0  0  0  0  0  0
   41.6310   34.5340   39.6330 C   0  0  0  0  0  0  0  0  0  0  0  0
   42.2750   34.5150   38.4500 N   0  0  0  0  0  0  0  0  0  0  0  0
   42.3950   33.5500   36.5440 H   0  0  0  0  0  0  0  0  0  0  0  0
   40.5330   31.9430   37.0510 H   0  0  0  0  0  0  0  0  0  0  0  0
   41.9070   35.2550   40.4010 H   0  0  0  0  0  0  0  0  0  0  0  0
   37.9100   33.6210   40.5570 O   0  0  0  0  0  0  0  0  0  0  0  0
   38.0870   34.3180   41.2130 H   0  0  0  0  0  0  0  0  0  0  0  0
   37.6770   26.2460   42.2880 O   0  0  0  0  0  0  0  0  0  0  0  0
   38.2740   24.0830   41.3990 C   0  0  2  0  0  3  0  0  0  0  0  0
   37.3250   25.2300   41.4030 C   0  0  2  0  0  3  0  0  0  0  0  0
   37.2580   25.7410   39.9640 C   0  0  0  0  0  3  0  0  0  0  0  0
   38.1470   26.3060   39.6850 H   0  0  0  0  0  0  0  0  0  0  0  0
   37.1250   24.6590   39.1300 O   0  0  0  0  0  0  0  0  0  0  0  0
   36.6240   23.5180   39.7200 C   0  0  0  0  0  3  0  0  0  0  0  0
   35.5940   23.6080   40.1100 H   0  0  0  0  0  0  0  0  0  0  0  0
   37.5860   22.9050   40.7410 C   0  0  1  0  0  3  0  0  0  0  0  0
   38.8320   23.7700   42.6280 O   0  0  0  0  0  0  0  0  0  0  0  0
   39.7010   24.2360   42.7230 H   0  0  0  0  0  0  0  0  0  0  0  0
   38.4780   22.0660   40.1000 O   0  0  0  0  0  0  0  0  0  0  0  0
   39.4330   22.2930   40.3220 H   0  0  0  0  0  0  0  0  0  0  0  0
  1  6  1  6  0  0  0
  1  2  1  0  0  0  0
  1 11  1  0  0  0  0
  2  3  1  0  0  0  0
  2  7  1  1  0  0  0
  4  9  1  0  0  0  0
  4  3  1  0  0  0  0
  5 10  1  6  0  0  0
  5  4  1  0  0  0  0
  5  1  1  0  0  0  0
  5 35  1  0  0  0  0
  8  4  1  0  0  0  0
 11 12  1  0  0  0  0
 13  2  1  0  0  0  0
 14 18  1  0  0  0  0
 14 19  1  1  0  0  0
 15 20  1  1  0  0  0
 15 14  1  0  0  0  0
 16 15  1  0  0  0  0
 16 17  1  0  0  0  0
 17 18  1  0  0  0  0
 18 13  1  0  0  0  0
 18 23  1  1  0  0  0
 21 17  1  0  0  0  0
 22 17  1  0  0  0  0
 24 25  2  0  0  0  0
 24 29  1  0  0  0  0
 25 26  1  0  0  0  0
 26 15  1  0  0  0  0
 26 27  2  0  0  0  0
 28 27  1  0  0  0  0
 28 32  1  0  0  0  0
 29 28  2  0  0  0  0
 30 24  1  0  0  0  0
 31 25  1  0  0  0  0
 33 14  1  0  0  0  0
 33 34  1  0  0  0  0
 36 37  1  0  0  0  0
 36 44  1  1  0  0  0
 37 35  1  1  0  0  0
 38 37  1  0  0  0  0
 39 38  1  0  0  0  0
 40 41  1  0  0  0  0
 40 38  1  0  0  0  0
 41 42  1  0  0  0  0
 41 43  1  0  0  0  0
 43 46  1  6  0  0  0
 43 36  1  0  0  0  0
 44 45  1  0  0  0  0
 46 47  1  0  0  0  0
M  END
>  <minimizedAffinity>
-6.34014606

$$$$

 OpenBabel03242516363D

 47 50  0  0  1  0  0  0  0  0999 V2000
   38.5990   32.5300   41.1260 C   0  0  1  0  0  0  0  0  0  0  0  0
   37.5290   31.5190   40.4660 C   0  0  1  0  0  0  0  0  0  0  0  0
   37.8650   31.7090   39.1760 O   0  0  0  0  0  0  0  0  0  0  0  0
   39.2360   31.3280   39.2230 C   0  0  0  0  0  0  0  0  0  0  0  0
   39.7810   32.3050   40.2350 C   0  0  1  0  0  0  0  0  0  0  0  0
   38.7100   32.2900   42.1680 H   0  0  0  0  0  0  0  0  0  0  0  0
   36.6260   31.8770   40.9510 H   0  0  0  0  0  0  0  0  0  0  0  0
   39.3570   30.2810   39.4980 H   0  0  0  0  0  0  0  0  0  0  0  0
   39.6330   31.5060   38.2060 H   0  0  0  0  0  0  0  0  0  0  0  0
   40.6270   31.8070   40.7590 H   0  0  0  0  0  0  0  0  0  0  0  0
   38.0840   33.8010   40.8390 O   0  0  0  0  0  0  0  0  0  0  0  0
   37.6760   33.7510   39.9390 H   0  0  0  0  0  0  0  0  0  0  0  0
   37.9810   30.2660   40.8820 O   0  0  0  0  0  0  0  0  0  0  0  0
   36.8950   28.3840   41.8260 C   0  0  2  0  0  0  0  0  0  0  0  0
   38.2960   27.7140   41.7570 C   0  0  1  0  0  0  0  0  0  0  0  0
   38.7740   28.0870   42.9790 O   0  0  0  0  0  0  0  0  0  0  0  0
   38.5550   29.4790   43.0160 C   0  0  0  0  0  0  0  0  0  0  0  0
   37.4130   29.7900   42.0270 C   0  0  1  0  0  0  0  0  0  0  0  0
   36.3310   28.2360   40.8970 H   0  0  0  0  0  0  0  0  0  0  0  0
   38.7580   28.2150   40.8810 H   0  0  0  0  0  0  0  0  0  0  0  0
   39.4820   29.9510   42.6410 H   0  0  0  0  0  0  0  0  0  0  0  0
   38.3210   29.8440   44.0240 H   0  0  0  0  0  0  0  0  0  0  0  0
   36.6370   30.4440   42.4610 H   0  0  0  0  0  0  0  0  0  0  0  0
   38.6180   23.9270   41.6420 C   0  0  0  0  0  0  0  0  0  0  0  0
   38.9850   25.2370   41.9610 C   0  0  0  0  0  0  0  0  0  0  0  0
   38.1690   26.2670   41.5440 C   0  0  0  0  0  0  0  0  0  0  0  0
   37.0370   25.9310   40.8350 N   0  0  0  0  0  0  0  0  0  0  0  0
   36.7100   24.6590   40.5420 C   0  0  0  0  0  0  0  0  0  0  0  0
   37.5100   23.6550   40.9510 N   0  0  0  0  0  0  0  0  0  0  0  0
   39.3110   23.1780   42.0040 H   0  0  0  0  0  0  0  0  0  0  0  0
   39.8510   25.5770   42.5110 H   0  0  0  0  0  0  0  0  0  0  0  0
   35.8030   24.4480   39.9780 H   0  0  0  0  0  0  0  0  0  0  0  0
   36.2440   28.0350   42.9730 O   0  0  0  0  0  0  0  0  0  0  0  0
   35.3020   27.8120   42.8770 H   0  0  0  0  0  0  0  0  0  0  0  0
   40.1710   33.4620   39.5880 O   0  0  0  0  0  0  0  0  0  0  0  0
   42.4430   34.1200   40.0700 C   0  0  2  0  0  3  0  0  0  0  0  0
   41.5120   33.3020   39.2450 C   0  0  2  0  0  3  0  0  0  0  0  0
   41.7650   33.6930   37.7890 C   0  0  0  0  0  3  0  0  0  0  0  0
   41.3410   34.6660   37.5440 H   0  0  0  0  0  0  0  0  0  0  0  0
   43.1220   33.7240   37.5830 O   0  0  0  0  0  0  0  0  0  0  0  0
   43.8700   32.9870   38.4770 C   0  0  0  0  0  3  0  0  0  0  0  0
   43.6810   31.8980   38.4580 H   0  0  0  0  0  0  0  0  0  0  0  0
   43.8410   33.5630   39.8950 C   0  0  1  0  0  3  0  0  0  0  0  0
   42.0800   34.2740   41.3980 O   0  0  0  0  0  0  0  0  0  0  0  0
   41.5630   35.1120   41.5030 H   0  0  0  0  0  0  0  0  0  0  0  0
   44.8150   34.5340   40.0280 O   0  0  0  0  0  0  0  0  0  0  0  0
   44.4380   35.3990   40.3780 H   0  0  0  0  0  0  0  0  0  0  0  0
  1  6  1  1  0  0  0
  2 13  1  0  0  0  0
  2  7  1  1  0  0  0
  2  1  1  0  0  0  0
  3  4  1  0  0  0  0
  3  2  1  0  0  0  0
  4  8  1  0  0  0  0
  4  5  1  0  0  0  0
  5 10  1  1  0  0  0
  5  1  1  0  0  0  0
  9  4  1  0  0  0  0
 11  1  1  0  0  0  0
 12 11  1  0  0  0  0
 13 18  1  0  0  0  0
 14 19  1  6  0  0  0
 14 18  1  0  0  0  0
 14 33  1  0  0  0  0
 15 20  1  6  0  0  0
 15 14  1  0  0  0  0
 15 16  1  0  0  0  0
 16 17  1  0  0  0  0
 17 22  1  0  0  0  0
 18 23  1  1  0  0  0
 18 17  1  0  0  0  0
 21 17  1  0  0  0  0
 24 25  1  0  0  0  0
 24 30  1  0  0  0  0
 25 31  1  0  0  0  0
 26 15  1  0  0  0  0
 26 25  2  0  0  0  0
 27 26  1  0  0  0  0
 28 27  2  0  0  0  0
 28 29  1  0  0  0  0
 29 24  2  0  0  0  0
 32 28  1  0  0  0  0
 34 33  1  0  0  0  0
 35  5  1  0  0  0  0
 36 44  1  1  0  0  0
 37 35  1  1  0  0  0
 37 36  1  0  0  0  0
 38 37  1  0  0  0  0
 39 38  1  0  0  0  0
 40 38  1  0  0  0  0
 40 41  1  0  0  0  0
 41 43  1  0  0  0  0
 42 41  1  0  0  0  0
 43 46  1  6  0  0  0
 43 36  1  0  0  0  0
 44 45  1  0  0  0  0
 46 47  1  0  0  0  0
M  END
>  <minimizedAffinity>
-6.33087492

$$$$

 OpenBabel03242516363D

 47 50  0  0  1  0  0  0  0  0999 V2000
   36.9440   27.8750   39.3720 C   0  0  1  0  0  0  0  0  0  0  0  0
   35.7950   28.9080   38.9100 C   0  0  1  0  0  0  0  0  0  0  0  0
   35.0720   28.9030   40.0460 O   0  0  0  0  0  0  0  0  0  0  0  0
   36.0640   29.3420   40.9670 C   0  0  0  0  0  0  0  0  0  0  0  0
   37.1140   28.2710   40.8060 C   0  0  1  0  0  0  0  0  0  0  0  0
   37.7940   27.9830   38.7230 H   0  0  0  0  0  0  0  0  0  0  0  0
   35.5110   28.4460   37.9690 H   0  0  0  0  0  0  0  0  0  0  0  0
   36.4110   30.3500   40.7400 H   0  0  0  0  0  0  0  0  0  0  0  0
   35.5820   29.3170   41.9630 H   0  0  0  0  0  0  0  0  0  0  0  0
   38.1030   28.7380   41.0090 H   0  0  0  0  0  0  0  0  0  0  0  0
   36.3060   26.6270   39.3480 O   0  0  0  0  0  0  0  0  0  0  0  0
   35.3750   26.7730   39.6480 H   0  0  0  0  0  0  0  0  0  0  0  0
   36.4830   30.1170   38.8050 O   0  0  0  0  0  0  0  0  0  0  0  0
   37.6480   31.7590   37.5550 C   0  0  2  0  0  0  0  0  0  0  0  0
   38.8950   31.2810   38.3490 C   0  0  1  0  0  0  0  0  0  0  0  0
   39.3220   30.2960   37.5070 O   0  0  0  0  0  0  0  0  0  0  0  0
   38.1680   29.5170   37.2860 C   0  0  0  0  0  0  0  0  0  0  0  0
   36.9470   30.4200   37.5580 C   0  0  1  0  0  0  0  0  0  0  0  0
   37.1120   32.5540   38.0890 H   0  0  0  0  0  0  0  0  0  0  0  0
   38.4530   30.9410   39.3090 H   0  0  0  0  0  0  0  0  0  0  0  0
   38.1840   28.7130   38.0450 H   0  0  0  0  0  0  0  0  0  0  0  0
   38.1320   29.0910   36.2760 H   0  0  0  0  0  0  0  0  0  0  0  0
   36.1870   30.3650   36.7590 H   0  0  0  0  0  0  0  0  0  0  0  0
   40.9360   34.2580   39.5440 C   0  0  0  0  0  0  0  0  0  0  0  0
   39.9120   33.3080   39.5770 C   0  0  0  0  0  0  0  0  0  0  0  0
   39.8370   32.3880   38.5540 C   0  0  0  0  0  0  0  0  0  0  0  0
   40.7880   32.4680   37.5600 N   0  0  0  0  0  0  0  0  0  0  0  0
   41.7630   33.3940   37.5550 C   0  0  0  0  0  0  0  0  0  0  0  0
   41.8330   34.2920   38.5560 N   0  0  0  0  0  0  0  0  0  0  0  0
   40.9250   34.9440   40.3820 H   0  0  0  0  0  0  0  0  0  0  0  0
   39.1360   33.1830   40.3190 H   0  0  0  0  0  0  0  0  0  0  0  0
   42.4900   33.4130   36.7450 H   0  0  0  0  0  0  0  0  0  0  0  0
   37.9710   32.0340   36.2590 O   0  0  0  0  0  0  0  0  0  0  0  0
   37.5880   32.8470   35.8870 H   0  0  0  0  0  0  0  0  0  0  0  0
   36.8380   27.2280   41.6700 O   0  0  0  0  0  0  0  0  0  0  0  0
   38.0470   25.2500   42.3430 C   0  0  2  0  0  3  0  0  0  0  0  0
   38.0630   26.7170   42.0920 C   0  0  2  0  0  3  0  0  0  0  0  0
   38.5200   27.3740   43.3950 C   0  0  0  0  0  3  0  0  0  0  0  0
   37.7370   27.3770   44.1520 H   0  0  0  0  0  0  0  0  0  0  0  0
   39.6070   26.6800   43.8670 O   0  0  0  0  0  0  0  0  0  0  0  0
   40.2920   25.9450   42.9220 C   0  0  0  0  0  3  0  0  0  0  0  0
   40.7590   26.5400   42.1150 H   0  0  0  0  0  0  0  0  0  0  0  0
   39.4800   24.7630   42.3840 C   0  0  1  0  0  3  0  0  0  0  0  0
   37.2450   24.5110   41.4880 O   0  0  0  0  0  0  0  0  0  0  0  0
   36.3500   24.3930   41.8950 H   0  0  0  0  0  0  0  0  0  0  0  0
   39.6410   23.6690   43.2120 O   0  0  0  0  0  0  0  0  0  0  0  0
   38.7570   23.2890   43.5090 H   0  0  0  0  0  0  0  0  0  0  0  0
  1  6  1  6  0  0  0
  1  5  1  0  0  0  0
  2  7  1  6  0  0  0
  2  1  1  0  0  0  0
  2  3  1  0  0  0  0
  3  4  1  0  0  0  0
  4  9  1  0  0  0  0
  5  4  1  0  0  0  0
  5 10  1  1  0  0  0
  5 35  1  0  0  0  0
  8  4  1  0  0  0  0
 11  1  1  0  0  0  0
 11 12  1  0  0  0  0
 13  2  1  0  0  0  0
 14 18  1  0  0  0  0
 14 19  1  1  0  0  0
 14 15  1  0  0  0  0
 15 26  1  0  0  0  0
 15 20  1  1  0  0  0
 16 15  1  0  0  0  0
 17 16  1  0  0  0  0
 17 18  1  0  0  0  0
 17 21  1  0  0  0  0
 18 23  1  6  0  0  0
 18 13  1  0  0  0  0
 22 17  1  0  0  0  0
 24 25  1  0  0  0  0
 24 30  1  0  0  0  0
 25 31  1  0  0  0  0
 26 25  2  0  0  0  0
 27 26  1  0  0  0  0
 28 27  2  0  0  0  0
 28 29  1  0  0  0  0
 29 24  2  0  0  0  0
 32 28  1  0  0  0  0
 33 14  1  0  0  0  0
 34 33  1  0  0  0  0
 36 44  1  6  0  0  0
 36 43  1  0  0  0  0
 37 35  1  1  0  0  0
 37 36  1  0  0  0  0
 37 38  1  0  0  0  0
 38 40  1  0  0  0  0
 38 39  1  0  0  0  0
 41 40  1  0  0  0  0
 42 41  1  0  0  0  0
 43 41  1  0  0  0  0
 43 46  1  1  0  0  0
 44 45  1  0  0  0  0
 46 47  1  0  0  0  0
M  END
>  <minimizedAffinity>
-6.22910881

$$$$

 OpenBabel03242516363D

 47 50  0  0  1  0  0  0  0  0999 V2000
   39.7780   32.2410   40.6840 C   0  0  1  0  0  0  0  0  0  0  0  0
   38.3230   31.8590   40.1000 C   0  0  1  0  0  0  0  0  0  0  0  0
   38.3900   32.5660   38.9560 O   0  0  0  0  0  0  0  0  0  0  0  0
   39.5440   31.9740   38.3710 C   0  0  0  0  0  0  0  0  0  0  0  0
   40.5880   32.2550   39.4240 C   0  0  1  0  0  0  0  0  0  0  0  0
   40.0490   31.5280   41.4410 H   0  0  0  0  0  0  0  0  0  0  0  0
   37.7160   32.1020   40.9680 H   0  0  0  0  0  0  0  0  0  0  0  0
   39.3940   30.9160   38.1580 H   0  0  0  0  0  0  0  0  0  0  0  0
   39.7280   32.5320   37.4340 H   0  0  0  0  0  0  0  0  0  0  0  0
   41.3340   31.4310   39.3840 H   0  0  0  0  0  0  0  0  0  0  0  0
   39.6330   33.5680   41.1100 O   0  0  0  0  0  0  0  0  0  0  0  0
   39.0300   34.0150   40.4650 H   0  0  0  0  0  0  0  0  0  0  0  0
   38.4470   30.5000   39.8120 O   0  0  0  0  0  0  0  0  0  0  0  0
   37.7940   28.2990   40.3990 C   0  0  2  0  0  0  0  0  0  0  0  0
   38.5310   28.5860   41.7370 C   0  0  1  0  0  0  0  0  0  0  0  0
   37.4910   29.1140   42.4460 O   0  0  0  0  0  0  0  0  0  0  0  0
   36.9700   30.1060   41.5920 C   0  0  0  0  0  0  0  0  0  0  0  0
   37.3730   29.7290   40.1520 C   0  0  1  0  0  0  0  0  0  0  0  0
   38.4770   27.8890   39.6440 H   0  0  0  0  0  0  0  0  0  0  0  0
   39.3210   29.3020   41.4280 H   0  0  0  0  0  0  0  0  0  0  0  0
   37.4800   31.0500   41.8620 H   0  0  0  0  0  0  0  0  0  0  0  0
   35.8830   30.2170   41.6860 H   0  0  0  0  0  0  0  0  0  0  0  0
   36.5290   29.7800   39.4440 H   0  0  0  0  0  0  0  0  0  0  0  0
   40.0370   25.7950   43.8350 C   0  0  0  0  0  0  0  0  0  0  0  0
   39.5470   27.0760   43.5640 C   0  0  0  0  0  0  0  0  0  0  0  0
   39.1080   27.3530   42.2880 C   0  0  0  0  0  0  0  0  0  0  0  0
   39.1810   26.3390   41.3580 N   0  0  0  0  0  0  0  0  0  0  0  0
   39.6580   25.1150   41.6490 C   0  0  0  0  0  0  0  0  0  0  0  0
   40.0870   24.8480   42.8970 N   0  0  0  0  0  0  0  0  0  0  0  0
   40.3620   25.6590   44.8590 H   0  0  0  0  0  0  0  0  0  0  0  0
   39.4580   27.9160   44.2370 H   0  0  0  0  0  0  0  0  0  0  0  0
   39.6940   24.3490   40.8770 H   0  0  0  0  0  0  0  0  0  0  0  0
   36.6540   27.5820   40.6140 O   0  0  0  0  0  0  0  0  0  0  0  0
   36.4870   26.8520   39.9940 H   0  0  0  0  0  0  0  0  0  0  0  0
   41.1560   33.4920   39.1850 O   0  0  0  0  0  0  0  0  0  0  0  0
   42.9710   33.2610   37.6100 C   0  0  2  0  0  3  0  0  0  0  0  0
   42.5250   33.2850   39.0300 C   0  0  2  0  0  3  0  0  0  0  0  0
   42.9600   31.9530   39.6430 C   0  0  0  0  0  3  0  0  0  0  0  0
   42.3300   31.1250   39.3190 H   0  0  0  0  0  0  0  0  0  0  0  0
   44.2580   31.7110   39.2660 O   0  0  0  0  0  0  0  0  0  0  0  0
   44.9790   32.8250   38.8890 C   0  0  0  0  0  3  0  0  0  0  0  0
   45.1300   33.5760   39.6860 H   0  0  0  0  0  0  0  0  0  0  0  0
   44.4740   33.4470   37.5850 C   0  0  1  0  0  3  0  0  0  0  0  0
   42.3000   34.1290   36.7630 O   0  0  0  0  0  0  0  0  0  0  0  0
   41.5480   33.6520   36.3310 H   0  0  0  0  0  0  0  0  0  0  0  0
   45.0640   32.8180   36.5050 O   0  0  0  0  0  0  0  0  0  0  0  0
   44.3810   32.4910   35.8420 H   0  0  0  0  0  0  0  0  0  0  0  0
  1 11  1  0  0  0  0
  1  6  1  1  0  0  0
  2  1  1  0  0  0  0
  2  7  1  1  0  0  0
  3  2  1  0  0  0  0
  4  3  1  0  0  0  0
  4  5  1  0  0  0  0
  5 10  1  1  0  0  0
  5  1  1  0  0  0  0
  8  4  1  0  0  0  0
  9  4  1  0  0  0  0
 12 11  1  0  0  0  0
 13  2  1  0  0  0  0
 13 18  1  0  0  0  0
 14 19  1  6  0  0  0
 14 33  1  0  0  0  0
 14 15  1  0  0  0  0
 15 20  1  6  0  0  0
 15 26  1  0  0  0  0
 15 16  1  0  0  0  0
 17 22  1  0  0  0  0
 17 21  1  0  0  0  0
 17 16  1  0  0  0  0
 18 23  1  6  0  0  0
 18 14  1  0  0  0  0
 18 17  1  0  0  0  0
 24 30  1  0  0  0  0
 25 24  1  0  0  0  0
 25 31  1  0  0  0  0
 26 25  2  0  0  0  0
 27 28  2  0  0  0  0
 27 26  1  0  0  0  0
 28 29  1  0  0  0  0
 29 24  2  0  0  0  0
 32 28  1  0  0  0  0
 34 33  1  0  0  0  0
 35  5  1  0  0  0  0
 36 44  1  6  0  0  0
 36 37  1  0  0  0  0
 37 35  1  6  0  0  0
 37 38  1  0  0  0  0
 39 38  1  0  0  0  0
 40 38  1  0  0  0  0
 41 40  1  0  0  0  0
 41 42  1  0  0  0  0
 43 46  1  6  0  0  0
 43 36  1  0  0  0  0
 43 41  1  0  0  0  0
 45 44  1  0  0  0  0
 47 46  1  0  0  0  0
M  END
>  <minimizedAffinity>
-6.22484016

$$$$

 OpenBabel03242516363D

 47 50  0  0  1  0  0  0  0  0999 V2000
   38.5390   33.3100   40.2150 C   0  0  1  0  0  0  0  0  0  0  0  0
   37.4360   32.2940   39.6190 C   0  0  1  0  0  0  0  0  0  0  0  0
   37.9450   32.1720   38.3790 O   0  0  0  0  0  0  0  0  0  0  0  0
   39.2410   31.6760   38.6950 C   0  0  0  0  0  0  0  0  0  0  0  0
   39.7810   32.7850   39.5630 C   0  0  1  0  0  0  0  0  0  0  0  0
   38.4930   33.2860   41.2880 H   0  0  0  0  0  0  0  0  0  0  0  0
   36.5340   32.8350   39.8910 H   0  0  0  0  0  0  0  0  0  0  0  0
   39.1940   30.7030   39.1850 H   0  0  0  0  0  0  0  0  0  0  0  0
   39.7760   31.5930   37.7300 H   0  0  0  0  0  0  0  0  0  0  0  0
   40.4880   32.3280   40.2910 H   0  0  0  0  0  0  0  0  0  0  0  0
   38.2280   34.5360   39.6120 O   0  0  0  0  0  0  0  0  0  0  0  0
   37.9270   34.3380   38.6910 H   0  0  0  0  0  0  0  0  0  0  0  0
   37.6730   31.1190   40.3330 O   0  0  0  0  0  0  0  0  0  0  0  0
   35.7680   29.7240   40.1330 C   0  0  2  0  0  0  0  0  0  0  0  0
   36.7970   28.5590   40.0880 C   0  0  1  0  0  0  0  0  0  0  0  0
   36.8830   28.2970   41.4240 O   0  0  0  0  0  0  0  0  0  0  0  0
   37.1300   29.5590   42.0000 C   0  0  0  0  0  0  0  0  0  0  0  0
   36.6010   30.6230   41.0170 C   0  0  1  0  0  0  0  0  0  0  0  0
   35.5720   30.1260   39.1310 H   0  0  0  0  0  0  0  0  0  0  0  0
   37.6850   29.0410   39.6290 H   0  0  0  0  0  0  0  0  0  0  0  0
   38.2280   29.6620   42.0690 H   0  0  0  0  0  0  0  0  0  0  0  0
   36.6720   29.6690   42.9910 H   0  0  0  0  0  0  0  0  0  0  0  0
   35.9770   31.3890   41.5090 H   0  0  0  0  0  0  0  0  0  0  0  0
   35.9270   25.2530   38.4240 C   0  0  0  0  0  0  0  0  0  0  0  0
   36.5640   26.1060   39.3300 C   0  0  0  0  0  0  0  0  0  0  0  0
   36.2960   27.4550   39.2590 C   0  0  0  0  0  0  0  0  0  0  0  0
   35.4090   27.8760   38.2930 N   0  0  0  0  0  0  0  0  0  0  0  0
   34.8110   27.0300   37.4340 C   0  0  0  0  0  0  0  0  0  0  0  0
   35.0760   25.7120   37.5050 N   0  0  0  0  0  0  0  0  0  0  0  0
   36.1910   24.2100   38.5440 H   0  0  0  0  0  0  0  0  0  0  0  0
   37.2660   25.8510   40.1110 H   0  0  0  0  0  0  0  0  0  0  0  0
   34.1180   27.4150   36.6880 H   0  0  0  0  0  0  0  0  0  0  0  0
   34.6650   29.3720   40.8530 O   0  0  0  0  0  0  0  0  0  0  0  0
   33.8070   29.6280   40.4710 H   0  0  0  0  0  0  0  0  0  0  0  0
   40.3890   33.7350   38.7640 O   0  0  0  0  0  0  0  0  0  0  0  0
   42.6650   33.5530   37.9800 C   0  0  2  0  0  3  0  0  0  0  0  0
   41.7350   33.7640   39.1230 C   0  0  2  0  0  3  0  0  0  0  0  0
   42.0600   32.6800   40.1520 C   0  0  0  0  0  3  0  0  0  0  0  0
   41.6850   31.7020   39.8530 H   0  0  0  0  0  0  0  0  0  0  0  0
   43.4240   32.6190   40.2940 O   0  0  0  0  0  0  0  0  0  0  0  0
   44.1070   33.7560   39.9140 C   0  0  0  0  0  3  0  0  0  0  0  0
   43.8760   34.6600   40.5060 H   0  0  0  0  0  0  0  0  0  0  0  0
   44.0450   34.0110   38.4050 C   0  0  1  0  0  3  0  0  0  0  0  0
   42.2570   34.1000   36.7740 O   0  0  0  0  0  0  0  0  0  0  0  0
   41.7690   33.4160   36.2510 H   0  0  0  0  0  0  0  0  0  0  0  0
   45.0510   33.3090   37.7690 O   0  0  0  0  0  0  0  0  0  0  0  0
   44.6950   32.7380   37.0200 H   0  0  0  0  0  0  0  0  0  0  0  0
  1  6  1  1  0  0  0
  2  7  1  1  0  0  0
  2  1  1  0  0  0  0
  2 13  1  0  0  0  0
  3  4  1  0  0  0  0
  3  2  1  0  0  0  0
  4  8  1  0  0  0  0
  4  5  1  0  0  0  0
  5  1  1  0  0  0  0
  5 10  1  1  0  0  0
  9  4  1  0  0  0  0
 11  1  1  0  0  0  0
 12 11  1  0  0  0  0
 13 18  1  0  0  0  0
 14 19  1  6  0  0  0
 14 33  1  0  0  0  0
 14 18  1  0  0  0  0
 15 20  1  6  0  0  0
 15 14  1  0  0  0  0
 15 16  1  0  0  0  0
 16 17  1  0  0  0  0
 17 21  1  0  0  0  0
 17 22  1  0  0  0  0
 18 23  1  1  0  0  0
 18 17  1  0  0  0  0
 24 30  1  0  0  0  0
 24 25  1  0  0  0  0
 25 31  1  0  0  0  0
 26 25  2  0  0  0  0
 26 15  1  0  0  0  0
 27 26  1  0  0  0  0
 28 29  1  0  0  0  0
 28 27  2  0  0  0  0
 29 24  2  0  0  0  0
 32 28  1  0  0  0  0
 34 33  1  0  0  0  0
 35  5  1  0  0  0  0
 36 44  1  6  0  0  0
 36 43  1  0  0  0  0
 36 37  1  0  0  0  0
 37 35  1  6  0  0  0
 37 38  1  0  0  0  0
 38 40  1  0  0  0  0
 39 38  1  0  0  0  0
 41 40  1  0  0  0  0
 41 42  1  0  0  0  0
 43 46  1  6  0  0  0
 43 41  1  0  0  0  0
 45 44  1  0  0  0  0
 47 46  1  0  0  0  0
M  END
>  <minimizedAffinity>
-6.17539215

$$$$

 OpenBabel03242516363D

 47 50  0  0  1  0  0  0  0  0999 V2000
   38.3780   30.1540   37.7570 C   0  0  1  0  0  0  0  0  0  0  0  0
   38.8030   31.7100   37.7240 C   0  0  1  0  0  0  0  0  0  0  0  0
   38.1230   32.1120   38.8150 O   0  0  0  0  0  0  0  0  0  0  0  0
   38.7060   31.2590   39.7930 C   0  0  0  0  0  0  0  0  0  0  0  0
   38.3800   29.8980   39.2330 C   0  0  1  0  0  0  0  0  0  0  0  0
   39.0670   29.5910   37.1540 H   0  0  0  0  0  0  0  0  0  0  0  0
   38.5510   31.9390   36.6920 H   0  0  0  0  0  0  0  0  0  0  0  0
   39.7720   31.4520   39.9150 H   0  0  0  0  0  0  0  0  0  0  0  0
   38.1680   31.4700   40.7360 H   0  0  0  0  0  0  0  0  0  0  0  0
   39.1900   29.2030   39.5470 H   0  0  0  0  0  0  0  0  0  0  0  0
   37.0440   30.1590   37.3280 O   0  0  0  0  0  0  0  0  0  0  0  0
   36.6250   30.9760   37.6950 H   0  0  0  0  0  0  0  0  0  0  0  0
   40.1660   31.6710   38.0170 O   0  0  0  0  0  0  0  0  0  0  0  0
   41.7930   33.3730   37.7490 C   0  0  2  0  0  0  0  0  0  0  0  0
   42.7210   32.4200   38.5530 C   0  0  1  0  0  0  0  0  0  0  0  0
   43.2520   31.7100   37.5160 O   0  0  0  0  0  0  0  0  0  0  0  0
   42.1240   31.2940   36.7810 C   0  0  0  0  0  0  0  0  0  0  0  0
   40.9790   32.2760   37.1030 C   0  0  1  0  0  0  0  0  0  0  0  0
   41.2210   34.0320   38.4140 H   0  0  0  0  0  0  0  0  0  0  0  0
   42.0030   31.8730   39.1990 H   0  0  0  0  0  0  0  0  0  0  0  0
   41.8490   30.2960   37.1690 H   0  0  0  0  0  0  0  0  0  0  0  0
   42.3170   31.2460   35.7010 H   0  0  0  0  0  0  0  0  0  0  0  0
   40.4610   32.6410   36.2000 H   0  0  0  0  0  0  0  0  0  0  0  0
   44.6600   34.3850   41.1680 C   0  0  0  0  0  0  0  0  0  0  0  0
   43.5660   33.7090   40.6210 C   0  0  0  0  0  0  0  0  0  0  0  0
   43.6860   33.1870   39.3520 C   0  0  0  0  0  0  0  0  0  0  0  0
   44.8880   33.3680   38.7030 N   0  0  0  0  0  0  0  0  0  0  0  0
   45.9240   34.0250   39.2570 C   0  0  0  0  0  0  0  0  0  0  0  0
   45.8030   34.5340   40.4970 N   0  0  0  0  0  0  0  0  0  0  0  0
   44.4850   34.7650   42.1670 H   0  0  0  0  0  0  0  0  0  0  0  0
   42.5990   33.5270   41.0670 H   0  0  0  0  0  0  0  0  0  0  0  0
   46.8530   34.1400   38.7000 H   0  0  0  0  0  0  0  0  0  0  0  0
   42.4820   33.9950   36.7510 O   0  0  0  0  0  0  0  0  0  0  0  0
   42.3010   34.9450   36.6370 H   0  0  0  0  0  0  0  0  0  0  0  0
   37.1380   29.5000   39.6930 O   0  0  0  0  0  0  0  0  0  0  0  0
   37.5400   28.6720   41.9240 C   0  0  2  0  0  3  0  0  0  0  0  0
   37.3410   28.3700   40.4800 C   0  0  2  0  0  3  0  0  0  0  0  0
   38.5750   27.5890   40.0270 C   0  0  0  0  0  3  0  0  0  0  0  0
   39.4480   28.2310   39.9100 H   0  0  0  0  0  0  0  0  0  0  0  0
   38.8430   26.6250   40.9670 O   0  0  0  0  0  0  0  0  0  0  0  0
   37.7750   26.2680   41.7640 C   0  0  0  0  0  3  0  0  0  0  0  0
   36.9250   25.8070   41.2280 H   0  0  0  0  0  0  0  0  0  0  0  0
   37.3340   27.3920   42.7060 C   0  0  1  0  0  3  0  0  0  0  0  0
   36.8000   29.7360   42.4150 O   0  0  0  0  0  0  0  0  0  0  0  0
   37.3410   30.5630   42.3670 H   0  0  0  0  0  0  0  0  0  0  0  0
   38.0870   27.3560   43.8640 O   0  0  0  0  0  0  0  0  0  0  0  0
   38.5080   28.2470   44.0660 H   0  0  0  0  0  0  0  0  0  0  0  0
  1  6  1  6  0  0  0
  1  5  1  0  0  0  0
  2  7  1  6  0  0  0
  2  1  1  0  0  0  0
  2 13  1  0  0  0  0
  2  3  1  0  0  0  0
  3  4  1  0  0  0  0
  4  8  1  0  0  0  0
  4  9  1  0  0  0  0
  5 10  1  1  0  0  0
  5 35  1  0  0  0  0
  5  4  1  0  0  0  0
 11 12  1  0  0  0  0
 11  1  1  0  0  0  0
 14 19  1  1  0  0  0
 14 15  1  0  0  0  0
 15 20  1  1  0  0  0
 15 26  1  0  0  0  0
 16 15  1  0  0  0  0
 17 18  1  0  0  0  0
 17 21  1  0  0  0  0
 17 16  1  0  0  0  0
 18 23  1  6  0  0  0
 18 14  1  0  0  0  0
 18 13  1  0  0  0  0
 22 17  1  0  0  0  0
 24 30  1  0  0  0  0
 25 31  1  0  0  0  0
 25 24  1  0  0  0  0
 26 25  2  0  0  0  0
 27 28  2  0  0  0  0
 27 26  1  0  0  0  0
 28 29  1  0  0  0  0
 29 24  2  0  0  0  0
 32 28  1  0  0  0  0
 33 14  1  0  0  0  0
 34 33  1  0  0  0  0
 36 44  1  1  0  0  0
 36 43  1  0  0  0  0
 37 35  1  6  0  0  0
 37 36  1  0  0  0  0
 38 37  1  0  0  0  0
 38 40  1  0  0  0  0
 39 38  1  0  0  0  0
 40 41  1  0  0  0  0
 41 43  1  0  0  0  0
 42 41  1  0  0  0  0
 43 46  1  1  0  0  0
 45 44  1  0  0  0  0
 46 47  1  0  0  0  0
M  END
>  <minimizedAffinity>
-5.86324978

$$$$

 OpenBabel03242516363D

 47 50  0  0  1  0  0  0  0  0999 V2000
   36.4780   31.1940   40.3760 C   0  0  1  0  0  0  0  0  0  0  0  0
   37.8930   31.3600   41.1330 C   0  0  1  0  0  0  0  0  0  0  0  0
   38.3400   30.1000   40.9710 O   0  0  0  0  0  0  0  0  0  0  0  0
   38.3230   30.0160   39.5510 C   0  0  0  0  0  0  0  0  0  0  0  0
   36.8690   30.2820   39.2540 C   0  0  1  0  0  0  0  0  0  0  0  0
   36.1030   32.1670   40.1180 H   0  0  0  0  0  0  0  0  0  0  0  0
   37.5450   31.8010   42.0620 H   0  0  0  0  0  0  0  0  0  0  0  0
   39.0120   30.7270   39.0940 H   0  0  0  0  0  0  0  0  0  0  0  0
   38.6240   28.9800   39.3060 H   0  0  0  0  0  0  0  0  0  0  0  0
   36.8140   30.7770   38.2590 H   0  0  0  0  0  0  0  0  0  0  0  0
   35.7000   30.4530   41.2760 O   0  0  0  0  0  0  0  0  0  0  0  0
   36.3040   29.8060   41.7170 H   0  0  0  0  0  0  0  0  0  0  0  0
   38.6030   32.2140   40.2890 O   0  0  0  0  0  0  0  0  0  0  0  0
   40.8770   32.7790   40.6410 C   0  0  2  0  0  0  0  0  0  0  0  0
   40.8540   33.2220   39.1520 C   0  0  1  0  0  0  0  0  0  0  0  0
   40.4760   34.5220   39.3200 O   0  0  0  0  0  0  0  0  0  0  0  0
   39.3370   34.4380   40.1460 C   0  0  0  0  0  0  0  0  0  0  0  0
   39.4270   33.1040   40.9140 C   0  0  1  0  0  0  0  0  0  0  0  0
   41.1320   31.7160   40.7410 H   0  0  0  0  0  0  0  0  0  0  0  0
   40.0910   32.5470   38.7120 H   0  0  0  0  0  0  0  0  0  0  0  0
   38.4640   34.3940   39.4690 H   0  0  0  0  0  0  0  0  0  0  0  0
   39.2480   35.2890   40.8320 H   0  0  0  0  0  0  0  0  0  0  0  0
   39.2400   33.2200   41.9960 H   0  0  0  0  0  0  0  0  0  0  0  0
   43.9110   32.1070   37.1840 C   0  0  0  0  0  0  0  0  0  0  0  0
   42.5950   32.0520   37.6510 C   0  0  0  0  0  0  0  0  0  0  0  0
   42.1700   33.0240   38.5300 C   0  0  0  0  0  0  0  0  0  0  0  0
   43.0810   33.9920   38.8920 N   0  0  0  0  0  0  0  0  0  0  0  0
   44.3420   34.0180   38.4260 C   0  0  0  0  0  0  0  0  0  0  0  0
   44.7540   33.0670   37.5670 N   0  0  0  0  0  0  0  0  0  0  0  0
   44.1660   31.3080   36.4980 H   0  0  0  0  0  0  0  0  0  0  0  0
   41.8280   31.3290   37.4120 H   0  0  0  0  0  0  0  0  0  0  0  0
   45.0220   34.8070   38.7440 H   0  0  0  0  0  0  0  0  0  0  0  0
   41.6240   33.6370   41.3930 O   0  0  0  0  0  0  0  0  0  0  0  0
   42.2200   33.2260   42.0430 H   0  0  0  0  0  0  0  0  0  0  0  0
   36.1710   29.0890   39.2880 O   0  0  0  0  0  0  0  0  0  0  0  0
   33.9440   28.7690   38.4130 C   0  0  2  0  0  3  0  0  0  0  0  0
   35.3800   29.0500   38.1420 C   0  0  2  0  0  3  0  0  0  0  0  0
   35.8570   27.9690   37.1710 C   0  0  0  0  0  3  0  0  0  0  0  0
   36.0010   27.0080   37.6640 H   0  0  0  0  0  0  0  0  0  0  0  0
   34.9170   27.8370   36.1800 O   0  0  0  0  0  0  0  0  0  0  0  0
   34.0910   28.9270   36.0020 C   0  0  0  0  0  3  0  0  0  0  0  0
   34.6030   29.8530   35.6820 H   0  0  0  0  0  0  0  0  0  0  0  0
   33.1470   29.1580   37.1850 C   0  0  1  0  0  3  0  0  0  0  0  0
   33.4430   29.3170   39.5840 O   0  0  0  0  0  0  0  0  0  0  0  0
   33.5100   28.6510   40.3140 H   0  0  0  0  0  0  0  0  0  0  0  0
   32.0070   28.3910   37.0330 O   0  0  0  0  0  0  0  0  0  0  0  0
   31.8230   27.8280   37.8460 H   0  0  0  0  0  0  0  0  0  0  0  0
  1  6  1  6  0  0  0
  1  2  1  0  0  0  0
  1 11  1  0  0  0  0
  2  7  1  1  0  0  0
  3  2  1  0  0  0  0
  4  3  1  0  0  0  0
  5 10  1  6  0  0  0
  5 35  1  0  0  0  0
  5  4  1  0  0  0  0
  5  1  1  0  0  0  0
  8  4  1  0  0  0  0
  9  4  1  0  0  0  0
 11 12  1  0  0  0  0
 13 18  1  0  0  0  0
 13  2  1  0  0  0  0
 14 19  1  1  0  0  0
 14 18  1  0  0  0  0
 14 33  1  0  0  0  0
 15 20  1  6  0  0  0
 15 16  1  0  0  0  0
 15 14  1  0  0  0  0
 16 17  1  0  0  0  0
 17 22  1  0  0  0  0
 17 18  1  0  0  0  0
 18 23  1  1  0  0  0
 21 17  1  0  0  0  0
 24 29  2  0  0  0  0
 24 25  1  0  0  0  0
 25 26  2  0  0  0  0
 26 27  1  0  0  0  0
 26 15  1  0  0  0  0
 28 32  1  0  0  0  0
 28 27  2  0  0  0  0
 29 28  1  0  0  0  0
 30 24  1  0  0  0  0
 31 25  1  0  0  0  0
 33 34  1  0  0  0  0
 36 44  1  1  0  0  0
 37 36  1  0  0  0  0
 37 35  1  1  0  0  0
 38 39  1  0  0  0  0
 38 37  1  0  0  0  0
 40 38  1  0  0  0  0
 41 40  1  0  0  0  0
 41 43  1  0  0  0  0
 42 41  1  0  0  0  0
 43 46  1  6  0  0  0
 43 36  1  0  0  0  0
 44 45  1  0  0  0  0
 46 47  1  0  0  0  0
M  END
>  <minimizedAffinity>
-5.85936022

$$$$
