
     RDKit          3D

 27 28  0  0  0  0  0  0  0  0999 V2000
   44.6636   36.0714   44.2603 C   0  0  0  0  0  0  0  0  0  0  0  0
   45.4969   35.5591   43.2321 C   0  0  0  0  0  0  0  0  0  0  0  0
   46.2028   34.3592   43.4919 C   0  0  0  0  0  0  0  0  0  0  0  0
   46.0240   33.7917   44.7126 N   0  0  0  0  0  0  0  0  0  0  0  0
   45.2239   34.3107   45.6595 C   0  0  0  0  0  0  0  0  0  0  0  0
   44.5571   35.4378   45.4235 N   0  0  0  0  0  0  0  0  0  0  0  0
   45.0476   33.7191   46.9102 O   0  0  0  0  0  0  0  0  0  0  0  0
   44.1703   36.9717   43.9874 H   0  0  0  0  0  0  0  0  0  0  0  0
   45.6353   36.0203   42.2551 H   0  0  0  0  0  0  0  0  0  0  0  0
   46.8487   33.9320   42.7397 H   0  0  0  0  0  0  0  0  0  0  0  0
   44.0469   31.1963   48.1281 O   0  0  0  0  0  0  0  0  0  0  0  0
   44.8608   31.3366   47.0060 C   0  0  1  0  0  0  0  0  0  0  0  0
   45.7748   32.5108   47.1369 C   0  0  1  0  0  0  0  0  0  0  0  0
   46.9092   32.3733   46.1355 C   0  0  2  0  0  0  0  0  0  0  0  0
   47.8704   32.0593   46.6245 H   0  0  0  0  0  0  0  0  0  0  0  0
   46.5674   31.5537   45.0787 O   0  0  0  0  0  0  0  0  0  0  0  0
   46.3866   30.2306   45.4536 C   0  0  1  0  0  0  0  0  0  0  0  0
   45.7131   29.7646   44.7002 H   0  0  0  0  0  0  0  0  0  0  0  0
   45.7096   30.0993   46.7957 C   0  0  2  0  0  0  0  0  0  0  0  0
   44.8182   29.0046   46.8027 O   0  0  0  0  0  0  0  0  0  0  0  0
   43.4586   30.4076   48.0069 H   0  0  0  0  0  0  0  0  0  0  0  0
   44.2280   31.4255   46.0897 H   0  0  0  0  0  0  0  0  0  0  0  0
   46.2540   32.5160   48.1302 H   0  0  0  0  0  0  0  0  0  0  0  0
   47.0882   33.3890   45.7187 H   0  0  0  0  0  0  0  0  0  0  0  0
   47.3099   29.6451   45.4562 H   0  0  0  0  0  0  0  0  0  0  0  0
   46.4043   30.0422   47.6393 H   0  0  0  0  0  0  0  0  0  0  0  0
   45.0310   28.4529   47.5988 H   0  0  0  0  0  0  0  0  0  0  0  0
  1  6  2  0
  2  3  2  0
  2  1  1  0
  3  4  1  0
  4  5  2  0
  5  7  1  0
  6  5  1  0
  1  8  1  0
  2  9  1  0
  3 10  1  0
 11 12  1  0
 12 13  1  0
 13 14  1  0
 14 15  1  1
 14 16  1  0
 16 17  1  0
 17 18  1  6
 17 19  1  0
 19 20  1  0
 19 12  1  0
 11 21  1  0
 12 22  1  6
 13 23  1  1
 14 24  1  0
 17 25  1  0
 19 26  1  1
 20 27  1  0
  7 13  1  0
M  ISO  5   8  14   9  14  10  14  15   8  18   8
M  END
>  <DihAtoms>  (1) 
4,6,12,11

>  <DihDeg>  (1) 
122.44779480635822

$$$$
