
 OpenBabel03252507103D

 39 41  0  0  1  0  0  0  0  0999 V2000
   44.7190   35.4180   44.2370 C   0  0  0  0  0  0  0  0  0  0  0  0
   45.5180   35.5160   43.0770 C   0  0  0  0  0  0  0  0  0  0  0  0
   46.6680   34.7230   43.0250 C   0  0  0  0  0  0  0  0  0  0  0  0
   46.9540   33.9190   44.0660 N   0  0  0  0  0  0  0  0  0  0  0  0
   46.1820   33.8430   45.1560 C   0  0  0  0  0  0  0  0  0  0  0  0
   45.0560   34.6020   45.2360 N   0  0  0  0  0  0  0  0  0  0  0  0
   43.8100   36.0170   44.3280 H   0  0  0  0  0  0  0  0  0  0  0  0
   45.1860   36.1990   42.3030 H   0  0  0  0  0  0  0  0  0  0  0  0
   45.2750   32.7110   47.2040 C   0  0  1  0  0  0  0  0  0  0  0  0
   46.4570   32.9850   46.3240 C   0  0  1  0  0  0  0  0  0  0  0  0
   46.7360   31.5430   45.8510 C   0  0  0  0  0  0  0  0  0  0  0  0
   46.3620   30.7150   46.8590 O   0  0  0  0  0  0  0  0  0  0  0  0
   45.7800   31.4500   47.8890 C   0  0  0  0  0  0  0  0  0  0  0  0
   44.3650   32.4560   46.6230 H   0  0  0  0  0  0  0  0  0  0  0  0
   47.3050   33.3830   46.8730 H   0  0  0  0  0  0  0  0  0  0  0  0
   47.8350   31.4820   45.7100 H   0  0  0  0  0  0  0  0  0  0  0  0
   46.2710   31.3500   44.8660 H   0  0  0  0  0  0  0  0  0  0  0  0
   46.5060   31.6570   48.6740 H   0  0  0  0  0  0  0  0  0  0  0  0
   44.8800   30.8900   48.2180 H   0  0  0  0  0  0  0  0  0  0  0  0
   44.9440   33.7290   48.0490 O   0  0  0  0  0  0  0  0  0  0  0  0
   45.2650   33.4680   48.9700 H   0  0  0  0  0  0  0  0  0  0  0  0
   47.4310   34.8350   41.8820 O   0  0  0  0  0  0  0  0  0  0  0  0
   47.6910   32.2020   41.5920 O   0  0  0  0  0  0  0  0  0  0  0  0
   48.4010   33.5260   41.3760 P   0  0  1  0  0  0  0  0  0  0  0  0
   48.8090   33.7630   39.7700 O   0  0  0  0  0  0  0  0  0  0  0  0
   49.2750   34.6400   39.7250 H   0  0  0  0  0  0  0  0  0  0  0  0
   49.7950   33.5580   42.3610 O   0  0  0  0  0  0  0  0  0  0  0  0
   49.2380   31.2360   42.1800 C   0  0  1  0  0  3  0  0  0  0  0  0
   50.3550   32.2810   42.2950 C   0  0  1  0  0  3  0  0  0  0  0  0
   51.3130   32.0930   41.1640 C   0  0  0  0  0  3  0  0  0  0  0  0
   51.9260   31.1880   41.3970 H   0  0  0  0  0  0  0  0  0  0  0  0
   50.7130   31.8510   39.9350 O   0  0  0  0  0  0  0  0  0  0  0  0
   50.0840   30.6240   39.9100 C   0  0  0  0  0  3  0  0  0  0  0  0
   49.1100   30.7490   39.3910 H   0  0  0  0  0  0  0  0  0  0  0  0
   49.7380   30.1120   41.2970 C   0  0  2  0  0  3  0  0  0  0  0  0
   48.9280   30.6890   43.4230 O   0  0  0  0  0  0  0  0  0  0  0  0
   49.7580   30.4250   43.8960 H   0  0  0  0  0  0  0  0  0  0  0  0
   48.7580   29.1410   41.2410 O   0  0  0  0  0  0  0  0  0  0  0  0
   48.0340   29.4650   40.6420 H   0  0  0  0  0  0  0  0  0  0  0  0
  1  7  1  0  0  0  0
  1  6  1  0  0  0  0
  2  1  2  0  0  0  0
  3  2  1  0  0  0  0
  3  4  2  0  0  0  0
  4  5  1  0  0  0  0
  5  6  2  0  0  0  0
  5 10  1  0  0  0  0
  8  2  1  0  0  0  0
  9 14  1  6  0  0  0
  9 13  1  0  0  0  0
  9 20  1  0  0  0  0
 10 15  1  1  0  0  0
 10  9  1  0  0  0  0
 11 10  1  0  0  0  0
 11 12  1  0  0  0  0
 12 13  1  0  0  0  0
 13 19  1  0  0  0  0
 13 18  1  0  0  0  0
 16 11  1  0  0  0  0
 17 11  1  0  0  0  0
 20 21  1  0  0  0  0
 22  3  1  0  0  0  0
 24 23  2  1  0  0  0
 24 22  1  0  0  0  0
 24 27  1  0  0  0  0
 25 24  1  0  0  0  0
 26 25  1  0  0  0  0
 28 29  1  0  0  0  0
 28 36  1  1  0  0  0
 29 27  1  6  0  0  0
 30 31  1  0  0  0  0
 30 29  1  0  0  0  0
 32 30  1  0  0  0  0
 33 32  1  0  0  0  0
 33 35  1  0  0  0  0
 34 33  1  0  0  0  0
 35 38  1  6  0  0  0
 35 28  1  0  0  0  0
 36 37  1  0  0  0  0
 39 38  1  0  0  0  0
M  END
>  <minimizedAffinity>
-5.48439693

>  <minimizedRMSD>
1.47712159

$$$$
