
 OpenBabel03242510483D

 42 44  0  0  1  0  0  0  0  0999 V2000
   49.4420   32.6260   41.2680 C   0  0  1  0  0  0  0  0  0  0  0  0
   50.2800   31.8860   40.3050 C   0  0  2  0  0  0  0  0  0  0  0  0
   49.5030   30.9490   39.5530 O   0  0  0  0  0  0  0  0  0  0  0  0
   49.1630   29.9440   40.4640 C   0  0  0  0  0  0  0  0  0  0  0  0
   48.1340   30.4630   41.4450 C   0  0  1  0  0  0  0  0  0  0  0  0
   48.0890   31.9610   41.4940 C   0  0  1  0  0  0  0  0  0  0  0  0
   49.2200   33.6530   40.9070 H   0  0  0  0  0  0  0  0  0  0  0  0
   50.6640   32.5530   39.4900 H   0  0  0  0  0  0  0  0  0  0  0  0
   50.0840   29.7090   41.0400 H   0  0  0  0  0  0  0  0  0  0  0  0
   48.7960   29.0240   39.9450 H   0  0  0  0  0  0  0  0  0  0  0  0
   48.3130   30.0400   42.4550 H   0  0  0  0  0  0  0  0  0  0  0  0
   47.3540   32.3740   40.7560 H   0  0  0  0  0  0  0  0  0  0  0  0
   50.1050   32.7950   42.5000 O   0  0  0  0  0  0  0  0  0  0  0  0
   50.3540   31.9260   42.8970 H   0  0  0  0  0  0  0  0  0  0  0  0
   46.8930   29.9990   40.9710 O   0  0  0  0  0  0  0  0  0  0  0  0
   46.9200   30.1160   39.9750 H   0  0  0  0  0  0  0  0  0  0  0  0
   51.3600   31.1450   40.8600 O   0  0  0  0  0  0  0  0  0  0  0  0
   54.0920   29.3240   39.4270 C   0  0  0  0  0  0  0  0  0  0  0  0
   54.5370   30.1560   38.3870 C   0  0  0  0  0  0  0  0  0  0  0  0
   53.8710   31.3640   38.1920 C   0  0  0  0  0  0  0  0  0  0  0  0
   52.8330   31.6730   39.0120 N   0  0  0  0  0  0  0  0  0  0  0  0
   52.4220   30.8750   39.9930 C   0  0  0  0  0  0  0  0  0  0  0  0
   53.0590   29.6980   40.1960 N   0  0  0  0  0  0  0  0  0  0  0  0
   55.3610   29.9220   37.7290 H   0  0  0  0  0  0  0  0  0  0  0  0
   54.1390   32.0670   37.4220 H   0  0  0  0  0  0  0  0  0  0  0  0
   54.8120   28.0250   39.6260 C   0  0  0  0  0  0  0  0  0  0  0  0
   55.4230   27.9750   40.8420 F   0  0  0  0  0  0  0  0  0  0  0  0
   53.8960   26.9970   39.4520 F   0  0  0  0  0  0  0  0  0  0  0  0
   55.7460   27.8640   38.5700 F   0  0  0  0  0  0  0  0  0  0  0  0
   47.6450   32.3310   42.7730 O   0  0  0  0  0  0  0  0  0  0  0  0
   45.4890   33.1870   42.7990 C   0  0  2  0  0  3  0  0  0  0  0  0
   46.3490   31.9480   43.0330 C   0  0  2  0  0  3  0  0  0  0  0  0
   46.2570   31.6640   44.5250 C   0  0  0  0  0  3  0  0  0  0  0  0
   45.2110   31.5650   44.8750 H   0  0  0  0  0  0  0  0  0  0  0  0
   46.8850   32.7280   45.1690 O   0  0  0  0  0  0  0  0  0  0  0  0
   46.1630   33.9120   45.0350 C   0  0  0  0  0  3  0  0  0  0  0  0
   45.1180   33.7830   45.3250 H   0  0  0  0  0  0  0  0  0  0  0  0
   46.1870   34.3000   43.5620 C   0  0  2  0  0  3  0  0  0  0  0  0
   44.2220   33.0060   43.3870 O   0  0  0  0  0  0  0  0  0  0  0  0
   43.6090   33.6690   43.0260 H   0  0  0  0  0  0  0  0  0  0  0  0
   45.6810   35.5490   43.3160 O   0  0  0  0  0  0  0  0  0  0  0  0
   46.3970   36.2480   43.3580 H   0  0  0  0  0  0  0  0  0  0  0  0
  1  7  1  6  0  0  0
  1  6  1  0  0  0  0
  1 13  1  0  0  0  0
  2  8  1  6  0  0  0
  2 17  1  0  0  0  0
  2  1  1  0  0  0  0
  3  2  1  0  0  0  0
  3  4  1  0  0  0  0
  4  9  1  0  0  0  0
  4  5  1  0  0  0  0
  5  6  1  0  0  0  0
  5 11  1  1  0  0  0
  6 12  1  6  0  0  0
  6 30  1  0  0  0  0
 10  4  1  0  0  0  0
 13 14  1  0  0  0  0
 15  5  1  0  0  0  0
 16 15  1  0  0  0  0
 18 26  1  0  0  0  0
 18 23  1  0  0  0  0
 19 18  2  0  0  0  0
 20 19  1  0  0  0  0
 20 21  2  0  0  0  0
 21 22  1  0  0  0  0
 22 23  2  0  0  0  0
 22 17  1  0  0  0  0
 24 19  1  0  0  0  0
 25 20  1  0  0  0  0
 26 27  1  0  0  0  0
 28 26  1  0  0  0  0
 29 26  1  0  0  0  0
 31 32  1  0  0  0  0
 31 39  1  1  0  0  0
 31 38  1  0  0  0  0
 32 30  1  1  0  0  0
 32 33  1  0  0  0  0
 33 34  1  0  0  0  0
 33 35  1  0  0  0  0
 36 35  1  0  0  0  0
 36 37  1  0  0  0  0
 38 41  1  1  0  0  0
 38 36  1  0  0  0  0
 40 39  1  0  0  0  0
 41 42  1  0  0  0  0
M  END
>  <minimizedAffinity>
-3.75948715

>  <minimizedRMSD>
4.87603283

$$$$
