
 OpenBabel03252509293D

 20 21  0  0  0  0  0  0  0  0999 V2000
   45.8050   35.2850   42.8840 C   0  0  0  0  0  0  0  0  0  0  0  0
   45.8890   36.3790   42.9700 H   0  0  0  0  0  0  0  0  0  0  0  0
   45.3990   34.8430   43.8350 H   0  0  0  0  0  0  0  0  0  0  0  0
   49.3220   34.8980   41.7290 C   0  0  0  0  0  0  0  0  0  0  0  0
   48.0440   35.4540   41.9280 C   0  0  0  0  0  0  0  0  0  0  0  0
   47.1350   34.7200   42.6700 C   0  0  0  0  0  0  0  0  0  0  0  0
   47.5130   33.4970   43.1740 N   0  0  0  0  0  0  0  0  0  0  0  0
   48.7680   33.0120   42.9460 C   0  0  0  0  0  0  0  0  0  0  0  0
   49.6610   33.7040   42.2330 N   0  0  0  0  0  0  0  0  0  0  0  0
   50.0020   35.5090   41.1420 H   0  0  0  0  0  0  0  0  0  0  0  0
   47.7770   36.4190   41.5190 H   0  0  0  0  0  0  0  0  0  0  0  0
   48.9210   32.0400   43.4030 H   0  0  0  0  0  0  0  0  0  0  0  0
   44.8410   34.9820   41.8060 C   0  0  0  0  0  0  0  0  0  0  0  0
   43.6450   35.6260   41.5680 C   0  0  0  0  0  0  0  0  0  0  0  0
   43.4040   36.4450   42.2610 H   0  0  0  0  0  0  0  0  0  0  0  0
   42.8040   35.2770   40.5360 C   0  0  0  0  0  0  0  0  0  0  0  0
   41.8740   35.8450   40.4230 H   0  0  0  0  0  0  0  0  0  0  0  0
   43.1250   34.2440   39.6730 C   0  0  0  0  0  3  0  0  0  0  0  0
   44.3310   33.6150   39.9370 C   0  0  0  0  0  3  0  0  0  0  0  0
   45.1310   33.9750   40.9480 N   0  0  0  0  0  0  0  0  0  0  0  0
  1  2  1  0  0  0  0
  1  3  1  0  0  0  0
  4  5  2  0  0  0  0
  4  9  1  0  0  0  0
  5  6  1  0  0  0  0
  6  1  1  0  0  0  0
  6  7  2  0  0  0  0
  8  7  1  0  0  0  0
  8 12  1  0  0  0  0
  9  8  2  0  0  0  0
 10  4  1  0  0  0  0
 11  5  1  0  0  0  0
 13  1  1  0  0  0  0
 14 13  1  0  0  0  0
 14 15  1  0  0  0  0
 16 14  2  0  0  0  0
 17 16  1  0  0  0  0
 18 19  2  0  0  0  0
 18 16  1  0  0  0  0
 19 20  1  0  0  0  0
 20 13  2  0  0  0  0
M  END
>  <minimizedAffinity>
-3.68183589

>  <minimizedRMSD>
5.12850189

$$$$
