REMARK  Name = 
REMARK  2 active torsions:
REMARK  status: ('A' for Active; 'I' for Inactive)
REMARK    1  A    between atoms: C_3  and  C_7
REMARK    2  A    between atoms: C_7  and  C_13
REMARK                            x       y       z     vdW  Elec       q    Type
REMARK                         _______ _______ _______ _____ _____    ______ ____
ROOT
ATOM      1  C   UNL     1      46.963  34.770  41.930  0.00  0.00    +0.000 C 
ATOM      2  H   UNL     1      46.370  35.188  41.102  0.00  0.00    +0.000 HD
ATOM      3  H   UNL     1      47.179  33.681  41.751  0.00  0.00    +0.000 HD
ENDROOT
BRANCH   1   6
ATOM      4  C   UNL     1      44.566  36.004  44.495  0.00  0.00    +0.000 A 
ATOM      5  C   UNL     1      45.304  35.922  43.300  0.00  0.00    +0.000 A 
ATOM      6  C   UNL     1      46.190  34.867  43.165  0.00  0.00    +0.000 A 
ATOM      7  N   UNL     1      46.310  33.958  44.190  0.00  0.00    +0.000 NA
ATOM      8  C   UNL     1      45.565  34.092  45.326  0.00  0.00    +0.000 A 
ATOM      9  N   UNL     1      44.704  35.102  45.477  0.00  0.00    +0.000 NA
ATOM     10  H   UNL     1      43.883  36.847  44.556  0.00  0.00    +0.000 HD
ATOM     11  H   UNL     1      45.187  36.653  42.511  0.00  0.00    +0.000 HD
ATOM     12  H   UNL     1      45.766  33.304  46.044  0.00  0.00    +0.000 HD
ENDBRANCH   1   6
BRANCH   1  13
ATOM     13  C   UNL     1      48.258  35.480  41.971  0.00  0.00    +0.000 A 
ATOM     14  C   UNL     1      48.914  36.057  40.904  0.00  0.00    +0.000 A 
ATOM     15  H   UNL     1      48.404  35.969  39.934  0.00  0.00    +0.000 HD
ATOM     16  C   UNL     1      50.123  36.701  41.034  0.00  0.00    +0.000 A 
ATOM     17  H   UNL     1      50.570  37.130  40.130  0.00  0.00    +0.000 HD
ATOM     18  C   UNL     1      50.749  36.802  42.264  0.00  0.00    +0.000 A 
ATOM     19  C   UNL     1      50.068  36.213  43.316  0.00  0.00    +0.000 A 
ATOM     20  N   UNL     1      48.892  35.592  43.163  0.00  0.00    +0.000 NA
ENDBRANCH   1  13
TORSDOF 2
