
 OpenBabel03252502373D

 23 24  0  0  1  0  0  0  0  0999 V2000
   37.9070   28.0460   43.6180 C   0  0  2  0  0  0  0  0  0  0  0  0
   38.1980   28.3700   44.6400 H   0  0  0  0  0  0  0  0  0  0  0  0
   36.9720   29.4970   41.8530 C   0  0  0  0  0  0  0  0  0  0  0  0
   38.0490   29.1880   42.7180 C   0  0  0  0  0  0  0  0  0  0  0  0
   39.2060   30.0080   42.6610 C   0  0  0  0  0  0  0  0  0  0  0  0
   39.1980   31.0370   41.7730 N   0  0  0  0  0  0  0  0  0  0  0  0
   38.1530   31.2830   40.9800 C   0  0  0  0  0  0  0  0  0  0  0  0
   37.0530   30.5240   41.0180 N   0  0  0  0  0  0  0  0  0  0  0  0
   36.0590   28.9190   41.8400 H   0  0  0  0  0  0  0  0  0  0  0  0
   40.0260   29.7620   43.3300 H   0  0  0  0  0  0  0  0  0  0  0  0
   38.3920   32.1590   40.3620 H   0  0  0  0  0  0  0  0  0  0  0  0
   38.7080   26.8650   43.2910 C   0  0  0  0  0  0  0  0  0  0  0  0
   40.0330   26.6540   43.6800 C   0  0  0  0  0  0  0  0  0  0  0  0
   40.5000   27.4370   44.2750 H   0  0  0  0  0  0  0  0  0  0  0  0
   40.6800   25.4830   43.2990 C   0  0  0  0  0  0  0  0  0  0  0  0
   41.6980   25.3590   43.6180 H   0  0  0  0  0  0  0  0  0  0  0  0
   39.9700   24.5540   42.5330 C   0  0  0  0  0  3  0  0  0  0  0  0
   38.6480   24.7960   42.1630 C   0  0  0  0  0  3  0  0  0  0  0  0
   38.0730   25.9330   42.5520 N   0  0  0  0  0  0  0  0  0  0  0  0
   36.4360   27.6930   43.6780 C   0  0  0  0  0  0  0  0  0  0  0  0
   35.8500   28.5960   43.8950 H   0  0  0  0  0  0  0  0  0  0  0  0
   36.1780   27.2480   42.6860 H   0  0  0  0  0  0  0  0  0  0  0  0
   36.2310   26.9130   44.4630 H   0  0  0  0  0  0  0  0  0  0  0  0
  1 20  1  0  0  0  0
  1  2  1  1  0  0  0
  3  4  1  0  0  0  0
  4  1  1  0  0  0  0
  5  4  2  0  0  0  0
  5 10  1  0  0  0  0
  6  5  1  0  0  0  0
  7  8  1  0  0  0  0
  7  6  2  0  0  0  0
  8  3  2  0  0  0  0
  9  3  1  0  0  0  0
 11  7  1  0  0  0  0
 12  1  1  0  0  0  0
 12 13  1  0  0  0  0
 13 14  1  0  0  0  0
 15 16  1  0  0  0  0
 15 13  2  0  0  0  0
 17 15  1  0  0  0  0
 18 17  2  0  0  0  0
 18 19  1  0  0  0  0
 19 12  2  0  0  0  0
 20 21  1  0  0  0  0
 20 23  1  0  0  0  0
 22 20  1  0  0  0  0
M  END
>  <minimizedAffinity>
-4.47991896

$$$$

 OpenBabel03252502373D

 23 24  0  0  1  0  0  0  0  0999 V2000
   35.9210   29.9700   40.5870 C   0  0  2  0  0  0  0  0  0  0  0  0
   35.4850   30.8460   41.1140 H   0  0  0  0  0  0  0  0  0  0  0  0
   36.9040   31.8570   39.3330 C   0  0  0  0  0  0  0  0  0  0  0  0
   36.7160   30.4600   39.4630 C   0  0  0  0  0  0  0  0  0  0  0  0
   37.3140   29.6140   38.4930 C   0  0  0  0  0  0  0  0  0  0  0  0
   38.0280   30.2100   37.5010 N   0  0  0  0  0  0  0  0  0  0  0  0
   38.1720   31.5350   37.4260 C   0  0  0  0  0  0  0  0  0  0  0  0
   37.6180   32.3500   38.3310 N   0  0  0  0  0  0  0  0  0  0  0  0
   36.4800   32.5620   40.0330 H   0  0  0  0  0  0  0  0  0  0  0  0
   37.1640   28.5440   38.6020 H   0  0  0  0  0  0  0  0  0  0  0  0
   38.7860   31.7630   36.5450 H   0  0  0  0  0  0  0  0  0  0  0  0
   36.6390   29.1750   41.5850 C   0  0  0  0  0  0  0  0  0  0  0  0
   36.3370   27.8580   41.9380 C   0  0  0  0  0  0  0  0  0  0  0  0
   35.4980   27.3920   41.4230 H   0  0  0  0  0  0  0  0  0  0  0  0
   37.1020   27.2150   42.9060 C   0  0  0  0  0  0  0  0  0  0  0  0
   36.8380   26.2040   43.1490 H   0  0  0  0  0  0  0  0  0  0  0  0
   38.1550   27.9230   43.4930 C   0  0  0  0  0  3  0  0  0  0  0  0
   38.4290   29.2370   43.1170 C   0  0  0  0  0  3  0  0  0  0  0  0
   37.6660   29.8080   42.1850 N   0  0  0  0  0  0  0  0  0  0  0  0
   34.7590   29.1860   40.0140 C   0  0  0  0  0  0  0  0  0  0  0  0
   34.2520   29.7870   39.2480 H   0  0  0  0  0  0  0  0  0  0  0  0
   35.1900   28.2430   39.5990 H   0  0  0  0  0  0  0  0  0  0  0  0
   34.0230   28.8970   40.8160 H   0  0  0  0  0  0  0  0  0  0  0  0
  1  2  1  1  0  0  0
  1 12  1  0  0  0  0
  3  4  1  0  0  0  0
  3  9  1  0  0  0  0
  4  1  1  0  0  0  0
  5 10  1  0  0  0  0
  5  4  2  0  0  0  0
  6  5  1  0  0  0  0
  7  6  2  0  0  0  0
  7  8  1  0  0  0  0
  8  3  2  0  0  0  0
 11  7  1  0  0  0  0
 12 13  2  0  0  0  0
 12 19  1  0  0  0  0
 13 15  1  0  0  0  0
 14 13  1  0  0  0  0
 15 16  1  0  0  0  0
 15 17  2  0  0  0  0
 18 17  1  0  0  0  0
 19 18  2  0  0  0  0
 20  1  1  0  0  0  0
 20 23  1  0  0  0  0
 21 20  1  0  0  0  0
 22 20  1  0  0  0  0
M  END
>  <minimizedAffinity>
-4.46050549

$$$$

 OpenBabel03252502373D

 23 24  0  0  1  0  0  0  0  0999 V2000
   35.7640   29.8950   40.5340 C   0  0  2  0  0  0  0  0  0  0  0  0
   35.3140   30.6820   41.1760 H   0  0  0  0  0  0  0  0  0  0  0  0
   36.6890   29.8230   38.2460 C   0  0  0  0  0  0  0  0  0  0  0  0
   36.4850   30.5480   39.4450 C   0  0  0  0  0  0  0  0  0  0  0  0
   36.9930   31.8710   39.5180 C   0  0  0  0  0  0  0  0  0  0  0  0
   37.6440   32.3510   38.4240 N   0  0  0  0  0  0  0  0  0  0  0  0
   37.8080   31.6220   37.3180 C   0  0  0  0  0  0  0  0  0  0  0  0
   37.3360   30.3730   37.2280 N   0  0  0  0  0  0  0  0  0  0  0  0
   36.3300   28.8120   38.1160 H   0  0  0  0  0  0  0  0  0  0  0  0
   36.8310   32.4190   40.4420 H   0  0  0  0  0  0  0  0  0  0  0  0
   38.3600   32.2280   36.5880 H   0  0  0  0  0  0  0  0  0  0  0  0
   36.5610   29.0270   41.4040 C   0  0  0  0  0  0  0  0  0  0  0  0
   36.5960   27.6330   41.3410 C   0  0  0  0  0  0  0  0  0  0  0  0
   35.9770   27.1600   40.5810 H   0  0  0  0  0  0  0  0  0  0  0  0
   37.3990   26.9260   42.2310 C   0  0  0  0  0  0  0  0  0  0  0  0
   37.3980   25.8560   42.1500 H   0  0  0  0  0  0  0  0  0  0  0  0
   38.1480   27.6510   43.1630 C   0  0  0  0  0  3  0  0  0  0  0  0
   38.0910   29.0430   43.1970 C   0  0  0  0  0  3  0  0  0  0  0  0
   37.3050   29.6730   42.3240 N   0  0  0  0  0  0  0  0  0  0  0  0
   34.6140   29.1240   39.9220 C   0  0  0  0  0  0  0  0  0  0  0  0
   34.0460   29.7830   39.2510 H   0  0  0  0  0  0  0  0  0  0  0  0
   35.0670   28.2570   39.3820 H   0  0  0  0  0  0  0  0  0  0  0  0
   33.9280   28.7100   40.7130 H   0  0  0  0  0  0  0  0  0  0  0  0
  1  2  1  1  0  0  0
  1 12  1  0  0  0  0
  3  4  1  0  0  0  0
  4  5  2  0  0  0  0
  4  1  1  0  0  0  0
  5 10  1  0  0  0  0
  6  5  1  0  0  0  0
  7  6  2  0  0  0  0
  8  7  1  0  0  0  0
  8  3  2  0  0  0  0
  9  3  1  0  0  0  0
 11  7  1  0  0  0  0
 12 19  1  0  0  0  0
 13 12  2  0  0  0  0
 13 15  1  0  0  0  0
 14 13  1  0  0  0  0
 15 17  2  0  0  0  0
 16 15  1  0  0  0  0
 17 18  1  0  0  0  0
 19 18  2  0  0  0  0
 20  1  1  0  0  0  0
 20 23  1  0  0  0  0
 21 20  1  0  0  0  0
 22 20  1  0  0  0  0
M  END
>  <minimizedAffinity>
-4.4589982

$$$$

 OpenBabel03252502373D

 23 24  0  0  1  0  0  0  0  0999 V2000
   35.4120   29.3950   40.4290 C   0  0  2  0  0  0  0  0  0  0  0  0
   34.8220   29.8150   41.2720 H   0  0  0  0  0  0  0  0  0  0  0  0
   36.7560   31.4360   40.7830 C   0  0  0  0  0  0  0  0  0  0  0  0
   36.2600   30.4560   39.8900 C   0  0  0  0  0  0  0  0  0  0  0  0
   36.6170   30.5590   38.5210 C   0  0  0  0  0  0  0  0  0  0  0  0
   37.4150   31.6000   38.1610 N   0  0  0  0  0  0  0  0  0  0  0  0
   37.8540   32.4980   39.0460 C   0  0  0  0  0  0  0  0  0  0  0  0
   37.5300   32.4180   40.3420 N   0  0  0  0  0  0  0  0  0  0  0  0
   36.5270   31.4220   41.8390 H   0  0  0  0  0  0  0  0  0  0  0  0
   36.2310   29.8020   37.8440 H   0  0  0  0  0  0  0  0  0  0  0  0
   38.4740   33.2300   38.5120 H   0  0  0  0  0  0  0  0  0  0  0  0
   36.1060   28.2090   40.9320 C   0  0  0  0  0  0  0  0  0  0  0  0
   36.5090   28.0080   42.2540 C   0  0  0  0  0  0  0  0  0  0  0  0
   36.2840   28.8040   42.9610 H   0  0  0  0  0  0  0  0  0  0  0  0
   37.1640   26.8300   42.5990 C   0  0  0  0  0  0  0  0  0  0  0  0
   37.4570   26.7140   43.6250 H   0  0  0  0  0  0  0  0  0  0  0  0
   37.3950   25.8840   41.5960 C   0  0  0  0  0  3  0  0  0  0  0  0
   36.9790   26.1160   40.2870 C   0  0  0  0  0  3  0  0  0  0  0  0
   36.3560   27.2610   40.0070 N   0  0  0  0  0  0  0  0  0  0  0  0
   34.4180   29.0160   39.3520 C   0  0  0  0  0  0  0  0  0  0  0  0
   33.9290   29.9210   38.9670 H   0  0  0  0  0  0  0  0  0  0  0  0
   34.9980   28.4780   38.5630 H   0  0  0  0  0  0  0  0  0  0  0  0
   33.6390   28.3030   39.7430 H   0  0  0  0  0  0  0  0  0  0  0  0
  1 12  1  0  0  0  0
  1  2  1  1  0  0  0
  3  9  1  0  0  0  0
  4  1  1  0  0  0  0
  4  3  2  0  0  0  0
  5  4  1  0  0  0  0
  6  5  2  0  0  0  0
  6  7  1  0  0  0  0
  7  8  2  0  0  0  0
  8  3  1  0  0  0  0
 10  5  1  0  0  0  0
 11  7  1  0  0  0  0
 12 13  1  0  0  0  0
 13 15  2  0  0  0  0
 13 14  1  0  0  0  0
 15 16  1  0  0  0  0
 17 15  1  0  0  0  0
 18 17  2  0  0  0  0
 19 18  1  0  0  0  0
 19 12  2  0  0  0  0
 20 23  1  0  0  0  0
 20  1  1  0  0  0  0
 21 20  1  0  0  0  0
 22 20  1  0  0  0  0
M  END
>  <minimizedAffinity>
-4.39586687

$$$$

 OpenBabel03252502373D

 23 24  0  0  1  0  0  0  0  0999 V2000
   36.7070   27.5490   42.4550 C   0  0  2  0  0  0  0  0  0  0  0  0
   35.7090   27.1820   42.7730 H   0  0  0  0  0  0  0  0  0  0  0  0
   36.9420   25.1080   42.1680 C   0  0  0  0  0  0  0  0  0  0  0  0
   37.5140   26.3980   42.0560 C   0  0  0  0  0  0  0  0  0  0  0  0
   38.8400   26.4990   41.5600 C   0  0  0  0  0  0  0  0  0  0  0  0
   39.4710   25.3410   41.2270 N   0  0  0  0  0  0  0  0  0  0  0  0
   38.8830   24.1500   41.3540 C   0  0  0  0  0  0  0  0  0  0  0  0
   37.6340   24.0330   41.8180 N   0  0  0  0  0  0  0  0  0  0  0  0
   35.9380   24.9530   42.5360 H   0  0  0  0  0  0  0  0  0  0  0  0
   39.2690   27.4940   41.4780 H   0  0  0  0  0  0  0  0  0  0  0  0
   39.5940   23.3810   41.0220 H   0  0  0  0  0  0  0  0  0  0  0  0
   36.4880   28.5690   41.4270 C   0  0  0  0  0  0  0  0  0  0  0  0
   35.9040   28.3450   40.1780 C   0  0  0  0  0  0  0  0  0  0  0  0
   35.5890   27.3260   39.9600 H   0  0  0  0  0  0  0  0  0  0  0  0
   35.7550   29.4060   39.2910 C   0  0  0  0  0  0  0  0  0  0  0  0
   35.3010   29.1920   38.3420 H   0  0  0  0  0  0  0  0  0  0  0  0
   36.2010   30.6690   39.6910 C   0  0  0  0  0  3  0  0  0  0  0  0
   36.7800   30.8570   40.9450 C   0  0  0  0  0  3  0  0  0  0  0  0
   36.9010   29.8090   41.7580 N   0  0  0  0  0  0  0  0  0  0  0  0
   37.3570   28.1580   43.6800 C   0  0  0  0  0  0  0  0  0  0  0  0
   37.5400   27.3740   44.4260 H   0  0  0  0  0  0  0  0  0  0  0  0
   38.3020   28.6400   43.3290 H   0  0  0  0  0  0  0  0  0  0  0  0
   36.7130   28.9640   44.1290 H   0  0  0  0  0  0  0  0  0  0  0  0
  1  2  1  1  0  0  0
  1 20  1  0  0  0  0
  3  9  1  0  0  0  0
  4  3  1  0  0  0  0
  4  1  1  0  0  0  0
  5  4  2  0  0  0  0
  6  7  2  0  0  0  0
  6  5  1  0  0  0  0
  7  8  1  0  0  0  0
  8  3  2  0  0  0  0
 10  5  1  0  0  0  0
 11  7  1  0  0  0  0
 12 19  1  0  0  0  0
 12  1  1  0  0  0  0
 13 12  2  0  0  0  0
 14 13  1  0  0  0  0
 15 17  2  0  0  0  0
 15 13  1  0  0  0  0
 16 15  1  0  0  0  0
 17 18  1  0  0  0  0
 18 19  2  0  0  0  0
 20 23  1  0  0  0  0
 20 21  1  0  0  0  0
 22 20  1  0  0  0  0
M  END
>  <minimizedAffinity>
-4.26282883

$$$$

 OpenBabel03252502373D

 23 24  0  0  1  0  0  0  0  0999 V2000
   36.1110   30.2450   40.9440 C   0  0  2  0  0  0  0  0  0  0  0  0
   35.2260   30.5380   41.5480 H   0  0  0  0  0  0  0  0  0  0  0  0
   38.1790   29.7920   42.2150 C   0  0  0  0  0  0  0  0  0  0  0  0
   36.9270   29.3310   41.7390 C   0  0  0  0  0  0  0  0  0  0  0  0
   36.5370   28.0070   42.0660 C   0  0  0  0  0  0  0  0  0  0  0  0
   37.3990   27.2690   42.8160 N   0  0  0  0  0  0  0  0  0  0  0  0
   38.5690   27.7540   43.2370 C   0  0  0  0  0  0  0  0  0  0  0  0
   38.9550   29.0000   42.9410 N   0  0  0  0  0  0  0  0  0  0  0  0
   38.5430   30.7880   42.0070 H   0  0  0  0  0  0  0  0  0  0  0  0
   35.5740   27.6640   41.6970 H   0  0  0  0  0  0  0  0  0  0  0  0
   39.0740   26.9710   43.8180 H   0  0  0  0  0  0  0  0  0  0  0  0
   35.6140   29.7200   39.6700 C   0  0  0  0  0  0  0  0  0  0  0  0
   34.3470   29.1720   39.4610 C   0  0  0  0  0  0  0  0  0  0  0  0
   33.6810   29.1360   40.3210 H   0  0  0  0  0  0  0  0  0  0  0  0
   34.0010   28.7080   38.1960 C   0  0  0  0  0  0  0  0  0  0  0  0
   33.0180   28.2940   38.0770 H   0  0  0  0  0  0  0  0  0  0  0  0
   34.9480   28.8110   37.1730 C   0  0  0  0  0  3  0  0  0  0  0  0
   36.2040   29.3640   37.4160 C   0  0  0  0  0  3  0  0  0  0  0  0
   36.4870   29.7940   38.6450 N   0  0  0  0  0  0  0  0  0  0  0  0
   36.9220   31.5040   40.7220 C   0  0  0  0  0  0  0  0  0  0  0  0
   37.3100   31.8650   41.6840 H   0  0  0  0  0  0  0  0  0  0  0  0
   37.7380   31.2320   40.0090 H   0  0  0  0  0  0  0  0  0  0  0  0
   36.3040   32.3110   40.2370 H   0  0  0  0  0  0  0  0  0  0  0  0
  1  2  1  1  0  0  0
  1  4  1  0  0  0  0
  3  8  1  0  0  0  0
  4  5  1  0  0  0  0
  4  3  2  0  0  0  0
  5  6  2  0  0  0  0
  6  7  1  0  0  0  0
  7 11  1  0  0  0  0
  8  7  2  0  0  0  0
  9  3  1  0  0  0  0
 10  5  1  0  0  0  0
 12  1  1  0  0  0  0
 13 12  1  0  0  0  0
 13 14  1  0  0  0  0
 15 13  2  0  0  0  0
 16 15  1  0  0  0  0
 17 18  2  0  0  0  0
 17 15  1  0  0  0  0
 18 19  1  0  0  0  0
 19 12  2  0  0  0  0
 20  1  1  0  0  0  0
 20 21  1  0  0  0  0
 22 20  1  0  0  0  0
 23 20  1  0  0  0  0
M  END
>  <minimizedAffinity>
-4.14398718

$$$$

 OpenBabel03252502373D

 23 24  0  0  1  0  0  0  0  0999 V2000
   39.1680   29.9300   41.4690 C   0  0  2  0  0  0  0  0  0  0  0  0
   40.0850   29.4700   41.0410 H   0  0  0  0  0  0  0  0  0  0  0  0
   38.9870   30.5910   39.0960 C   0  0  0  0  0  0  0  0  0  0  0  0
   38.5290   30.7320   40.4290 C   0  0  0  0  0  0  0  0  0  0  0  0
   37.4710   31.6450   40.6760 C   0  0  0  0  0  0  0  0  0  0  0  0
   36.9710   32.3250   39.6100 N   0  0  0  0  0  0  0  0  0  0  0  0
   37.4420   32.1530   38.3730 C   0  0  0  0  0  0  0  0  0  0  0  0
   38.4380   31.2960   38.1180 N   0  0  0  0  0  0  0  0  0  0  0  0
   39.7870   29.9150   38.8310 H   0  0  0  0  0  0  0  0  0  0  0  0
   37.1260   31.7450   41.7020 H   0  0  0  0  0  0  0  0  0  0  0  0
   36.8780   32.8090   37.6970 H   0  0  0  0  0  0  0  0  0  0  0  0
   38.3610   28.8470   42.0340 C   0  0  0  0  0  0  0  0  0  0  0  0
   37.6930   28.8910   43.2590 C   0  0  0  0  0  0  0  0  0  0  0  0
   37.7850   29.8100   43.8340 H   0  0  0  0  0  0  0  0  0  0  0  0
   36.9590   27.7870   43.6790 C   0  0  0  0  0  0  0  0  0  0  0  0
   36.4600   27.8610   44.6270 H   0  0  0  0  0  0  0  0  0  0  0  0
   36.9190   26.6640   42.8470 C   0  0  0  0  0  3  0  0  0  0  0  0
   37.5970   26.6540   41.6300 C   0  0  0  0  0  3  0  0  0  0  0  0
   38.2870   27.7360   41.2730 N   0  0  0  0  0  0  0  0  0  0  0  0
   39.6260   30.8780   42.5570 C   0  0  0  0  0  0  0  0  0  0  0  0
   40.2040   31.6980   42.1110 H   0  0  0  0  0  0  0  0  0  0  0  0
   38.7020   31.2390   43.0700 H   0  0  0  0  0  0  0  0  0  0  0  0
   40.2550   30.3480   43.3260 H   0  0  0  0  0  0  0  0  0  0  0  0
  1  2  1  6  0  0  0
  1 12  1  0  0  0  0
  1 20  1  0  0  0  0
  3  4  1  0  0  0  0
  4  5  2  0  0  0  0
  4  1  1  0  0  0  0
  5 10  1  0  0  0  0
  6  5  1  0  0  0  0
  7  6  2  0  0  0  0
  8  7  1  0  0  0  0
  8  3  2  0  0  0  0
  9  3  1  0  0  0  0
 11  7  1  0  0  0  0
 12 13  1  0  0  0  0
 13 15  2  0  0  0  0
 13 14  1  0  0  0  0
 15 16  1  0  0  0  0
 17 15  1  0  0  0  0
 18 17  2  0  0  0  0
 19 18  1  0  0  0  0
 19 12  2  0  0  0  0
 20 22  1  0  0  0  0
 20 23  1  0  0  0  0
 21 20  1  0  0  0  0
M  END
>  <minimizedAffinity>
-4.08352089

$$$$

 OpenBabel03252502373D

 23 24  0  0  1  0  0  0  0  0999 V2000
   38.3750   32.7280   40.0740 C   0  0  2  0  0  0  0  0  0  0  0  0
   38.2250   33.6530   40.6710 H   0  0  0  0  0  0  0  0  0  0  0  0
   39.7180   32.0580   38.1130 C   0  0  0  0  0  0  0  0  0  0  0  0
   39.5510   32.9150   39.2280 C   0  0  0  0  0  0  0  0  0  0  0  0
   40.5380   33.9080   39.4590 C   0  0  0  0  0  0  0  0  0  0  0  0
   41.5810   33.9650   38.5880 N   0  0  0  0  0  0  0  0  0  0  0  0
   41.6880   33.1310   37.5520 C   0  0  0  0  0  0  0  0  0  0  0  0
   40.7690   32.1880   37.3160 N   0  0  0  0  0  0  0  0  0  0  0  0
   39.0080   31.2800   37.8740 H   0  0  0  0  0  0  0  0  0  0  0  0
   40.4010   34.5600   40.3160 H   0  0  0  0  0  0  0  0  0  0  0  0
   42.6080   33.3800   37.0060 H   0  0  0  0  0  0  0  0  0  0  0  0
   38.4300   31.6070   41.0150 C   0  0  0  0  0  0  0  0  0  0  0  0
   39.5220   31.2820   41.8210 C   0  0  0  0  0  0  0  0  0  0  0  0
   40.4010   31.9190   41.7370 H   0  0  0  0  0  0  0  0  0  0  0  0
   39.4430   30.1860   42.6740 C   0  0  0  0  0  0  0  0  0  0  0  0
   40.3030   29.9690   43.2770 H   0  0  0  0  0  0  0  0  0  0  0  0
   38.2560   29.4460   42.6890 C   0  0  0  0  0  3  0  0  0  0  0  0
   37.1850   29.7990   41.8720 C   0  0  0  0  0  3  0  0  0  0  0  0
   37.3110   30.8570   41.0720 N   0  0  0  0  0  0  0  0  0  0  0  0
   37.1740   32.6010   39.1620 C   0  0  0  0  0  0  0  0  0  0  0  0
   37.1660   33.4330   38.4450 H   0  0  0  0  0  0  0  0  0  0  0  0
   37.2640   31.6080   38.6580 H   0  0  0  0  0  0  0  0  0  0  0  0
   36.2110   32.5970   39.7460 H   0  0  0  0  0  0  0  0  0  0  0  0
  1  2  1  1  0  0  0
  1 12  1  0  0  0  0
  3  4  1  0  0  0  0
  4  5  2  0  0  0  0
  4  1  1  0  0  0  0
  5 10  1  0  0  0  0
  6  5  1  0  0  0  0
  7  6  2  0  0  0  0
  8  7  1  0  0  0  0
  8  3  2  0  0  0  0
  9  3  1  0  0  0  0
 11  7  1  0  0  0  0
 12 19  2  0  0  0  0
 12 13  1  0  0  0  0
 13 15  2  0  0  0  0
 14 13  1  0  0  0  0
 15 17  1  0  0  0  0
 15 16  1  0  0  0  0
 18 17  2  0  0  0  0
 19 18  1  0  0  0  0
 20 23  1  0  0  0  0
 20  1  1  0  0  0  0
 21 20  1  0  0  0  0
 22 20  1  0  0  0  0
M  END
>  <minimizedAffinity>
-4.04110098

$$$$

 OpenBabel03252502373D

 23 24  0  0  1  0  0  0  0  0999 V2000
   39.2590   29.8610   40.9170 C   0  0  2  0  0  0  0  0  0  0  0  0
   40.1660   30.0890   41.5170 H   0  0  0  0  0  0  0  0  0  0  0  0
   37.8460   27.8430   41.0860 C   0  0  0  0  0  0  0  0  0  0  0  0
   38.3910   28.9930   41.7080 C   0  0  0  0  0  0  0  0  0  0  0  0
   38.0620   29.2340   43.0670 C   0  0  0  0  0  0  0  0  0  0  0  0
   37.2410   28.3390   43.6790 N   0  0  0  0  0  0  0  0  0  0  0  0
   36.7550   27.2710   43.0430 C   0  0  0  0  0  0  0  0  0  0  0  0
   37.0530   27.0240   41.7620 N   0  0  0  0  0  0  0  0  0  0  0  0
   38.0520   27.5940   40.0550 H   0  0  0  0  0  0  0  0  0  0  0  0
   38.4860   30.1180   43.5350 H   0  0  0  0  0  0  0  0  0  0  0  0
   36.1260   26.7110   43.7470 H   0  0  0  0  0  0  0  0  0  0  0  0
   38.6820   31.1410   40.4990 C   0  0  0  0  0  0  0  0  0  0  0  0
   37.6520   31.2970   39.5690 C   0  0  0  0  0  0  0  0  0  0  0  0
   37.2520   30.3880   39.1230 H   0  0  0  0  0  0  0  0  0  0  0  0
   37.1950   32.5750   39.2610 C   0  0  0  0  0  0  0  0  0  0  0  0
   36.4030   32.6530   38.5410 H   0  0  0  0  0  0  0  0  0  0  0  0
   37.7930   33.6630   39.9040 C   0  0  0  0  0  3  0  0  0  0  0  0
   38.8180   33.4710   40.8280 C   0  0  0  0  0  3  0  0  0  0  0  0
   39.2210   32.2270   41.0880 N   0  0  0  0  0  0  0  0  0  0  0  0
   39.7230   29.0670   39.7140 C   0  0  0  0  0  0  0  0  0  0  0  0
   40.1250   28.1010   40.0450 H   0  0  0  0  0  0  0  0  0  0  0  0
   38.8330   28.9520   39.0490 H   0  0  0  0  0  0  0  0  0  0  0  0
   40.5100   29.6240   39.1320 H   0  0  0  0  0  0  0  0  0  0  0  0
  1  2  1  1  0  0  0
  1  4  1  0  0  0  0
  3  4  2  0  0  0  0
  3  8  1  0  0  0  0
  4  5  1  0  0  0  0
  5 10  1  0  0  0  0
  5  6  2  0  0  0  0
  7  6  1  0  0  0  0
  7 11  1  0  0  0  0
  8  7  2  0  0  0  0
  9  3  1  0  0  0  0
 12  1  1  0  0  0  0
 12 19  1  0  0  0  0
 13 12  2  0  0  0  0
 14 13  1  0  0  0  0
 15 13  1  0  0  0  0
 15 17  2  0  0  0  0
 16 15  1  0  0  0  0
 17 18  1  0  0  0  0
 18 19  2  0  0  0  0
 20 21  1  0  0  0  0
 20  1  1  0  0  0  0
 22 20  1  0  0  0  0
 23 20  1  0  0  0  0
M  END
>  <minimizedAffinity>
-3.99045229

$$$$
