
 OpenBabel03252508563D

 23 24  0  0  0  0  0  0  0  0999 V2000
   44.4780   35.8360   42.1460 C   0  0  0  0  0  0  0  0  0  0  0  0
   44.7040   36.0690   41.1090 H   0  0  0  0  0  0  0  0  0  0  0  0
   44.3790   36.7540   42.7900 H   0  0  0  0  0  0  0  0  0  0  0  0
   47.8940   34.3590   42.6780 C   0  0  0  0  0  0  0  0  0  0  0  0
   46.8360   35.0900   42.1170 C   0  0  0  0  0  0  0  0  0  0  0  0
   45.5860   35.0560   42.7550 C   0  0  0  0  0  0  0  0  0  0  0  0
   45.4820   34.3110   43.8800 N   0  0  0  0  0  0  0  0  0  0  0  0
   46.5230   33.6220   44.3890 C   0  0  0  0  0  0  0  0  0  0  0  0
   47.7210   33.6380   43.8030 N   0  0  0  0  0  0  0  0  0  0  0  0
   48.8120   34.4560   42.1040 H   0  0  0  0  0  0  0  0  0  0  0  0
   46.9330   35.6830   41.2130 H   0  0  0  0  0  0  0  0  0  0  0  0
   46.4020   33.0340   45.2970 H   0  0  0  0  0  0  0  0  0  0  0  0
   43.1920   35.0730   42.3350 C   0  0  0  0  0  0  0  0  0  0  0  0
   43.4360   34.0050   42.4030 H   0  0  0  0  0  0  0  0  0  0  0  0
   42.6820   35.4650   43.2360 H   0  0  0  0  0  0  0  0  0  0  0  0
   42.3260   35.2830   41.1240 C   0  0  0  0  0  0  0  0  0  0  0  0
   41.0380   35.7070   41.3830 C   0  0  0  0  0  0  0  0  0  0  0  0
   40.6900   35.8710   42.3830 H   0  0  0  0  0  0  0  0  0  0  0  0
   40.2470   35.8980   40.2450 C   0  0  0  0  0  0  0  0  0  0  0  0
   39.2230   36.2290   40.3700 H   0  0  0  0  0  0  0  0  0  0  0  0
   40.8010   35.6540   38.9920 C   0  0  0  0  0  0  0  0  0  0  0  0
   42.1130   35.2290   38.8320 C   0  0  0  0  0  0  0  0  0  0  0  0
   42.8950   35.0400   39.9350 N   0  0  0  0  0  0  0  0  0  0  0  0
  1 13  1  0  0  0  0
  1  6  1  0  0  0  0
  1  3  1  0  0  0  0
  2  1  1  0  0  0  0
  4  9  1  0  0  0  0
  5  4  2  0  0  0  0
  5  6  1  0  0  0  0
  6  7  2  0  0  0  0
  7  8  1  0  0  0  0
  8 12  1  0  0  0  0
  9  8  2  0  0  0  0
 10  4  1  0  0  0  0
 11  5  1  0  0  0  0
 13 14  1  0  0  0  0
 13 15  1  0  0  0  0
 16 17  1  0  0  0  0
 16 13  1  0  0  0  0
 17 18  1  0  0  0  0
 19 20  1  0  0  0  0
 19 17  2  0  0  0  0
 21 19  1  0  0  0  0
 22 21  2  0  0  0  0
 22 23  1  0  0  0  0
 23 16  2  0  0  0  0
M  END
>  <minimizedAffinity>
-4.22661972

>  <minimizedRMSD>
5.78980541

$$$$
