
 OpenBabel03252508463D

 44 46  0  0  0  0  0  0  0  0999 V2000
   43.0320   32.4270   41.7150 C   0  0  0  0  0  0  0  0  0  0  0  0
   43.5110   31.9610   40.8130 H   0  0  0  0  0  0  0  0  0  0  0  0
   42.0830   32.8860   41.3460 H   0  0  0  0  0  0  0  0  0  0  0  0
   43.6800   34.8390   41.9310 C   0  0  0  0  0  0  0  0  0  0  0  0
   43.9110   33.5060   42.2470 C   0  0  0  0  0  0  0  0  0  0  0  0
   44.9740   33.2010   43.0630 C   0  0  0  0  0  0  0  0  0  0  0  0
   45.7800   34.1940   43.5480 C   0  0  0  0  0  0  0  0  0  0  0  0
   45.5770   35.5080   43.2570 C   0  0  0  0  0  0  0  0  0  0  0  0
   44.5000   35.7730   42.4330 C   0  0  0  0  0  0  0  0  0  0  0  0
   45.1960   32.1770   43.3370 H   0  0  0  0  0  0  0  0  0  0  0  0
   46.6090   33.9220   44.1890 H   0  0  0  0  0  0  0  0  0  0  0  0
   46.1810   36.3290   43.6120 H   0  0  0  0  0  0  0  0  0  0  0  0
   44.2640   36.7970   42.1480 H   0  0  0  0  0  0  0  0  0  0  0  0
   40.2630   35.6960   40.5650 C   0  0  0  0  0  0  0  0  0  0  0  0
   41.2870   35.4620   41.4990 C   0  0  0  0  0  0  0  0  0  0  0  0
   42.5470   35.1050   41.0660 C   0  0  0  0  0  0  0  0  0  0  0  0
   42.7250   34.9980   39.7180 N   0  0  0  0  0  0  0  0  0  0  0  0
   41.7320   35.2250   38.8240 C   0  0  0  0  0  0  0  0  0  0  0  0
   40.5070   35.5730   39.2680 N   0  0  0  0  0  0  0  0  0  0  0  0
   39.3170   35.9690   41.0220 H   0  0  0  0  0  0  0  0  0  0  0  0
   41.1710   35.5400   42.5750 H   0  0  0  0  0  0  0  0  0  0  0  0
   41.9640   35.1160   37.7680 H   0  0  0  0  0  0  0  0  0  0  0  0
   42.6870   31.4100   42.6480 N   0  0  0  0  0  0  0  0  0  0  0  0
   43.2510   30.5460   42.5610 H   0  0  0  0  0  0  0  0  0  0  0  0
   41.0340   30.9970   42.6240 S   0  0  0  0  0  0  0  0  0  0  0  0
   40.1840   32.2060   42.2840 O   0  0  0  0  0  0  0  0  0  0  0  0
   39.9310   32.3650   41.3360 H   0  0  0  0  0  0  0  0  0  0  0  0
   40.6010   30.4080   43.9180 O   0  0  0  0  0  0  0  0  0  0  0  0
   41.2020   29.9120   44.5360 H   0  0  0  0  0  0  0  0  0  0  0  0
   40.8010   29.8590   41.4000 O   0  0  0  0  0  0  0  0  0  0  0  0
   40.4660   28.6640   42.0150 C   0  0  0  0  0  0  0  0  0  0  0  0
   39.9070   28.7490   42.9450 H   0  0  0  0  0  0  0  0  0  0  0  0
   39.7870   28.1400   41.2810 H   0  0  0  0  0  0  0  0  0  0  0  0
   41.6820   27.7780   42.1210 C   0  0  0  0  0  0  0  0  0  0  0  0
   42.5340   28.3700   41.6730 H   0  0  0  0  0  0  0  0  0  0  0  0
   41.5270   26.9520   41.3760 H   0  0  0  0  0  0  0  0  0  0  0  0
   41.9870   27.2860   43.4620 C   0  0  0  0  0  0  0  0  0  0  0  0
   43.1880   26.7000   43.8040 C   0  0  0  0  0  0  0  0  0  0  0  0
   43.9570   26.5880   43.0530 H   0  0  0  0  0  0  0  0  0  0  0  0
   43.3200   26.2840   45.1330 C   0  0  0  0  0  0  0  0  0  0  0  0
   44.2500   25.8200   45.4350 H   0  0  0  0  0  0  0  0  0  0  0  0
   42.2870   26.4630   46.0350 C   0  0  0  0  0  3  0  0  0  0  0  0
   41.0810   27.0610   45.6560 C   0  0  0  0  0  3  0  0  0  0  0  0
   40.9770   27.4550   44.3650 N   0  0  0  0  0  0  0  0  0  0  0  0
  1  5  1  0  0  0  0
  1 23  1  0  0  0  0
  2  1  1  0  0  0  0
  3  1  1  0  0  0  0
  4  5  2  0  0  0  0
  4  9  1  0  0  0  0
  5  6  1  0  0  0  0
  6 10  1  0  0  0  0
  6  7  2  0  0  0  0
  7 11  1  0  0  0  0
  8  7  1  0  0  0  0
  8 12  1  0  0  0  0
  9  8  2  0  0  0  0
 13  9  1  0  0  0  0
 14 20  1  0  0  0  0
 14 15  1  0  0  0  0
 15 21  1  0  0  0  0
 16 15  2  0  0  0  0
 16  4  1  0  0  0  0
 17 16  1  0  0  0  0
 18 19  1  0  0  0  0
 18 17  2  0  0  0  0
 19 14  2  0  0  0  0
 22 18  1  0  0  0  0
 24 23  1  0  0  0  0
 25 23  1  0  0  0  0
 25 28  1  0  0  0  0
 26 25  1  0  0  0  0
 27 26  1  0  0  0  0
 28 29  1  0  0  0  0
 30 31  1  0  0  0  0
 30 25  1  0  0  0  0
 31 34  1  0  0  0  0
 31 32  1  0  0  0  0
 33 31  1  0  0  0  0
 34 37  1  0  0  0  0
 35 34  1  0  0  0  0
 36 34  1  0  0  0  0
 37 38  2  0  0  0  0
 37 44  1  0  0  0  0
 38 40  1  0  0  0  0
 39 38  1  0  0  0  0
 40 41  1  0  0  0  0
 40 42  2  0  0  0  0
 43 42  1  0  0  0  0
 44 43  2  0  0  0  0
M  END
>  <minimizedAffinity>
-5.07226515

>  <minimizedRMSD>
1.61858475

$$$$
