
 OpenBabel03252508453D

 44 46  0  0  0  0  0  0  0  0999 V2000
   42.9400   32.4860   41.6000 C   0  0  0  0  0  0  0  0  0  0  0  0
   43.4070   32.0470   40.6770 H   0  0  0  0  0  0  0  0  0  0  0  0
   41.9940   32.9690   41.2550 H   0  0  0  0  0  0  0  0  0  0  0  0
   43.6320   34.8790   41.8800 C   0  0  0  0  0  0  0  0  0  0  0  0
   43.8360   33.5340   42.1640 C   0  0  0  0  0  0  0  0  0  0  0  0
   44.8880   33.1880   42.9780 C   0  0  0  0  0  0  0  0  0  0  0  0
   45.7090   34.1540   43.4930 C   0  0  0  0  0  0  0  0  0  0  0  0
   45.5330   35.4780   43.2340 C   0  0  0  0  0  0  0  0  0  0  0  0
   44.4660   35.7850   42.4110 C   0  0  0  0  0  0  0  0  0  0  0  0
   45.0890   32.1540   43.2270 H   0  0  0  0  0  0  0  0  0  0  0  0
   46.5290   33.8500   44.1310 H   0  0  0  0  0  0  0  0  0  0  0  0
   46.1500   36.2780   43.6140 H   0  0  0  0  0  0  0  0  0  0  0  0
   44.2510   36.8200   42.1510 H   0  0  0  0  0  0  0  0  0  0  0  0
   40.2470   35.8600   40.5180 C   0  0  0  0  0  0  0  0  0  0  0  0
   41.2620   35.5860   41.4510 C   0  0  0  0  0  0  0  0  0  0  0  0
   42.5090   35.1880   41.0170 C   0  0  0  0  0  0  0  0  0  0  0  0
   42.6840   35.0810   39.6680 N   0  0  0  0  0  0  0  0  0  0  0  0
   41.6990   35.3470   38.7750 C   0  0  0  0  0  0  0  0  0  0  0  0
   40.4870   35.7340   39.2200 N   0  0  0  0  0  0  0  0  0  0  0  0
   39.3110   36.1640   40.9760 H   0  0  0  0  0  0  0  0  0  0  0  0
   41.1480   35.6640   42.5280 H   0  0  0  0  0  0  0  0  0  0  0  0
   41.9280   35.2350   37.7180 H   0  0  0  0  0  0  0  0  0  0  0  0
   42.5910   31.4390   42.4980 N   0  0  0  0  0  0  0  0  0  0  0  0
   43.0560   30.5370   42.2980 H   0  0  0  0  0  0  0  0  0  0  0  0
   40.9100   31.1810   42.6190 S   0  0  0  0  0  0  0  0  0  0  0  0
   40.1680   32.5020   42.6790 O   0  0  0  0  0  0  0  0  0  0  0  0
   39.8220   32.8980   41.8350 H   0  0  0  0  0  0  0  0  0  0  0  0
   40.5720   30.3440   43.8000 O   0  0  0  0  0  0  0  0  0  0  0  0
   41.1840   29.6700   44.2010 H   0  0  0  0  0  0  0  0  0  0  0  0
   40.4050   30.3830   41.2210 O   0  0  0  0  0  0  0  0  0  0  0  0
   39.1490   30.8730   40.9060 C   0  0  0  0  0  0  0  0  0  0  0  0
   38.3740   30.7080   41.6520 H   0  0  0  0  0  0  0  0  0  0  0  0
   39.2840   31.9910   40.8280 H   0  0  0  0  0  0  0  0  0  0  0  0
   38.7540   30.4320   39.5180 C   0  0  0  0  0  0  0  0  0  0  0  0
   39.7180   30.3660   38.9310 H   0  0  0  0  0  0  0  0  0  0  0  0
   38.2330   31.3100   39.0530 H   0  0  0  0  0  0  0  0  0  0  0  0
   37.9710   29.2010   39.4480 C   0  0  0  0  0  0  0  0  0  0  0  0
   36.6620   29.1080   39.8670 C   0  0  0  0  0  0  0  0  0  0  0  0
   36.1680   29.9800   40.2740 H   0  0  0  0  0  0  0  0  0  0  0  0
   36.0520   27.8540   39.7300 C   0  0  0  0  0  0  0  0  0  0  0  0
   35.0240   27.7470   40.0490 H   0  0  0  0  0  0  0  0  0  0  0  0
   36.7510   26.7840   39.1990 C   0  0  0  0  0  3  0  0  0  0  0  0
   38.0790   26.9140   38.7840 C   0  0  0  0  0  3  0  0  0  0  0  0
   38.6460   28.1360   38.9270 N   0  0  0  0  0  0  0  0  0  0  0  0
  1  5  1  0  0  0  0
  1 23  1  0  0  0  0
  2  1  1  0  0  0  0
  3  1  1  0  0  0  0
  4  5  2  0  0  0  0
  4  9  1  0  0  0  0
  5  6  1  0  0  0  0
  6 10  1  0  0  0  0
  6  7  2  0  0  0  0
  7 11  1  0  0  0  0
  8  7  1  0  0  0  0
  8 12  1  0  0  0  0
  9  8  2  0  0  0  0
 13  9  1  0  0  0  0
 14 20  1  0  0  0  0
 14 15  1  0  0  0  0
 15 21  1  0  0  0  0
 16 15  2  0  0  0  0
 16  4  1  0  0  0  0
 17 16  1  0  0  0  0
 18 19  1  0  0  0  0
 18 17  2  0  0  0  0
 19 14  2  0  0  0  0
 22 18  1  0  0  0  0
 23 25  1  0  0  0  0
 24 23  1  0  0  0  0
 25 26  1  0  0  0  0
 25 28  1  0  0  0  0
 27 26  1  0  0  0  0
 28 29  1  0  0  0  0
 30 25  1  0  0  0  0
 31 30  1  0  0  0  0
 31 32  1  0  0  0  0
 33 31  1  0  0  0  0
 34 31  1  0  0  0  0
 35 34  1  0  0  0  0
 36 34  1  0  0  0  0
 37 34  1  0  0  0  0
 37 38  1  0  0  0  0
 38 39  1  0  0  0  0
 40 38  2  0  0  0  0
 40 41  1  0  0  0  0
 42 40  1  0  0  0  0
 43 44  1  0  0  0  0
 43 42  2  0  0  0  0
 44 37  2  0  0  0  0
M  END
>  <minimizedAffinity>
-5.22050858

>  <minimizedRMSD>
3.55153465

$$$$
