
     RDKit          3D

 46 48  0  0  0  0  0  0  0  0999 V2000
   43.6500   34.9619   41.8805 C   0  0  0  0  0  0  0  0  0  0  0  0
   43.9056   33.6315   42.1876 C   0  0  0  0  0  0  0  0  0  0  0  0
   44.9722   33.3417   43.0056 C   0  0  0  0  0  0  0  0  0  0  0  0
   45.7568   34.3482   43.4999 C   0  0  0  0  0  0  0  0  0  0  0  0
   45.5297   35.6593   43.2157 C   0  0  0  0  0  0  0  0  0  0  0  0
   44.4496   35.9088   42.3912 C   0  0  0  0  0  0  0  0  0  0  0  0
   40.2303   35.7977   40.5085 C   0  0  0  0  0  0  0  0  0  0  0  0
   41.2568   35.5821   41.4434 C   0  0  0  0  0  0  0  0  0  0  0  0
   42.5139   35.2119   41.0144 C   0  0  0  0  0  0  0  0  0  0  0  0
   42.6870   35.0740   39.6683 N   0  0  0  0  0  0  0  0  0  0  0  0
   41.6909   35.2840   38.7730 C   0  0  0  0  0  0  0  0  0  0  0  0
   40.4688   35.6455   39.2134 N   0  0  0  0  0  0  0  0  0  0  0  0
   43.0486   32.5403   41.6470 C   0  0  0  0  0  0  0  0  0  0  0  0
   42.6984   31.5246   42.5800 N   0  0  0  0  0  0  0  0  0  0  0  0
   41.0391   31.1348   42.5680 S   0  0  0  0  0  0  0  0  0  0  0  0
   40.1943   32.3903   42.4590 O   0  0  0  0  0  0  0  0  0  0  0  0
   40.6545   30.3561   43.7741 O   0  0  0  0  0  0  0  0  0  0  0  0
   40.7343   30.2034   41.1947 O   0  0  0  0  0  0  0  0  0  0  0  0
   40.1098   29.0429   41.6219 C   0  0  0  0  0  0  0  0  0  0  0  0
   40.9045   27.8369   41.1849 C   0  0  0  0  0  0  0  0  0  0  0  0
   45.2130   32.3214   43.2744 H   0  0  0  0  0  0  0  0  0  0  0  0
   46.5891   34.0872   44.1413 H   0  0  0  0  0  0  0  0  0  0  0  0
   46.1166   36.4892   43.5786 H   0  0  0  0  0  0  0  0  0  0  0  0
   44.1947   36.9304   42.1119 H   0  0  0  0  0  0  0  0  0  0  0  0
   39.2868   36.0845   40.9622 H   0  0  0  0  0  0  0  0  0  0  0  0
   41.1451   35.6850   42.5178 H   0  0  0  0  0  0  0  0  0  0  0  0
   41.9195   35.1507   37.7178 H   0  0  0  0  0  0  0  0  0  0  0  0
   43.5509   32.0729   40.7571 H   0  0  0  0  0  0  0  0  0  0  0  0
   42.1019   32.9856   41.2563 H   0  0  0  0  0  0  0  0  0  0  0  0
   43.2495   30.6540   42.4862 H   0  0  0  0  0  0  0  0  0  0  0  0
   39.9020   32.6961   41.5587 H   0  0  0  0  0  0  0  0  0  0  0  0
   41.2742   29.7653   44.2791 H   0  0  0  0  0  0  0  0  0  0  0  0
   39.8208   29.0177   42.6711 H   0  0  0  0  0  0  0  0  0  0  0  0
   39.1519   28.9918   41.0256 H   0  0  0  0  0  0  0  0  0  0  0  0
   40.8581   27.8313   40.0564 H   0  0  0  0  0  0  0  0  0  0  0  0
   40.2877   26.9428   41.4699 H   0  0  0  0  0  0  0  0  0  0  0  0
   42.2735   27.7698   41.6887 C   0  0  0  0  0  0  0  0  0  0  0  0
   43.1434   26.7419   41.3951 C   0  0  0  0  0  0  0  0  0  0  0  0
   42.8140   25.9307   40.7601 H   0  0  0  0  0  0  0  0  0  0  0  0
   44.4223   26.8290   41.9569 C   0  0  0  0  0  0  0  0  0  0  0  0
   45.1301   26.0380   41.7462 H   0  0  0  0  0  0  0  0  0  0  0  0
   44.7685   27.9006   42.7604 C   0  0  0  0  0  0  0  0  0  0  0  0
   43.8620   28.9277   43.0389 C   0  0  0  0  0  0  0  0  0  0  0  0
   42.6310   28.8203   42.4837 N   0  0  0  0  0  0  0  0  0  0  0  0
   45.7617   27.9685   43.1968 H   0  0  0  0  0  0  0  0  0  0  0  0
   44.0859   29.7854   43.6610 H   0  0  0  0  0  0  0  0  0  0  0  0
  1  2  1  0
  1  6  2  0
  2  3  2  0
  3  4  1  0
  5  4  2  0
  6  5  1  0
  7  8  2  0
  9  8  1  0
  9  1  1  0
 10  9  2  0
 11 12  2  0
 11 10  1  0
 12  7  1  0
 13  2  1  0
 13 14  1  0
 15 14  1  0
 15 17  1  0
 16 15  1  0
 18 19  1  0
 18 15  1  0
 20 19  1  0
  3 21  1  0
  4 22  1  0
  5 23  1  0
  6 24  1  0
  7 25  1  0
  8 26  1  0
 11 27  1  0
 13 28  1  0
 13 29  1  0
 14 30  1  0
 16 31  1  0
 17 32  1  0
 19 33  1  0
 19 34  1  0
 20 35  1  0
 20 36  1  0
 37 38  2  0
 38 39  1  0
 38 40  1  0
 40 41  1  0
 40 42  2  0
 42 43  1  0
 43 44  2  0
 44 37  1  0
 42 45  1  0
 43 46  1  0
 20 37  1  0
M  ISO  8  21  14  22  14  23  14  24  14  25  14  26  14  27  14  28   8
M  ISO  8  29   8  30   5  31   3  32   3  33   8  34   8  35   8  36   8
M  ISO  2  39  15  41  16
M  END
>  <DihAtoms>  (1) 
18,19,36,37

>  <DihDeg>  (1) 
89.91687043919977

$$$$
