
 OpenBabel03242522333D

 20 21  0  0  0  0  0  0  0  0999 V2000
   46.7100   32.9140   46.4160 C   0  0  0  0  0  0  0  0  0  0  0  0
   47.8040   32.7740   46.2590 H   0  0  0  0  0  0  0  0  0  0  0  0
   46.5650   33.3540   47.4160 H   0  0  0  0  0  0  0  0  0  0  0  0
   46.1240   34.7590   43.2280 C   0  0  0  0  0  0  0  0  0  0  0  0
   45.0360   35.5610   43.5670 C   0  0  0  0  0  0  0  0  0  0  0  0
   44.5200   35.4650   44.8650 C   0  0  0  0  0  0  0  0  0  0  0  0
   45.1070   34.5870   45.7410 N   0  0  0  0  0  0  0  0  0  0  0  0
   46.1630   33.8320   45.3590 C   0  0  0  0  0  0  0  0  0  0  0  0
   46.6550   33.9230   44.1250 N   0  0  0  0  0  0  0  0  0  0  0  0
   46.4810   34.8740   42.2190 H   0  0  0  0  0  0  0  0  0  0  0  0
   44.5230   36.2760   42.9250 H   0  0  0  0  0  0  0  0  0  0  0  0
   43.6840   36.0150   45.2810 H   0  0  0  0  0  0  0  0  0  0  0  0
   46.0290   31.6030   46.4100 C   0  0  0  0  0  0  0  0  0  0  0  0
   45.5210   31.1340   47.5950 C   0  0  0  0  0  0  0  0  0  0  0  0
   45.6260   31.7250   48.4960 H   0  0  0  0  0  0  0  0  0  0  0  0
   44.8680   29.9450   47.7600 C   0  0  0  0  0  0  0  0  0  0  0  0
   44.4820   29.6210   48.7340 H   0  0  0  0  0  0  0  0  0  0  0  0
   44.6880   29.1300   46.6680 C   0  0  0  0  0  0  0  0  0  0  0  0
   45.2050   29.6090   45.4720 C   0  0  0  0  0  0  0  0  0  0  0  0
   45.8480   30.7980   45.3540 N   0  0  0  0  0  0  0  0  0  0  0  0
  1  3  1  0  0  0  0
  2  1  1  0  0  0  0
  4  5  2  0  0  0  0
  4  9  1  0  0  0  0
  5  6  1  0  0  0  0
  6 12  1  0  0  0  0
  6  7  2  0  0  0  0
  8  7  1  0  0  0  0
  8  1  1  0  0  0  0
  9  8  2  0  0  0  0
 10  4  1  0  0  0  0
 11  5  1  0  0  0  0
 13  1  1  0  0  0  0
 13 14  1  0  0  0  0
 14 16  2  0  0  0  0
 14 15  1  0  0  0  0
 16 17  1  0  0  0  0
 18 16  1  0  0  0  0
 19 18  2  0  0  0  0
 20 19  1  0  0  0  0
 20 13  2  0  0  0  0
M  END
>  <minimizedAffinity>
-3.98637986

>  <minimizedRMSD>
3.76365447

$$$$
