
 OpenBabel03252508463D

 44 46  0  0  0  0  0  0  0  0999 V2000
   42.9920   32.4630   41.6610 C   0  0  0  0  0  0  0  0  0  0  0  0
   43.4600   32.0160   40.7430 H   0  0  0  0  0  0  0  0  0  0  0  0
   42.0390   32.9320   41.3130 H   0  0  0  0  0  0  0  0  0  0  0  0
   43.6620   34.8650   41.9040 C   0  0  0  0  0  0  0  0  0  0  0  0
   43.8790   33.5270   42.2070 C   0  0  0  0  0  0  0  0  0  0  0  0
   44.9360   33.2040   43.0250 C   0  0  0  0  0  0  0  0  0  0  0  0
   45.7490   34.1850   43.5230 C   0  0  0  0  0  0  0  0  0  0  0  0
   45.5600   35.5030   43.2440 C   0  0  0  0  0  0  0  0  0  0  0  0
   44.4880   35.7870   42.4200 C   0  0  0  0  0  0  0  0  0  0  0  0
   45.1470   32.1750   43.2890 H   0  0  0  0  0  0  0  0  0  0  0  0
   46.5730   33.8970   44.1640 H   0  0  0  0  0  0  0  0  0  0  0  0
   46.1700   36.3140   43.6110 H   0  0  0  0  0  0  0  0  0  0  0  0
   44.2630   36.8160   42.1450 H   0  0  0  0  0  0  0  0  0  0  0  0
   40.2660   35.7950   40.5340 C   0  0  0  0  0  0  0  0  0  0  0  0
   41.2850   35.5450   41.4690 C   0  0  0  0  0  0  0  0  0  0  0  0
   42.5340   35.1510   41.0390 C   0  0  0  0  0  0  0  0  0  0  0  0
   42.7080   35.0250   39.6920 N   0  0  0  0  0  0  0  0  0  0  0  0
   41.7190   35.2680   38.7970 C   0  0  0  0  0  0  0  0  0  0  0  0
   40.5050   35.6520   39.2380 N   0  0  0  0  0  0  0  0  0  0  0  0
   39.3280   36.0980   40.9890 H   0  0  0  0  0  0  0  0  0  0  0  0
   41.1730   35.6380   42.5450 H   0  0  0  0  0  0  0  0  0  0  0  0
   41.9470   35.1420   37.7410 H   0  0  0  0  0  0  0  0  0  0  0  0
   42.6560   31.4250   42.5750 N   0  0  0  0  0  0  0  0  0  0  0  0
   43.1630   30.5370   42.4140 H   0  0  0  0  0  0  0  0  0  0  0  0
   40.9840   31.1010   42.6510 S   0  0  0  0  0  0  0  0  0  0  0  0
   40.1830   32.3100   42.2050 O   0  0  0  0  0  0  0  0  0  0  0  0
   39.9020   32.3760   41.2530 H   0  0  0  0  0  0  0  0  0  0  0  0
   40.5720   30.6830   44.0160 O   0  0  0  0  0  0  0  0  0  0  0  0
   41.1710   30.2260   44.6660 H   0  0  0  0  0  0  0  0  0  0  0  0
   40.6480   29.8490   41.5710 O   0  0  0  0  0  0  0  0  0  0  0  0
   40.2380   28.7620   42.3240 C   0  0  0  0  0  0  0  0  0  0  0  0
   39.7870   28.9950   43.2870 H   0  0  0  0  0  0  0  0  0  0  0  0
   39.4330   28.2670   41.7060 H   0  0  0  0  0  0  0  0  0  0  0  0
   41.3460   27.7420   42.4070 C   0  0  0  0  0  0  0  0  0  0  0  0
   42.0820   28.0200   41.5950 H   0  0  0  0  0  0  0  0  0  0  0  0
   40.9070   26.7790   42.0330 H   0  0  0  0  0  0  0  0  0  0  0  0
   41.9810   27.6090   43.7150 C   0  0  0  0  0  0  0  0  0  0  0  0
   41.6210   26.6550   44.6430 C   0  0  0  0  0  0  0  0  0  0  0  0
   40.8280   25.9600   44.4110 H   0  0  0  0  0  0  0  0  0  0  0  0
   42.3310   26.6620   45.8500 C   0  0  0  0  0  0  0  0  0  0  0  0
   42.0730   25.9260   46.6000 H   0  0  0  0  0  0  0  0  0  0  0  0
   43.3350   27.5860   46.0720 C   0  0  0  0  0  3  0  0  0  0  0  0
   43.6770   28.5410   45.1110 C   0  0  0  0  0  3  0  0  0  0  0  0
   42.9750   28.5140   43.9510 N   0  0  0  0  0  0  0  0  0  0  0  0
  1  5  1  0  0  0  0
  1 23  1  0  0  0  0
  2  1  1  0  0  0  0
  3  1  1  0  0  0  0
  4  5  2  0  0  0  0
  4  9  1  0  0  0  0
  5  6  1  0  0  0  0
  6 10  1  0  0  0  0
  6  7  2  0  0  0  0
  7 11  1  0  0  0  0
  8  7  1  0  0  0  0
  8 12  1  0  0  0  0
  9  8  2  0  0  0  0
 13  9  1  0  0  0  0
 14 20  1  0  0  0  0
 14 15  1  0  0  0  0
 15 21  1  0  0  0  0
 16 15  2  0  0  0  0
 16  4  1  0  0  0  0
 17 16  1  0  0  0  0
 18 19  1  0  0  0  0
 18 17  2  0  0  0  0
 19 14  2  0  0  0  0
 22 18  1  0  0  0  0
 23 25  1  0  0  0  0
 24 23  1  0  0  0  0
 25 28  1  0  0  0  0
 26 25  1  0  0  0  0
 27 26  1  0  0  0  0
 28 29  1  0  0  0  0
 30 31  1  0  0  0  0
 30 25  1  0  0  0  0
 31 34  1  0  0  0  0
 31 32  1  0  0  0  0
 33 31  1  0  0  0  0
 34 37  1  0  0  0  0
 35 34  1  0  0  0  0
 36 34  1  0  0  0  0
 37 44  2  0  0  0  0
 37 38  1  0  0  0  0
 38 40  2  0  0  0  0
 39 38  1  0  0  0  0
 40 42  1  0  0  0  0
 40 41  1  0  0  0  0
 43 42  2  0  0  0  0
 44 43  1  0  0  0  0
M  END
>  <minimizedAffinity>
-5.02003908

>  <minimizedRMSD>
1.53544414

$$$$
