
 OpenBabel03252508463D

 44 46  0  0  0  0  0  0  0  0999 V2000
   43.0170   32.4890   41.6380 C   0  0  0  0  0  0  0  0  0  0  0  0
   43.5000   32.0370   40.7300 H   0  0  0  0  0  0  0  0  0  0  0  0
   42.0690   32.9530   41.2720 H   0  0  0  0  0  0  0  0  0  0  0  0
   43.6630   34.8970   41.8940 C   0  0  0  0  0  0  0  0  0  0  0  0
   43.8940   33.5600   42.1900 C   0  0  0  0  0  0  0  0  0  0  0  0
   44.9540   33.2430   43.0060 C   0  0  0  0  0  0  0  0  0  0  0  0
   45.7570   34.2290   43.5090 C   0  0  0  0  0  0  0  0  0  0  0  0
   45.5550   35.5470   43.2370 C   0  0  0  0  0  0  0  0  0  0  0  0
   44.4800   35.8240   42.4140 C   0  0  0  0  0  0  0  0  0  0  0  0
   45.1760   32.2150   43.2640 H   0  0  0  0  0  0  0  0  0  0  0  0
   46.5840   33.9470   44.1480 H   0  0  0  0  0  0  0  0  0  0  0  0
   46.1570   36.3620   43.6080 H   0  0  0  0  0  0  0  0  0  0  0  0
   44.2450   36.8530   42.1440 H   0  0  0  0  0  0  0  0  0  0  0  0
   40.2590   35.8050   40.5280 C   0  0  0  0  0  0  0  0  0  0  0  0
   41.2810   35.5610   41.4620 C   0  0  0  0  0  0  0  0  0  0  0  0
   42.5330   35.1760   41.0300 C   0  0  0  0  0  0  0  0  0  0  0  0
   42.7060   35.0530   39.6820 N   0  0  0  0  0  0  0  0  0  0  0  0
   41.7150   35.2910   38.7890 C   0  0  0  0  0  0  0  0  0  0  0  0
   40.4980   35.6650   39.2310 N   0  0  0  0  0  0  0  0  0  0  0  0
   39.3200   36.1000   40.9840 H   0  0  0  0  0  0  0  0  0  0  0  0
   41.1690   35.6510   42.5380 H   0  0  0  0  0  0  0  0  0  0  0  0
   41.9420   35.1680   37.7320 H   0  0  0  0  0  0  0  0  0  0  0  0
   42.6700   31.4570   42.5540 N   0  0  0  0  0  0  0  0  0  0  0  0
   43.1880   30.5720   42.4100 H   0  0  0  0  0  0  0  0  0  0  0  0
   41.0000   31.1210   42.5980 S   0  0  0  0  0  0  0  0  0  0  0  0
   40.1930   32.3990   42.4700 O   0  0  0  0  0  0  0  0  0  0  0  0
   39.8860   32.6850   41.5690 H   0  0  0  0  0  0  0  0  0  0  0  0
   40.6240   30.3950   43.8400 O   0  0  0  0  0  0  0  0  0  0  0  0
   41.2380   29.8010   44.3470 H   0  0  0  0  0  0  0  0  0  0  0  0
   40.6280   30.1560   41.2660 O   0  0  0  0  0  0  0  0  0  0  0  0
   39.4830   29.4450   41.5860 C   0  0  0  0  0  0  0  0  0  0  0  0
   39.2620   29.3550   42.6480 H   0  0  0  0  0  0  0  0  0  0  0  0
   38.6360   30.0390   41.1330 H   0  0  0  0  0  0  0  0  0  0  0  0
   39.4700   28.1270   40.8520 C   0  0  0  0  0  0  0  0  0  0  0  0
   39.9030   28.3400   39.8300 H   0  0  0  0  0  0  0  0  0  0  0  0
   38.3910   27.9090   40.6310 H   0  0  0  0  0  0  0  0  0  0  0  0
   40.1480   27.0250   41.5280 C   0  0  0  0  0  0  0  0  0  0  0  0
   40.4980   27.0490   42.8610 C   0  0  0  0  0  0  0  0  0  0  0  0
   40.2700   27.9220   43.4560 H   0  0  0  0  0  0  0  0  0  0  0  0
   41.1420   25.9090   43.3560 C   0  0  0  0  0  0  0  0  0  0  0  0
   41.4300   25.8950   44.3990 H   0  0  0  0  0  0  0  0  0  0  0  0
   41.4010   24.8300   42.5300 C   0  0  0  0  0  3  0  0  0  0  0  0
   41.0320   24.8370   41.1820 C   0  0  0  0  0  3  0  0  0  0  0  0
   40.4110   25.9520   40.7270 N   0  0  0  0  0  0  0  0  0  0  0  0
  1  5  1  0  0  0  0
  1 23  1  0  0  0  0
  2  1  1  0  0  0  0
  3  1  1  0  0  0  0
  4  5  2  0  0  0  0
  4  9  1  0  0  0  0
  5  6  1  0  0  0  0
  6 10  1  0  0  0  0
  6  7  2  0  0  0  0
  7 11  1  0  0  0  0
  8  7  1  0  0  0  0
  8 12  1  0  0  0  0
  9  8  2  0  0  0  0
 13  9  1  0  0  0  0
 14 20  1  0  0  0  0
 14 15  1  0  0  0  0
 15 21  1  0  0  0  0
 16 15  2  0  0  0  0
 16  4  1  0  0  0  0
 17 16  1  0  0  0  0
 18 19  1  0  0  0  0
 18 17  2  0  0  0  0
 19 14  2  0  0  0  0
 22 18  1  0  0  0  0
 23 25  1  0  0  0  0
 24 23  1  0  0  0  0
 25 28  1  0  0  0  0
 26 25  1  0  0  0  0
 27 26  1  0  0  0  0
 28 29  1  0  0  0  0
 30 31  1  0  0  0  0
 30 25  1  0  0  0  0
 31 32  1  0  0  0  0
 33 31  1  0  0  0  0
 34 37  1  0  0  0  0
 34 31  1  0  0  0  0
 35 34  1  0  0  0  0
 36 34  1  0  0  0  0
 37 38  1  0  0  0  0
 38 40  2  0  0  0  0
 38 39  1  0  0  0  0
 40 41  1  0  0  0  0
 42 40  1  0  0  0  0
 43 42  2  0  0  0  0
 44 43  1  0  0  0  0
 44 37  2  0  0  0  0
M  END
>  <minimizedAffinity>
-4.79348803

>  <minimizedRMSD>
1.65707433

$$$$
