
 OpenBabel03252500523D

 34 36  0  0  0  0  0  0  0  0999 V2000
   36.2140   30.5770   40.1950 C   0  0  0  0  0  0  0  0  0  0  0  0
   36.3720   29.7760   39.0900 C   0  0  0  0  0  0  0  0  0  0  0  0
   37.3670   30.0460   38.1180 C   0  0  0  0  0  0  0  0  0  0  0  0
   38.1600   31.1500   38.3420 N   0  0  0  0  0  0  0  0  0  0  0  0
   37.9860   31.9150   39.4260 C   0  0  0  0  0  0  0  0  0  0  0  0
   37.0340   31.6290   40.3280 N   0  0  0  0  0  0  0  0  0  0  0  0
   35.4550   30.3670   40.9330 H   0  0  0  0  0  0  0  0  0  0  0  0
   37.5020   29.4250   37.2440 H   0  0  0  0  0  0  0  0  0  0  0  0
   38.8400   33.0750   39.6370 C   0  0  0  0  0  0  0  0  0  0  0  0
   38.4280   34.1840   40.2830 C   0  0  0  0  0  0  0  0  0  0  0  0
   39.2140   35.2860   40.4930 C   0  0  0  0  0  0  0  0  0  0  0  0
   40.4870   35.2230   40.0030 N   0  0  0  0  0  0  0  0  0  0  0  0
   40.8910   34.1350   39.3690 C   0  0  0  0  0  0  0  0  0  0  0  0
   40.1370   33.0430   39.1530 N   0  0  0  0  0  0  0  0  0  0  0  0
   37.4140   34.2470   40.6790 H   0  0  0  0  0  0  0  0  0  0  0  0
   38.8760   36.1730   41.0130 H   0  0  0  0  0  0  0  0  0  0  0  0
   41.9220   34.1800   39.0160 H   0  0  0  0  0  0  0  0  0  0  0  0
   35.4990   28.6220   38.9130 C   0  0  0  0  0  0  0  0  0  0  0  0
   34.4430   28.7770   38.2640 O   0  0  0  0  0  0  0  0  0  0  0  0
   35.5830   27.3210   39.3280 O   0  0  0  0  0  0  0  0  0  0  0  0
   36.7480   26.5890   39.3090 C   0  0  0  0  0  0  0  0  0  0  0  0
   37.6030   26.9750   38.7500 H   0  0  0  0  0  0  0  0  0  0  0  0
   36.4930   25.6330   38.7570 H   0  0  0  0  0  0  0  0  0  0  0  0
   37.1690   26.0690   40.6800 C   0  0  0  0  0  0  0  0  0  0  0  0
   38.0650   25.4370   40.5110 H   0  0  0  0  0  0  0  0  0  0  0  0
   36.3810   25.4810   41.1760 H   0  0  0  0  0  0  0  0  0  0  0  0
   37.6200   27.2090   41.5480 C   0  0  0  0  0  0  0  0  0  0  0  0
   36.9190   27.4500   42.6960 C   0  0  0  0  0  0  0  0  0  0  0  0
   36.0590   26.8590   43.0000 H   0  0  0  0  0  0  0  0  0  0  0  0
   37.3380   28.4890   43.4750 C   0  0  0  0  0  0  0  0  0  0  0  0
   36.8670   28.7840   44.4100 H   0  0  0  0  0  0  0  0  0  0  0  0
   38.4350   29.2680   43.1160 C   0  0  0  0  0  3  0  0  0  0  0  0
   39.0990   28.9540   41.9260 C   0  0  0  0  0  3  0  0  0  0  0  0
   38.6940   27.9290   41.1440 N   0  0  0  0  0  0  0  0  0  0  0  0
  1  6  1  0  0  0  0
  1  7  1  0  0  0  0
  2  1  2  0  0  0  0
  3  4  2  0  0  0  0
  3  2  1  0  0  0  0
  4  5  1  0  0  0  0
  5  9  1  0  0  0  0
  5  6  2  0  0  0  0
  8  3  1  0  0  0  0
  9 10  1  0  0  0  0
 10 11  2  0  0  0  0
 10 15  1  0  0  0  0
 11 16  1  0  0  0  0
 12 11  1  0  0  0  0
 13 12  2  0  0  0  0
 14 13  1  0  0  0  0
 14  9  2  0  0  0  0
 17 13  1  0  0  0  0
 18  2  1  0  0  0  0
 18 20  1  0  0  0  0
 19 18  2  0  0  0  0
 21 20  1  0  0  0  0
 21 24  1  0  0  0  0
 22 21  1  0  0  0  0
 23 21  1  0  0  0  0
 24 26  1  0  0  0  0
 24 27  1  0  0  0  0
 25 24  1  0  0  0  0
 27 28  1  0  0  0  0
 28 29  1  0  0  0  0
 28 30  2  0  0  0  0
 30 31  1  0  0  0  0
 32 30  1  0  0  0  0
 33 32  2  0  0  0  0
 34 27  2  0  0  0  0
 34 33  1  0  0  0  0
M  END
>  <minimizedAffinity>
-5.12567949

$$$$

 OpenBabel03252500523D

 34 36  0  0  0  0  0  0  0  0999 V2000
   37.9780   27.8800   39.0800 C   0  0  0  0  0  0  0  0  0  0  0  0
   36.6890   27.4660   39.3130 C   0  0  0  0  0  0  0  0  0  0  0  0
   35.6980   28.3630   39.7840 C   0  0  0  0  0  0  0  0  0  0  0  0
   36.0990   29.6640   39.9940 N   0  0  0  0  0  0  0  0  0  0  0  0
   37.3610   30.0430   39.7600 C   0  0  0  0  0  0  0  0  0  0  0  0
   38.2740   29.1670   39.3140 N   0  0  0  0  0  0  0  0  0  0  0  0
   38.7290   27.1930   38.7220 H   0  0  0  0  0  0  0  0  0  0  0  0
   34.6800   28.0510   39.9710 H   0  0  0  0  0  0  0  0  0  0  0  0
   37.7550   31.4250   39.9910 C   0  0  0  0  0  0  0  0  0  0  0  0
   37.1210   32.4740   39.4290 C   0  0  0  0  0  0  0  0  0  0  0  0
   37.4740   33.7820   39.6330 C   0  0  0  0  0  0  0  0  0  0  0  0
   38.5370   34.0000   40.4620 N   0  0  0  0  0  0  0  0  0  0  0  0
   39.1580   32.9710   41.0130 C   0  0  0  0  0  0  0  0  0  0  0  0
   38.8290   31.6810   40.8280 N   0  0  0  0  0  0  0  0  0  0  0  0
   36.2710   32.3140   38.7650 H   0  0  0  0  0  0  0  0  0  0  0  0
   36.9600   34.6200   39.1780 H   0  0  0  0  0  0  0  0  0  0  0  0
   39.9930   33.2460   41.6590 H   0  0  0  0  0  0  0  0  0  0  0  0
   36.3310   26.0740   39.0690 C   0  0  0  0  0  0  0  0  0  0  0  0
   36.0270   25.7410   37.9040 O   0  0  0  0  0  0  0  0  0  0  0  0
   36.2470   24.9800   39.8850 O   0  0  0  0  0  0  0  0  0  0  0  0
   37.2560   24.5790   40.7290 C   0  0  0  0  0  0  0  0  0  0  0  0
   38.2900   24.7870   40.4480 H   0  0  0  0  0  0  0  0  0  0  0  0
   37.2150   23.4460   40.7300 H   0  0  0  0  0  0  0  0  0  0  0  0
   37.0000   24.9130   42.1950 C   0  0  0  0  0  0  0  0  0  0  0  0
   37.5830   24.1780   42.7880 H   0  0  0  0  0  0  0  0  0  0  0  0
   35.9360   24.8590   42.4680 H   0  0  0  0  0  0  0  0  0  0  0  0
   37.5750   26.2620   42.5240 C   0  0  0  0  0  0  0  0  0  0  0  0
   36.7440   27.1840   43.0960 C   0  0  0  0  0  0  0  0  0  0  0  0
   35.6990   26.9830   43.3190 H   0  0  0  0  0  0  0  0  0  0  0  0
   37.2780   28.4060   43.3890 C   0  0  0  0  0  0  0  0  0  0  0  0
   36.7240   29.2230   43.8450 H   0  0  0  0  0  0  0  0  0  0  0  0
   38.6110   28.6980   43.1180 C   0  0  0  0  0  3  0  0  0  0  0  0
   39.3940   27.6980   42.5330 C   0  0  0  0  0  3  0  0  0  0  0  0
   38.8800   26.4850   42.2360 N   0  0  0  0  0  0  0  0  0  0  0  0
  1  2  2  0  0  0  0
  1  6  1  0  0  0  0
  2  3  1  0  0  0  0
  3  8  1  0  0  0  0
  3  4  2  0  0  0  0
  5  9  1  0  0  0  0
  5  4  1  0  0  0  0
  6  5  2  0  0  0  0
  7  1  1  0  0  0  0
  9 14  1  0  0  0  0
 10 11  1  0  0  0  0
 10  9  2  0  0  0  0
 11 12  2  0  0  0  0
 12 13  1  0  0  0  0
 13 17  1  0  0  0  0
 14 13  2  0  0  0  0
 15 10  1  0  0  0  0
 16 11  1  0  0  0  0
 18  2  1  0  0  0  0
 18 20  1  0  0  0  0
 19 18  2  0  0  0  0
 20 21  1  0  0  0  0
 21 23  1  0  0  0  0
 21 24  1  0  0  0  0
 22 21  1  0  0  0  0
 24 26  1  0  0  0  0
 24 27  1  0  0  0  0
 24 25  1  0  0  0  0
 27 28  1  0  0  0  0
 28 29  1  0  0  0  0
 28 30  2  0  0  0  0
 30 31  1  0  0  0  0
 32 30  1  0  0  0  0
 33 32  2  0  0  0  0
 34 27  2  0  0  0  0
 34 33  1  0  0  0  0
M  END
>  <minimizedAffinity>
-5.09447813

$$$$

 OpenBabel03252500523D

 34 36  0  0  0  0  0  0  0  0999 V2000
   38.0540   30.5900   40.0710 C   0  0  0  0  0  0  0  0  0  0  0  0
   38.3300   30.3740   41.3990 C   0  0  0  0  0  0  0  0  0  0  0  0
   39.4490   30.9730   42.0280 C   0  0  0  0  0  0  0  0  0  0  0  0
   40.2400   31.7770   41.2380 N   0  0  0  0  0  0  0  0  0  0  0  0
   39.9500   31.9720   39.9460 C   0  0  0  0  0  0  0  0  0  0  0  0
   38.8810   31.3890   39.3820 N   0  0  0  0  0  0  0  0  0  0  0  0
   37.2000   30.1310   39.5960 H   0  0  0  0  0  0  0  0  0  0  0  0
   39.6780   30.8110   43.0720 H   0  0  0  0  0  0  0  0  0  0  0  0
   40.8030   32.8290   39.1350 C   0  0  0  0  0  0  0  0  0  0  0  0
   41.4110   32.4070   38.0080 C   0  0  0  0  0  0  0  0  0  0  0  0
   42.2180   33.1950   37.2300 C   0  0  0  0  0  0  0  0  0  0  0  0
   42.3940   34.4820   37.6520 N   0  0  0  0  0  0  0  0  0  0  0  0
   41.7980   34.8950   38.7570 C   0  0  0  0  0  0  0  0  0  0  0  0
   41.0030   34.1400   39.5350 N   0  0  0  0  0  0  0  0  0  0  0  0
   41.2780   31.3820   37.6600 H   0  0  0  0  0  0  0  0  0  0  0  0
   42.7030   32.8490   36.3260 H   0  0  0  0  0  0  0  0  0  0  0  0
   41.9990   35.9370   39.0110 H   0  0  0  0  0  0  0  0  0  0  0  0
   37.4520   29.5110   42.1800 C   0  0  0  0  0  0  0  0  0  0  0  0
   36.4630   29.0050   41.6070 O   0  0  0  0  0  0  0  0  0  0  0  0
   37.4700   29.1040   43.4850 O   0  0  0  0  0  0  0  0  0  0  0  0
   37.5360   27.7860   43.8720 C   0  0  0  0  0  0  0  0  0  0  0  0
   36.6490   27.1590   43.7580 H   0  0  0  0  0  0  0  0  0  0  0  0
   37.6880   27.8100   44.9950 H   0  0  0  0  0  0  0  0  0  0  0  0
   38.7910   27.0660   43.3910 C   0  0  0  0  0  0  0  0  0  0  0  0
   39.3070   26.6960   44.3010 H   0  0  0  0  0  0  0  0  0  0  0  0
   39.4660   27.7180   42.8150 H   0  0  0  0  0  0  0  0  0  0  0  0
   38.4150   25.8450   42.6000 C   0  0  0  0  0  0  0  0  0  0  0  0
   39.4230   25.0250   42.1780 C   0  0  0  0  0  0  0  0  0  0  0  0
   40.4720   25.2180   42.3880 H   0  0  0  0  0  0  0  0  0  0  0  0
   39.0670   23.9200   41.4600 C   0  0  0  0  0  0  0  0  0  0  0  0
   39.7720   23.1900   41.0680 H   0  0  0  0  0  0  0  0  0  0  0  0
   37.7350   23.6400   41.1720 C   0  0  0  0  0  3  0  0  0  0  0  0
   36.7640   24.5300   41.6420 C   0  0  0  0  0  3  0  0  0  0  0  0
   37.1000   25.6280   42.3530 N   0  0  0  0  0  0  0  0  0  0  0  0
  1  2  1  0  0  0  0
  2  3  2  0  0  0  0
  2 18  1  0  0  0  0
  3  8  1  0  0  0  0
  4  3  1  0  0  0  0
  5  4  2  0  0  0  0
  6  5  1  0  0  0  0
  6  1  2  0  0  0  0
  7  1  1  0  0  0  0
  9 14  1  0  0  0  0
  9  5  1  0  0  0  0
 10  9  2  0  0  0  0
 11 12  2  0  0  0  0
 11 10  1  0  0  0  0
 12 13  1  0  0  0  0
 13 17  1  0  0  0  0
 13 14  2  0  0  0  0
 15 10  1  0  0  0  0
 16 11  1  0  0  0  0
 18 20  1  0  0  0  0
 19 18  2  0  0  0  0
 20 21  1  0  0  0  0
 21 23  1  0  0  0  0
 22 21  1  0  0  0  0
 24 21  1  0  0  0  0
 24 25  1  0  0  0  0
 26 24  1  0  0  0  0
 27 24  1  0  0  0  0
 28 29  1  0  0  0  0
 28 27  2  0  0  0  0
 30 28  1  0  0  0  0
 31 30  1  0  0  0  0
 32 30  2  0  0  0  0
 32 33  1  0  0  0  0
 33 34  2  0  0  0  0
 34 27  1  0  0  0  0
M  END
>  <minimizedAffinity>
-5.08976269

$$$$

 OpenBabel03252500523D

 34 36  0  0  0  0  0  0  0  0999 V2000
   36.3880   30.6900   39.5030 C   0  0  0  0  0  0  0  0  0  0  0  0
   36.4690   30.2130   38.2170 C   0  0  0  0  0  0  0  0  0  0  0  0
   37.4080   30.7340   37.2930 C   0  0  0  0  0  0  0  0  0  0  0  0
   38.2290   31.7390   37.7540 N   0  0  0  0  0  0  0  0  0  0  0  0
   38.1300   32.1870   39.0110 C   0  0  0  0  0  0  0  0  0  0  0  0
   37.2290   31.6710   39.8610 N   0  0  0  0  0  0  0  0  0  0  0  0
   35.6700   30.2900   40.2030 H   0  0  0  0  0  0  0  0  0  0  0  0
   37.4820   30.3670   36.2790 H   0  0  0  0  0  0  0  0  0  0  0  0
   39.0120   33.2510   39.4700 C   0  0  0  0  0  0  0  0  0  0  0  0
   40.3420   33.2500   39.2490 C   0  0  0  0  0  0  0  0  0  0  0  0
   41.1900   34.2400   39.6720 C   0  0  0  0  0  0  0  0  0  0  0  0
   40.6190   35.2750   40.3540 N   0  0  0  0  0  0  0  0  0  0  0  0
   39.3140   35.2760   40.5710 C   0  0  0  0  0  0  0  0  0  0  0  0
   38.4640   34.3160   40.1660 N   0  0  0  0  0  0  0  0  0  0  0  0
   40.8100   32.4290   38.7060 H   0  0  0  0  0  0  0  0  0  0  0  0
   42.2570   34.2330   39.4900 H   0  0  0  0  0  0  0  0  0  0  0  0
   38.9520   36.1440   41.1230 H   0  0  0  0  0  0  0  0  0  0  0  0
   35.5700   29.1460   37.7930 C   0  0  0  0  0  0  0  0  0  0  0  0
   36.0660   28.0300   37.5270 O   0  0  0  0  0  0  0  0  0  0  0  0
   34.2160   29.0900   37.6090 O   0  0  0  0  0  0  0  0  0  0  0  0
   33.6170   28.9990   36.3740 C   0  0  0  0  0  0  0  0  0  0  0  0
   34.0730   28.3600   35.6150 H   0  0  0  0  0  0  0  0  0  0  0  0
   33.7040   30.0350   35.9210 H   0  0  0  0  0  0  0  0  0  0  0  0
   32.1070   28.7970   36.4360 C   0  0  0  0  0  0  0  0  0  0  0  0
   31.8800   28.4580   37.4680 H   0  0  0  0  0  0  0  0  0  0  0  0
   31.7430   28.0570   35.7080 H   0  0  0  0  0  0  0  0  0  0  0  0
   31.4040   30.1140   36.2660 C   0  0  0  0  0  0  0  0  0  0  0  0
   31.5280   30.7510   35.0630 C   0  0  0  0  0  0  0  0  0  0  0  0
   32.1070   30.3480   34.2370 H   0  0  0  0  0  0  0  0  0  0  0  0
   30.8840   31.9470   34.9220 C   0  0  0  0  0  0  0  0  0  0  0  0
   30.9040   32.5500   34.0180 H   0  0  0  0  0  0  0  0  0  0  0  0
   30.1340   32.4920   35.9590 C   0  0  0  0  0  3  0  0  0  0  0  0
   30.0570   31.7760   37.1580 C   0  0  0  0  0  3  0  0  0  0  0  0
   30.6880   30.5920   37.3130 N   0  0  0  0  0  0  0  0  0  0  0  0
  1  6  1  0  0  0  0
  1  7  1  0  0  0  0
  2  1  2  0  0  0  0
  3  4  2  0  0  0  0
  3  2  1  0  0  0  0
  4  5  1  0  0  0  0
  5  9  1  0  0  0  0
  5  6  2  0  0  0  0
  8  3  1  0  0  0  0
  9 14  1  0  0  0  0
 10  9  2  0  0  0  0
 10 11  1  0  0  0  0
 11 12  2  0  0  0  0
 12 13  1  0  0  0  0
 13 17  1  0  0  0  0
 14 13  2  0  0  0  0
 15 10  1  0  0  0  0
 16 11  1  0  0  0  0
 18  2  1  0  0  0  0
 19 18  2  0  0  0  0
 20 18  1  0  0  0  0
 21 24  1  0  0  0  0
 21 20  1  0  0  0  0
 22 21  1  0  0  0  0
 23 21  1  0  0  0  0
 24 25  1  0  0  0  0
 26 24  1  0  0  0  0
 27 24  1  0  0  0  0
 27 34  1  0  0  0  0
 28 27  2  0  0  0  0
 29 28  1  0  0  0  0
 30 28  1  0  0  0  0
 30 32  2  0  0  0  0
 31 30  1  0  0  0  0
 32 33  1  0  0  0  0
 33 34  2  0  0  0  0
M  END
>  <minimizedAffinity>
-5.05463076

$$$$

 OpenBabel03252500523D

 34 36  0  0  0  0  0  0  0  0999 V2000
   39.9530   29.6800   40.4280 C   0  0  0  0  0  0  0  0  0  0  0  0
   39.8360   30.5800   41.4600 C   0  0  0  0  0  0  0  0  0  0  0  0
   39.3040   30.1990   42.7160 C   0  0  0  0  0  0  0  0  0  0  0  0
   38.9110   28.8850   42.8420 N   0  0  0  0  0  0  0  0  0  0  0  0
   39.0340   28.0280   41.8220 C   0  0  0  0  0  0  0  0  0  0  0  0
   39.5430   28.4230   40.6450 N   0  0  0  0  0  0  0  0  0  0  0  0
   40.3590   29.9760   39.4730 H   0  0  0  0  0  0  0  0  0  0  0  0
   39.2070   30.8970   43.5360 H   0  0  0  0  0  0  0  0  0  0  0  0
   38.6100   26.6450   41.9850 C   0  0  0  0  0  0  0  0  0  0  0  0
   37.3310   26.2450   41.8370 C   0  0  0  0  0  0  0  0  0  0  0  0
   36.9100   24.9490   41.9860 C   0  0  0  0  0  0  0  0  0  0  0  0
   37.8720   24.0340   42.3030 N   0  0  0  0  0  0  0  0  0  0  0  0
   39.1260   24.4260   42.4490 C   0  0  0  0  0  0  0  0  0  0  0  0
   39.5610   25.6900   42.3070 N   0  0  0  0  0  0  0  0  0  0  0  0
   36.5530   26.9660   41.5830 H   0  0  0  0  0  0  0  0  0  0  0  0
   35.8810   24.6360   41.8650 H   0  0  0  0  0  0  0  0  0  0  0  0
   39.8200   23.6230   42.7020 H   0  0  0  0  0  0  0  0  0  0  0  0
   40.2730   31.9570   41.2590 C   0  0  0  0  0  0  0  0  0  0  0  0
   41.4720   32.2310   41.4780 O   0  0  0  0  0  0  0  0  0  0  0  0
   39.6190   33.0900   40.8600 O   0  0  0  0  0  0  0  0  0  0  0  0
   38.9550   33.2040   39.6610 C   0  0  0  0  0  0  0  0  0  0  0  0
   39.2890   32.6000   38.8150 H   0  0  0  0  0  0  0  0  0  0  0  0
   39.1500   34.2640   39.3100 H   0  0  0  0  0  0  0  0  0  0  0  0
   37.4360   33.1810   39.7940 C   0  0  0  0  0  0  0  0  0  0  0  0
   37.0370   33.6960   38.8960 H   0  0  0  0  0  0  0  0  0  0  0  0
   37.0780   33.6810   40.7060 H   0  0  0  0  0  0  0  0  0  0  0  0
   36.9330   31.7670   39.7210 C   0  0  0  0  0  0  0  0  0  0  0  0
   37.0410   31.1150   38.5250 C   0  0  0  0  0  0  0  0  0  0  0  0
   37.4700   31.5730   37.6370 H   0  0  0  0  0  0  0  0  0  0  0  0
   36.5800   29.8310   38.4710 C   0  0  0  0  0  0  0  0  0  0  0  0
   36.6090   29.2060   37.5820 H   0  0  0  0  0  0  0  0  0  0  0  0
   36.0260   29.2130   39.5880 C   0  0  0  0  0  3  0  0  0  0  0  0
   35.9540   29.9500   40.7750 C   0  0  0  0  0  3  0  0  0  0  0  0
   36.4050   31.2210   40.8430 N   0  0  0  0  0  0  0  0  0  0  0  0
  1  6  2  0  0  0  0
  1  2  1  0  0  0  0
  2  3  2  0  0  0  0
  3  4  1  0  0  0  0
  3  8  1  0  0  0  0
  5  9  1  0  0  0  0
  5  4  2  0  0  0  0
  6  5  1  0  0  0  0
  7  1  1  0  0  0  0
  9 14  1  0  0  0  0
 10  9  2  0  0  0  0
 10 11  1  0  0  0  0
 11 12  2  0  0  0  0
 12 13  1  0  0  0  0
 13 17  1  0  0  0  0
 14 13  2  0  0  0  0
 15 10  1  0  0  0  0
 16 11  1  0  0  0  0
 18  2  1  0  0  0  0
 18 19  2  0  0  0  0
 20 18  1  0  0  0  0
 21 24  1  0  0  0  0
 21 20  1  0  0  0  0
 22 21  1  0  0  0  0
 23 21  1  0  0  0  0
 24 26  1  0  0  0  0
 25 24  1  0  0  0  0
 27 24  1  0  0  0  0
 27 34  1  0  0  0  0
 28 27  2  0  0  0  0
 29 28  1  0  0  0  0
 30 28  1  0  0  0  0
 30 32  2  0  0  0  0
 31 30  1  0  0  0  0
 32 33  1  0  0  0  0
 33 34  2  0  0  0  0
M  END
>  <minimizedAffinity>
-5.00317287

$$$$

 OpenBabel03252500523D

 34 36  0  0  0  0  0  0  0  0999 V2000
   36.9910   29.7000   38.4950 C   0  0  0  0  0  0  0  0  0  0  0  0
   37.6690   28.6350   39.0360 C   0  0  0  0  0  0  0  0  0  0  0  0
   38.8470   28.8200   39.8010 C   0  0  0  0  0  0  0  0  0  0  0  0
   39.2700   30.1200   39.9690 N   0  0  0  0  0  0  0  0  0  0  0  0
   38.5920   31.1410   39.4320 C   0  0  0  0  0  0  0  0  0  0  0  0
   37.4790   30.9290   38.7120 N   0  0  0  0  0  0  0  0  0  0  0  0
   36.0940   29.5540   37.9130 H   0  0  0  0  0  0  0  0  0  0  0  0
   39.3900   27.9910   40.2320 H   0  0  0  0  0  0  0  0  0  0  0  0
   39.0650   32.5040   39.6270 C   0  0  0  0  0  0  0  0  0  0  0  0
   38.3180   33.4660   40.2050 C   0  0  0  0  0  0  0  0  0  0  0  0
   38.7420   34.7540   40.3990 C   0  0  0  0  0  0  0  0  0  0  0  0
   40.0040   35.0460   39.9690 N   0  0  0  0  0  0  0  0  0  0  0  0
   40.7370   34.1030   39.4020 C   0  0  0  0  0  0  0  0  0  0  0  0
   40.3410   32.8340   39.2020 N   0  0  0  0  0  0  0  0  0  0  0  0
   37.3080   33.2450   40.5530 H   0  0  0  0  0  0  0  0  0  0  0  0
   38.1350   35.5210   40.8640 H   0  0  0  0  0  0  0  0  0  0  0  0
   41.7300   34.4330   39.0930 H   0  0  0  0  0  0  0  0  0  0  0  0
   37.1650   27.2840   38.8200 C   0  0  0  0  0  0  0  0  0  0  0  0
   37.2760   26.7900   37.6780 O   0  0  0  0  0  0  0  0  0  0  0  0
   36.5580   26.3760   39.6440 O   0  0  0  0  0  0  0  0  0  0  0  0
   37.1470   25.2020   40.0500 C   0  0  0  0  0  0  0  0  0  0  0  0
   38.1820   25.0060   39.7630 H   0  0  0  0  0  0  0  0  0  0  0  0
   36.5760   24.3790   39.5190 H   0  0  0  0  0  0  0  0  0  0  0  0
   36.9050   24.8680   41.5180 C   0  0  0  0  0  0  0  0  0  0  0  0
   37.0230   23.7680   41.6110 H   0  0  0  0  0  0  0  0  0  0  0  0
   35.9060   25.1700   41.8680 H   0  0  0  0  0  0  0  0  0  0  0  0
   37.9830   25.4760   42.3700 C   0  0  0  0  0  0  0  0  0  0  0  0
   37.8060   26.7620   42.7980 C   0  0  0  0  0  0  0  0  0  0  0  0
   36.9290   27.3530   42.5490 H   0  0  0  0  0  0  0  0  0  0  0  0
   38.7930   27.3030   43.5700 C   0  0  0  0  0  0  0  0  0  0  0  0
   38.7720   28.3130   43.9730 H   0  0  0  0  0  0  0  0  0  0  0  0
   39.9300   26.5740   43.9080 C   0  0  0  0  0  3  0  0  0  0  0  0
   40.0330   25.2640   43.4310 C   0  0  0  0  0  3  0  0  0  0  0  0
   39.0650   24.7160   42.6650 N   0  0  0  0  0  0  0  0  0  0  0  0
  1  6  2  0  0  0  0
  1  2  1  0  0  0  0
  2  3  2  0  0  0  0
  3  4  1  0  0  0  0
  3  8  1  0  0  0  0
  5  9  1  0  0  0  0
  5  4  2  0  0  0  0
  6  5  1  0  0  0  0
  7  1  1  0  0  0  0
  9 10  1  0  0  0  0
 10 11  2  0  0  0  0
 10 15  1  0  0  0  0
 11 16  1  0  0  0  0
 12 11  1  0  0  0  0
 13 12  2  0  0  0  0
 14 13  1  0  0  0  0
 14  9  2  0  0  0  0
 17 13  1  0  0  0  0
 18  2  1  0  0  0  0
 18 20  1  0  0  0  0
 19 18  2  0  0  0  0
 20 21  1  0  0  0  0
 21 24  1  0  0  0  0
 22 21  1  0  0  0  0
 23 21  1  0  0  0  0
 24 25  1  0  0  0  0
 24 26  1  0  0  0  0
 24 27  1  0  0  0  0
 27 34  2  0  0  0  0
 27 28  1  0  0  0  0
 28 30  2  0  0  0  0
 29 28  1  0  0  0  0
 30 32  1  0  0  0  0
 30 31  1  0  0  0  0
 33 32  2  0  0  0  0
 34 33  1  0  0  0  0
M  END
>  <minimizedAffinity>
-4.97879601

$$$$

 OpenBabel03252500523D

 34 36  0  0  0  0  0  0  0  0999 V2000
   38.5100   30.0900   38.4520 C   0  0  0  0  0  0  0  0  0  0  0  0
   37.3250   30.7410   38.6980 C   0  0  0  0  0  0  0  0  0  0  0  0
   37.2910   32.1220   39.0090 C   0  0  0  0  0  0  0  0  0  0  0  0
   38.5050   32.7710   39.0500 N   0  0  0  0  0  0  0  0  0  0  0  0
   39.6460   32.1150   38.8080 C   0  0  0  0  0  0  0  0  0  0  0  0
   39.6410   30.8050   38.5160 N   0  0  0  0  0  0  0  0  0  0  0  0
   38.5300   29.0370   38.2160 H   0  0  0  0  0  0  0  0  0  0  0  0
   36.3660   32.6470   39.2040 H   0  0  0  0  0  0  0  0  0  0  0  0
   40.9150   32.8280   38.8590 C   0  0  0  0  0  0  0  0  0  0  0  0
   41.6240   32.9860   39.9940 C   0  0  0  0  0  0  0  0  0  0  0  0
   42.8190   33.6520   40.0650 C   0  0  0  0  0  0  0  0  0  0  0  0
   43.2910   34.1740   38.8960 N   0  0  0  0  0  0  0  0  0  0  0  0
   42.5950   34.0190   37.7820 C   0  0  0  0  0  0  0  0  0  0  0  0
   41.4220   33.3690   37.6890 N   0  0  0  0  0  0  0  0  0  0  0  0
   41.2580   32.5740   40.9350 H   0  0  0  0  0  0  0  0  0  0  0  0
   43.3830   33.7750   40.9810 H   0  0  0  0  0  0  0  0  0  0  0  0
   43.0540   34.4700   36.9010 H   0  0  0  0  0  0  0  0  0  0  0  0
   36.0740   29.9940   38.6370 C   0  0  0  0  0  0  0  0  0  0  0  0
   35.7010   29.5620   37.5250 O   0  0  0  0  0  0  0  0  0  0  0  0
   35.1560   29.6380   39.5860 O   0  0  0  0  0  0  0  0  0  0  0  0
   35.4680   28.9150   40.7140 C   0  0  0  0  0  0  0  0  0  0  0  0
   34.6740   28.6850   41.4270 H   0  0  0  0  0  0  0  0  0  0  0  0
   36.1640   29.5790   41.3140 H   0  0  0  0  0  0  0  0  0  0  0  0
   36.3410   27.6950   40.4400 C   0  0  0  0  0  0  0  0  0  0  0  0
   36.9710   27.9530   39.5640 H   0  0  0  0  0  0  0  0  0  0  0  0
   35.7560   26.7880   40.2290 H   0  0  0  0  0  0  0  0  0  0  0  0
   37.2890   27.4720   41.5850 C   0  0  0  0  0  0  0  0  0  0  0  0
   36.8880   27.8680   42.8290 C   0  0  0  0  0  0  0  0  0  0  0  0
   35.9240   28.3320   43.0210 H   0  0  0  0  0  0  0  0  0  0  0  0
   37.7590   27.6610   43.8600 C   0  0  0  0  0  0  0  0  0  0  0  0
   37.5590   27.9300   44.8940 H   0  0  0  0  0  0  0  0  0  0  0  0
   39.0010   27.0690   43.6510 C   0  0  0  0  0  3  0  0  0  0  0  0
   39.3350   26.6920   42.3460 C   0  0  0  0  0  3  0  0  0  0  0  0
   38.4840   26.8920   41.3160 N   0  0  0  0  0  0  0  0  0  0  0  0
  1  6  2  0  0  0  0
  1  2  1  0  0  0  0
  2  3  2  0  0  0  0
  3  4  1  0  0  0  0
  3  8  1  0  0  0  0
  5  9  1  0  0  0  0
  5  4  2  0  0  0  0
  6  5  1  0  0  0  0
  7  1  1  0  0  0  0
  9 10  1  0  0  0  0
 10 11  2  0  0  0  0
 10 15  1  0  0  0  0
 11 16  1  0  0  0  0
 12 11  1  0  0  0  0
 13 12  2  0  0  0  0
 14 13  1  0  0  0  0
 14  9  2  0  0  0  0
 17 13  1  0  0  0  0
 18  2  1  0  0  0  0
 18 20  1  0  0  0  0
 19 18  2  0  0  0  0
 20 21  1  0  0  0  0
 21 23  1  0  0  0  0
 21 22  1  0  0  0  0
 24 21  1  0  0  0  0
 24 27  1  0  0  0  0
 25 24  1  0  0  0  0
 26 24  1  0  0  0  0
 27 28  1  0  0  0  0
 28 29  1  0  0  0  0
 28 30  2  0  0  0  0
 30 31  1  0  0  0  0
 32 30  1  0  0  0  0
 33 32  2  0  0  0  0
 34 27  2  0  0  0  0
 34 33  1  0  0  0  0
M  END
>  <minimizedAffinity>
-4.916399

$$$$

 OpenBabel03252500523D

 34 36  0  0  0  0  0  0  0  0999 V2000
   38.3090   29.7020   39.4480 C   0  0  0  0  0  0  0  0  0  0  0  0
   37.1640   30.1290   40.0770 C   0  0  0  0  0  0  0  0  0  0  0  0
   36.9530   31.4970   40.3790 C   0  0  0  0  0  0  0  0  0  0  0  0
   37.9540   32.3680   40.0100 N   0  0  0  0  0  0  0  0  0  0  0  0
   39.0610   31.9280   39.3990 C   0  0  0  0  0  0  0  0  0  0  0  0
   39.2280   30.6240   39.1280 N   0  0  0  0  0  0  0  0  0  0  0  0
   38.4650   28.6590   39.2200 H   0  0  0  0  0  0  0  0  0  0  0  0
   36.0570   31.8460   40.8730 H   0  0  0  0  0  0  0  0  0  0  0  0
   40.1020   32.8720   39.0210 C   0  0  0  0  0  0  0  0  0  0  0  0
   40.3480   34.0080   39.7050 C   0  0  0  0  0  0  0  0  0  0  0  0
   41.3230   34.9100   39.3670 C   0  0  0  0  0  0  0  0  0  0  0  0
   42.0710   34.6090   38.2660 N   0  0  0  0  0  0  0  0  0  0  0  0
   41.8290   33.4950   37.5950 C   0  0  0  0  0  0  0  0  0  0  0  0
   40.8790   32.5960   37.9090 N   0  0  0  0  0  0  0  0  0  0  0  0
   39.7580   34.2600   40.5860 H   0  0  0  0  0  0  0  0  0  0  0  0
   41.5140   35.8200   39.9220 H   0  0  0  0  0  0  0  0  0  0  0  0
   42.4780   33.3420   36.7320 H   0  0  0  0  0  0  0  0  0  0  0  0
   36.1430   29.1540   40.4390 C   0  0  0  0  0  0  0  0  0  0  0  0
   35.3650   28.7570   39.5450 O   0  0  0  0  0  0  0  0  0  0  0  0
   35.8240   28.5360   41.6170 O   0  0  0  0  0  0  0  0  0  0  0  0
   36.6200   27.5920   42.2220 C   0  0  0  0  0  0  0  0  0  0  0  0
   37.2710   26.9750   41.5990 H   0  0  0  0  0  0  0  0  0  0  0  0
   35.9030   26.8360   42.6690 H   0  0  0  0  0  0  0  0  0  0  0  0
   37.3570   28.1070   43.4540 C   0  0  0  0  0  0  0  0  0  0  0  0
   37.5860   27.2160   44.0750 H   0  0  0  0  0  0  0  0  0  0  0  0
   36.7660   28.8290   44.0370 H   0  0  0  0  0  0  0  0  0  0  0  0
   38.6830   28.6890   43.0570 C   0  0  0  0  0  0  0  0  0  0  0  0
   39.6690   27.8240   42.6730 C   0  0  0  0  0  0  0  0  0  0  0  0
   39.5320   26.7460   42.6450 H   0  0  0  0  0  0  0  0  0  0  0  0
   40.8690   28.3650   42.3140 C   0  0  0  0  0  0  0  0  0  0  0  0
   41.7310   27.7860   41.9910 H   0  0  0  0  0  0  0  0  0  0  0  0
   41.0790   29.7410   42.3380 C   0  0  0  0  0  3  0  0  0  0  0  0
   40.0190   30.5580   42.7420 C   0  0  0  0  0  3  0  0  0  0  0  0
   38.8250   30.0360   43.1010 N   0  0  0  0  0  0  0  0  0  0  0  0
  1  2  1  0  0  0  0
  2  3  2  0  0  0  0
  2 18  1  0  0  0  0
  3  8  1  0  0  0  0
  4  3  1  0  0  0  0
  5  4  2  0  0  0  0
  6  5  1  0  0  0  0
  6  1  2  0  0  0  0
  7  1  1  0  0  0  0
  9  5  1  0  0  0  0
  9 10  1  0  0  0  0
 10 15  1  0  0  0  0
 11 10  2  0  0  0  0
 11 16  1  0  0  0  0
 12 11  1  0  0  0  0
 13 14  1  0  0  0  0
 13 12  2  0  0  0  0
 14  9  2  0  0  0  0
 17 13  1  0  0  0  0
 18 20  1  0  0  0  0
 19 18  2  0  0  0  0
 20 21  1  0  0  0  0
 21 23  1  0  0  0  0
 21 24  1  0  0  0  0
 22 21  1  0  0  0  0
 24 26  1  0  0  0  0
 24 25  1  0  0  0  0
 27 34  1  0  0  0  0
 27 24  1  0  0  0  0
 28 27  2  0  0  0  0
 29 28  1  0  0  0  0
 30 32  2  0  0  0  0
 30 28  1  0  0  0  0
 31 30  1  0  0  0  0
 32 33  1  0  0  0  0
 33 34  2  0  0  0  0
M  END
>  <minimizedAffinity>
-4.86171007

$$$$

 OpenBabel03252500523D

 34 36  0  0  0  0  0  0  0  0999 V2000
   36.1490   30.7620   40.4120 C   0  0  0  0  0  0  0  0  0  0  0  0
   37.1070   31.4520   39.7090 C   0  0  0  0  0  0  0  0  0  0  0  0
   37.3670   31.1720   38.3450 C   0  0  0  0  0  0  0  0  0  0  0  0
   36.6110   30.1750   37.7680 N   0  0  0  0  0  0  0  0  0  0  0  0
   35.6840   29.5180   38.4750 C   0  0  0  0  0  0  0  0  0  0  0  0
   35.4630   29.8090   39.7660 N   0  0  0  0  0  0  0  0  0  0  0  0
   35.9550   30.9790   41.4510 H   0  0  0  0  0  0  0  0  0  0  0  0
   38.1180   31.7070   37.7800 H   0  0  0  0  0  0  0  0  0  0  0  0
   34.9000   28.4690   37.8380 C   0  0  0  0  0  0  0  0  0  0  0  0
   33.7610   28.7120   37.1600 C   0  0  0  0  0  0  0  0  0  0  0  0
   33.0070   27.7420   36.5530 C   0  0  0  0  0  0  0  0  0  0  0  0
   33.4690   26.4620   36.6610 N   0  0  0  0  0  0  0  0  0  0  0  0
   34.5860   26.2230   37.3270 C   0  0  0  0  0  0  0  0  0  0  0  0
   35.3410   27.1590   37.9290 N   0  0  0  0  0  0  0  0  0  0  0  0
   33.3810   29.7300   37.0660 H   0  0  0  0  0  0  0  0  0  0  0  0
   32.0930   27.9450   36.0100 H   0  0  0  0  0  0  0  0  0  0  0  0
   34.8740   25.1710   37.3580 H   0  0  0  0  0  0  0  0  0  0  0  0
   37.8720   32.4960   40.3800 C   0  0  0  0  0  0  0  0  0  0  0  0
   37.6100   33.6860   40.1040 O   0  0  0  0  0  0  0  0  0  0  0  0
   38.8800   32.4620   41.3040 O   0  0  0  0  0  0  0  0  0  0  0  0
   39.7870   31.4330   41.4050 C   0  0  0  0  0  0  0  0  0  0  0  0
   40.8390   31.6380   41.1990 H   0  0  0  0  0  0  0  0  0  0  0  0
   39.5050   30.7020   40.5850 H   0  0  0  0  0  0  0  0  0  0  0  0
   39.6210   30.5880   42.6630 C   0  0  0  0  0  0  0  0  0  0  0  0
   39.0400   31.2060   43.3790 H   0  0  0  0  0  0  0  0  0  0  0  0
   40.5820   30.2950   43.1130 H   0  0  0  0  0  0  0  0  0  0  0  0
   38.7730   29.3830   42.3680 C   0  0  0  0  0  0  0  0  0  0  0  0
   37.8510   29.0090   43.3050 C   0  0  0  0  0  0  0  0  0  0  0  0
   37.7100   29.5410   44.2420 H   0  0  0  0  0  0  0  0  0  0  0  0
   37.0880   27.9130   43.0240 C   0  0  0  0  0  0  0  0  0  0  0  0
   36.3220   27.5150   43.6850 H   0  0  0  0  0  0  0  0  0  0  0  0
   37.2410   27.2080   41.8340 C   0  0  0  0  0  3  0  0  0  0  0  0
   38.2070   27.6570   40.9280 C   0  0  0  0  0  3  0  0  0  0  0  0
   38.9700   28.7400   41.1910 N   0  0  0  0  0  0  0  0  0  0  0  0
  1  7  1  0  0  0  0
  2 18  1  0  0  0  0
  2  1  2  0  0  0  0
  3  2  1  0  0  0  0
  4  3  2  0  0  0  0
  4  5  1  0  0  0  0
  5  6  2  0  0  0  0
  6  1  1  0  0  0  0
  8  3  1  0  0  0  0
  9 14  1  0  0  0  0
  9  5  1  0  0  0  0
 10  9  2  0  0  0  0
 11 12  2  0  0  0  0
 11 10  1  0  0  0  0
 12 13  1  0  0  0  0
 13 17  1  0  0  0  0
 13 14  2  0  0  0  0
 15 10  1  0  0  0  0
 16 11  1  0  0  0  0
 18 20  1  0  0  0  0
 19 18  2  0  0  0  0
 20 21  1  0  0  0  0
 21 24  1  0  0  0  0
 22 21  1  0  0  0  0
 23 21  1  0  0  0  0
 24 26  1  0  0  0  0
 24 25  1  0  0  0  0
 27 24  1  0  0  0  0
 27 28  1  0  0  0  0
 28 29  1  0  0  0  0
 30 28  2  0  0  0  0
 30 31  1  0  0  0  0
 32 30  1  0  0  0  0
 33 34  1  0  0  0  0
 33 32  2  0  0  0  0
 34 27  2  0  0  0  0
M  END
>  <minimizedAffinity>
-4.86160898

$$$$
