
 OpenBabel03242518543D

 41 43  0  0  1  0  0  0  0  0999 V2000
   45.7660   31.2480   46.6160 C   0  0  2  0  0  0  0  0  0  0  0  0
   45.8760   30.4660   47.8840 C   0  0  0  0  0  0  0  0  0  0  0  0
   45.0900   29.2170   47.7000 C   0  0  0  0  0  0  0  0  0  0  0  0
   44.3470   29.1050   46.4090 C   0  0  0  0  0  0  0  0  0  0  0  0
   45.3010   29.2730   45.2450 C   0  0  0  0  0  0  0  0  0  0  0  0
   46.2180   30.3810   45.4620 C   0  0  2  0  0  0  0  0  0  0  0  0
   44.6890   31.4420   46.4050 H   0  0  0  0  0  0  0  0  0  0  0  0
   46.9390   30.2540   48.1230 H   0  0  0  0  0  0  0  0  0  0  0  0
   45.5040   31.0690   48.7670 H   0  0  0  0  0  0  0  0  0  0  0  0
   45.6500   28.2710   47.8760 H   0  0  0  0  0  0  0  0  0  0  0  0
   44.2930   29.1990   48.5050 H   0  0  0  0  0  0  0  0  0  0  0  0
   43.4870   29.7920   46.3140 H   0  0  0  0  0  0  0  0  0  0  0  0
   43.9150   28.0720   46.3910 H   0  0  0  0  0  0  0  0  0  0  0  0
   44.6670   29.4530   44.3460 H   0  0  0  0  0  0  0  0  0  0  0  0
   45.7570   28.2550   45.0880 H   0  0  0  0  0  0  0  0  0  0  0  0
   46.3550   31.0310   44.5850 H   0  0  0  0  0  0  0  0  0  0  0  0
   47.5300   29.7390   45.7700 C   0  0  0  0  0  0  0  0  0  0  0  0
   47.5180   28.6380   45.8260 H   0  0  0  0  0  0  0  0  0  0  0  0
   47.9940   30.1490   46.7090 H   0  0  0  0  0  0  0  0  0  0  0  0
   48.4770   30.0760   44.6690 C   0  0  0  0  0  0  0  0  0  0  0  0
   49.6370   29.3030   44.7570 C   0  0  0  0  0  0  0  0  0  0  0  0
   49.8540   28.5490   45.5100 H   0  0  0  0  0  0  0  0  0  0  0  0
   50.6700   29.4280   43.8500 C   0  0  0  0  0  0  0  0  0  0  0  0
   51.5840   28.8540   43.8770 H   0  0  0  0  0  0  0  0  0  0  0  0
   50.5590   30.3460   42.8210 C   0  0  0  0  0  0  0  0  0  0  0  0
   49.4170   31.0860   42.7580 C   0  0  0  0  0  0  0  0  0  0  0  0
   48.4250   30.9480   43.6520 N   0  0  0  0  0  0  0  0  0  0  0  0
   46.4580   32.5600   46.6470 C   0  0  0  0  0  0  0  0  0  0  0  0
   47.3990   32.8210   47.4320 O   0  0  0  0  0  0  0  0  0  0  0  0
   44.5970   35.3470   45.1830 C   0  0  0  0  0  0  0  0  0  0  0  0
   45.1180   35.4600   43.8730 C   0  0  0  0  0  0  0  0  0  0  0  0
   46.1140   34.5650   43.5220 C   0  0  0  0  0  0  0  0  0  0  0  0
   46.4640   33.6990   44.4730 N   0  0  0  0  0  0  0  0  0  0  0  0
   45.9870   33.5830   45.6940 C   0  0  0  0  0  0  0  0  0  0  0  0
   45.0190   34.4390   46.0580 N   0  0  0  0  0  0  0  0  0  0  0  0
   43.8030   36.0330   45.5130 H   0  0  0  0  0  0  0  0  0  0  0  0
   44.7180   36.2320   43.2130 H   0  0  0  0  0  0  0  0  0  0  0  0
   46.6460   34.6780   42.1760 C   0  0  0  0  0  0  0  0  0  0  0  0
   47.3330   33.5160   41.8490 F   0  0  0  0  0  0  0  0  0  0  0  0
   47.5260   35.7110   42.1790 F   0  0  0  0  0  0  0  0  0  0  0  0
   45.6460   34.8050   41.2170 F   0  0  0  0  0  0  0  0  0  0  0  0
  1  7  1  6  0  0  0
  1 28  1  0  0  0  0
  1  2  1  0  0  0  0
  2  8  1  0  0  0  0
  2  9  1  0  0  0  0
  3 10  1  0  0  0  0
  3  2  1  0  0  0  0
  3 11  1  0  0  0  0
  4  3  1  0  0  0  0
  5  6  1  0  0  0  0
  5  4  1  0  0  0  0
  6 16  1  6  0  0  0
  6 17  1  0  0  0  0
  6  1  1  0  0  0  0
 12  4  1  0  0  0  0
 13  4  1  0  0  0  0
 14  5  1  0  0  0  0
 15  5  1  0  0  0  0
 17 18  1  0  0  0  0
 17 19  1  0  0  0  0
 20 21  1  0  0  0  0
 20 17  1  0  0  0  0
 21 22  1  0  0  0  0
 23 24  1  0  0  0  0
 23 21  2  0  0  0  0
 25 23  1  0  0  0  0
 26 25  2  0  0  0  0
 26 27  1  0  0  0  0
 27 20  2  0  0  0  0
 28 29  2  0  0  0  0
 30 36  1  0  0  0  0
 30 35  1  0  0  0  0
 31 30  2  0  0  0  0
 32 31  1  0  0  0  0
 32 33  2  0  0  0  0
 33 34  1  0  0  0  0
 34 35  2  0  0  0  0
 34 28  1  0  0  0  0
 37 31  1  0  0  0  0
 38 40  1  0  0  0  0
 38 32  1  0  0  0  0
 39 38  1  0  0  0  0
 41 38  1  0  0  0  0
M  END
>  <minimizedAffinity>
-5.39930391

>  <minimizedRMSD>
1.36177456

$$$$
