
 OpenBabel03252502253D

 33 35  0  0  1  0  0  0  0  0999 V2000
   37.0160   30.6720   39.4440 N   0  0  0  0  0  0  0  0  0  0  0  0
   37.0190   29.9080   38.2100 C   0  0  0  0  0  0  0  0  0  0  0  0
   35.5490   29.5870   37.9410 C   0  0  0  0  0  0  0  0  0  0  0  0
   35.0430   28.6580   39.0100 C   0  0  0  0  0  0  0  0  0  0  0  0
   35.4870   28.9970   40.3960 C   0  0  0  0  0  0  0  0  0  0  0  0
   36.1760   30.3190   40.5360 C   0  0  1  0  0  0  0  0  0  0  0  0
   37.5060   28.9480   38.4300 H   0  0  0  0  0  0  0  0  0  0  0  0
   37.4720   30.4550   37.3680 H   0  0  0  0  0  0  0  0  0  0  0  0
   35.5070   29.0900   36.9620 H   0  0  0  0  0  0  0  0  0  0  0  0
   35.0420   30.5870   37.9650 H   0  0  0  0  0  0  0  0  0  0  0  0
   35.4030   27.6380   38.7570 H   0  0  0  0  0  0  0  0  0  0  0  0
   33.9300   28.5850   38.9260 H   0  0  0  0  0  0  0  0  0  0  0  0
   36.1420   28.2030   40.8160 H   0  0  0  0  0  0  0  0  0  0  0  0
   34.5800   29.0210   41.0400 H   0  0  0  0  0  0  0  0  0  0  0  0
   35.4110   31.1190   40.6670 H   0  0  0  0  0  0  0  0  0  0  0  0
   38.2450   34.1610   39.9260 C   0  0  0  0  0  0  0  0  0  0  0  0
   37.3250   33.1110   39.7800 C   0  0  0  0  0  0  0  0  0  0  0  0
   37.8590   31.8120   39.6030 C   0  0  0  0  0  0  0  0  0  0  0  0
   39.2250   31.6470   39.5820 N   0  0  0  0  0  0  0  0  0  0  0  0
   40.0530   32.7200   39.7310 C   0  0  0  0  0  0  0  0  0  0  0  0
   39.5650   33.9630   39.9020 N   0  0  0  0  0  0  0  0  0  0  0  0
   37.8320   35.1320   40.0590 H   0  0  0  0  0  0  0  0  0  0  0  0
   36.2460   33.2430   39.7960 H   0  0  0  0  0  0  0  0  0  0  0  0
   41.0960   32.3950   39.6890 H   0  0  0  0  0  0  0  0  0  0  0  0
   36.9570   30.2480   41.7090 O   0  0  0  0  0  0  0  0  0  0  0  0
   37.6570   29.1380   42.1290 C   0  0  0  0  0  0  0  0  0  0  0  0
   37.3250   28.5160   43.3320 C   0  0  0  0  0  0  0  0  0  0  0  0
   36.5250   28.8700   43.9690 H   0  0  0  0  0  0  0  0  0  0  0  0
   38.0870   27.3970   43.6800 C   0  0  0  0  0  0  0  0  0  0  0  0
   37.8980   26.8520   44.5960 H   0  0  0  0  0  0  0  0  0  0  0  0
   39.1060   26.9430   42.8700 C   0  0  0  0  0  3  0  0  0  0  0  0
   39.3880   27.6020   41.6900 C   0  0  0  0  0  3  0  0  0  0  0  0
   38.6530   28.6950   41.3390 N   0  0  0  0  0  0  0  0  0  0  0  0
  1 18  1  0  0  0  0
  1  6  1  0  0  0  0
  2  7  1  0  0  0  0
  2  1  1  0  0  0  0
  3 10  1  0  0  0  0
  3  2  1  0  0  0  0
  3  4  1  0  0  0  0
  4  5  1  0  0  0  0
  5  6  1  0  0  0  0
  5 13  1  0  0  0  0
  5 14  1  0  0  0  0
  6 15  1  1  0  0  0
  6 25  1  0  0  0  0
  8  2  1  0  0  0  0
  9  3  1  0  0  0  0
 11  4  1  0  0  0  0
 12  4  1  0  0  0  0
 16 22  1  0  0  0  0
 17 23  1  0  0  0  0
 17 16  2  0  0  0  0
 18 17  1  0  0  0  0
 19 18  2  0  0  0  0
 19 20  1  0  0  0  0
 20 21  2  0  0  0  0
 21 16  1  0  0  0  0
 24 20  1  0  0  0  0
 25 26  1  0  0  0  0
 26 27  1  0  0  0  0
 27 29  2  0  0  0  0
 27 28  1  0  0  0  0
 29 30  1  0  0  0  0
 31 29  1  0  0  0  0
 32 31  2  0  0  0  0
 33 32  1  0  0  0  0
 33 26  2  0  0  0  0
M  END
>  <minimizedAffinity>
-5.30502558

$$$$

 OpenBabel03252502253D

 33 35  0  0  1  0  0  0  0  0999 V2000
   36.8120   28.2080   40.9640 N   0  0  0  0  0  0  0  0  0  0  0  0
   36.9620   26.9550   41.6810 C   0  0  0  0  0  0  0  0  0  0  0  0
   36.6360   27.2900   43.1360 C   0  0  0  0  0  0  0  0  0  0  0  0
   37.6930   28.2130   43.6780 C   0  0  0  0  0  0  0  0  0  0  0  0
   38.1160   29.2990   42.7430 C   0  0  0  0  0  0  0  0  0  0  0  0
   37.2780   29.4360   41.5090 C   0  0  1  0  0  0  0  0  0  0  0  0
   38.0300   26.6990   41.6580 H   0  0  0  0  0  0  0  0  0  0  0  0
   36.3050   26.1590   41.2950 H   0  0  0  0  0  0  0  0  0  0  0  0
   36.6470   26.3420   43.6900 H   0  0  0  0  0  0  0  0  0  0  0  0
   35.6270   27.7750   43.0850 H   0  0  0  0  0  0  0  0  0  0  0  0
   38.5780   27.5890   43.9270 H   0  0  0  0  0  0  0  0  0  0  0  0
   37.3510   28.6120   44.6650 H   0  0  0  0  0  0  0  0  0  0  0  0
   39.1800   29.1820   42.4420 H   0  0  0  0  0  0  0  0  0  0  0  0
   38.0550   30.2600   43.2980 H   0  0  0  0  0  0  0  0  0  0  0  0
   36.3950   30.0790   41.7360 H   0  0  0  0  0  0  0  0  0  0  0  0
   34.4350   28.9050   38.1750 C   0  0  0  0  0  0  0  0  0  0  0  0
   34.9610   28.9270   39.4770 C   0  0  0  0  0  0  0  0  0  0  0  0
   36.1880   28.2500   39.6820 C   0  0  0  0  0  0  0  0  0  0  0  0
   36.7900   27.6170   38.6190 N   0  0  0  0  0  0  0  0  0  0  0  0
   36.2130   27.6420   37.3830 C   0  0  0  0  0  0  0  0  0  0  0  0
   35.0480   28.2810   37.1670 N   0  0  0  0  0  0  0  0  0  0  0  0
   33.5140   29.4170   38.0320 H   0  0  0  0  0  0  0  0  0  0  0  0
   34.4840   29.4270   40.3160 H   0  0  0  0  0  0  0  0  0  0  0  0
   36.8320   27.0900   36.6720 H   0  0  0  0  0  0  0  0  0  0  0  0
   38.0750   30.0910   40.5460 O   0  0  0  0  0  0  0  0  0  0  0  0
   38.1400   31.4550   40.3670 C   0  0  0  0  0  0  0  0  0  0  0  0
   37.1040   32.1240   39.7150 C   0  0  0  0  0  0  0  0  0  0  0  0
   36.2300   31.6130   39.3330 H   0  0  0  0  0  0  0  0  0  0  0  0
   37.2530   33.5080   39.5770 C   0  0  0  0  0  0  0  0  0  0  0  0
   36.4980   34.1070   39.0840 H   0  0  0  0  0  0  0  0  0  0  0  0
   38.3650   34.1610   40.0630 C   0  0  0  0  0  3  0  0  0  0  0  0
   39.3580   33.4430   40.7000 C   0  0  0  0  0  3  0  0  0  0  0  0
   39.2260   32.0940   40.8410 N   0  0  0  0  0  0  0  0  0  0  0  0
  1  6  1  0  0  0  0
  1  2  1  0  0  0  0
  2  3  1  0  0  0  0
  3  4  1  0  0  0  0
  3  9  1  0  0  0  0
  4 11  1  0  0  0  0
  4 12  1  0  0  0  0
  5 14  1  0  0  0  0
  5  4  1  0  0  0  0
  6 15  1  1  0  0  0
  6  5  1  0  0  0  0
  7  2  1  0  0  0  0
  8  2  1  0  0  0  0
 10  3  1  0  0  0  0
 13  5  1  0  0  0  0
 16 17  1  0  0  0  0
 17 18  2  0  0  0  0
 17 23  1  0  0  0  0
 18  1  1  0  0  0  0
 19 18  1  0  0  0  0
 20 19  2  0  0  0  0
 21 20  1  0  0  0  0
 21 16  2  0  0  0  0
 22 16  1  0  0  0  0
 24 20  1  0  0  0  0
 25  6  1  0  0  0  0
 26 25  1  0  0  0  0
 26 33  1  0  0  0  0
 27 26  2  0  0  0  0
 28 27  1  0  0  0  0
 29 27  1  0  0  0  0
 29 31  2  0  0  0  0
 30 29  1  0  0  0  0
 31 32  1  0  0  0  0
 32 33  2  0  0  0  0
M  END
>  <minimizedAffinity>
-5.22349215

$$$$

 OpenBabel03252502253D

 33 35  0  0  1  0  0  0  0  0999 V2000
   38.2750   30.7640   41.0940 N   0  0  0  0  0  0  0  0  0  0  0  0
   39.2890   31.8030   41.0600 C   0  0  0  0  0  0  0  0  0  0  0  0
   38.5090   33.1140   40.9750 C   0  0  0  0  0  0  0  0  0  0  0  0
   37.7960   33.1790   39.6520 C   0  0  0  0  0  0  0  0  0  0  0  0
   37.1490   31.9010   39.2250 C   0  0  0  0  0  0  0  0  0  0  0  0
   37.1200   30.8260   40.2680 C   0  0  1  0  0  0  0  0  0  0  0  0
   39.8200   31.7000   40.1040 H   0  0  0  0  0  0  0  0  0  0  0  0
   39.9510   31.7850   41.9410 H   0  0  0  0  0  0  0  0  0  0  0  0
   39.2450   33.9260   41.0440 H   0  0  0  0  0  0  0  0  0  0  0  0
   37.8010   33.0670   41.8430 H   0  0  0  0  0  0  0  0  0  0  0  0
   38.5470   33.4730   38.8870 H   0  0  0  0  0  0  0  0  0  0  0  0
   37.0750   34.0330   39.6720 H   0  0  0  0  0  0  0  0  0  0  0  0
   37.6230   31.4950   38.3050 H   0  0  0  0  0  0  0  0  0  0  0  0
   36.0960   32.1340   38.9540 H   0  0  0  0  0  0  0  0  0  0  0  0
   36.2270   30.9720   40.9200 H   0  0  0  0  0  0  0  0  0  0  0  0
   39.6160   27.7940   42.9090 C   0  0  0  0  0  0  0  0  0  0  0  0
   39.5960   28.8780   42.0170 C   0  0  0  0  0  0  0  0  0  0  0  0
   38.4050   29.6410   41.9650 C   0  0  0  0  0  0  0  0  0  0  0  0
   37.3480   29.2890   42.7730 N   0  0  0  0  0  0  0  0  0  0  0  0
   37.4470   28.2210   43.6140 C   0  0  0  0  0  0  0  0  0  0  0  0
   38.5710   27.4830   43.6790 N   0  0  0  0  0  0  0  0  0  0  0  0
   40.5160   27.2280   42.9410 H   0  0  0  0  0  0  0  0  0  0  0  0
   40.4320   29.1540   41.3790 H   0  0  0  0  0  0  0  0  0  0  0  0
   36.5150   28.0980   44.1720 H   0  0  0  0  0  0  0  0  0  0  0  0
   36.9810   29.6000   39.5840 O   0  0  0  0  0  0  0  0  0  0  0  0
   35.9460   29.2810   38.7320 C   0  0  0  0  0  0  0  0  0  0  0  0
   34.6460   29.1660   39.2240 C   0  0  0  0  0  0  0  0  0  0  0  0
   34.4020   29.3190   40.2670 H   0  0  0  0  0  0  0  0  0  0  0  0
   33.6580   28.8400   38.2890 C   0  0  0  0  0  0  0  0  0  0  0  0
   32.6220   28.7310   38.5820 H   0  0  0  0  0  0  0  0  0  0  0  0
   33.9660   28.6460   36.9590 C   0  0  0  0  0  3  0  0  0  0  0  0
   35.2730   28.7720   36.5330 C   0  0  0  0  0  3  0  0  0  0  0  0
   36.2450   29.0900   37.4330 N   0  0  0  0  0  0  0  0  0  0  0  0
  1 18  1  0  0  0  0
  2  1  1  0  0  0  0
  2  8  1  0  0  0  0
  3  9  1  0  0  0  0
  3  2  1  0  0  0  0
  3 10  1  0  0  0  0
  4 12  1  0  0  0  0
  4  3  1  0  0  0  0
  5  4  1  0  0  0  0
  5  6  1  0  0  0  0
  6 15  1  1  0  0  0
  6  1  1  0  0  0  0
  7  2  1  0  0  0  0
 11  4  1  0  0  0  0
 13  5  1  0  0  0  0
 14  5  1  0  0  0  0
 16 22  1  0  0  0  0
 16 21  1  0  0  0  0
 17 16  2  0  0  0  0
 18 17  1  0  0  0  0
 18 19  2  0  0  0  0
 19 20  1  0  0  0  0
 20 21  2  0  0  0  0
 20 24  1  0  0  0  0
 23 17  1  0  0  0  0
 25  6  1  0  0  0  0
 26 27  1  0  0  0  0
 26 25  1  0  0  0  0
 27 28  1  0  0  0  0
 29 30  1  0  0  0  0
 29 27  2  0  0  0  0
 31 29  1  0  0  0  0
 32 31  2  0  0  0  0
 32 33  1  0  0  0  0
 33 26  2  0  0  0  0
M  END
>  <minimizedAffinity>
-4.82534885

$$$$

 OpenBabel03252502253D

 33 35  0  0  1  0  0  0  0  0999 V2000
   37.0150   29.8930   37.8940 N   0  0  0  0  0  0  0  0  0  0  0  0
   36.8350   29.8410   36.4540 C   0  0  0  0  0  0  0  0  0  0  0  0
   35.4250   29.2850   36.2520 C   0  0  0  0  0  0  0  0  0  0  0  0
   35.3830   27.8610   36.7330 C   0  0  0  0  0  0  0  0  0  0  0  0
   36.1020   27.6120   38.0190 C   0  0  0  0  0  0  0  0  0  0  0  0
   36.5610   28.8430   38.7380 C   0  0  1  0  0  0  0  0  0  0  0  0
   37.5230   29.0740   36.0730 H   0  0  0  0  0  0  0  0  0  0  0  0
   36.9520   30.8250   35.9710 H   0  0  0  0  0  0  0  0  0  0  0  0
   35.2210   29.3230   35.1740 H   0  0  0  0  0  0  0  0  0  0  0  0
   34.7740   29.9640   36.8620 H   0  0  0  0  0  0  0  0  0  0  0  0
   35.8400   27.2320   35.9390 H   0  0  0  0  0  0  0  0  0  0  0  0
   34.3170   27.5250   36.7710 H   0  0  0  0  0  0  0  0  0  0  0  0
   36.9730   26.9370   37.8720 H   0  0  0  0  0  0  0  0  0  0  0  0
   35.4020   27.0710   38.6930 H   0  0  0  0  0  0  0  0  0  0  0  0
   35.7260   29.2320   39.3670 H   0  0  0  0  0  0  0  0  0  0  0  0
   37.6800   32.9530   39.9210 C   0  0  0  0  0  0  0  0  0  0  0  0
   36.9510   31.8890   39.3660 C   0  0  0  0  0  0  0  0  0  0  0  0
   37.6570   31.0070   38.5120 C   0  0  0  0  0  0  0  0  0  0  0  0
   38.9940   31.2320   38.2740 N   0  0  0  0  0  0  0  0  0  0  0  0
   39.6300   32.2890   38.8530 C   0  0  0  0  0  0  0  0  0  0  0  0
   38.9770   33.1390   39.6690 N   0  0  0  0  0  0  0  0  0  0  0  0
   37.1390   33.6080   40.5610 H   0  0  0  0  0  0  0  0  0  0  0  0
   35.8950   31.7130   39.5540 H   0  0  0  0  0  0  0  0  0  0  0  0
   40.6800   32.3040   38.5500 H   0  0  0  0  0  0  0  0  0  0  0  0
   37.6170   28.4490   39.5860 O   0  0  0  0  0  0  0  0  0  0  0  0
   37.5280   28.3200   40.9550 C   0  0  0  0  0  0  0  0  0  0  0  0
   36.9500   27.1800   41.5130 C   0  0  0  0  0  0  0  0  0  0  0  0
   36.5580   26.3710   40.9100 H   0  0  0  0  0  0  0  0  0  0  0  0
   36.9010   27.1320   42.9100 C   0  0  0  0  0  0  0  0  0  0  0  0
   36.4700   26.2850   43.4270 H   0  0  0  0  0  0  0  0  0  0  0  0
   37.4010   28.1610   43.6800 C   0  0  0  0  0  3  0  0  0  0  0  0
   37.9610   29.2640   43.0690 C   0  0  0  0  0  3  0  0  0  0  0  0
   38.0150   29.3240   41.7080 N   0  0  0  0  0  0  0  0  0  0  0  0
  1 18  1  0  0  0  0
  1  6  1  0  0  0  0
  2  1  1  0  0  0  0
  3  2  1  0  0  0  0
  3  4  1  0  0  0  0
  3 10  1  0  0  0  0
  4 12  1  0  0  0  0
  4  5  1  0  0  0  0
  5 14  1  0  0  0  0
  5  6  1  0  0  0  0
  6 15  1  1  0  0  0
  6 25  1  0  0  0  0
  7  2  1  0  0  0  0
  8  2  1  0  0  0  0
  9  3  1  0  0  0  0
 11  4  1  0  0  0  0
 13  5  1  0  0  0  0
 16 22  1  0  0  0  0
 17 23  1  0  0  0  0
 17 16  2  0  0  0  0
 18 17  1  0  0  0  0
 19 18  2  0  0  0  0
 19 20  1  0  0  0  0
 20 21  2  0  0  0  0
 21 16  1  0  0  0  0
 24 20  1  0  0  0  0
 25 26  1  0  0  0  0
 26 27  2  0  0  0  0
 26 33  1  0  0  0  0
 27 29  1  0  0  0  0
 28 27  1  0  0  0  0
 29 30  1  0  0  0  0
 29 31  2  0  0  0  0
 32 31  1  0  0  0  0
 33 32  2  0  0  0  0
M  END
>  <minimizedAffinity>
-4.71161127

$$$$

 OpenBabel03252502253D

 33 35  0  0  1  0  0  0  0  0999 V2000
   37.3670   30.4180   38.7890 N   0  0  0  0  0  0  0  0  0  0  0  0
   38.0750   29.6020   37.8180 C   0  0  0  0  0  0  0  0  0  0  0  0
   36.9890   29.0670   36.8850 C   0  0  0  0  0  0  0  0  0  0  0  0
   36.0980   28.1290   37.6510 C   0  0  0  0  0  0  0  0  0  0  0  0
   35.7340   28.5930   39.0240 C   0  0  0  0  0  0  0  0  0  0  0  0
   36.1240   30.0030   39.3430 C   0  0  1  0  0  0  0  0  0  0  0  0
   38.4690   28.7320   38.3590 H   0  0  0  0  0  0  0  0  0  0  0  0
   38.8410   30.1660   37.2630 H   0  0  0  0  0  0  0  0  0  0  0  0
   37.5020   28.5230   36.0810 H   0  0  0  0  0  0  0  0  0  0  0  0
   36.4490   29.9870   36.5380 H   0  0  0  0  0  0  0  0  0  0  0  0
   36.6320   27.1580   37.7310 H   0  0  0  0  0  0  0  0  0  0  0  0
   35.1980   27.8980   37.0290 H   0  0  0  0  0  0  0  0  0  0  0  0
   36.1530   27.9200   39.8030 H   0  0  0  0  0  0  0  0  0  0  0  0
   34.6280   28.5220   39.1180 H   0  0  0  0  0  0  0  0  0  0  0  0
   35.3280   30.6950   38.9800 H   0  0  0  0  0  0  0  0  0  0  0  0
   39.6560   33.0750   40.0590 C   0  0  0  0  0  0  0  0  0  0  0  0
   39.2380   31.7960   39.6560 C   0  0  0  0  0  0  0  0  0  0  0  0
   37.8970   31.6700   39.2200 C   0  0  0  0  0  0  0  0  0  0  0  0
   37.0870   32.7830   39.2130 N   0  0  0  0  0  0  0  0  0  0  0  0
   37.5700   33.9910   39.6210 C   0  0  0  0  0  0  0  0  0  0  0  0
   38.8420   34.1320   40.0380 N   0  0  0  0  0  0  0  0  0  0  0  0
   40.6660   33.1580   40.3840 H   0  0  0  0  0  0  0  0  0  0  0  0
   39.8790   30.9180   39.6620 H   0  0  0  0  0  0  0  0  0  0  0  0
   36.7870   34.7500   39.5450 H   0  0  0  0  0  0  0  0  0  0  0  0
   36.1960   30.0990   40.7480 O   0  0  0  0  0  0  0  0  0  0  0  0
   36.8930   29.2360   41.5660 C   0  0  0  0  0  0  0  0  0  0  0  0
   38.0020   29.6920   42.2790 C   0  0  0  0  0  0  0  0  0  0  0  0
   38.3520   30.7140   42.2200 H   0  0  0  0  0  0  0  0  0  0  0  0
   38.6490   28.7490   43.0840 C   0  0  0  0  0  0  0  0  0  0  0  0
   39.5170   29.0160   43.6720 H   0  0  0  0  0  0  0  0  0  0  0  0
   38.2040   27.4470   43.1610 C   0  0  0  0  0  3  0  0  0  0  0  0
   37.1000   27.0550   42.4310 C   0  0  0  0  0  3  0  0  0  0  0  0
   36.4610   27.9640   41.6410 N   0  0  0  0  0  0  0  0  0  0  0  0
  1 18  1  0  0  0  0
  1  6  1  0  0  0  0
  2  7  1  0  0  0  0
  2  1  1  0  0  0  0
  3  4  1  0  0  0  0
  3  2  1  0  0  0  0
  4 11  1  0  0  0  0
  4  5  1  0  0  0  0
  5 14  1  0  0  0  0
  5  6  1  0  0  0  0
  5 13  1  0  0  0  0
  6 15  1  6  0  0  0
  6 25  1  0  0  0  0
  8  2  1  0  0  0  0
  9  3  1  0  0  0  0
 10  3  1  0  0  0  0
 12  4  1  0  0  0  0
 16 22  1  0  0  0  0
 17 23  1  0  0  0  0
 17 16  2  0  0  0  0
 18 17  1  0  0  0  0
 19 18  2  0  0  0  0
 19 20  1  0  0  0  0
 20 21  2  0  0  0  0
 21 16  1  0  0  0  0
 24 20  1  0  0  0  0
 25 26  1  0  0  0  0
 26 33  2  0  0  0  0
 26 27  1  0  0  0  0
 27 29  2  0  0  0  0
 28 27  1  0  0  0  0
 29 31  1  0  0  0  0
 29 30  1  0  0  0  0
 32 31  2  0  0  0  0
 33 32  1  0  0  0  0
M  END
>  <minimizedAffinity>
-4.70912695

$$$$

 OpenBabel03252502253D

 33 35  0  0  1  0  0  0  0  0999 V2000
   38.2210   29.8180   41.5900 N   0  0  0  0  0  0  0  0  0  0  0  0
   38.6630   29.6780   42.9660 C   0  0  0  0  0  0  0  0  0  0  0  0
   38.7780   28.1710   43.1930 C   0  0  0  0  0  0  0  0  0  0  0  0
   37.4070   27.5560   43.1270 C   0  0  0  0  0  0  0  0  0  0  0  0
   36.5390   28.0770   42.0280 C   0  0  0  0  0  0  0  0  0  0  0  0
   37.2320   28.9600   41.0360 C   0  0  1  0  0  0  0  0  0  0  0  0
   37.8370   30.0210   43.6030 H   0  0  0  0  0  0  0  0  0  0  0  0
   39.6190   30.1890   43.1630 H   0  0  0  0  0  0  0  0  0  0  0  0
   39.2030   28.0330   44.1960 H   0  0  0  0  0  0  0  0  0  0  0  0
   39.4470   27.8200   42.3640 H   0  0  0  0  0  0  0  0  0  0  0  0
   36.9100   27.7550   44.1010 H   0  0  0  0  0  0  0  0  0  0  0  0
   37.5120   26.4440   43.0930 H   0  0  0  0  0  0  0  0  0  0  0  0
   35.6550   28.6170   42.4320 H   0  0  0  0  0  0  0  0  0  0  0  0
   36.1390   27.2000   41.4740 H   0  0  0  0  0  0  0  0  0  0  0  0
   37.7120   28.3250   40.2540 H   0  0  0  0  0  0  0  0  0  0  0  0
   40.0550   31.5660   38.8520 C   0  0  0  0  0  0  0  0  0  0  0  0
   39.5650   30.4960   39.6170 C   0  0  0  0  0  0  0  0  0  0  0  0
   38.7710   30.8250   40.7420 C   0  0  0  0  0  0  0  0  0  0  0  0
   38.5240   32.1500   41.0230 N   0  0  0  0  0  0  0  0  0  0  0  0
   39.0370   33.1320   40.2280 C   0  0  0  0  0  0  0  0  0  0  0  0
   39.7940   32.8400   39.1540 N   0  0  0  0  0  0  0  0  0  0  0  0
   40.6500   31.3070   38.0090 H   0  0  0  0  0  0  0  0  0  0  0  0
   39.7610   29.4500   39.3940 H   0  0  0  0  0  0  0  0  0  0  0  0
   38.7360   34.1120   40.6060 H   0  0  0  0  0  0  0  0  0  0  0  0
   36.2340   29.7480   40.4250 O   0  0  0  0  0  0  0  0  0  0  0  0
   35.6460   29.4790   39.2080 C   0  0  0  0  0  0  0  0  0  0  0  0
   36.3750   29.6390   38.0300 C   0  0  0  0  0  0  0  0  0  0  0  0
   37.4040   29.9720   38.0220 H   0  0  0  0  0  0  0  0  0  0  0  0
   35.7000   29.3430   36.8410 C   0  0  0  0  0  0  0  0  0  0  0  0
   36.1880   29.4390   35.8800 H   0  0  0  0  0  0  0  0  0  0  0  0
   34.3890   28.9170   36.8490 C   0  0  0  0  0  3  0  0  0  0  0  0
   33.7200   28.7780   38.0480 C   0  0  0  0  0  3  0  0  0  0  0  0
   34.3660   29.0630   39.2140 N   0  0  0  0  0  0  0  0  0  0  0  0
  1  2  1  0  0  0  0
  2  8  1  0  0  0  0
  2  3  1  0  0  0  0
  2  7  1  0  0  0  0
  3  9  1  0  0  0  0
  4  3  1  0  0  0  0
  4 11  1  0  0  0  0
  5 13  1  0  0  0  0
  5  4  1  0  0  0  0
  6 15  1  6  0  0  0
  6  1  1  0  0  0  0
  6  5  1  0  0  0  0
 10  3  1  0  0  0  0
 12  4  1  0  0  0  0
 14  5  1  0  0  0  0
 16 21  2  0  0  0  0
 16 17  1  0  0  0  0
 17 18  2  0  0  0  0
 18 19  1  0  0  0  0
 18  1  1  0  0  0  0
 20 24  1  0  0  0  0
 20 19  2  0  0  0  0
 21 20  1  0  0  0  0
 22 16  1  0  0  0  0
 23 17  1  0  0  0  0
 25  6  1  0  0  0  0
 26 33  1  0  0  0  0
 26 25  1  0  0  0  0
 27 26  2  0  0  0  0
 28 27  1  0  0  0  0
 29 31  2  0  0  0  0
 29 27  1  0  0  0  0
 30 29  1  0  0  0  0
 31 32  1  0  0  0  0
 32 33  2  0  0  0  0
M  END
>  <minimizedAffinity>
-4.67806864

$$$$

 OpenBabel03252502253D

 33 35  0  0  1  0  0  0  0  0999 V2000
   38.2160   28.0240   41.0610 N   0  0  0  0  0  0  0  0  0  0  0  0
   38.2670   26.7400   41.7380 C   0  0  0  0  0  0  0  0  0  0  0  0
   37.0100   26.7010   42.6050 C   0  0  0  0  0  0  0  0  0  0  0  0
   37.1190   27.7480   43.6800 C   0  0  0  0  0  0  0  0  0  0  0  0
   37.6640   29.0610   43.2220 C   0  0  0  0  0  0  0  0  0  0  0  0
   37.8090   29.2060   41.7380 C   0  0  1  0  0  0  0  0  0  0  0  0
   39.1170   26.7790   42.4320 H   0  0  0  0  0  0  0  0  0  0  0  0
   38.3010   25.8880   41.0400 H   0  0  0  0  0  0  0  0  0  0  0  0
   36.9680   25.7010   43.0590 H   0  0  0  0  0  0  0  0  0  0  0  0
   36.1750   26.9080   41.8860 H   0  0  0  0  0  0  0  0  0  0  0  0
   37.7840   27.3400   44.4710 H   0  0  0  0  0  0  0  0  0  0  0  0
   36.1250   27.8520   44.1830 H   0  0  0  0  0  0  0  0  0  0  0  0
   38.6420   29.2830   43.7010 H   0  0  0  0  0  0  0  0  0  0  0  0
   36.9630   29.8530   43.5680 H   0  0  0  0  0  0  0  0  0  0  0  0
   36.8370   29.5430   41.3060 H   0  0  0  0  0  0  0  0  0  0  0  0
   38.0720   28.5410   37.3690 C   0  0  0  0  0  0  0  0  0  0  0  0
   37.6110   28.4490   38.6920 C   0  0  0  0  0  0  0  0  0  0  0  0
   38.5730   28.1410   39.6840 C   0  0  0  0  0  0  0  0  0  0  0  0
   39.8840   27.9500   39.3100 N   0  0  0  0  0  0  0  0  0  0  0  0
   40.2510   28.0570   38.0010 C   0  0  0  0  0  0  0  0  0  0  0  0
   39.3520   28.3500   37.0430 N   0  0  0  0  0  0  0  0  0  0  0  0
   37.3400   28.7740   36.6330 H   0  0  0  0  0  0  0  0  0  0  0  0
   36.5760   28.6000   38.9860 H   0  0  0  0  0  0  0  0  0  0  0  0
   41.3230   27.8740   37.8990 H   0  0  0  0  0  0  0  0  0  0  0  0
   38.7720   30.2120   41.5190 O   0  0  0  0  0  0  0  0  0  0  0  0
   38.5140   31.4510   40.9720 C   0  0  0  0  0  0  0  0  0  0  0  0
   37.2920   31.6970   40.3470 C   0  0  0  0  0  0  0  0  0  0  0  0
   36.5160   30.9460   40.2670 H   0  0  0  0  0  0  0  0  0  0  0  0
   37.1150   32.9810   39.8200 C   0  0  0  0  0  0  0  0  0  0  0  0
   36.1970   33.2590   39.3190 H   0  0  0  0  0  0  0  0  0  0  0  0
   38.1010   33.9390   39.9220 C   0  0  0  0  0  3  0  0  0  0  0  0
   39.2900   33.6340   40.5520 C   0  0  0  0  0  3  0  0  0  0  0  0
   39.4760   32.3870   41.0700 N   0  0  0  0  0  0  0  0  0  0  0  0
  1  6  1  0  0  0  0
  1  2  1  0  0  0  0
  2  7  1  0  0  0  0
  2  3  1  0  0  0  0
  3  9  1  0  0  0  0
  3  4  1  0  0  0  0
  4 12  1  0  0  0  0
  4 11  1  0  0  0  0
  5 14  1  0  0  0  0
  5  4  1  0  0  0  0
  5 13  1  0  0  0  0
  6 15  1  6  0  0  0
  6  5  1  0  0  0  0
  8  2  1  0  0  0  0
 10  3  1  0  0  0  0
 16 17  1  0  0  0  0
 17 23  1  0  0  0  0
 17 18  2  0  0  0  0
 18  1  1  0  0  0  0
 19 18  1  0  0  0  0
 20 19  2  0  0  0  0
 21 16  2  0  0  0  0
 21 20  1  0  0  0  0
 22 16  1  0  0  0  0
 24 20  1  0  0  0  0
 25  6  1  0  0  0  0
 26 33  1  0  0  0  0
 26 25  1  0  0  0  0
 27 26  2  0  0  0  0
 28 27  1  0  0  0  0
 29 31  2  0  0  0  0
 29 27  1  0  0  0  0
 30 29  1  0  0  0  0
 31 32  1  0  0  0  0
 32 33  2  0  0  0  0
M  END
>  <minimizedAffinity>
-4.67574501

$$$$

 OpenBabel03252502253D

 33 35  0  0  1  0  0  0  0  0999 V2000
   37.6840   29.2740   41.3800 N   0  0  0  0  0  0  0  0  0  0  0  0
   37.6380   29.2260   42.8310 C   0  0  0  0  0  0  0  0  0  0  0  0
   38.3350   27.9180   43.2050 C   0  0  0  0  0  0  0  0  0  0  0  0
   37.5050   26.7610   42.7200 C   0  0  0  0  0  0  0  0  0  0  0  0
   36.9320   26.9320   41.3500 C   0  0  0  0  0  0  0  0  0  0  0  0
   37.4450   28.1160   40.5900 C   0  0  1  0  0  0  0  0  0  0  0  0
   36.5840   29.1030   43.1140 H   0  0  0  0  0  0  0  0  0  0  0  0
   38.1290   30.0920   43.3040 H   0  0  0  0  0  0  0  0  0  0  0  0
   38.4020   27.8960   44.3010 H   0  0  0  0  0  0  0  0  0  0  0  0
   39.3280   27.9800   42.6890 H   0  0  0  0  0  0  0  0  0  0  0  0
   36.6710   26.6270   43.4430 H   0  0  0  0  0  0  0  0  0  0  0  0
   38.1050   25.8220   42.8150 H   0  0  0  0  0  0  0  0  0  0  0  0
   35.8210   26.9780   41.3790 H   0  0  0  0  0  0  0  0  0  0  0  0
   37.1880   26.0210   40.7650 H   0  0  0  0  0  0  0  0  0  0  0  0
   38.3950   27.8370   40.0760 H   0  0  0  0  0  0  0  0  0  0  0  0
   37.4260   32.7080   39.9480 C   0  0  0  0  0  0  0  0  0  0  0  0
   37.0390   31.5550   40.6490 C   0  0  0  0  0  0  0  0  0  0  0  0
   37.9730   30.4920   40.6960 C   0  0  0  0  0  0  0  0  0  0  0  0
   39.1870   30.6390   40.0650 N   0  0  0  0  0  0  0  0  0  0  0  0
   39.4880   31.7930   39.4050 C   0  0  0  0  0  0  0  0  0  0  0  0
   38.6140   32.8160   39.3490 N   0  0  0  0  0  0  0  0  0  0  0  0
   36.7170   33.5010   39.9200 H   0  0  0  0  0  0  0  0  0  0  0  0
   36.0790   31.4410   41.1470 H   0  0  0  0  0  0  0  0  0  0  0  0
   40.4890   31.7250   38.9720 H   0  0  0  0  0  0  0  0  0  0  0  0
   36.4770   28.4220   39.6110 O   0  0  0  0  0  0  0  0  0  0  0  0
   36.7150   28.4870   38.2550 C   0  0  0  0  0  0  0  0  0  0  0  0
   35.9780   29.3630   37.4590 C   0  0  0  0  0  0  0  0  0  0  0  0
   35.2100   30.0100   37.8610 H   0  0  0  0  0  0  0  0  0  0  0  0
   36.2860   29.3640   36.0940 C   0  0  0  0  0  0  0  0  0  0  0  0
   35.7640   30.0120   35.4020 H   0  0  0  0  0  0  0  0  0  0  0  0
   37.2650   28.5410   35.5800 C   0  0  0  0  0  3  0  0  0  0  0  0
   37.9600   27.6950   36.4200 C   0  0  0  0  0  3  0  0  0  0  0  0
   37.6700   27.6840   37.7520 N   0  0  0  0  0  0  0  0  0  0  0  0
  1  2  1  0  0  0  0
  2  7  1  0  0  0  0
  2  3  1  0  0  0  0
  2  8  1  0  0  0  0
  3  9  1  0  0  0  0
  4 12  1  0  0  0  0
  4  3  1  0  0  0  0
  4 11  1  0  0  0  0
  5 13  1  0  0  0  0
  5  4  1  0  0  0  0
  6 15  1  6  0  0  0
  6  5  1  0  0  0  0
  6  1  1  0  0  0  0
 10  3  1  0  0  0  0
 14  5  1  0  0  0  0
 16 17  1  0  0  0  0
 17 18  2  0  0  0  0
 17 23  1  0  0  0  0
 18  1  1  0  0  0  0
 19 18  1  0  0  0  0
 20 19  2  0  0  0  0
 21 20  1  0  0  0  0
 21 16  2  0  0  0  0
 22 16  1  0  0  0  0
 24 20  1  0  0  0  0
 25  6  1  0  0  0  0
 26 25  1  0  0  0  0
 27 28  1  0  0  0  0
 27 26  2  0  0  0  0
 29 27  1  0  0  0  0
 30 29  1  0  0  0  0
 31 29  2  0  0  0  0
 31 32  1  0  0  0  0
 32 33  2  0  0  0  0
 33 26  1  0  0  0  0
M  END
>  <minimizedAffinity>
-4.53158379

$$$$

 OpenBabel03252502253D

 33 35  0  0  1  0  0  0  0  0999 V2000
   39.3860   26.3060   42.4610 N   0  0  0  0  0  0  0  0  0  0  0  0
   39.3880   24.9490   42.9770 C   0  0  0  0  0  0  0  0  0  0  0  0
   38.5260   24.1530   41.9980 C   0  0  0  0  0  0  0  0  0  0  0  0
   37.1040   24.6340   42.0880 C   0  0  0  0  0  0  0  0  0  0  0  0
   36.9490   26.1180   42.1760 C   0  0  0  0  0  0  0  0  0  0  0  0
   38.2040   26.9020   41.9410 C   0  0  1  0  0  0  0  0  0  0  0  0
   38.8360   24.9670   43.9260 H   0  0  0  0  0  0  0  0  0  0  0  0
   40.4010   24.5240   43.0600 H   0  0  0  0  0  0  0  0  0  0  0  0
   38.5860   23.1000   42.3070 H   0  0  0  0  0  0  0  0  0  0  0  0
   38.9880   24.3590   40.9970 H   0  0  0  0  0  0  0  0  0  0  0  0
   36.6570   24.1730   42.9950 H   0  0  0  0  0  0  0  0  0  0  0  0
   36.5210   24.1960   41.2400 H   0  0  0  0  0  0  0  0  0  0  0  0
   36.5140   26.4220   43.1520 H   0  0  0  0  0  0  0  0  0  0  0  0
   36.2130   26.4230   41.4010 H   0  0  0  0  0  0  0  0  0  0  0  0
   38.3390   27.0570   40.8450 H   0  0  0  0  0  0  0  0  0  0  0  0
   42.3310   28.3140   41.3620 C   0  0  0  0  0  0  0  0  0  0  0  0
   41.1590   27.5490   41.2510 C   0  0  0  0  0  0  0  0  0  0  0  0
   40.5770   27.0910   42.4570 C   0  0  0  0  0  0  0  0  0  0  0  0
   41.1760   27.4120   43.6540 N   0  0  0  0  0  0  0  0  0  0  0  0
   42.3160   28.1610   43.6770 C   0  0  0  0  0  0  0  0  0  0  0  0
   42.8840   28.6060   42.5410 N   0  0  0  0  0  0  0  0  0  0  0  0
   42.7600   28.6520   40.4490 H   0  0  0  0  0  0  0  0  0  0  0  0
   40.6870   27.2960   40.3040 H   0  0  0  0  0  0  0  0  0  0  0  0
   42.6410   28.3120   44.7090 H   0  0  0  0  0  0  0  0  0  0  0  0
   38.0180   28.1590   42.5530 O   0  0  0  0  0  0  0  0  0  0  0  0
   37.7250   29.3290   41.8870 C   0  0  0  0  0  0  0  0  0  0  0  0
   36.4300   29.5670   41.4300 C   0  0  0  0  0  0  0  0  0  0  0  0
   35.6220   28.8610   41.5750 H   0  0  0  0  0  0  0  0  0  0  0  0
   36.2220   30.7800   40.7640 C   0  0  0  0  0  0  0  0  0  0  0  0
   35.2470   31.0470   40.3770 H   0  0  0  0  0  0  0  0  0  0  0  0
   37.2490   31.6800   40.5790 C   0  0  0  0  0  3  0  0  0  0  0  0
   38.5110   31.3870   41.0540 C   0  0  0  0  0  3  0  0  0  0  0  0
   38.7280   30.2090   41.7040 N   0  0  0  0  0  0  0  0  0  0  0  0
  1  2  1  0  0  0  0
  2  8  1  0  0  0  0
  2  7  1  0  0  0  0
  3  4  1  0  0  0  0
  3  9  1  0  0  0  0
  3  2  1  0  0  0  0
  4  5  1  0  0  0  0
  4 11  1  0  0  0  0
  5 13  1  0  0  0  0
  6 15  1  6  0  0  0
  6  5  1  0  0  0  0
  6  1  1  0  0  0  0
  6 25  1  0  0  0  0
 10  3  1  0  0  0  0
 12  4  1  0  0  0  0
 14  5  1  0  0  0  0
 16 21  1  0  0  0  0
 17 16  2  0  0  0  0
 17 18  1  0  0  0  0
 18  1  1  0  0  0  0
 18 19  2  0  0  0  0
 19 20  1  0  0  0  0
 20 24  1  0  0  0  0
 21 20  2  0  0  0  0
 22 16  1  0  0  0  0
 23 17  1  0  0  0  0
 26 25  1  0  0  0  0
 27 28  1  0  0  0  0
 27 26  2  0  0  0  0
 29 27  1  0  0  0  0
 30 29  1  0  0  0  0
 31 29  2  0  0  0  0
 31 32  1  0  0  0  0
 32 33  2  0  0  0  0
 33 26  1  0  0  0  0
M  END
>  <minimizedAffinity>
-4.51421595

$$$$
