
 OpenBabel03242517593D

 23 24  0  0  0  0  0  0  0  0999 V2000
   35.4040   29.0650   40.4190 C   0  0  0  0  0  0  0  0  0  0  0  0
   34.4550   28.9050   39.9130 H   0  0  0  0  0  0  0  0  0  0  0  0
   35.3050   29.2090   41.5150 H   0  0  0  0  0  0  0  0  0  0  0  0
   36.5170   31.2100   40.7350 C   0  0  0  0  0  0  0  0  0  0  0  0
   36.1300   30.1880   39.8700 C   0  0  0  0  0  0  0  0  0  0  0  0
   36.4770   30.3250   38.5230 C   0  0  0  0  0  0  0  0  0  0  0  0
   37.1590   31.4230   38.1350 N   0  0  0  0  0  0  0  0  0  0  0  0
   37.5230   32.4010   39.0020 C   0  0  0  0  0  0  0  0  0  0  0  0
   37.1990   32.2960   40.3180 N   0  0  0  0  0  0  0  0  0  0  0  0
   36.2680   31.1440   41.7940 H   0  0  0  0  0  0  0  0  0  0  0  0
   36.1860   29.5500   37.8540 H   0  0  0  0  0  0  0  0  0  0  0  0
   38.0690   33.2890   38.7110 H   0  0  0  0  0  0  0  0  0  0  0  0
   36.2350   27.8030   40.1850 C   0  0  0  0  0  0  0  0  0  0  0  0
   36.8840   28.0040   39.3080 H   0  0  0  0  0  0  0  0  0  0  0  0
   35.6080   26.9220   40.0440 H   0  0  0  0  0  0  0  0  0  0  0  0
   37.1370   27.6960   41.3680 C   0  0  0  0  0  0  0  0  0  0  0  0
   36.6050   27.7340   42.6550 C   0  0  0  0  0  0  0  0  0  0  0  0
   35.5290   27.8430   42.7560 H   0  0  0  0  0  0  0  0  0  0  0  0
   37.5500   27.6240   43.6770 C   0  0  0  0  0  0  0  0  0  0  0  0
   37.1450   27.6520   44.6790 H   0  0  0  0  0  0  0  0  0  0  0  0
   38.8690   27.4940   43.3550 C   0  0  0  0  0  3  0  0  0  0  0  0
   39.3500   27.4610   42.0590 C   0  0  0  0  0  3  0  0  0  0  0  0
   38.4450   27.5650   41.0580 N   0  0  0  0  0  0  0  0  0  0  0  0
  1  3  1  0  0  0  0
  2  1  1  0  0  0  0
  4 10  1  0  0  0  0
  5  1  1  0  0  0  0
  5  4  2  0  0  0  0
  6  5  1  0  0  0  0
  7  6  2  0  0  0  0
  7  8  1  0  0  0  0
  8  9  2  0  0  0  0
  9  4  1  0  0  0  0
 11  6  1  0  0  0  0
 12  8  1  0  0  0  0
 13  1  1  0  0  0  0
 13 16  1  0  0  0  0
 14 13  1  0  0  0  0
 15 13  1  0  0  0  0
 16 17  1  0  0  0  0
 17 18  1  0  0  0  0
 17 19  2  0  0  0  0
 19 20  1  0  0  0  0
 21 19  1  0  0  0  0
 22 21  2  0  0  0  0
 23 16  2  0  0  0  0
 23 22  1  0  0  0  0
M  END
>  <minimizedAffinity>
-4.34915113

$$$$

 OpenBabel03242517593D

 23 24  0  0  0  0  0  0  0  0999 V2000
   38.9360   29.1940   42.9210 C   0  0  0  0  0  0  0  0  0  0  0  0
   39.4260   29.7440   43.7210 H   0  0  0  0  0  0  0  0  0  0  0  0
   39.6300   28.5670   42.3240 H   0  0  0  0  0  0  0  0  0  0  0  0
   38.9110   31.1270   41.4370 C   0  0  0  0  0  0  0  0  0  0  0  0
   38.2180   30.0690   42.0230 C   0  0  0  0  0  0  0  0  0  0  0  0
   36.8670   29.9300   41.6940 C   0  0  0  0  0  0  0  0  0  0  0  0
   36.3110   30.8140   40.8380 N   0  0  0  0  0  0  0  0  0  0  0  0
   37.0130   31.8340   40.2830 C   0  0  0  0  0  0  0  0  0  0  0  0
   38.3280   31.9940   40.5840 N   0  0  0  0  0  0  0  0  0  0  0  0
   39.9660   31.2720   41.6640 H   0  0  0  0  0  0  0  0  0  0  0  0
   36.3270   29.1260   42.1360 H   0  0  0  0  0  0  0  0  0  0  0  0
   36.5860   32.5520   39.5950 H   0  0  0  0  0  0  0  0  0  0  0  0
   37.9230   28.2660   43.5910 C   0  0  0  0  0  0  0  0  0  0  0  0
   36.9500   28.4340   43.0870 H   0  0  0  0  0  0  0  0  0  0  0  0
   37.8670   28.4330   44.6670 H   0  0  0  0  0  0  0  0  0  0  0  0
   38.3550   26.8830   43.2360 C   0  0  0  0  0  0  0  0  0  0  0  0
   39.5890   26.4050   43.6720 C   0  0  0  0  0  0  0  0  0  0  0  0
   40.2080   27.0700   44.2680 H   0  0  0  0  0  0  0  0  0  0  0  0
   39.8780   25.0980   43.2750 C   0  0  0  0  0  0  0  0  0  0  0  0
   40.8330   24.7200   43.6100 H   0  0  0  0  0  0  0  0  0  0  0  0
   38.9700   24.4140   42.5210 C   0  0  0  0  0  3  0  0  0  0  0  0
   37.7560   24.9320   42.1120 C   0  0  0  0  0  3  0  0  0  0  0  0
   37.4620   26.1980   42.4910 N   0  0  0  0  0  0  0  0  0  0  0  0
  1 13  1  0  0  0  0
  1  2  1  0  0  0  0
  3  1  1  0  0  0  0
  4 10  1  0  0  0  0
  4  5  1  0  0  0  0
  5  1  1  0  0  0  0
  6  5  2  0  0  0  0
  6 11  1  0  0  0  0
  7  6  1  0  0  0  0
  8  9  1  0  0  0  0
  8  7  2  0  0  0  0
  9  4  2  0  0  0  0
 12  8  1  0  0  0  0
 13 15  1  0  0  0  0
 14 13  1  0  0  0  0
 16 13  1  0  0  0  0
 16 17  1  0  0  0  0
 17 18  1  0  0  0  0
 19 20  1  0  0  0  0
 19 17  2  0  0  0  0
 21 19  1  0  0  0  0
 22 23  1  0  0  0  0
 22 21  2  0  0  0  0
 23 16  2  0  0  0  0
M  END
>  <minimizedAffinity>
-4.32322454

$$$$

 OpenBabel03242517593D

 23 24  0  0  0  0  0  0  0  0999 V2000
   36.8980   27.6540   42.6660 C   0  0  0  0  0  0  0  0  0  0  0  0
   36.0750   27.5700   43.3720 H   0  0  0  0  0  0  0  0  0  0  0  0
   36.5690   27.7390   41.6100 H   0  0  0  0  0  0  0  0  0  0  0  0
   38.9980   26.7370   43.4950 C   0  0  0  0  0  0  0  0  0  0  0  0
   37.8200   26.5470   42.7730 C   0  0  0  0  0  0  0  0  0  0  0  0
   37.6150   25.2860   42.2050 C   0  0  0  0  0  0  0  0  0  0  0  0
   38.5540   24.3330   42.3810 N   0  0  0  0  0  0  0  0  0  0  0  0
   39.6910   24.5480   43.0900 C   0  0  0  0  0  0  0  0  0  0  0  0
   39.9170   25.7630   43.6540 N   0  0  0  0  0  0  0  0  0  0  0  0
   39.1970   27.7040   43.9550 H   0  0  0  0  0  0  0  0  0  0  0  0
   36.7190   25.1300   41.6520 H   0  0  0  0  0  0  0  0  0  0  0  0
   40.4550   23.7980   43.2420 H   0  0  0  0  0  0  0  0  0  0  0  0
   37.6490   28.9350   43.0280 C   0  0  0  0  0  0  0  0  0  0  0  0
   38.7300   28.6860   43.0210 H   0  0  0  0  0  0  0  0  0  0  0  0
   37.3240   29.3410   43.9860 H   0  0  0  0  0  0  0  0  0  0  0  0
   37.4180   29.8680   41.8880 C   0  0  0  0  0  0  0  0  0  0  0  0
   36.2430   29.7810   41.1440 C   0  0  0  0  0  0  0  0  0  0  0  0
   35.5200   29.0210   41.4260 H   0  0  0  0  0  0  0  0  0  0  0  0
   36.1440   30.7080   40.1050 C   0  0  0  0  0  0  0  0  0  0  0  0
   35.2350   30.6470   39.5240 H   0  0  0  0  0  0  0  0  0  0  0  0
   37.1620   31.5930   39.9010 C   0  0  0  0  0  3  0  0  0  0  0  0
   38.3110   31.6410   40.6680 C   0  0  0  0  0  3  0  0  0  0  0  0
   38.4200   30.7490   41.6800 N   0  0  0  0  0  0  0  0  0  0  0  0
  1  5  1  0  0  0  0
  1 13  1  0  0  0  0
  1  2  1  0  0  0  0
  3  1  1  0  0  0  0
  4  9  1  0  0  0  0
  4 10  1  0  0  0  0
  5  4  2  0  0  0  0
  6  7  2  0  0  0  0
  6  5  1  0  0  0  0
  7  8  1  0  0  0  0
  8 12  1  0  0  0  0
  8  9  2  0  0  0  0
 11  6  1  0  0  0  0
 13 15  1  0  0  0  0
 14 13  1  0  0  0  0
 16 13  1  0  0  0  0
 17 18  1  0  0  0  0
 17 16  2  0  0  0  0
 19 17  1  0  0  0  0
 20 19  1  0  0  0  0
 21 19  2  0  0  0  0
 21 22  1  0  0  0  0
 22 23  2  0  0  0  0
 23 16  1  0  0  0  0
M  END
>  <minimizedAffinity>
-4.26899719

$$$$

 OpenBabel03242517593D

 23 24  0  0  0  0  0  0  0  0999 V2000
   36.2140   27.8720   40.2260 C   0  0  0  0  0  0  0  0  0  0  0  0
   35.5090   27.0510   40.1150 H   0  0  0  0  0  0  0  0  0  0  0  0
   36.8430   28.0410   39.3280 H   0  0  0  0  0  0  0  0  0  0  0  0
   38.4320   27.4410   41.1390 C   0  0  0  0  0  0  0  0  0  0  0  0
   37.0810   27.6920   41.3690 C   0  0  0  0  0  0  0  0  0  0  0  0
   36.6600   27.7560   42.7000 C   0  0  0  0  0  0  0  0  0  0  0  0
   37.5690   27.5730   43.6800 N   0  0  0  0  0  0  0  0  0  0  0  0
   38.8800   27.3300   43.4240 C   0  0  0  0  0  0  0  0  0  0  0  0
   39.3180   27.2630   42.1400 N   0  0  0  0  0  0  0  0  0  0  0  0
   38.8040   27.3840   40.1160 H   0  0  0  0  0  0  0  0  0  0  0  0
   35.6290   27.9480   42.8860 H   0  0  0  0  0  0  0  0  0  0  0  0
   39.6250   27.1810   44.1940 H   0  0  0  0  0  0  0  0  0  0  0  0
   35.3780   29.1310   40.4570 C   0  0  0  0  0  0  0  0  0  0  0  0
   35.3370   29.2920   41.5540 H   0  0  0  0  0  0  0  0  0  0  0  0
   34.3860   29.0480   40.0130 H   0  0  0  0  0  0  0  0  0  0  0  0
   36.1820   30.2520   39.8900 C   0  0  0  0  0  0  0  0  0  0  0  0
   36.4950   30.2670   38.5330 C   0  0  0  0  0  0  0  0  0  0  0  0
   36.1360   29.4450   37.9210 H   0  0  0  0  0  0  0  0  0  0  0  0
   37.2510   31.3680   38.1250 C   0  0  0  0  0  0  0  0  0  0  0  0
   37.4980   31.3870   37.0730 H   0  0  0  0  0  0  0  0  0  0  0  0
   37.6120   32.3080   39.0450 C   0  0  0  0  0  3  0  0  0  0  0  0
   37.2760   32.2480   40.3850 C   0  0  0  0  0  3  0  0  0  0  0  0
   36.5430   31.1870   40.7950 N   0  0  0  0  0  0  0  0  0  0  0  0
  1 13  1  0  0  0  0
  1  5  1  0  0  0  0
  2  1  1  0  0  0  0
  3  1  1  0  0  0  0
  4  5  2  0  0  0  0
  4  9  1  0  0  0  0
  5  6  1  0  0  0  0
  6 11  1  0  0  0  0
  6  7  2  0  0  0  0
  8  7  1  0  0  0  0
  8 12  1  0  0  0  0
  9  8  2  0  0  0  0
 10  4  1  0  0  0  0
 13 14  1  0  0  0  0
 15 13  1  0  0  0  0
 16 13  1  0  0  0  0
 16 23  1  0  0  0  0
 17 16  2  0  0  0  0
 18 17  1  0  0  0  0
 19 17  1  0  0  0  0
 19 21  2  0  0  0  0
 20 19  1  0  0  0  0
 21 22  1  0  0  0  0
 22 23  2  0  0  0  0
M  END
>  <minimizedAffinity>
-4.18124628

$$$$

 OpenBabel03242517593D

 23 24  0  0  0  0  0  0  0  0999 V2000
   36.4930   28.2260   42.1540 C   0  0  0  0  0  0  0  0  0  0  0  0
   36.4840   27.4630   41.3790 H   0  0  0  0  0  0  0  0  0  0  0  0
   35.4940   28.4220   42.5940 H   0  0  0  0  0  0  0  0  0  0  0  0
   36.2170   30.3170   40.9340 C   0  0  0  0  0  0  0  0  0  0  0  0
   37.0410   29.4760   41.6790 C   0  0  0  0  0  0  0  0  0  0  0  0
   38.3490   29.9090   41.9170 C   0  0  0  0  0  0  0  0  0  0  0  0
   38.7410   31.1000   41.4200 N   0  0  0  0  0  0  0  0  0  0  0  0
   37.9140   31.8990   40.6980 C   0  0  0  0  0  0  0  0  0  0  0  0
   36.6370   31.5040   40.4510 N   0  0  0  0  0  0  0  0  0  0  0  0
   35.1900   30.0200   40.7250 H   0  0  0  0  0  0  0  0  0  0  0  0
   38.9870   29.2730   42.4850 H   0  0  0  0  0  0  0  0  0  0  0  0
   38.2080   32.8570   40.2910 H   0  0  0  0  0  0  0  0  0  0  0  0
   37.4010   27.7000   43.2650 C   0  0  0  0  0  0  0  0  0  0  0  0
   36.7560   27.5200   44.1490 H   0  0  0  0  0  0  0  0  0  0  0  0
   38.2200   28.3870   43.4820 H   0  0  0  0  0  0  0  0  0  0  0  0
   37.8690   26.3630   42.7980 C   0  0  0  0  0  0  0  0  0  0  0  0
   36.9770   25.4930   42.1740 C   0  0  0  0  0  0  0  0  0  0  0  0
   35.9510   25.8250   42.0460 H   0  0  0  0  0  0  0  0  0  0  0  0
   37.5340   24.2740   41.7830 C   0  0  0  0  0  0  0  0  0  0  0  0
   36.8490   23.5940   41.2970 H   0  0  0  0  0  0  0  0  0  0  0  0
   38.8540   24.0330   42.0300 C   0  0  0  0  0  3  0  0  0  0  0  0
   39.7000   24.9310   42.6540 C   0  0  0  0  0  3  0  0  0  0  0  0
   39.1740   26.1170   43.0380 N   0  0  0  0  0  0  0  0  0  0  0  0
  1  3  1  0  0  0  0
  1 13  1  0  0  0  0
  2  1  1  0  0  0  0
  4  5  1  0  0  0  0
  5  6  2  0  0  0  0
  5  1  1  0  0  0  0
  6 11  1  0  0  0  0
  7  6  1  0  0  0  0
  8  7  2  0  0  0  0
  9  8  1  0  0  0  0
  9  4  2  0  0  0  0
 10  4  1  0  0  0  0
 12  8  1  0  0  0  0
 13 15  1  0  0  0  0
 13 14  1  0  0  0  0
 16 23  1  0  0  0  0
 16 13  1  0  0  0  0
 17 16  2  0  0  0  0
 18 17  1  0  0  0  0
 19 21  2  0  0  0  0
 19 17  1  0  0  0  0
 20 19  1  0  0  0  0
 21 22  1  0  0  0  0
 22 23  2  0  0  0  0
M  END
>  <minimizedAffinity>
-4.13541985

$$$$

 OpenBabel03242517593D

 23 24  0  0  0  0  0  0  0  0999 V2000
   36.6340   27.8160   40.6900 C   0  0  0  0  0  0  0  0  0  0  0  0
   37.4890   27.2140   40.3920 H   0  0  0  0  0  0  0  0  0  0  0  0
   35.6670   27.4390   40.2980 H   0  0  0  0  0  0  0  0  0  0  0  0
   37.3190   29.4760   39.0440 C   0  0  0  0  0  0  0  0  0  0  0  0
   36.7820   29.1990   40.2990 C   0  0  0  0  0  0  0  0  0  0  0  0
   36.4200   30.2900   41.0940 C   0  0  0  0  0  0  0  0  0  0  0  0
   36.6070   31.5370   40.6130 N   0  0  0  0  0  0  0  0  0  0  0  0
   37.1320   31.7750   39.3840 C   0  0  0  0  0  0  0  0  0  0  0  0
   37.4930   30.7340   38.5890 N   0  0  0  0  0  0  0  0  0  0  0  0
   37.6140   28.6550   38.3910 H   0  0  0  0  0  0  0  0  0  0  0  0
   36.0090   30.0900   42.0560 H   0  0  0  0  0  0  0  0  0  0  0  0
   37.2900   32.7660   38.9800 H   0  0  0  0  0  0  0  0  0  0  0  0
   36.5770   27.7570   42.2170 C   0  0  0  0  0  0  0  0  0  0  0  0
   35.7080   27.1200   42.4810 H   0  0  0  0  0  0  0  0  0  0  0  0
   36.5130   28.7510   42.6610 H   0  0  0  0  0  0  0  0  0  0  0  0
   37.7980   27.0080   42.6320 C   0  0  0  0  0  0  0  0  0  0  0  0
   38.8010   27.6550   43.3500 C   0  0  0  0  0  0  0  0  0  0  0  0
   38.6570   28.7050   43.5890 H   0  0  0  0  0  0  0  0  0  0  0  0
   39.8920   26.8470   43.6800 C   0  0  0  0  0  0  0  0  0  0  0  0
   40.6740   27.3420   44.2380 H   0  0  0  0  0  0  0  0  0  0  0  0
   39.8960   25.5400   43.2900 C   0  0  0  0  0  3  0  0  0  0  0  0
   38.8730   24.9420   42.5770 C   0  0  0  0  0  3  0  0  0  0  0  0
   37.8090   25.7130   42.2510 N   0  0  0  0  0  0  0  0  0  0  0  0
  1 13  1  0  0  0  0
  2  1  1  0  0  0  0
  3  1  1  0  0  0  0
  4  5  1  0  0  0  0
  5  1  1  0  0  0  0
  5  6  2  0  0  0  0
  6 11  1  0  0  0  0
  7  6  1  0  0  0  0
  8  7  2  0  0  0  0
  9  4  2  0  0  0  0
  9  8  1  0  0  0  0
 10  4  1  0  0  0  0
 12  8  1  0  0  0  0
 13 14  1  0  0  0  0
 13 16  1  0  0  0  0
 13 15  1  0  0  0  0
 16 17  1  0  0  0  0
 17 18  1  0  0  0  0
 17 19  2  0  0  0  0
 19 20  1  0  0  0  0
 21 19  1  0  0  0  0
 22 21  2  0  0  0  0
 23 22  1  0  0  0  0
 23 16  2  0  0  0  0
M  END
>  <minimizedAffinity>
-4.00482178

$$$$

 OpenBabel03242517593D

 23 24  0  0  0  0  0  0  0  0999 V2000
   35.5670   28.5830   39.7720 C   0  0  0  0  0  0  0  0  0  0  0  0
   34.6460   28.5120   39.1990 H   0  0  0  0  0  0  0  0  0  0  0  0
   35.4460   28.3200   40.8420 H   0  0  0  0  0  0  0  0  0  0  0  0
   36.5700   30.3550   38.4330 C   0  0  0  0  0  0  0  0  0  0  0  0
   36.1600   29.8980   39.6850 C   0  0  0  0  0  0  0  0  0  0  0  0
   36.3530   30.7540   40.7720 C   0  0  0  0  0  0  0  0  0  0  0  0
   36.9170   31.9620   40.5590 N   0  0  0  0  0  0  0  0  0  0  0  0
   37.3050   32.3790   39.3270 C   0  0  0  0  0  0  0  0  0  0  0  0
   37.1300   31.5690   38.2510 N   0  0  0  0  0  0  0  0  0  0  0  0
   36.4370   29.7210   37.5580 H   0  0  0  0  0  0  0  0  0  0  0  0
   36.0440   30.4150   41.7330 H   0  0  0  0  0  0  0  0  0  0  0  0
   37.7590   33.3420   39.1350 H   0  0  0  0  0  0  0  0  0  0  0  0
   36.5400   27.5810   39.1490 C   0  0  0  0  0  0  0  0  0  0  0  0
   37.5230   28.0900   39.0780 H   0  0  0  0  0  0  0  0  0  0  0  0
   36.1900   27.2200   38.1810 H   0  0  0  0  0  0  0  0  0  0  0  0
   36.6930   26.4940   40.1590 C   0  0  0  0  0  0  0  0  0  0  0  0
   36.4790   25.1680   39.7920 C   0  0  0  0  0  0  0  0  0  0  0  0
   36.2040   24.9650   38.7610 H   0  0  0  0  0  0  0  0  0  0  0  0
   36.6530   24.2450   40.8250 C   0  0  0  0  0  0  0  0  0  0  0  0
   36.4890   23.2130   40.5470 H   0  0  0  0  0  0  0  0  0  0  0  0
   37.0030   24.6900   42.0660 C   0  0  0  0  0  3  0  0  0  0  0  0
   37.2040   26.0210   42.3820 C   0  0  0  0  0  3  0  0  0  0  0  0
   37.0400   26.9270   41.3900 N   0  0  0  0  0  0  0  0  0  0  0  0
  1  3  1  0  0  0  0
  2  1  1  0  0  0  0
  4  5  1  0  0  0  0
  5  1  1  0  0  0  0
  5  6  2  0  0  0  0
  6 11  1  0  0  0  0
  7  6  1  0  0  0  0
  8  7  2  0  0  0  0
  9  4  2  0  0  0  0
  9  8  1  0  0  0  0
 10  4  1  0  0  0  0
 12  8  1  0  0  0  0
 13  1  1  0  0  0  0
 13 16  1  0  0  0  0
 14 13  1  0  0  0  0
 15 13  1  0  0  0  0
 16 23  1  0  0  0  0
 17 16  2  0  0  0  0
 17 19  1  0  0  0  0
 18 17  1  0  0  0  0
 19 21  2  0  0  0  0
 20 19  1  0  0  0  0
 21 22  1  0  0  0  0
 23 22  2  0  0  0  0
M  END
>  <minimizedAffinity>
-3.98471212

$$$$

 OpenBabel03242517593D

 23 24  0  0  0  0  0  0  0  0999 V2000
   37.3750   28.8220   42.1460 C   0  0  0  0  0  0  0  0  0  0  0  0
   37.2430   29.6970   42.7780 H   0  0  0  0  0  0  0  0  0  0  0  0
   38.4350   28.5190   42.0240 H   0  0  0  0  0  0  0  0  0  0  0  0
   35.4050   28.9550   40.7180 C   0  0  0  0  0  0  0  0  0  0  0  0
   36.7930   29.0050   40.8360 C   0  0  0  0  0  0  0  0  0  0  0  0
   37.5260   29.2350   39.6690 C   0  0  0  0  0  0  0  0  0  0  0  0
   36.8630   29.3920   38.5040 N   0  0  0  0  0  0  0  0  0  0  0  0
   35.5090   29.3390   38.4210 C   0  0  0  0  0  0  0  0  0  0  0  0
   34.7700   29.1180   39.5390 N   0  0  0  0  0  0  0  0  0  0  0  0
   34.7950   28.7790   41.6030 H   0  0  0  0  0  0  0  0  0  0  0  0
   38.5870   29.2750   39.7480 H   0  0  0  0  0  0  0  0  0  0  0  0
   34.9590   29.4630   37.4980 H   0  0  0  0  0  0  0  0  0  0  0  0
   36.6360   27.6760   42.8380 C   0  0  0  0  0  0  0  0  0  0  0  0
   35.7670   27.4220   42.1970 H   0  0  0  0  0  0  0  0  0  0  0  0
   36.3390   27.9370   43.8540 H   0  0  0  0  0  0  0  0  0  0  0  0
   37.5650   26.5110   42.7800 C   0  0  0  0  0  0  0  0  0  0  0  0
   37.1570   25.3240   42.1760 C   0  0  0  0  0  0  0  0  0  0  0  0
   36.1550   25.2860   41.7590 H   0  0  0  0  0  0  0  0  0  0  0  0
   38.1150   24.3090   42.1860 C   0  0  0  0  0  0  0  0  0  0  0  0
   37.8060   23.3850   41.7180 H   0  0  0  0  0  0  0  0  0  0  0  0
   39.3290   24.5430   42.7620 C   0  0  0  0  0  3  0  0  0  0  0  0
   39.6880   25.7410   43.3510 C   0  0  0  0  0  3  0  0  0  0  0  0
   38.7690   26.7340   43.3480 N   0  0  0  0  0  0  0  0  0  0  0  0
  1  2  1  0  0  0  0
  1 13  1  0  0  0  0
  3  1  1  0  0  0  0
  4  5  1  0  0  0  0
  4 10  1  0  0  0  0
  5  1  1  0  0  0  0
  6 11  1  0  0  0  0
  6  5  2  0  0  0  0
  7  6  1  0  0  0  0
  8  7  2  0  0  0  0
  8  9  1  0  0  0  0
  9  4  2  0  0  0  0
 12  8  1  0  0  0  0
 13 15  1  0  0  0  0
 14 13  1  0  0  0  0
 16 13  1  0  0  0  0
 16 23  1  0  0  0  0
 17 19  1  0  0  0  0
 17 16  2  0  0  0  0
 18 17  1  0  0  0  0
 19 21  2  0  0  0  0
 20 19  1  0  0  0  0
 21 22  1  0  0  0  0
 23 22  2  0  0  0  0
M  END
>  <minimizedAffinity>
-3.97723007

$$$$

 OpenBabel03242517593D

 23 24  0  0  0  0  0  0  0  0999 V2000
   38.2940   29.9830   39.6380 C   0  0  0  0  0  0  0  0  0  0  0  0
   38.6670   29.7150   38.6520 H   0  0  0  0  0  0  0  0  0  0  0  0
   37.2750   29.5960   39.8470 H   0  0  0  0  0  0  0  0  0  0  0  0
   37.3090   32.1730   39.2290 C   0  0  0  0  0  0  0  0  0  0  0  0
   38.2970   31.4120   39.8500 C   0  0  0  0  0  0  0  0  0  0  0  0
   39.2250   32.0930   40.6420 C   0  0  0  0  0  0  0  0  0  0  0  0
   39.1190   33.4330   40.7630 N   0  0  0  0  0  0  0  0  0  0  0  0
   38.1450   34.1480   40.1450 C   0  0  0  0  0  0  0  0  0  0  0  0
   37.2280   33.5120   39.3690 N   0  0  0  0  0  0  0  0  0  0  0  0
   36.5640   31.6830   38.6030 H   0  0  0  0  0  0  0  0  0  0  0  0
   39.9850   31.5210   41.1210 H   0  0  0  0  0  0  0  0  0  0  0  0
   38.0420   35.2210   40.2290 H   0  0  0  0  0  0  0  0  0  0  0  0
   39.2530   29.3500   40.6480 C   0  0  0  0  0  0  0  0  0  0  0  0
   39.7170   30.1830   41.2140 H   0  0  0  0  0  0  0  0  0  0  0  0
   39.9940   28.7150   40.1630 H   0  0  0  0  0  0  0  0  0  0  0  0
   38.3860   28.6100   41.6090 C   0  0  0  0  0  0  0  0  0  0  0  0
   38.1350   29.1410   42.8720 C   0  0  0  0  0  0  0  0  0  0  0  0
   38.5880   30.0970   43.1190 H   0  0  0  0  0  0  0  0  0  0  0  0
   37.3100   28.3550   43.6790 C   0  0  0  0  0  0  0  0  0  0  0  0
   37.1100   28.7610   44.6600 H   0  0  0  0  0  0  0  0  0  0  0  0
   36.8310   27.1740   43.1930 C   0  0  0  0  0  3  0  0  0  0  0  0
   37.1090   26.6870   41.9300 C   0  0  0  0  0  3  0  0  0  0  0  0
   37.9070   27.4400   41.1360 N   0  0  0  0  0  0  0  0  0  0  0  0
  1  3  1  0  0  0  0
  1  5  1  0  0  0  0
  1 13  1  0  0  0  0
  2  1  1  0  0  0  0
  4  9  2  0  0  0  0
  4  5  1  0  0  0  0
  5  6  2  0  0  0  0
  6  7  1  0  0  0  0
  6 11  1  0  0  0  0
  8 12  1  0  0  0  0
  8  7  2  0  0  0  0
  9  8  1  0  0  0  0
 10  4  1  0  0  0  0
 13 14  1  0  0  0  0
 13 16  1  0  0  0  0
 15 13  1  0  0  0  0
 16 17  1  0  0  0  0
 17 18  1  0  0  0  0
 17 19  2  0  0  0  0
 19 20  1  0  0  0  0
 21 19  1  0  0  0  0
 22 21  2  0  0  0  0
 23 16  2  0  0  0  0
 23 22  1  0  0  0  0
M  END
>  <minimizedAffinity>
-3.95344687

$$$$
