
 OpenBabel03252502233D

 33 35  0  0  1  0  0  0  0  0999 V2000
   46.7590   34.5740   42.3180 N   0  0  0  0  0  0  0  0  0  0  0  0
   48.2100   34.5310   42.3430 C   0  0  0  0  0  0  0  0  0  0  0  0
   48.6500   35.3110   41.1050 C   0  0  0  0  0  0  0  0  0  0  0  0
   48.2290   34.5590   39.8730 C   0  0  0  0  0  0  0  0  0  0  0  0
   46.8540   33.9770   39.9330 C   0  0  0  0  0  0  0  0  0  0  0  0
   46.0320   34.4130   41.1070 C   0  0  1  0  0  0  0  0  0  0  0  0
   48.5020   33.4870   42.1670 H   0  0  0  0  0  0  0  0  0  0  0  0
   48.6360   34.9630   43.2640 H   0  0  0  0  0  0  0  0  0  0  0  0
   49.7460   35.3790   41.1460 H   0  0  0  0  0  0  0  0  0  0  0  0
   48.1300   36.2990   41.2050 H   0  0  0  0  0  0  0  0  0  0  0  0
   48.9600   33.7360   39.7230 H   0  0  0  0  0  0  0  0  0  0  0  0
   48.3720   35.2200   38.9820 H   0  0  0  0  0  0  0  0  0  0  0  0
   46.8830   32.8660   39.9080 H   0  0  0  0  0  0  0  0  0  0  0  0
   46.3170   34.2930   39.0120 H   0  0  0  0  0  0  0  0  0  0  0  0
   45.5300   35.3790   40.8650 H   0  0  0  0  0  0  0  0  0  0  0  0
   44.4620   36.0060   44.8850 C   0  0  0  0  0  0  0  0  0  0  0  0
   45.1510   35.8980   43.6660 C   0  0  0  0  0  0  0  0  0  0  0  0
   46.0110   34.7830   43.5150 C   0  0  0  0  0  0  0  0  0  0  0  0
   46.1270   33.8820   44.5480 N   0  0  0  0  0  0  0  0  0  0  0  0
   45.4230   34.0590   45.7020 C   0  0  0  0  0  0  0  0  0  0  0  0
   44.5990   35.1110   45.8650 N   0  0  0  0  0  0  0  0  0  0  0  0
   43.8180   36.8470   44.9870 H   0  0  0  0  0  0  0  0  0  0  0  0
   45.0580   36.6110   42.8510 H   0  0  0  0  0  0  0  0  0  0  0  0
   45.6420   33.2480   46.4010 H   0  0  0  0  0  0  0  0  0  0  0  0
   45.0400   33.4280   41.2970 O   0  0  0  0  0  0  0  0  0  0  0  0
   43.6860   33.6230   41.1280 C   0  0  0  0  0  0  0  0  0  0  0  0
   43.2120   34.8400   40.6400 C   0  0  0  0  0  0  0  0  0  0  0  0
   43.8690   35.6590   40.3790 H   0  0  0  0  0  0  0  0  0  0  0  0
   41.8250   34.9500   40.4990 C   0  0  0  0  0  0  0  0  0  0  0  0
   41.3700   35.8590   40.1260 H   0  0  0  0  0  0  0  0  0  0  0  0
   40.9860   33.9070   40.8290 C   0  0  0  0  0  0  0  0  0  0  0  0
   41.5160   32.7270   41.3090 C   0  0  0  0  0  0  0  0  0  0  0  0
   42.8660   32.6050   41.4510 N   0  0  0  0  0  0  0  0  0  0  0  0
  1  2  1  0  0  0  0
  1 18  1  0  0  0  0
  2  8  1  0  0  0  0
  3  9  1  0  0  0  0
  3 10  1  0  0  0  0
  3  2  1  0  0  0  0
  4  5  1  0  0  0  0
  4  3  1  0  0  0  0
  5  6  1  0  0  0  0
  6 15  1  6  0  0  0
  6 25  1  0  0  0  0
  6  1  1  0  0  0  0
  7  2  1  0  0  0  0
 11  4  1  0  0  0  0
 12  4  1  0  0  0  0
 13  5  1  0  0  0  0
 14  5  1  0  0  0  0
 16 22  1  0  0  0  0
 16 21  1  0  0  0  0
 17 16  2  0  0  0  0
 18 17  1  0  0  0  0
 18 19  2  0  0  0  0
 19 20  1  0  0  0  0
 20 21  2  0  0  0  0
 20 24  1  0  0  0  0
 23 17  1  0  0  0  0
 26 25  1  0  0  0  0
 26 33  1  0  0  0  0
 27 26  2  0  0  0  0
 28 27  1  0  0  0  0
 29 27  1  0  0  0  0
 29 31  2  0  0  0  0
 30 29  1  0  0  0  0
 31 32  1  0  0  0  0
 32 33  2  0  0  0  0
M  END
>  <minimizedAffinity>
-5.62966251

>  <minimizedRMSD>
0.485440701

$$$$
