
 OpenBabel03252500513D

 34 36  0  0  0  0  0  0  0  0999 V2000
   44.8450   35.0200   44.7360 C   0  0  0  0  0  0  0  0  0  0  0  0
   44.9490   34.3380   43.5470 C   0  0  0  0  0  0  0  0  0  0  0  0
   45.4320   33.0070   43.4990 C   0  0  0  0  0  0  0  0  0  0  0  0
   45.7900   32.4400   44.7020 N   0  0  0  0  0  0  0  0  0  0  0  0
   45.6790   33.1250   45.8460 C   0  0  0  0  0  0  0  0  0  0  0  0
   45.2170   34.3850   45.8560 N   0  0  0  0  0  0  0  0  0  0  0  0
   44.4760   36.0340   44.7670 H   0  0  0  0  0  0  0  0  0  0  0  0
   45.5190   32.4600   42.5710 H   0  0  0  0  0  0  0  0  0  0  0  0
   46.0640   32.4990   47.1030 C   0  0  0  0  0  0  0  0  0  0  0  0
   47.3440   32.2240   47.4250 C   0  0  0  0  0  0  0  0  0  0  0  0
   47.7290   31.6350   48.6020 C   0  0  0  0  0  0  0  0  0  0  0  0
   46.7300   31.3240   49.4770 N   0  0  0  0  0  0  0  0  0  0  0  0
   45.4750   31.5940   49.1610 C   0  0  0  0  0  0  0  0  0  0  0  0
   45.0750   32.1710   48.0140 N   0  0  0  0  0  0  0  0  0  0  0  0
   48.1520   32.4670   46.7340 H   0  0  0  0  0  0  0  0  0  0  0  0
   48.7590   31.4170   48.8530 H   0  0  0  0  0  0  0  0  0  0  0  0
   44.7490   31.3090   49.9250 H   0  0  0  0  0  0  0  0  0  0  0  0
   44.5530   34.9970   42.3090 C   0  0  0  0  0  0  0  0  0  0  0  0
   45.3470   34.9640   41.3450 O   0  0  0  0  0  0  0  0  0  0  0  0
   43.4320   35.6900   41.9420 O   0  0  0  0  0  0  0  0  0  0  0  0
   42.6450   35.3520   40.8650 C   0  0  0  0  0  0  0  0  0  0  0  0
   42.8090   34.3910   40.3750 H   0  0  0  0  0  0  0  0  0  0  0  0
   42.9090   36.1000   40.0550 H   0  0  0  0  0  0  0  0  0  0  0  0
   41.1590   35.6200   41.0810 C   0  0  0  0  0  0  0  0  0  0  0  0
   41.0360   36.7230   41.0650 H   0  0  0  0  0  0  0  0  0  0  0  0
   40.7840   35.2130   42.0320 H   0  0  0  0  0  0  0  0  0  0  0  0
   40.3670   35.0950   39.9180 C   0  0  0  0  0  0  0  0  0  0  0  0
   39.2280   34.3900   40.1910 C   0  0  0  0  0  0  0  0  0  0  0  0
   38.8790   34.1970   41.2020 H   0  0  0  0  0  0  0  0  0  0  0  0
   38.5170   33.9180   39.1250 C   0  0  0  0  0  0  0  0  0  0  0  0
   37.5970   33.3450   39.2080 H   0  0  0  0  0  0  0  0  0  0  0  0
   38.9350   34.1470   37.8170 C   0  0  0  0  0  0  0  0  0  0  0  0
   40.1110   34.8780   37.6240 C   0  0  0  0  0  0  0  0  0  0  0  0
   40.8250   35.3510   38.6690 N   0  0  0  0  0  0  0  0  0  0  0  0
  1  7  1  0  0  0  0
  1  6  1  0  0  0  0
  2  1  2  0  0  0  0
  3  2  1  0  0  0  0
  3  4  2  0  0  0  0
  4  5  1  0  0  0  0
  5  6  2  0  0  0  0
  5  9  1  0  0  0  0
  8  3  1  0  0  0  0
  9 10  2  0  0  0  0
  9 14  1  0  0  0  0
 10 11  1  0  0  0  0
 11 16  1  0  0  0  0
 11 12  2  0  0  0  0
 13 12  1  0  0  0  0
 13 17  1  0  0  0  0
 14 13  2  0  0  0  0
 15 10  1  0  0  0  0
 18  2  1  0  0  0  0
 19 18  2  0  0  0  0
 20 18  1  0  0  0  0
 21 24  1  0  0  0  0
 21 20  1  0  0  0  0
 22 21  1  0  0  0  0
 23 21  1  0  0  0  0
 24 26  1  0  0  0  0
 25 24  1  0  0  0  0
 27 28  1  0  0  0  0
 27 24  1  0  0  0  0
 28 29  1  0  0  0  0
 30 31  1  0  0  0  0
 30 28  2  0  0  0  0
 32 30  1  0  0  0  0
 33 32  2  0  0  0  0
 33 34  1  0  0  0  0
 34 27  2  0  0  0  0
M  END
>  <minimizedAffinity>
-6.12366772

>  <minimizedRMSD>
0.735498488

$$$$
