
 OpenBabel03252508433D

 30 32  0  0  0  0  0  0  0  0999 V2000
   51.1560   31.2400   42.1270 C   0  0  0  0  0  0  0  0  0  0  0  0
   51.4640   30.9630   40.8050 C   0  0  0  0  0  0  0  0  0  0  0  0
   52.3420   29.9150   40.5560 C   0  0  0  0  0  0  0  0  0  0  0  0
   52.8680   29.1970   41.5890 C   0  0  0  0  0  0  0  0  0  0  0  0
   52.5770   29.4540   42.8990 C   0  0  0  0  0  0  0  0  0  0  0  0
   51.6900   30.5150   43.1380 C   0  0  0  0  0  0  0  0  0  0  0  0
   52.5760   29.7090   39.5070 H   0  0  0  0  0  0  0  0  0  0  0  0
   53.5470   28.3890   41.3640 H   0  0  0  0  0  0  0  0  0  0  0  0
   53.0000   28.8790   43.7110 H   0  0  0  0  0  0  0  0  0  0  0  0
   51.4160   30.7720   44.1610 H   0  0  0  0  0  0  0  0  0  0  0  0
   48.0980   33.3770   42.7570 C   0  0  0  0  0  0  0  0  0  0  0  0
   48.8940   32.2400   42.5550 C   0  0  0  0  0  0  0  0  0  0  0  0
   50.2510   32.3550   42.3460 C   0  0  0  0  0  0  0  0  0  0  0  0
   50.7100   33.6110   42.3590 N   0  0  0  0  0  0  0  0  0  0  0  0
   49.9770   34.7220   42.5500 C   0  0  0  0  0  0  0  0  0  0  0  0
   48.6570   34.5980   42.7510 N   0  0  0  0  0  0  0  0  0  0  0  0
   47.0560   33.1780   42.9090 H   0  0  0  0  0  0  0  0  0  0  0  0
   48.4560   31.2520   42.5580 H   0  0  0  0  0  0  0  0  0  0  0  0
   50.4060   35.7120   42.5480 H   0  0  0  0  0  0  0  0  0  0  0  0
   50.8930   31.7420   39.6950 C   0  0  0  0  0  0  0  0  0  0  0  0
   49.8210   31.9750   39.9240 H   0  0  0  0  0  0  0  0  0  0  0  0
   51.4410   32.7240   39.6880 H   0  0  0  0  0  0  0  0  0  0  0  0
   50.9340   31.1710   38.3600 C   0  0  0  0  0  0  0  0  0  0  0  0
   51.8370   31.1780   37.2910 C   0  0  0  0  0  0  0  0  0  0  0  0
   52.7170   31.7660   37.6040 H   0  0  0  0  0  0  0  0  0  0  0  0
   51.6290   30.5480   36.0890 C   0  0  0  0  0  0  0  0  0  0  0  0
   52.4440   30.6690   35.3890 H   0  0  0  0  0  0  0  0  0  0  0  0
   50.4600   29.8630   35.9140 C   0  0  0  0  0  3  0  0  0  0  0  0
   49.5740   29.8570   36.9680 C   0  0  0  0  0  3  0  0  0  0  0  0
   49.7940   30.4850   38.1500 N   0  0  0  0  0  0  0  0  0  0  0  0
  1 13  1  0  0  0  0
  1  6  1  0  0  0  0
  2  1  2  0  0  0  0
  3  2  1  0  0  0  0
  3  4  2  0  0  0  0
  4  5  1  0  0  0  0
  5  6  2  0  0  0  0
  5  9  1  0  0  0  0
  6 10  1  0  0  0  0
  7  3  1  0  0  0  0
  8  4  1  0  0  0  0
 11 17  1  0  0  0  0
 12 18  1  0  0  0  0
 12 11  2  0  0  0  0
 13 14  2  0  0  0  0
 13 12  1  0  0  0  0
 14 15  1  0  0  0  0
 15 16  2  0  0  0  0
 16 11  1  0  0  0  0
 19 15  1  0  0  0  0
 20 21  1  0  0  0  0
 20  2  1  0  0  0  0
 22 20  1  0  0  0  0
 23 20  1  0  0  0  0
 24 25  1  0  0  0  0
 24 23  2  0  0  0  0
 26 24  1  0  0  0  0
 27 26  1  0  0  0  0
 28 26  2  0  0  0  0
 28 29  1  0  0  0  0
 29 30  2  0  0  0  0
 30 23  1  0  0  0  0
M  END
>  <minimizedAffinity>
-3.11688662

>  <minimizedRMSD>
7.43732023

$$$$
