REMARK  Name = 
REMARK  2 active torsions:
REMARK  status: ('A' for Active; 'I' for Inactive)
REMARK    1  A    between atoms: C_2  and  N_12
REMARK    2  A    between atoms: C_11  and  C_24
REMARK                            x       y       z     vdW  Elec       q    Type
REMARK                         _______ _______ _______ _____ _____    ______ ____
ROOT
ATOM      1  C   UNL     1      44.481  35.745  45.020  0.00  0.00    +0.000 A 
ATOM      2  C   UNL     1      45.104  35.713  43.766  0.00  0.00    +0.000 A 
ATOM      3  C   UNL     1      46.015  34.698  43.489  0.00  0.00    +0.000 A 
ATOM      4  N   UNL     1      46.249  33.781  44.471  0.00  0.00    +0.000 NA
ATOM      5  C   UNL     1      45.636  33.840  45.663  0.00  0.00    +0.000 A 
ATOM      6  N   UNL     1      44.761  34.807  45.941  0.00  0.00    +0.000 NA
ATOM      7  N   UNL     1      45.950  32.835  46.620  0.00  0.00    +0.000 N 
ATOM      8  C   UNL     1      45.161  32.566  47.822  0.00  0.00    +0.000 C 
ATOM      9  C   UNL     1      46.228  32.215  48.816  0.00  0.00    +0.000 C 
ATOM     10  C   UNL     1      47.519  32.057  48.063  0.00  0.00    +0.000 C 
ATOM     11  C   UNL     1      47.052  31.903  46.626  0.00  0.00    +0.000 C 
ATOM     12  H   UNL     1      43.772  36.539  45.232  0.00  0.00    +0.000 HD
ATOM     13  H   UNL     1      46.483  34.688  42.524  0.00  0.00    +0.000 HD
ATOM     14  H   UNL     1      44.445  31.753  47.674  0.00  0.00    +0.000 HD
ATOM     15  H   UNL     1      44.705  33.538  48.135  0.00  0.00    +0.000 HD
ATOM     16  H   UNL     1      46.303  32.920  49.660  0.00  0.00    +0.000 HD
ATOM     17  H   UNL     1      45.973  31.213  49.263  0.00  0.00    +0.000 HD
ATOM     18  H   UNL     1      48.033  31.107  48.329  0.00  0.00    +0.000 HD
ATOM     19  H   UNL     1      48.189  32.940  48.156  0.00  0.00    +0.000 HD
ATOM     20  H   UNL     1      46.734  30.873  46.477  0.00  0.00    +0.000 HD
ENDROOT
BRANCH  11  21
ATOM     21  C   UNL     1      48.158  32.308  45.723  0.00  0.00    +0.000 A 
ATOM     22  C   UNL     1      49.135  31.389  45.334  0.00  0.00    +0.000 A 
ATOM     23  H   UNL     1      49.036  30.387  45.718  0.00  0.00    +0.000 HD
ATOM     24  C   UNL     1      50.176  31.770  44.491  0.00  0.00    +0.000 A 
ATOM     25  H   UNL     1      50.891  30.990  44.241  0.00  0.00    +0.000 HD
ATOM     26  C   UNL     1      50.217  33.083  44.050  0.00  0.00    +0.000 A 
ATOM     27  C   UNL     1      49.245  33.974  44.444  0.00  0.00    +0.000 A 
ATOM     28  N   UNL     1      48.260  33.559  45.258  0.00  0.00    +0.000 NA
ENDBRANCH  11  21
BRANCH   2  29
ATOM     29  N   UNL     1      44.754  36.751  42.830  0.00  0.00    +0.000 N 
ATOM     30  H   UNL     1      44.438  37.656  43.185  0.00  0.00    +0.000 HD
ATOM     31  H   UNL     1      44.854  36.491  41.803  0.00  0.00    +0.000 HD
ENDBRANCH   2  29
TORSDOF 2
