
     RDKit          3D

 48 51  0  0  0  0  0  0  0  0999 V2000
   47.3274   33.6296   42.8397 C   0  0  0  0  0  0  0  0  0  0  0  0
   48.4126   33.4216   43.4452 O   0  0  0  0  0  0  0  0  0  0  0  0
   47.0361   33.1219   41.5493 N   0  0  0  0  0  0  0  0  0  0  0  0
   45.8089   32.4948   41.0272 C   0  0  0  0  0  0  0  0  0  0  0  0
   45.3858   33.2088   39.7479 C   0  0  0  0  0  0  0  0  0  0  0  0
   46.4129   32.9894   38.6872 C   0  0  0  0  0  0  0  0  0  0  0  0
   47.6975   32.4848   39.3021 C   0  0  0  0  0  0  0  0  0  0  0  0
   48.0666   33.1950   40.5539 C   0  0  2  0  0  0  0  0  0  0  0  0
   45.9695   35.6625   42.9177 C   0  0  0  0  0  0  0  0  0  0  0  0
   46.3323   34.4334   43.5127 C   0  0  0  0  0  0  0  0  0  0  0  0
   45.7448   34.0255   44.7025 C   0  0  0  0  0  0  0  0  0  0  0  0
   44.8238   34.8493   45.2536 N   0  0  0  0  0  0  0  0  0  0  0  0
   44.4583   36.0375   44.6992 C   0  0  0  0  0  0  0  0  0  0  0  0
   45.0422   36.4213   43.5363 N   0  0  0  0  0  0  0  0  0  0  0  0
   46.1445   32.7699   45.2810 C   0  0  0  0  0  0  0  0  0  0  0  0
   45.7729   31.5985   44.7159 C   0  0  0  0  0  0  0  0  0  0  0  0
   46.1715   30.4093   45.2915 C   0  0  0  0  0  0  0  0  0  0  0  0
   46.9510   30.3567   46.4457 C   0  0  0  0  0  0  0  0  0  0  0  0
   47.3060   31.5864   46.9873 C   0  0  0  0  0  0  0  0  0  0  0  0
   46.9003   32.7199   46.4003 N   0  0  0  0  0  0  0  0  0  0  0  0
   49.4181   32.7829   41.0100 C   0  0  0  0  0  0  0  0  0  0  0  0
   46.0171   31.4413   40.7532 H   0  0  0  0  0  0  0  0  0  0  0  0
   44.9789   32.5686   41.7633 H   0  0  0  0  0  0  0  0  0  0  0  0
   44.3721   32.9155   39.4779 H   0  0  0  0  0  0  0  0  0  0  0  0
   45.3962   34.2967   40.0229 H   0  0  0  0  0  0  0  0  0  0  0  0
   46.5615   33.8853   38.0814 H   0  0  0  0  0  0  0  0  0  0  0  0
   46.0121   32.1732   38.0362 H   0  0  0  0  0  0  0  0  0  0  0  0
   47.7268   31.3827   39.3772 H   0  0  0  0  0  0  0  0  0  0  0  0
   48.4941   32.7543   38.5450 H   0  0  0  0  0  0  0  0  0  0  0  0
   48.1339   34.2931   40.2809 H   0  0  0  0  0  0  0  0  0  0  0  0
   46.4420   35.9568   41.9912 H   0  0  0  0  0  0  0  0  0  0  0  0
   43.7177   36.6721   45.1674 H   0  0  0  0  0  0  0  0  0  0  0  0
   45.1733   31.4695   43.8330 H   0  0  0  0  0  0  0  0  0  0  0  0
   45.9042   29.4380   44.8831 H   0  0  0  0  0  0  0  0  0  0  0  0
   47.2623   29.4258   46.8953 H   0  0  0  0  0  0  0  0  0  0  0  0
   47.9064   31.6493   47.8778 H   0  0  0  0  0  0  0  0  0  0  0  0
   49.8356   33.2262   41.9070 H   0  0  0  0  0  0  0  0  0  0  0  0
   49.3964   31.6967   41.2448 H   0  0  0  0  0  0  0  0  0  0  0  0
   50.4309   32.8643   39.8795 C   0  0  0  0  0  0  0  0  0  0  0  0
   50.0683   33.2684   38.6082 C   0  0  0  0  0  0  0  0  0  0  0  0
   49.0372   33.5361   38.4218 H   0  0  0  0  0  0  0  0  0  0  0  0
   51.0976   33.2831   37.6969 C   0  0  0  0  0  0  0  0  0  0  0  0
   50.8535   33.5970   36.6785 H   0  0  0  0  0  0  0  0  0  0  0  0
   52.3583   32.9137   38.0885 C   0  0  0  0  0  0  0  0  0  0  0  0
   52.6604   32.5162   39.3849 C   0  0  0  0  0  0  0  0  0  0  0  0
   51.6587   32.4965   40.2921 N   0  0  0  0  0  0  0  0  0  0  0  0
   53.1755   32.9205   37.3844 H   0  0  0  0  0  0  0  0  0  0  0  0
   53.6768   32.2321   39.6466 H   0  0  0  0  0  0  0  0  0  0  0  0
  1  2  2  0
  1 10  1  0
  3  1  1  0
  4  3  1  0
  5  4  1  0
  6  7  1  0
  6  5  1  0
  7  8  1  0
  8 21  1  0
  8  3  1  0
  9 10  2  0
  9 14  1  0
 10 11  1  0
 11 12  2  0
 11 15  1  0
 13 12  1  0
 14 13  2  0
 15 20  1  0
 16 15  2  0
 16 17  1  0
 17 18  2  0
 18 19  1  0
 20 19  2  0
  4 22  1  0
  4 23  1  0
  5 24  1  0
  5 25  1  0
  6 26  1  0
  6 27  1  0
  7 28  1  0
  7 29  1  0
  8 30  1  6
  9 31  1  0
 13 32  1  0
 16 33  1  0
 17 34  1  0
 18 35  1  0
 19 36  1  0
 21 37  1  0
 21 38  1  0
 39 40  2  0
 40 41  1  0
 40 42  1  0
 42 43  1  0
 42 44  2  0
 44 45  1  0
 45 46  2  0
 46 39  1  0
 44 47  1  0
 45 48  1  0
 21 39  1  0
M  ISO  8  22  13  23  13  24  13  25  13  26  13  27  13  28  13  29  13
M  ISO  8  30  13  31  14  32  14  33  14  34  14  35  14  36  14  37   8
M  ISO  3  38   8  41  15  43  16
M  END
>  <DihAtoms>  (1) 
7,20,38,39

>  <DihDeg>  (1) 
-90.50644130571537

$$$$
