
 OpenBabel03252508433D

 30 32  0  0  0  0  0  0  0  0999 V2000
   46.5480   33.7100   41.5950 C   0  0  0  0  0  0  0  0  0  0  0  0
   47.1560   32.4850   41.8100 C   0  0  0  0  0  0  0  0  0  0  0  0
   48.4630   32.4900   42.2800 C   0  0  0  0  0  0  0  0  0  0  0  0
   49.1050   33.6700   42.5160 C   0  0  0  0  0  0  0  0  0  0  0  0
   48.5230   34.8890   42.3110 C   0  0  0  0  0  0  0  0  0  0  0  0
   47.2030   34.8700   41.8350 C   0  0  0  0  0  0  0  0  0  0  0  0
   48.9310   31.5140   42.4450 H   0  0  0  0  0  0  0  0  0  0  0  0
   50.1210   33.6410   42.8820 H   0  0  0  0  0  0  0  0  0  0  0  0
   49.0410   35.8180   42.5010 H   0  0  0  0  0  0  0  0  0  0  0  0
   46.6810   35.8080   41.6500 H   0  0  0  0  0  0  0  0  0  0  0  0
   42.7780   33.6750   41.2750 C   0  0  0  0  0  0  0  0  0  0  0  0
   44.0520   33.7300   41.8600 C   0  0  0  0  0  0  0  0  0  0  0  0
   45.1880   33.6620   41.0840 C   0  0  0  0  0  0  0  0  0  0  0  0
   44.9590   33.5430   39.7730 N   0  0  0  0  0  0  0  0  0  0  0  0
   43.7540   33.4870   39.1790 C   0  0  0  0  0  0  0  0  0  0  0  0
   42.6540   33.5540   39.9440 N   0  0  0  0  0  0  0  0  0  0  0  0
   41.9610   33.7350   41.9670 H   0  0  0  0  0  0  0  0  0  0  0  0
   44.1650   33.8270   42.9300 H   0  0  0  0  0  0  0  0  0  0  0  0
   43.6320   33.3900   38.1120 H   0  0  0  0  0  0  0  0  0  0  0  0
   46.4580   31.2150   41.5530 C   0  0  0  0  0  0  0  0  0  0  0  0
   45.4720   31.4310   41.0640 H   0  0  0  0  0  0  0  0  0  0  0  0
   47.0790   30.6650   40.7930 H   0  0  0  0  0  0  0  0  0  0  0  0
   46.1970   30.3320   42.6760 C   0  0  0  0  0  0  0  0  0  0  0  0
   46.9750   29.5790   43.5630 C   0  0  0  0  0  0  0  0  0  0  0  0
   48.0330   29.7500   43.3030 H   0  0  0  0  0  0  0  0  0  0  0  0
   46.4700   28.7890   44.5670 C   0  0  0  0  0  0  0  0  0  0  0  0
   47.2320   28.2860   45.1460 H   0  0  0  0  0  0  0  0  0  0  0  0
   45.1150   28.7280   44.7170 C   0  0  0  0  0  3  0  0  0  0  0  0
   44.3530   29.4690   43.8430 C   0  0  0  0  0  3  0  0  0  0  0  0
   44.8650   30.2450   42.8560 N   0  0  0  0  0  0  0  0  0  0  0  0
  1  2  2  0  0  0  0
  1  6  1  0  0  0  0
  2  3  1  0  0  0  0
  3  7  1  0  0  0  0
  3  4  2  0  0  0  0
  4  8  1  0  0  0  0
  5  9  1  0  0  0  0
  5  4  1  0  0  0  0
  6  5  2  0  0  0  0
 10  6  1  0  0  0  0
 11 12  1  0  0  0  0
 11 17  1  0  0  0  0
 12 18  1  0  0  0  0
 13  1  1  0  0  0  0
 13 12  2  0  0  0  0
 14 13  1  0  0  0  0
 15 14  2  0  0  0  0
 15 16  1  0  0  0  0
 16 11  2  0  0  0  0
 19 15  1  0  0  0  0
 20  2  1  0  0  0  0
 20 23  1  0  0  0  0
 21 20  1  0  0  0  0
 22 20  1  0  0  0  0
 23 30  2  0  0  0  0
 23 24  1  0  0  0  0
 24 26  2  0  0  0  0
 25 24  1  0  0  0  0
 26 28  1  0  0  0  0
 26 27  1  0  0  0  0
 29 28  2  0  0  0  0
 30 29  1  0  0  0  0
M  END
>  <minimizedAffinity>
-3.06621814

>  <minimizedRMSD>
6.17363882

$$$$
