
     RDKit          3D

 28 29  0  0  0  0  0  0  0  0999 V2000
   44.5216   35.6197   44.7852 C   0  0  0  0  0  0  0  0  0  0  0  0
   44.9119   35.8275   43.4432 C   0  0  0  0  0  0  0  0  0  0  0  0
   45.9725   35.0083   42.9864 C   0  0  0  0  0  0  0  0  0  0  0  0
   46.5189   34.1098   43.8492 N   0  0  0  0  0  0  0  0  0  0  0  0
   46.0993   33.9667   45.1067 C   0  0  0  0  0  0  0  0  0  0  0  0
   45.1096   34.7095   45.5830 N   0  0  0  0  0  0  0  0  0  0  0  0
   46.6619   33.0496   45.9765 O   0  0  0  0  0  0  0  0  0  0  0  0
   46.9790   32.2967   48.4421 O   0  0  0  0  0  0  0  0  0  0  0  0
   45.9282   32.3994   47.3489 P   0  0  1  0  0  0  0  0  0  0  0  0
   44.6251   33.3539   47.8524 O   0  0  0  0  0  0  0  0  0  0  0  0
   45.3413   30.8452   47.0800 O   0  0  0  0  0  0  0  0  0  0  0  0
   45.1086   30.2426   48.3033 C   0  0  0  0  0  0  0  0  0  0  0  0
   43.7144   36.2117   45.2056 H   0  0  0  0  0  0  0  0  0  0  0  0
   44.4154   36.5630   42.8457 H   0  0  0  0  0  0  0  0  0  0  0  0
   46.2991   35.1363   41.9692 H   0  0  0  0  0  0  0  0  0  0  0  0
   44.4224   33.0850   48.7992 H   0  0  0  0  0  0  0  0  0  0  0  0
   44.3259   30.8600   48.8259 H   0  0  0  0  0  0  0  0  0  0  0  0
   45.9898   30.2385   48.9597 H   0  0  0  0  0  0  0  0  0  0  0  0
   44.5890   28.8669   48.0834 C   0  0  0  0  0  0  0  0  0  0  0  0
   43.5191   28.3142   48.7579 C   0  0  0  0  0  0  0  0  0  0  0  0
   43.0272   28.9291   49.4977 H   0  0  0  0  0  0  0  0  0  0  0  0
   43.0717   27.0298   48.5191 C   0  0  0  0  0  0  0  0  0  0  0  0
   42.2255   26.6203   49.0661 H   0  0  0  0  0  0  0  0  0  0  0  0
   43.7460   26.2800   47.5509 C   0  0  0  0  0  0  0  0  0  0  0  0
   44.8294   26.8395   46.8679 C   0  0  0  0  0  0  0  0  0  0  0  0
   45.2199   28.1002   47.1454 N   0  0  0  0  0  0  0  0  0  0  0  0
   43.4323   25.2612   47.3250 H   0  0  0  0  0  0  0  0  0  0  0  0
   45.3815   26.2933   46.1086 H   0  0  0  0  0  0  0  0  0  0  0  0
  1  6  2  0
  2  1  1  0
  3  2  2  0
  3  4  1  0
  4  5  2  0
  5  6  1  0
  5  7  1  0
  9  7  1  6
  9 10  1  0
  9  8  2  0
 11  9  1  0
 11 12  1  0
  1 13  1  0
  2 14  1  0
  3 15  1  0
 10 16  1  0
 12 17  1  0
 12 18  1  0
 19 20  2  0
 20 21  1  0
 20 22  1  0
 22 23  1  0
 22 24  2  0
 24 25  1  0
 25 26  2  0
 26 19  1  0
 24 27  1  0
 25 28  1  0
 12 19  1  0
M  ISO  8  13  14  14  14  15  14  16   3  17   8  18   8  21  15  23  16
M  END
>  <DihAtoms>  (1) 
10,11,18,19

>  <DihDeg>  (1) 
0.01186951532582652

$$$$
