
 OpenBabel03252505293D

 26 27  0  0  0  0  0  0  0  0999 V2000
   46.9530   31.9190   48.3820 O   0  0  0  0  0  0  0  0  0  0  0  0
   45.9640   32.1930   47.2620 P   0  0  1  0  0  0  0  0  0  0  0  0
   44.5880   32.9820   47.8520 O   0  0  0  0  0  0  0  0  0  0  0  0
   44.3440   32.5250   48.7140 H   0  0  0  0  0  0  0  0  0  0  0  0
   46.7430   33.1270   46.0930 O   0  0  0  0  0  0  0  0  0  0  0  0
   44.4760   35.5500   44.8300 C   0  0  0  0  0  0  0  0  0  0  0  0
   44.8550   35.7390   43.4820 C   0  0  0  0  0  0  0  0  0  0  0  0
   45.9560   34.9610   43.0480 C   0  0  0  0  0  0  0  0  0  0  0  0
   46.5470   34.1170   43.9360 N   0  0  0  0  0  0  0  0  0  0  0  0
   46.1340   33.9890   45.1980 C   0  0  0  0  0  0  0  0  0  0  0  0
   45.1090   34.6940   45.6530 N   0  0  0  0  0  0  0  0  0  0  0  0
   43.6390   36.1120   45.2350 H   0  0  0  0  0  0  0  0  0  0  0  0
   44.3220   36.4300   42.8650 H   0  0  0  0  0  0  0  0  0  0  0  0
   46.2760   35.0760   42.0270 H   0  0  0  0  0  0  0  0  0  0  0  0
   45.4710   30.7010   46.6590 O   0  0  0  0  0  0  0  0  0  0  0  0
   45.7280   29.7340   47.6130 C   0  0  0  0  0  0  0  0  0  0  0  0
   45.4340   30.1710   48.6080 H   0  0  0  0  0  0  0  0  0  0  0  0
   46.7920   29.4710   47.6910 H   0  0  0  0  0  0  0  0  0  0  0  0
   44.8930   28.5350   47.3340 C   0  0  0  0  0  0  0  0  0  0  0  0
   44.0860   28.3800   46.2260 C   0  0  0  0  0  0  0  0  0  0  0  0
   44.0620   29.1910   45.5120 H   0  0  0  0  0  0  0  0  0  0  0  0
   43.3270   27.2470   46.0090 C   0  0  0  0  0  0  0  0  0  0  0  0
   42.7000   27.1530   45.1260 H   0  0  0  0  0  0  0  0  0  0  0  0
   43.3960   26.2300   46.9650 C   0  0  0  0  0  3  0  0  0  0  0  0
   44.2150   26.3860   48.0880 C   0  0  0  0  0  3  0  0  0  0  0  0
   44.9330   27.5170   48.2440 N   0  0  0  0  0  0  0  0  0  0  0  0
  2  3  1  0  0  0  0
  2  1  2  1  0  0  0
  3  4  1  0  0  0  0
  5  2  1  0  0  0  0
  6 12  1  0  0  0  0
  6 11  1  0  0  0  0
  7  6  2  0  0  0  0
  8  7  1  0  0  0  0
  8  9  2  0  0  0  0
  9 10  1  0  0  0  0
 10 11  2  0  0  0  0
 10  5  1  0  0  0  0
 13  7  1  0  0  0  0
 14  8  1  0  0  0  0
 15  2  1  0  0  0  0
 15 16  1  0  0  0  0
 16 18  1  0  0  0  0
 16 17  1  0  0  0  0
 19 16  1  0  0  0  0
 19 26  1  0  0  0  0
 20 19  2  0  0  0  0
 21 20  1  0  0  0  0
 22 20  1  0  0  0  0
 22 24  2  0  0  0  0
 23 22  1  0  0  0  0
 24 25  1  0  0  0  0
 25 26  2  0  0  0  0
M  END
>  <minimizedAffinity>
-4.74769735

>  <minimizedRMSD>
0.887993395

$$$$
