
 OpenBabel03252503223D

 39 43  0  0  1  0  0  0  0  0999 V2000
   47.4850   32.8840   41.4330 C   0  0  1  0  0  0  0  0  0  0  0  0
   48.1330   34.1460   41.1440 C   0  0  0  0  0  0  0  0  0  0  0  0
   48.9730   32.8940   41.1080 C   0  0  2  0  0  0  0  0  0  0  0  0
   46.8500   32.3320   40.7040 H   0  0  0  0  0  0  0  0  0  0  0  0
   48.3530   34.8700   41.9450 H   0  0  0  0  0  0  0  0  0  0  0  0
   47.9530   34.6700   40.1660 H   0  0  0  0  0  0  0  0  0  0  0  0
   49.7240   32.7990   41.9020 H   0  0  0  0  0  0  0  0  0  0  0  0
   49.3290   32.3800   39.7560 C   0  0  0  0  0  0  0  0  0  0  0  0
   50.2540   31.3880   39.5130 C   0  0  0  0  0  0  0  0  0  0  0  0
   50.5360   30.9460   38.2410 C   0  0  0  0  0  0  0  0  0  0  0  0
   49.8750   31.5090   37.1610 C   0  0  0  0  0  0  0  0  0  0  0  0
   50.1170   31.1150   35.8850 N   0  0  0  0  0  0  0  0  0  0  0  0
   49.4750   31.6660   34.8420 C   0  0  0  0  0  0  0  0  0  0  0  0
   48.5150   32.6810   34.9900 C   0  0  0  0  0  0  0  0  0  0  0  0
   48.2410   33.1110   36.2820 C   0  0  0  0  0  0  0  0  0  0  0  0
   48.9240   32.5190   37.3400 C   0  0  0  0  0  0  0  0  0  0  0  0
   48.6900   32.9170   38.6450 C   0  0  0  0  0  0  0  0  0  0  0  0
   50.7520   30.9670   40.3640 H   0  0  0  0  0  0  0  0  0  0  0  0
   51.2700   30.1610   38.0600 H   0  0  0  0  0  0  0  0  0  0  0  0
   49.6470   31.3730   33.8130 H   0  0  0  0  0  0  0  0  0  0  0  0
   48.0070   33.1130   34.1380 H   0  0  0  0  0  0  0  0  0  0  0  0
   47.5100   33.8880   36.4380 H   0  0  0  0  0  0  0  0  0  0  0  0
   47.9520   33.7180   38.6880 H   0  0  0  0  0  0  0  0  0  0  0  0
   47.0950   33.4960   43.8410 C   0  0  0  0  0  0  0  0  0  0  0  0
   47.0960   32.5090   42.8200 C   0  0  0  0  0  0  0  0  0  0  0  0
   46.7270   31.2240   43.1650 C   0  0  0  0  0  0  0  0  0  0  0  0
   46.3870   30.9850   44.4630 N   0  0  0  0  0  0  0  0  0  0  0  0
   46.3940   31.9320   45.4130 C   0  0  0  0  0  0  0  0  0  0  0  0
   46.7510   33.1980   45.1020 N   0  0  0  0  0  0  0  0  0  0  0  0
   47.3800   34.5280   43.6150 H   0  0  0  0  0  0  0  0  0  0  0  0
   46.7190   30.4670   42.4190 H   0  0  0  0  0  0  0  0  0  0  0  0
   46.0210   31.6330   46.7950 C   0  0  0  0  0  0  0  0  0  0  0  0
   45.4830   30.4040   47.1120 C   0  0  0  0  0  0  0  0  0  0  0  0
   45.3160   29.6260   46.3760 H   0  0  0  0  0  0  0  0  0  0  0  0
   45.1070   30.0570   48.4100 C   0  0  0  0  0  0  0  0  0  0  0  0
   44.6860   29.1190   48.7080 H   0  0  0  0  0  0  0  0  0  0  0  0
   45.3120   31.0380   49.3710 C   0  0  0  0  0  0  0  0  0  0  0  0
   45.8490   32.2690   49.0640 C   0  0  0  0  0  0  0  0  0  0  0  0
   46.1990   32.5550   47.7800 N   0  0  0  0  0  0  0  0  0  0  0  0
  1  4  1  6  0  0  0
  1 25  1  0  0  0  0
  2  1  1  0  0  0  0
  2  5  1  0  0  0  0
  3  2  1  0  0  0  0
  3  1  1  0  0  0  0
  3  7  1  1  0  0  0
  6  2  1  0  0  0  0
  8  3  1  0  0  0  0
  9  8  1  0  0  0  0
  9 18  1  0  0  0  0
 10  9  2  0  0  0  0
 11 16  1  0  0  0  0
 11 10  1  0  0  0  0
 12 11  2  0  0  0  0
 13 14  2  0  0  0  0
 13 12  1  0  0  0  0
 14 15  1  0  0  0  0
 15 22  1  0  0  0  0
 15 16  2  0  0  0  0
 16 17  1  0  0  0  0
 17 23  1  0  0  0  0
 17  8  2  0  0  0  0
 19 10  1  0  0  0  0
 20 13  1  0  0  0  0
 21 14  1  0  0  0  0
 24 29  1  0  0  0  0
 25 26  1  0  0  0  0
 25 24  2  0  0  0  0
 26 27  2  0  0  0  0
 27 28  1  0  0  0  0
 28 32  1  0  0  0  0
 29 28  2  0  0  0  0
 30 24  1  0  0  0  0
 31 26  1  0  0  0  0
 32 33  2  0  0  0  0
 32 39  1  0  0  0  0
 33 35  1  0  0  0  0
 34 33  1  0  0  0  0
 35 36  1  0  0  0  0
 35 37  2  0  0  0  0
 38 37  1  0  0  0  0
 39 38  2  0  0  0  0
M  END
>  <minimizedAffinity>
-5.43098783

>  <minimizedRMSD>
3.97369599

$$$$
