
     RDKit          3D

 33 35  0  0  0  0  0  0  0  0999 V2000
   44.4814   35.7451   45.0200 C   0  0  0  0  0  0  0  0  0  0  0  0
   45.1042   35.7131   43.7661 C   0  0  0  0  0  0  0  0  0  0  0  0
   46.0148   34.6981   43.4889 C   0  0  0  0  0  0  0  0  0  0  0  0
   46.2493   33.7812   44.4710 N   0  0  0  0  0  0  0  0  0  0  0  0
   45.6355   33.8398   45.6633 C   0  0  0  0  0  0  0  0  0  0  0  0
   44.7609   34.8075   45.9411 N   0  0  0  0  0  0  0  0  0  0  0  0
   45.9500   32.8347   46.6195 N   0  0  0  0  0  0  0  0  0  0  0  0
   45.1611   32.5659   47.8221 C   0  0  0  0  0  0  0  0  0  0  0  0
   46.2283   32.2152   48.8163 C   0  0  0  0  0  0  0  0  0  0  0  0
   47.5187   32.0574   48.0635 C   0  0  0  0  0  0  0  0  0  0  0  0
   47.0517   31.9028   46.6264 C   0  0  2  0  0  0  0  0  0  0  0  0
   44.7541   36.7512   42.8298 N   0  0  0  0  0  0  0  0  0  0  0  0
   43.7716   36.5387   45.2323 H   0  0  0  0  0  0  0  0  0  0  0  0
   46.4830   34.6883   42.5237 H   0  0  0  0  0  0  0  0  0  0  0  0
   44.4447   31.7528   47.6740 H   0  0  0  0  0  0  0  0  0  0  0  0
   44.7047   33.5382   48.1350 H   0  0  0  0  0  0  0  0  0  0  0  0
   46.3032   32.9201   49.6603 H   0  0  0  0  0  0  0  0  0  0  0  0
   45.9726   31.2133   49.2632 H   0  0  0  0  0  0  0  0  0  0  0  0
   48.0331   31.1068   48.3286 H   0  0  0  0  0  0  0  0  0  0  0  0
   48.1891   32.9397   48.1558 H   0  0  0  0  0  0  0  0  0  0  0  0
   46.7344   30.8734   46.4770 H   0  0  0  0  0  0  0  0  0  0  0  0
   44.4378   37.6562   43.1846 H   0  0  0  0  0  0  0  0  0  0  0  0
   44.8539   36.4906   41.8035 H   0  0  0  0  0  0  0  0  0  0  0  0
   48.1584   32.3081   45.7226 C   0  0  0  0  0  0  0  0  0  0  0  0
   49.1348   31.3893   45.3341 C   0  0  0  0  0  0  0  0  0  0  0  0
   49.0365   30.3867   45.7181 H   0  0  0  0  0  0  0  0  0  0  0  0
   50.1763   31.7700   44.4913 C   0  0  0  0  0  0  0  0  0  0  0  0
   50.8905   30.9903   44.2411 H   0  0  0  0  0  0  0  0  0  0  0  0
   50.2168   33.0828   44.0498 C   0  0  0  0  0  0  0  0  0  0  0  0
   49.2453   33.9738   44.4436 C   0  0  0  0  0  0  0  0  0  0  0  0
   48.2604   33.5591   45.2578 N   0  0  0  0  0  0  0  0  0  0  0  0
   51.0453   33.3007   43.4060 H   0  0  0  0  0  0  0  0  0  0  0  0
   49.3137   34.9878   44.0766 H   0  0  0  0  0  0  0  0  0  0  0  0
  1  6  2  0
  2  1  1  0
  3  2  2  0
  3  4  1  0
  4  5  2  0
  5  6  1  0
  5  7  1  0
  7 11  1  0
  7  8  1  0
  8  9  1  0
 10  9  1  0
 11 10  1  0
 12  2  1  0
  1 13  1  0
  3 14  1  0
  8 15  1  0
  8 16  1  0
  9 17  1  0
  9 18  1  0
 10 19  1  0
 10 20  1  0
 11 21  1  6
 12 22  1  0
 12 23  1  0
 24 25  2  0
 25 26  1  0
 25 27  1  0
 27 28  1  0
 27 29  2  0
 29 30  1  0
 30 31  2  0
 31 24  1  0
 29 32  1  0
 30 33  1  0
 11 24  1  0
M  ISO  8  13  14  14  14  15  13  16  13  17  13  18  13  19  13  20  13
M  ISO  3  21  13  26  15  28  16
M  END
>  <DihAtoms>  (1) 
6,10,23,24

>  <DihDeg>  (1) 
-133.40527993007484

$$$$
