REMARK  Name = 
REMARK  3 active torsions:
REMARK  status: ('A' for Active; 'I' for Inactive)
REMARK    1  A    between atoms: C_1  and  C_9
REMARK    2  A    between atoms: C_2  and  C_13
REMARK    3  A    between atoms: C_13  and  C_23
REMARK                            x       y       z     vdW  Elec       q    Type
REMARK                         _______ _______ _______ _____ _____    ______ ____
ROOT
ATOM      1  C   UNL     1      46.613  34.431  41.443  0.00  0.00    +0.000 A 
ATOM      2  C   UNL     1      47.895  34.921  41.256  0.00  0.00    +0.000 A 
ATOM      3  C   UNL     1      48.520  34.640  40.047  0.00  0.00    +0.000 A 
ATOM      4  C   UNL     1      47.877  33.908  39.093  0.00  0.00    +0.000 A 
ATOM      5  C   UNL     1      46.613  33.416  39.258  0.00  0.00    +0.000 A 
ATOM      6  C   UNL     1      45.993  33.706  40.483  0.00  0.00    +0.000 A 
ATOM      7  H   UNL     1      49.533  35.034  39.914  0.00  0.00    +0.000 HD
ATOM      8  H   UNL     1      48.389  33.707  38.164  0.00  0.00    +0.000 HD
ATOM      9  H   UNL     1      46.112  32.837  38.495  0.00  0.00    +0.000 HD
ATOM     10  H   UNL     1      44.984  33.343  40.678  0.00  0.00    +0.000 HD
ENDROOT
BRANCH   1  13
ATOM     11  C   UNL     1      44.681  36.043  44.268  0.00  0.00    +0.000 A 
ATOM     12  C   UNL     1      45.230  35.839  42.994  0.00  0.00    +0.000 A 
ATOM     13  C   UNL     1      46.002  34.729  42.727  0.00  0.00    +0.000 A 
ATOM     14  N   UNL     1      46.164  33.903  43.765  0.00  0.00    +0.000 NA
ATOM     15  C   UNL     1      45.653  34.067  44.998  0.00  0.00    +0.000 A 
ATOM     16  N   UNL     1      44.904  35.151  45.247  0.00  0.00    +0.000 NA
ATOM     17  H   UNL     1      44.098  36.937  44.371  0.00  0.00    +0.000 HD
ATOM     18  H   UNL     1      45.058  36.549  42.198  0.00  0.00    +0.000 HD
ATOM     19  H   UNL     1      45.820  33.363  45.798  0.00  0.00    +0.000 HD
ENDBRANCH   1  13
BRANCH   2  20
ATOM     20  C   UNL     1      48.584  35.710  42.290  0.00  0.00    +0.000 C 
ATOM     21  H   UNL     1      48.374  35.260  43.295  0.00  0.00    +0.000 HD
ATOM     22  H   UNL     1      49.685  35.577  42.102  0.00  0.00    +0.000 HD
BRANCH  20  23
ATOM     23  C   UNL     1      48.290  37.129  42.384  0.00  0.00    +0.000 A 
ATOM     24  C   UNL     1      47.185  37.904  42.759  0.00  0.00    +0.000 A 
ATOM     25  H   UNL     1      46.380  37.211  43.056  0.00  0.00    +0.000 HD
ATOM     26  C   UNL     1      47.157  39.277  42.749  0.00  0.00    +0.000 A 
ATOM     27  H   UNL     1      46.212  39.691  43.072  0.00  0.00    +0.000 HD
ATOM     28  C   UNL     1      48.279  39.942  42.349  0.00  0.00    +0.000 A 
ATOM     29  C   UNL     1      49.363  39.177  41.982  0.00  0.00    +0.000 A 
ATOM     30  N   UNL     1      49.378  37.821  41.996  0.00  0.00    +0.000 NA
ENDBRANCH  20  23
ENDBRANCH   2  20
TORSDOF 3
