
     RDKit          3D

 32 34  0  0  0  0  0  0  0  0999 V2000
   46.6128   34.4315   41.4432 C   0  0  0  0  0  0  0  0  0  0  0  0
   47.8955   34.9214   41.2562 C   0  0  0  0  0  0  0  0  0  0  0  0
   48.5200   34.6402   40.0466 C   0  0  0  0  0  0  0  0  0  0  0  0
   47.8766   33.9078   39.0927 C   0  0  0  0  0  0  0  0  0  0  0  0
   46.6130   33.4161   39.2579 C   0  0  0  0  0  0  0  0  0  0  0  0
   45.9927   33.7062   40.4826 C   0  0  0  0  0  0  0  0  0  0  0  0
   44.6813   36.0429   44.2680 C   0  0  0  0  0  0  0  0  0  0  0  0
   45.2300   35.8386   42.9940 C   0  0  0  0  0  0  0  0  0  0  0  0
   46.0016   34.7291   42.7269 C   0  0  0  0  0  0  0  0  0  0  0  0
   46.1645   33.9028   43.7652 N   0  0  0  0  0  0  0  0  0  0  0  0
   45.6531   34.0671   44.9979 C   0  0  0  0  0  0  0  0  0  0  0  0
   44.9041   35.1510   45.2467 N   0  0  0  0  0  0  0  0  0  0  0  0
   48.5838   35.7101   42.2901 C   0  0  0  0  0  0  0  0  0  0  0  0
   49.5334   35.0339   39.9136 H   0  0  0  0  0  0  0  0  0  0  0  0
   48.3892   33.7069   38.1639 H   0  0  0  0  0  0  0  0  0  0  0  0
   46.1124   32.8365   38.4952 H   0  0  0  0  0  0  0  0  0  0  0  0
   44.9840   33.3433   40.6784 H   0  0  0  0  0  0  0  0  0  0  0  0
   44.0977   36.9371   44.3710 H   0  0  0  0  0  0  0  0  0  0  0  0
   45.0577   36.5489   42.1977 H   0  0  0  0  0  0  0  0  0  0  0  0
   45.8196   33.3634   45.7978 H   0  0  0  0  0  0  0  0  0  0  0  0
   48.3744   35.2597   43.2952 H   0  0  0  0  0  0  0  0  0  0  0  0
   49.6854   35.5767   42.1021 H   0  0  0  0  0  0  0  0  0  0  0  0
   48.2898   37.1293   42.3843 C   0  0  0  0  0  0  0  0  0  0  0  0
   47.1853   37.9040   42.7586 C   0  0  0  0  0  0  0  0  0  0  0  0
   46.3801   37.2108   43.0556 H   0  0  0  0  0  0  0  0  0  0  0  0
   47.1567   39.2766   42.7494 C   0  0  0  0  0  0  0  0  0  0  0  0
   46.2120   39.6914   43.0725 H   0  0  0  0  0  0  0  0  0  0  0  0
   48.2793   39.9418   42.3489 C   0  0  0  0  0  0  0  0  0  0  0  0
   49.3634   39.1772   41.9818 C   0  0  0  0  0  0  0  0  0  0  0  0
   49.3780   37.8209   41.9957 N   0  0  0  0  0  0  0  0  0  0  0  0
   48.2384   41.0061   42.3472 H   0  0  0  0  0  0  0  0  0  0  0  0
   50.2133   39.8097   41.6769 H   0  0  0  0  0  0  0  0  0  0  0  0
  1  9  1  0
  2  1  1  0
  2 13  1  0
  3  2  2  0
  4  5  2  0
  4  3  1  0
  5  6  1  0
  6  1  2  0
  7 12  2  0
  8  7  1  0
  9  8  2  0
  9 10  1  0
 10 11  2  0
 11 12  1  0
  3 14  1  0
  4 15  1  0
  5 16  1  0
  6 17  1  0
  7 18  1  0
  8 19  1  0
 11 20  1  0
 13 21  1  0
 13 22  1  0
 23 24  2  0
 24 25  1  0
 24 26  1  0
 26 27  1  0
 26 28  2  0
 28 29  1  0
 29 30  2  0
 30 23  1  0
 28 31  1  0
 29 32  1  0
 13 23  1  0
M  ISO  8  14  14  15  14  16  14  17  14  18  14  19  14  20  14  21   8
M  ISO  3  22   8  25  15  27  16
M  END
>  <DihAtoms>  (1) 
1,12,22,23

>  <DihDeg>  (1) 
113.43284096171053

$$$$
