REMARK  Name = 
REMARK  3 active torsions:
REMARK  status: ('A' for Active; 'I' for Inactive)
REMARK    1  A    between atoms: C_1  and  C_7
REMARK    2  A    between atoms: C_7  and  C_8
REMARK    3  A    between atoms: C_8  and  C_16
REMARK                            x       y       z     vdW  Elec       q    Type
REMARK                         _______ _______ _______ _____ _____    ______ ____
ROOT
ATOM      1  C   UNL     1      48.578  33.661  42.862  0.00  0.00    +0.000 C 
ATOM      2  H   UNL     1      48.380  33.047  41.947  0.00  0.00    +0.000 HD
ATOM      3  H   UNL     1      49.056  33.063  43.645  0.00  0.00    +0.000 HD
ENDROOT
BRANCH   1   4
ATOM      4  C   UNL     1      47.282  34.198  43.283  0.00  0.00    +0.000 A 
ATOM      5  C   UNL     1      46.618  35.181  42.561  0.00  0.00    +0.000 A 
ATOM      6  C   UNL     1      45.367  35.638  43.034  0.00  0.00    +0.000 A 
ATOM      7  N   UNL     1      44.886  35.080  44.181  0.00  0.00    +0.000 NA
ATOM      8  C   UNL     1      45.563  34.132  44.846  0.00  0.00    +0.000 A 
ATOM      9  N   UNL     1      46.740  33.695  44.411  0.00  0.00    +0.000 NA
ATOM     10  H   UNL     1      47.050  35.590  41.652  0.00  0.00    +0.000 HD
ATOM     11  H   UNL     1      44.823  36.401  42.497  0.00  0.00    +0.000 HD
ATOM     12  H   UNL     1      45.171  33.687  45.769  0.00  0.00    +0.000 HD
ENDBRANCH   1   4
BRANCH   1  13
ATOM     13  C   UNL     1      49.500  34.812  42.584  0.00  0.00    +0.000 C 
ATOM     14  H   UNL     1      49.640  35.380  43.527  0.00  0.00    +0.000 HD
ATOM     15  H   UNL     1      49.103  35.527  41.827  0.00  0.00    +0.000 HD
BRANCH  13  16
ATOM     16  C   UNL     1      50.852  34.406  42.147  0.00  0.00    +0.000 A 
ATOM     17  C   UNL     1      51.067  33.241  41.448  0.00  0.00    +0.000 A 
ATOM     18  H   UNL     1      50.227  32.600  41.209  0.00  0.00    +0.000 HD
ATOM     19  C   UNL     1      52.356  32.889  41.052  0.00  0.00    +0.000 A 
ATOM     20  H   UNL     1      52.505  31.976  40.507  0.00  0.00    +0.000 HD
ATOM     21  C   UNL     1      53.372  33.776  41.406  0.00  0.00    +0.000 A 
ATOM     22  C   UNL     1      53.111  34.938  42.109  0.00  0.00    +0.000 A 
ATOM     23  N   UNL     1      51.856  35.252  42.479  0.00  0.00    +0.000 NA
ENDBRANCH  13  16
ENDBRANCH   1  13
TORSDOF 3
