
 OpenBabel03252507223D

 46 49  0  0  1  0  0  0  0  0999 V2000
   46.8680   32.2500   44.1750 C   0  0  0  0  0  0  0  0  0  0  0  0
   48.1110   32.3470   44.3630 O   0  0  0  0  0  0  0  0  0  0  0  0
   46.2430   31.1000   43.6310 N   0  0  0  0  0  0  0  0  0  0  0  0
   45.0140   30.4000   44.0430 C   0  0  0  0  0  0  0  0  0  0  0  0
   44.0970   30.2420   42.8350 C   0  0  0  0  0  0  0  0  0  0  0  0
   44.7370   29.3400   41.8330 C   0  0  0  0  0  0  0  0  0  0  0  0
   46.2090   29.1890   42.1340 C   0  0  0  0  0  0  0  0  0  0  0  0
   46.8670   30.4700   42.5030 C   0  0  2  0  0  0  0  0  0  0  0  0
   45.2660   29.3770   44.3900 H   0  0  0  0  0  0  0  0  0  0  0  0
   44.4710   30.9740   44.8250 H   0  0  0  0  0  0  0  0  0  0  0  0
   43.1020   29.9400   43.1610 H   0  0  0  0  0  0  0  0  0  0  0  0
   44.0440   31.2730   42.3930 H   0  0  0  0  0  0  0  0  0  0  0  0
   44.5500   29.6780   40.8120 H   0  0  0  0  0  0  0  0  0  0  0  0
   44.2630   28.3370   41.9760 H   0  0  0  0  0  0  0  0  0  0  0  0
   46.4170   28.3540   42.8260 H   0  0  0  0  0  0  0  0  0  0  0  0
   46.6660   28.8790   41.1460 H   0  0  0  0  0  0  0  0  0  0  0  0
   46.6850   31.1750   41.6350 H   0  0  0  0  0  0  0  0  0  0  0  0
   45.6590   34.2690   43.5100 C   0  0  0  0  0  0  0  0  0  0  0  0
   46.0480   33.3820   44.5400 C   0  0  0  0  0  0  0  0  0  0  0  0
   45.6490   33.6050   45.8500 C   0  0  0  0  0  0  0  0  0  0  0  0
   44.8820   34.6940   46.0890 N   0  0  0  0  0  0  0  0  0  0  0  0
   44.4940   35.5620   45.1130 C   0  0  0  0  0  0  0  0  0  0  0  0
   44.8930   35.3290   43.8380 N   0  0  0  0  0  0  0  0  0  0  0  0
   45.9830   34.0720   42.4980 H   0  0  0  0  0  0  0  0  0  0  0  0
   43.8810   36.4230   45.3390 H   0  0  0  0  0  0  0  0  0  0  0  0
   46.0710   32.6830   46.8720 C   0  0  0  0  0  0  0  0  0  0  0  0
   45.2420   31.7070   47.3060 C   0  0  0  0  0  0  0  0  0  0  0  0
   45.6730   30.8350   48.2860 C   0  0  0  0  0  0  0  0  0  0  0  0
   46.9410   30.9160   48.8590 C   0  0  0  0  0  0  0  0  0  0  0  0
   47.7530   31.9360   48.3790 C   0  0  0  0  0  0  0  0  0  0  0  0
   47.3000   32.7620   47.4260 N   0  0  0  0  0  0  0  0  0  0  0  0
   44.2380   31.5150   46.9710 H   0  0  0  0  0  0  0  0  0  0  0  0
   45.0520   30.0320   48.6750 H   0  0  0  0  0  0  0  0  0  0  0  0
   47.2770   30.2340   49.6260 H   0  0  0  0  0  0  0  0  0  0  0  0
   48.7500   32.0790   48.7590 H   0  0  0  0  0  0  0  0  0  0  0  0
   48.3370   30.2910   42.6110 C   0  0  0  0  0  0  0  0  0  0  0  0
   48.8520   30.6350   43.5010 H   0  0  0  0  0  0  0  0  0  0  0  0
   48.5640   29.2040   42.5850 H   0  0  0  0  0  0  0  0  0  0  0  0
   49.0490   30.8140   41.3740 C   0  0  0  0  0  0  0  0  0  0  0  0
   48.4840   31.7860   40.5690 C   0  0  0  0  0  0  0  0  0  0  0  0
   47.5130   32.1820   40.8340 H   0  0  0  0  0  0  0  0  0  0  0  0
   49.2500   32.1490   39.4860 C   0  0  0  0  0  0  0  0  0  0  0  0
   48.8400   32.9150   38.8220 H   0  0  0  0  0  0  0  0  0  0  0  0
   50.4670   31.5510   39.2840 C   0  0  0  0  0  3  0  0  0  0  0  0
   50.9810   30.5780   40.1310 C   0  0  0  0  0  3  0  0  0  0  0  0
   50.2400   30.2120   41.2000 N   0  0  0  0  0  0  0  0  0  0  0  0
  1  2  2  0  0  0  0
  1 19  1  0  0  0  0
  3  4  1  0  0  0  0
  3  1  1  0  0  0  0
  4  9  1  0  0  0  0
  4 10  1  0  0  0  0
  5 11  1  0  0  0  0
  5  4  1  0  0  0  0
  6 14  1  0  0  0  0
  6  7  1  0  0  0  0
  6  5  1  0  0  0  0
  7  8  1  0  0  0  0
  7 15  1  0  0  0  0
  8 17  1  6  0  0  0
  8 36  1  0  0  0  0
  8  3  1  0  0  0  0
 12  5  1  0  0  0  0
 13  6  1  0  0  0  0
 16  7  1  0  0  0  0
 18 23  2  0  0  0  0
 18 19  1  0  0  0  0
 19 20  2  0  0  0  0
 20 21  1  0  0  0  0
 20 26  1  0  0  0  0
 22 25  1  0  0  0  0
 22 21  2  0  0  0  0
 23 22  1  0  0  0  0
 24 18  1  0  0  0  0
 26 27  2  0  0  0  0
 26 31  1  0  0  0  0
 27 28  1  0  0  0  0
 28 33  1  0  0  0  0
 28 29  2  0  0  0  0
 29 34  1  0  0  0  0
 30 35  1  0  0  0  0
 30 29  1  0  0  0  0
 31 30  2  0  0  0  0
 32 27  1  0  0  0  0
 36 37  1  0  0  0  0
 38 36  1  0  0  0  0
 39 36  1  0  0  0  0
 40 41  1  0  0  0  0
 40 39  2  0  0  0  0
 42 40  1  0  0  0  0
 43 42  1  0  0  0  0
 44 42  2  0  0  0  0
 44 45  1  0  0  0  0
 45 46  2  0  0  0  0
 46 39  1  0  0  0  0
M  END
>  <minimizedAffinity>
-4.5630846

>  <minimizedRMSD>
2.77387142

$$$$
