
 OpenBabel03252508433D

 30 32  0  0  0  0  0  0  0  0999 V2000
   45.1160   33.8560   42.7360 C   0  0  0  0  0  0  0  0  0  0  0  0
   46.2550   33.9570   41.9530 C   0  0  0  0  0  0  0  0  0  0  0  0
   47.4840   33.8290   42.5880 C   0  0  0  0  0  0  0  0  0  0  0  0
   47.5460   33.6110   43.9330 C   0  0  0  0  0  0  0  0  0  0  0  0
   46.4350   33.5090   44.7220 C   0  0  0  0  0  0  0  0  0  0  0  0
   45.2000   33.6400   44.0690 C   0  0  0  0  0  0  0  0  0  0  0  0
   48.3750   33.9110   41.9560 H   0  0  0  0  0  0  0  0  0  0  0  0
   48.5160   33.5160   44.3960 H   0  0  0  0  0  0  0  0  0  0  0  0
   46.4950   33.3360   45.7870 H   0  0  0  0  0  0  0  0  0  0  0  0
   44.2750   33.5680   44.6420 H   0  0  0  0  0  0  0  0  0  0  0  0
   41.9050   33.2360   40.8350 C   0  0  0  0  0  0  0  0  0  0  0  0
   43.1180   32.9850   41.4920 C   0  0  0  0  0  0  0  0  0  0  0  0
   43.8520   34.0150   42.0380 C   0  0  0  0  0  0  0  0  0  0  0  0
   43.3090   35.2260   41.8840 N   0  0  0  0  0  0  0  0  0  0  0  0
   42.1500   35.5030   41.2600 C   0  0  0  0  0  0  0  0  0  0  0  0
   41.4440   34.4930   40.7320 N   0  0  0  0  0  0  0  0  0  0  0  0
   41.4130   32.3660   40.4450 H   0  0  0  0  0  0  0  0  0  0  0  0
   43.4990   31.9780   41.5820 H   0  0  0  0  0  0  0  0  0  0  0  0
   41.7620   36.5060   41.1660 H   0  0  0  0  0  0  0  0  0  0  0  0
   46.1820   34.1920   40.5020 C   0  0  0  0  0  0  0  0  0  0  0  0
   45.1080   34.1670   40.1800 H   0  0  0  0  0  0  0  0  0  0  0  0
   46.5420   35.2450   40.3380 H   0  0  0  0  0  0  0  0  0  0  0  0
   46.9150   33.3000   39.6210 C   0  0  0  0  0  0  0  0  0  0  0  0
   46.9490   31.9190   39.3910 C   0  0  0  0  0  0  0  0  0  0  0  0
   46.2080   31.4530   40.0620 H   0  0  0  0  0  0  0  0  0  0  0  0
   47.7690   31.3010   38.4780 C   0  0  0  0  0  0  0  0  0  0  0  0
   47.6480   30.2270   38.4480 H   0  0  0  0  0  0  0  0  0  0  0  0
   48.6120   32.0790   37.7390 C   0  0  0  0  0  3  0  0  0  0  0  0
   48.5760   33.4360   37.9680 C   0  0  0  0  0  3  0  0  0  0  0  0
   47.7610   34.0330   38.8730 N   0  0  0  0  0  0  0  0  0  0  0  0
  1  6  1  0  0  0  0
  2  3  1  0  0  0  0
  2  1  2  0  0  0  0
  3  4  2  0  0  0  0
  4  8  1  0  0  0  0
  4  5  1  0  0  0  0
  5  9  1  0  0  0  0
  6 10  1  0  0  0  0
  6  5  2  0  0  0  0
  7  3  1  0  0  0  0
 11 12  1  0  0  0  0
 12 18  1  0  0  0  0
 12 13  2  0  0  0  0
 13  1  1  0  0  0  0
 14 13  1  0  0  0  0
 15 14  2  0  0  0  0
 16 11  2  0  0  0  0
 16 15  1  0  0  0  0
 17 11  1  0  0  0  0
 19 15  1  0  0  0  0
 20  2  1  0  0  0  0
 21 20  1  0  0  0  0
 22 20  1  0  0  0  0
 23 20  1  0  0  0  0
 24 23  1  0  0  0  0
 24 25  1  0  0  0  0
 26 24  2  0  0  0  0
 27 26  1  0  0  0  0
 28 29  2  0  0  0  0
 28 26  1  0  0  0  0
 29 30  1  0  0  0  0
 30 23  2  0  0  0  0
M  END
>  <minimizedAffinity>
-3.94377422

>  <minimizedRMSD>
5.30420065

$$$$
