
 OpenBabel03252502203D

 32 34  0  0  1  0  0  0  0  0999 V2000
   46.7790   34.5500   42.3140 N   0  0  0  0  0  0  0  0  0  0  0  0
   48.2260   34.5600   42.3290 C   0  0  0  0  0  0  0  0  0  0  0  0
   48.6470   35.3200   41.0750 C   0  0  0  0  0  0  0  0  0  0  0  0
   48.2270   34.5980   39.8390 C   0  0  0  0  0  0  0  0  0  0  0  0
   46.8980   33.9320   39.9340 C   0  0  0  0  0  0  0  0  0  0  0  0
   46.0560   34.2950   41.1020 C   0  0  1  0  0  0  0  0  0  0  0  0
   48.6470   33.5230   42.2900 H   0  0  0  0  0  0  0  0  0  0  0  0
   48.5660   35.1170   43.2170 H   0  0  0  0  0  0  0  0  0  0  0  0
   49.7300   35.4830   41.0380 H   0  0  0  0  0  0  0  0  0  0  0  0
   48.1050   36.3020   41.0970 H   0  0  0  0  0  0  0  0  0  0  0  0
   49.0000   33.8260   39.6330 H   0  0  0  0  0  0  0  0  0  0  0  0
   48.3150   35.3270   38.9880 H   0  0  0  0  0  0  0  0  0  0  0  0
   46.9850   32.8310   39.8320 H   0  0  0  0  0  0  0  0  0  0  0  0
   46.3240   34.2440   39.0140 H   0  0  0  0  0  0  0  0  0  0  0  0
   45.4320   35.2170   40.9210 H   0  0  0  0  0  0  0  0  0  0  0  0
   44.4460   36.0170   44.8400 C   0  0  0  0  0  0  0  0  0  0  0  0
   45.1400   35.8850   43.6350 C   0  0  0  0  0  0  0  0  0  0  0  0
   46.0130   34.7910   43.4980 C   0  0  0  0  0  0  0  0  0  0  0  0
   46.1350   33.9210   44.5430 N   0  0  0  0  0  0  0  0  0  0  0  0
   45.4410   34.0830   45.7040 C   0  0  0  0  0  0  0  0  0  0  0  0
   44.5960   35.1370   45.8450 N   0  0  0  0  0  0  0  0  0  0  0  0
   43.7820   36.8660   44.9190 H   0  0  0  0  0  0  0  0  0  0  0  0
   45.0600   36.5520   42.8060 H   0  0  0  0  0  0  0  0  0  0  0  0
   45.5150   33.4230   46.5380 H   0  0  0  0  0  0  0  0  0  0  0  0
   45.1500   33.1270   41.3800 C   0  0  0  0  0  0  0  0  0  0  0  0
   45.6290   31.8570   41.6060 C   0  0  0  0  0  0  0  0  0  0  0  0
   46.7150   31.7640   41.5670 H   0  0  0  0  0  0  0  0  0  0  0  0
   44.8200   30.7720   41.8630 C   0  0  0  0  0  0  0  0  0  0  0  0
   45.2240   29.7880   42.0350 H   0  0  0  0  0  0  0  0  0  0  0  0
   43.4610   30.9960   41.8890 C   0  0  0  0  0  0  0  0  0  0  0  0
   42.9600   32.2820   41.6610 C   0  0  0  0  0  0  0  0  0  0  0  0
   43.8190   33.3130   41.4130 N   0  0  0  0  0  0  0  0  0  0  0  0
  1  2  1  0  0  0  0
  1 18  1  0  0  0  0
  2  8  1  0  0  0  0
  3 10  1  0  0  0  0
  3  2  1  0  0  0  0
  4  5  1  0  0  0  0
  4  3  1  0  0  0  0
  5  6  1  0  0  0  0
  6 15  1  6  0  0  0
  6 25  1  0  0  0  0
  6  1  1  0  0  0  0
  7  2  1  0  0  0  0
  9  3  1  0  0  0  0
 11  4  1  0  0  0  0
 12  4  1  0  0  0  0
 13  5  1  0  0  0  0
 14  5  1  0  0  0  0
 16 22  1  0  0  0  0
 16 21  1  0  0  0  0
 17 16  2  0  0  0  0
 18 17  1  0  0  0  0
 18 19  2  0  0  0  0
 19 20  1  0  0  0  0
 20 21  2  0  0  0  0
 20 24  1  0  0  0  0
 23 17  1  0  0  0  0
 25 32  2  0  0  0  0
 25 26  1  0  0  0  0
 26 28  2  0  0  0  0
 27 26  1  0  0  0  0
 28 30  1  0  0  0  0
 28 29  1  0  0  0  0
 31 30  2  0  0  0  0
 32 31  1  0  0  0  0
M  END
>  <minimizedAffinity>
-5.0901351

>  <minimizedRMSD>
0.784122884

$$$$
