
 OpenBabel03252502583D

 21 22  0  0  0  0  0  0  0  0999 V2000
   43.4260   34.0500   40.8360 C   0  0  0  0  0  0  0  0  0  0  0  0
   43.9310   33.7440   39.9000 H   0  0  0  0  0  0  0  0  0  0  0  0
   43.3480   33.1590   41.4880 H   0  0  0  0  0  0  0  0  0  0  0  0
   42.0330   34.4860   40.5260 C   0  0  0  0  0  0  0  0  0  0  0  0
   41.5180   35.6810   40.9840 C   0  0  0  0  0  0  0  0  0  0  0  0
   42.1330   36.3470   41.5940 H   0  0  0  0  0  0  0  0  0  0  0  0
   40.2150   35.9800   40.6340 C   0  0  0  0  0  0  0  0  0  0  0  0
   39.7630   36.8960   40.9620 H   0  0  0  0  0  0  0  0  0  0  0  0
   39.4990   35.0870   39.8590 C   0  0  0  0  0  0  0  0  0  0  0  0
   40.0310   33.8850   39.4050 C   0  0  0  0  0  0  0  0  0  0  0  0
   41.3070   33.6200   39.7620 N   0  0  0  0  0  0  0  0  0  0  0  0
   44.2550   35.3940   41.6830 S   0  0  0  0  0  0  0  0  0  0  0  0
   44.3620   35.6920   44.4480 C   0  0  0  0  0  0  0  0  0  0  0  0
   44.6800   34.8650   43.3550 C   0  0  0  0  0  0  0  0  0  0  0  0
   45.3150   33.6570   43.5550 C   0  0  0  0  0  0  0  0  0  0  0  0
   45.6050   33.3230   44.8490 N   0  0  0  0  0  0  0  0  0  0  0  0
   45.2960   34.1190   45.8710 C   0  0  0  0  0  0  0  0  0  0  0  0
   44.6870   35.2840   45.7000 N   0  0  0  0  0  0  0  0  0  0  0  0
   43.8630   36.6350   44.2570 H   0  0  0  0  0  0  0  0  0  0  0  0
   45.5600   33.0190   42.7080 H   0  0  0  0  0  0  0  0  0  0  0  0
   45.5220   33.8650   46.9030 H   0  0  0  0  0  0  0  0  0  0  0  0
  1  3  1  0  0  0  0
  1 12  1  0  0  0  0
  2  1  1  0  0  0  0
  4  1  1  0  0  0  0
  4  5  1  0  0  0  0
  5  6  1  0  0  0  0
  7  8  1  0  0  0  0
  7  5  2  0  0  0  0
  9  7  1  0  0  0  0
 10 11  1  0  0  0  0
 10  9  2  0  0  0  0
 11  4  2  0  0  0  0
 12 14  1  0  0  0  0
 13 18  1  0  0  0  0
 14 15  1  0  0  0  0
 14 13  2  0  0  0  0
 15 16  2  0  0  0  0
 16 17  1  0  0  0  0
 17 21  1  0  0  0  0
 18 17  2  0  0  0  0
 19 13  1  0  0  0  0
 20 15  1  0  0  0  0
M  END
>  <minimizedAffinity>
-4.33320999

>  <minimizedRMSD>
2.24073863

$$$$
