
 OpenBabel03252509253D

 26 28  0  0  1  0  0  0  0  0999 V2000
   38.7070   29.2110   42.5170 C   0  0  1  0  0  0  0  0  0  0  0  0
   37.6980   28.9650   43.6710 C   0  0  0  0  0  0  0  0  0  0  0  0
   37.8640   28.0770   42.4150 C   0  0  2  0  0  0  0  0  0  0  0  0
   39.7560   29.1600   42.8560 H   0  0  0  0  0  0  0  0  0  0  0  0
   36.8170   29.5870   43.7580 H   0  0  0  0  0  0  0  0  0  0  0  0
   38.1010   28.5110   44.5950 H   0  0  0  0  0  0  0  0  0  0  0  0
   36.9470   28.0740   41.7910 H   0  0  0  0  0  0  0  0  0  0  0  0
   38.8240   32.6340   40.9900 C   0  0  0  0  0  0  0  0  0  0  0  0
   39.2070   31.5200   41.8020 C   0  0  0  0  0  0  0  0  0  0  0  0
   38.3380   30.4650   41.7650 C   0  0  0  0  0  0  0  0  0  0  0  0
   37.1730   30.4870   40.9960 N   0  0  0  0  0  0  0  0  0  0  0  0
   36.8780   31.5620   40.2630 C   0  0  0  0  0  0  0  0  0  0  0  0
   37.7020   32.6420   40.2540 N   0  0  0  0  0  0  0  0  0  0  0  0
   39.4710   33.4990   40.9760 H   0  0  0  0  0  0  0  0  0  0  0  0
   35.9470   31.4070   39.7350 H   0  0  0  0  0  0  0  0  0  0  0  0
   40.3730   31.5330   42.6030 N   0  0  0  0  0  0  0  0  0  0  0  0
   40.5220   32.4180   43.1710 H   0  0  0  0  0  0  0  0  0  0  0  0
   41.0470   30.7640   42.6590 H   0  0  0  0  0  0  0  0  0  0  0  0
   38.4800   26.7300   42.6390 C   0  0  0  0  0  0  0  0  0  0  0  0
   39.5570   26.6770   43.5000 C   0  0  0  0  0  0  0  0  0  0  0  0
   39.9390   27.5450   43.9830 H   0  0  0  0  0  0  0  0  0  0  0  0
   40.0980   25.4130   43.6800 C   0  0  0  0  0  0  0  0  0  0  0  0
   40.9560   25.3690   44.3650 H   0  0  0  0  0  0  0  0  0  0  0  0
   39.5830   24.2990   43.0400 C   0  0  0  0  0  3  0  0  0  0  0  0
   38.4910   24.4130   42.1810 C   0  0  0  0  0  3  0  0  0  0  0  0
   37.9730   25.6520   42.0130 N   0  0  0  0  0  0  0  0  0  0  0  0
  1  4  1  1  0  0  0
  1  2  1  0  0  0  0
  2  5  1  0  0  0  0
  2  6  1  0  0  0  0
  3  7  1  6  0  0  0
  3  1  1  0  0  0  0
  3 19  1  0  0  0  0
  3  2  1  0  0  0  0
  8  9  1  0  0  0  0
  9 16  1  0  0  0  0
 10  9  2  0  0  0  0
 10  1  1  0  0  0  0
 11 10  1  0  0  0  0
 12 11  2  0  0  0  0
 13 12  1  0  0  0  0
 13  8  2  0  0  0  0
 14  8  1  0  0  0  0
 15 12  1  0  0  0  0
 16 18  1  0  0  0  0
 16 17  1  0  0  0  0
 19 20  1  0  0  0  0
 20 22  2  0  0  0  0
 20 21  1  0  0  0  0
 22 23  1  0  0  0  0
 24 22  1  0  0  0  0
 25 24  2  0  0  0  0
 26 25  1  0  0  0  0
 26 19  2  0  0  0  0
M  END
>  <minimizedAffinity>
-4.95207787

$$$$

 OpenBabel03252509253D

 26 28  0  0  1  0  0  0  0  0999 V2000
   38.4510   31.3220   40.8380 C   0  0  1  0  0  0  0  0  0  0  0  0
   37.0370   31.2290   40.2020 C   0  0  0  0  0  0  0  0  0  0  0  0
   38.0310   30.0540   40.3640 C   0  0  2  0  0  0  0  0  0  0  0  0
   38.4160   31.6150   41.9020 H   0  0  0  0  0  0  0  0  0  0  0  0
   36.8630   31.6330   39.2140 H   0  0  0  0  0  0  0  0  0  0  0  0
   36.1810   31.1880   40.9000 H   0  0  0  0  0  0  0  0  0  0  0  0
   38.3530   29.6510   39.3820 H   0  0  0  0  0  0  0  0  0  0  0  0
   40.5080   34.1610   39.5100 C   0  0  0  0  0  0  0  0  0  0  0  0
   39.5700   33.4630   40.3340 C   0  0  0  0  0  0  0  0  0  0  0  0
   39.3550   32.1630   39.9710 C   0  0  0  0  0  0  0  0  0  0  0  0
   40.0000   31.5760   38.8810 N   0  0  0  0  0  0  0  0  0  0  0  0
   40.8650   32.2890   38.1560 C   0  0  0  0  0  0  0  0  0  0  0  0
   41.1240   33.5860   38.4660 N   0  0  0  0  0  0  0  0  0  0  0  0
   40.7230   35.1930   39.7470 H   0  0  0  0  0  0  0  0  0  0  0  0
   41.2680   31.6810   37.3580 H   0  0  0  0  0  0  0  0  0  0  0  0
   38.8980   34.0870   41.4100 N   0  0  0  0  0  0  0  0  0  0  0  0
   38.4960   35.0470   41.1980 H   0  0  0  0  0  0  0  0  0  0  0  0
   38.7850   33.6740   42.3420 H   0  0  0  0  0  0  0  0  0  0  0  0
   37.6640   29.0180   41.3820 C   0  0  0  0  0  0  0  0  0  0  0  0
   37.7310   29.3990   42.7060 C   0  0  0  0  0  0  0  0  0  0  0  0
   38.0300   30.3780   43.0000 H   0  0  0  0  0  0  0  0  0  0  0  0
   37.3840   28.4120   43.6150 C   0  0  0  0  0  0  0  0  0  0  0  0
   37.4370   28.7140   44.6710 H   0  0  0  0  0  0  0  0  0  0  0  0
   36.9980   27.1460   43.2100 C   0  0  0  0  0  3  0  0  0  0  0  0
   36.9470   26.8170   41.8560 C   0  0  0  0  0  3  0  0  0  0  0  0
   37.2900   27.7900   40.9790 N   0  0  0  0  0  0  0  0  0  0  0  0
  1  4  1  1  0  0  0
  2  3  1  0  0  0  0
  2  1  1  0  0  0  0
  2  6  1  0  0  0  0
  3  7  1  6  0  0  0
  3  1  1  0  0  0  0
  3 19  1  0  0  0  0
  5  2  1  0  0  0  0
  8 14  1  0  0  0  0
  8  9  1  0  0  0  0
  9 16  1  0  0  0  0
 10  9  2  0  0  0  0
 10  1  1  0  0  0  0
 11 10  1  0  0  0  0
 12 13  1  0  0  0  0
 12 11  2  0  0  0  0
 13  8  2  0  0  0  0
 15 12  1  0  0  0  0
 16 18  1  0  0  0  0
 17 16  1  0  0  0  0
 19 20  1  0  0  0  0
 20 21  1  0  0  0  0
 20 22  2  0  0  0  0
 22 23  1  0  0  0  0
 24 22  1  0  0  0  0
 25 24  2  0  0  0  0
 26 19  2  0  0  0  0
 26 25  1  0  0  0  0
M  END
>  <minimizedAffinity>
-4.84075069

$$$$

 OpenBabel03252509253D

 26 28  0  0  1  0  0  0  0  0999 V2000
   37.8580   29.3500   41.7920 C   0  0  1  0  0  0  0  0  0  0  0  0
   38.9840   29.9300   42.6910 C   0  0  0  0  0  0  0  0  0  0  0  0
   38.8670   30.1180   41.1600 C   0  0  2  0  0  0  0  0  0  0  0  0
   36.8630   29.7510   42.0520 H   0  0  0  0  0  0  0  0  0  0  0  0
   39.7530   29.2760   43.0800 H   0  0  0  0  0  0  0  0  0  0  0  0
   38.7380   30.8370   43.2720 H   0  0  0  0  0  0  0  0  0  0  0  0
   39.7190   29.6510   40.6240 H   0  0  0  0  0  0  0  0  0  0  0  0
   37.1860   25.7060   42.3630 C   0  0  0  0  0  0  0  0  0  0  0  0
   37.0920   27.1240   42.5310 C   0  0  0  0  0  0  0  0  0  0  0  0
   37.9510   27.8450   41.7500 C   0  0  0  0  0  0  0  0  0  0  0  0
   38.8460   27.2370   40.8690 N   0  0  0  0  0  0  0  0  0  0  0  0
   38.8800   25.9070   40.7640 C   0  0  0  0  0  0  0  0  0  0  0  0
   38.0500   25.1330   41.5110 N   0  0  0  0  0  0  0  0  0  0  0  0
   36.5310   25.0800   42.9520 H   0  0  0  0  0  0  0  0  0  0  0  0
   39.6260   25.6110   40.0400 H   0  0  0  0  0  0  0  0  0  0  0  0
   36.2050   27.7180   43.4580 N   0  0  0  0  0  0  0  0  0  0  0  0
   36.1920   27.2730   44.4220 H   0  0  0  0  0  0  0  0  0  0  0  0
   35.6020   28.5210   43.2520 H   0  0  0  0  0  0  0  0  0  0  0  0
   38.5040   31.4940   40.6920 C   0  0  0  0  0  0  0  0  0  0  0  0
   37.4640   31.5880   39.7920 C   0  0  0  0  0  0  0  0  0  0  0  0
   36.9400   30.7310   39.4400 H   0  0  0  0  0  0  0  0  0  0  0  0
   37.1600   32.8780   39.3850 C   0  0  0  0  0  0  0  0  0  0  0  0
   36.3300   32.9550   38.6680 H   0  0  0  0  0  0  0  0  0  0  0  0
   37.8550   33.9780   39.8580 C   0  0  0  0  0  3  0  0  0  0  0  0
   38.8990   33.8220   40.7680 C   0  0  0  0  0  3  0  0  0  0  0  0
   39.1860   32.5570   41.1570 N   0  0  0  0  0  0  0  0  0  0  0  0
  1  4  1  1  0  0  0
  1  2  1  0  0  0  0
  2  5  1  0  0  0  0
  2  6  1  0  0  0  0
  3  7  1  6  0  0  0
  3  1  1  0  0  0  0
  3  2  1  0  0  0  0
  8  9  1  0  0  0  0
  8 14  1  0  0  0  0
  9 16  1  0  0  0  0
 10  1  1  0  0  0  0
 10  9  2  0  0  0  0
 11 10  1  0  0  0  0
 12 11  2  0  0  0  0
 12 13  1  0  0  0  0
 13  8  2  0  0  0  0
 15 12  1  0  0  0  0
 16 17  1  0  0  0  0
 18 16  1  0  0  0  0
 19 26  1  0  0  0  0
 19  3  1  0  0  0  0
 20 19  2  0  0  0  0
 21 20  1  0  0  0  0
 22 20  1  0  0  0  0
 22 24  2  0  0  0  0
 23 22  1  0  0  0  0
 24 25  1  0  0  0  0
 25 26  2  0  0  0  0
M  END
>  <minimizedAffinity>
-4.75362301

$$$$

 OpenBabel03252509253D

 26 28  0  0  1  0  0  0  0  0999 V2000
   37.1240   28.6570   40.3820 C   0  0  1  0  0  0  0  0  0  0  0  0
   36.2940   28.0470   39.2200 C   0  0  0  0  0  0  0  0  0  0  0  0
   37.6910   27.5650   39.6790 C   0  0  2  0  0  0  0  0  0  0  0  0
   36.6200   28.5540   41.3590 H   0  0  0  0  0  0  0  0  0  0  0  0
   36.2080   28.5800   38.2830 H   0  0  0  0  0  0  0  0  0  0  0  0
   35.4720   27.3640   39.5010 H   0  0  0  0  0  0  0  0  0  0  0  0
   38.4540   27.7030   38.8850 H   0  0  0  0  0  0  0  0  0  0  0  0
   37.3880   32.3940   40.2480 C   0  0  0  0  0  0  0  0  0  0  0  0
   36.8550   31.1040   40.5600 C   0  0  0  0  0  0  0  0  0  0  0  0
   37.5580   30.0580   40.0300 C   0  0  0  0  0  0  0  0  0  0  0  0
   38.6980   30.2470   39.2470 N   0  0  0  0  0  0  0  0  0  0  0  0
   39.1380   31.4810   38.9960 C   0  0  0  0  0  0  0  0  0  0  0  0
   38.4860   32.5630   39.4960 N   0  0  0  0  0  0  0  0  0  0  0  0
   36.8770   33.2630   40.6400 H   0  0  0  0  0  0  0  0  0  0  0  0
   40.0260   31.4400   38.3800 H   0  0  0  0  0  0  0  0  0  0  0  0
   35.6770   30.9360   41.3230 N   0  0  0  0  0  0  0  0  0  0  0  0
   34.8670   31.5670   41.0500 H   0  0  0  0  0  0  0  0  0  0  0  0
   35.5730   30.2640   42.0900 H   0  0  0  0  0  0  0  0  0  0  0  0
   37.7340   26.2370   40.3720 C   0  0  0  0  0  0  0  0  0  0  0  0
   37.0190   26.1290   41.5470 C   0  0  0  0  0  0  0  0  0  0  0  0
   36.4640   26.9440   41.9500 H   0  0  0  0  0  0  0  0  0  0  0  0
   37.0840   24.8860   42.1560 C   0  0  0  0  0  0  0  0  0  0  0  0
   36.5150   24.7970   43.0920 H   0  0  0  0  0  0  0  0  0  0  0  0
   37.8130   23.8420   41.6120 C   0  0  0  0  0  3  0  0  0  0  0  0
   38.5160   24.0090   40.4200 C   0  0  0  0  0  3  0  0  0  0  0  0
   38.4450   25.2280   39.8360 N   0  0  0  0  0  0  0  0  0  0  0  0
  1  4  1  1  0  0  0
  2  6  1  0  0  0  0
  2  3  1  0  0  0  0
  2  1  1  0  0  0  0
  3  7  1  6  0  0  0
  3 19  1  0  0  0  0
  3  1  1  0  0  0  0
  5  2  1  0  0  0  0
  8  9  1  0  0  0  0
  8 14  1  0  0  0  0
  9 16  1  0  0  0  0
 10  1  1  0  0  0  0
 10  9  2  0  0  0  0
 11 10  1  0  0  0  0
 12 11  2  0  0  0  0
 12 13  1  0  0  0  0
 13  8  2  0  0  0  0
 15 12  1  0  0  0  0
 16 18  1  0  0  0  0
 17 16  1  0  0  0  0
 19 20  1  0  0  0  0
 20 21  1  0  0  0  0
 20 22  2  0  0  0  0
 22 23  1  0  0  0  0
 24 22  1  0  0  0  0
 25 24  2  0  0  0  0
 26 19  2  0  0  0  0
 26 25  1  0  0  0  0
M  END
>  <minimizedAffinity>
-4.70850515

$$$$

 OpenBabel03252509253D

 26 28  0  0  1  0  0  0  0  0999 V2000
   37.7100   28.8480   40.9300 C   0  0  1  0  0  0  0  0  0  0  0  0
   36.9660   27.7240   40.1580 C   0  0  0  0  0  0  0  0  0  0  0  0
   38.4760   27.7380   40.4960 C   0  0  2  0  0  0  0  0  0  0  0  0
   37.3410   28.9640   41.9640 H   0  0  0  0  0  0  0  0  0  0  0  0
   36.6590   27.8880   39.1340 H   0  0  0  0  0  0  0  0  0  0  0  0
   36.3800   27.0100   40.7630 H   0  0  0  0  0  0  0  0  0  0  0  0
   39.1000   27.7710   39.5790 H   0  0  0  0  0  0  0  0  0  0  0  0
   36.9520   32.2840   39.6350 C   0  0  0  0  0  0  0  0  0  0  0  0
   36.8060   31.0810   40.3960 C   0  0  0  0  0  0  0  0  0  0  0  0
   37.7290   30.1140   40.1120 C   0  0  0  0  0  0  0  0  0  0  0  0
   38.7260   30.2960   39.1510 N   0  0  0  0  0  0  0  0  0  0  0  0
   38.8020   31.4450   38.4780 C   0  0  0  0  0  0  0  0  0  0  0  0
   37.9160   32.4470   38.7160 N   0  0  0  0  0  0  0  0  0  0  0  0
   36.2520   33.0870   39.8150 H   0  0  0  0  0  0  0  0  0  0  0  0
   39.6280   31.4120   37.7810 H   0  0  0  0  0  0  0  0  0  0  0  0
   35.7650   30.9040   41.3370 N   0  0  0  0  0  0  0  0  0  0  0  0
   34.8010   31.2010   41.0070 H   0  0  0  0  0  0  0  0  0  0  0  0
   35.8930   30.5180   42.2780 H   0  0  0  0  0  0  0  0  0  0  0  0
   38.9260   26.7540   41.5330 C   0  0  0  0  0  0  0  0  0  0  0  0
   39.3290   27.2740   42.7450 C   0  0  0  0  0  0  0  0  0  0  0  0
   39.3260   28.3200   42.9430 H   0  0  0  0  0  0  0  0  0  0  0  0
   39.7380   26.3310   43.6760 C   0  0  0  0  0  0  0  0  0  0  0  0
   40.0590   26.7440   44.6430 H   0  0  0  0  0  0  0  0  0  0  0  0
   39.7330   24.9760   43.3960 C   0  0  0  0  0  3  0  0  0  0  0  0
   39.3140   24.5080   42.1520 C   0  0  0  0  0  3  0  0  0  0  0  0
   38.9190   25.4390   41.2510 N   0  0  0  0  0  0  0  0  0  0  0  0
  1  4  1  1  0  0  0
  2  3  1  0  0  0  0
  2  6  1  0  0  0  0
  2  1  1  0  0  0  0
  3  7  1  6  0  0  0
  3  1  1  0  0  0  0
  3 19  1  0  0  0  0
  5  2  1  0  0  0  0
  8 14  1  0  0  0  0
  8  9  1  0  0  0  0
  9 16  1  0  0  0  0
 10  9  2  0  0  0  0
 10  1  1  0  0  0  0
 11 10  1  0  0  0  0
 12 13  1  0  0  0  0
 12 11  2  0  0  0  0
 13  8  2  0  0  0  0
 15 12  1  0  0  0  0
 16 18  1  0  0  0  0
 17 16  1  0  0  0  0
 19 20  1  0  0  0  0
 20 21  1  0  0  0  0
 20 22  2  0  0  0  0
 22 23  1  0  0  0  0
 24 22  1  0  0  0  0
 25 24  2  0  0  0  0
 26 19  2  0  0  0  0
 26 25  1  0  0  0  0
M  END
>  <minimizedAffinity>
-4.65510798

$$$$

 OpenBabel03252509253D

 26 28  0  0  1  0  0  0  0  0999 V2000
   38.0180   27.9470   42.2100 C   0  0  1  0  0  0  0  0  0  0  0  0
   37.4660   28.6280   43.4920 C   0  0  0  0  0  0  0  0  0  0  0  0
   38.6610   29.1310   42.6470 C   0  0  2  0  0  0  0  0  0  0  0  0
   37.2760   27.9250   41.3920 H   0  0  0  0  0  0  0  0  0  0  0  0
   37.6600   28.1880   44.4610 H   0  0  0  0  0  0  0  0  0  0  0  0
   36.5510   29.2360   43.3770 H   0  0  0  0  0  0  0  0  0  0  0  0
   39.6080   29.1130   43.2250 H   0  0  0  0  0  0  0  0  0  0  0  0
   38.8030   24.2820   42.2820 C   0  0  0  0  0  0  0  0  0  0  0  0
   38.1060   25.4920   41.9720 C   0  0  0  0  0  0  0  0  0  0  0  0
   38.6310   26.6130   42.5540 C   0  0  0  0  0  0  0  0  0  0  0  0
   39.7520   26.5660   43.3840 N   0  0  0  0  0  0  0  0  0  0  0  0
   40.3510   25.4000   43.6310 C   0  0  0  0  0  0  0  0  0  0  0  0
   39.8810   24.2500   43.0810 N   0  0  0  0  0  0  0  0  0  0  0  0
   38.4370   23.3610   41.8510 H   0  0  0  0  0  0  0  0  0  0  0  0
   41.1970   25.5490   44.2880 H   0  0  0  0  0  0  0  0  0  0  0  0
   36.9490   25.5120   41.1590 N   0  0  0  0  0  0  0  0  0  0  0  0
   36.2260   24.7670   41.3820 H   0  0  0  0  0  0  0  0  0  0  0  0
   36.7840   26.1820   40.4010 H   0  0  0  0  0  0  0  0  0  0  0  0
   38.4260   30.3830   41.8580 C   0  0  0  0  0  0  0  0  0  0  0  0
   39.4650   31.2900   41.8120 C   0  0  0  0  0  0  0  0  0  0  0  0
   40.3890   31.1190   42.3110 H   0  0  0  0  0  0  0  0  0  0  0  0
   39.2070   32.4340   41.0720 C   0  0  0  0  0  0  0  0  0  0  0  0
   40.0330   33.1580   41.0340 H   0  0  0  0  0  0  0  0  0  0  0  0
   37.9970   32.6340   40.4320 C   0  0  0  0  0  3  0  0  0  0  0  0
   36.9830   31.6810   40.5120 C   0  0  0  0  0  3  0  0  0  0  0  0
   37.2460   30.5690   41.2390 N   0  0  0  0  0  0  0  0  0  0  0  0
  1  4  1  6  0  0  0
  1 10  1  0  0  0  0
  1  3  1  0  0  0  0
  1  2  1  0  0  0  0
  2  5  1  0  0  0  0
  3  7  1  1  0  0  0
  3  2  1  0  0  0  0
  6  2  1  0  0  0  0
  8 13  1  0  0  0  0
  9  8  2  0  0  0  0
  9 10  1  0  0  0  0
 10 11  2  0  0  0  0
 11 12  1  0  0  0  0
 12 15  1  0  0  0  0
 13 12  2  0  0  0  0
 14  8  1  0  0  0  0
 16 17  1  0  0  0  0
 16  9  1  0  0  0  0
 18 16  1  0  0  0  0
 19  3  1  0  0  0  0
 20 19  1  0  0  0  0
 20 21  1  0  0  0  0
 22 20  2  0  0  0  0
 23 22  1  0  0  0  0
 24 25  2  0  0  0  0
 24 22  1  0  0  0  0
 25 26  1  0  0  0  0
 26 19  2  0  0  0  0
M  END
>  <minimizedAffinity>
-4.59898567

$$$$

 OpenBabel03252509253D

 26 28  0  0  1  0  0  0  0  0999 V2000
   36.5610   29.4180   38.9750 C   0  0  1  0  0  0  0  0  0  0  0  0
   36.5130   30.8500   39.5740 C   0  0  0  0  0  0  0  0  0  0  0  0
   35.9210   29.5790   40.2300 C   0  0  2  0  0  0  0  0  0  0  0  0
   37.5940   29.0430   38.8640 H   0  0  0  0  0  0  0  0  0  0  0  0
   35.8370   31.5850   39.1570 H   0  0  0  0  0  0  0  0  0  0  0  0
   37.4340   31.2160   40.0620 H   0  0  0  0  0  0  0  0  0  0  0  0
   34.8180   29.6440   40.3280 H   0  0  0  0  0  0  0  0  0  0  0  0
   35.4820   29.2830   35.3870 C   0  0  0  0  0  0  0  0  0  0  0  0
   36.3440   29.4490   36.5170 C   0  0  0  0  0  0  0  0  0  0  0  0
   35.7170   29.3480   37.7280 C   0  0  0  0  0  0  0  0  0  0  0  0
   34.3460   29.1060   37.8390 N   0  0  0  0  0  0  0  0  0  0  0  0
   33.6030   28.9620   36.7410 C   0  0  0  0  0  0  0  0  0  0  0  0
   34.1660   29.0490   35.5080 N   0  0  0  0  0  0  0  0  0  0  0  0
   35.9190   29.3500   34.4010 H   0  0  0  0  0  0  0  0  0  0  0  0
   32.5720   28.7810   37.0120 H   0  0  0  0  0  0  0  0  0  0  0  0
   37.7230   29.7320   36.3820 N   0  0  0  0  0  0  0  0  0  0  0  0
   37.9630   30.4850   35.6740 H   0  0  0  0  0  0  0  0  0  0  0  0
   38.4650   29.2650   36.9120 H   0  0  0  0  0  0  0  0  0  0  0  0
   36.6360   29.0730   41.4460 C   0  0  0  0  0  0  0  0  0  0  0  0
   36.2240   27.8560   41.9450 C   0  0  0  0  0  0  0  0  0  0  0  0
   35.4360   27.2960   41.4960 H   0  0  0  0  0  0  0  0  0  0  0  0
   36.9100   27.4240   43.0700 C   0  0  0  0  0  0  0  0  0  0  0  0
   36.5830   26.4540   43.4690 H   0  0  0  0  0  0  0  0  0  0  0  0
   37.9310   28.1690   43.6340 C   0  0  0  0  0  3  0  0  0  0  0  0
   38.3060   29.3940   43.0850 C   0  0  0  0  0  3  0  0  0  0  0  0
   37.6270   29.8040   41.9880 N   0  0  0  0  0  0  0  0  0  0  0  0
  1  4  1  6  0  0  0
  1  2  1  0  0  0  0
  1  3  1  0  0  0  0
  2  6  1  0  0  0  0
  2  3  1  0  0  0  0
  3  7  1  1  0  0  0
  3 19  1  0  0  0  0
  5  2  1  0  0  0  0
  8 13  2  0  0  0  0
  8  9  1  0  0  0  0
  9 10  2  0  0  0  0
 10 11  1  0  0  0  0
 10  1  1  0  0  0  0
 12 15  1  0  0  0  0
 12 11  2  0  0  0  0
 13 12  1  0  0  0  0
 14  8  1  0  0  0  0
 16  9  1  0  0  0  0
 16 18  1  0  0  0  0
 17 16  1  0  0  0  0
 19 20  2  0  0  0  0
 19 26  1  0  0  0  0
 20 22  1  0  0  0  0
 21 20  1  0  0  0  0
 22 23  1  0  0  0  0
 22 24  2  0  0  0  0
 25 24  1  0  0  0  0
 26 25  2  0  0  0  0
M  END
>  <minimizedAffinity>
-4.58965015

$$$$

 OpenBabel03252509253D

 26 28  0  0  1  0  0  0  0  0999 V2000
   38.1390   29.1560   41.5500 C   0  0  1  0  0  0  0  0  0  0  0  0
   37.4360   28.9740   42.9230 C   0  0  0  0  0  0  0  0  0  0  0  0
   36.8800   28.5060   41.5560 C   0  0  2  0  0  0  0  0  0  0  0  0
   39.1000   28.6170   41.4940 H   0  0  0  0  0  0  0  0  0  0  0  0
   36.9780   29.8240   43.4100 H   0  0  0  0  0  0  0  0  0  0  0  0
   37.8010   28.1490   43.5610 H   0  0  0  0  0  0  0  0  0  0  0  0
   35.9390   29.0330   41.2950 H   0  0  0  0  0  0  0  0  0  0  0  0
   39.3620   32.6610   41.0230 C   0  0  0  0  0  0  0  0  0  0  0  0
   39.3520   31.3040   41.4770 C   0  0  0  0  0  0  0  0  0  0  0  0
   38.2030   30.6200   41.1910 C   0  0  0  0  0  0  0  0  0  0  0  0
   37.1340   31.2080   40.5140 N   0  0  0  0  0  0  0  0  0  0  0  0
   37.2130   32.4810   40.1200 C   0  0  0  0  0  0  0  0  0  0  0  0
   38.3280   33.2150   40.3710 N   0  0  0  0  0  0  0  0  0  0  0  0
   40.2440   33.2550   41.2180 H   0  0  0  0  0  0  0  0  0  0  0  0
   36.3020   32.7690   39.6140 H   0  0  0  0  0  0  0  0  0  0  0  0
   40.4310   30.7390   42.1950 N   0  0  0  0  0  0  0  0  0  0  0  0
   40.8200   31.3420   42.9770 H   0  0  0  0  0  0  0  0  0  0  0  0
   40.8340   29.8160   42.0050 H   0  0  0  0  0  0  0  0  0  0  0  0
   36.8600   27.0250   41.3270 C   0  0  0  0  0  0  0  0  0  0  0  0
   37.0860   26.2250   42.4270 C   0  0  0  0  0  0  0  0  0  0  0  0
   37.2680   26.6310   43.3950 H   0  0  0  0  0  0  0  0  0  0  0  0
   37.0590   24.8630   42.1720 C   0  0  0  0  0  0  0  0  0  0  0  0
   37.2390   24.2230   43.0480 H   0  0  0  0  0  0  0  0  0  0  0  0
   36.8200   24.3600   40.9050 C   0  0  0  0  0  3  0  0  0  0  0  0
   36.5970   25.2180   39.8300 C   0  0  0  0  0  3  0  0  0  0  0  0
   36.6260   26.5460   40.0920 N   0  0  0  0  0  0  0  0  0  0  0  0
  1  4  1  6  0  0  0
  1  3  1  0  0  0  0
  1  2  1  0  0  0  0
  2  5  1  0  0  0  0
  2  6  1  0  0  0  0
  3  7  1  6  0  0  0
  3  2  1  0  0  0  0
  8 14  1  0  0  0  0
  8  9  1  0  0  0  0
  9 16  1  0  0  0  0
 10  9  2  0  0  0  0
 10  1  1  0  0  0  0
 11 10  1  0  0  0  0
 12 13  1  0  0  0  0
 12 11  2  0  0  0  0
 13  8  2  0  0  0  0
 15 12  1  0  0  0  0
 16 17  1  0  0  0  0
 18 16  1  0  0  0  0
 19  3  1  0  0  0  0
 19 20  1  0  0  0  0
 20 21  1  0  0  0  0
 22 20  2  0  0  0  0
 22 23  1  0  0  0  0
 24 22  1  0  0  0  0
 25 26  1  0  0  0  0
 25 24  2  0  0  0  0
 26 19  2  0  0  0  0
M  END
>  <minimizedAffinity>
-4.58068991

$$$$

 OpenBabel03252509253D

 26 28  0  0  1  0  0  0  0  0999 V2000
   36.5550   30.6150   39.7880 C   0  0  1  0  0  0  0  0  0  0  0  0
   37.0790   31.4830   38.6120 C   0  0  0  0  0  0  0  0  0  0  0  0
   36.8630   29.9510   38.5740 C   0  0  2  0  0  0  0  0  0  0  0  0
   35.5280   30.8880   40.0870 H   0  0  0  0  0  0  0  0  0  0  0  0
   38.0900   31.8680   38.6350 H   0  0  0  0  0  0  0  0  0  0  0  0
   36.3240   32.0540   38.0410 H   0  0  0  0  0  0  0  0  0  0  0  0
   37.8170   29.4070   38.4220 H   0  0  0  0  0  0  0  0  0  0  0  0
   38.4700   29.6490   42.8630 C   0  0  0  0  0  0  0  0  0  0  0  0
   37.4210   29.6550   41.8900 C   0  0  0  0  0  0  0  0  0  0  0  0
   37.5640   30.5950   40.9080 C   0  0  0  0  0  0  0  0  0  0  0  0
   38.6480   31.4750   40.8710 N   0  0  0  0  0  0  0  0  0  0  0  0
   39.5900   31.4120   41.8140 C   0  0  0  0  0  0  0  0  0  0  0  0
   39.5070   30.4980   42.8150 N   0  0  0  0  0  0  0  0  0  0  0  0
   38.4150   28.9260   43.6640 H   0  0  0  0  0  0  0  0  0  0  0  0
   40.3480   32.1610   41.6300 H   0  0  0  0  0  0  0  0  0  0  0  0
   36.3120   28.7800   41.9670 N   0  0  0  0  0  0  0  0  0  0  0  0
   35.8670   28.6980   42.9270 H   0  0  0  0  0  0  0  0  0  0  0  0
   35.9370   28.2490   41.1760 H   0  0  0  0  0  0  0  0  0  0  0  0
   35.7190   29.4700   37.7350 C   0  0  0  0  0  0  0  0  0  0  0  0
   34.5930   29.0420   38.4080 C   0  0  0  0  0  0  0  0  0  0  0  0
   34.5320   29.0490   39.4720 H   0  0  0  0  0  0  0  0  0  0  0  0
   33.5590   28.6050   37.5960 C   0  0  0  0  0  0  0  0  0  0  0  0
   32.6610   28.2640   38.1310 H   0  0  0  0  0  0  0  0  0  0  0  0
   33.6620   28.6060   36.2160 C   0  0  0  0  0  3  0  0  0  0  0  0
   34.8250   29.0500   35.5890 C   0  0  0  0  0  3  0  0  0  0  0  0
   35.8280   29.4740   36.3940 N   0  0  0  0  0  0  0  0  0  0  0  0
  1  4  1  1  0  0  0
  1 10  1  0  0  0  0
  2  5  1  0  0  0  0
  2  1  1  0  0  0  0
  3  7  1  6  0  0  0
  3  2  1  0  0  0  0
  3  1  1  0  0  0  0
  6  2  1  0  0  0  0
  8 14  1  0  0  0  0
  9 16  1  0  0  0  0
  9  8  2  0  0  0  0
 10  9  1  0  0  0  0
 11 10  2  0  0  0  0
 11 12  1  0  0  0  0
 12 13  2  0  0  0  0
 13  8  1  0  0  0  0
 15 12  1  0  0  0  0
 16 17  1  0  0  0  0
 18 16  1  0  0  0  0
 19 20  1  0  0  0  0
 19  3  1  0  0  0  0
 20 21  1  0  0  0  0
 22 23  1  0  0  0  0
 22 20  2  0  0  0  0
 24 22  1  0  0  0  0
 25 24  2  0  0  0  0
 25 26  1  0  0  0  0
 26 19  2  0  0  0  0
M  END
>  <minimizedAffinity>
-4.45211172

$$$$
