
 OpenBabel03252509233D

 26 28  0  0  1  0  0  0  0  0999 V2000
   46.9650   34.7140   41.9530 C   0  0  1  0  0  0  0  0  0  0  0  0
   48.3010   35.5050   42.0090 C   0  0  0  0  0  0  0  0  0  0  0  0
   48.1570   34.0020   41.6680 C   0  0  2  0  0  0  0  0  0  0  0  0
   46.2830   35.0940   41.1720 H   0  0  0  0  0  0  0  0  0  0  0  0
   48.7200   35.7850   42.9660 H   0  0  0  0  0  0  0  0  0  0  0  0
   48.5390   36.1390   41.1360 H   0  0  0  0  0  0  0  0  0  0  0  0
   48.6590   33.3610   42.4220 H   0  0  0  0  0  0  0  0  0  0  0  0
   44.7650   35.2270   44.9450 C   0  0  0  0  0  0  0  0  0  0  0  0
   45.3340   35.4520   43.6520 C   0  0  0  0  0  0  0  0  0  0  0  0
   46.3650   34.6120   43.3330 C   0  0  0  0  0  0  0  0  0  0  0  0
   46.8190   33.6230   44.2070 N   0  0  0  0  0  0  0  0  0  0  0  0
   46.2400   33.4700   45.4000 C   0  0  0  0  0  0  0  0  0  0  0  0
   45.2090   34.2710   45.7760 N   0  0  0  0  0  0  0  0  0  0  0  0
   43.9450   35.8580   45.2560 H   0  0  0  0  0  0  0  0  0  0  0  0
   46.7140   32.6640   45.9410 H   0  0  0  0  0  0  0  0  0  0  0  0
   44.8850   36.4840   42.7970 N   0  0  0  0  0  0  0  0  0  0  0  0
   44.7460   37.4290   43.2620 H   0  0  0  0  0  0  0  0  0  0  0  0
   44.6960   36.3680   41.7970 H   0  0  0  0  0  0  0  0  0  0  0  0
   48.4170   33.6240   40.2420 C   0  0  0  0  0  0  0  0  0  0  0  0
   48.0220   34.5280   39.2790 C   0  0  0  0  0  0  0  0  0  0  0  0
   47.5530   35.4520   39.5270 H   0  0  0  0  0  0  0  0  0  0  0  0
   48.2810   34.1400   37.9730 C   0  0  0  0  0  0  0  0  0  0  0  0
   47.9670   34.8590   37.2050 H   0  0  0  0  0  0  0  0  0  0  0  0
   48.8920   32.9340   37.6760 C   0  0  0  0  0  3  0  0  0  0  0  0
   49.2710   32.0590   38.6920 C   0  0  0  0  0  3  0  0  0  0  0  0
   49.0110   32.4490   39.9630 N   0  0  0  0  0  0  0  0  0  0  0  0
  1  4  1  6  0  0  0
  1  2  1  0  0  0  0
  1 10  1  0  0  0  0
  2  5  1  0  0  0  0
  3  1  1  0  0  0  0
  3  2  1  0  0  0  0
  3  7  1  1  0  0  0
  6  2  1  0  0  0  0
  8 14  1  0  0  0  0
  8 13  1  0  0  0  0
  9  8  2  0  0  0  0
 10  9  1  0  0  0  0
 10 11  2  0  0  0  0
 11 12  1  0  0  0  0
 12 13  2  0  0  0  0
 12 15  1  0  0  0  0
 16 17  1  0  0  0  0
 16  9  1  0  0  0  0
 18 16  1  0  0  0  0
 19  3  1  0  0  0  0
 20 21  1  0  0  0  0
 20 19  2  0  0  0  0
 22 20  1  0  0  0  0
 23 22  1  0  0  0  0
 24 22  2  0  0  0  0
 24 25  1  0  0  0  0
 25 26  2  0  0  0  0
 26 19  1  0  0  0  0
M  END
>  <minimizedAffinity>
-5.00071192

>  <minimizedRMSD>
0.890270948

$$$$
