
 OpenBabel03252506043D

 42 46  0  0  0  0  0  0  0  0999 V2000
   44.8240   35.9940   43.3900 Cl  0  0  0  0  0  0  0  0  0  0  0  0
   45.5640   34.7390   44.3150 C   0  0  0  0  0  0  0  0  0  0  0  0
   46.6670   34.0770   43.8370 C   0  0  0  0  0  0  0  0  0  0  0  0
   47.1830   33.0920   44.6520 C   0  0  0  0  0  0  0  0  0  0  0  0
   46.6740   32.7410   45.8790 C   0  0  0  0  0  0  0  0  0  0  0  0
   45.5740   33.4190   46.3270 C   0  0  0  0  0  0  0  0  0  0  0  0
   44.9470   32.9490   47.8970 Cl  0  0  0  0  0  0  0  0  0  0  0  0
   45.0230   34.4090   45.5550 C   0  0  0  0  0  0  0  0  0  0  0  0
   48.0670   32.5710   44.2530 H   0  0  0  0  0  0  0  0  0  0  0  0
   44.1490   34.9170   45.9590 H   0  0  0  0  0  0  0  0  0  0  0  0
   47.3680   31.6600   46.5970 C   0  0  0  0  0  0  0  0  0  0  0  0
   47.4700   30.3810   46.1220 C   0  0  0  0  0  0  0  0  0  0  0  0
   48.1190   29.3700   46.7920 C   0  0  0  0  0  0  0  0  0  0  0  0
   48.7080   29.6290   48.0100 C   0  0  0  0  0  0  0  0  0  0  0  0
   49.3340   28.6290   48.6440 N   0  0  0  0  0  0  0  0  0  0  0  0
   49.9400   28.7950   49.8450 C   0  0  0  0  0  0  0  0  0  0  0  0
   49.8790   30.0620   50.3900 C   0  0  0  0  0  0  0  0  0  0  0  0
   49.2400   31.0890   49.7480 C   0  0  0  0  0  0  0  0  0  0  0  0
   48.6300   30.8890   48.5210 C   0  0  0  0  0  0  0  0  0  0  0  0
   47.9740   31.9010   47.8390 C   0  0  0  0  0  0  0  0  0  0  0  0
   47.0020   30.1960   45.1630 H   0  0  0  0  0  0  0  0  0  0  0  0
   48.1550   28.3830   46.3460 H   0  0  0  0  0  0  0  0  0  0  0  0
   50.4120   27.9190   50.2590 H   0  0  0  0  0  0  0  0  0  0  0  0
   50.3710   30.1790   51.3590 H   0  0  0  0  0  0  0  0  0  0  0  0
   49.2100   32.0720   50.2050 H   0  0  0  0  0  0  0  0  0  0  0  0
   47.9390   32.8970   48.2900 H   0  0  0  0  0  0  0  0  0  0  0  0
   48.8880   35.5430   41.3370 C   0  0  0  0  0  0  0  0  0  0  0  0
   48.4200   35.0190   40.1320 C   0  0  0  0  0  0  0  0  0  0  0  0
   47.3150   34.1430   40.1880 C   0  0  0  0  0  0  0  0  0  0  0  0
   46.7820   33.8650   41.3910 N   0  0  0  0  0  0  0  0  0  0  0  0
   47.2610   34.3920   42.5500 C   0  0  0  0  0  0  0  0  0  0  0  0
   48.3160   35.2320   42.5160 N   0  0  0  0  0  0  0  0  0  0  0  0
   49.7380   36.2160   41.2780 H   0  0  0  0  0  0  0  0  0  0  0  0
   48.8670   35.2610   39.2000 H   0  0  0  0  0  0  0  0  0  0  0  0
   46.8000   33.5750   38.9460 C   0  0  0  0  0  0  0  0  0  0  0  0
   47.6570   33.5350   37.8660 C   0  0  0  0  0  0  0  0  0  0  0  0
   48.6730   33.9020   37.9180 H   0  0  0  0  0  0  0  0  0  0  0  0
   47.1320   32.9850   36.6900 C   0  0  0  0  0  0  0  0  0  0  0  0
   47.7340   32.9150   35.7980 H   0  0  0  0  0  0  0  0  0  0  0  0
   45.8120   32.5370   36.7190 C   0  0  0  0  0  0  0  0  0  0  0  0
   44.9880   32.5970   37.8260 C   0  0  0  0  0  0  0  0  0  0  0  0
   45.5280   33.1350   38.9470 N   0  0  0  0  0  0  0  0  0  0  0  0
  1  2  1  0  0  0  0
  2  8  1  0  0  0  0
  3  2  2  0  0  0  0
  3  4  1  0  0  0  0
  4  5  2  0  0  0  0
  5  6  1  0  0  0  0
  5 11  1  0  0  0  0
  6  7  1  0  0  0  0
  8 10  1  0  0  0  0
  8  6  2  0  0  0  0
  9  4  1  0  0  0  0
 11 20  1  0  0  0  0
 12 11  2  0  0  0  0
 12 13  1  0  0  0  0
 13 14  2  0  0  0  0
 14 19  1  0  0  0  0
 14 15  1  0  0  0  0
 15 16  2  0  0  0  0
 16 23  1  0  0  0  0
 16 17  1  0  0  0  0
 17 24  1  0  0  0  0
 18 25  1  0  0  0  0
 18 17  2  0  0  0  0
 19 18  1  0  0  0  0
 20 26  1  0  0  0  0
 20 19  2  0  0  0  0
 21 12  1  0  0  0  0
 22 13  1  0  0  0  0
 27 32  1  0  0  0  0
 28 29  1  0  0  0  0
 28 27  2  0  0  0  0
 29 30  2  0  0  0  0
 30 31  1  0  0  0  0
 31  3  1  0  0  0  0
 32 31  2  0  0  0  0
 33 27  1  0  0  0  0
 34 28  1  0  0  0  0
 35 42  1  0  0  0  0
 35 29  1  0  0  0  0
 36 37  1  0  0  0  0
 36 35  2  0  0  0  0
 38 40  2  0  0  0  0
 38 36  1  0  0  0  0
 39 38  1  0  0  0  0
 40 41  1  0  0  0  0
 41 42  2  0  0  0  0
M  END
>  <minimizedAffinity>
-7.2242651

>  <minimizedRMSD>
0.178558767

$$$$
