
     RDKit          3D

 28 30  0  0  0  0  0  0  0  0999 V2000
   44.6264   35.4619   45.1272 C   0  0  0  0  0  0  0  0  0  0  0  0
   45.1004   35.7152   43.8006 C   0  0  0  0  0  0  0  0  0  0  0  0
   46.0414   34.8280   43.3573 C   0  0  0  0  0  0  0  0  0  0  0  0
   46.4968   33.7686   44.1444 N   0  0  0  0  0  0  0  0  0  0  0  0
   46.0098   33.5940   45.3745 C   0  0  0  0  0  0  0  0  0  0  0  0
   45.0713   34.4393   45.8728 N   0  0  0  0  0  0  0  0  0  0  0  0
   46.5311   34.9605   41.9371 C   0  0  1  0  0  0  0  0  0  0  0  0
   48.0501   35.2842   41.9236 C   0  0  0  0  0  0  0  0  0  0  0  0
   47.4025   33.9734   41.4157 C   0  0  2  0  0  0  0  0  0  0  0  0
   44.6531   36.8160   43.0346 N   0  0  0  0  0  0  0  0  0  0  0  0
   43.8791   36.1284   45.5350 H   0  0  0  0  0  0  0  0  0  0  0  0
   46.4711   32.7324   45.8361 H   0  0  0  0  0  0  0  0  0  0  0  0
   45.9484   35.6519   41.3026 H   0  0  0  0  0  0  0  0  0  0  0  0
   48.6119   35.2651   42.8482 H   0  0  0  0  0  0  0  0  0  0  0  0
   48.4100   35.9464   41.1162 H   0  0  0  0  0  0  0  0  0  0  0  0
   47.7297   33.0969   42.0127 H   0  0  0  0  0  0  0  0  0  0  0  0
   44.6179   37.7431   43.5524 H   0  0  0  0  0  0  0  0  0  0  0  0
   44.3747   36.7629   42.0502 H   0  0  0  0  0  0  0  0  0  0  0  0
   47.4142   33.7667   39.9320 C   0  0  0  0  0  0  0  0  0  0  0  0
   48.6300   33.4536   39.3605 C   0  0  0  0  0  0  0  0  0  0  0  0
   49.5208   33.3613   39.9369 H   0  0  0  0  0  0  0  0  0  0  0  0
   48.5977   33.2704   37.9859 C   0  0  0  0  0  0  0  0  0  0  0  0
   49.5650   33.0209   37.5292 H   0  0  0  0  0  0  0  0  0  0  0  0
   47.4274   33.3957   37.2583 C   0  0  0  0  0  0  0  0  0  0  0  0
   46.2267   33.7143   37.8904 C   0  0  0  0  0  0  0  0  0  0  0  0
   46.2718   33.8906   39.2330 N   0  0  0  0  0  0  0  0  0  0  0  0
   47.5351   33.2268   36.1834 H   0  0  0  0  0  0  0  0  0  0  0  0
   45.3433   33.7996   37.2729 H   0  0  0  0  0  0  0  0  0  0  0  0
  1  6  2  0
  2  1  1  0
  3  2  2  0
  3  4  1  0
  4  5  2  0
  5  6  1  0
  7  3  1  0
  8  7  1  0
  9  8  1  0
  9  7  1  0
 10  2  1  0
  1 11  1  0
  5 12  1  0
  7 13  1  6
  8 14  1  0
  8 15  1  0
  9 16  1  1
 10 17  1  0
 10 18  1  0
 19 20  2  0
 20 21  1  0
 20 22  1  0
 22 23  1  0
 22 24  2  0
 24 25  1  0
 25 26  2  0
 26 19  1  0
 24 27  1  0
 25 28  1  0
  9 19  1  0
M  ISO  8  11  14  12  14  13  13  14  13  15  13  16  13  21  15  23  16
M  END
>  <DihAtoms>  (1) 
7,8,18,19

>  <DihDeg>  (1) 
132.8169138109921

$$$$
