
 OpenBabel03242513333D

 20 21  0  0  0  0  0  0  0  0999 V2000
   45.0930   34.9250   44.8210 C   0  0  0  0  0  0  0  0  0  0  0  0
   45.9660   34.7360   43.7550 C   0  0  0  0  0  0  0  0  0  0  0  0
   46.9110   33.7340   43.8840 C   0  0  0  0  0  0  0  0  0  0  0  0
   46.9610   32.9840   45.0140 N   0  0  0  0  0  0  0  0  0  0  0  0
   46.0860   33.2060   46.0300 C   0  0  0  0  0  0  0  0  0  0  0  0
   45.1610   34.1700   45.9330 N   0  0  0  0  0  0  0  0  0  0  0  0
   44.3220   35.7000   44.7860 H   0  0  0  0  0  0  0  0  0  0  0  0
   47.5860   33.5930   43.0490 H   0  0  0  0  0  0  0  0  0  0  0  0
   46.1430   32.3980   47.2430 C   0  0  0  0  0  0  0  0  0  0  0  0
   45.0100   32.1020   47.9690 C   0  0  0  0  0  0  0  0  0  0  0  0
   44.0670   32.5010   47.5920 H   0  0  0  0  0  0  0  0  0  0  0  0
   44.9930   31.3380   49.1330 C   0  0  0  0  0  0  0  0  0  0  0  0
   44.1000   31.1200   49.6800 H   0  0  0  0  0  0  0  0  0  0  0  0
   46.2470   30.8850   49.5140 C   0  0  0  0  0  0  0  0  0  0  0  0
   47.4030   31.1610   48.8150 C   0  0  0  0  0  0  0  0  0  0  0  0
   47.3340   31.9100   47.6950 N   0  0  0  0  0  0  0  0  0  0  0  0
   45.8030   35.6270   42.5750 C   0  0  0  0  0  0  0  0  0  0  0  0
   45.3080   36.8310   43.0700 F   0  0  0  0  0  0  0  0  0  0  0  0
   44.9270   35.0580   41.7040 F   0  0  0  0  0  0  0  0  0  0  0  0
   47.0760   35.7930   41.9980 F   0  0  0  0  0  0  0  0  0  0  0  0
  1  6  1  0  0  0  0
  2  3  1  0  0  0  0
  2  1  2  0  0  0  0
  3  4  2  0  0  0  0
  4  5  1  0  0  0  0
  5  9  1  0  0  0  0
  6  5  2  0  0  0  0
  7  1  1  0  0  0  0
  8  3  1  0  0  0  0
  9 16  2  0  0  0  0
  9 10  1  0  0  0  0
 10 12  2  0  0  0  0
 11 10  1  0  0  0  0
 12 14  1  0  0  0  0
 12 13  1  0  0  0  0
 15 14  2  0  0  0  0
 16 15  1  0  0  0  0
 17 18  1  0  0  0  0
 17  2  1  0  0  0  0
 19 17  1  0  0  0  0
 20 17  1  0  0  0  0
M  END
>  <minimizedAffinity>
-5.25379419

>  <minimizedRMSD>
0.474416345

$$$$
