
 OpenBabel03252502343D

 39 41  0  0  1  0  0  0  0  0999 V2000
   48.0650   33.2950   42.3930 C   0  0  2  0  0  0  0  0  0  0  0  0
   48.7310   34.4010   43.2240 C   0  0  0  0  0  0  0  0  0  0  0  0
   49.8010   34.9720   42.3050 C   0  0  0  0  0  0  0  0  0  0  0  0
   49.0080   35.7340   41.2530 C   0  0  0  0  0  0  0  0  0  0  0  0
   48.1880   34.8040   40.4500 C   0  0  0  0  0  0  0  0  0  0  0  0
   47.3540   33.8080   41.2090 C   0  0  2  0  0  0  0  0  0  0  0  0
   48.9120   32.6510   42.0500 H   0  0  0  0  0  0  0  0  0  0  0  0
   48.0150   35.1900   43.5010 H   0  0  0  0  0  0  0  0  0  0  0  0
   49.2400   33.9320   44.0690 H   0  0  0  0  0  0  0  0  0  0  0  0
   50.3780   35.7520   42.8600 H   0  0  0  0  0  0  0  0  0  0  0  0
   50.4190   34.1830   41.8810 H   0  0  0  0  0  0  0  0  0  0  0  0
   48.4290   36.5100   41.7690 H   0  0  0  0  0  0  0  0  0  0  0  0
   49.7180   36.2400   40.5730 H   0  0  0  0  0  0  0  0  0  0  0  0
   47.4650   35.4260   39.8430 H   0  0  0  0  0  0  0  0  0  0  0  0
   48.8050   34.2980   39.6710 H   0  0  0  0  0  0  0  0  0  0  0  0
   47.2330   32.9160   40.5120 H   0  0  0  0  0  0  0  0  0  0  0  0
   45.9830   34.3280   41.3950 C   0  0  0  0  0  0  0  0  0  0  0  0
   44.9170   33.9150   40.5870 C   0  0  0  0  0  0  0  0  0  0  0  0
   45.0940   33.1570   39.8370 H   0  0  0  0  0  0  0  0  0  0  0  0
   43.6790   34.4990   40.7860 C   0  0  0  0  0  0  0  0  0  0  0  0
   42.8820   34.1490   40.1360 H   0  0  0  0  0  0  0  0  0  0  0  0
   43.4030   35.4600   41.7200 C   0  0  0  0  0  0  0  0  0  0  0  0
   44.5020   35.8210   42.4870 C   0  0  0  0  0  0  0  0  0  0  0  0
   45.7480   35.2840   42.3410 N   0  0  0  0  0  0  0  0  0  0  0  0
   46.2130   32.0730   45.4350 C   0  0  0  0  0  0  0  0  0  0  0  0
   46.9980   32.9330   44.6400 C   0  0  0  0  0  0  0  0  0  0  0  0
   47.2600   32.5020   43.3160 C   0  0  0  0  0  0  0  0  0  0  0  0
   46.7500   31.3100   42.9010 N   0  0  0  0  0  0  0  0  0  0  0  0
   46.0130   30.5330   43.6920 C   0  0  0  0  0  0  0  0  0  0  0  0
   45.7440   30.9140   44.9620 N   0  0  0  0  0  0  0  0  0  0  0  0
   47.3970   33.8800   44.9850 H   0  0  0  0  0  0  0  0  0  0  0  0
   45.9370   32.5300   46.8300 C   0  0  0  0  0  0  0  0  0  0  0  0
   47.1050   32.8200   47.5060 F   0  0  0  0  0  0  0  0  0  0  0  0
   45.0770   33.6240   46.7740 F   0  0  0  0  0  0  0  0  0  0  0  0
   45.2310   31.5470   47.5140 F   0  0  0  0  0  0  0  0  0  0  0  0
   45.4770   29.2370   43.2020 C   0  0  0  0  0  0  0  0  0  0  0  0
   45.6790   29.0880   41.8590 F   0  0  0  0  0  0  0  0  0  0  0  0
   44.1080   29.1210   43.5300 F   0  0  0  0  0  0  0  0  0  0  0  0
   46.0620   28.1820   43.8500 F   0  0  0  0  0  0  0  0  0  0  0  0
  1  7  1  6  0  0  0
  1  2  1  0  0  0  0
  1 27  1  0  0  0  0
  2  8  1  0  0  0  0
  2  9  1  0  0  0  0
  3 10  1  0  0  0  0
  3  2  1  0  0  0  0
  4 12  1  0  0  0  0
  4  3  1  0  0  0  0
  5  6  1  0  0  0  0
  5  4  1  0  0  0  0
  6 16  1  6  0  0  0
  6 17  1  0  0  0  0
  6  1  1  0  0  0  0
 11  3  1  0  0  0  0
 13  4  1  0  0  0  0
 14  5  1  0  0  0  0
 15  5  1  0  0  0  0
 17 24  1  0  0  0  0
 18 20  1  0  0  0  0
 18 17  2  0  0  0  0
 19 18  1  0  0  0  0
 20 22  2  0  0  0  0
 21 20  1  0  0  0  0
 22 23  1  0  0  0  0
 24 23  2  0  0  0  0
 25 32  1  0  0  0  0
 26 31  1  0  0  0  0
 26 25  2  0  0  0  0
 27 26  1  0  0  0  0
 28 27  2  0  0  0  0
 28 29  1  0  0  0  0
 29 30  2  0  0  0  0
 30 25  1  0  0  0  0
 32 33  1  0  0  0  0
 32 35  1  0  0  0  0
 34 32  1  0  0  0  0
 36 38  1  0  0  0  0
 36 29  1  0  0  0  0
 36 39  1  0  0  0  0
 37 36  1  0  0  0  0
M  END
>  <minimizedAffinity>
-5.91531944

>  <minimizedRMSD>
6.16794443

$$$$
