
 OpenBabel03242518013D

 36 38  0  0  0  0  0  0  0  0999 V2000
   46.2970   31.6960   45.6730 C   0  0  0  0  0  0  0  0  0  0  0  0
   46.1810   30.7330   45.0910 H   0  0  0  0  0  0  0  0  0  0  0  0
   45.2740   31.9820   45.9130 H   0  0  0  0  0  0  0  0  0  0  0  0
   47.4190   32.4020   47.7770 C   0  0  0  0  0  0  0  0  0  0  0  0
   47.1930   31.4140   46.7850 C   0  0  0  0  0  0  0  0  0  0  0  0
   47.8640   30.1970   46.9240 C   0  0  0  0  0  0  0  0  0  0  0  0
   48.6900   30.0320   47.9960 N   0  0  0  0  0  0  0  0  0  0  0  0
   48.8770   30.9870   48.9090 C   0  0  0  0  0  0  0  0  0  0  0  0
   48.2490   32.1630   48.8060 N   0  0  0  0  0  0  0  0  0  0  0  0
   46.9410   33.3540   47.7360 H   0  0  0  0  0  0  0  0  0  0  0  0
   47.7160   29.4300   46.1900 H   0  0  0  0  0  0  0  0  0  0  0  0
   49.7730   30.7740   50.0500 C   0  0  0  0  0  0  0  0  0  0  0  0
   50.5270   31.8460   50.5230 C   0  0  0  0  0  0  0  0  0  0  0  0
   50.4840   32.8410   50.0850 H   0  0  0  0  0  0  0  0  0  0  0  0
   51.3530   31.5980   51.5950 C   0  0  0  0  0  0  0  0  0  0  0  0
   51.9790   32.3970   52.0240 H   0  0  0  0  0  0  0  0  0  0  0  0
   51.4440   30.3490   52.1910 C   0  0  0  0  0  0  0  0  0  0  0  0
   50.6790   29.3230   51.6870 C   0  0  0  0  0  0  0  0  0  0  0  0
   49.8860   29.5770   50.6510 N   0  0  0  0  0  0  0  0  0  0  0  0
   47.0160   32.6410   44.7220 C   0  0  0  0  0  0  0  0  0  0  0  0
   47.9650   33.0270   45.2020 H   0  0  0  0  0  0  0  0  0  0  0  0
   47.4100   32.1120   43.8170 H   0  0  0  0  0  0  0  0  0  0  0  0
   46.5150   34.5140   43.2210 C   0  0  0  0  0  0  0  0  0  0  0  0
   46.2470   33.8570   44.4100 C   0  0  0  0  0  0  0  0  0  0  0  0
   45.3080   34.2760   45.3110 C   0  0  0  0  0  0  0  0  0  0  0  0
   44.5930   35.4130   45.0160 C   0  0  0  0  0  0  0  0  0  0  0  0
   44.7790   36.1300   43.8770 C   0  0  0  0  0  0  0  0  0  0  0  0
   45.7520   35.6440   43.0070 C   0  0  0  0  0  0  0  0  0  0  0  0
   45.0680   33.8130   46.2270 H   0  0  0  0  0  0  0  0  0  0  0  0
   43.8290   35.7990   45.6940 H   0  0  0  0  0  0  0  0  0  0  0  0
   44.2190   37.0220   43.6440 H   0  0  0  0  0  0  0  0  0  0  0  0
   45.9210   36.2060   42.0820 H   0  0  0  0  0  0  0  0  0  0  0  0
   47.6990   34.0180   42.0510 S   0  0  0  0  0  0  0  0  0  0  0  0
   49.0680   34.6060   42.3160 O   0  0  0  0  0  0  0  0  0  0  0  0
   47.3060   34.5860   40.6950 O   0  0  0  0  0  0  0  0  0  0  0  0
   47.7410   32.6630   41.8440 H   0  0  0  0  0  0  0  0  0  0  0  0
  1  3  1  0  0  0  0
  1  5  1  0  0  0  0
  2  1  1  0  0  0  0
  4  9  1  0  0  0  0
  5  6  1  0  0  0  0
  5  4  2  0  0  0  0
  6  7  2  0  0  0  0
  7  8  1  0  0  0  0
  8 12  1  0  0  0  0
  9  8  2  0  0  0  0
 10  4  1  0  0  0  0
 11  6  1  0  0  0  0
 12 13  2  0  0  0  0
 12 19  1  0  0  0  0
 13 15  1  0  0  0  0
 14 13  1  0  0  0  0
 15 16  1  0  0  0  0
 15 17  2  0  0  0  0
 18 17  1  0  0  0  0
 19 18  2  0  0  0  0
 20 21  1  0  0  0  0
 20  1  1  0  0  0  0
 22 20  1  0  0  0  0
 23 24  1  0  0  0  0
 24 20  1  0  0  0  0
 24 25  2  0  0  0  0
 25 29  1  0  0  0  0
 26 25  1  0  0  0  0
 26 30  1  0  0  0  0
 27 26  2  0  0  0  0
 28 23  2  0  0  0  0
 28 27  1  0  0  0  0
 31 27  1  0  0  0  0
 32 28  1  0  0  0  0
 33 34  2  0  0  0  0
 33 23  1  0  0  0  0
 35 33  2  0  0  0  0
 36 33  1  0  0  0  0
M  END
>  <minimizedAffinity>
-5.96362209

>  <minimizedRMSD>
0.368271202

$$$$
