
 OpenBabel03242516383D

 19 20  0  0  0  0  0  0  0  0999 V2000
   44.8920   35.0760   44.5270 C   0  0  0  0  0  0  0  0  0  0  0  0
   45.5140   35.1990   43.2700 C   0  0  0  0  0  0  0  0  0  0  0  0
   46.6320   34.3940   43.0060 C   0  0  0  0  0  0  0  0  0  0  0  0
   47.0470   33.5440   43.9760 N   0  0  0  0  0  0  0  0  0  0  0  0
   46.4340   33.4480   45.1660 C   0  0  0  0  0  0  0  0  0  0  0  0
   45.3660   34.2060   45.4420 N   0  0  0  0  0  0  0  0  0  0  0  0
   43.7510   35.8930   44.8060 N   0  0  0  0  0  0  0  0  0  0  0  0
   45.1190   35.9010   42.5530 H   0  0  0  0  0  0  0  0  0  0  0  0
   46.7660   32.7700   45.9390 H   0  0  0  0  0  0  0  0  0  0  0  0
   44.1140   36.8780   44.8610 H   0  0  0  0  0  0  0  0  0  0  0  0
   42.7560   35.5420   44.9280 H   0  0  0  0  0  0  0  0  0  0  0  0
   47.2880   34.5110   41.7060 C   0  0  0  0  0  0  0  0  0  0  0  0
   48.3280   35.4070   41.5730 C   0  0  0  0  0  0  0  0  0  0  0  0
   48.6930   36.0330   42.3710 H   0  0  0  0  0  0  0  0  0  0  0  0
   48.9100   35.4710   40.3080 C   0  0  0  0  0  0  0  0  0  0  0  0
   49.7300   36.1590   40.1520 H   0  0  0  0  0  0  0  0  0  0  0  0
   48.4190   34.6550   39.3090 C   0  0  0  0  0  0  0  0  0  0  0  0
   47.3840   33.7720   39.4650 C   0  0  0  0  0  0  0  0  0  0  0  0
   46.8440   33.7440   40.7200 N   0  0  0  0  0  0  0  0  0  0  0  0
  1  7  1  0  0  0  0
  1  6  1  0  0  0  0
  2  1  2  0  0  0  0
  3  2  1  0  0  0  0
  3  4  2  0  0  0  0
  4  5  1  0  0  0  0
  5  6  2  0  0  0  0
  5  9  1  0  0  0  0
  7 10  1  0  0  0  0
  7 11  1  0  0  0  0
  8  2  1  0  0  0  0
 12  3  1  0  0  0  0
 13 12  1  0  0  0  0
 13 14  1  0  0  0  0
 15 13  2  0  0  0  0
 16 15  1  0  0  0  0
 17 18  2  0  0  0  0
 17 15  1  0  0  0  0
 18 19  1  0  0  0  0
 19 12  2  0  0  0  0
M  END
>  <minimizedAffinity>
-4.66207695

>  <minimizedRMSD>
2.18500781

$$$$
