
 OpenBabel03252502223D

 32 34  0  0  1  0  0  0  0  0999 V2000
   38.6270   31.1600   40.7130 N   0  0  0  0  0  0  0  0  0  0  0  0
   39.8120   31.8510   40.2510 C   0  0  0  0  0  0  0  0  0  0  0  0
   39.6300   33.3070   40.6700 C   0  0  0  0  0  0  0  0  0  0  0  0
   38.4630   33.9270   39.9770 C   0  0  0  0  0  0  0  0  0  0  0  0
   37.2970   33.0180   39.8000 C   0  0  0  0  0  0  0  0  0  0  0  0
   37.3270   31.7430   40.5600 C   0  0  1  0  0  0  0  0  0  0  0  0
   39.9130   31.7980   39.1370 H   0  0  0  0  0  0  0  0  0  0  0  0
   40.6890   31.4350   40.7710 H   0  0  0  0  0  0  0  0  0  0  0  0
   40.5230   33.9080   40.4630 H   0  0  0  0  0  0  0  0  0  0  0  0
   39.4100   33.3000   41.7690 H   0  0  0  0  0  0  0  0  0  0  0  0
   38.8150   34.2570   38.9750 H   0  0  0  0  0  0  0  0  0  0  0  0
   38.2250   34.8780   40.5250 H   0  0  0  0  0  0  0  0  0  0  0  0
   37.0780   32.8370   38.7280 H   0  0  0  0  0  0  0  0  0  0  0  0
   36.3950   33.5900   40.1660 H   0  0  0  0  0  0  0  0  0  0  0  0
   36.9170   31.8490   41.6060 H   0  0  0  0  0  0  0  0  0  0  0  0
   39.2090   27.5290   41.3880 C   0  0  0  0  0  0  0  0  0  0  0  0
   39.1820   28.7300   40.6740 C   0  0  0  0  0  0  0  0  0  0  0  0
   38.7030   29.8740   41.3370 C   0  0  0  0  0  0  0  0  0  0  0  0
   38.2920   29.7520   42.6330 N   0  0  0  0  0  0  0  0  0  0  0  0
   38.3330   28.5630   43.2950 C   0  0  0  0  0  0  0  0  0  0  0  0
   38.7940   27.4520   42.6630 N   0  0  0  0  0  0  0  0  0  0  0  0
   39.5810   26.6650   40.8560 H   0  0  0  0  0  0  0  0  0  0  0  0
   39.4990   28.8480   39.6630 H   0  0  0  0  0  0  0  0  0  0  0  0
   38.0180   28.4340   44.3060 H   0  0  0  0  0  0  0  0  0  0  0  0
   36.4960   30.7480   39.7980 C   0  0  0  0  0  0  0  0  0  0  0  0
   36.6720   30.5140   38.4530 C   0  0  0  0  0  0  0  0  0  0  0  0
   37.4590   31.1060   37.9850 H   0  0  0  0  0  0  0  0  0  0  0  0
   35.9250   29.6080   37.7330 C   0  0  0  0  0  0  0  0  0  0  0  0
   36.0850   29.4470   36.6800 H   0  0  0  0  0  0  0  0  0  0  0  0
   34.9550   28.9110   38.4180 C   0  0  0  0  0  3  0  0  0  0  0  0
   34.7650   29.1390   39.7850 C   0  0  0  0  0  3  0  0  0  0  0  0
   35.5410   30.0510   40.4380 N   0  0  0  0  0  0  0  0  0  0  0  0
  1 18  1  0  0  0  0
  2  3  1  0  0  0  0
  2  1  1  0  0  0  0
  2  8  1  0  0  0  0
  3 10  1  0  0  0  0
  4 12  1  0  0  0  0
  4  3  1  0  0  0  0
  5  4  1  0  0  0  0
  5 14  1  0  0  0  0
  5  6  1  0  0  0  0
  6  1  1  0  0  0  0
  6 15  1  1  0  0  0
  7  2  1  0  0  0  0
  9  3  1  0  0  0  0
 11  4  1  0  0  0  0
 13  5  1  0  0  0  0
 16 21  1  0  0  0  0
 17 18  1  0  0  0  0
 17 16  2  0  0  0  0
 18 19  2  0  0  0  0
 19 20  1  0  0  0  0
 20 24  1  0  0  0  0
 21 20  2  0  0  0  0
 22 16  1  0  0  0  0
 23 17  1  0  0  0  0
 25 32  1  0  0  0  0
 25  6  1  0  0  0  0
 26 25  2  0  0  0  0
 27 26  1  0  0  0  0
 28 30  2  0  0  0  0
 28 26  1  0  0  0  0
 29 28  1  0  0  0  0
 30 31  1  0  0  0  0
 31 32  2  0  0  0  0
M  END
>  <minimizedAffinity>
-5.01817465

$$$$

 OpenBabel03252502223D

 32 34  0  0  1  0  0  0  0  0999 V2000
   36.5900   28.3590   40.9640 N   0  0  0  0  0  0  0  0  0  0  0  0
   37.1020   27.0830   41.4150 C   0  0  0  0  0  0  0  0  0  0  0  0
   36.8880   27.0630   42.9260 C   0  0  0  0  0  0  0  0  0  0  0  0
   37.6940   28.1230   43.6000 C   0  0  0  0  0  0  0  0  0  0  0  0
   37.7850   29.4030   42.8450 C   0  0  0  0  0  0  0  0  0  0  0  0
   36.8600   29.5620   41.6940 C   0  0  1  0  0  0  0  0  0  0  0  0
   38.1960   26.9760   41.1970 H   0  0  0  0  0  0  0  0  0  0  0  0
   36.5040   26.2790   40.9570 H   0  0  0  0  0  0  0  0  0  0  0  0
   37.1450   26.0920   43.3640 H   0  0  0  0  0  0  0  0  0  0  0  0
   35.8050   27.2960   43.1000 H   0  0  0  0  0  0  0  0  0  0  0  0
   38.7190   27.7150   43.7380 H   0  0  0  0  0  0  0  0  0  0  0  0
   37.2860   28.2310   44.6410 H   0  0  0  0  0  0  0  0  0  0  0  0
   38.8300   29.6310   42.5510 H   0  0  0  0  0  0  0  0  0  0  0  0
   37.5270   30.2190   43.5800 H   0  0  0  0  0  0  0  0  0  0  0  0
   35.8520   29.9670   41.9970 H   0  0  0  0  0  0  0  0  0  0  0  0
   33.8210   29.0690   38.5530 C   0  0  0  0  0  0  0  0  0  0  0  0
   34.4980   29.0090   39.7750 C   0  0  0  0  0  0  0  0  0  0  0  0
   35.7980   28.4730   39.7770 C   0  0  0  0  0  0  0  0  0  0  0  0
   36.3270   28.0420   38.5950 N   0  0  0  0  0  0  0  0  0  0  0  0
   35.6360   28.1160   37.4240 C   0  0  0  0  0  0  0  0  0  0  0  0
   34.3790   28.6320   37.4120 N   0  0  0  0  0  0  0  0  0  0  0  0
   32.8240   29.4840   38.5790 H   0  0  0  0  0  0  0  0  0  0  0  0
   34.1040   29.3400   40.7090 H   0  0  0  0  0  0  0  0  0  0  0  0
   36.0200   27.7880   36.4850 H   0  0  0  0  0  0  0  0  0  0  0  0
   37.5090   30.5150   40.7280 C   0  0  0  0  0  0  0  0  0  0  0  0
   36.9370   31.7170   40.3790 C   0  0  0  0  0  0  0  0  0  0  0  0
   35.9790   31.9240   40.8570 H   0  0  0  0  0  0  0  0  0  0  0  0
   37.5100   32.6060   39.4970 C   0  0  0  0  0  0  0  0  0  0  0  0
   37.0380   33.5410   39.2420 H   0  0  0  0  0  0  0  0  0  0  0  0
   38.7220   32.2490   38.9470 C   0  0  0  0  0  3  0  0  0  0  0  0
   39.3140   31.0310   39.2930 C   0  0  0  0  0  3  0  0  0  0  0  0
   38.6920   30.1970   40.1740 N   0  0  0  0  0  0  0  0  0  0  0  0
  1  2  1  0  0  0  0
  1  6  1  0  0  0  0
  2  3  1  0  0  0  0
  3 10  1  0  0  0  0
  3  9  1  0  0  0  0
  3  4  1  0  0  0  0
  4 11  1  0  0  0  0
  4 12  1  0  0  0  0
  5 14  1  0  0  0  0
  5  4  1  0  0  0  0
  6 15  1  1  0  0  0
  6  5  1  0  0  0  0
  7  2  1  0  0  0  0
  8  2  1  0  0  0  0
 13  5  1  0  0  0  0
 16 22  1  0  0  0  0
 16 17  1  0  0  0  0
 17 18  2  0  0  0  0
 17 23  1  0  0  0  0
 18  1  1  0  0  0  0
 19 18  1  0  0  0  0
 20 19  2  0  0  0  0
 21 20  1  0  0  0  0
 21 16  2  0  0  0  0
 24 20  1  0  0  0  0
 25  6  1  0  0  0  0
 26 25  1  0  0  0  0
 26 27  1  0  0  0  0
 28 26  2  0  0  0  0
 29 28  1  0  0  0  0
 30 31  2  0  0  0  0
 30 28  1  0  0  0  0
 31 32  1  0  0  0  0
 32 25  2  0  0  0  0
M  END
>  <minimizedAffinity>
-4.91857004

$$$$

 OpenBabel03252502223D

 32 34  0  0  1  0  0  0  0  0999 V2000
   36.6800   28.3400   40.9190 N   0  0  0  0  0  0  0  0  0  0  0  0
   37.2290   27.0640   41.3230 C   0  0  0  0  0  0  0  0  0  0  0  0
   37.0260   26.9860   42.8330 C   0  0  0  0  0  0  0  0  0  0  0  0
   37.8080   28.0430   43.5390 C   0  0  0  0  0  0  0  0  0  0  0  0
   37.8600   29.3510   42.8280 C   0  0  0  0  0  0  0  0  0  0  0  0
   36.9240   29.5250   41.6890 C   0  0  1  0  0  0  0  0  0  0  0  0
   38.3240   26.9940   41.0940 H   0  0  0  0  0  0  0  0  0  0  0  0
   36.6490   26.2610   40.8410 H   0  0  0  0  0  0  0  0  0  0  0  0
   37.3120   26.0080   43.2360 H   0  0  0  0  0  0  0  0  0  0  0  0
   35.9380   27.1840   43.0220 H   0  0  0  0  0  0  0  0  0  0  0  0
   38.8450   27.6590   43.6570 H   0  0  0  0  0  0  0  0  0  0  0  0
   37.4050   28.1050   44.5860 H   0  0  0  0  0  0  0  0  0  0  0  0
   38.8960   29.6160   42.5350 H   0  0  0  0  0  0  0  0  0  0  0  0
   37.5860   30.1340   43.5920 H   0  0  0  0  0  0  0  0  0  0  0  0
   35.9070   29.8910   42.0120 H   0  0  0  0  0  0  0  0  0  0  0  0
   35.4370   28.2430   37.3940 C   0  0  0  0  0  0  0  0  0  0  0  0
   36.3110   28.0620   38.4690 C   0  0  0  0  0  0  0  0  0  0  0  0
   35.8770   28.4730   39.7420 C   0  0  0  0  0  0  0  0  0  0  0  0
   34.6330   29.0240   39.8590 N   0  0  0  0  0  0  0  0  0  0  0  0
   33.8100   29.1850   38.7870 C   0  0  0  0  0  0  0  0  0  0  0  0
   34.2210   28.7910   37.5530 N   0  0  0  0  0  0  0  0  0  0  0  0
   35.7950   27.9200   36.4270 H   0  0  0  0  0  0  0  0  0  0  0  0
   37.2850   27.6340   38.4010 H   0  0  0  0  0  0  0  0  0  0  0  0
   32.8340   29.6120   38.8450 H   0  0  0  0  0  0  0  0  0  0  0  0
   37.5400   30.5270   40.7520 C   0  0  0  0  0  0  0  0  0  0  0  0
   36.9290   31.7210   40.4420 C   0  0  0  0  0  0  0  0  0  0  0  0
   35.9660   31.8820   40.9270 H   0  0  0  0  0  0  0  0  0  0  0  0
   37.4720   32.6550   39.5870 C   0  0  0  0  0  0  0  0  0  0  0  0
   36.9710   33.5810   39.3620 H   0  0  0  0  0  0  0  0  0  0  0  0
   38.6940   32.3540   39.0250 C   0  0  0  0  0  3  0  0  0  0  0  0
   39.3250   31.1440   39.3320 C   0  0  0  0  0  3  0  0  0  0  0  0
   38.7310   30.2640   40.1870 N   0  0  0  0  0  0  0  0  0  0  0  0
  1  2  1  0  0  0  0
  1  6  1  0  0  0  0
  2  3  1  0  0  0  0
  3 10  1  0  0  0  0
  3  9  1  0  0  0  0
  3  4  1  0  0  0  0
  4 11  1  0  0  0  0
  4 12  1  0  0  0  0
  5  4  1  0  0  0  0
  5 14  1  0  0  0  0
  6 15  1  1  0  0  0
  6  5  1  0  0  0  0
  7  2  1  0  0  0  0
  8  2  1  0  0  0  0
 13  5  1  0  0  0  0
 16 21  2  0  0  0  0
 16 17  1  0  0  0  0
 17 18  2  0  0  0  0
 18 19  1  0  0  0  0
 18  1  1  0  0  0  0
 20 24  1  0  0  0  0
 20 19  2  0  0  0  0
 21 20  1  0  0  0  0
 22 16  1  0  0  0  0
 23 17  1  0  0  0  0
 25  6  1  0  0  0  0
 26 25  1  0  0  0  0
 26 27  1  0  0  0  0
 28 26  2  0  0  0  0
 29 28  1  0  0  0  0
 30 31  2  0  0  0  0
 30 28  1  0  0  0  0
 31 32  1  0  0  0  0
 32 25  2  0  0  0  0
M  END
>  <minimizedAffinity>
-4.82178736

$$$$

 OpenBabel03252502223D

 32 34  0  0  1  0  0  0  0  0999 V2000
   37.6550   29.3290   41.3410 N   0  0  0  0  0  0  0  0  0  0  0  0
   37.4240   29.2530   42.7680 C   0  0  0  0  0  0  0  0  0  0  0  0
   38.1160   27.9740   43.2300 C   0  0  0  0  0  0  0  0  0  0  0  0
   37.4870   26.7670   42.6190 C   0  0  0  0  0  0  0  0  0  0  0  0
   37.0510   26.9470   41.2070 C   0  0  0  0  0  0  0  0  0  0  0  0
   37.5360   28.1660   40.5120 C   0  0  1  0  0  0  0  0  0  0  0  0
   36.3320   29.1880   43.0070 H   0  0  0  0  0  0  0  0  0  0  0  0
   37.9070   30.1170   43.2510 H   0  0  0  0  0  0  0  0  0  0  0  0
   38.0970   27.8680   44.3210 H   0  0  0  0  0  0  0  0  0  0  0  0
   39.1750   28.0310   42.8620 H   0  0  0  0  0  0  0  0  0  0  0  0
   36.5990   26.5130   43.2390 H   0  0  0  0  0  0  0  0  0  0  0  0
   38.2000   25.9120   42.7740 H   0  0  0  0  0  0  0  0  0  0  0  0
   35.9520   26.8400   41.1020 H   0  0  0  0  0  0  0  0  0  0  0  0
   37.4640   26.0660   40.6370 H   0  0  0  0  0  0  0  0  0  0  0  0
   38.5510   28.0240   40.0400 H   0  0  0  0  0  0  0  0  0  0  0  0
   37.5920   32.8080   39.9730 C   0  0  0  0  0  0  0  0  0  0  0  0
   37.1340   31.6590   40.6220 C   0  0  0  0  0  0  0  0  0  0  0  0
   38.0080   30.5600   40.7020 C   0  0  0  0  0  0  0  0  0  0  0  0
   39.2490   30.6740   40.1450 N   0  0  0  0  0  0  0  0  0  0  0  0
   39.6600   31.8120   39.5190 C   0  0  0  0  0  0  0  0  0  0  0  0
   38.8220   32.8780   39.4370 N   0  0  0  0  0  0  0  0  0  0  0  0
   36.9000   33.6370   39.9250 H   0  0  0  0  0  0  0  0  0  0  0  0
   36.1700   31.5490   41.0650 H   0  0  0  0  0  0  0  0  0  0  0  0
   40.6210   31.9310   39.0740 H   0  0  0  0  0  0  0  0  0  0  0  0
   36.5330   28.5010   39.4430 C   0  0  0  0  0  0  0  0  0  0  0  0
   35.1930   28.6610   39.7100 C   0  0  0  0  0  0  0  0  0  0  0  0
   34.9150   28.5250   40.7560 H   0  0  0  0  0  0  0  0  0  0  0  0
   34.2550   28.9680   38.7490 C   0  0  0  0  0  0  0  0  0  0  0  0
   33.2110   29.0860   38.9890 H   0  0  0  0  0  0  0  0  0  0  0  0
   34.7080   29.1170   37.4570 C   0  0  0  0  0  3  0  0  0  0  0  0
   36.0680   28.9580   37.1710 C   0  0  0  0  0  3  0  0  0  0  0  0
   36.9440   28.6540   38.1720 N   0  0  0  0  0  0  0  0  0  0  0  0
  1  2  1  0  0  0  0
  2  7  1  0  0  0  0
  2  3  1  0  0  0  0
  2  8  1  0  0  0  0
  3  9  1  0  0  0  0
  4 12  1  0  0  0  0
  4  3  1  0  0  0  0
  4 11  1  0  0  0  0
  5  4  1  0  0  0  0
  6 15  1  6  0  0  0
  6  5  1  0  0  0  0
  6  1  1  0  0  0  0
 10  3  1  0  0  0  0
 13  5  1  0  0  0  0
 14  5  1  0  0  0  0
 16 17  1  0  0  0  0
 17 18  2  0  0  0  0
 17 23  1  0  0  0  0
 18  1  1  0  0  0  0
 19 18  1  0  0  0  0
 20 19  2  0  0  0  0
 21 20  1  0  0  0  0
 21 16  2  0  0  0  0
 22 16  1  0  0  0  0
 24 20  1  0  0  0  0
 25 26  1  0  0  0  0
 25  6  1  0  0  0  0
 26 27  1  0  0  0  0
 28 29  1  0  0  0  0
 28 26  2  0  0  0  0
 30 28  1  0  0  0  0
 31 30  2  0  0  0  0
 31 32  1  0  0  0  0
 32 25  2  0  0  0  0
M  END
>  <minimizedAffinity>
-4.80666304

$$$$

 OpenBabel03252502223D

 32 34  0  0  1  0  0  0  0  0999 V2000
   37.0570   29.1580   39.0890 N   0  0  0  0  0  0  0  0  0  0  0  0
   36.5320   28.5100   37.9070 C   0  0  0  0  0  0  0  0  0  0  0  0
   35.2210   29.2240   37.5920 C   0  0  0  0  0  0  0  0  0  0  0  0
   34.2220   29.0260   38.6820 C   0  0  0  0  0  0  0  0  0  0  0  0
   34.7980   29.0280   40.0560 C   0  0  0  0  0  0  0  0  0  0  0  0
   36.1990   29.4980   40.1870 C   0  0  1  0  0  0  0  0  0  0  0  0
   36.3250   27.4240   38.0890 H   0  0  0  0  0  0  0  0  0  0  0  0
   37.2360   28.6680   37.0740 H   0  0  0  0  0  0  0  0  0  0  0  0
   34.7840   28.8830   36.6470 H   0  0  0  0  0  0  0  0  0  0  0  0
   35.4560   30.3200   37.5410 H   0  0  0  0  0  0  0  0  0  0  0  0
   33.7320   28.0440   38.5020 H   0  0  0  0  0  0  0  0  0  0  0  0
   33.4090   29.7850   38.5240 H   0  0  0  0  0  0  0  0  0  0  0  0
   34.6570   28.0510   40.5600 H   0  0  0  0  0  0  0  0  0  0  0  0
   34.1620   29.7390   40.6600 H   0  0  0  0  0  0  0  0  0  0  0  0
   36.2760   30.6180   40.2960 H   0  0  0  0  0  0  0  0  0  0  0  0
   40.7800   28.9530   39.3670 C   0  0  0  0  0  0  0  0  0  0  0  0
   39.4600   28.5120   39.2430 C   0  0  0  0  0  0  0  0  0  0  0  0
   38.4450   29.4850   39.2120 C   0  0  0  0  0  0  0  0  0  0  0  0
   38.8010   30.8000   39.3040 N   0  0  0  0  0  0  0  0  0  0  0  0
   40.1000   31.1910   39.4240 C   0  0  0  0  0  0  0  0  0  0  0  0
   41.0870   30.2580   39.4550 N   0  0  0  0  0  0  0  0  0  0  0  0
   41.5400   28.1850   39.3880 H   0  0  0  0  0  0  0  0  0  0  0  0
   39.1600   27.4910   39.1690 H   0  0  0  0  0  0  0  0  0  0  0  0
   40.4100   32.2080   39.4980 H   0  0  0  0  0  0  0  0  0  0  0  0
   36.7810   28.8390   41.4070 C   0  0  0  0  0  0  0  0  0  0  0  0
   36.7110   27.4800   41.6170 C   0  0  0  0  0  0  0  0  0  0  0  0
   36.2010   26.9210   40.8310 H   0  0  0  0  0  0  0  0  0  0  0  0
   37.2340   26.8520   42.7250 C   0  0  0  0  0  0  0  0  0  0  0  0
   37.1640   25.7860   42.8630 H   0  0  0  0  0  0  0  0  0  0  0  0
   37.8580   27.6490   43.6600 C   0  0  0  0  0  3  0  0  0  0  0  0
   37.9370   29.0310   43.4590 C   0  0  0  0  0  3  0  0  0  0  0  0
   37.3960   29.5880   42.3370 N   0  0  0  0  0  0  0  0  0  0  0  0
  1 18  1  0  0  0  0
  1  6  1  0  0  0  0
  2  7  1  0  0  0  0
  2  1  1  0  0  0  0
  3  2  1  0  0  0  0
  3  4  1  0  0  0  0
  4  5  1  0  0  0  0
  5  6  1  0  0  0  0
  5 13  1  0  0  0  0
  5 14  1  0  0  0  0
  6 15  1  1  0  0  0
  6 25  1  0  0  0  0
  8  2  1  0  0  0  0
  9  3  1  0  0  0  0
 10  3  1  0  0  0  0
 11  4  1  0  0  0  0
 12  4  1  0  0  0  0
 16 22  1  0  0  0  0
 16 21  1  0  0  0  0
 17 16  2  0  0  0  0
 18 17  1  0  0  0  0
 18 19  2  0  0  0  0
 19 20  1  0  0  0  0
 20 21  2  0  0  0  0
 20 24  1  0  0  0  0
 23 17  1  0  0  0  0
 25 26  2  0  0  0  0
 25 32  1  0  0  0  0
 26 28  1  0  0  0  0
 27 26  1  0  0  0  0
 28 29  1  0  0  0  0
 28 30  2  0  0  0  0
 31 30  1  0  0  0  0
 32 31  2  0  0  0  0
M  END
>  <minimizedAffinity>
-4.66688728

$$$$

 OpenBabel03252502223D

 32 34  0  0  1  0  0  0  0  0999 V2000
   38.3090   28.9000   41.1460 N   0  0  0  0  0  0  0  0  0  0  0  0
   38.4100   29.9730   40.1800 C   0  0  0  0  0  0  0  0  0  0  0  0
   37.4300   31.0450   40.6490 C   0  0  0  0  0  0  0  0  0  0  0  0
   36.0240   30.5470   40.6060 C   0  0  0  0  0  0  0  0  0  0  0  0
   35.8620   29.1200   40.9990 C   0  0  0  0  0  0  0  0  0  0  0  0
   37.0330   28.4710   41.6400 C   0  0  1  0  0  0  0  0  0  0  0  0
   38.1210   29.6340   39.1530 H   0  0  0  0  0  0  0  0  0  0  0  0
   39.4320   30.3830   40.2130 H   0  0  0  0  0  0  0  0  0  0  0  0
   37.5000   31.9580   40.0460 H   0  0  0  0  0  0  0  0  0  0  0  0
   37.6810   31.2640   41.7200 H   0  0  0  0  0  0  0  0  0  0  0  0
   35.6650   30.6730   39.5610 H   0  0  0  0  0  0  0  0  0  0  0  0
   35.4040   31.2640   41.2100 H   0  0  0  0  0  0  0  0  0  0  0  0
   35.4760   28.5060   40.1600 H   0  0  0  0  0  0  0  0  0  0  0  0
   35.0270   29.0970   41.7580 H   0  0  0  0  0  0  0  0  0  0  0  0
   37.0680   28.6360   42.7550 H   0  0  0  0  0  0  0  0  0  0  0  0
   41.0420   27.6190   43.3520 C   0  0  0  0  0  0  0  0  0  0  0  0
   39.8930   28.3230   42.9820 C   0  0  0  0  0  0  0  0  0  0  0  0
   39.4680   28.2270   41.6450 C   0  0  0  0  0  0  0  0  0  0  0  0
   40.1960   27.4560   40.7840 N   0  0  0  0  0  0  0  0  0  0  0  0
   41.3130   26.7840   41.1830 C   0  0  0  0  0  0  0  0  0  0  0  0
   41.7300   26.8720   42.4730 N   0  0  0  0  0  0  0  0  0  0  0  0
   41.3460   27.7110   44.3850 H   0  0  0  0  0  0  0  0  0  0  0  0
   39.3090   28.9300   43.6370 H   0  0  0  0  0  0  0  0  0  0  0  0
   41.9030   26.1760   40.5360 H   0  0  0  0  0  0  0  0  0  0  0  0
   36.9370   26.9970   41.3580 C   0  0  0  0  0  0  0  0  0  0  0  0
   37.0420   26.0470   42.3480 C   0  0  0  0  0  0  0  0  0  0  0  0
   37.2000   26.4450   43.3500 H   0  0  0  0  0  0  0  0  0  0  0  0
   36.9580   24.6910   42.1160 C   0  0  0  0  0  0  0  0  0  0  0  0
   37.0450   23.9700   42.9110 H   0  0  0  0  0  0  0  0  0  0  0  0
   36.7590   24.2910   40.8130 C   0  0  0  0  0  3  0  0  0  0  0  0
   36.6510   25.2450   39.7970 C   0  0  0  0  0  3  0  0  0  0  0  0
   36.7430   26.5730   40.0970 N   0  0  0  0  0  0  0  0  0  0  0  0
  1  6  1  0  0  0  0
  1 18  1  0  0  0  0
  2  8  1  0  0  0  0
  2  3  1  0  0  0  0
  2  1  1  0  0  0  0
  3 10  1  0  0  0  0
  4  3  1  0  0  0  0
  4  5  1  0  0  0  0
  4 12  1  0  0  0  0
  5  6  1  0  0  0  0
  5 14  1  0  0  0  0
  6 15  1  1  0  0  0
  7  2  1  0  0  0  0
  9  3  1  0  0  0  0
 11  4  1  0  0  0  0
 13  5  1  0  0  0  0
 16 22  1  0  0  0  0
 17 16  1  0  0  0  0
 17 23  1  0  0  0  0
 18 17  2  0  0  0  0
 19 20  2  0  0  0  0
 19 18  1  0  0  0  0
 20 21  1  0  0  0  0
 21 16  2  0  0  0  0
 24 20  1  0  0  0  0
 25  6  1  0  0  0  0
 25 26  1  0  0  0  0
 26 27  1  0  0  0  0
 28 26  2  0  0  0  0
 28 29  1  0  0  0  0
 30 28  1  0  0  0  0
 31 32  1  0  0  0  0
 31 30  2  0  0  0  0
 32 25  2  0  0  0  0
M  END
>  <minimizedAffinity>
-4.6589036

$$$$

 OpenBabel03252502223D

 32 34  0  0  1  0  0  0  0  0999 V2000
   36.8040   29.1690   39.7450 N   0  0  0  0  0  0  0  0  0  0  0  0
   35.4210   28.7460   39.7470 C   0  0  0  0  0  0  0  0  0  0  0  0
   35.1860   28.0940   38.3880 C   0  0  0  0  0  0  0  0  0  0  0  0
   35.3400   29.0810   37.2800 C   0  0  0  0  0  0  0  0  0  0  0  0
   36.4290   30.0760   37.4870 C   0  0  0  0  0  0  0  0  0  0  0  0
   37.3810   29.7970   38.5920 C   0  0  1  0  0  0  0  0  0  0  0  0
   34.7230   29.6140   39.8650 H   0  0  0  0  0  0  0  0  0  0  0  0
   35.2830   27.9890   40.5360 H   0  0  0  0  0  0  0  0  0  0  0  0
   34.1920   27.6370   38.3170 H   0  0  0  0  0  0  0  0  0  0  0  0
   35.9830   27.3140   38.2630 H   0  0  0  0  0  0  0  0  0  0  0  0
   34.3730   29.6240   37.1890 H   0  0  0  0  0  0  0  0  0  0  0  0
   35.4300   28.4940   36.3270 H   0  0  0  0  0  0  0  0  0  0  0  0
   36.0320   31.1090   37.5550 H   0  0  0  0  0  0  0  0  0  0  0  0
   37.0340   30.0800   36.5350 H   0  0  0  0  0  0  0  0  0  0  0  0
   38.2330   29.1280   38.2760 H   0  0  0  0  0  0  0  0  0  0  0  0
   38.2920   29.3190   43.1710 C   0  0  0  0  0  0  0  0  0  0  0  0
   37.3940   29.5770   42.1320 C   0  0  0  0  0  0  0  0  0  0  0  0
   37.6490   28.9810   40.8840 C   0  0  0  0  0  0  0  0  0  0  0  0
   38.7520   28.1870   40.7550 N   0  0  0  0  0  0  0  0  0  0  0  0
   39.6050   27.9590   41.7920 C   0  0  0  0  0  0  0  0  0  0  0  0
   39.3670   28.5320   43.0010 N   0  0  0  0  0  0  0  0  0  0  0  0
   38.0730   29.7900   44.1190 H   0  0  0  0  0  0  0  0  0  0  0  0
   36.5270   30.1930   42.2110 H   0  0  0  0  0  0  0  0  0  0  0  0
   40.4750   27.3460   41.7230 H   0  0  0  0  0  0  0  0  0  0  0  0
   37.9310   31.1190   39.0530 C   0  0  0  0  0  0  0  0  0  0  0  0
   37.1210   32.1760   39.3990 C   0  0  0  0  0  0  0  0  0  0  0  0
   36.0520   31.9820   39.3110 H   0  0  0  0  0  0  0  0  0  0  0  0
   37.6000   33.3960   39.8230 C   0  0  0  0  0  0  0  0  0  0  0  0
   36.9410   34.2070   40.0870 H   0  0  0  0  0  0  0  0  0  0  0  0
   38.9680   33.5400   39.8980 C   0  0  0  0  0  3  0  0  0  0  0  0
   39.8030   32.4730   39.5500 C   0  0  0  0  0  3  0  0  0  0  0  0
   39.2620   31.2910   39.1370 N   0  0  0  0  0  0  0  0  0  0  0  0
  1  2  1  0  0  0  0
  1 18  1  0  0  0  0
  2  7  1  0  0  0  0
  2  8  1  0  0  0  0
  3  2  1  0  0  0  0
  4  5  1  0  0  0  0
  4  3  1  0  0  0  0
  5 13  1  0  0  0  0
  5  6  1  0  0  0  0
  6 15  1  6  0  0  0
  6 25  1  0  0  0  0
  6  1  1  0  0  0  0
  9  3  1  0  0  0  0
 10  3  1  0  0  0  0
 11  4  1  0  0  0  0
 12  4  1  0  0  0  0
 14  5  1  0  0  0  0
 16 22  1  0  0  0  0
 17 23  1  0  0  0  0
 17 16  2  0  0  0  0
 18 17  1  0  0  0  0
 19 18  2  0  0  0  0
 19 20  1  0  0  0  0
 20 21  2  0  0  0  0
 21 16  1  0  0  0  0
 24 20  1  0  0  0  0
 25 32  2  0  0  0  0
 25 26  1  0  0  0  0
 26 28  2  0  0  0  0
 27 26  1  0  0  0  0
 28 30  1  0  0  0  0
 28 29  1  0  0  0  0
 31 30  2  0  0  0  0
 32 31  1  0  0  0  0
M  END
>  <minimizedAffinity>
-4.62936163

$$$$

 OpenBabel03252502223D

 32 34  0  0  1  0  0  0  0  0999 V2000
   37.6710   30.9720   40.1830 N   0  0  0  0  0  0  0  0  0  0  0  0
   37.5250   32.3950   40.3970 C   0  0  0  0  0  0  0  0  0  0  0  0
   38.8600   33.0130   39.9940 C   0  0  0  0  0  0  0  0  0  0  0  0
   39.9630   32.5460   40.8840 C   0  0  0  0  0  0  0  0  0  0  0  0
   39.8600   31.1200   41.2980 C   0  0  0  0  0  0  0  0  0  0  0  0
   38.8700   30.2870   40.5700 C   0  0  1  0  0  0  0  0  0  0  0  0
   37.3190   32.6320   41.4730 H   0  0  0  0  0  0  0  0  0  0  0  0
   36.7370   32.7740   39.7280 H   0  0  0  0  0  0  0  0  0  0  0  0
   38.8290   34.1090   40.0150 H   0  0  0  0  0  0  0  0  0  0  0  0
   39.0830   32.6490   38.9570 H   0  0  0  0  0  0  0  0  0  0  0  0
   39.9400   33.1850   41.7940 H   0  0  0  0  0  0  0  0  0  0  0  0
   40.9290   32.8090   40.3740 H   0  0  0  0  0  0  0  0  0  0  0  0
   39.7340   31.0200   42.3950 H   0  0  0  0  0  0  0  0  0  0  0  0
   40.8730   30.6620   41.0990 H   0  0  0  0  0  0  0  0  0  0  0  0
   39.2870   29.8440   39.6200 H   0  0  0  0  0  0  0  0  0  0  0  0
   34.5050   29.0830   39.5600 C   0  0  0  0  0  0  0  0  0  0  0  0
   35.4470   29.8490   40.2520 C   0  0  0  0  0  0  0  0  0  0  0  0
   36.6330   30.1920   39.5810 C   0  0  0  0  0  0  0  0  0  0  0  0
   36.8020   29.7620   38.2960 N   0  0  0  0  0  0  0  0  0  0  0  0
   35.8610   29.0160   37.6530 C   0  0  0  0  0  0  0  0  0  0  0  0
   34.7110   28.6800   38.2950 N   0  0  0  0  0  0  0  0  0  0  0  0
   33.6030   28.8330   40.0990 H   0  0  0  0  0  0  0  0  0  0  0  0
   35.3350   30.1960   41.2550 H   0  0  0  0  0  0  0  0  0  0  0  0
   35.9630   28.6650   36.6520 H   0  0  0  0  0  0  0  0  0  0  0  0
   38.4520   29.1780   41.4950 C   0  0  0  0  0  0  0  0  0  0  0  0
   38.0280   29.4100   42.7840 C   0  0  0  0  0  0  0  0  0  0  0  0
   38.0200   30.4590   43.0810 H   0  0  0  0  0  0  0  0  0  0  0  0
   37.6400   28.4120   43.6500 C   0  0  0  0  0  0  0  0  0  0  0  0
   37.3130   28.6240   44.6550 H   0  0  0  0  0  0  0  0  0  0  0  0
   37.6880   27.1190   43.1780 C   0  0  0  0  0  3  0  0  0  0  0  0
   38.1160   26.8680   41.8700 C   0  0  0  0  0  3  0  0  0  0  0  0
   38.4870   27.9050   41.0640 N   0  0  0  0  0  0  0  0  0  0  0  0
  1  2  1  0  0  0  0
  1  6  1  0  0  0  0
  2  7  1  0  0  0  0
  3  9  1  0  0  0  0
  3  2  1  0  0  0  0
  3  4  1  0  0  0  0
  4  5  1  0  0  0  0
  4 11  1  0  0  0  0
  5 13  1  0  0  0  0
  6 15  1  6  0  0  0
  6  5  1  0  0  0  0
  6 25  1  0  0  0  0
  8  2  1  0  0  0  0
 10  3  1  0  0  0  0
 12  4  1  0  0  0  0
 14  5  1  0  0  0  0
 16 22  1  0  0  0  0
 16 17  1  0  0  0  0
 17 23  1  0  0  0  0
 18  1  1  0  0  0  0
 18 17  2  0  0  0  0
 19 18  1  0  0  0  0
 20 21  1  0  0  0  0
 20 19  2  0  0  0  0
 21 16  2  0  0  0  0
 24 20  1  0  0  0  0
 25 26  1  0  0  0  0
 26 27  1  0  0  0  0
 26 28  2  0  0  0  0
 28 29  1  0  0  0  0
 30 28  1  0  0  0  0
 31 30  2  0  0  0  0
 32 25  2  0  0  0  0
 32 31  1  0  0  0  0
M  END
>  <minimizedAffinity>
-4.61969519

$$$$

 OpenBabel03252502223D

 32 34  0  0  1  0  0  0  0  0999 V2000
   37.0270   30.2140   38.8220 N   0  0  0  0  0  0  0  0  0  0  0  0
   36.9000   29.7420   37.4600 C   0  0  0  0  0  0  0  0  0  0  0  0
   35.4350   29.3460   37.2950 C   0  0  0  0  0  0  0  0  0  0  0  0
   35.0790   28.2070   38.1890 C   0  0  0  0  0  0  0  0  0  0  0  0
   35.7260   28.2480   39.5300 C   0  0  0  0  0  0  0  0  0  0  0  0
   36.3940   29.5190   39.9050 C   0  0  1  0  0  0  0  0  0  0  0  0
   37.5460   28.8470   37.2710 H   0  0  0  0  0  0  0  0  0  0  0  0
   37.1260   30.5740   36.7750 H   0  0  0  0  0  0  0  0  0  0  0  0
   35.1980   29.0710   36.2610 H   0  0  0  0  0  0  0  0  0  0  0  0
   34.8250   30.2330   37.6130 H   0  0  0  0  0  0  0  0  0  0  0  0
   35.3910   27.2740   37.6700 H   0  0  0  0  0  0  0  0  0  0  0  0
   33.9570   28.1540   38.2220 H   0  0  0  0  0  0  0  0  0  0  0  0
   36.4010   27.3820   39.6850 H   0  0  0  0  0  0  0  0  0  0  0  0
   34.9000   28.0850   40.2810 H   0  0  0  0  0  0  0  0  0  0  0  0
   35.6860   30.2640   40.3710 H   0  0  0  0  0  0  0  0  0  0  0  0
   38.0510   33.6150   39.9900 C   0  0  0  0  0  0  0  0  0  0  0  0
   37.2100   32.5320   39.7210 C   0  0  0  0  0  0  0  0  0  0  0  0
   37.7840   31.3850   39.1440 C   0  0  0  0  0  0  0  0  0  0  0  0
   39.1230   31.3900   38.8780 N   0  0  0  0  0  0  0  0  0  0  0  0
   39.9110   32.4660   39.1540 C   0  0  0  0  0  0  0  0  0  0  0  0
   39.3650   33.5780   39.7120 N   0  0  0  0  0  0  0  0  0  0  0  0
   37.5850   34.4830   40.4340 H   0  0  0  0  0  0  0  0  0  0  0  0
   36.1620   32.5060   39.9210 H   0  0  0  0  0  0  0  0  0  0  0  0
   40.9580   32.5020   38.9580 H   0  0  0  0  0  0  0  0  0  0  0  0
   37.4790   29.1810   40.8900 C   0  0  0  0  0  0  0  0  0  0  0  0
   37.5010   29.6890   42.1690 C   0  0  0  0  0  0  0  0  0  0  0  0
   36.6720   30.3550   42.4120 H   0  0  0  0  0  0  0  0  0  0  0  0
   38.4830   29.3950   43.0890 C   0  0  0  0  0  0  0  0  0  0  0  0
   38.4740   29.8080   44.0840 H   0  0  0  0  0  0  0  0  0  0  0  0
   39.4870   28.5430   42.6830 C   0  0  0  0  0  3  0  0  0  0  0  0
   39.4770   28.0200   41.3860 C   0  0  0  0  0  3  0  0  0  0  0  0
   38.4730   28.3530   40.5250 N   0  0  0  0  0  0  0  0  0  0  0  0
  1 18  1  0  0  0  0
  1  6  1  0  0  0  0
  2  1  1  0  0  0  0
  3  2  1  0  0  0  0
  3 10  1  0  0  0  0
  3  4  1  0  0  0  0
  4 12  1  0  0  0  0
  4  5  1  0  0  0  0
  5 13  1  0  0  0  0
  5  6  1  0  0  0  0
  5 14  1  0  0  0  0
  6 15  1  1  0  0  0
  6 25  1  0  0  0  0
  7  2  1  0  0  0  0
  8  2  1  0  0  0  0
  9  3  1  0  0  0  0
 11  4  1  0  0  0  0
 16 22  1  0  0  0  0
 17 23  1  0  0  0  0
 17 16  1  0  0  0  0
 18 17  2  0  0  0  0
 19 18  1  0  0  0  0
 19 20  2  0  0  0  0
 20 21  1  0  0  0  0
 21 16  2  0  0  0  0
 24 20  1  0  0  0  0
 25 26  1  0  0  0  0
 26 27  1  0  0  0  0
 26 28  2  0  0  0  0
 28 29  1  0  0  0  0
 30 28  1  0  0  0  0
 31 30  2  0  0  0  0
 32 25  2  0  0  0  0
 32 31  1  0  0  0  0
M  END
>  <minimizedAffinity>
-4.59070635

$$$$
