
 OpenBabel03252509233D

 26 28  0  0  1  0  0  0  0  0999 V2000
   46.7880   34.8000   41.9050 C   0  0  1  0  0  0  0  0  0  0  0  0
   48.2000   35.4450   41.9360 C   0  0  0  0  0  0  0  0  0  0  0  0
   47.8860   33.9840   41.5320 C   0  0  2  0  0  0  0  0  0  0  0  0
   46.1180   35.2870   41.1750 H   0  0  0  0  0  0  0  0  0  0  0  0
   48.6860   35.6320   42.8840 H   0  0  0  0  0  0  0  0  0  0  0  0
   48.4680   36.0960   41.0840 H   0  0  0  0  0  0  0  0  0  0  0  0
   48.3480   33.2580   42.2310 H   0  0  0  0  0  0  0  0  0  0  0  0
   44.7250   35.3270   44.9910 C   0  0  0  0  0  0  0  0  0  0  0  0
   45.2520   35.5590   43.6810 C   0  0  0  0  0  0  0  0  0  0  0  0
   46.2380   34.6890   43.3040 C   0  0  0  0  0  0  0  0  0  0  0  0
   46.6870   33.6650   44.1400 N   0  0  0  0  0  0  0  0  0  0  0  0
   46.1490   33.5080   45.3510 C   0  0  0  0  0  0  0  0  0  0  0  0
   45.1650   34.3370   45.7840 N   0  0  0  0  0  0  0  0  0  0  0  0
   43.9420   35.9810   45.3460 H   0  0  0  0  0  0  0  0  0  0  0  0
   46.6130   32.6720   45.8570 H   0  0  0  0  0  0  0  0  0  0  0  0
   44.8100   36.6260   42.8660 N   0  0  0  0  0  0  0  0  0  0  0  0
   44.7250   37.5650   43.3550 H   0  0  0  0  0  0  0  0  0  0  0  0
   44.5790   36.5390   41.8710 H   0  0  0  0  0  0  0  0  0  0  0  0
   48.0460   33.6550   40.0800 C   0  0  0  0  0  0  0  0  0  0  0  0
   48.0460   32.3170   39.7460 C   0  0  0  0  0  0  0  0  0  0  0  0
   47.9370   31.5500   40.4760 H   0  0  0  0  0  0  0  0  0  0  0  0
   48.1980   32.0540   38.3920 C   0  0  0  0  0  0  0  0  0  0  0  0
   48.1970   30.9890   38.1240 H   0  0  0  0  0  0  0  0  0  0  0  0
   48.3380   33.0670   37.4620 C   0  0  0  0  0  3  0  0  0  0  0  0
   48.3310   34.4040   37.8570 C   0  0  0  0  0  3  0  0  0  0  0  0
   48.1820   34.6470   39.1820 N   0  0  0  0  0  0  0  0  0  0  0  0
  1  4  1  6  0  0  0
  1  2  1  0  0  0  0
  1 10  1  0  0  0  0
  2  5  1  0  0  0  0
  3  1  1  0  0  0  0
  3  2  1  0  0  0  0
  3  7  1  1  0  0  0
  6  2  1  0  0  0  0
  8 14  1  0  0  0  0
  8 13  1  0  0  0  0
  9  8  2  0  0  0  0
 10  9  1  0  0  0  0
 10 11  2  0  0  0  0
 11 12  1  0  0  0  0
 12 13  2  0  0  0  0
 12 15  1  0  0  0  0
 16 17  1  0  0  0  0
 16  9  1  0  0  0  0
 18 16  1  0  0  0  0
 19  3  1  0  0  0  0
 20 19  1  0  0  0  0
 20 21  1  0  0  0  0
 22 20  2  0  0  0  0
 23 22  1  0  0  0  0
 24 25  2  0  0  0  0
 24 22  1  0  0  0  0
 25 26  1  0  0  0  0
 26 19  2  0  0  0  0
M  END
>  <minimizedAffinity>
-4.89515924

>  <minimizedRMSD>
0.557526588

$$$$
