
 OpenBabel03252507343D

 48 51  0  0  1  0  0  0  0  0999 V2000
   38.3650   31.8560   40.9280 C   0  0  0  0  0  0  0  0  0  0  0  0
   37.0600   31.9940   40.4780 C   0  0  0  0  0  0  0  0  0  0  0  0
   36.1780   30.8880   40.5400 C   0  0  0  0  0  0  0  0  0  0  0  0
   36.7000   29.7080   41.0600 N   0  0  0  0  0  0  0  0  0  0  0  0
   37.9710   29.6430   41.4740 C   0  0  0  0  0  0  0  0  0  0  0  0
   38.7890   30.6940   41.4120 N   0  0  0  0  0  0  0  0  0  0  0  0
   36.4720   32.7650   40.0230 H   0  0  0  0  0  0  0  0  0  0  0  0
   35.1630   30.8080   40.2500 H   0  0  0  0  0  0  0  0  0  0  0  0
   39.2190   33.0230   40.8640 C   0  0  2  0  0  0  0  0  0  0  0  0
   38.4420   34.2670   40.3300 C   0  0  0  0  0  0  0  0  0  0  0  0
   39.3090   35.4740   40.4270 C   0  0  0  0  0  0  0  0  0  0  0  0
   40.7270   35.3010   40.0000 C   0  0  0  0  0  0  0  0  0  0  0  0
   41.3070   34.0250   40.3310 C   0  0  0  0  0  0  0  0  0  0  0  0
   40.3860   32.8220   40.0290 C   0  0  2  0  0  0  0  0  0  0  0  0
   39.4750   33.3350   41.8970 H   0  0  0  0  0  0  0  0  0  0  0  0
   37.5780   34.3470   41.0220 H   0  0  0  0  0  0  0  0  0  0  0  0
   38.0240   34.0660   39.3330 H   0  0  0  0  0  0  0  0  0  0  0  0
   38.8670   36.2360   39.7190 H   0  0  0  0  0  0  0  0  0  0  0  0
   39.1310   35.9140   41.4240 H   0  0  0  0  0  0  0  0  0  0  0  0
   41.0990   35.9290   39.1850 H   0  0  0  0  0  0  0  0  0  0  0  0
   41.2400   35.9520   40.8160 H   0  0  0  0  0  0  0  0  0  0  0  0
   41.6610   33.8340   41.3670 H   0  0  0  0  0  0  0  0  0  0  0  0
   42.2150   33.8380   39.6890 H   0  0  0  0  0  0  0  0  0  0  0  0
   41.0520   31.9880   40.2520 H   0  0  0  0  0  0  0  0  0  0  0  0
   40.0040   32.8700   38.6150 N   0  0  0  0  0  0  0  0  0  0  0  0
   39.9580   31.8700   37.6300 C   0  0  0  0  0  0  0  0  0  0  0  0
   39.0170   31.0000   37.5600 O   0  0  0  0  0  0  0  0  0  0  0  0
   41.0390   31.8960   36.6980 N   0  0  0  0  0  0  0  0  0  0  0  0
   39.7500   33.8060   38.1220 H   0  0  0  0  0  0  0  0  0  0  0  0
   41.3820   32.6980   36.1140 H   0  0  0  0  0  0  0  0  0  0  0  0
   41.6610   31.0900   36.4610 H   0  0  0  0  0  0  0  0  0  0  0  0
   38.4670   28.3620   41.9940 C   0  0  0  0  0  0  0  0  0  0  0  0
   39.3200   28.3210   43.0760 C   0  0  0  0  0  0  0  0  0  0  0  0
   39.8310   27.1690   43.6250 C   0  0  0  0  0  0  0  0  0  0  0  0
   39.4160   26.0040   42.9950 C   0  0  0  0  0  0  0  0  0  0  0  0
   38.5650   26.0230   41.9150 C   0  0  0  0  0  0  0  0  0  0  0  0
   38.0900   27.2130   41.4160 N   0  0  0  0  0  0  0  0  0  0  0  0
   39.5950   29.2740   43.5090 H   0  0  0  0  0  0  0  0  0  0  0  0
   40.4960   27.1310   44.4690 H   0  0  0  0  0  0  0  0  0  0  0  0
   39.7750   25.0670   43.3710 H   0  0  0  0  0  0  0  0  0  0  0  0
   38.0990   24.8280   41.2180 C   0  0  0  0  0  0  0  0  0  0  0  0
   36.7760   24.6390   40.8750 C   0  0  0  0  0  0  0  0  0  0  0  0
   36.0340   25.3680   41.1110 H   0  0  0  0  0  0  0  0  0  0  0  0
   36.2810   23.5330   40.2180 C   0  0  0  0  0  0  0  0  0  0  0  0
   35.2360   23.4160   39.9640 H   0  0  0  0  0  0  0  0  0  0  0  0
   37.1530   22.5240   39.8630 C   0  0  0  0  0  3  0  0  0  0  0  0
   38.4730   22.7210   40.2090 C   0  0  0  0  0  3  0  0  0  0  0  0
   38.9110   23.8190   40.8520 N   0  0  0  0  0  0  0  0  0  0  0  0
  1  6  1  0  0  0  0
  2  3  1  0  0  0  0
  2  1  2  0  0  0  0
  3  4  2  0  0  0  0
  4  5  1  0  0  0  0
  5 32  1  0  0  0  0
  6  5  2  0  0  0  0
  7  2  1  0  0  0  0
  8  3  1  0  0  0  0
  9  1  1  0  0  0  0
  9 15  1  1  0  0  0
 10 11  1  0  0  0  0
 10  9  1  0  0  0  0
 10 16  1  0  0  0  0
 11 19  1  0  0  0  0
 12 13  1  0  0  0  0
 12 11  1  0  0  0  0
 12 21  1  0  0  0  0
 13 22  1  0  0  0  0
 14 24  1  1  0  0  0
 14 13  1  0  0  0  0
 14  9  1  0  0  0  0
 17 10  1  0  0  0  0
 18 11  1  0  0  0  0
 20 12  1  0  0  0  0
 23 13  1  0  0  0  0
 25 14  1  0  0  0  0
 26 25  1  0  0  0  0
 27 26  2  0  0  0  0
 28 26  1  0  0  0  0
 29 25  1  0  0  0  0
 30 28  1  0  0  0  0
 31 28  1  0  0  0  0
 32 33  1  0  0  0  0
 33 38  1  0  0  0  0
 33 34  2  0  0  0  0
 34 39  1  0  0  0  0
 35 40  1  0  0  0  0
 35 34  1  0  0  0  0
 36 35  2  0  0  0  0
 37 36  1  0  0  0  0
 37 32  2  0  0  0  0
 41 36  1  0  0  0  0
 42 43  1  0  0  0  0
 42 41  1  0  0  0  0
 44 42  2  0  0  0  0
 45 44  1  0  0  0  0
 46 47  2  0  0  0  0
 46 44  1  0  0  0  0
 47 48  1  0  0  0  0
 48 41  2  0  0  0  0
M  END
>  <minimizedAffinity>
-7.30309057

$$$$

 OpenBabel03252507343D

 48 51  0  0  1  0  0  0  0  0999 V2000
   37.5140   30.4940   40.8720 C   0  0  0  0  0  0  0  0  0  0  0  0
   36.1830   30.5160   40.4840 C   0  0  0  0  0  0  0  0  0  0  0  0
   35.4130   29.3300   40.5620 C   0  0  0  0  0  0  0  0  0  0  0  0
   36.0660   28.1970   41.0340 N   0  0  0  0  0  0  0  0  0  0  0  0
   37.3550   28.2450   41.3890 C   0  0  0  0  0  0  0  0  0  0  0  0
   38.0680   29.3700   41.3120 N   0  0  0  0  0  0  0  0  0  0  0  0
   35.5060   31.2350   40.0720 H   0  0  0  0  0  0  0  0  0  0  0  0
   34.3970   29.1600   40.3160 H   0  0  0  0  0  0  0  0  0  0  0  0
   38.2520   31.7380   40.7940 C   0  0  2  0  0  0  0  0  0  0  0  0
   37.4430   32.8300   40.0280 C   0  0  0  0  0  0  0  0  0  0  0  0
   38.1660   34.1300   40.1060 C   0  0  0  0  0  0  0  0  0  0  0  0
   39.6410   34.0760   39.8940 C   0  0  0  0  0  0  0  0  0  0  0  0
   40.2880   32.9100   40.4380 C   0  0  0  0  0  0  0  0  0  0  0  0
   39.5410   31.5890   40.1510 C   0  0  2  0  0  0  0  0  0  0  0  0
   38.3240   32.1740   41.8120 H   0  0  0  0  0  0  0  0  0  0  0  0
   36.4850   32.8790   40.5840 H   0  0  0  0  0  0  0  0  0  0  0  0
   37.1960   32.4890   39.0120 H   0  0  0  0  0  0  0  0  0  0  0  0
   37.7600   34.7670   39.2650 H   0  0  0  0  0  0  0  0  0  0  0  0
   37.8040   34.6410   41.0160 H   0  0  0  0  0  0  0  0  0  0  0  0
   40.0640   34.6600   39.0720 H   0  0  0  0  0  0  0  0  0  0  0  0
   39.9650   34.8560   40.6940 H   0  0  0  0  0  0  0  0  0  0  0  0
   40.5060   32.8600   41.5270 H   0  0  0  0  0  0  0  0  0  0  0  0
   41.2930   32.7660   39.9490 H   0  0  0  0  0  0  0  0  0  0  0  0
   40.2460   30.8590   40.5510 H   0  0  0  0  0  0  0  0  0  0  0  0
   39.3650   31.4580   38.7020 N   0  0  0  0  0  0  0  0  0  0  0  0
   40.2940   31.2840   37.6640 C   0  0  0  0  0  0  0  0  0  0  0  0
   40.8550   30.1580   37.4090 O   0  0  0  0  0  0  0  0  0  0  0  0
   40.5670   32.4580   36.8990 N   0  0  0  0  0  0  0  0  0  0  0  0
   38.3870   31.5590   38.2330 H   0  0  0  0  0  0  0  0  0  0  0  0
   39.8890   33.0990   36.4180 H   0  0  0  0  0  0  0  0  0  0  0  0
   41.5140   32.8550   36.7070 H   0  0  0  0  0  0  0  0  0  0  0  0
   37.9920   27.0090   41.8600 C   0  0  0  0  0  0  0  0  0  0  0  0
   37.3250   25.8040   41.8070 C   0  0  0  0  0  0  0  0  0  0  0  0
   37.8450   24.6030   42.2260 C   0  0  0  0  0  0  0  0  0  0  0  0
   39.1370   24.6840   42.7260 C   0  0  0  0  0  0  0  0  0  0  0  0
   39.8220   25.8760   42.7880 C   0  0  0  0  0  0  0  0  0  0  0  0
   39.2400   27.0420   42.3500 N   0  0  0  0  0  0  0  0  0  0  0  0
   36.3210   25.8270   41.4040 H   0  0  0  0  0  0  0  0  0  0  0  0
   37.3290   23.6600   42.1860 H   0  0  0  0  0  0  0  0  0  0  0  0
   39.6070   23.7850   43.0710 H   0  0  0  0  0  0  0  0  0  0  0  0
   41.1800   26.0150   43.3040 C   0  0  0  0  0  0  0  0  0  0  0  0
   41.5100   26.9320   44.2810 C   0  0  0  0  0  0  0  0  0  0  0  0
   40.7760   27.5810   44.7010 H   0  0  0  0  0  0  0  0  0  0  0  0
   42.7740   27.1070   44.8040 C   0  0  0  0  0  0  0  0  0  0  0  0
   42.9980   27.8360   45.5710 H   0  0  0  0  0  0  0  0  0  0  0  0
   43.8040   26.3180   44.3340 C   0  0  0  0  0  3  0  0  0  0  0  0
   43.4650   25.4050   43.3580 C   0  0  0  0  0  3  0  0  0  0  0  0
   42.2160   25.2700   42.8770 N   0  0  0  0  0  0  0  0  0  0  0  0
  1  6  1  0  0  0  0
  2  3  1  0  0  0  0
  2  1  2  0  0  0  0
  3  4  2  0  0  0  0
  4  5  1  0  0  0  0
  5 32  1  0  0  0  0
  6  5  2  0  0  0  0
  7  2  1  0  0  0  0
  8  3  1  0  0  0  0
  9  1  1  0  0  0  0
  9 15  1  1  0  0  0
 10 11  1  0  0  0  0
 10 16  1  0  0  0  0
 10  9  1  0  0  0  0
 11 19  1  0  0  0  0
 12 11  1  0  0  0  0
 12 13  1  0  0  0  0
 12 21  1  0  0  0  0
 13 22  1  0  0  0  0
 14 13  1  0  0  0  0
 14 24  1  1  0  0  0
 14  9  1  0  0  0  0
 17 10  1  0  0  0  0
 18 11  1  0  0  0  0
 20 12  1  0  0  0  0
 23 13  1  0  0  0  0
 25 14  1  0  0  0  0
 26 25  1  0  0  0  0
 27 26  2  0  0  0  0
 28 26  1  0  0  0  0
 29 25  1  0  0  0  0
 30 28  1  0  0  0  0
 31 28  1  0  0  0  0
 32 37  1  0  0  0  0
 33 32  2  0  0  0  0
 33 34  1  0  0  0  0
 34 35  2  0  0  0  0
 35 36  1  0  0  0  0
 35 40  1  0  0  0  0
 36 41  1  0  0  0  0
 37 36  2  0  0  0  0
 38 33  1  0  0  0  0
 39 34  1  0  0  0  0
 41 42  1  0  0  0  0
 42 43  1  0  0  0  0
 42 44  2  0  0  0  0
 44 45  1  0  0  0  0
 46 44  1  0  0  0  0
 47 46  2  0  0  0  0
 48 41  2  0  0  0  0
 48 47  1  0  0  0  0
M  END
>  <minimizedAffinity>
-7.12316513

$$$$

 OpenBabel03252507343D

 48 51  0  0  1  0  0  0  0  0999 V2000
   38.3590   31.8380   40.9860 C   0  0  0  0  0  0  0  0  0  0  0  0
   37.0490   31.8440   40.5310 C   0  0  0  0  0  0  0  0  0  0  0  0
   36.2520   30.6830   40.6790 C   0  0  0  0  0  0  0  0  0  0  0  0
   36.8590   29.5880   41.2860 N   0  0  0  0  0  0  0  0  0  0  0  0
   38.1300   29.6490   41.7000 C   0  0  0  0  0  0  0  0  0  0  0  0
   38.8680   30.7510   41.5550 N   0  0  0  0  0  0  0  0  0  0  0  0
   36.4070   32.5320   40.0210 H   0  0  0  0  0  0  0  0  0  0  0  0
   35.2470   30.5050   40.3990 H   0  0  0  0  0  0  0  0  0  0  0  0
   39.1240   33.0570   40.8310 C   0  0  2  0  0  0  0  0  0  0  0  0
   38.2520   34.2020   40.2290 C   0  0  0  0  0  0  0  0  0  0  0  0
   39.0290   35.4730   40.2310 C   0  0  0  0  0  0  0  0  0  0  0  0
   40.4510   35.3750   39.7940 C   0  0  0  0  0  0  0  0  0  0  0  0
   41.1270   34.1700   40.1990 C   0  0  0  0  0  0  0  0  0  0  0  0
   40.2940   32.8860   39.9930 C   0  0  2  0  0  0  0  0  0  0  0  0
   39.3680   33.4560   41.8370 H   0  0  0  0  0  0  0  0  0  0  0  0
   37.3920   34.2650   40.9270 H   0  0  0  0  0  0  0  0  0  0  0  0
   37.8390   33.9050   39.2540 H   0  0  0  0  0  0  0  0  0  0  0  0
   38.5240   36.1510   39.4810 H   0  0  0  0  0  0  0  0  0  0  0  0
   38.8300   35.9650   41.2000 H   0  0  0  0  0  0  0  0  0  0  0  0
   40.7660   35.9720   38.9330 H   0  0  0  0  0  0  0  0  0  0  0  0
   40.9240   36.1160   40.5560 H   0  0  0  0  0  0  0  0  0  0  0  0
   41.5060   34.0750   41.2400 H   0  0  0  0  0  0  0  0  0  0  0  0
   42.0390   34.0080   39.5570 H   0  0  0  0  0  0  0  0  0  0  0  0
   41.0220   32.1190   40.2600 H   0  0  0  0  0  0  0  0  0  0  0  0
   39.8930   32.8100   38.5850 N   0  0  0  0  0  0  0  0  0  0  0  0
   39.9610   31.7610   37.6550 C   0  0  0  0  0  0  0  0  0  0  0  0
   39.1340   30.7790   37.6460 O   0  0  0  0  0  0  0  0  0  0  0  0
   41.0200   31.8690   36.7040 N   0  0  0  0  0  0  0  0  0  0  0  0
   39.5210   33.6810   38.0480 H   0  0  0  0  0  0  0  0  0  0  0  0
   41.2550   32.6740   36.0730 H   0  0  0  0  0  0  0  0  0  0  0  0
   41.7340   31.1340   36.4990 H   0  0  0  0  0  0  0  0  0  0  0  0
   38.7190   28.4520   42.3140 C   0  0  0  0  0  0  0  0  0  0  0  0
   37.9840   27.2950   42.4550 C   0  0  0  0  0  0  0  0  0  0  0  0
   38.4560   26.1330   43.0170 C   0  0  0  0  0  0  0  0  0  0  0  0
   39.7720   26.2030   43.4520 C   0  0  0  0  0  0  0  0  0  0  0  0
   40.5230   27.3470   43.3210 C   0  0  0  0  0  0  0  0  0  0  0  0
   39.9880   28.4760   42.7470 N   0  0  0  0  0  0  0  0  0  0  0  0
   36.9660   27.3240   42.0900 H   0  0  0  0  0  0  0  0  0  0  0  0
   37.8870   25.2270   43.1290 H   0  0  0  0  0  0  0  0  0  0  0  0
   40.2070   25.3330   43.9010 H   0  0  0  0  0  0  0  0  0  0  0  0
   41.9090   27.4730   43.7610 C   0  0  0  0  0  0  0  0  0  0  0  0
   42.5310   28.6960   43.9090 C   0  0  0  0  0  0  0  0  0  0  0  0
   42.0150   29.6070   43.7050 H   0  0  0  0  0  0  0  0  0  0  0  0
   43.8350   28.8740   44.3210 C   0  0  0  0  0  0  0  0  0  0  0  0
   44.2920   29.8480   44.4260 H   0  0  0  0  0  0  0  0  0  0  0  0
   44.5980   27.7620   44.6130 C   0  0  0  0  0  3  0  0  0  0  0  0
   43.9680   26.5440   44.4630 C   0  0  0  0  0  3  0  0  0  0  0  0
   42.6920   26.4190   44.0580 N   0  0  0  0  0  0  0  0  0  0  0  0
  1  6  1  0  0  0  0
  2  3  1  0  0  0  0
  2  1  2  0  0  0  0
  3  4  2  0  0  0  0
  4  5  1  0  0  0  0
  5 32  1  0  0  0  0
  6  5  2  0  0  0  0
  7  2  1  0  0  0  0
  8  3  1  0  0  0  0
  9  1  1  0  0  0  0
  9 15  1  1  0  0  0
 10 11  1  0  0  0  0
 10  9  1  0  0  0  0
 10 16  1  0  0  0  0
 11 19  1  0  0  0  0
 12 13  1  0  0  0  0
 12 11  1  0  0  0  0
 12 21  1  0  0  0  0
 13 22  1  0  0  0  0
 14 13  1  0  0  0  0
 14 24  1  1  0  0  0
 14  9  1  0  0  0  0
 17 10  1  0  0  0  0
 18 11  1  0  0  0  0
 20 12  1  0  0  0  0
 23 13  1  0  0  0  0
 25 14  1  0  0  0  0
 26 25  1  0  0  0  0
 27 26  2  0  0  0  0
 28 26  1  0  0  0  0
 29 25  1  0  0  0  0
 30 28  1  0  0  0  0
 31 28  1  0  0  0  0
 32 33  2  0  0  0  0
 32 37  1  0  0  0  0
 33 34  1  0  0  0  0
 34 39  1  0  0  0  0
 34 35  2  0  0  0  0
 35 40  1  0  0  0  0
 36 35  1  0  0  0  0
 36 41  1  0  0  0  0
 37 36  2  0  0  0  0
 38 33  1  0  0  0  0
 41 42  2  0  0  0  0
 41 48  1  0  0  0  0
 42 44  1  0  0  0  0
 43 42  1  0  0  0  0
 44 45  1  0  0  0  0
 44 46  2  0  0  0  0
 47 46  1  0  0  0  0
 48 47  2  0  0  0  0
M  END
>  <minimizedAffinity>
-6.94797707

$$$$

 OpenBabel03252507343D

 48 51  0  0  1  0  0  0  0  0999 V2000
   40.1400   33.0310   40.6580 C   0  0  0  0  0  0  0  0  0  0  0  0
   39.4670   34.1430   40.1730 C   0  0  0  0  0  0  0  0  0  0  0  0
   38.0780   34.0600   39.9110 C   0  0  0  0  0  0  0  0  0  0  0  0
   37.4720   32.8330   40.1650 N   0  0  0  0  0  0  0  0  0  0  0  0
   38.1820   31.7990   40.6300 C   0  0  0  0  0  0  0  0  0  0  0  0
   39.4900   31.8940   40.8740 N   0  0  0  0  0  0  0  0  0  0  0  0
   39.7230   35.1400   39.8810 H   0  0  0  0  0  0  0  0  0  0  0  0
   37.4070   34.7940   39.5470 H   0  0  0  0  0  0  0  0  0  0  0  0
   41.5550   33.1760   40.9300 C   0  0  2  0  0  0  0  0  0  0  0  0
   42.0140   34.6590   40.7790 C   0  0  0  0  0  0  0  0  0  0  0  0
   43.4320   34.7870   41.2160 C   0  0  0  0  0  0  0  0  0  0  0  0
   44.3620   33.7180   40.7540 C   0  0  0  0  0  0  0  0  0  0  0  0
   43.7890   32.3980   40.7030 C   0  0  0  0  0  0  0  0  0  0  0  0
   42.3800   32.3520   40.0700 C   0  0  2  0  0  0  0  0  0  0  0  0
   41.7310   32.9870   42.0090 H   0  0  0  0  0  0  0  0  0  0  0  0
   41.3390   35.2090   41.4660 H   0  0  0  0  0  0  0  0  0  0  0  0
   41.7980   35.0310   39.7660 H   0  0  0  0  0  0  0  0  0  0  0  0
   43.8160   35.7460   40.7580 H   0  0  0  0  0  0  0  0  0  0  0  0
   43.4110   35.0070   42.2980 H   0  0  0  0  0  0  0  0  0  0  0  0
   45.2270   34.0130   40.1530 H   0  0  0  0  0  0  0  0  0  0  0  0
   44.9980   33.6040   41.7220 H   0  0  0  0  0  0  0  0  0  0  0  0
   43.6770   31.8090   41.6400 H   0  0  0  0  0  0  0  0  0  0  0  0
   44.4080   31.7360   40.0330 H   0  0  0  0  0  0  0  0  0  0  0  0
   42.1990   31.2770   40.0420 H   0  0  0  0  0  0  0  0  0  0  0  0
   42.4510   32.9420   38.7310 N   0  0  0  0  0  0  0  0  0  0  0  0
   42.0960   32.4330   37.4710 C   0  0  0  0  0  0  0  0  0  0  0  0
   40.8810   32.3590   37.0630 O   0  0  0  0  0  0  0  0  0  0  0  0
   43.1950   32.0070   36.6650 N   0  0  0  0  0  0  0  0  0  0  0  0
   42.8950   33.9200   38.5580 H   0  0  0  0  0  0  0  0  0  0  0  0
   44.0580   32.5410   36.3980 H   0  0  0  0  0  0  0  0  0  0  0  0
   43.2940   31.0700   36.2130 H   0  0  0  0  0  0  0  0  0  0  0  0
   37.4870   30.5260   40.8570 C   0  0  0  0  0  0  0  0  0  0  0  0
   36.1640   30.3690   40.5040 C   0  0  0  0  0  0  0  0  0  0  0  0
   35.4400   29.2150   40.6810 C   0  0  0  0  0  0  0  0  0  0  0  0
   36.1540   28.1760   41.2620 C   0  0  0  0  0  0  0  0  0  0  0  0
   37.4740   28.3110   41.6220 C   0  0  0  0  0  0  0  0  0  0  0  0
   38.1400   29.4960   41.4150 N   0  0  0  0  0  0  0  0  0  0  0  0
   35.6800   31.2270   40.0570 H   0  0  0  0  0  0  0  0  0  0  0  0
   34.4080   29.0870   40.4070 H   0  0  0  0  0  0  0  0  0  0  0  0
   35.6520   27.2440   41.4300 H   0  0  0  0  0  0  0  0  0  0  0  0
   38.2700   27.2520   42.2350 C   0  0  0  0  0  0  0  0  0  0  0  0
   39.0830   27.4740   43.3280 C   0  0  0  0  0  0  0  0  0  0  0  0
   39.1610   28.4420   43.7710 H   0  0  0  0  0  0  0  0  0  0  0  0
   39.8540   26.5140   43.9470 C   0  0  0  0  0  0  0  0  0  0  0  0
   40.4810   26.7220   44.8030 H   0  0  0  0  0  0  0  0  0  0  0  0
   39.8290   25.2240   43.4570 C   0  0  0  0  0  3  0  0  0  0  0  0
   39.0140   25.0110   42.3650 C   0  0  0  0  0  3  0  0  0  0  0  0
   38.2780   25.9810   41.7940 N   0  0  0  0  0  0  0  0  0  0  0  0
  1  6  1  0  0  0  0
  1  9  1  0  0  0  0
  2  1  2  0  0  0  0
  3  4  2  0  0  0  0
  3  2  1  0  0  0  0
  4  5  1  0  0  0  0
  5 32  1  0  0  0  0
  5  6  2  0  0  0  0
  7  2  1  0  0  0  0
  8  3  1  0  0  0  0
  9 15  1  1  0  0  0
 10  9  1  0  0  0  0
 10 11  1  0  0  0  0
 10 16  1  0  0  0  0
 11 19  1  0  0  0  0
 12 11  1  0  0  0  0
 12 21  1  0  0  0  0
 13 12  1  0  0  0  0
 13 22  1  0  0  0  0
 14 24  1  6  0  0  0
 14 13  1  0  0  0  0
 14  9  1  0  0  0  0
 17 10  1  0  0  0  0
 18 11  1  0  0  0  0
 20 12  1  0  0  0  0
 23 13  1  0  0  0  0
 25 14  1  0  0  0  0
 26 25  1  0  0  0  0
 27 26  2  0  0  0  0
 28 26  1  0  0  0  0
 29 25  1  0  0  0  0
 30 28  1  0  0  0  0
 31 28  1  0  0  0  0
 32 37  1  0  0  0  0
 33 34  1  0  0  0  0
 33 32  2  0  0  0  0
 34 35  2  0  0  0  0
 35 40  1  0  0  0  0
 35 36  1  0  0  0  0
 36 41  1  0  0  0  0
 37 36  2  0  0  0  0
 38 33  1  0  0  0  0
 39 34  1  0  0  0  0
 41 42  1  0  0  0  0
 42 43  1  0  0  0  0
 42 44  2  0  0  0  0
 44 45  1  0  0  0  0
 46 44  1  0  0  0  0
 47 46  2  0  0  0  0
 48 41  2  0  0  0  0
 48 47  1  0  0  0  0
M  END
>  <minimizedAffinity>
-6.85724545

$$$$

 OpenBabel03252507343D

 48 51  0  0  1  0  0  0  0  0999 V2000
   38.3390   31.8140   40.9010 C   0  0  0  0  0  0  0  0  0  0  0  0
   37.0050   31.8350   40.5190 C   0  0  0  0  0  0  0  0  0  0  0  0
   36.2280   30.6570   40.6330 C   0  0  0  0  0  0  0  0  0  0  0  0
   36.8760   29.5320   41.1330 N   0  0  0  0  0  0  0  0  0  0  0  0
   38.1670   29.5810   41.4810 C   0  0  0  0  0  0  0  0  0  0  0  0
   38.8860   30.6990   41.3690 N   0  0  0  0  0  0  0  0  0  0  0  0
   36.3310   32.5470   40.0910 H   0  0  0  0  0  0  0  0  0  0  0  0
   35.2100   30.4870   40.3970 H   0  0  0  0  0  0  0  0  0  0  0  0
   39.0840   33.0510   40.7850 C   0  0  2  0  0  0  0  0  0  0  0  0
   38.2050   34.1890   40.1810 C   0  0  0  0  0  0  0  0  0  0  0  0
   38.9570   35.4740   40.2240 C   0  0  0  0  0  0  0  0  0  0  0  0
   40.3910   35.4100   39.8210 C   0  0  0  0  0  0  0  0  0  0  0  0
   41.0800   34.2110   40.2230 C   0  0  0  0  0  0  0  0  0  0  0  0
   40.2770   32.9150   39.9740 C   0  0  2  0  0  0  0  0  0  0  0  0
   39.2950   33.4360   41.8040 H   0  0  0  0  0  0  0  0  0  0  0  0
   37.3280   34.2240   40.8590 H   0  0  0  0  0  0  0  0  0  0  0  0
   37.8220   33.9010   39.1910 H   0  0  0  0  0  0  0  0  0  0  0  0
   38.4590   36.1560   39.4740 H   0  0  0  0  0  0  0  0  0  0  0  0
   38.7260   35.9450   41.1960 H   0  0  0  0  0  0  0  0  0  0  0  0
   40.7160   36.0280   38.9790 H   0  0  0  0  0  0  0  0  0  0  0  0
   40.8310   36.1460   40.6070 H   0  0  0  0  0  0  0  0  0  0  0  0
   41.4350   34.1050   41.2710 H   0  0  0  0  0  0  0  0  0  0  0  0
   42.0100   34.0760   39.6010 H   0  0  0  0  0  0  0  0  0  0  0  0
   41.0120   32.1580   40.2460 H   0  0  0  0  0  0  0  0  0  0  0  0
   39.9120   32.8560   38.5560 N   0  0  0  0  0  0  0  0  0  0  0  0
   39.9910   31.8140   37.6190 C   0  0  0  0  0  0  0  0  0  0  0  0
   39.1520   30.8430   37.5790 O   0  0  0  0  0  0  0  0  0  0  0  0
   41.0770   31.9170   36.6960 N   0  0  0  0  0  0  0  0  0  0  0  0
   39.5650   33.7360   38.0170 H   0  0  0  0  0  0  0  0  0  0  0  0
   41.3380   32.7240   36.0790 H   0  0  0  0  0  0  0  0  0  0  0  0
   41.7860   31.1740   36.5040 H   0  0  0  0  0  0  0  0  0  0  0  0
   38.7980   28.3540   41.9820 C   0  0  0  0  0  0  0  0  0  0  0  0
   38.6540   27.9710   43.2980 C   0  0  0  0  0  0  0  0  0  0  0  0
   39.2090   26.8410   43.8490 C   0  0  0  0  0  0  0  0  0  0  0  0
   39.9550   26.0800   42.9590 C   0  0  0  0  0  0  0  0  0  0  0  0
   40.1120   26.4440   41.6420 C   0  0  0  0  0  0  0  0  0  0  0  0
   39.5270   27.5890   41.1560 N   0  0  0  0  0  0  0  0  0  0  0  0
   38.0570   28.6200   43.9250 H   0  0  0  0  0  0  0  0  0  0  0  0
   39.0990   26.5370   44.8750 H   0  0  0  0  0  0  0  0  0  0  0  0
   40.4180   25.1830   43.3190 H   0  0  0  0  0  0  0  0  0  0  0  0
   40.8840   25.6810   40.6670 C   0  0  0  0  0  0  0  0  0  0  0  0
   42.2590   25.5770   40.7280 C   0  0  0  0  0  0  0  0  0  0  0  0
   42.8150   26.0580   41.5020 H   0  0  0  0  0  0  0  0  0  0  0  0
   43.0390   24.8710   39.8370 C   0  0  0  0  0  0  0  0  0  0  0  0
   44.1160   24.8110   39.9150 H   0  0  0  0  0  0  0  0  0  0  0  0
   42.4230   24.2090   38.7950 C   0  0  0  0  0  3  0  0  0  0  0  0
   41.0490   24.3170   38.7410 C   0  0  0  0  0  3  0  0  0  0  0  0
   40.3300   25.0180   39.6350 N   0  0  0  0  0  0  0  0  0  0  0  0
  1  6  1  0  0  0  0
  2  3  1  0  0  0  0
  2  1  2  0  0  0  0
  3  4  2  0  0  0  0
  4  5  1  0  0  0  0
  5 32  1  0  0  0  0
  6  5  2  0  0  0  0
  7  2  1  0  0  0  0
  8  3  1  0  0  0  0
  9  1  1  0  0  0  0
  9 15  1  1  0  0  0
 10 11  1  0  0  0  0
 10  9  1  0  0  0  0
 10 16  1  0  0  0  0
 11 19  1  0  0  0  0
 12 13  1  0  0  0  0
 12 11  1  0  0  0  0
 12 21  1  0  0  0  0
 13 22  1  0  0  0  0
 14 13  1  0  0  0  0
 14 24  1  1  0  0  0
 14  9  1  0  0  0  0
 17 10  1  0  0  0  0
 18 11  1  0  0  0  0
 20 12  1  0  0  0  0
 23 13  1  0  0  0  0
 25 14  1  0  0  0  0
 26 25  1  0  0  0  0
 27 26  2  0  0  0  0
 28 26  1  0  0  0  0
 29 25  1  0  0  0  0
 30 28  1  0  0  0  0
 31 28  1  0  0  0  0
 32 33  1  0  0  0  0
 33 34  2  0  0  0  0
 33 38  1  0  0  0  0
 34 39  1  0  0  0  0
 35 40  1  0  0  0  0
 35 34  1  0  0  0  0
 36 35  2  0  0  0  0
 37 36  1  0  0  0  0
 37 32  2  0  0  0  0
 41 42  1  0  0  0  0
 41 36  1  0  0  0  0
 42 43  1  0  0  0  0
 44 45  1  0  0  0  0
 44 42  2  0  0  0  0
 46 44  1  0  0  0  0
 47 46  2  0  0  0  0
 47 48  1  0  0  0  0
 48 41  2  0  0  0  0
M  END
>  <minimizedAffinity>
-6.73688078

$$$$

 OpenBabel03252507343D

 48 51  0  0  1  0  0  0  0  0999 V2000
   39.3170   27.1960   40.4020 C   0  0  0  0  0  0  0  0  0  0  0  0
   39.5270   25.9920   39.7470 C   0  0  0  0  0  0  0  0  0  0  0  0
   40.2770   25.9710   38.5460 C   0  0  0  0  0  0  0  0  0  0  0  0
   40.7610   27.1950   38.0960 N   0  0  0  0  0  0  0  0  0  0  0  0
   40.5180   28.3210   38.7760 C   0  0  0  0  0  0  0  0  0  0  0  0
   39.8110   28.3250   39.9070 N   0  0  0  0  0  0  0  0  0  0  0  0
   39.2320   24.9710   39.8830 H   0  0  0  0  0  0  0  0  0  0  0  0
   40.5380   25.1580   37.9190 H   0  0  0  0  0  0  0  0  0  0  0  0
   38.5620   27.1600   41.6370 C   0  0  2  0  0  0  0  0  0  0  0  0
   37.3190   26.2240   41.5170 C   0  0  0  0  0  0  0  0  0  0  0  0
   36.6640   26.0940   42.8470 C   0  0  0  0  0  0  0  0  0  0  0  0
   36.5160   27.3520   43.6330 C   0  0  0  0  0  0  0  0  0  0  0  0
   37.6150   28.2760   43.5090 C   0  0  0  0  0  0  0  0  0  0  0  0
   38.1070   28.4690   42.0580 C   0  0  2  0  0  0  0  0  0  0  0  0
   39.1680   26.6430   42.4100 H   0  0  0  0  0  0  0  0  0  0  0  0
   37.7560   25.2560   41.1970 H   0  0  0  0  0  0  0  0  0  0  0  0
   36.6620   26.5540   40.6980 H   0  0  0  0  0  0  0  0  0  0  0  0
   35.6120   25.7340   42.6460 H   0  0  0  0  0  0  0  0  0  0  0  0
   37.1390   25.2350   43.3530 H   0  0  0  0  0  0  0  0  0  0  0  0
   35.5080   27.6650   43.9200 H   0  0  0  0  0  0  0  0  0  0  0  0
   36.7500   26.9310   44.6920 H   0  0  0  0  0  0  0  0  0  0  0  0
   38.5490   28.0990   44.0850 H   0  0  0  0  0  0  0  0  0  0  0  0
   37.2860   29.3070   43.8240 H   0  0  0  0  0  0  0  0  0  0  0  0
   38.8450   29.2620   42.1920 H   0  0  0  0  0  0  0  0  0  0  0  0
   36.9740   28.8950   41.2330 N   0  0  0  0  0  0  0  0  0  0  0  0
   36.6760   30.1250   40.6260 C   0  0  0  0  0  0  0  0  0  0  0  0
   37.2440   30.5290   39.5480 O   0  0  0  0  0  0  0  0  0  0  0  0
   35.6790   30.8990   41.2950 N   0  0  0  0  0  0  0  0  0  0  0  0
   36.1260   28.2390   41.0430 H   0  0  0  0  0  0  0  0  0  0  0  0
   34.7130   30.6120   41.5860 H   0  0  0  0  0  0  0  0  0  0  0  0
   35.7800   31.8940   41.5970 H   0  0  0  0  0  0  0  0  0  0  0  0
   41.0390   29.5840   38.2370 C   0  0  0  0  0  0  0  0  0  0  0  0
   41.9010   29.5920   37.1620 C   0  0  0  0  0  0  0  0  0  0  0  0
   42.4350   30.7250   36.5970 C   0  0  0  0  0  0  0  0  0  0  0  0
   42.0340   31.9080   37.2020 C   0  0  0  0  0  0  0  0  0  0  0  0
   41.1740   31.9230   38.2750 C   0  0  0  0  0  0  0  0  0  0  0  0
   40.6760   30.7500   38.7920 N   0  0  0  0  0  0  0  0  0  0  0  0
   42.1650   28.6270   36.7490 H   0  0  0  0  0  0  0  0  0  0  0  0
   43.1080   30.7370   35.7580 H   0  0  0  0  0  0  0  0  0  0  0  0
   42.4110   32.8320   36.8130 H   0  0  0  0  0  0  0  0  0  0  0  0
   40.7220   33.1370   38.9460 C   0  0  0  0  0  0  0  0  0  0  0  0
   39.5800   33.1750   39.7200 C   0  0  0  0  0  0  0  0  0  0  0  0
   38.9770   32.3050   39.8570 H   0  0  0  0  0  0  0  0  0  0  0  0
   39.1060   34.2910   40.3760 C   0  0  0  0  0  0  0  0  0  0  0  0
   38.2060   34.2850   40.9750 H   0  0  0  0  0  0  0  0  0  0  0  0
   39.8080   35.4740   40.2680 C   0  0  0  0  0  3  0  0  0  0  0  0
   40.9490   35.4270   39.4930 C   0  0  0  0  0  3  0  0  0  0  0  0
   41.3730   34.3130   38.8710 N   0  0  0  0  0  0  0  0  0  0  0  0
  1  9  1  0  0  0  0
  2  7  1  0  0  0  0
  2  1  2  0  0  0  0
  3  2  1  0  0  0  0
  4  3  2  0  0  0  0
  4  5  1  0  0  0  0
  5  6  2  0  0  0  0
  6  1  1  0  0  0  0
  8  3  1  0  0  0  0
  9 14  1  0  0  0  0
  9 15  1  1  0  0  0
 10  9  1  0  0  0  0
 10 11  1  0  0  0  0
 11 19  1  0  0  0  0
 11 12  1  0  0  0  0
 12 20  1  0  0  0  0
 12 21  1  0  0  0  0
 13 12  1  0  0  0  0
 13 23  1  0  0  0  0
 13 22  1  0  0  0  0
 14 24  1  6  0  0  0
 14 13  1  0  0  0  0
 16 10  1  0  0  0  0
 17 10  1  0  0  0  0
 18 11  1  0  0  0  0
 25 14  1  0  0  0  0
 26 25  1  0  0  0  0
 26 28  1  0  0  0  0
 27 26  2  0  0  0  0
 28 30  1  0  0  0  0
 28 31  1  0  0  0  0
 29 25  1  0  0  0  0
 32  5  1  0  0  0  0
 32 37  1  0  0  0  0
 33 32  2  0  0  0  0
 34 33  1  0  0  0  0
 34 35  2  0  0  0  0
 35 36  1  0  0  0  0
 36 37  2  0  0  0  0
 36 41  1  0  0  0  0
 38 33  1  0  0  0  0
 39 34  1  0  0  0  0
 40 35  1  0  0  0  0
 41 42  1  0  0  0  0
 42 43  1  0  0  0  0
 42 44  2  0  0  0  0
 44 45  1  0  0  0  0
 46 44  1  0  0  0  0
 47 46  2  0  0  0  0
 48 41  2  0  0  0  0
 48 47  1  0  0  0  0
M  END
>  <minimizedAffinity>
-6.6697793

$$$$

 OpenBabel03252507343D

 48 51  0  0  1  0  0  0  0  0999 V2000
   40.7670   31.6840   41.1190 C   0  0  0  0  0  0  0  0  0  0  0  0
   41.8700   32.4750   41.4060 C   0  0  0  0  0  0  0  0  0  0  0  0
   42.9080   31.9580   42.2180 C   0  0  0  0  0  0  0  0  0  0  0  0
   42.7420   30.6570   42.6840 N   0  0  0  0  0  0  0  0  0  0  0  0
   41.6500   29.9500   42.3710 C   0  0  0  0  0  0  0  0  0  0  0  0
   40.6800   30.4510   41.6030 N   0  0  0  0  0  0  0  0  0  0  0  0
   42.1840   33.4760   41.1950 H   0  0  0  0  0  0  0  0  0  0  0  0
   43.8130   32.4060   42.5360 H   0  0  0  0  0  0  0  0  0  0  0  0
   39.7440   32.2520   40.2670 C   0  0  2  0  0  0  0  0  0  0  0  0
   39.0910   33.5090   40.9220 C   0  0  0  0  0  0  0  0  0  0  0  0
   38.1610   34.1490   39.9520 C   0  0  0  0  0  0  0  0  0  0  0  0
   37.2790   33.2280   39.1800 C   0  0  0  0  0  0  0  0  0  0  0  0
   37.8900   31.9780   38.8050 C   0  0  0  0  0  0  0  0  0  0  0  0
   38.6930   31.3090   39.9430 C   0  0  2  0  0  0  0  0  0  0  0  0
   40.2290   32.6850   39.3680 H   0  0  0  0  0  0  0  0  0  0  0  0
   39.9580   34.1690   41.1310 H   0  0  0  0  0  0  0  0  0  0  0  0
   38.6520   33.2540   41.8980 H   0  0  0  0  0  0  0  0  0  0  0  0
   37.4650   34.7970   40.5630 H   0  0  0  0  0  0  0  0  0  0  0  0
   38.7560   34.8800   39.3760 H   0  0  0  0  0  0  0  0  0  0  0  0
   36.1960   33.3560   39.2700 H   0  0  0  0  0  0  0  0  0  0  0  0
   37.3160   33.7660   38.1490 H   0  0  0  0  0  0  0  0  0  0  0  0
   38.5820   31.9430   37.9360 H   0  0  0  0  0  0  0  0  0  0  0  0
   37.0930   31.2220   38.5550 H   0  0  0  0  0  0  0  0  0  0  0  0
   38.9640   30.3610   39.4770 H   0  0  0  0  0  0  0  0  0  0  0  0
   37.8080   31.1310   41.0970 N   0  0  0  0  0  0  0  0  0  0  0  0
   36.8130   30.1770   41.3670 C   0  0  0  0  0  0  0  0  0  0  0  0
   37.0770   28.9800   41.7470 O   0  0  0  0  0  0  0  0  0  0  0  0
   35.4740   30.6430   41.1970 N   0  0  0  0  0  0  0  0  0  0  0  0
   37.7920   31.8410   41.9220 H   0  0  0  0  0  0  0  0  0  0  0  0
   35.0170   31.4910   41.6130 H   0  0  0  0  0  0  0  0  0  0  0  0
   34.7380   30.1850   40.6140 H   0  0  0  0  0  0  0  0  0  0  0  0
   41.5240   28.5910   42.9120 C   0  0  0  0  0  0  0  0  0  0  0  0
   42.3600   28.1480   43.9140 C   0  0  0  0  0  0  0  0  0  0  0  0
   42.3110   26.8950   44.4760 C   0  0  0  0  0  0  0  0  0  0  0  0
   41.3280   26.0710   43.9470 C   0  0  0  0  0  0  0  0  0  0  0  0
   40.4830   26.4920   42.9470 C   0  0  0  0  0  0  0  0  0  0  0  0
   40.5860   27.7620   42.4300 N   0  0  0  0  0  0  0  0  0  0  0  0
   43.1000   28.8530   44.2700 H   0  0  0  0  0  0  0  0  0  0  0  0
   42.9610   26.5450   45.2580 H   0  0  0  0  0  0  0  0  0  0  0  0
   41.2310   25.0770   44.3380 H   0  0  0  0  0  0  0  0  0  0  0  0
   39.4340   25.6660   42.3570 C   0  0  0  0  0  0  0  0  0  0  0  0
   38.0950   25.8720   42.6180 C   0  0  0  0  0  0  0  0  0  0  0  0
   37.7720   26.6530   43.2700 H   0  0  0  0  0  0  0  0  0  0  0  0
   37.0630   25.1240   42.0910 C   0  0  0  0  0  0  0  0  0  0  0  0
   36.0230   25.3130   42.3170 H   0  0  0  0  0  0  0  0  0  0  0  0
   37.3650   24.0860   41.2340 C   0  0  0  0  0  3  0  0  0  0  0  0
   38.7060   23.8880   40.9780 C   0  0  0  0  0  3  0  0  0  0  0  0
   39.6790   24.6440   41.5170 N   0  0  0  0  0  0  0  0  0  0  0  0
  1  2  2  0  0  0  0
  1  6  1  0  0  0  0
  2  3  1  0  0  0  0
  3  8  1  0  0  0  0
  3  4  2  0  0  0  0
  5  4  1  0  0  0  0
  5 32  1  0  0  0  0
  6  5  2  0  0  0  0
  7  2  1  0  0  0  0
  9 15  1  6  0  0  0
  9 10  1  0  0  0  0
  9  1  1  0  0  0  0
 10 16  1  0  0  0  0
 10 17  1  0  0  0  0
 11 18  1  0  0  0  0
 11 10  1  0  0  0  0
 12 20  1  0  0  0  0
 12 11  1  0  0  0  0
 13 12  1  0  0  0  0
 13 14  1  0  0  0  0
 14 24  1  6  0  0  0
 14  9  1  0  0  0  0
 14 25  1  0  0  0  0
 19 11  1  0  0  0  0
 21 12  1  0  0  0  0
 22 13  1  0  0  0  0
 23 13  1  0  0  0  0
 25 26  1  0  0  0  0
 25 29  1  0  0  0  0
 26 27  2  0  0  0  0
 28 26  1  0  0  0  0
 28 30  1  0  0  0  0
 31 28  1  0  0  0  0
 32 33  1  0  0  0  0
 33 38  1  0  0  0  0
 33 34  2  0  0  0  0
 34 39  1  0  0  0  0
 35 40  1  0  0  0  0
 35 34  1  0  0  0  0
 36 35  2  0  0  0  0
 37 32  2  0  0  0  0
 37 36  1  0  0  0  0
 41 42  1  0  0  0  0
 41 36  1  0  0  0  0
 42 43  1  0  0  0  0
 44 45  1  0  0  0  0
 44 42  2  0  0  0  0
 46 44  1  0  0  0  0
 47 46  2  0  0  0  0
 47 48  1  0  0  0  0
 48 41  2  0  0  0  0
M  END
>  <minimizedAffinity>
-6.63182783

$$$$

 OpenBabel03252507343D

 48 51  0  0  1  0  0  0  0  0999 V2000
   41.8480   33.7330   39.8130 C   0  0  0  0  0  0  0  0  0  0  0  0
   41.4800   35.0650   39.6970 C   0  0  0  0  0  0  0  0  0  0  0  0
   40.1400   35.4450   39.9510 C   0  0  0  0  0  0  0  0  0  0  0  0
   39.2640   34.4240   40.3090 N   0  0  0  0  0  0  0  0  0  0  0  0
   39.6850   33.1580   40.4000 C   0  0  0  0  0  0  0  0  0  0  0  0
   40.9520   32.8160   40.1580 N   0  0  0  0  0  0  0  0  0  0  0  0
   41.9550   35.9810   39.4120 H   0  0  0  0  0  0  0  0  0  0  0  0
   39.6830   36.3990   39.9160 H   0  0  0  0  0  0  0  0  0  0  0  0
   43.2350   33.4010   39.5630 C   0  0  2  0  0  0  0  0  0  0  0  0
   43.8930   34.4150   38.5770 C   0  0  0  0  0  0  0  0  0  0  0  0
   45.3510   34.1300   38.4700 C   0  0  0  0  0  0  0  0  0  0  0  0
   45.7330   32.6940   38.3520 C   0  0  0  0  0  0  0  0  0  0  0  0
   44.9230   31.7870   39.1230 C   0  0  0  0  0  0  0  0  0  0  0  0
   43.4070   32.0660   39.0260 C   0  0  2  0  0  0  0  0  0  0  0  0
   43.8150   33.5710   40.4930 H   0  0  0  0  0  0  0  0  0  0  0  0
   43.7190   35.3970   39.0640 H   0  0  0  0  0  0  0  0  0  0  0  0
   43.3470   34.4400   37.6230 H   0  0  0  0  0  0  0  0  0  0  0  0
   45.6980   34.6190   37.5120 H   0  0  0  0  0  0  0  0  0  0  0  0
   45.8490   34.7230   39.2580 H   0  0  0  0  0  0  0  0  0  0  0  0
   46.2940   32.3830   37.4660 H   0  0  0  0  0  0  0  0  0  0  0  0
   46.6840   32.7060   39.0230 H   0  0  0  0  0  0  0  0  0  0  0  0
   45.1030   31.6800   40.2150 H   0  0  0  0  0  0  0  0  0  0  0  0
   45.0320   30.7400   38.7210 H   0  0  0  0  0  0  0  0  0  0  0  0
   43.0020   31.2210   39.5830 H   0  0  0  0  0  0  0  0  0  0  0  0
   43.0170   32.0420   37.6140 N   0  0  0  0  0  0  0  0  0  0  0  0
   41.9130   31.4660   36.9640 C   0  0  0  0  0  0  0  0  0  0  0  0
   40.7400   31.9870   36.9830 O   0  0  0  0  0  0  0  0  0  0  0  0
   42.1940   30.2520   36.2660 N   0  0  0  0  0  0  0  0  0  0  0  0
   43.6530   32.4620   36.8360 H   0  0  0  0  0  0  0  0  0  0  0  0
   42.9340   30.0660   35.5450 H   0  0  0  0  0  0  0  0  0  0  0  0
   41.6810   29.3490   36.3810 H   0  0  0  0  0  0  0  0  0  0  0  0
   38.7070   32.1250   40.7620 C   0  0  0  0  0  0  0  0  0  0  0  0
   37.3810   32.2510   40.4080 C   0  0  0  0  0  0  0  0  0  0  0  0
   36.4010   31.3350   40.7050 C   0  0  0  0  0  0  0  0  0  0  0  0
   36.8510   30.2290   41.4140 C   0  0  0  0  0  0  0  0  0  0  0  0
   38.1700   30.0820   41.7760 C   0  0  0  0  0  0  0  0  0  0  0  0
   39.0990   31.0400   41.4450 N   0  0  0  0  0  0  0  0  0  0  0  0
   37.1130   33.1430   39.8570 H   0  0  0  0  0  0  0  0  0  0  0  0
   35.3650   31.4290   40.4320 H   0  0  0  0  0  0  0  0  0  0  0  0
   36.1410   29.4720   41.6800 H   0  0  0  0  0  0  0  0  0  0  0  0
   38.6930   28.9410   42.5200 C   0  0  0  0  0  0  0  0  0  0  0  0
   37.8890   28.1260   43.2890 C   0  0  0  0  0  0  0  0  0  0  0  0
   36.8400   28.3020   43.3700 H   0  0  0  0  0  0  0  0  0  0  0  0
   38.3280   27.0370   44.0120 C   0  0  0  0  0  0  0  0  0  0  0  0
   37.6690   26.4180   44.6050 H   0  0  0  0  0  0  0  0  0  0  0  0
   39.6690   26.7150   43.9800 C   0  0  0  0  0  3  0  0  0  0  0  0
   40.4660   27.5340   43.2080 C   0  0  0  0  0  3  0  0  0  0  0  0
   39.9920   28.5880   42.5200 N   0  0  0  0  0  0  0  0  0  0  0  0
  1  6  1  0  0  0  0
  2  1  2  0  0  0  0
  2  3  1  0  0  0  0
  3  4  2  0  0  0  0
  4  5  1  0  0  0  0
  5 32  1  0  0  0  0
  6  5  2  0  0  0  0
  7  2  1  0  0  0  0
  8  3  1  0  0  0  0
  9  1  1  0  0  0  0
  9 15  1  1  0  0  0
 10 16  1  0  0  0  0
 10  9  1  0  0  0  0
 11 10  1  0  0  0  0
 11 19  1  0  0  0  0
 12 11  1  0  0  0  0
 12 21  1  0  0  0  0
 12 13  1  0  0  0  0
 13 22  1  0  0  0  0
 14 13  1  0  0  0  0
 14  9  1  0  0  0  0
 14 24  1  1  0  0  0
 17 10  1  0  0  0  0
 18 11  1  0  0  0  0
 20 12  1  0  0  0  0
 23 13  1  0  0  0  0
 25 14  1  0  0  0  0
 26 27  2  0  0  0  0
 26 25  1  0  0  0  0
 28 31  1  0  0  0  0
 28 26  1  0  0  0  0
 29 25  1  0  0  0  0
 30 28  1  0  0  0  0
 32 37  1  0  0  0  0
 33 34  1  0  0  0  0
 33 32  2  0  0  0  0
 34 35  2  0  0  0  0
 35 40  1  0  0  0  0
 35 36  1  0  0  0  0
 36 41  1  0  0  0  0
 37 36  2  0  0  0  0
 38 33  1  0  0  0  0
 39 34  1  0  0  0  0
 41 48  2  0  0  0  0
 41 42  1  0  0  0  0
 42 43  1  0  0  0  0
 42 44  2  0  0  0  0
 44 45  1  0  0  0  0
 46 44  1  0  0  0  0
 47 46  2  0  0  0  0
 48 47  1  0  0  0  0
M  END
>  <minimizedAffinity>
-6.60559845

$$$$

 OpenBabel03252507343D

 48 51  0  0  1  0  0  0  0  0999 V2000
   38.1780   27.4880   39.0640 C   0  0  0  0  0  0  0  0  0  0  0  0
   38.2230   27.1880   37.7100 C   0  0  0  0  0  0  0  0  0  0  0  0
   38.3240   28.2370   36.7650 C   0  0  0  0  0  0  0  0  0  0  0  0
   38.3710   29.5300   37.2760 N   0  0  0  0  0  0  0  0  0  0  0  0
   38.3200   29.7490   38.5950 C   0  0  0  0  0  0  0  0  0  0  0  0
   38.2270   28.7500   39.4740 N   0  0  0  0  0  0  0  0  0  0  0  0
   38.1680   26.3050   37.1080 H   0  0  0  0  0  0  0  0  0  0  0  0
   38.3730   28.2000   35.7080 H   0  0  0  0  0  0  0  0  0  0  0  0
   38.0970   26.3770   39.9900 C   0  0  2  0  0  0  0  0  0  0  0  0
   36.6950   25.6950   39.9370 C   0  0  0  0  0  0  0  0  0  0  0  0
   36.7060   24.4710   40.7840 C   0  0  0  0  0  0  0  0  0  0  0  0
   37.3710   24.5960   42.1120 C   0  0  0  0  0  0  0  0  0  0  0  0
   38.5410   25.4370   42.1260 C   0  0  0  0  0  0  0  0  0  0  0  0
   38.3640   26.7660   41.3600 C   0  0  2  0  0  0  0  0  0  0  0  0
   38.7640   25.5660   39.6320 H   0  0  0  0  0  0  0  0  0  0  0  0
   36.5780   25.4310   38.8660 H   0  0  0  0  0  0  0  0  0  0  0  0
   35.9010   26.4200   40.1670 H   0  0  0  0  0  0  0  0  0  0  0  0
   35.6240   24.2320   41.0060 H   0  0  0  0  0  0  0  0  0  0  0  0
   37.0270   23.6370   40.1340 H   0  0  0  0  0  0  0  0  0  0  0  0
   36.7760   24.3920   43.0070 H   0  0  0  0  0  0  0  0  0  0  0  0
   37.8930   23.5560   42.1500 H   0  0  0  0  0  0  0  0  0  0  0  0
   39.5080   25.0400   41.7490 H   0  0  0  0  0  0  0  0  0  0  0  0
   38.7670   25.7600   43.1820 H   0  0  0  0  0  0  0  0  0  0  0  0
   39.3060   27.2660   41.5890 H   0  0  0  0  0  0  0  0  0  0  0  0
   37.2060   27.4740   41.9130 N   0  0  0  0  0  0  0  0  0  0  0  0
   37.1160   28.5420   42.8200 C   0  0  0  0  0  0  0  0  0  0  0  0
   37.3440   29.7610   42.4900 O   0  0  0  0  0  0  0  0  0  0  0  0
   36.7410   28.1710   44.1470 N   0  0  0  0  0  0  0  0  0  0  0  0
   36.1870   27.1610   41.6960 H   0  0  0  0  0  0  0  0  0  0  0  0
   35.9140   27.6080   44.4620 H   0  0  0  0  0  0  0  0  0  0  0  0
   37.2600   28.4200   45.0200 H   0  0  0  0  0  0  0  0  0  0  0  0
   38.3530   31.1380   39.0700 C   0  0  0  0  0  0  0  0  0  0  0  0
   37.2390   31.9440   38.9770 C   0  0  0  0  0  0  0  0  0  0  0  0
   37.1830   33.2510   39.3950 C   0  0  0  0  0  0  0  0  0  0  0  0
   38.3680   33.7270   39.9400 C   0  0  0  0  0  0  0  0  0  0  0  0
   39.4910   32.9400   40.0430 C   0  0  0  0  0  0  0  0  0  0  0  0
   39.4770   31.6370   39.6040 N   0  0  0  0  0  0  0  0  0  0  0  0
   36.3570   31.4960   38.5390 H   0  0  0  0  0  0  0  0  0  0  0  0
   36.3170   33.8850   39.3250 H   0  0  0  0  0  0  0  0  0  0  0  0
   38.3980   34.7400   40.2880 H   0  0  0  0  0  0  0  0  0  0  0  0
   40.7590   33.3910   40.6070 C   0  0  0  0  0  0  0  0  0  0  0  0
   41.6670   32.5230   41.1780 C   0  0  0  0  0  0  0  0  0  0  0  0
   41.4720   31.4750   41.2290 H   0  0  0  0  0  0  0  0  0  0  0  0
   42.8770   32.8920   41.7250 C   0  0  0  0  0  0  0  0  0  0  0  0
   43.5660   32.1840   42.1650 H   0  0  0  0  0  0  0  0  0  0  0  0
   43.2330   34.2250   41.7120 C   0  0  0  0  0  3  0  0  0  0  0  0
   42.3210   35.0860   41.1390 C   0  0  0  0  0  3  0  0  0  0  0  0
   41.1500   34.6790   40.6180 N   0  0  0  0  0  0  0  0  0  0  0  0
  1  6  1  0  0  0  0
  1  9  1  0  0  0  0
  2  1  2  0  0  0  0
  3  4  2  0  0  0  0
  3  2  1  0  0  0  0
  4  5  1  0  0  0  0
  5 32  1  0  0  0  0
  5  6  2  0  0  0  0
  7  2  1  0  0  0  0
  8  3  1  0  0  0  0
  9 15  1  6  0  0  0
  9 14  1  0  0  0  0
 10  9  1  0  0  0  0
 10 17  1  0  0  0  0
 10 11  1  0  0  0  0
 11 18  1  0  0  0  0
 11 12  1  0  0  0  0
 12 13  1  0  0  0  0
 12 21  1  0  0  0  0
 12 20  1  0  0  0  0
 13 23  1  0  0  0  0
 14 24  1  1  0  0  0
 14 25  1  0  0  0  0
 14 13  1  0  0  0  0
 16 10  1  0  0  0  0
 19 11  1  0  0  0  0
 22 13  1  0  0  0  0
 25 26  1  0  0  0  0
 26 28  1  0  0  0  0
 27 26  2  0  0  0  0
 28 30  1  0  0  0  0
 28 31  1  0  0  0  0
 29 25  1  0  0  0  0
 32 37  1  0  0  0  0
 33 32  2  0  0  0  0
 33 34  1  0  0  0  0
 34 35  2  0  0  0  0
 35 36  1  0  0  0  0
 35 40  1  0  0  0  0
 36 41  1  0  0  0  0
 37 36  2  0  0  0  0
 38 33  1  0  0  0  0
 39 34  1  0  0  0  0
 41 48  2  0  0  0  0
 41 42  1  0  0  0  0
 42 43  1  0  0  0  0
 42 44  2  0  0  0  0
 44 45  1  0  0  0  0
 46 44  1  0  0  0  0
 47 46  2  0  0  0  0
 48 47  1  0  0  0  0
M  END
>  <minimizedAffinity>
-6.59604883

$$$$
