
 OpenBabel03242513023D

 30 33  0  0  0  0  0  0  0  0999 V2000
   37.3730   27.8760   43.6800 C   0  0  0  0  0  0  0  0  0  0  0  0
   37.0620   26.8090   42.8350 C   0  0  0  0  0  0  0  0  0  0  0  0
   37.0460   27.0630   41.4590 C   0  0  0  0  0  0  0  0  0  0  0  0
   37.3300   28.3260   41.0050 N   0  0  0  0  0  0  0  0  0  0  0  0
   37.6270   29.3330   41.8630 C   0  0  0  0  0  0  0  0  0  0  0  0
   37.6470   29.1060   43.1830 N   0  0  0  0  0  0  0  0  0  0  0  0
   37.4000   27.7370   44.7440 H   0  0  0  0  0  0  0  0  0  0  0  0
   36.8520   25.8570   43.2590 H   0  0  0  0  0  0  0  0  0  0  0  0
   36.9610   31.3290   40.5950 C   0  0  0  0  0  0  0  0  0  0  0  0
   37.9190   30.6490   41.3110 C   0  0  0  0  0  0  0  0  0  0  0  0
   39.2020   31.1540   41.5530 C   0  0  0  0  0  0  0  0  0  0  0  0
   39.5420   32.4130   41.0480 C   0  0  0  0  0  0  0  0  0  0  0  0
   40.6350   33.2090   41.0690 N   0  0  0  0  0  0  0  0  0  0  0  0
   40.3660   34.3480   40.3880 C   0  0  0  0  0  0  0  0  0  0  0  0
   39.0830   34.2440   39.9430 N   0  0  0  0  0  0  0  0  0  0  0  0
   38.5690   33.0710   40.3370 C   0  0  0  0  0  0  0  0  0  0  0  0
   37.2980   32.5930   40.0870 C   0  0  0  0  0  0  0  0  0  0  0  0
   35.9920   30.8610   40.4560 H   0  0  0  0  0  0  0  0  0  0  0  0
   39.9540   30.6250   42.1120 H   0  0  0  0  0  0  0  0  0  0  0  0
   41.5090   32.8830   41.5730 H   0  0  0  0  0  0  0  0  0  0  0  0
   41.0980   35.1310   40.2760 H   0  0  0  0  0  0  0  0  0  0  0  0
   36.5470   33.1060   39.5350 H   0  0  0  0  0  0  0  0  0  0  0  0
   36.7250   25.9770   40.5370 C   0  0  0  0  0  0  0  0  0  0  0  0
   36.8650   24.6790   40.9670 C   0  0  0  0  0  0  0  0  0  0  0  0
   37.2070   24.4810   41.9730 H   0  0  0  0  0  0  0  0  0  0  0  0
   36.5410   23.7120   40.0340 C   0  0  0  0  0  0  0  0  0  0  0  0
   36.6320   22.6770   40.3150 H   0  0  0  0  0  0  0  0  0  0  0  0
   36.1080   24.0680   38.7550 C   0  0  0  0  0  3  0  0  0  0  0  0
   35.9870   25.4110   38.3780 C   0  0  0  0  0  3  0  0  0  0  0  0
   36.3110   26.3500   39.3140 N   0  0  0  0  0  0  0  0  0  0  0  0
  1  7  1  0  0  0  0
  2  8  1  0  0  0  0
  2  1  2  0  0  0  0
  3  2  1  0  0  0  0
  4  3  2  0  0  0  0
  4  5  1  0  0  0  0
  5  6  2  0  0  0  0
  6  1  1  0  0  0  0
  9 10  1  0  0  0  0
 10 11  2  0  0  0  0
 10  5  1  0  0  0  0
 11 19  1  0  0  0  0
 12 13  1  0  0  0  0
 12 11  1  0  0  0  0
 13 20  1  0  0  0  0
 14 13  1  0  0  0  0
 15 16  1  0  0  0  0
 15 14  2  0  0  0  0
 16 12  2  0  0  0  0
 17 16  1  0  0  0  0
 17  9  2  0  0  0  0
 18  9  1  0  0  0  0
 21 14  1  0  0  0  0
 22 17  1  0  0  0  0
 23 24  1  0  0  0  0
 23  3  1  0  0  0  0
 24 25  1  0  0  0  0
 26 27  1  0  0  0  0
 26 24  2  0  0  0  0
 28 26  1  0  0  0  0
 29 28  2  0  0  0  0
 29 30  1  0  0  0  0
 30 23  2  0  0  0  0
M  END
>  <minimizedAffinity>
-6.02392197

$$$$

 OpenBabel03242513023D

 30 33  0  0  0  0  0  0  0  0999 V2000
   38.7940   27.0360   43.5150 C   0  0  0  0  0  0  0  0  0  0  0  0
   38.1240   26.1300   42.6920 C   0  0  0  0  0  0  0  0  0  0  0  0
   37.6530   26.6050   41.4620 C   0  0  0  0  0  0  0  0  0  0  0  0
   37.8670   27.9170   41.1230 N   0  0  0  0  0  0  0  0  0  0  0  0
   38.5230   28.7620   41.9560 C   0  0  0  0  0  0  0  0  0  0  0  0
   38.9790   28.3230   43.1360 N   0  0  0  0  0  0  0  0  0  0  0  0
   39.1750   26.7240   44.4690 H   0  0  0  0  0  0  0  0  0  0  0  0
   37.9960   25.1270   43.0210 H   0  0  0  0  0  0  0  0  0  0  0  0
   39.9360   30.7540   41.6840 C   0  0  0  0  0  0  0  0  0  0  0  0
   38.7130   30.1430   41.5310 C   0  0  0  0  0  0  0  0  0  0  0  0
   37.5980   30.7820   40.9750 C   0  0  0  0  0  0  0  0  0  0  0  0
   37.7180   32.1080   40.5490 C   0  0  0  0  0  0  0  0  0  0  0  0
   36.9030   33.0290   39.9850 N   0  0  0  0  0  0  0  0  0  0  0  0
   37.5970   34.1750   39.7940 C   0  0  0  0  0  0  0  0  0  0  0  0
   38.8610   33.9490   40.2490 N   0  0  0  0  0  0  0  0  0  0  0  0
   38.9480   32.6950   40.7130 C   0  0  0  0  0  0  0  0  0  0  0  0
   40.0610   32.0840   41.2570 C   0  0  0  0  0  0  0  0  0  0  0  0
   40.7470   30.1820   42.1250 H   0  0  0  0  0  0  0  0  0  0  0  0
   36.6400   30.3070   40.8540 H   0  0  0  0  0  0  0  0  0  0  0  0
   35.8970   32.7740   39.7730 H   0  0  0  0  0  0  0  0  0  0  0  0
   37.1440   35.0480   39.3540 H   0  0  0  0  0  0  0  0  0  0  0  0
   41.0130   32.5430   41.3820 H   0  0  0  0  0  0  0  0  0  0  0  0
   36.9470   25.6930   40.5680 C   0  0  0  0  0  0  0  0  0  0  0  0
   36.6990   24.4090   40.9910 C   0  0  0  0  0  0  0  0  0  0  0  0
   37.0270   24.0940   41.9710 H   0  0  0  0  0  0  0  0  0  0  0  0
   36.0250   23.6100   40.0850 C   0  0  0  0  0  0  0  0  0  0  0  0
   35.8040   22.5950   40.3620 H   0  0  0  0  0  0  0  0  0  0  0  0
   35.6410   24.1100   38.8390 C   0  0  0  0  0  3  0  0  0  0  0  0
   35.9250   25.4300   38.4680 C   0  0  0  0  0  3  0  0  0  0  0  0
   36.5900   26.2000   39.3750 N   0  0  0  0  0  0  0  0  0  0  0  0
  1  7  1  0  0  0  0
  2  8  1  0  0  0  0
  2  1  2  0  0  0  0
  3  2  1  0  0  0  0
  4  3  2  0  0  0  0
  4  5  1  0  0  0  0
  5  6  2  0  0  0  0
  6  1  1  0  0  0  0
  9 18  1  0  0  0  0
 10  9  1  0  0  0  0
 10  5  1  0  0  0  0
 11 10  2  0  0  0  0
 12 16  2  0  0  0  0
 12 11  1  0  0  0  0
 13 12  1  0  0  0  0
 14 13  1  0  0  0  0
 14 15  2  0  0  0  0
 15 16  1  0  0  0  0
 16 17  1  0  0  0  0
 17 22  1  0  0  0  0
 17  9  2  0  0  0  0
 19 11  1  0  0  0  0
 20 13  1  0  0  0  0
 21 14  1  0  0  0  0
 23 24  1  0  0  0  0
 23  3  1  0  0  0  0
 24 25  1  0  0  0  0
 26 27  1  0  0  0  0
 26 24  2  0  0  0  0
 28 26  1  0  0  0  0
 29 28  2  0  0  0  0
 29 30  1  0  0  0  0
 30 23  2  0  0  0  0
M  END
>  <minimizedAffinity>
-5.72172546

$$$$

 OpenBabel03242513023D

 30 33  0  0  0  0  0  0  0  0999 V2000
   39.3160   27.2620   43.5290 C   0  0  0  0  0  0  0  0  0  0  0  0
   38.8600   26.1160   42.8760 C   0  0  0  0  0  0  0  0  0  0  0  0
   38.1450   26.2960   41.6860 C   0  0  0  0  0  0  0  0  0  0  0  0
   37.9260   27.5680   41.2190 N   0  0  0  0  0  0  0  0  0  0  0  0
   38.3890   28.6530   41.8880 C   0  0  0  0  0  0  0  0  0  0  0  0
   39.0750   28.4970   43.0280 N   0  0  0  0  0  0  0  0  0  0  0  0
   39.8700   27.1820   44.4450 H   0  0  0  0  0  0  0  0  0  0  0  0
   39.0670   25.1620   43.2970 H   0  0  0  0  0  0  0  0  0  0  0  0
   36.9700   30.2040   40.6150 C   0  0  0  0  0  0  0  0  0  0  0  0
   38.1200   29.9740   41.3340 C   0  0  0  0  0  0  0  0  0  0  0  0
   39.0850   30.9590   41.5780 C   0  0  0  0  0  0  0  0  0  0  0  0
   38.8830   32.2460   41.0720 C   0  0  0  0  0  0  0  0  0  0  0  0
   39.5570   33.4190   41.0940 N   0  0  0  0  0  0  0  0  0  0  0  0
   38.8480   34.3480   40.4100 C   0  0  0  0  0  0  0  0  0  0  0  0
   37.7190   33.7300   39.9640 N   0  0  0  0  0  0  0  0  0  0  0  0
   37.7280   32.4500   40.3580 C   0  0  0  0  0  0  0  0  0  0  0  0
   36.7630   31.4940   40.1060 C   0  0  0  0  0  0  0  0  0  0  0  0
   36.2760   29.3810   40.4750 H   0  0  0  0  0  0  0  0  0  0  0  0
   39.9860   30.7820   42.1390 H   0  0  0  0  0  0  0  0  0  0  0  0
   40.4860   33.4770   41.5990 H   0  0  0  0  0  0  0  0  0  0  0  0
   39.1970   35.3620   40.2980 H   0  0  0  0  0  0  0  0  0  0  0  0
   35.8690   31.6570   39.5520 H   0  0  0  0  0  0  0  0  0  0  0  0
   37.6470   25.1270   40.9680 C   0  0  0  0  0  0  0  0  0  0  0  0
   36.6300   25.2910   40.0580 C   0  0  0  0  0  0  0  0  0  0  0  0
   36.2160   26.2740   39.8870 H   0  0  0  0  0  0  0  0  0  0  0  0
   36.2180   24.1340   39.4220 C   0  0  0  0  0  0  0  0  0  0  0  0
   35.4240   24.2020   38.6990 H   0  0  0  0  0  0  0  0  0  0  0  0
   36.8160   22.9060   39.7110 C   0  0  0  0  0  3  0  0  0  0  0  0
   37.8500   22.8070   40.6510 C   0  0  0  0  0  3  0  0  0  0  0  0
   38.2420   23.9590   41.2660 N   0  0  0  0  0  0  0  0  0  0  0  0
  1  7  1  0  0  0  0
  2  8  1  0  0  0  0
  2  1  2  0  0  0  0
  3  2  1  0  0  0  0
  4  3  2  0  0  0  0
  4  5  1  0  0  0  0
  5  6  2  0  0  0  0
  6  1  1  0  0  0  0
  9 10  1  0  0  0  0
 10 11  2  0  0  0  0
 10  5  1  0  0  0  0
 11 19  1  0  0  0  0
 12 13  1  0  0  0  0
 12 11  1  0  0  0  0
 13 20  1  0  0  0  0
 14 13  1  0  0  0  0
 15 16  1  0  0  0  0
 15 14  2  0  0  0  0
 16 12  2  0  0  0  0
 17 16  1  0  0  0  0
 17  9  2  0  0  0  0
 18  9  1  0  0  0  0
 21 14  1  0  0  0  0
 22 17  1  0  0  0  0
 23 30  1  0  0  0  0
 23  3  1  0  0  0  0
 24 23  2  0  0  0  0
 25 24  1  0  0  0  0
 26 28  2  0  0  0  0
 26 24  1  0  0  0  0
 27 26  1  0  0  0  0
 28 29  1  0  0  0  0
 29 30  2  0  0  0  0
M  END
>  <minimizedAffinity>
-5.67814493

$$$$

 OpenBabel03242513023D

 30 33  0  0  0  0  0  0  0  0999 V2000
   36.0490   30.3870   40.9230 C   0  0  0  0  0  0  0  0  0  0  0  0
   36.2410   29.0180   41.1130 C   0  0  0  0  0  0  0  0  0  0  0  0
   37.5420   28.5240   40.9630 C   0  0  0  0  0  0  0  0  0  0  0  0
   38.5560   29.3910   40.6410 N   0  0  0  0  0  0  0  0  0  0  0  0
   38.3220   30.7150   40.4650 C   0  0  0  0  0  0  0  0  0  0  0  0
   37.0830   31.2020   40.6060 N   0  0  0  0  0  0  0  0  0  0  0  0
   35.0710   30.8180   41.0260 H   0  0  0  0  0  0  0  0  0  0  0  0
   35.4070   28.4060   41.3610 H   0  0  0  0  0  0  0  0  0  0  0  0
   40.2590   32.0810   41.1130 C   0  0  0  0  0  0  0  0  0  0  0  0
   39.4460   31.5770   40.1240 C   0  0  0  0  0  0  0  0  0  0  0  0
   39.6320   31.8470   38.7630 C   0  0  0  0  0  0  0  0  0  0  0  0
   40.6940   32.6680   38.3730 C   0  0  0  0  0  0  0  0  0  0  0  0
   41.1820   33.1430   37.2040 N   0  0  0  0  0  0  0  0  0  0  0  0
   42.2640   33.9170   37.4580 C   0  0  0  0  0  0  0  0  0  0  0  0
   42.4390   33.9140   38.8090 N   0  0  0  0  0  0  0  0  0  0  0  0
   41.4910   33.1590   39.3790 C   0  0  0  0  0  0  0  0  0  0  0  0
   41.3260   32.9060   40.7260 C   0  0  0  0  0  0  0  0  0  0  0  0
   40.0400   31.8200   42.1440 H   0  0  0  0  0  0  0  0  0  0  0  0
   38.9990   31.4550   37.9870 H   0  0  0  0  0  0  0  0  0  0  0  0
   40.7060   32.8790   36.2950 H   0  0  0  0  0  0  0  0  0  0  0  0
   42.8150   34.4000   36.6690 H   0  0  0  0  0  0  0  0  0  0  0  0
   41.9450   33.2880   41.5020 H   0  0  0  0  0  0  0  0  0  0  0  0
   37.7920   27.0990   41.1520 C   0  0  0  0  0  0  0  0  0  0  0  0
   37.0420   26.4120   42.0770 C   0  0  0  0  0  0  0  0  0  0  0  0
   36.2860   26.9310   42.6470 H   0  0  0  0  0  0  0  0  0  0  0  0
   37.3410   25.0660   42.1940 C   0  0  0  0  0  0  0  0  0  0  0  0
   36.7860   24.4780   42.9040 H   0  0  0  0  0  0  0  0  0  0  0  0
   38.3390   24.4840   41.4110 C   0  0  0  0  0  3  0  0  0  0  0  0
   39.0680   25.2410   40.4850 C   0  0  0  0  0  3  0  0  0  0  0  0
   38.7580   26.5650   40.3850 N   0  0  0  0  0  0  0  0  0  0  0  0
  1  7  1  0  0  0  0
  1  2  1  0  0  0  0
  2  8  1  0  0  0  0
  3  2  2  0  0  0  0
  3 23  1  0  0  0  0
  4  3  1  0  0  0  0
  5  6  1  0  0  0  0
  5  4  2  0  0  0  0
  6  1  2  0  0  0  0
  9 18  1  0  0  0  0
 10  5  1  0  0  0  0
 10  9  2  0  0  0  0
 11 10  1  0  0  0  0
 12 11  2  0  0  0  0
 12 16  1  0  0  0  0
 13 14  1  0  0  0  0
 13 12  1  0  0  0  0
 14 15  2  0  0  0  0
 15 16  1  0  0  0  0
 16 17  2  0  0  0  0
 17  9  1  0  0  0  0
 17 22  1  0  0  0  0
 19 11  1  0  0  0  0
 20 13  1  0  0  0  0
 21 14  1  0  0  0  0
 23 24  1  0  0  0  0
 24 26  2  0  0  0  0
 24 25  1  0  0  0  0
 26 27  1  0  0  0  0
 28 26  1  0  0  0  0
 29 28  2  0  0  0  0
 30 29  1  0  0  0  0
 30 23  2  0  0  0  0
M  END
>  <minimizedAffinity>
-5.50665092

$$$$

 OpenBabel03242513023D

 30 33  0  0  0  0  0  0  0  0999 V2000
   34.1370   28.4240   35.5150 C   0  0  0  0  0  0  0  0  0  0  0  0
   32.9260   29.0930   35.7000 C   0  0  0  0  0  0  0  0  0  0  0  0
   32.5660   29.4200   37.0120 C   0  0  0  0  0  0  0  0  0  0  0  0
   33.4020   29.0750   38.0440 N   0  0  0  0  0  0  0  0  0  0  0  0
   34.5700   28.4250   37.8170 C   0  0  0  0  0  0  0  0  0  0  0  0
   34.9290   28.1050   36.5670 N   0  0  0  0  0  0  0  0  0  0  0  0
   34.4620   28.1490   34.5290 H   0  0  0  0  0  0  0  0  0  0  0  0
   32.3290   29.3280   34.8520 H   0  0  0  0  0  0  0  0  0  0  0  0
   36.0990   26.9000   38.9900 C   0  0  0  0  0  0  0  0  0  0  0  0
   35.4090   28.0900   38.9600 C   0  0  0  0  0  0  0  0  0  0  0  0
   35.4600   29.0350   39.9920 C   0  0  0  0  0  0  0  0  0  0  0  0
   36.2480   28.7710   41.1160 C   0  0  0  0  0  0  0  0  0  0  0  0
   36.5440   29.4080   42.2720 N   0  0  0  0  0  0  0  0  0  0  0  0
   37.3900   28.6390   42.9970 C   0  0  0  0  0  0  0  0  0  0  0  0
   37.6150   27.5100   42.2690 N   0  0  0  0  0  0  0  0  0  0  0  0
   36.9260   27.5760   41.1220 C   0  0  0  0  0  0  0  0  0  0  0  0
   36.8910   26.6310   40.1160 C   0  0  0  0  0  0  0  0  0  0  0  0
   36.0000   26.2250   38.1450 H   0  0  0  0  0  0  0  0  0  0  0  0
   34.9220   29.9660   39.9720 H   0  0  0  0  0  0  0  0  0  0  0  0
   36.1170   30.3580   42.4670 H   0  0  0  0  0  0  0  0  0  0  0  0
   37.7600   28.9520   43.9600 H   0  0  0  0  0  0  0  0  0  0  0  0
   37.4180   25.7060   40.1250 H   0  0  0  0  0  0  0  0  0  0  0  0
   31.3080   30.1190   37.2540 C   0  0  0  0  0  0  0  0  0  0  0  0
   30.8600   31.0200   36.3170 C   0  0  0  0  0  0  0  0  0  0  0  0
   31.4390   31.1950   35.4220 H   0  0  0  0  0  0  0  0  0  0  0  0
   29.6610   31.6390   36.6220 C   0  0  0  0  0  0  0  0  0  0  0  0
   29.2610   32.3540   35.9240 H   0  0  0  0  0  0  0  0  0  0  0  0
   28.9850   31.3440   37.8070 C   0  0  0  0  0  3  0  0  0  0  0  0
   29.4970   30.4160   38.7220 C   0  0  0  0  0  3  0  0  0  0  0  0
   30.6790   29.8160   38.4030 N   0  0  0  0  0  0  0  0  0  0  0  0
  1  2  2  0  0  0  0
  1  6  1  0  0  0  0
  2  3  1  0  0  0  0
  3 23  1  0  0  0  0
  3  4  2  0  0  0  0
  5  4  1  0  0  0  0
  5 10  1  0  0  0  0
  6  5  2  0  0  0  0
  7  1  1  0  0  0  0
  8  2  1  0  0  0  0
  9 17  1  0  0  0  0
 10  9  2  0  0  0  0
 10 11  1  0  0  0  0
 11 12  2  0  0  0  0
 12 16  1  0  0  0  0
 12 13  1  0  0  0  0
 13 20  1  0  0  0  0
 13 14  1  0  0  0  0
 14 21  1  0  0  0  0
 15 14  2  0  0  0  0
 16 15  1  0  0  0  0
 17 22  1  0  0  0  0
 17 16  2  0  0  0  0
 18  9  1  0  0  0  0
 19 11  1  0  0  0  0
 23 30  1  0  0  0  0
 24 26  1  0  0  0  0
 24 23  2  0  0  0  0
 25 24  1  0  0  0  0
 26 28  2  0  0  0  0
 27 26  1  0  0  0  0
 28 29  1  0  0  0  0
 30 29  2  0  0  0  0
M  END
>  <minimizedAffinity>
-5.39044142

$$$$

 OpenBabel03242513023D

 30 33  0  0  0  0  0  0  0  0999 V2000
   39.0540   28.3210   43.3090 C   0  0  0  0  0  0  0  0  0  0  0  0
   38.8740   29.5700   42.7140 C   0  0  0  0  0  0  0  0  0  0  0  0
   38.2580   29.6010   41.4570 C   0  0  0  0  0  0  0  0  0  0  0  0
   37.8640   28.4230   40.8740 N   0  0  0  0  0  0  0  0  0  0  0  0
   38.0590   27.2320   41.4900 C   0  0  0  0  0  0  0  0  0  0  0  0
   38.6470   27.1860   42.6920 N   0  0  0  0  0  0  0  0  0  0  0  0
   39.5200   28.2400   44.2730 H   0  0  0  0  0  0  0  0  0  0  0  0
   39.2050   30.4420   43.2260 H   0  0  0  0  0  0  0  0  0  0  0  0
   36.6620   26.0890   39.8220 C   0  0  0  0  0  0  0  0  0  0  0  0
   37.6150   26.0210   40.8110 C   0  0  0  0  0  0  0  0  0  0  0  0
   38.2090   24.8220   41.2270 C   0  0  0  0  0  0  0  0  0  0  0  0
   37.8240   23.6260   40.6130 C   0  0  0  0  0  0  0  0  0  0  0  0
   38.1530   22.3200   40.7320 N   0  0  0  0  0  0  0  0  0  0  0  0
   37.4270   21.5990   39.8440 C   0  0  0  0  0  0  0  0  0  0  0  0
   36.6410   22.4840   39.1710 N   0  0  0  0  0  0  0  0  0  0  0  0
   36.8710   23.7220   39.6290 C   0  0  0  0  0  0  0  0  0  0  0  0
   36.2730   24.8920   39.2040 C   0  0  0  0  0  0  0  0  0  0  0  0
   36.2550   27.0620   39.5640 H   0  0  0  0  0  0  0  0  0  0  0  0
   38.9540   24.7650   42.0000 H   0  0  0  0  0  0  0  0  0  0  0  0
   38.8800   22.0280   41.4450 H   0  0  0  0  0  0  0  0  0  0  0  0
   37.5280   20.5290   39.7630 H   0  0  0  0  0  0  0  0  0  0  0  0
   35.5350   24.9610   38.4410 H   0  0  0  0  0  0  0  0  0  0  0  0
   38.0490   30.8850   40.7950 C   0  0  0  0  0  0  0  0  0  0  0  0
   37.1330   30.9630   39.7730 C   0  0  0  0  0  0  0  0  0  0  0  0
   36.5850   30.0810   39.4770 H   0  0  0  0  0  0  0  0  0  0  0  0
   36.9960   32.2140   39.2010 C   0  0  0  0  0  0  0  0  0  0  0  0
   36.2930   32.3350   38.3950 H   0  0  0  0  0  0  0  0  0  0  0  0
   37.7520   33.2970   39.6550 C   0  0  0  0  0  3  0  0  0  0  0  0
   38.6700   33.1500   40.7020 C   0  0  0  0  0  3  0  0  0  0  0  0
   38.7910   31.9090   41.2540 N   0  0  0  0  0  0  0  0  0  0  0  0
  1  7  1  0  0  0  0
  2  8  1  0  0  0  0
  2  1  1  0  0  0  0
  3  2  2  0  0  0  0
  4  3  1  0  0  0  0
  4  5  2  0  0  0  0
  5  6  1  0  0  0  0
  6  1  2  0  0  0  0
  9 10  1  0  0  0  0
 10 11  2  0  0  0  0
 10  5  1  0  0  0  0
 11 19  1  0  0  0  0
 12 13  1  0  0  0  0
 12 11  1  0  0  0  0
 13 20  1  0  0  0  0
 14 13  1  0  0  0  0
 15 16  1  0  0  0  0
 15 14  2  0  0  0  0
 16 12  2  0  0  0  0
 17 16  1  0  0  0  0
 17  9  2  0  0  0  0
 18  9  1  0  0  0  0
 21 14  1  0  0  0  0
 22 17  1  0  0  0  0
 23 30  1  0  0  0  0
 23  3  1  0  0  0  0
 24 23  2  0  0  0  0
 25 24  1  0  0  0  0
 26 28  2  0  0  0  0
 26 24  1  0  0  0  0
 27 26  1  0  0  0  0
 28 29  1  0  0  0  0
 29 30  2  0  0  0  0
M  END
>  <minimizedAffinity>
-5.34768724

$$$$

 OpenBabel03242513023D

 30 33  0  0  0  0  0  0  0  0999 V2000
   38.3520   28.2010   43.5870 C   0  0  0  0  0  0  0  0  0  0  0  0
   38.4090   29.4740   43.0170 C   0  0  0  0  0  0  0  0  0  0  0  0
   37.9750   29.6040   41.6920 C   0  0  0  0  0  0  0  0  0  0  0  0
   37.5220   28.4960   41.0220 N   0  0  0  0  0  0  0  0  0  0  0  0
   37.4850   27.2790   41.6160 C   0  0  0  0  0  0  0  0  0  0  0  0
   37.8960   27.1370   42.8830 N   0  0  0  0  0  0  0  0  0  0  0  0
   38.6720   28.0450   44.6000 H   0  0  0  0  0  0  0  0  0  0  0  0
   38.7720   30.2870   43.5970 H   0  0  0  0  0  0  0  0  0  0  0  0
   36.9490   24.8900   41.4040 C   0  0  0  0  0  0  0  0  0  0  0  0
   36.9920   26.1460   40.8440 C   0  0  0  0  0  0  0  0  0  0  0  0
   36.5780   26.4190   39.5340 C   0  0  0  0  0  0  0  0  0  0  0  0
   36.0950   25.3720   38.7430 C   0  0  0  0  0  0  0  0  0  0  0  0
   35.6220   25.2410   37.4830 N   0  0  0  0  0  0  0  0  0  0  0  0
   35.2960   23.9440   37.2660 C   0  0  0  0  0  0  0  0  0  0  0  0
   35.5750   23.2730   38.4180 N   0  0  0  0  0  0  0  0  0  0  0  0
   36.0630   24.1290   39.3250 C   0  0  0  0  0  0  0  0  0  0  0  0
   36.4650   23.8370   40.6130 C   0  0  0  0  0  0  0  0  0  0  0  0
   37.2900   24.7700   42.4270 H   0  0  0  0  0  0  0  0  0  0  0  0
   36.6110   27.3990   39.0930 H   0  0  0  0  0  0  0  0  0  0  0  0
   35.5630   26.0930   36.8560 H   0  0  0  0  0  0  0  0  0  0  0  0
   34.8960   23.6080   36.3240 H   0  0  0  0  0  0  0  0  0  0  0  0
   36.4380   22.8720   41.0600 H   0  0  0  0  0  0  0  0  0  0  0  0
   38.0160   30.9160   41.0540 C   0  0  0  0  0  0  0  0  0  0  0  0
   39.0580   31.7640   41.3460 C   0  0  0  0  0  0  0  0  0  0  0  0
   39.8260   31.4500   42.0380 H   0  0  0  0  0  0  0  0  0  0  0  0
   39.0220   32.9860   40.7000 C   0  0  0  0  0  0  0  0  0  0  0  0
   39.8120   33.6910   40.8910 H   0  0  0  0  0  0  0  0  0  0  0  0
   37.9830   33.3000   39.8200 C   0  0  0  0  0  3  0  0  0  0  0  0
   36.9490   32.3900   39.5650 C   0  0  0  0  0  3  0  0  0  0  0  0
   37.0040   31.1910   40.2120 N   0  0  0  0  0  0  0  0  0  0  0  0
  1  7  1  0  0  0  0
  2  1  1  0  0  0  0
  2  8  1  0  0  0  0
  3  2  2  0  0  0  0
  4  5  2  0  0  0  0
  4  3  1  0  0  0  0
  5  6  1  0  0  0  0
  6  1  2  0  0  0  0
  9 18  1  0  0  0  0
 10  9  1  0  0  0  0
 10  5  1  0  0  0  0
 11 10  2  0  0  0  0
 12 16  2  0  0  0  0
 12 11  1  0  0  0  0
 13 12  1  0  0  0  0
 14 13  1  0  0  0  0
 14 15  2  0  0  0  0
 15 16  1  0  0  0  0
 16 17  1  0  0  0  0
 17 22  1  0  0  0  0
 17  9  2  0  0  0  0
 19 11  1  0  0  0  0
 20 13  1  0  0  0  0
 21 14  1  0  0  0  0
 23 24  1  0  0  0  0
 23  3  1  0  0  0  0
 24 25  1  0  0  0  0
 26 27  1  0  0  0  0
 26 24  2  0  0  0  0
 28 26  1  0  0  0  0
 29 28  2  0  0  0  0
 29 30  1  0  0  0  0
 30 23  2  0  0  0  0
M  END
>  <minimizedAffinity>
-5.22288084

$$$$

 OpenBabel03242513023D

 30 33  0  0  0  0  0  0  0  0999 V2000
   36.0030   28.0840   37.5170 C   0  0  0  0  0  0  0  0  0  0  0  0
   36.2450   27.0030   38.3660 C   0  0  0  0  0  0  0  0  0  0  0  0
   37.0190   27.2430   39.5080 C   0  0  0  0  0  0  0  0  0  0  0  0
   37.4980   28.5080   39.7410 N   0  0  0  0  0  0  0  0  0  0  0  0
   37.2370   29.5280   38.8870 C   0  0  0  0  0  0  0  0  0  0  0  0
   36.4990   29.3150   37.7900 N   0  0  0  0  0  0  0  0  0  0  0  0
   35.4160   27.9550   36.6280 H   0  0  0  0  0  0  0  0  0  0  0  0
   35.8410   26.0510   38.1220 H   0  0  0  0  0  0  0  0  0  0  0  0
   36.9760   31.8110   39.7580 C   0  0  0  0  0  0  0  0  0  0  0  0
   37.7790   30.8450   39.1970 C   0  0  0  0  0  0  0  0  0  0  0  0
   39.1300   31.0490   38.8910 C   0  0  0  0  0  0  0  0  0  0  0  0
   39.7070   32.2930   39.1650 C   0  0  0  0  0  0  0  0  0  0  0  0
   40.9290   32.8540   39.0200 N   0  0  0  0  0  0  0  0  0  0  0  0
   40.8880   34.1290   39.4770 C   0  0  0  0  0  0  0  0  0  0  0  0
   39.6150   34.3480   39.9090 N   0  0  0  0  0  0  0  0  0  0  0  0
   38.8850   33.2400   39.7250 C   0  0  0  0  0  0  0  0  0  0  0  0
   37.5510   33.0600   40.0340 C   0  0  0  0  0  0  0  0  0  0  0  0
   35.9380   31.5650   39.9610 H   0  0  0  0  0  0  0  0  0  0  0  0
   39.7610   30.2970   38.4520 H   0  0  0  0  0  0  0  0  0  0  0  0
   41.7180   32.2840   38.6010 H   0  0  0  0  0  0  0  0  0  0  0  0
   41.7550   34.7680   39.4580 H   0  0  0  0  0  0  0  0  0  0  0  0
   36.9180   33.7970   40.4680 H   0  0  0  0  0  0  0  0  0  0  0  0
   37.2980   26.1430   40.4250 C   0  0  0  0  0  0  0  0  0  0  0  0
   36.6030   24.9660   40.2800 C   0  0  0  0  0  0  0  0  0  0  0  0
   35.8660   24.8720   39.4960 H   0  0  0  0  0  0  0  0  0  0  0  0
   36.9280   23.9750   41.1880 C   0  0  0  0  0  0  0  0  0  0  0  0
   36.4150   23.0310   41.1230 H   0  0  0  0  0  0  0  0  0  0  0  0
   37.8980   24.1930   42.1690 C   0  0  0  0  0  3  0  0  0  0  0  0
   38.5700   25.4180   42.2640 C   0  0  0  0  0  3  0  0  0  0  0  0
   38.2360   26.3810   41.3590 N   0  0  0  0  0  0  0  0  0  0  0  0
  1  6  2  0  0  0  0
  1  2  1  0  0  0  0
  2  3  2  0  0  0  0
  3  4  1  0  0  0  0
  3 23  1  0  0  0  0
  5 10  1  0  0  0  0
  5  4  2  0  0  0  0
  6  5  1  0  0  0  0
  7  1  1  0  0  0  0
  8  2  1  0  0  0  0
  9 18  1  0  0  0  0
  9 17  1  0  0  0  0
 10  9  2  0  0  0  0
 11 12  2  0  0  0  0
 11 10  1  0  0  0  0
 12 16  1  0  0  0  0
 13 12  1  0  0  0  0
 13 14  1  0  0  0  0
 14 15  2  0  0  0  0
 16 15  1  0  0  0  0
 16 17  2  0  0  0  0
 17 22  1  0  0  0  0
 19 11  1  0  0  0  0
 20 13  1  0  0  0  0
 21 14  1  0  0  0  0
 23 30  1  0  0  0  0
 24 23  2  0  0  0  0
 24 26  1  0  0  0  0
 25 24  1  0  0  0  0
 26 28  2  0  0  0  0
 27 26  1  0  0  0  0
 28 29  1  0  0  0  0
 30 29  2  0  0  0  0
M  END
>  <minimizedAffinity>
-5.14334059

$$$$

 OpenBabel03242513023D

 30 33  0  0  0  0  0  0  0  0999 V2000
   37.0200   32.0530   39.9750 C   0  0  0  0  0  0  0  0  0  0  0  0
   38.1670   32.2970   39.2180 C   0  0  0  0  0  0  0  0  0  0  0  0
   39.0770   31.2420   39.0710 C   0  0  0  0  0  0  0  0  0  0  0  0
   38.8070   30.0360   39.6650 N   0  0  0  0  0  0  0  0  0  0  0  0
   37.6790   29.8440   40.3920 C   0  0  0  0  0  0  0  0  0  0  0  0
   36.7990   30.8430   40.5420 N   0  0  0  0  0  0  0  0  0  0  0  0
   36.2900   32.8270   40.1200 H   0  0  0  0  0  0  0  0  0  0  0  0
   38.3100   33.2580   38.7870 H   0  0  0  0  0  0  0  0  0  0  0  0
   37.4460   28.3960   42.3640 C   0  0  0  0  0  0  0  0  0  0  0  0
   37.4570   28.5360   40.9950 C   0  0  0  0  0  0  0  0  0  0  0  0
   37.2650   27.4680   40.1100 C   0  0  0  0  0  0  0  0  0  0  0  0
   37.0490   26.1880   40.6290 C   0  0  0  0  0  0  0  0  0  0  0  0
   36.8310   24.9540   40.1210 N   0  0  0  0  0  0  0  0  0  0  0  0
   36.6890   24.0740   41.1410 C   0  0  0  0  0  0  0  0  0  0  0  0
   36.8210   24.7870   42.2940 N   0  0  0  0  0  0  0  0  0  0  0  0
   37.0410   26.0750   41.9980 C   0  0  0  0  0  0  0  0  0  0  0  0
   37.2280   27.1140   42.8880 C   0  0  0  0  0  0  0  0  0  0  0  0
   37.6040   29.2800   42.9740 H   0  0  0  0  0  0  0  0  0  0  0  0
   37.2750   27.5740   39.0400 H   0  0  0  0  0  0  0  0  0  0  0  0
   36.7990   24.8210   39.0700 H   0  0  0  0  0  0  0  0  0  0  0  0
   36.5060   23.0270   40.9680 H   0  0  0  0  0  0  0  0  0  0  0  0
   37.2220   27.0210   43.9490 H   0  0  0  0  0  0  0  0  0  0  0  0
   40.2910   31.4510   38.2880 C   0  0  0  0  0  0  0  0  0  0  0  0
   40.7520   32.7330   38.1090 C   0  0  0  0  0  0  0  0  0  0  0  0
   40.2150   33.5620   38.5470 H   0  0  0  0  0  0  0  0  0  0  0  0
   41.9070   32.8440   37.3560 C   0  0  0  0  0  0  0  0  0  0  0  0
   42.3140   33.8240   37.1830 H   0  0  0  0  0  0  0  0  0  0  0  0
   42.5300   31.7090   36.8320 C   0  0  0  0  0  3  0  0  0  0  0  0
   42.0080   30.4290   37.0510 C   0  0  0  0  0  3  0  0  0  0  0  0
   40.8690   30.3420   37.7960 N   0  0  0  0  0  0  0  0  0  0  0  0
  1  7  1  0  0  0  0
  1  6  1  0  0  0  0
  2  1  2  0  0  0  0
  3  2  1  0  0  0  0
  3  4  2  0  0  0  0
  4  5  1  0  0  0  0
  5  6  2  0  0  0  0
  5 10  1  0  0  0  0
  8  2  1  0  0  0  0
  9 17  1  0  0  0  0
  9 18  1  0  0  0  0
 10  9  2  0  0  0  0
 11 12  2  0  0  0  0
 11 10  1  0  0  0  0
 12 16  1  0  0  0  0
 13 12  1  0  0  0  0
 13 14  1  0  0  0  0
 14 15  2  0  0  0  0
 16 15  1  0  0  0  0
 16 17  2  0  0  0  0
 17 22  1  0  0  0  0
 19 11  1  0  0  0  0
 20 13  1  0  0  0  0
 21 14  1  0  0  0  0
 23  3  1  0  0  0  0
 24 23  1  0  0  0  0
 24 25  1  0  0  0  0
 26 24  2  0  0  0  0
 27 26  1  0  0  0  0
 28 29  2  0  0  0  0
 28 26  1  0  0  0  0
 29 30  1  0  0  0  0
 30 23  2  0  0  0  0
M  END
>  <minimizedAffinity>
-5.09281397

$$$$
