
 OpenBabel03242522113D

 19 20  0  0  0  0  0  0  0  0999 V2000
   44.4830   35.6140   44.9310 C   0  0  0  0  0  0  0  0  0  0  0  0
   45.1540   35.5590   43.7010 C   0  0  0  0  0  0  0  0  0  0  0  0
   46.1420   34.6120   43.4860 C   0  0  0  0  0  0  0  0  0  0  0  0
   46.4050   33.7730   44.5070 N   0  0  0  0  0  0  0  0  0  0  0  0
   45.7690   33.8150   45.6900 C   0  0  0  0  0  0  0  0  0  0  0  0
   44.8080   34.7370   45.8980 N   0  0  0  0  0  0  0  0  0  0  0  0
   43.7050   36.3280   45.1610 H   0  0  0  0  0  0  0  0  0  0  0  0
   45.9640   33.1560   46.5130 H   0  0  0  0  0  0  0  0  0  0  0  0
   46.7980   34.5970   42.2130 C   0  0  0  0  0  0  0  0  0  0  0  0
   47.9960   35.2700   42.0900 C   0  0  0  0  0  0  0  0  0  0  0  0
   48.4320   35.7960   42.9280 H   0  0  0  0  0  0  0  0  0  0  0  0
   48.6720   35.2830   40.8670 C   0  0  0  0  0  0  0  0  0  0  0  0
   49.6010   35.8100   40.7890 H   0  0  0  0  0  0  0  0  0  0  0  0
   48.0470   34.5890   39.8510 C   0  0  0  0  0  0  0  0  0  0  0  0
   46.8490   33.9240   39.9970 C   0  0  0  0  0  0  0  0  0  0  0  0
   46.2180   33.9330   41.2060 N   0  0  0  0  0  0  0  0  0  0  0  0
   44.7350   36.5400   42.7300 N   0  0  0  0  0  0  0  0  0  0  0  0
   43.9270   36.6130   42.0740 H   0  0  0  0  0  0  0  0  0  0  0  0
   45.4900   37.2800   42.7990 H   0  0  0  0  0  0  0  0  0  0  0  0
  1  7  1  0  0  0  0
  1  6  1  0  0  0  0
  2  1  2  0  0  0  0
  3  2  1  0  0  0  0
  3  4  2  0  0  0  0
  4  5  1  0  0  0  0
  5  6  2  0  0  0  0
  5  8  1  0  0  0  0
  9  3  1  0  0  0  0
 10  9  1  0  0  0  0
 10 11  1  0  0  0  0
 12 10  2  0  0  0  0
 13 12  1  0  0  0  0
 14 15  2  0  0  0  0
 14 12  1  0  0  0  0
 15 16  1  0  0  0  0
 16  9  2  0  0  0  0
 17 19  1  0  0  0  0
 17  2  1  0  0  0  0
 18 17  1  0  0  0  0
M  END
>  <minimizedAffinity>
-4.97657585

>  <minimizedRMSD>
1.78988039

$$$$
