
 OpenBabel03252506113D

 29 31  0  0  0  0  0  0  0  0999 V2000
   40.3610   30.7100   41.1120 F   0  0  0  0  0  0  0  0  0  0  0  0
   39.2410   31.3040   40.7240 C   0  0  0  0  0  0  0  0  0  0  0  0
   39.3140   32.4840   40.0180 C   0  0  0  0  0  0  0  0  0  0  0  0
   38.1970   33.1770   39.5700 C   0  0  0  0  0  0  0  0  0  0  0  0
   36.9260   32.6620   39.8430 C   0  0  0  0  0  0  0  0  0  0  0  0
   36.9070   31.4750   40.5560 C   0  0  0  0  0  0  0  0  0  0  0  0
   38.0090   30.7770   41.0050 C   0  0  0  0  0  0  0  0  0  0  0  0
   38.2950   34.1020   39.0170 H   0  0  0  0  0  0  0  0  0  0  0  0
   36.0300   33.1590   39.5200 H   0  0  0  0  0  0  0  0  0  0  0  0
   35.8800   31.1220   40.7390 H   0  0  0  0  0  0  0  0  0  0  0  0
   42.1620   33.8530   38.1130 C   0  0  0  0  0  0  0  0  0  0  0  0
   43.0730   34.1510   39.1390 C   0  0  0  0  0  0  0  0  0  0  0  0
   42.7180   33.8860   40.4770 C   0  0  0  0  0  0  0  0  0  0  0  0
   41.4810   33.3430   40.6940 N   0  0  0  0  0  0  0  0  0  0  0  0
   40.6310   33.0680   39.7040 C   0  0  0  0  0  0  0  0  0  0  0  0
   40.9750   33.3240   38.4290 N   0  0  0  0  0  0  0  0  0  0  0  0
   44.0540   34.5810   38.9640 H   0  0  0  0  0  0  0  0  0  0  0  0
   43.3830   34.0970   41.2890 H   0  0  0  0  0  0  0  0  0  0  0  0
   42.5320   34.1250   36.7760 N   0  0  0  0  0  0  0  0  0  0  0  0
   43.0690   34.9190   36.3900 H   0  0  0  0  0  0  0  0  0  0  0  0
   42.1960   33.3930   36.0870 H   0  0  0  0  0  0  0  0  0  0  0  0
   37.7580   29.5500   41.7350 C   0  0  0  0  0  0  0  0  0  0  0  0
   38.0160   29.2830   43.0480 C   0  0  0  0  0  0  0  0  0  0  0  0
   38.4560   30.0400   43.6440 H   0  0  0  0  0  0  0  0  0  0  0  0
   37.7530   28.0950   43.6800 C   0  0  0  0  0  0  0  0  0  0  0  0
   37.9870   27.9530   44.7290 H   0  0  0  0  0  0  0  0  0  0  0  0
   37.1810   27.0600   42.9710 C   0  0  0  0  0  3  0  0  0  0  0  0
   36.9240   27.3340   41.6580 C   0  0  0  0  0  3  0  0  0  0  0  0
   37.2020   28.5130   41.0900 N   0  0  0  0  0  0  0  0  0  0  0  0
  2  7  1  0  0  0  0
  2  1  1  0  0  0  0
  3  2  2  0  0  0  0
  4  5  2  0  0  0  0
  4  3  1  0  0  0  0
  5  6  1  0  0  0  0
  6 10  1  0  0  0  0
  6  7  2  0  0  0  0
  7 22  1  0  0  0  0
  8  4  1  0  0  0  0
  9  5  1  0  0  0  0
 11 16  2  0  0  0  0
 11 12  1  0  0  0  0
 12 13  2  0  0  0  0
 13 14  1  0  0  0  0
 13 18  1  0  0  0  0
 15  3  1  0  0  0  0
 15 14  2  0  0  0  0
 16 15  1  0  0  0  0
 17 12  1  0  0  0  0
 19 11  1  0  0  0  0
 20 19  1  0  0  0  0
 21 19  1  0  0  0  0
 22 23  1  0  0  0  0
 23 24  1  0  0  0  0
 23 25  2  0  0  0  0
 25 26  1  0  0  0  0
 27 25  1  0  0  0  0
 28 27  2  0  0  0  0
 29 28  1  0  0  0  0
 29 22  2  0  0  0  0
M  END
>  <minimizedAffinity>
-6.17997503

$$$$

 OpenBabel03252506113D

 29 31  0  0  0  0  0  0  0  0999 V2000
   38.1790   27.9770   39.7130 F   0  0  0  0  0  0  0  0  0  0  0  0
   37.7880   27.8670   40.9740 C   0  0  0  0  0  0  0  0  0  0  0  0
   37.8380   28.9720   41.7950 C   0  0  0  0  0  0  0  0  0  0  0  0
   37.4490   28.9520   43.1280 C   0  0  0  0  0  0  0  0  0  0  0  0
   36.9800   27.7560   43.6800 C   0  0  0  0  0  0  0  0  0  0  0  0
   36.9500   26.6760   42.8140 C   0  0  0  0  0  0  0  0  0  0  0  0
   37.3320   26.6830   41.4890 C   0  0  0  0  0  0  0  0  0  0  0  0
   37.5030   29.8430   43.7410 H   0  0  0  0  0  0  0  0  0  0  0  0
   36.6680   27.6870   44.7050 H   0  0  0  0  0  0  0  0  0  0  0  0
   36.5720   25.7660   43.3070 H   0  0  0  0  0  0  0  0  0  0  0  0
   37.8650   32.3760   40.3740 C   0  0  0  0  0  0  0  0  0  0  0  0
   39.2420   32.6330   40.2760 C   0  0  0  0  0  0  0  0  0  0  0  0
   40.1590   31.6470   40.6930 C   0  0  0  0  0  0  0  0  0  0  0  0
   39.6370   30.4790   41.1770 N   0  0  0  0  0  0  0  0  0  0  0  0
   38.3250   30.2570   41.2610 C   0  0  0  0  0  0  0  0  0  0  0  0
   37.4540   31.2020   40.8630 N   0  0  0  0  0  0  0  0  0  0  0  0
   39.6540   33.5610   39.8910 H   0  0  0  0  0  0  0  0  0  0  0  0
   41.2170   31.8020   40.6350 H   0  0  0  0  0  0  0  0  0  0  0  0
   36.9570   33.3740   39.9520 N   0  0  0  0  0  0  0  0  0  0  0  0
   37.0130   34.4010   40.0540 H   0  0  0  0  0  0  0  0  0  0  0  0
   36.1010   32.9870   39.4620 H   0  0  0  0  0  0  0  0  0  0  0  0
   37.2160   25.4320   40.7640 C   0  0  0  0  0  0  0  0  0  0  0  0
   36.5490   25.1920   39.5990 C   0  0  0  0  0  0  0  0  0  0  0  0
   36.0370   25.9950   39.1320 H   0  0  0  0  0  0  0  0  0  0  0  0
   36.4770   23.9800   38.9630 C   0  0  0  0  0  0  0  0  0  0  0  0
   35.9260   23.8630   38.0360 H   0  0  0  0  0  0  0  0  0  0  0  0
   37.1180   22.8880   39.5080 C   0  0  0  0  0  3  0  0  0  0  0  0
   37.7850   23.1340   40.6740 C   0  0  0  0  0  3  0  0  0  0  0  0
   37.8210   24.3400   41.2540 N   0  0  0  0  0  0  0  0  0  0  0  0
  1  2  1  0  0  0  0
  2  7  2  0  0  0  0
  2  3  1  0  0  0  0
  3  4  2  0  0  0  0
  4  5  1  0  0  0  0
  4  8  1  0  0  0  0
  5  9  1  0  0  0  0
  6 10  1  0  0  0  0
  6  5  2  0  0  0  0
  7  6  1  0  0  0  0
 11 16  1  0  0  0  0
 12 11  2  0  0  0  0
 12 13  1  0  0  0  0
 13 14  2  0  0  0  0
 14 15  1  0  0  0  0
 15  3  1  0  0  0  0
 16 15  2  0  0  0  0
 17 12  1  0  0  0  0
 18 13  1  0  0  0  0
 19 20  1  0  0  0  0
 19 11  1  0  0  0  0
 21 19  1  0  0  0  0
 22 29  1  0  0  0  0
 22  7  1  0  0  0  0
 23 22  2  0  0  0  0
 24 23  1  0  0  0  0
 25 27  2  0  0  0  0
 25 23  1  0  0  0  0
 26 25  1  0  0  0  0
 27 28  1  0  0  0  0
 28 29  2  0  0  0  0
M  END
>  <minimizedAffinity>
-5.74647045

$$$$

 OpenBabel03252506113D

 29 31  0  0  0  0  0  0  0  0999 V2000
   39.2110   28.4350   40.2130 F   0  0  0  0  0  0  0  0  0  0  0  0
   37.9700   28.8870   40.3290 C   0  0  0  0  0  0  0  0  0  0  0  0
   37.7200   30.2280   40.1380 C   0  0  0  0  0  0  0  0  0  0  0  0
   36.4550   30.7910   40.2370 C   0  0  0  0  0  0  0  0  0  0  0  0
   35.3690   29.9670   40.5470 C   0  0  0  0  0  0  0  0  0  0  0  0
   35.6730   28.6290   40.7300 C   0  0  0  0  0  0  0  0  0  0  0  0
   36.9250   28.0570   40.6330 C   0  0  0  0  0  0  0  0  0  0  0  0
   36.2990   31.8510   40.0800 H   0  0  0  0  0  0  0  0  0  0  0  0
   34.3710   30.3530   40.6370 H   0  0  0  0  0  0  0  0  0  0  0  0
   34.7780   28.0340   40.9710 H   0  0  0  0  0  0  0  0  0  0  0  0
   40.1360   32.2300   38.1960 C   0  0  0  0  0  0  0  0  0  0  0  0
   40.8930   32.8290   39.2150 C   0  0  0  0  0  0  0  0  0  0  0  0
   40.5810   32.5510   40.5610 C   0  0  0  0  0  0  0  0  0  0  0  0
   39.5380   31.6970   40.7920 N   0  0  0  0  0  0  0  0  0  0  0  0
   38.8320   31.1390   39.8080 C   0  0  0  0  0  0  0  0  0  0  0  0
   39.1330   31.4080   38.5250 N   0  0  0  0  0  0  0  0  0  0  0  0
   41.7210   33.5060   39.0290 H   0  0  0  0  0  0  0  0  0  0  0  0
   41.1330   32.9860   41.3690 H   0  0  0  0  0  0  0  0  0  0  0  0
   40.4600   32.5180   36.8500 N   0  0  0  0  0  0  0  0  0  0  0  0
   40.7670   33.4070   36.4230 H   0  0  0  0  0  0  0  0  0  0  0  0
   40.3650   31.6830   36.2040 H   0  0  0  0  0  0  0  0  0  0  0  0
   37.0150   26.6280   40.8640 C   0  0  0  0  0  0  0  0  0  0  0  0
   37.1400   25.9740   42.0550 C   0  0  0  0  0  0  0  0  0  0  0  0
   37.1790   26.5450   42.9470 H   0  0  0  0  0  0  0  0  0  0  0  0
   37.2210   24.6140   42.2050 C   0  0  0  0  0  0  0  0  0  0  0  0
   37.3190   24.1620   43.1860 H   0  0  0  0  0  0  0  0  0  0  0  0
   37.1760   23.8030   41.0910 C   0  0  0  0  0  3  0  0  0  0  0  0
   37.0500   24.4640   39.9020 C   0  0  0  0  0  3  0  0  0  0  0  0
   36.9760   25.7970   39.8120 N   0  0  0  0  0  0  0  0  0  0  0  0
  1  2  1  0  0  0  0
  2  7  1  0  0  0  0
  3  4  1  0  0  0  0
  3  2  2  0  0  0  0
  4  5  2  0  0  0  0
  5  9  1  0  0  0  0
  5  6  1  0  0  0  0
  6 10  1  0  0  0  0
  7  6  2  0  0  0  0
  7 22  1  0  0  0  0
  8  4  1  0  0  0  0
 11 16  2  0  0  0  0
 11 12  1  0  0  0  0
 12 13  2  0  0  0  0
 13 14  1  0  0  0  0
 13 18  1  0  0  0  0
 15  3  1  0  0  0  0
 15 14  2  0  0  0  0
 16 15  1  0  0  0  0
 17 12  1  0  0  0  0
 19 11  1  0  0  0  0
 20 19  1  0  0  0  0
 21 19  1  0  0  0  0
 22 23  1  0  0  0  0
 23 25  2  0  0  0  0
 23 24  1  0  0  0  0
 25 26  1  0  0  0  0
 27 25  1  0  0  0  0
 28 27  2  0  0  0  0
 29 28  1  0  0  0  0
 29 22  2  0  0  0  0
M  END
>  <minimizedAffinity>
-5.58403158

$$$$

 OpenBabel03252506113D

 29 31  0  0  0  0  0  0  0  0999 V2000
   37.7290   28.2800   39.6290 F   0  0  0  0  0  0  0  0  0  0  0  0
   37.5120   28.0410   40.9150 C   0  0  0  0  0  0  0  0  0  0  0  0
   37.6250   29.0730   41.8210 C   0  0  0  0  0  0  0  0  0  0  0  0
   37.4160   28.9190   43.1850 C   0  0  0  0  0  0  0  0  0  0  0  0
   37.0730   27.6570   43.6800 C   0  0  0  0  0  0  0  0  0  0  0  0
   36.9740   26.6550   42.7300 C   0  0  0  0  0  0  0  0  0  0  0  0
   37.1770   26.7950   41.3720 C   0  0  0  0  0  0  0  0  0  0  0  0
   37.5140   29.7560   43.8650 H   0  0  0  0  0  0  0  0  0  0  0  0
   36.9020   27.4850   44.7260 H   0  0  0  0  0  0  0  0  0  0  0  0
   36.7010   25.6870   43.1810 H   0  0  0  0  0  0  0  0  0  0  0  0
   39.5650   32.1430   41.1710 C   0  0  0  0  0  0  0  0  0  0  0  0
   38.6340   32.9260   40.4690 C   0  0  0  0  0  0  0  0  0  0  0  0
   37.3470   32.4080   40.2180 C   0  0  0  0  0  0  0  0  0  0  0  0
   37.0840   31.1490   40.6850 N   0  0  0  0  0  0  0  0  0  0  0  0
   37.9840   30.4240   41.3490 C   0  0  0  0  0  0  0  0  0  0  0  0
   39.2110   30.9220   41.5850 N   0  0  0  0  0  0  0  0  0  0  0  0
   38.8460   33.9240   40.1010 H   0  0  0  0  0  0  0  0  0  0  0  0
   36.6070   32.9700   39.6880 H   0  0  0  0  0  0  0  0  0  0  0  0
   40.8520   32.6750   41.4150 N   0  0  0  0  0  0  0  0  0  0  0  0
   41.4480   33.2630   40.8080 H   0  0  0  0  0  0  0  0  0  0  0  0
   41.2420   32.4200   42.3670 H   0  0  0  0  0  0  0  0  0  0  0  0
   37.0180   25.6060   40.5570 C   0  0  0  0  0  0  0  0  0  0  0  0
   37.4950   24.3510   40.7970 C   0  0  0  0  0  0  0  0  0  0  0  0
   38.0580   24.1810   41.6780 H   0  0  0  0  0  0  0  0  0  0  0  0
   37.3090   23.2650   39.9810 C   0  0  0  0  0  0  0  0  0  0  0  0
   37.7190   22.2940   40.2350 H   0  0  0  0  0  0  0  0  0  0  0  0
   36.5870   23.4070   38.8150 C   0  0  0  0  0  3  0  0  0  0  0  0
   36.1120   24.6660   38.5810 C   0  0  0  0  0  3  0  0  0  0  0  0
   36.3240   25.6930   39.4120 N   0  0  0  0  0  0  0  0  0  0  0  0
  1  2  1  0  0  0  0
  2  7  2  0  0  0  0
  2  3  1  0  0  0  0
  3  4  2  0  0  0  0
  4  5  1  0  0  0  0
  4  8  1  0  0  0  0
  5  9  1  0  0  0  0
  6 10  1  0  0  0  0
  6  5  2  0  0  0  0
  7  6  1  0  0  0  0
 11 19  1  0  0  0  0
 11 16  1  0  0  0  0
 12 11  2  0  0  0  0
 13 12  1  0  0  0  0
 13 14  2  0  0  0  0
 14 15  1  0  0  0  0
 15 16  2  0  0  0  0
 15  3  1  0  0  0  0
 17 12  1  0  0  0  0
 18 13  1  0  0  0  0
 19 21  1  0  0  0  0
 20 19  1  0  0  0  0
 22 23  1  0  0  0  0
 22  7  1  0  0  0  0
 23 24  1  0  0  0  0
 25 26  1  0  0  0  0
 25 23  2  0  0  0  0
 27 25  1  0  0  0  0
 28 27  2  0  0  0  0
 28 29  1  0  0  0  0
 29 22  2  0  0  0  0
M  END
>  <minimizedAffinity>
-5.54433823

$$$$

 OpenBabel03252506113D

 29 31  0  0  0  0  0  0  0  0999 V2000
   38.6900   28.9250   40.6510 F   0  0  0  0  0  0  0  0  0  0  0  0
   37.6630   28.9730   39.8140 C   0  0  0  0  0  0  0  0  0  0  0  0
   37.4470   30.1160   39.0760 C   0  0  0  0  0  0  0  0  0  0  0  0
   36.4000   30.2580   38.1750 C   0  0  0  0  0  0  0  0  0  0  0  0
   35.5100   29.1930   37.9970 C   0  0  0  0  0  0  0  0  0  0  0  0
   35.7710   28.0690   38.7620 C   0  0  0  0  0  0  0  0  0  0  0  0
   36.8080   27.9160   39.6590 C   0  0  0  0  0  0  0  0  0  0  0  0
   36.2640   31.1730   37.6130 H   0  0  0  0  0  0  0  0  0  0  0  0
   34.6840   29.2530   37.3140 H   0  0  0  0  0  0  0  0  0  0  0  0
   35.0370   27.2680   38.5770 H   0  0  0  0  0  0  0  0  0  0  0  0
   38.9710   33.2150   40.3740 C   0  0  0  0  0  0  0  0  0  0  0  0
   40.0520   33.3910   39.4950 C   0  0  0  0  0  0  0  0  0  0  0  0
   40.2600   32.4560   38.4610 C   0  0  0  0  0  0  0  0  0  0  0  0
   39.3760   31.4140   38.3810 N   0  0  0  0  0  0  0  0  0  0  0  0
   38.3570   31.2660   39.2270 C   0  0  0  0  0  0  0  0  0  0  0  0
   38.1630   32.1620   40.2130 N   0  0  0  0  0  0  0  0  0  0  0  0
   40.7500   34.2190   39.5610 H   0  0  0  0  0  0  0  0  0  0  0  0
   41.0710   32.5520   37.7690 H   0  0  0  0  0  0  0  0  0  0  0  0
   38.7750   34.1610   41.4070 N   0  0  0  0  0  0  0  0  0  0  0  0
   39.4710   34.6580   41.9860 H   0  0  0  0  0  0  0  0  0  0  0  0
   37.7540   34.3760   41.5950 H   0  0  0  0  0  0  0  0  0  0  0  0
   36.8920   26.6460   40.3550 C   0  0  0  0  0  0  0  0  0  0  0  0
   37.0460   26.4280   41.6930 C   0  0  0  0  0  0  0  0  0  0  0  0
   37.1170   27.2650   42.3390 H   0  0  0  0  0  0  0  0  0  0  0  0
   37.1200   25.1970   42.2900 C   0  0  0  0  0  0  0  0  0  0  0  0
   37.2440   25.0990   43.3630 H   0  0  0  0  0  0  0  0  0  0  0  0
   37.0350   24.0600   41.5150 C   0  0  0  0  0  3  0  0  0  0  0  0
   36.8810   24.2840   40.1770 C   0  0  0  0  0  3  0  0  0  0  0  0
   36.8150   25.5110   39.6450 N   0  0  0  0  0  0  0  0  0  0  0  0
  2  1  1  0  0  0  0
  3 15  1  0  0  0  0
  3  2  2  0  0  0  0
  4  3  1  0  0  0  0
  5  4  2  0  0  0  0
  5  6  1  0  0  0  0
  6  7  2  0  0  0  0
  7  2  1  0  0  0  0
  7 22  1  0  0  0  0
  8  4  1  0  0  0  0
  9  5  1  0  0  0  0
 10  6  1  0  0  0  0
 11 19  1  0  0  0  0
 12 17  1  0  0  0  0
 12 11  2  0  0  0  0
 13 12  1  0  0  0  0
 14 13  2  0  0  0  0
 14 15  1  0  0  0  0
 15 16  2  0  0  0  0
 16 11  1  0  0  0  0
 18 13  1  0  0  0  0
 19 21  1  0  0  0  0
 19 20  1  0  0  0  0
 22 23  1  0  0  0  0
 23 25  2  0  0  0  0
 23 24  1  0  0  0  0
 25 26  1  0  0  0  0
 27 25  1  0  0  0  0
 28 27  2  0  0  0  0
 29 28  1  0  0  0  0
 29 22  2  0  0  0  0
M  END
>  <minimizedAffinity>
-5.49766397

$$$$

 OpenBabel03252506113D

 29 31  0  0  0  0  0  0  0  0999 V2000
   39.4840   28.1580   41.5410 F   0  0  0  0  0  0  0  0  0  0  0  0
   39.0520   26.9350   41.8140 C   0  0  0  0  0  0  0  0  0  0  0  0
   37.7630   26.5850   41.4820 C   0  0  0  0  0  0  0  0  0  0  0  0
   37.2230   25.3290   41.7280 C   0  0  0  0  0  0  0  0  0  0  0  0
   38.0190   24.3600   42.3460 C   0  0  0  0  0  0  0  0  0  0  0  0
   39.3060   24.7610   42.6600 C   0  0  0  0  0  0  0  0  0  0  0  0
   39.8540   26.0050   42.4190 C   0  0  0  0  0  0  0  0  0  0  0  0
   36.2040   25.0930   41.4510 H   0  0  0  0  0  0  0  0  0  0  0  0
   37.6500   23.3740   42.5590 H   0  0  0  0  0  0  0  0  0  0  0  0
   39.8820   23.9550   43.1420 H   0  0  0  0  0  0  0  0  0  0  0  0
   35.8920   29.6950   40.8180 C   0  0  0  0  0  0  0  0  0  0  0  0
   35.2510   29.3900   39.6070 C   0  0  0  0  0  0  0  0  0  0  0  0
   35.4560   28.1250   39.0180 C   0  0  0  0  0  0  0  0  0  0  0  0
   36.2840   27.2600   39.6790 N   0  0  0  0  0  0  0  0  0  0  0  0
   36.8830   27.5720   40.8290 C   0  0  0  0  0  0  0  0  0  0  0  0
   36.6850   28.7800   41.3860 N   0  0  0  0  0  0  0  0  0  0  0  0
   34.5940   30.0780   39.0850 H   0  0  0  0  0  0  0  0  0  0  0  0
   34.9860   27.8510   38.0960 H   0  0  0  0  0  0  0  0  0  0  0  0
   35.6780   30.9670   41.3980 N   0  0  0  0  0  0  0  0  0  0  0  0
   35.5810   31.8900   40.9430 H   0  0  0  0  0  0  0  0  0  0  0  0
   35.6100   30.9450   42.4550 H   0  0  0  0  0  0  0  0  0  0  0  0
   41.2290   26.2090   42.8330 C   0  0  0  0  0  0  0  0  0  0  0  0
   42.2360   25.2910   42.8910 C   0  0  0  0  0  0  0  0  0  0  0  0
   42.0290   24.2910   42.6080 H   0  0  0  0  0  0  0  0  0  0  0  0
   43.5200   25.5500   43.2930 C   0  0  0  0  0  0  0  0  0  0  0  0
   44.2710   24.7680   43.3150 H   0  0  0  0  0  0  0  0  0  0  0  0
   43.8670   26.8280   43.6770 C   0  0  0  0  0  3  0  0  0  0  0  0
   42.8550   27.7430   43.6150 C   0  0  0  0  0  3  0  0  0  0  0  0
   41.6160   27.4350   43.2150 N   0  0  0  0  0  0  0  0  0  0  0  0
  1  2  1  0  0  0  0
  2  7  1  0  0  0  0
  3  4  1  0  0  0  0
  3  2  2  0  0  0  0
  4  5  2  0  0  0  0
  5  9  1  0  0  0  0
  5  6  1  0  0  0  0
  6 10  1  0  0  0  0
  7  6  2  0  0  0  0
  7 22  1  0  0  0  0
  8  4  1  0  0  0  0
 11 16  1  0  0  0  0
 11 19  1  0  0  0  0
 12 11  2  0  0  0  0
 13 12  1  0  0  0  0
 13 14  2  0  0  0  0
 14 15  1  0  0  0  0
 15 16  2  0  0  0  0
 15  3  1  0  0  0  0
 17 12  1  0  0  0  0
 18 13  1  0  0  0  0
 19 21  1  0  0  0  0
 20 19  1  0  0  0  0
 22 23  2  0  0  0  0
 22 29  1  0  0  0  0
 23 25  1  0  0  0  0
 24 23  1  0  0  0  0
 25 26  1  0  0  0  0
 25 27  2  0  0  0  0
 28 27  1  0  0  0  0
 29 28  2  0  0  0  0
M  END
>  <minimizedAffinity>
-5.44778013

$$$$

 OpenBabel03252506113D

 29 31  0  0  0  0  0  0  0  0999 V2000
   37.5730   29.1970   39.0800 F   0  0  0  0  0  0  0  0  0  0  0  0
   37.4370   28.8350   40.3480 C   0  0  0  0  0  0  0  0  0  0  0  0
   37.7640   29.7290   41.3430 C   0  0  0  0  0  0  0  0  0  0  0  0
   37.6540   29.4400   42.6970 C   0  0  0  0  0  0  0  0  0  0  0  0
   37.1890   28.1790   43.0850 C   0  0  0  0  0  0  0  0  0  0  0  0
   36.8740   27.3180   42.0480 C   0  0  0  0  0  0  0  0  0  0  0  0
   36.9780   27.5940   40.7000 C   0  0  0  0  0  0  0  0  0  0  0  0
   37.9220   30.1700   43.4500 H   0  0  0  0  0  0  0  0  0  0  0  0
   37.0860   27.9060   44.1180 H   0  0  0  0  0  0  0  0  0  0  0  0
   36.5140   26.3450   42.4170 H   0  0  0  0  0  0  0  0  0  0  0  0
   37.8560   33.1980   40.0910 C   0  0  0  0  0  0  0  0  0  0  0  0
   39.1930   33.5530   40.3310 C   0  0  0  0  0  0  0  0  0  0  0  0
   40.0620   32.6110   40.9180 C   0  0  0  0  0  0  0  0  0  0  0  0
   39.5340   31.3850   41.2230 N   0  0  0  0  0  0  0  0  0  0  0  0
   38.2600   31.0710   40.9860 C   0  0  0  0  0  0  0  0  0  0  0  0
   37.4350   31.9740   40.4260 N   0  0  0  0  0  0  0  0  0  0  0  0
   39.6090   34.5250   40.0880 H   0  0  0  0  0  0  0  0  0  0  0  0
   41.0880   32.8390   41.1180 H   0  0  0  0  0  0  0  0  0  0  0  0
   36.9960   34.1530   39.5020 N   0  0  0  0  0  0  0  0  0  0  0  0
   36.9450   35.1750   39.6500 H   0  0  0  0  0  0  0  0  0  0  0  0
   36.3110   33.7350   38.8090 H   0  0  0  0  0  0  0  0  0  0  0  0
   36.5920   26.5400   39.7810 C   0  0  0  0  0  0  0  0  0  0  0  0
   36.9000   25.2130   39.8450 C   0  0  0  0  0  0  0  0  0  0  0  0
   37.4950   24.8670   40.6510 H   0  0  0  0  0  0  0  0  0  0  0  0
   36.5010   24.2640   38.9390 C   0  0  0  0  0  0  0  0  0  0  0  0
   36.7850   23.2240   39.0530 H   0  0  0  0  0  0  0  0  0  0  0  0
   35.7240   24.6370   37.8630 C   0  0  0  0  0  3  0  0  0  0  0  0
   35.4190   25.9660   37.8050 C   0  0  0  0  0  3  0  0  0  0  0  0
   35.8360   26.8520   38.7180 N   0  0  0  0  0  0  0  0  0  0  0  0
  1  2  1  0  0  0  0
  2  7  2  0  0  0  0
  2  3  1  0  0  0  0
  3  4  2  0  0  0  0
  4  5  1  0  0  0  0
  4  8  1  0  0  0  0
  5  9  1  0  0  0  0
  6 10  1  0  0  0  0
  6  5  2  0  0  0  0
  7  6  1  0  0  0  0
 11 12  2  0  0  0  0
 11 16  1  0  0  0  0
 12 13  1  0  0  0  0
 13 18  1  0  0  0  0
 13 14  2  0  0  0  0
 15 14  1  0  0  0  0
 15  3  1  0  0  0  0
 16 15  2  0  0  0  0
 17 12  1  0  0  0  0
 19 20  1  0  0  0  0
 19 11  1  0  0  0  0
 21 19  1  0  0  0  0
 22 23  1  0  0  0  0
 22  7  1  0  0  0  0
 23 24  1  0  0  0  0
 25 26  1  0  0  0  0
 25 23  2  0  0  0  0
 27 25  1  0  0  0  0
 28 27  2  0  0  0  0
 28 29  1  0  0  0  0
 29 22  2  0  0  0  0
M  END
>  <minimizedAffinity>
-5.40706825

$$$$

 OpenBabel03252506113D

 29 31  0  0  0  0  0  0  0  0999 V2000
   36.7540   26.9420   39.5680 F   0  0  0  0  0  0  0  0  0  0  0  0
   36.6380   28.1450   40.1140 C   0  0  0  0  0  0  0  0  0  0  0  0
   37.2840   28.4130   41.3000 C   0  0  0  0  0  0  0  0  0  0  0  0
   37.2210   29.6410   41.9450 C   0  0  0  0  0  0  0  0  0  0  0  0
   36.4650   30.6690   41.3720 C   0  0  0  0  0  0  0  0  0  0  0  0
   35.8350   30.3490   40.1810 C   0  0  0  0  0  0  0  0  0  0  0  0
   35.8910   29.1330   39.5310 C   0  0  0  0  0  0  0  0  0  0  0  0
   37.7440   29.8130   42.8770 H   0  0  0  0  0  0  0  0  0  0  0  0
   36.3830   31.6370   41.8300 H   0  0  0  0  0  0  0  0  0  0  0  0
   35.2580   31.1980   39.7810 H   0  0  0  0  0  0  0  0  0  0  0  0
   38.4660   25.0930   42.3940 C   0  0  0  0  0  0  0  0  0  0  0  0
   39.6040   25.4290   43.1440 C   0  0  0  0  0  0  0  0  0  0  0  0
   39.9680   26.7840   43.2770 C   0  0  0  0  0  0  0  0  0  0  0  0
   39.1710   27.7050   42.6520 N   0  0  0  0  0  0  0  0  0  0  0  0
   38.0940   27.3620   41.9450 C   0  0  0  0  0  0  0  0  0  0  0  0
   37.7520   26.0680   41.8200 N   0  0  0  0  0  0  0  0  0  0  0  0
   40.2340   24.6970   43.6380 H   0  0  0  0  0  0  0  0  0  0  0  0
   40.8280   27.0840   43.8400 H   0  0  0  0  0  0  0  0  0  0  0  0
   38.1130   23.7300   42.2680 N   0  0  0  0  0  0  0  0  0  0  0  0
   38.7190   22.9000   42.1600 H   0  0  0  0  0  0  0  0  0  0  0  0
   37.0670   23.5590   42.2920 H   0  0  0  0  0  0  0  0  0  0  0  0
   35.1510   29.0170   38.2890 C   0  0  0  0  0  0  0  0  0  0  0  0
   33.8170   28.7860   38.1220 C   0  0  0  0  0  0  0  0  0  0  0  0
   33.2100   28.6710   38.9830 H   0  0  0  0  0  0  0  0  0  0  0  0
   33.1770   28.6870   36.9140 C   0  0  0  0  0  0  0  0  0  0  0  0
   32.1100   28.5000   36.8580 H   0  0  0  0  0  0  0  0  0  0  0  0
   33.8990   28.8260   35.7490 C   0  0  0  0  0  3  0  0  0  0  0  0
   35.2340   29.0580   35.9220 C   0  0  0  0  0  3  0  0  0  0  0  0
   35.8100   29.1450   37.1270 N   0  0  0  0  0  0  0  0  0  0  0  0
  1  2  1  0  0  0  0
  2  3  1  0  0  0  0
  3 15  1  0  0  0  0
  3  4  2  0  0  0  0
  4  8  1  0  0  0  0
  5  9  1  0  0  0  0
  5  4  1  0  0  0  0
  6  5  2  0  0  0  0
  7  2  2  0  0  0  0
  7  6  1  0  0  0  0
 10  6  1  0  0  0  0
 11 12  1  0  0  0  0
 12 13  2  0  0  0  0
 12 17  1  0  0  0  0
 13 18  1  0  0  0  0
 14 13  1  0  0  0  0
 15 14  2  0  0  0  0
 16 15  1  0  0  0  0
 16 11  2  0  0  0  0
 19 21  1  0  0  0  0
 19 11  1  0  0  0  0
 20 19  1  0  0  0  0
 22  7  1  0  0  0  0
 23 22  1  0  0  0  0
 23 24  1  0  0  0  0
 25 23  2  0  0  0  0
 26 25  1  0  0  0  0
 27 28  2  0  0  0  0
 27 25  1  0  0  0  0
 28 29  1  0  0  0  0
 29 22  2  0  0  0  0
M  END
>  <minimizedAffinity>
-5.27087307

$$$$

 OpenBabel03252506113D

 29 31  0  0  0  0  0  0  0  0999 V2000
   38.7420   29.1850   40.2230 F   0  0  0  0  0  0  0  0  0  0  0  0
   38.1540   28.6970   41.3060 C   0  0  0  0  0  0  0  0  0  0  0  0
   38.8710   28.6040   42.4780 C   0  0  0  0  0  0  0  0  0  0  0  0
   38.3400   28.1070   43.6610 C   0  0  0  0  0  0  0  0  0  0  0  0
   37.0100   27.6740   43.6780 C   0  0  0  0  0  0  0  0  0  0  0  0
   36.3340   27.7880   42.4760 C   0  0  0  0  0  0  0  0  0  0  0  0
   36.8500   28.2800   41.2940 C   0  0  0  0  0  0  0  0  0  0  0  0
   38.9370   28.0500   44.5630 H   0  0  0  0  0  0  0  0  0  0  0  0
   36.5530   27.2810   44.5670 H   0  0  0  0  0  0  0  0  0  0  0  0
   35.2950   27.4320   42.5540 H   0  0  0  0  0  0  0  0  0  0  0  0
   41.8400   30.7830   42.6850 C   0  0  0  0  0  0  0  0  0  0  0  0
   42.8860   29.8520   42.5750 C   0  0  0  0  0  0  0  0  0  0  0  0
   42.5780   28.4840   42.4300 C   0  0  0  0  0  0  0  0  0  0  0  0
   41.2530   28.1450   42.4050 N   0  0  0  0  0  0  0  0  0  0  0  0
   40.2770   29.0470   42.5120 C   0  0  0  0  0  0  0  0  0  0  0  0
   40.5750   30.3510   42.6520 N   0  0  0  0  0  0  0  0  0  0  0  0
   43.9360   30.1240   42.5940 H   0  0  0  0  0  0  0  0  0  0  0  0
   43.3440   27.7410   42.3420 H   0  0  0  0  0  0  0  0  0  0  0  0
   42.1640   32.1520   42.8310 N   0  0  0  0  0  0  0  0  0  0  0  0
   42.9310   32.5950   43.3630 H   0  0  0  0  0  0  0  0  0  0  0  0
   41.5080   32.8000   42.3070 H   0  0  0  0  0  0  0  0  0  0  0  0
   35.9600   28.3100   40.1500 C   0  0  0  0  0  0  0  0  0  0  0  0
   34.8820   29.1200   39.9420 C   0  0  0  0  0  0  0  0  0  0  0  0
   34.6300   29.8310   40.6860 H   0  0  0  0  0  0  0  0  0  0  0  0
   34.0780   29.0970   38.8320 C   0  0  0  0  0  0  0  0  0  0  0  0
   33.2350   29.7720   38.7350 H   0  0  0  0  0  0  0  0  0  0  0  0
   34.3420   28.1990   37.8200 C   0  0  0  0  0  3  0  0  0  0  0  0
   35.4230   27.3910   38.0340 C   0  0  0  0  0  3  0  0  0  0  0  0
   36.1750   27.4560   39.1380 N   0  0  0  0  0  0  0  0  0  0  0  0
  1  2  1  0  0  0  0
  2  3  1  0  0  0  0
  3 15  1  0  0  0  0
  3  4  2  0  0  0  0
  4  5  1  0  0  0  0
  4  8  1  0  0  0  0
  5  9  1  0  0  0  0
  6 10  1  0  0  0  0
  6  5  2  0  0  0  0
  7  2  2  0  0  0  0
  7  6  1  0  0  0  0
 11 19  1  0  0  0  0
 12 17  1  0  0  0  0
 12 11  2  0  0  0  0
 13 12  1  0  0  0  0
 14 13  2  0  0  0  0
 14 15  1  0  0  0  0
 15 16  2  0  0  0  0
 16 11  1  0  0  0  0
 18 13  1  0  0  0  0
 19 20  1  0  0  0  0
 21 19  1  0  0  0  0
 22  7  1  0  0  0  0
 23 22  1  0  0  0  0
 23 24  1  0  0  0  0
 25 23  2  0  0  0  0
 26 25  1  0  0  0  0
 27 28  2  0  0  0  0
 27 25  1  0  0  0  0
 28 29  1  0  0  0  0
 29 22  2  0  0  0  0
M  END
>  <minimizedAffinity>
-5.26439476

$$$$
