
 OpenBabel03252504163D

 34 36  0  0  0  0  0  0  0  0999 V2000
   39.1140   27.3740   40.2880 F   0  0  0  0  0  0  0  0  0  0  0  0
   38.3750   27.5210   41.4190 C   0  0  0  0  0  0  0  0  0  0  0  0
   38.3650   28.7350   42.0620 C   0  0  0  0  0  0  0  0  0  0  0  0
   37.5890   28.8340   43.2220 C   0  0  0  0  0  0  0  0  0  0  0  0
   36.8780   27.7550   43.6770 C   0  0  0  0  0  0  0  0  0  0  0  0
   36.9260   26.5560   42.9900 C   0  0  0  0  0  0  0  0  0  0  0  0
   37.6900   26.4140   41.8240 C   0  0  0  0  0  0  0  0  0  0  0  0
   37.5590   29.7750   43.7530 H   0  0  0  0  0  0  0  0  0  0  0  0
   36.2920   27.8740   44.5770 H   0  0  0  0  0  0  0  0  0  0  0  0
   36.3280   25.7760   43.4380 H   0  0  0  0  0  0  0  0  0  0  0  0
   37.6390   25.1020   41.2180 C   0  0  0  0  0  0  0  0  0  0  0  0
   38.5790   24.1020   41.2610 C   0  0  0  0  0  0  0  0  0  0  0  0
   39.4790   24.2870   41.8100 H   0  0  0  0  0  0  0  0  0  0  0  0
   38.4860   22.8770   40.6720 C   0  0  0  0  0  0  0  0  0  0  0  0
   39.2790   22.1450   40.7590 H   0  0  0  0  0  0  0  0  0  0  0  0
   37.3620   22.5670   39.9530 C   0  0  0  0  0  3  0  0  0  0  0  0
   36.4170   23.5630   39.9040 C   0  0  0  0  0  3  0  0  0  0  0  0
   36.5560   24.7580   40.5050 N   0  0  0  0  0  0  0  0  0  0  0  0
   39.1200   32.0050   40.6240 C   0  0  0  0  0  0  0  0  0  0  0  0
   40.5070   32.0740   40.6480 C   0  0  0  0  0  0  0  0  0  0  0  0
   41.1970   30.9680   41.1690 C   0  0  0  0  0  0  0  0  0  0  0  0
   40.4890   29.9070   41.6140 N   0  0  0  0  0  0  0  0  0  0  0  0
   39.1290   29.8870   41.5700 C   0  0  0  0  0  0  0  0  0  0  0  0
   38.4480   30.9380   41.0740 N   0  0  0  0  0  0  0  0  0  0  0  0
   42.2580   31.0100   41.1920 H   0  0  0  0  0  0  0  0  0  0  0  0
   41.1920   33.2770   40.1390 C   0  0  0  0  0  0  0  0  0  0  0  0
   40.9440   34.3480   40.9730 F   0  0  0  0  0  0  0  0  0  0  0  0
   42.5680   33.0430   40.1990 F   0  0  0  0  0  0  0  0  0  0  0  0
   40.8750   33.6270   38.8680 F   0  0  0  0  0  0  0  0  0  0  0  0
   38.4570   33.0800   40.1190 O   0  0  0  0  0  0  0  0  0  0  0  0
   37.3040   33.0540   39.2980 C   0  0  0  0  0  0  0  0  0  0  0  0
   36.4100   32.1560   39.9000 F   0  0  0  0  0  0  0  0  0  0  0  0
   36.8020   34.3130   39.1570 F   0  0  0  0  0  0  0  0  0  0  0  0
   37.6210   32.4600   38.0930 F   0  0  0  0  0  0  0  0  0  0  0  0
  1  2  1  0  0  0  0
  2  7  2  0  0  0  0
  2  3  1  0  0  0  0
  3  4  2  0  0  0  0
  4  5  1  0  0  0  0
  4  8  1  0  0  0  0
  5  9  1  0  0  0  0
  6 10  1  0  0  0  0
  6  5  2  0  0  0  0
  7  6  1  0  0  0  0
 11 12  1  0  0  0  0
 11  7  1  0  0  0  0
 12 13  1  0  0  0  0
 14 15  1  0  0  0  0
 14 12  2  0  0  0  0
 16 14  1  0  0  0  0
 17 16  2  0  0  0  0
 17 18  1  0  0  0  0
 18 11  2  0  0  0  0
 19 20  2  0  0  0  0
 19 24  1  0  0  0  0
 20 21  1  0  0  0  0
 21 25  1  0  0  0  0
 21 22  2  0  0  0  0
 23 22  1  0  0  0  0
 23  3  1  0  0  0  0
 24 23  2  0  0  0  0
 26 28  1  0  0  0  0
 26 20  1  0  0  0  0
 26 27  1  0  0  0  0
 29 26  1  0  0  0  0
 30 19  1  0  0  0  0
 31 32  1  0  0  0  0
 31 30  1  0  0  0  0
 33 31  1  0  0  0  0
 34 31  1  0  0  0  0
M  END
>  <minimizedAffinity>
-6.24203491

$$$$

 OpenBabel03252504163D

 34 36  0  0  0  0  0  0  0  0999 V2000
   40.0330   29.9640   39.4860 F   0  0  0  0  0  0  0  0  0  0  0  0
   38.9990   30.8330   39.6330 C   0  0  0  0  0  0  0  0  0  0  0  0
   37.7720   30.3590   40.0290 C   0  0  0  0  0  0  0  0  0  0  0  0
   36.7420   31.2950   40.1650 C   0  0  0  0  0  0  0  0  0  0  0  0
   36.9690   32.6220   39.9100 C   0  0  0  0  0  0  0  0  0  0  0  0
   38.2250   33.0440   39.5140 C   0  0  0  0  0  0  0  0  0  0  0  0
   39.2850   32.1400   39.3650 C   0  0  0  0  0  0  0  0  0  0  0  0
   35.7640   30.9560   40.4740 H   0  0  0  0  0  0  0  0  0  0  0  0
   36.1460   33.3110   40.0270 H   0  0  0  0  0  0  0  0  0  0  0  0
   38.2890   34.1090   39.3410 H   0  0  0  0  0  0  0  0  0  0  0  0
   40.5360   32.7310   38.9450 C   0  0  0  0  0  0  0  0  0  0  0  0
   41.0970   32.7490   37.6920 C   0  0  0  0  0  0  0  0  0  0  0  0
   40.5590   32.2710   36.8980 H   0  0  0  0  0  0  0  0  0  0  0  0
   42.2830   33.3200   37.3430 C   0  0  0  0  0  0  0  0  0  0  0  0
   42.6510   33.2870   36.3250 H   0  0  0  0  0  0  0  0  0  0  0  0
   43.0270   33.9510   38.3040 C   0  0  0  0  0  3  0  0  0  0  0  0
   42.4730   33.9370   39.5620 C   0  0  0  0  0  3  0  0  0  0  0  0
   41.2960   33.3580   39.8550 N   0  0  0  0  0  0  0  0  0  0  0  0
   37.8760   27.1050   41.6830 C   0  0  0  0  0  0  0  0  0  0  0  0
   37.1120   26.2840   40.8630 C   0  0  0  0  0  0  0  0  0  0  0  0
   36.5520   26.8640   39.7140 C   0  0  0  0  0  0  0  0  0  0  0  0
   36.7790   28.1730   39.4650 N   0  0  0  0  0  0  0  0  0  0  0  0
   37.5350   28.9370   40.3000 C   0  0  0  0  0  0  0  0  0  0  0  0
   38.0810   28.4000   41.4080 N   0  0  0  0  0  0  0  0  0  0  0  0
   35.9660   26.2450   39.0790 H   0  0  0  0  0  0  0  0  0  0  0  0
   36.9190   24.8660   41.2180 C   0  0  0  0  0  0  0  0  0  0  0  0
   35.9890   24.2920   40.3770 F   0  0  0  0  0  0  0  0  0  0  0  0
   38.1240   24.1980   40.9870 F   0  0  0  0  0  0  0  0  0  0  0  0
   36.5480   24.6400   42.5030 F   0  0  0  0  0  0  0  0  0  0  0  0
   38.4150   26.5380   42.7950 O   0  0  0  0  0  0  0  0  0  0  0  0
   39.7800   26.2380   43.0140 C   0  0  0  0  0  0  0  0  0  0  0  0
   40.3380   25.9800   41.7520 F   0  0  0  0  0  0  0  0  0  0  0  0
   40.3840   27.2620   43.6800 F   0  0  0  0  0  0  0  0  0  0  0  0
   39.8760   25.0310   43.6780 F   0  0  0  0  0  0  0  0  0  0  0  0
  1  2  1  0  0  0  0
  2  3  1  0  0  0  0
  3  4  2  0  0  0  0
  3 23  1  0  0  0  0
  4  8  1  0  0  0  0
  5  9  1  0  0  0  0
  5  4  1  0  0  0  0
  6  5  2  0  0  0  0
  7  6  1  0  0  0  0
  7  2  2  0  0  0  0
 10  6  1  0  0  0  0
 11  7  1  0  0  0  0
 11 18  1  0  0  0  0
 12 11  2  0  0  0  0
 13 12  1  0  0  0  0
 14 12  1  0  0  0  0
 14 16  2  0  0  0  0
 15 14  1  0  0  0  0
 16 17  1  0  0  0  0
 17 18  2  0  0  0  0
 19 30  1  0  0  0  0
 20 26  1  0  0  0  0
 20 19  2  0  0  0  0
 21 20  1  0  0  0  0
 22 21  2  0  0  0  0
 22 23  1  0  0  0  0
 23 24  2  0  0  0  0
 24 19  1  0  0  0  0
 25 21  1  0  0  0  0
 26 29  1  0  0  0  0
 27 26  1  0  0  0  0
 28 26  1  0  0  0  0
 30 31  1  0  0  0  0
 31 34  1  0  0  0  0
 31 33  1  0  0  0  0
 32 31  1  0  0  0  0
M  END
>  <minimizedAffinity>
-5.99747705

$$$$

 OpenBabel03252504163D

 34 36  0  0  0  0  0  0  0  0999 V2000
   38.2830   27.3150   39.9790 F   0  0  0  0  0  0  0  0  0  0  0  0
   37.7160   27.3250   41.2140 C   0  0  0  0  0  0  0  0  0  0  0  0
   37.6760   28.4990   41.9260 C   0  0  0  0  0  0  0  0  0  0  0  0
   37.0830   28.4550   43.1920 C   0  0  0  0  0  0  0  0  0  0  0  0
   36.5700   27.2820   43.6800 C   0  0  0  0  0  0  0  0  0  0  0  0
   36.6380   26.1290   42.9190 C   0  0  0  0  0  0  0  0  0  0  0  0
   37.2230   26.1290   41.6460 C   0  0  0  0  0  0  0  0  0  0  0  0
   37.0350   29.3610   43.7800 H   0  0  0  0  0  0  0  0  0  0  0  0
   36.1210   27.2920   44.6620 H   0  0  0  0  0  0  0  0  0  0  0  0
   36.2030   25.2660   43.4010 H   0  0  0  0  0  0  0  0  0  0  0  0
   37.2200   24.8490   40.9740 C   0  0  0  0  0  0  0  0  0  0  0  0
   36.3400   24.3790   40.0300 C   0  0  0  0  0  0  0  0  0  0  0  0
   35.5390   25.0230   39.7310 H   0  0  0  0  0  0  0  0  0  0  0  0
   36.3780   23.1600   39.4230 C   0  0  0  0  0  0  0  0  0  0  0  0
   35.6400   22.8700   38.6850 H   0  0  0  0  0  0  0  0  0  0  0  0
   37.3750   22.2810   39.7540 C   0  0  0  0  0  3  0  0  0  0  0  0
   38.2600   22.7440   40.6990 C   0  0  0  0  0  3  0  0  0  0  0  0
   38.1790   23.9580   41.2690 N   0  0  0  0  0  0  0  0  0  0  0  0
   38.1910   31.3910   39.7570 C   0  0  0  0  0  0  0  0  0  0  0  0
   39.2140   32.0990   40.3740 C   0  0  0  0  0  0  0  0  0  0  0  0
   39.7400   31.5670   41.5620 C   0  0  0  0  0  0  0  0  0  0  0  0
   39.2330   30.4090   42.0400 N   0  0  0  0  0  0  0  0  0  0  0  0
   38.2290   29.7520   41.3990 C   0  0  0  0  0  0  0  0  0  0  0  0
   37.7100   30.2460   40.2580 N   0  0  0  0  0  0  0  0  0  0  0  0
   40.5240   32.1000   42.0420 H   0  0  0  0  0  0  0  0  0  0  0  0
   39.7010   33.3570   39.7770 C   0  0  0  0  0  0  0  0  0  0  0  0
   38.6790   34.2810   39.7240 F   0  0  0  0  0  0  0  0  0  0  0  0
   40.6690   33.8900   40.6310 F   0  0  0  0  0  0  0  0  0  0  0  0
   40.2470   33.2340   38.5410 F   0  0  0  0  0  0  0  0  0  0  0  0
   37.6850   31.9120   38.6080 O   0  0  0  0  0  0  0  0  0  0  0  0
   37.6970   31.3090   37.3280 C   0  0  0  0  0  0  0  0  0  0  0  0
   38.8970   30.5860   37.2420 F   0  0  0  0  0  0  0  0  0  0  0  0
   36.5840   30.5430   37.1600 F   0  0  0  0  0  0  0  0  0  0  0  0
   37.8260   32.2930   36.3680 F   0  0  0  0  0  0  0  0  0  0  0  0
  1  2  1  0  0  0  0
  2  7  2  0  0  0  0
  2  3  1  0  0  0  0
  3  4  2  0  0  0  0
  4  5  1  0  0  0  0
  4  8  1  0  0  0  0
  5  9  1  0  0  0  0
  6 10  1  0  0  0  0
  6  5  2  0  0  0  0
  7  6  1  0  0  0  0
 11 18  1  0  0  0  0
 11  7  1  0  0  0  0
 12 11  2  0  0  0  0
 13 12  1  0  0  0  0
 14 16  2  0  0  0  0
 14 12  1  0  0  0  0
 15 14  1  0  0  0  0
 16 17  1  0  0  0  0
 17 18  2  0  0  0  0
 19 24  2  0  0  0  0
 19 20  1  0  0  0  0
 20 21  2  0  0  0  0
 21 22  1  0  0  0  0
 21 25  1  0  0  0  0
 23  3  1  0  0  0  0
 23 22  2  0  0  0  0
 24 23  1  0  0  0  0
 26 20  1  0  0  0  0
 26 28  1  0  0  0  0
 27 26  1  0  0  0  0
 29 26  1  0  0  0  0
 30 19  1  0  0  0  0
 31 30  1  0  0  0  0
 32 31  1  0  0  0  0
 33 31  1  0  0  0  0
 34 31  1  0  0  0  0
M  END
>  <minimizedAffinity>
-5.93216419

$$$$

 OpenBabel03252504163D

 34 36  0  0  0  0  0  0  0  0999 V2000
   37.7190   27.4280   39.8040 F   0  0  0  0  0  0  0  0  0  0  0  0
   37.3470   27.2500   41.0980 C   0  0  0  0  0  0  0  0  0  0  0  0
   37.2220   28.3450   41.9180 C   0  0  0  0  0  0  0  0  0  0  0  0
   36.8370   28.1090   43.2420 C   0  0  0  0  0  0  0  0  0  0  0  0
   36.5990   26.8330   43.6800 C   0  0  0  0  0  0  0  0  0  0  0  0
   36.7410   25.7660   42.8100 C   0  0  0  0  0  0  0  0  0  0  0  0
   37.1240   25.9590   41.4760 C   0  0  0  0  0  0  0  0  0  0  0  0
   36.7300   28.9480   43.9140 H   0  0  0  0  0  0  0  0  0  0  0  0
   36.3050   26.6940   44.7090 H   0  0  0  0  0  0  0  0  0  0  0  0
   36.5280   24.8080   43.2620 H   0  0  0  0  0  0  0  0  0  0  0  0
   37.2300   24.7490   40.6920 C   0  0  0  0  0  0  0  0  0  0  0  0
   36.2390   24.0660   40.0320 C   0  0  0  0  0  0  0  0  0  0  0  0
   35.2430   24.4570   40.0860 H   0  0  0  0  0  0  0  0  0  0  0  0
   36.3880   22.9250   39.3030 C   0  0  0  0  0  0  0  0  0  0  0  0
   35.5460   22.4510   38.8120 H   0  0  0  0  0  0  0  0  0  0  0  0
   37.6320   22.3660   39.1870 C   0  0  0  0  0  3  0  0  0  0  0  0
   38.6310   23.0430   39.8450 C   0  0  0  0  0  3  0  0  0  0  0  0
   38.4320   24.1680   40.5540 N   0  0  0  0  0  0  0  0  0  0  0  0
   38.9490   31.4980   41.2740 C   0  0  0  0  0  0  0  0  0  0  0  0
   38.0210   32.2540   40.5690 C   0  0  0  0  0  0  0  0  0  0  0  0
   36.7730   31.6660   40.3120 C   0  0  0  0  0  0  0  0  0  0  0  0
   36.5380   30.4110   40.7570 N   0  0  0  0  0  0  0  0  0  0  0  0
   37.4800   29.7100   41.4440 C   0  0  0  0  0  0  0  0  0  0  0  0
   38.6840   30.2560   41.7000 N   0  0  0  0  0  0  0  0  0  0  0  0
   36.0560   32.2360   39.7740 H   0  0  0  0  0  0  0  0  0  0  0  0
   38.3710   33.6160   40.1220 C   0  0  0  0  0  0  0  0  0  0  0  0
   37.2530   34.2470   39.6170 F   0  0  0  0  0  0  0  0  0  0  0  0
   38.7610   34.3480   41.2460 F   0  0  0  0  0  0  0  0  0  0  0  0
   39.3670   33.6830   39.2050 F   0  0  0  0  0  0  0  0  0  0  0  0
   40.1560   32.0720   41.5180 O   0  0  0  0  0  0  0  0  0  0  0  0
   41.3910   31.7380   40.9140 C   0  0  0  0  0  0  0  0  0  0  0  0
   42.0340   32.9520   40.6280 F   0  0  0  0  0  0  0  0  0  0  0  0
   42.1080   30.9200   41.7340 F   0  0  0  0  0  0  0  0  0  0  0  0
   41.1510   31.1830   39.6730 F   0  0  0  0  0  0  0  0  0  0  0  0
  1  2  1  0  0  0  0
  2  7  2  0  0  0  0
  2  3  1  0  0  0  0
  3  4  2  0  0  0  0
  4  5  1  0  0  0  0
  4  8  1  0  0  0  0
  5  9  1  0  0  0  0
  6 10  1  0  0  0  0
  6  5  2  0  0  0  0
  7  6  1  0  0  0  0
 11  7  1  0  0  0  0
 12 13  1  0  0  0  0
 12 11  2  0  0  0  0
 14 12  1  0  0  0  0
 15 14  1  0  0  0  0
 16 14  2  0  0  0  0
 16 17  1  0  0  0  0
 17 18  2  0  0  0  0
 18 11  1  0  0  0  0
 19 30  1  0  0  0  0
 19 24  1  0  0  0  0
 20 19  2  0  0  0  0
 21 20  1  0  0  0  0
 21 22  2  0  0  0  0
 22 23  1  0  0  0  0
 23 24  2  0  0  0  0
 23  3  1  0  0  0  0
 25 21  1  0  0  0  0
 26 20  1  0  0  0  0
 26 28  1  0  0  0  0
 27 26  1  0  0  0  0
 29 26  1  0  0  0  0
 31 30  1  0  0  0  0
 31 33  1  0  0  0  0
 32 31  1  0  0  0  0
 34 31  1  0  0  0  0
M  END
>  <minimizedAffinity>
-5.80094051

$$$$

 OpenBabel03252504163D

 34 36  0  0  0  0  0  0  0  0999 V2000
   33.9530   29.1000   38.9250 F   0  0  0  0  0  0  0  0  0  0  0  0
   34.6210   29.1600   37.7440 C   0  0  0  0  0  0  0  0  0  0  0  0
   35.9840   29.3330   37.7510 C   0  0  0  0  0  0  0  0  0  0  0  0
   36.6250   29.3890   36.5080 C   0  0  0  0  0  0  0  0  0  0  0  0
   35.9050   29.2730   35.3490 C   0  0  0  0  0  0  0  0  0  0  0  0
   34.5330   29.1010   35.4020 C   0  0  0  0  0  0  0  0  0  0  0  0
   33.8530   29.0390   36.6240 C   0  0  0  0  0  0  0  0  0  0  0  0
   37.6960   29.5250   36.4770 H   0  0  0  0  0  0  0  0  0  0  0  0
   36.4380   29.3220   34.4110 H   0  0  0  0  0  0  0  0  0  0  0  0
   34.0690   29.0210   34.4290 H   0  0  0  0  0  0  0  0  0  0  0  0
   32.4220   28.8560   36.5170 C   0  0  0  0  0  0  0  0  0  0  0  0
   31.4180   29.6960   36.9310 C   0  0  0  0  0  0  0  0  0  0  0  0
   31.6990   30.6180   37.3990 H   0  0  0  0  0  0  0  0  0  0  0  0
   30.0780   29.4790   36.8090 C   0  0  0  0  0  0  0  0  0  0  0  0
   29.3520   30.2000   37.1650 H   0  0  0  0  0  0  0  0  0  0  0  0
   29.6420   28.3220   36.2200 C   0  0  0  0  0  3  0  0  0  0  0  0
   30.6410   27.4760   35.8040 C   0  0  0  0  0  3  0  0  0  0  0  0
   31.9520   27.7360   35.9480 N   0  0  0  0  0  0  0  0  0  0  0  0
   37.8020   28.4130   40.7810 C   0  0  0  0  0  0  0  0  0  0  0  0
   38.1940   29.6310   41.3230 C   0  0  0  0  0  0  0  0  0  0  0  0
   37.8210   30.7940   40.6310 C   0  0  0  0  0  0  0  0  0  0  0  0
   37.1100   30.6740   39.4890 N   0  0  0  0  0  0  0  0  0  0  0  0
   36.7500   29.4580   38.9960 C   0  0  0  0  0  0  0  0  0  0  0  0
   37.0980   28.3300   39.6450 N   0  0  0  0  0  0  0  0  0  0  0  0
   38.1150   31.7300   41.0380 H   0  0  0  0  0  0  0  0  0  0  0  0
   38.9710   29.6600   42.5770 C   0  0  0  0  0  0  0  0  0  0  0  0
   40.1180   28.9060   42.4380 F   0  0  0  0  0  0  0  0  0  0  0  0
   39.3890   30.9760   42.7900 F   0  0  0  0  0  0  0  0  0  0  0  0
   38.3010   29.2430   43.6800 F   0  0  0  0  0  0  0  0  0  0  0  0
   38.1670   27.2910   41.4550 O   0  0  0  0  0  0  0  0  0  0  0  0
   37.3140   26.4170   42.1690 C   0  0  0  0  0  0  0  0  0  0  0  0
   38.1470   25.5810   42.9280 F   0  0  0  0  0  0  0  0  0  0  0  0
   36.4300   27.1330   42.9190 F   0  0  0  0  0  0  0  0  0  0  0  0
   36.6970   25.5610   41.2790 F   0  0  0  0  0  0  0  0  0  0  0  0
  2  3  1  0  0  0  0
  2  1  1  0  0  0  0
  3 23  1  0  0  0  0
  4  3  2  0  0  0  0
  5  6  2  0  0  0  0
  5  4  1  0  0  0  0
  6  7  1  0  0  0  0
  7  2  2  0  0  0  0
  8  4  1  0  0  0  0
  9  5  1  0  0  0  0
 10  6  1  0  0  0  0
 11  7  1  0  0  0  0
 11 12  1  0  0  0  0
 12 13  1  0  0  0  0
 14 12  2  0  0  0  0
 14 15  1  0  0  0  0
 16 14  1  0  0  0  0
 17 18  1  0  0  0  0
 17 16  2  0  0  0  0
 18 11  2  0  0  0  0
 19 20  1  0  0  0  0
 19 30  1  0  0  0  0
 20 26  1  0  0  0  0
 21 25  1  0  0  0  0
 21 20  2  0  0  0  0
 22 21  1  0  0  0  0
 23 22  2  0  0  0  0
 23 24  1  0  0  0  0
 24 19  2  0  0  0  0
 26 28  1  0  0  0  0
 26 29  1  0  0  0  0
 27 26  1  0  0  0  0
 30 31  1  0  0  0  0
 31 33  1  0  0  0  0
 31 32  1  0  0  0  0
 34 31  1  0  0  0  0
M  END
>  <minimizedAffinity>
-5.76198673

$$$$

 OpenBabel03252504163D

 34 36  0  0  0  0  0  0  0  0999 V2000
   39.1200   27.6560   40.2460 F   0  0  0  0  0  0  0  0  0  0  0  0
   38.4030   27.7760   41.3930 C   0  0  0  0  0  0  0  0  0  0  0  0
   38.5330   28.9130   42.1530 C   0  0  0  0  0  0  0  0  0  0  0  0
   37.7730   28.9860   43.3250 C   0  0  0  0  0  0  0  0  0  0  0  0
   36.9410   27.9580   43.6800 C   0  0  0  0  0  0  0  0  0  0  0  0
   36.8480   26.8350   42.8770 C   0  0  0  0  0  0  0  0  0  0  0  0
   37.5920   26.7210   41.6950 C   0  0  0  0  0  0  0  0  0  0  0  0
   37.8530   29.8670   43.9460 H   0  0  0  0  0  0  0  0  0  0  0  0
   36.3720   28.0550   44.5930 H   0  0  0  0  0  0  0  0  0  0  0  0
   36.1630   26.0890   43.2530 H   0  0  0  0  0  0  0  0  0  0  0  0
   37.3890   25.4900   40.9630 C   0  0  0  0  0  0  0  0  0  0  0  0
   36.5990   25.2670   39.8630 C   0  0  0  0  0  0  0  0  0  0  0  0
   36.0470   26.0960   39.4700 H   0  0  0  0  0  0  0  0  0  0  0  0
   36.4390   24.0850   39.2070 C   0  0  0  0  0  0  0  0  0  0  0  0
   35.7920   23.9990   38.3420 H   0  0  0  0  0  0  0  0  0  0  0  0
   37.1140   22.9790   39.6510 C   0  0  0  0  0  3  0  0  0  0  0  0
   37.9070   23.1940   40.7530 C   0  0  0  0  0  3  0  0  0  0  0  0
   38.0310   24.3830   41.3660 N   0  0  0  0  0  0  0  0  0  0  0  0
   39.9890   31.6540   40.2300 C   0  0  0  0  0  0  0  0  0  0  0  0
   41.0600   32.0800   41.0050 C   0  0  0  0  0  0  0  0  0  0  0  0
   41.2880   31.4060   42.2150 C   0  0  0  0  0  0  0  0  0  0  0  0
   40.4660   30.3910   42.5620 N   0  0  0  0  0  0  0  0  0  0  0  0
   39.4280   30.0110   41.7690 C   0  0  0  0  0  0  0  0  0  0  0  0
   39.1930   30.6450   40.6040 N   0  0  0  0  0  0  0  0  0  0  0  0
   42.1050   31.7230   42.8160 H   0  0  0  0  0  0  0  0  0  0  0  0
   41.9030   33.2000   40.5430 C   0  0  0  0  0  0  0  0  0  0  0  0
   42.5240   32.8640   39.3580 F   0  0  0  0  0  0  0  0  0  0  0  0
   41.0620   34.2770   40.2550 F   0  0  0  0  0  0  0  0  0  0  0  0
   42.8410   33.6180   41.4290 F   0  0  0  0  0  0  0  0  0  0  0  0
   39.7740   32.3120   39.0600 O   0  0  0  0  0  0  0  0  0  0  0  0
   39.8380   31.7640   37.7570 C   0  0  0  0  0  0  0  0  0  0  0  0
   38.5110   31.6030   37.3290 F   0  0  0  0  0  0  0  0  0  0  0  0
   40.5790   32.5700   36.9460 F   0  0  0  0  0  0  0  0  0  0  0  0
   40.3270   30.4760   37.8320 F   0  0  0  0  0  0  0  0  0  0  0  0
  1  2  1  0  0  0  0
  2  7  2  0  0  0  0
  2  3  1  0  0  0  0
  3  4  2  0  0  0  0
  4  5  1  0  0  0  0
  4  8  1  0  0  0  0
  5  9  1  0  0  0  0
  6 10  1  0  0  0  0
  6  5  2  0  0  0  0
  7  6  1  0  0  0  0
 11 18  1  0  0  0  0
 11  7  1  0  0  0  0
 12 11  2  0  0  0  0
 13 12  1  0  0  0  0
 14 16  2  0  0  0  0
 14 12  1  0  0  0  0
 15 14  1  0  0  0  0
 16 17  1  0  0  0  0
 17 18  2  0  0  0  0
 19 24  2  0  0  0  0
 19 20  1  0  0  0  0
 20 21  2  0  0  0  0
 21 22  1  0  0  0  0
 21 25  1  0  0  0  0
 23  3  1  0  0  0  0
 23 22  2  0  0  0  0
 24 23  1  0  0  0  0
 26 20  1  0  0  0  0
 26 29  1  0  0  0  0
 27 26  1  0  0  0  0
 28 26  1  0  0  0  0
 30 19  1  0  0  0  0
 31 34  1  0  0  0  0
 31 30  1  0  0  0  0
 32 31  1  0  0  0  0
 33 31  1  0  0  0  0
M  END
>  <minimizedAffinity>
-5.7040267

$$$$

 OpenBabel03252504163D

 34 36  0  0  0  0  0  0  0  0999 V2000
   37.1880   27.1050   39.1930 F   0  0  0  0  0  0  0  0  0  0  0  0
   37.0760   26.7460   40.4980 C   0  0  0  0  0  0  0  0  0  0  0  0
   37.1720   27.7110   41.4710 C   0  0  0  0  0  0  0  0  0  0  0  0
   37.0510   27.2900   42.8000 C   0  0  0  0  0  0  0  0  0  0  0  0
   36.8440   25.9680   43.0940 C   0  0  0  0  0  0  0  0  0  0  0  0
   36.7560   25.0390   42.0730 C   0  0  0  0  0  0  0  0  0  0  0  0
   36.8720   25.4180   40.7300 C   0  0  0  0  0  0  0  0  0  0  0  0
   37.1230   28.0230   43.5900 H   0  0  0  0  0  0  0  0  0  0  0  0
   36.7570   25.6850   44.1330 H   0  0  0  0  0  0  0  0  0  0  0  0
   36.5920   24.0280   42.4210 H   0  0  0  0  0  0  0  0  0  0  0  0
   36.7580   24.3350   39.7780 C   0  0  0  0  0  0  0  0  0  0  0  0
   35.6400   23.6240   39.4190 C   0  0  0  0  0  0  0  0  0  0  0  0
   34.7120   23.8820   39.8880 H   0  0  0  0  0  0  0  0  0  0  0  0
   35.5820   22.6070   38.5150 C   0  0  0  0  0  0  0  0  0  0  0  0
   34.6530   22.0990   38.2900 H   0  0  0  0  0  0  0  0  0  0  0  0
   36.7290   22.2200   37.8730 C   0  0  0  0  0  3  0  0  0  0  0  0
   37.8530   22.9270   38.2270 C   0  0  0  0  0  3  0  0  0  0  0  0
   37.8580   23.9240   39.1280 N   0  0  0  0  0  0  0  0  0  0  0  0
   38.8970   30.8390   40.7120 C   0  0  0  0  0  0  0  0  0  0  0  0
   37.8710   31.7570   40.5360 C   0  0  0  0  0  0  0  0  0  0  0  0
   36.5560   31.2900   40.6850 C   0  0  0  0  0  0  0  0  0  0  0  0
   36.3550   29.9880   40.9880 N   0  0  0  0  0  0  0  0  0  0  0  0
   37.3950   29.1260   41.1500 C   0  0  0  0  0  0  0  0  0  0  0  0
   38.6650   29.5540   41.0110 N   0  0  0  0  0  0  0  0  0  0  0  0
   35.7620   31.9850   40.5530 H   0  0  0  0  0  0  0  0  0  0  0  0
   38.1880   33.1590   40.2050 C   0  0  0  0  0  0  0  0  0  0  0  0
   39.0440   33.2060   39.1250 F   0  0  0  0  0  0  0  0  0  0  0  0
   37.0050   33.7810   39.7970 F   0  0  0  0  0  0  0  0  0  0  0  0
   38.7200   33.8840   41.2200 F   0  0  0  0  0  0  0  0  0  0  0  0
   40.1690   31.2970   40.5650 O   0  0  0  0  0  0  0  0  0  0  0  0
   41.0850   31.5990   41.6010 C   0  0  0  0  0  0  0  0  0  0  0  0
   42.0670   30.5970   41.5650 F   0  0  0  0  0  0  0  0  0  0  0  0
   41.5810   32.8570   41.4360 F   0  0  0  0  0  0  0  0  0  0  0  0
   40.4630   31.4190   42.8200 F   0  0  0  0  0  0  0  0  0  0  0  0
  1  2  1  0  0  0  0
  2  7  2  0  0  0  0
  2  3  1  0  0  0  0
  3  4  2  0  0  0  0
  4  5  1  0  0  0  0
  4  8  1  0  0  0  0
  5  9  1  0  0  0  0
  6 10  1  0  0  0  0
  6  5  2  0  0  0  0
  7  6  1  0  0  0  0
 11  7  1  0  0  0  0
 12 11  1  0  0  0  0
 12 13  1  0  0  0  0
 14 12  2  0  0  0  0
 15 14  1  0  0  0  0
 16 17  2  0  0  0  0
 16 14  1  0  0  0  0
 17 18  1  0  0  0  0
 18 11  2  0  0  0  0
 19 24  1  0  0  0  0
 20 21  1  0  0  0  0
 20 19  2  0  0  0  0
 21 22  2  0  0  0  0
 22 23  1  0  0  0  0
 23  3  1  0  0  0  0
 24 23  2  0  0  0  0
 25 21  1  0  0  0  0
 26 20  1  0  0  0  0
 26 29  1  0  0  0  0
 27 26  1  0  0  0  0
 28 26  1  0  0  0  0
 30 19  1  0  0  0  0
 30 31  1  0  0  0  0
 31 34  1  0  0  0  0
 32 31  1  0  0  0  0
 33 31  1  0  0  0  0
M  END
>  <minimizedAffinity>
-5.64273024

$$$$

 OpenBabel03252504163D

 34 36  0  0  0  0  0  0  0  0999 V2000
   40.7020   30.0700   40.0430 F   0  0  0  0  0  0  0  0  0  0  0  0
   39.5200   30.7320   40.1380 C   0  0  0  0  0  0  0  0  0  0  0  0
   38.4290   30.0880   40.6690 C   0  0  0  0  0  0  0  0  0  0  0  0
   37.2350   30.8130   40.7440 C   0  0  0  0  0  0  0  0  0  0  0  0
   37.1790   32.1080   40.3030 C   0  0  0  0  0  0  0  0  0  0  0  0
   38.3090   32.7080   39.7760 C   0  0  0  0  0  0  0  0  0  0  0  0
   39.5250   32.0170   39.6820 C   0  0  0  0  0  0  0  0  0  0  0  0
   36.3580   30.3350   41.1560 H   0  0  0  0  0  0  0  0  0  0  0  0
   36.2380   32.6320   40.3780 H   0  0  0  0  0  0  0  0  0  0  0  0
   38.1500   33.7290   39.4600 H   0  0  0  0  0  0  0  0  0  0  0  0
   40.6140   32.7760   39.1100 C   0  0  0  0  0  0  0  0  0  0  0  0
   41.0660   32.7830   37.8130 C   0  0  0  0  0  0  0  0  0  0  0  0
   40.5630   32.1530   37.1070 H   0  0  0  0  0  0  0  0  0  0  0  0
   42.1010   33.5170   37.3190 C   0  0  0  0  0  0  0  0  0  0  0  0
   42.3900   33.4610   36.2770 H   0  0  0  0  0  0  0  0  0  0  0  0
   42.7910   34.3470   38.1620 C   0  0  0  0  0  3  0  0  0  0  0  0
   42.3460   34.3460   39.4620 C   0  0  0  0  0  3  0  0  0  0  0  0
   41.3170   33.6010   39.9010 N   0  0  0  0  0  0  0  0  0  0  0  0
   38.2100   26.4420   40.6810 C   0  0  0  0  0  0  0  0  0  0  0  0
   38.6120   26.0830   41.9610 C   0  0  0  0  0  0  0  0  0  0  0  0
   38.9630   27.1190   42.8400 C   0  0  0  0  0  0  0  0  0  0  0  0
   38.8940   28.3970   42.4050 N   0  0  0  0  0  0  0  0  0  0  0  0
   38.4950   28.6990   41.1400 C   0  0  0  0  0  0  0  0  0  0  0  0
   38.1540   27.7190   40.2800 N   0  0  0  0  0  0  0  0  0  0  0  0
   39.2710   26.8560   43.8220 H   0  0  0  0  0  0  0  0  0  0  0  0
   38.6560   24.6600   42.3450 C   0  0  0  0  0  0  0  0  0  0  0  0
   39.3370   24.5140   43.5360 F   0  0  0  0  0  0  0  0  0  0  0  0
   37.3460   24.2400   42.5860 F   0  0  0  0  0  0  0  0  0  0  0  0
   39.2040   23.8310   41.4210 F   0  0  0  0  0  0  0  0  0  0  0  0
   37.8720   25.4340   39.8340 O   0  0  0  0  0  0  0  0  0  0  0  0
   36.5820   25.1510   39.3270 C   0  0  0  0  0  0  0  0  0  0  0  0
   36.7600   24.7370   37.9980 F   0  0  0  0  0  0  0  0  0  0  0  0
   35.9640   24.2230   40.1110 F   0  0  0  0  0  0  0  0  0  0  0  0
   35.8700   26.3290   39.2210 F   0  0  0  0  0  0  0  0  0  0  0  0
  1  2  1  0  0  0  0
  2  3  1  0  0  0  0
  3  4  2  0  0  0  0
  3 23  1  0  0  0  0
  4  8  1  0  0  0  0
  5  9  1  0  0  0  0
  5  4  1  0  0  0  0
  6  5  2  0  0  0  0
  7  6  1  0  0  0  0
  7  2  2  0  0  0  0
 10  6  1  0  0  0  0
 11  7  1  0  0  0  0
 11 18  1  0  0  0  0
 12 11  2  0  0  0  0
 13 12  1  0  0  0  0
 14 12  1  0  0  0  0
 14 16  2  0  0  0  0
 15 14  1  0  0  0  0
 16 17  1  0  0  0  0
 17 18  2  0  0  0  0
 19 20  1  0  0  0  0
 20 26  1  0  0  0  0
 20 21  2  0  0  0  0
 21 25  1  0  0  0  0
 22 21  1  0  0  0  0
 23 22  2  0  0  0  0
 24 19  2  0  0  0  0
 24 23  1  0  0  0  0
 26 28  1  0  0  0  0
 26 27  1  0  0  0  0
 29 26  1  0  0  0  0
 30 19  1  0  0  0  0
 31 30  1  0  0  0  0
 31 33  1  0  0  0  0
 32 31  1  0  0  0  0
 34 31  1  0  0  0  0
M  END
>  <minimizedAffinity>
-5.61101389

$$$$

 OpenBabel03252504163D

 34 36  0  0  0  0  0  0  0  0999 V2000
   33.4940   29.0040   39.0570 F   0  0  0  0  0  0  0  0  0  0  0  0
   34.2030   28.9850   37.8990 C   0  0  0  0  0  0  0  0  0  0  0  0
   35.5670   28.8300   37.9480 C   0  0  0  0  0  0  0  0  0  0  0  0
   36.2510   28.8180   36.7280 C   0  0  0  0  0  0  0  0  0  0  0  0
   35.5700   28.9550   35.5480 C   0  0  0  0  0  0  0  0  0  0  0  0
   34.1960   29.1100   35.5570 C   0  0  0  0  0  0  0  0  0  0  0  0
   33.4720   29.1270   36.7570 C   0  0  0  0  0  0  0  0  0  0  0  0
   37.3250   28.6980   36.7310 H   0  0  0  0  0  0  0  0  0  0  0  0
   36.1360   28.9410   34.6280 H   0  0  0  0  0  0  0  0  0  0  0  0
   33.7640   29.2090   34.5710 H   0  0  0  0  0  0  0  0  0  0  0  0
   32.0440   29.2960   36.6050 C   0  0  0  0  0  0  0  0  0  0  0  0
   31.2750   30.3940   36.9020 C   0  0  0  0  0  0  0  0  0  0  0  0
   31.7690   31.2560   37.3010 H   0  0  0  0  0  0  0  0  0  0  0  0
   29.9270   30.5070   36.7420 C   0  0  0  0  0  0  0  0  0  0  0  0
   29.3980   31.4150   37.0040 H   0  0  0  0  0  0  0  0  0  0  0  0
   29.2250   29.4450   36.2360 C   0  0  0  0  0  3  0  0  0  0  0  0
   29.9880   28.3410   35.9360 C   0  0  0  0  0  3  0  0  0  0  0  0
   31.3180   28.2800   36.1140 N   0  0  0  0  0  0  0  0  0  0  0  0
   37.5070   29.6810   40.9230 C   0  0  0  0  0  0  0  0  0  0  0  0
   37.6460   28.4730   41.5930 C   0  0  0  0  0  0  0  0  0  0  0  0
   37.0610   27.3400   41.0070 C   0  0  0  0  0  0  0  0  0  0  0  0
   36.4010   27.4770   39.8350 N   0  0  0  0  0  0  0  0  0  0  0  0
   36.2920   28.6840   39.2160 C   0  0  0  0  0  0  0  0  0  0  0  0
   36.8450   29.7830   39.7630 N   0  0  0  0  0  0  0  0  0  0  0  0
   37.1620   26.4100   41.5110 H   0  0  0  0  0  0  0  0  0  0  0  0
   38.3850   28.4210   42.8690 C   0  0  0  0  0  0  0  0  0  0  0  0
   37.9980   29.4680   43.6800 F   0  0  0  0  0  0  0  0  0  0  0  0
   38.0100   27.2500   43.5340 F   0  0  0  0  0  0  0  0  0  0  0  0
   39.7360   28.4300   42.7530 F   0  0  0  0  0  0  0  0  0  0  0  0
   38.0750   30.7750   41.4960 O   0  0  0  0  0  0  0  0  0  0  0  0
   39.3190   31.3590   41.1570 C   0  0  0  0  0  0  0  0  0  0  0  0
   40.0840   31.3720   42.3340 F   0  0  0  0  0  0  0  0  0  0  0  0
   39.8980   30.6680   40.1360 F   0  0  0  0  0  0  0  0  0  0  0  0
   39.1260   32.6940   40.8660 F   0  0  0  0  0  0  0  0  0  0  0  0
  2  3  1  0  0  0  0
  2  1  1  0  0  0  0
  3 23  1  0  0  0  0
  4  8  1  0  0  0  0
  4  3  2  0  0  0  0
  5  6  2  0  0  0  0
  5  4  1  0  0  0  0
  6  7  1  0  0  0  0
  7  2  2  0  0  0  0
  9  5  1  0  0  0  0
 10  6  1  0  0  0  0
 11  7  1  0  0  0  0
 11 12  1  0  0  0  0
 12 13  1  0  0  0  0
 14 12  2  0  0  0  0
 14 15  1  0  0  0  0
 16 14  1  0  0  0  0
 17 18  1  0  0  0  0
 17 16  2  0  0  0  0
 18 11  2  0  0  0  0
 19 30  1  0  0  0  0
 19 20  1  0  0  0  0
 20 26  1  0  0  0  0
 21 25  1  0  0  0  0
 21 20  2  0  0  0  0
 22 21  1  0  0  0  0
 23 24  1  0  0  0  0
 23 22  2  0  0  0  0
 24 19  2  0  0  0  0
 26 28  1  0  0  0  0
 26 27  1  0  0  0  0
 29 26  1  0  0  0  0
 31 30  1  0  0  0  0
 31 32  1  0  0  0  0
 33 31  1  0  0  0  0
 34 31  1  0  0  0  0
M  END
>  <minimizedAffinity>
-5.56749678

$$$$
