
     RDKit          3D

 40 43  0  0  0  0  0  0  0  0999 V2000
   47.1288   31.2764   46.7280 C   0  0  0  0  0  0  0  0  0  0  0  0
   46.7859   31.7949   48.1036 C   0  0  1  0  0  0  0  0  0  0  0  0
   46.1820   30.8202   49.0523 C   0  0  0  0  0  0  0  0  0  0  0  0
   47.5343   31.2927   49.2780 C   0  0  1  0  0  0  0  0  0  0  0  0
   48.7557   30.4968   49.0359 C   0  0  0  0  0  0  0  0  0  0  0  0
   49.5974   30.2211   50.3122 C   0  0  0  0  0  0  0  0  0  0  0  0
   50.0991   31.2193   49.3260 C   0  0  0  0  0  0  0  0  0  0  0  0
   45.9147   33.1224   45.9022 C   0  0  0  0  0  0  0  0  0  0  0  0
   46.9311   32.3804   45.6982 C   0  0  0  0  0  0  0  0  0  0  0  0
   44.4683   36.1197   44.3317 C   0  0  0  0  0  0  0  0  0  0  0  0
   45.1313   36.2065   43.1144 C   0  0  0  0  0  0  0  0  0  0  0  0
   46.0754   35.2233   42.8654 C   0  0  0  0  0  0  0  0  0  0  0  0
   46.2671   34.2899   43.7972 N   0  0  0  0  0  0  0  0  0  0  0  0
   45.6331   34.2093   44.9564 C   0  0  0  0  0  0  0  0  0  0  0  0
   44.7338   35.1409   45.2025 N   0  0  0  0  0  0  0  0  0  0  0  0
   48.1678   30.9384   46.7463 H   0  0  0  0  0  0  0  0  0  0  0  0
   46.4166   30.4574   46.5040 H   0  0  0  0  0  0  0  0  0  0  0  0
   46.4141   32.8353   48.1513 H   0  0  0  0  0  0  0  0  0  0  0  0
   45.3627   31.2000   49.7243 H   0  0  0  0  0  0  0  0  0  0  0  0
   45.9407   29.7813   48.7247 H   0  0  0  0  0  0  0  0  0  0  0  0
   47.6685   32.0450   50.1152 H   0  0  0  0  0  0  0  0  0  0  0  0
   48.7555   29.7102   48.2664 H   0  0  0  0  0  0  0  0  0  0  0  0
   49.2088   30.6031   51.2725 H   0  0  0  0  0  0  0  0  0  0  0  0
   50.0509   29.2161   50.3325 H   0  0  0  0  0  0  0  0  0  0  0  0
   50.0211   32.3041   49.5451 H   0  0  0  0  0  0  0  0  0  0  0  0
   50.9142   30.8898   48.6573 H   0  0  0  0  0  0  0  0  0  0  0  0
   45.1682   33.0715   46.7142 H   0  0  0  0  0  0  0  0  0  0  0  0
   47.6013   32.5219   44.8610 H   0  0  0  0  0  0  0  0  0  0  0  0
   43.7166   36.8899   44.5477 H   0  0  0  0  0  0  0  0  0  0  0  0
   44.9735   36.9568   42.3699 H   0  0  0  0  0  0  0  0  0  0  0  0
   46.8808   35.1418   41.6395 C   0  0  0  0  0  0  0  0  0  0  0  0
   48.2118   35.4869   41.5834 C   0  0  0  0  0  0  0  0  0  0  0  0
   48.7073   35.8330   42.4571 H   0  0  0  0  0  0  0  0  0  0  0  0
   48.9761   35.4166   40.4492 C   0  0  0  0  0  0  0  0  0  0  0  0
   50.0185   35.6946   40.4372 H   0  0  0  0  0  0  0  0  0  0  0  0
   48.4043   34.9767   39.2751 C   0  0  0  0  0  0  0  0  0  0  0  0
   47.0672   34.6361   39.3563 C   0  0  0  0  0  0  0  0  0  0  0  0
   46.3534   34.7149   40.4700 N   0  0  0  0  0  0  0  0  0  0  0  0
   48.9946   34.9167   38.3752 H   0  0  0  0  0  0  0  0  0  0  0  0
   46.6080   34.2874   38.4323 H   0  0  0  0  0  0  0  0  0  0  0  0
  1  2  1  0
  2  3  1  0
  2  4  1  0
  3  4  1  0
  5  4  1  0
  5  7  1  0
  5  6  1  0
  7  6  1  0
  9  8  2  0
  9  1  1  0
 10 15  2  0
 11 10  1  0
 12 11  2  0
 12 13  1  0
 13 14  2  0
 14 15  1  0
 14  8  1  0
  1 16  1  0
  1 17  1  0
  2 18  1  6
  3 19  1  0
  3 20  1  0
  4 21  1  1
  5 22  1  0
  6 23  1  0
  6 24  1  0
  7 25  1  0
  7 26  1  0
  8 27  1  0
  9 28  1  0
 10 29  1  0
 11 30  1  0
 31 32  2  0
 32 33  1  0
 32 34  1  0
 34 35  1  0
 34 36  2  0
 36 37  1  0
 37 38  2  0
 38 31  1  0
 36 39  1  0
 37 40  1  0
 12 31  1  0
M  ISO  8  16   8  17   8  18  13  19  13  20  13  21  13  22  13  23  13
M  ISO  7  24  13  25  13  26  13  29  14  30  14  33  15  35  16
M  END
>  <DihAtoms>  (1) 
10,11,30,31

>  <DihDeg>  (1) 
-0.0005091757786760497

$$$$
