
 OpenBabel03242515503D

 19 20  0  0  0  0  0  0  0  0999 V2000
   44.4860   35.5750   45.0770 C   0  0  0  0  0  0  0  0  0  0  0  0
   45.0930   35.4780   43.8260 C   0  0  0  0  0  0  0  0  0  0  0  0
   46.0290   34.4770   43.6180 C   0  0  0  0  0  0  0  0  0  0  0  0
   46.3020   33.6450   44.6520 N   0  0  0  0  0  0  0  0  0  0  0  0
   45.7060   33.7550   45.8530 C   0  0  0  0  0  0  0  0  0  0  0  0
   44.7960   34.7170   46.0750 N   0  0  0  0  0  0  0  0  0  0  0  0
   43.7510   36.3500   45.2610 H   0  0  0  0  0  0  0  0  0  0  0  0
   46.4780   34.4220   42.6570 H   0  0  0  0  0  0  0  0  0  0  0  0
   46.0540   32.8200   46.9150 C   0  0  0  0  0  0  0  0  0  0  0  0
   45.1750   32.5590   47.9380 C   0  0  0  0  0  0  0  0  0  0  0  0
   44.2070   33.0800   47.9240 H   0  0  0  0  0  0  0  0  0  0  0  0
   45.4010   31.7000   48.9850 C   0  0  0  0  0  0  0  0  0  0  0  0
   44.6260   31.5710   49.7440 H   0  0  0  0  0  0  0  0  0  0  0  0
   46.6190   31.0360   49.0150 C   0  0  0  0  0  0  0  0  0  0  0  0
   47.5010   31.2960   47.9920 C   0  0  0  0  0  0  0  0  0  0  0  0
   47.2100   32.1560   46.9910 N   0  0  0  0  0  0  0  0  0  0  0  0
   44.6850   36.4410   42.8480 N   0  0  0  0  0  0  0  0  0  0  0  0
   43.9780   36.0890   42.1480 H   0  0  0  0  0  0  0  0  0  0  0  0
   44.9560   37.4410   42.6900 H   0  0  0  0  0  0  0  0  0  0  0  0
  1  7  1  0  0  0  0
  1  6  1  0  0  0  0
  2  1  2  0  0  0  0
  3  2  1  0  0  0  0
  3  4  2  0  0  0  0
  4  5  1  0  0  0  0
  5  6  2  0  0  0  0
  5  9  1  0  0  0  0
  8  3  1  0  0  0  0
  9 16  2  0  0  0  0
  9 10  1  0  0  0  0
 10 12  2  0  0  0  0
 11 10  1  0  0  0  0
 12 14  1  0  0  0  0
 12 13  1  0  0  0  0
 15 14  2  0  0  0  0
 16 15  1  0  0  0  0
 17  2  1  0  0  0  0
 18 17  1  0  0  0  0
 19 17  1  0  0  0  0
M  END
>  <minimizedAffinity>
-4.93113947

>  <minimizedRMSD>
0.871081173

$$$$
