REMARK  Name = 
REMARK  5 active torsions:
REMARK  status: ('A' for Active; 'I' for Inactive)
REMARK    1  A    between atoms: C_1  and  C_2
REMARK    2  A    between atoms: C_1  and  C_9
REMARK    3  A    between atoms: C_4  and  C_5
REMARK    4  A    between atoms: C_8  and  C_14
REMARK    5  A    between atoms: C_12  and  C_31
REMARK                            x       y       z     vdW  Elec       q    Type
REMARK                         _______ _______ _______ _____ _____    ______ ____
ROOT
ATOM      1  C   UNL     1      47.129  31.276  46.728  0.00  0.00    +0.000 C 
ATOM      2  H   UNL     1      48.168  30.938  46.746  0.00  0.00    +0.000 HD
ATOM      3  H   UNL     1      46.417  30.457  46.504  0.00  0.00    +0.000 HD
ENDROOT
BRANCH   1   4
ATOM      4  C   UNL     1      46.786  31.795  48.104  0.00  0.00    +0.000 C 
ATOM      5  C   UNL     1      46.182  30.820  49.052  0.00  0.00    +0.000 C 
ATOM      6  C   UNL     1      47.534  31.293  49.278  0.00  0.00    +0.000 C 
ATOM      7  H   UNL     1      46.414  32.835  48.151  0.00  0.00    +0.000 HD
ATOM      8  H   UNL     1      45.363  31.200  49.724  0.00  0.00    +0.000 HD
ATOM      9  H   UNL     1      45.941  29.781  48.725  0.00  0.00    +0.000 HD
ATOM     10  H   UNL     1      47.669  32.045  50.115  0.00  0.00    +0.000 HD
BRANCH   6  11
ATOM     11  C   UNL     1      48.756  30.497  49.036  0.00  0.00    +0.000 C 
ATOM     12  C   UNL     1      49.597  30.221  50.312  0.00  0.00    +0.000 C 
ATOM     13  C   UNL     1      50.099  31.219  49.326  0.00  0.00    +0.000 C 
ATOM     14  H   UNL     1      48.755  29.710  48.266  0.00  0.00    +0.000 HD
ATOM     15  H   UNL     1      49.209  30.603  51.273  0.00  0.00    +0.000 HD
ATOM     16  H   UNL     1      50.051  29.216  50.333  0.00  0.00    +0.000 HD
ATOM     17  H   UNL     1      50.021  32.304  49.545  0.00  0.00    +0.000 HD
ATOM     18  H   UNL     1      50.914  30.890  48.657  0.00  0.00    +0.000 HD
ENDBRANCH   6  11
ENDBRANCH   1   4
BRANCH   1  20
ATOM     19  C   UNL     1      45.915  33.122  45.902  0.00  0.00    +0.000 C 
ATOM     20  C   UNL     1      46.931  32.380  45.698  0.00  0.00    +0.000 C 
BRANCH  19  25
ATOM     21  C   UNL     1      44.468  36.120  44.332  0.00  0.00    +0.000 A 
ATOM     22  C   UNL     1      45.131  36.206  43.114  0.00  0.00    +0.000 A 
ATOM     23  C   UNL     1      46.075  35.223  42.865  0.00  0.00    +0.000 A 
ATOM     24  N   UNL     1      46.267  34.290  43.797  0.00  0.00    +0.000 NA
ATOM     25  C   UNL     1      45.633  34.209  44.956  0.00  0.00    +0.000 A 
ATOM     26  N   UNL     1      44.734  35.141  45.203  0.00  0.00    +0.000 NA
ATOM     27  H   UNL     1      43.717  36.890  44.548  0.00  0.00    +0.000 HD
ATOM     28  H   UNL     1      44.974  36.957  42.370  0.00  0.00    +0.000 HD
BRANCH  23  29
ATOM     29  C   UNL     1      46.881  35.142  41.639  0.00  0.00    +0.000 A 
ATOM     30  C   UNL     1      46.357  35.304  40.377  0.00  0.00    +0.000 A 
ATOM     31  H   UNL     1      45.321  35.500  40.254  0.00  0.00    +0.000 HD
ATOM     32  C   UNL     1      47.094  35.232  39.225  0.00  0.00    +0.000 A 
ATOM     33  H   UNL     1      46.654  35.364  38.249  0.00  0.00    +0.000 HD
ATOM     34  C   UNL     1      48.447  34.981  39.303  0.00  0.00    +0.000 A 
ATOM     35  C   UNL     1      48.949  34.821  40.581  0.00  0.00    +0.000 A 
ATOM     36  N   UNL     1      48.210  34.897  41.678  0.00  0.00    +0.000 NA
ENDBRANCH  23  29
ENDBRANCH  19  25
ENDBRANCH   1  20
TORSDOF 5
