
 OpenBabel03252509163D

 24 26  0  0  0  0  0  0  0  0999 V2000
   46.6700   31.8570   45.6530 C   0  0  0  0  0  0  0  0  0  0  0  0
   47.4730   31.0480   44.8000 C   0  0  0  0  0  0  0  0  0  0  0  0
   47.9420   31.6030   43.6540 C   0  0  0  0  0  0  0  0  0  0  0  0
   47.6190   32.9490   43.3540 C   0  0  0  0  0  0  0  0  0  0  0  0
   46.5830   33.4460   44.8020 S   0  0  0  0  0  0  0  0  0  0  0  0
   47.6980   30.0240   45.0640 H   0  0  0  0  0  0  0  0  0  0  0  0
   48.5440   31.1150   42.9390 H   0  0  0  0  0  0  0  0  0  0  0  0
   45.0700   29.8880   48.3790 C   0  0  0  0  0  0  0  0  0  0  0  0
   45.1510   30.8360   49.4320 C   0  0  0  0  0  0  0  0  0  0  0  0
   45.7410   32.0840   49.1630 C   0  0  0  0  0  0  0  0  0  0  0  0
   46.2090   32.3160   47.8830 N   0  0  0  0  0  0  0  0  0  0  0  0
   46.1020   31.3700   46.9220 C   0  0  0  0  0  0  0  0  0  0  0  0
   45.5370   30.1580   47.1540 N   0  0  0  0  0  0  0  0  0  0  0  0
   44.6230   28.9520   48.5930 H   0  0  0  0  0  0  0  0  0  0  0  0
   44.7760   30.6280   50.4240 H   0  0  0  0  0  0  0  0  0  0  0  0
   45.8380   32.8510   49.9090 H   0  0  0  0  0  0  0  0  0  0  0  0
   47.9690   33.7710   42.2430 C   0  0  0  0  0  0  0  0  0  0  0  0
   47.5990   33.4420   40.9600 C   0  0  0  0  0  0  0  0  0  0  0  0
   47.0330   32.5340   40.8500 H   0  0  0  0  0  0  0  0  0  0  0  0
   47.9750   34.2870   39.9400 C   0  0  0  0  0  0  0  0  0  0  0  0
   47.6690   34.0020   38.9400 H   0  0  0  0  0  0  0  0  0  0  0  0
   48.7100   35.4470   40.1730 C   0  0  0  0  0  3  0  0  0  0  0  0
   49.0350   35.6930   41.4910 C   0  0  0  0  0  3  0  0  0  0  0  0
   48.6780   34.8790   42.5170 N   0  0  0  0  0  0  0  0  0  0  0  0
  1 12  1  0  0  0  0
  2  6  1  0  0  0  0
  2  1  2  0  0  0  0
  3  2  1  0  0  0  0
  4  3  2  0  0  0  0
  4  5  1  0  0  0  0
  5  1  1  0  0  0  0
  7  3  1  0  0  0  0
  8 14  1  0  0  0  0
  8  9  1  0  0  0  0
  9 15  1  0  0  0  0
 10  9  2  0  0  0  0
 10 16  1  0  0  0  0
 11 10  1  0  0  0  0
 12 13  1  0  0  0  0
 12 11  2  0  0  0  0
 13  8  2  0  0  0  0
 17 24  1  0  0  0  0
 17  4  1  0  0  0  0
 18 17  2  0  0  0  0
 19 18  1  0  0  0  0
 20 22  2  0  0  0  0
 20 18  1  0  0  0  0
 21 20  1  0  0  0  0
 22 23  1  0  0  0  0
 23 24  2  0  0  0  0
M  END
>  <minimizedAffinity>
-4.80337524

>  <minimizedRMSD>
7.4875946

$$$$
