
 OpenBabel03252501513D

 44 47  0  0  1  0  0  0  0  0999 V2000
   47.9690   34.8920   42.3070 C   0  0  0  0  0  0  0  0  0  0  0  0
   47.8500   34.3490   43.2850 H   0  0  0  0  0  0  0  0  0  0  0  0
   48.0940   35.9770   42.5420 H   0  0  0  0  0  0  0  0  0  0  0  0
   49.0940   34.3340   41.6370 N   0  0  0  0  0  0  0  0  0  0  0  0
   50.2260   34.2050   42.4890 C   0  0  0  0  0  0  0  0  0  0  0  0
   50.9680   32.9440   42.1010 C   0  0  0  0  0  0  0  0  0  0  0  0
   49.9140   32.1240   41.4370 C   0  0  0  0  0  0  0  0  0  0  0  0
   48.8050   33.0760   41.0220 C   0  0  2  0  0  0  0  0  0  0  0  0
   50.0100   34.1920   43.5760 H   0  0  0  0  0  0  0  0  0  0  0  0
   50.8860   35.0970   42.2840 H   0  0  0  0  0  0  0  0  0  0  0  0
   51.8340   33.2080   41.4930 H   0  0  0  0  0  0  0  0  0  0  0  0
   51.3590   32.4640   43.0350 H   0  0  0  0  0  0  0  0  0  0  0  0
   49.5510   31.3740   42.1710 H   0  0  0  0  0  0  0  0  0  0  0  0
   50.3470   31.5760   40.5740 H   0  0  0  0  0  0  0  0  0  0  0  0
   47.8510   32.6260   41.3450 H   0  0  0  0  0  0  0  0  0  0  0  0
   48.8470   33.1580   39.5220 C   0  0  0  0  0  0  0  0  0  0  0  0
   48.3190   34.3010   38.9450 C   0  0  0  0  0  0  0  0  0  0  0  0
   47.8930   35.1040   39.5260 H   0  0  0  0  0  0  0  0  0  0  0  0
   48.3210   34.4540   37.5530 C   0  0  0  0  0  0  0  0  0  0  0  0
   47.9160   35.3390   37.0450 H   0  0  0  0  0  0  0  0  0  0  0  0
   48.8710   33.4180   36.7930 C   0  0  0  0  0  0  0  0  0  0  0  0
   49.3940   32.2840   37.4020 C   0  0  0  0  0  0  0  0  0  0  0  0
   49.3680   32.1850   38.7450 N   0  0  0  0  0  0  0  0  0  0  0  0
   45.5080   34.9130   42.1840 C   0  0  0  0  0  0  0  0  0  0  0  0
   46.6740   34.6300   41.5780 C   0  0  0  0  0  0  0  0  0  0  0  0
   43.8760   33.4580   40.8880 C   0  0  0  0  0  0  0  0  0  0  0  0
   44.2130   34.6790   41.5210 C   0  0  0  0  0  0  0  0  0  0  0  0
   43.2780   35.7350   41.5320 C   0  0  0  0  0  0  0  0  0  0  0  0
   42.0740   35.5230   40.9190 N   0  0  0  0  0  0  0  0  0  0  0  0
   41.7930   34.3660   40.3350 C   0  0  0  0  0  0  0  0  0  0  0  0
   42.6930   33.3560   40.3270 N   0  0  0  0  0  0  0  0  0  0  0  0
   44.6450   32.6890   40.9180 H   0  0  0  0  0  0  0  0  0  0  0  0
   43.4890   36.6710   41.9970 H   0  0  0  0  0  0  0  0  0  0  0  0
   39.5520   33.6170   41.7670 F   0  0  0  0  0  0  0  0  0  0  0  0
   39.3950   33.8000   40.4390 C   0  0  0  0  0  0  0  0  0  0  0  0
   40.5020   34.1750   39.6920 C   0  0  0  0  0  0  0  0  0  0  0  0
   40.4230   34.3830   38.3220 C   0  0  0  0  0  0  0  0  0  0  0  0
   39.1850   34.1990   37.7080 C   0  0  0  0  0  0  0  0  0  0  0  0
   38.0580   33.8210   38.4430 C   0  0  0  0  0  0  0  0  0  0  0  0
   38.1660   33.6200   39.8180 C   0  0  0  0  0  0  0  0  0  0  0  0
   41.3080   34.6770   37.7630 H   0  0  0  0  0  0  0  0  0  0  0  0
   39.1350   34.3640   36.6400 H   0  0  0  0  0  0  0  0  0  0  0  0
   37.1230   33.6920   37.9270 H   0  0  0  0  0  0  0  0  0  0  0  0
   37.2960   33.3290   40.3760 H   0  0  0  0  0  0  0  0  0  0  0  0
  1  3  1  0  0  0  0
  1  2  1  0  0  0  0
  4  1  1  0  0  0  0
  4  5  1  0  0  0  0
  5  9  1  0  0  0  0
  6  5  1  0  0  0  0
  6 12  1  0  0  0  0
  7  6  1  0  0  0  0
  7 13  1  0  0  0  0
  8 15  1  1  0  0  0
  8  7  1  0  0  0  0
  8  4  1  0  0  0  0
 10  5  1  0  0  0  0
 11  6  1  0  0  0  0
 14  7  1  0  0  0  0
 16  8  1  0  0  0  0
 17 16  1  0  0  0  0
 17 18  1  0  0  0  0
 19 17  2  0  0  0  0
 20 19  1  0  0  0  0
 21 22  2  0  0  0  0
 21 19  1  0  0  0  0
 22 23  1  0  0  0  0
 23 16  2  0  0  0  0
 25 24  2  0  0  0  0
 25  1  1  0  0  0  0
 26 32  1  0  0  0  0
 26 27  1  0  0  0  0
 27 28  2  0  0  0  0
 27 24  1  0  0  0  0
 28 33  1  0  0  0  0
 29 28  1  0  0  0  0
 30 29  2  0  0  0  0
 31 30  1  0  0  0  0
 31 26  2  0  0  0  0
 35 34  1  0  0  0  0
 36 30  1  0  0  0  0
 36 35  2  0  0  0  0
 37 36  1  0  0  0  0
 38 37  2  0  0  0  0
 38 39  1  0  0  0  0
 39 40  2  0  0  0  0
 40 44  1  0  0  0  0
 40 35  1  0  0  0  0
 41 37  1  0  0  0  0
 42 38  1  0  0  0  0
 43 39  1  0  0  0  0
M  END
>  <minimizedAffinity>
-6.92876768

>  <minimizedRMSD>
0.394516677

$$$$
