
 OpenBabel03242520513D

 21 22  0  0  0  0  0  0  0  0999 V2000
   44.4540   35.9080   44.6750 C   0  0  0  0  0  0  0  0  0  0  0  0
   45.1770   35.9680   43.4760 C   0  0  0  0  0  0  0  0  0  0  0  0
   46.1820   35.0380   43.2560 C   0  0  0  0  0  0  0  0  0  0  0  0
   46.4100   34.1140   44.2200 N   0  0  0  0  0  0  0  0  0  0  0  0
   45.7070   34.0760   45.3600 C   0  0  0  0  0  0  0  0  0  0  0  0
   44.7320   34.9650   45.5910 N   0  0  0  0  0  0  0  0  0  0  0  0
   43.7060   36.6880   44.7150 H   0  0  0  0  0  0  0  0  0  0  0  0
   45.0230   36.6800   42.6970 H   0  0  0  0  0  0  0  0  0  0  0  0
   46.0030   33.0540   46.3610 C   0  0  0  0  0  0  0  0  0  0  0  0
   45.2480   32.9660   47.5140 C   0  0  0  0  0  0  0  0  0  0  0  0
   44.4520   33.6680   47.6330 H   0  0  0  0  0  0  0  0  0  0  0  0
   45.4930   32.0070   48.4980 C   0  0  0  0  0  0  0  0  0  0  0  0
   44.8610   32.0050   49.3630 H   0  0  0  0  0  0  0  0  0  0  0  0
   46.5550   31.1310   48.2530 C   0  0  0  0  0  0  0  0  0  0  0  0
   47.3070   31.2320   47.0890 C   0  0  0  0  0  0  0  0  0  0  0  0
   47.0150   32.1850   46.1760 N   0  0  0  0  0  0  0  0  0  0  0  0
   46.9820   34.9630   42.1300 O   0  0  0  0  0  0  0  0  0  0  0  0
   46.4640   34.2090   41.0310 C   0  0  0  0  0  0  0  0  0  0  0  0
   45.1960   34.6370   40.7240 F   0  0  0  0  0  0  0  0  0  0  0  0
   47.2960   34.4530   39.9270 F   0  0  0  0  0  0  0  0  0  0  0  0
   46.5150   32.8410   41.3030 F   0  0  0  0  0  0  0  0  0  0  0  0
  1  7  1  0  0  0  0
  1  6  1  0  0  0  0
  2  1  2  0  0  0  0
  3  2  1  0  0  0  0
  3  4  2  0  0  0  0
  4  5  1  0  0  0  0
  5  6  2  0  0  0  0
  5  9  1  0  0  0  0
  8  2  1  0  0  0  0
  9 10  1  0  0  0  0
 10 11  1  0  0  0  0
 10 12  2  0  0  0  0
 12 13  1  0  0  0  0
 14 12  1  0  0  0  0
 15 14  2  0  0  0  0
 16  9  2  0  0  0  0
 16 15  1  0  0  0  0
 17  3  1  0  0  0  0
 18 21  1  0  0  0  0
 18 17  1  0  0  0  0
 19 18  1  0  0  0  0
 20 18  1  0  0  0  0
M  END
>  <minimizedAffinity>
-5.15849781

>  <minimizedRMSD>
0.552356243

$$$$
