
 OpenBabel03252507253D

 26 28  0  0  0  0  0  0  0  0999 V2000
   45.7330   33.8620   45.5880 C   0  0  0  0  0  0  0  0  0  0  0  0
   44.7640   34.8340   45.8490 C   0  0  0  0  0  0  0  0  0  0  0  0
   44.4880   35.7520   44.8140 C   0  0  0  0  0  0  0  0  0  0  0  0
   45.1690   35.6510   43.6270 N   0  0  0  0  0  0  0  0  0  0  0  0
   46.0880   34.6900   43.4450 C   0  0  0  0  0  0  0  0  0  0  0  0
   46.3830   33.7960   44.4000 N   0  0  0  0  0  0  0  0  0  0  0  0
   44.2410   34.8940   46.7940 H   0  0  0  0  0  0  0  0  0  0  0  0
   43.7410   36.5380   44.9510 H   0  0  0  0  0  0  0  0  0  0  0  0
   46.7890   34.6200   42.1610 C   0  0  0  0  0  0  0  0  0  0  0  0
   47.9680   35.3080   41.9650 C   0  0  0  0  0  0  0  0  0  0  0  0
   48.6960   35.3030   40.7930 C   0  0  0  0  0  0  0  0  0  0  0  0
   48.1430   34.5280   39.7810 C   0  0  0  0  0  0  0  0  0  0  0  0
   46.9590   33.8250   39.9530 C   0  0  0  0  0  0  0  0  0  0  0  0
   46.3000   33.8860   41.1470 N   0  0  0  0  0  0  0  0  0  0  0  0
   48.3430   35.8960   42.7990 H   0  0  0  0  0  0  0  0  0  0  0  0
   49.6150   35.8620   40.6950 H   0  0  0  0  0  0  0  0  0  0  0  0
   48.6580   34.4710   38.8250 H   0  0  0  0  0  0  0  0  0  0  0  0
   46.5780   33.2360   39.1220 H   0  0  0  0  0  0  0  0  0  0  0  0
   46.0400   32.9050   46.6300 C   0  0  0  0  0  0  0  0  0  0  0  0
   45.2250   32.7790   47.7350 C   0  0  0  0  0  0  0  0  0  0  0  0
   44.3280   33.4110   47.8310 H   0  0  0  0  0  0  0  0  0  0  0  0
   45.4590   31.8960   48.7500 C   0  0  0  0  0  0  0  0  0  0  0  0
   44.8540   31.7580   49.6350 H   0  0  0  0  0  0  0  0  0  0  0  0
   46.6020   31.1250   48.5770 C   0  0  0  0  0  3  0  0  0  0  0  0
   47.4620   31.2140   47.4750 C   0  0  0  0  0  3  0  0  0  0  0  0
   47.1250   32.1220   46.5370 N   0  0  0  0  0  0  0  0  0  0  0  0
  1  2  1  0  0  0  0
  1 19  1  0  0  0  0
  2  7  1  0  0  0  0
  3  8  1  0  0  0  0
  3  2  2  0  0  0  0
  4  3  1  0  0  0  0
  5  4  2  0  0  0  0
  5  6  1  0  0  0  0
  6  1  2  0  0  0  0
  9  5  1  0  0  0  0
 10  9  1  0  0  0  0
 10 15  1  0  0  0  0
 11 10  2  0  0  0  0
 12 13  2  0  0  0  0
 12 11  1  0  0  0  0
 13 14  1  0  0  0  0
 14  9  2  0  0  0  0
 16 11  1  0  0  0  0
 17 12  1  0  0  0  0
 18 13  1  0  0  0  0
 19 20  1  0  0  0  0
 20 21  1  0  0  0  0
 20 22  2  0  0  0  0
 22 23  1  0  0  0  0
 24 22  1  0  0  0  0
 25 24  2  0  0  0  0
 26 19  2  0  0  0  0
 26 25  1  0  0  0  0
M  END
>  <minimizedAffinity>
-6.25772381

>  <minimizedRMSD>
0.279648274

$$$$
