
 OpenBabel03242520593D

 40 42  0  0  0  0  0  0  0  0999 V2000
   35.6380   28.7330   38.9640 C   0  0  0  0  0  3  0  0  0  0  0  0
   35.5060   27.6880   38.1760 C   0  0  0  0  0  3  0  0  0  0  0  0
   39.0530   29.2220   40.1640 C   0  0  0  0  0  0  0  0  0  0  0  0
   38.8560   29.2740   41.5750 C   0  0  0  0  0  0  0  0  0  0  0  0
   37.5900   29.1290   42.0850 C   0  0  0  0  0  0  0  0  0  0  0  0
   36.6240   28.9520   41.1870 N   0  0  0  0  0  0  0  0  0  0  0  0
   36.7770   28.9040   39.8690 C   0  0  0  0  0  0  0  0  0  0  0  0
   38.0040   29.0370   39.3440 N   0  0  0  0  0  0  0  0  0  0  0  0
   39.9960   29.3160   39.6420 H   0  0  0  0  0  0  0  0  0  0  0  0
   40.1120   29.5470   42.2340 C   0  0  0  0  0  0  0  0  0  0  0  0
   40.6600   30.7800   42.4970 C   0  0  0  0  0  0  0  0  0  0  0  0
   40.0590   31.6670   42.2210 H   0  0  0  0  0  0  0  0  0  0  0  0
   41.8800   31.0890   43.0500 C   0  0  0  0  0  0  0  0  0  0  0  0
   42.1970   32.1100   43.2070 H   0  0  0  0  0  0  0  0  0  0  0  0
   42.6750   30.0200   43.3930 C   0  0  0  0  0  3  0  0  0  0  0  0
   42.1600   28.7740   43.1450 C   0  0  0  0  0  3  0  0  0  0  0  0
   40.9660   28.5850   42.6050 N   0  0  0  0  0  0  0  0  0  0  0  0
   37.3650   29.1590   43.4050 O   0  0  0  0  0  0  0  0  0  0  0  0
   37.1810   27.9050   44.0880 C   0  0  0  0  0  0  0  0  0  0  0  0
   38.4280   27.2840   44.2550 F   0  0  0  0  0  0  0  0  0  0  0  0
   36.7130   28.2200   45.3640 F   0  0  0  0  0  0  0  0  0  0  0  0
   36.2640   27.0640   43.4810 F   0  0  0  0  0  0  0  0  0  0  0  0
   34.3370   27.5530   37.2730 C   0  0  0  0  0  0  0  0  0  0  0  0
   34.6890   26.9780   36.4200 H   0  0  0  0  0  0  0  0  0  0  0  0
   33.6080   26.8790   37.8100 H   0  0  0  0  0  0  0  0  0  0  0  0
   32.4720   28.6450   36.3880 C   0  0  0  0  0  0  0  0  0  0  0  0
   31.7850   27.6620   36.0140 O   0  0  0  0  0  0  0  0  0  0  0  0
   33.7010   28.7760   37.0250 N   0  0  0  0  0  0  0  0  0  0  0  0
   34.0390   29.7200   37.2570 H   0  0  0  0  0  0  0  0  0  0  0  0
   30.7040   30.1510   38.3630 Cl  0  0  0  0  0  0  0  0  0  0  0  0
   30.7330   30.5320   36.6730 C   0  0  0  0  0  0  0  0  0  0  0  0
   31.5950   29.7420   35.9560 C   0  0  0  0  0  0  0  0  0  0  0  0
   31.7390   29.9200   34.5720 C   0  0  0  0  0  0  0  0  0  0  0  0
   31.0030   30.9070   33.9170 C   0  0  0  0  0  0  0  0  0  0  0  0
   30.1400   31.6920   34.6580 C   0  0  0  0  0  0  0  0  0  0  0  0
   29.1860   32.9430   33.8990 Cl  0  0  0  0  0  0  0  0  0  0  0  0
   30.0180   31.4970   36.0070 C   0  0  0  0  0  0  0  0  0  0  0  0
   32.3810   29.3640   33.9050 H   0  0  0  0  0  0  0  0  0  0  0  0
   31.0760   31.0850   32.8560 H   0  0  0  0  0  0  0  0  0  0  0  0
   29.3570   32.0810   36.6470 H   0  0  0  0  0  0  0  0  0  0  0  0
  1  7  1  0  0  0  0
  2  1  2  0  0  0  0
  3  4  1  0  0  0  0
  4  5  2  0  0  0  0
  4 10  1  0  0  0  0
  5 18  1  0  0  0  0
  6  5  1  0  0  0  0
  7  6  2  0  0  0  0
  8  7  1  0  0  0  0
  8  3  2  0  0  0  0
  9  3  1  0  0  0  0
 10 11  2  0  0  0  0
 10 17  1  0  0  0  0
 11 13  1  0  0  0  0
 12 11  1  0  0  0  0
 13 14  1  0  0  0  0
 13 15  2  0  0  0  0
 16 15  1  0  0  0  0
 17 16  2  0  0  0  0
 18 19  1  0  0  0  0
 19 20  1  0  0  0  0
 19 21  1  0  0  0  0
 22 19  1  0  0  0  0
 23 25  1  0  0  0  0
 23  2  1  0  0  0  0
 24 23  1  0  0  0  0
 26 28  1  0  0  0  0
 27 26  2  0  0  0  0
 28 29  1  0  0  0  0
 28 23  1  0  0  0  0
 31 30  1  0  0  0  0
 32 26  1  0  0  0  0
 32 31  2  0  0  0  0
 33 32  1  0  0  0  0
 34 33  2  0  0  0  0
 34 35  1  0  0  0  0
 35 37  2  0  0  0  0
 36 35  1  0  0  0  0
 37 40  1  0  0  0  0
 37 31  1  0  0  0  0
 38 33  1  0  0  0  0
 39 34  1  0  0  0  0
M  END
>  <minimizedAffinity>
-6.47720814

$$$$

 OpenBabel03242520593D

 40 42  0  0  0  0  0  0  0  0999 V2000
   38.6200   31.3060   39.7850 C   0  0  0  0  0  3  0  0  0  0  0  0
   38.0700   32.3430   40.3790 C   0  0  0  0  0  3  0  0  0  0  0  0
   37.7800   27.8560   38.9340 C   0  0  0  0  0  0  0  0  0  0  0  0
   37.0650   27.4400   40.0960 C   0  0  0  0  0  0  0  0  0  0  0  0
   36.8710   28.3310   41.1220 C   0  0  0  0  0  0  0  0  0  0  0  0
   37.3900   29.5420   40.9410 N   0  0  0  0  0  0  0  0  0  0  0  0
   38.0640   29.9550   39.8730 C   0  0  0  0  0  0  0  0  0  0  0  0
   38.2630   29.1070   38.8520 N   0  0  0  0  0  0  0  0  0  0  0  0
   37.9920   27.2540   38.0610 H   0  0  0  0  0  0  0  0  0  0  0  0
   36.7090   26.0460   39.9780 C   0  0  0  0  0  0  0  0  0  0  0  0
   37.0660   25.0240   40.8260 C   0  0  0  0  0  0  0  0  0  0  0  0
   37.6490   25.2980   41.7270 H   0  0  0  0  0  0  0  0  0  0  0  0
   36.8180   23.6760   40.7170 C   0  0  0  0  0  0  0  0  0  0  0  0
   37.1560   22.9680   41.4600 H   0  0  0  0  0  0  0  0  0  0  0  0
   36.1120   23.2810   39.6040 C   0  0  0  0  0  3  0  0  0  0  0  0
   35.7390   24.2740   38.7360 C   0  0  0  0  0  3  0  0  0  0  0  0
   36.0310   25.5500   38.9360 N   0  0  0  0  0  0  0  0  0  0  0  0
   36.1930   27.9840   42.2240 O   0  0  0  0  0  0  0  0  0  0  0  0
   36.9250   27.8690   43.4590 C   0  0  0  0  0  0  0  0  0  0  0  0
   36.0750   27.3590   44.4530 F   0  0  0  0  0  0  0  0  0  0  0  0
   37.9130   26.9080   43.2400 F   0  0  0  0  0  0  0  0  0  0  0  0
   37.5390   29.0430   43.8580 F   0  0  0  0  0  0  0  0  0  0  0  0
   38.6650   33.6970   40.2640 C   0  0  0  0  0  0  0  0  0  0  0  0
   38.8830   33.8340   39.2080 H   0  0  0  0  0  0  0  0  0  0  0  0
   37.8310   34.4220   40.4960 H   0  0  0  0  0  0  0  0  0  0  0  0
   40.9600   33.9670   40.6000 C   0  0  0  0  0  0  0  0  0  0  0  0
   41.3760   33.8990   39.4160 O   0  0  0  0  0  0  0  0  0  0  0  0
   39.6990   33.9120   41.1840 N   0  0  0  0  0  0  0  0  0  0  0  0
   39.6210   34.0280   42.2030 H   0  0  0  0  0  0  0  0  0  0  0  0
   42.7990   31.5990   41.1550 Cl  0  0  0  0  0  0  0  0  0  0  0  0
   43.1940   33.2120   41.6520 C   0  0  0  0  0  0  0  0  0  0  0  0
   42.2380   34.1330   41.3050 C   0  0  0  0  0  0  0  0  0  0  0  0
   42.4040   35.4870   41.6320 C   0  0  0  0  0  0  0  0  0  0  0  0
   43.5460   35.9040   42.3150 C   0  0  0  0  0  0  0  0  0  0  0  0
   44.4970   34.9590   42.6540 C   0  0  0  0  0  0  0  0  0  0  0  0
   45.9490   35.4140   43.5120 Cl  0  0  0  0  0  0  0  0  0  0  0  0
   44.3110   33.6450   42.3230 C   0  0  0  0  0  0  0  0  0  0  0  0
   41.7260   36.3000   41.4150 H   0  0  0  0  0  0  0  0  0  0  0  0
   43.7220   36.9310   42.5900 H   0  0  0  0  0  0  0  0  0  0  0  0
   45.0210   32.8540   42.5610 H   0  0  0  0  0  0  0  0  0  0  0  0
  1  7  1  0  0  0  0
  1  2  2  0  0  0  0
  3  4  1  0  0  0  0
  4  5  2  0  0  0  0
  5 18  1  0  0  0  0
  6  5  1  0  0  0  0
  7  6  2  0  0  0  0
  8  3  2  0  0  0  0
  8  7  1  0  0  0  0
  9  3  1  0  0  0  0
 10  4  1  0  0  0  0
 10 11  1  0  0  0  0
 11 12  1  0  0  0  0
 13 11  2  0  0  0  0
 13 14  1  0  0  0  0
 15 13  1  0  0  0  0
 16 17  1  0  0  0  0
 16 15  2  0  0  0  0
 17 10  2  0  0  0  0
 18 19  1  0  0  0  0
 19 22  1  0  0  0  0
 19 20  1  0  0  0  0
 21 19  1  0  0  0  0
 23  2  1  0  0  0  0
 23 25  1  0  0  0  0
 23 28  1  0  0  0  0
 24 23  1  0  0  0  0
 26 28  1  0  0  0  0
 26 32  1  0  0  0  0
 27 26  2  0  0  0  0
 28 29  1  0  0  0  0
 30 31  1  0  0  0  0
 31 37  1  0  0  0  0
 32 33  1  0  0  0  0
 32 31  2  0  0  0  0
 33 34  2  0  0  0  0
 34 39  1  0  0  0  0
 34 35  1  0  0  0  0
 35 36  1  0  0  0  0
 37 40  1  0  0  0  0
 37 35  2  0  0  0  0
 38 33  1  0  0  0  0
M  END
>  <minimizedAffinity>
-6.42232609

$$$$

 OpenBabel03242520593D

 40 42  0  0  0  0  0  0  0  0999 V2000
   38.2650   29.9150   42.3450 C   0  0  0  0  0  3  0  0  0  0  0  0
   38.4150   29.0140   43.2920 C   0  0  0  0  0  3  0  0  0  0  0  0
   41.5460   31.5030   42.1170 C   0  0  0  0  0  0  0  0  0  0  0  0
   41.3010   32.5290   41.1570 C   0  0  0  0  0  0  0  0  0  0  0  0
   40.0440   32.6690   40.6270 C   0  0  0  0  0  0  0  0  0  0  0  0
   39.1330   31.8030   41.0640 N   0  0  0  0  0  0  0  0  0  0  0  0
   39.3330   30.8360   41.9520 C   0  0  0  0  0  0  0  0  0  0  0  0
   40.5520   30.6800   42.4910 N   0  0  0  0  0  0  0  0  0  0  0  0
   42.4860   31.2950   42.6100 H   0  0  0  0  0  0  0  0  0  0  0  0
   42.5300   33.2320   40.8700 C   0  0  0  0  0  0  0  0  0  0  0  0
   43.2690   33.1720   39.7120 C   0  0  0  0  0  0  0  0  0  0  0  0
   42.8610   32.5580   38.8860 H   0  0  0  0  0  0  0  0  0  0  0  0
   44.4770   33.7590   39.4200 C   0  0  0  0  0  0  0  0  0  0  0  0
   44.9600   33.6330   38.4610 H   0  0  0  0  0  0  0  0  0  0  0  0
   45.0360   34.5190   40.4220 C   0  0  0  0  0  3  0  0  0  0  0  0
   44.3260   34.6020   41.5910 C   0  0  0  0  0  3  0  0  0  0  0  0
   43.1640   33.9930   41.7700 N   0  0  0  0  0  0  0  0  0  0  0  0
   39.7700   33.6280   39.7320 O   0  0  0  0  0  0  0  0  0  0  0  0
   38.9030   34.7040   40.1390 C   0  0  0  0  0  0  0  0  0  0  0  0
   37.5830   34.3940   39.7770 F   0  0  0  0  0  0  0  0  0  0  0  0
   38.9440   34.7320   41.5330 F   0  0  0  0  0  0  0  0  0  0  0  0
   39.2900   35.9450   39.6650 F   0  0  0  0  0  0  0  0  0  0  0  0
   37.3080   28.0980   43.6600 C   0  0  0  0  0  0  0  0  0  0  0  0
   37.7310   27.3980   44.3760 H   0  0  0  0  0  0  0  0  0  0  0  0
   36.5730   28.7220   44.2470 H   0  0  0  0  0  0  0  0  0  0  0  0
   37.2930   26.4880   41.9680 C   0  0  0  0  0  0  0  0  0  0  0  0
   38.3330   25.8440   42.2540 O   0  0  0  0  0  0  0  0  0  0  0  0
   36.6450   27.5760   42.5430 N   0  0  0  0  0  0  0  0  0  0  0  0
   35.7640   27.9040   42.1230 H   0  0  0  0  0  0  0  0  0  0  0  0
   37.0710   27.8680   39.2590 Cl  0  0  0  0  0  0  0  0  0  0  0  0
   36.7050   26.1880   39.4720 C   0  0  0  0  0  0  0  0  0  0  0  0
   36.8700   25.7600   40.7650 C   0  0  0  0  0  0  0  0  0  0  0  0
   36.6160   24.4230   41.1090 C   0  0  0  0  0  0  0  0  0  0  0  0
   36.1930   23.5210   40.1330 C   0  0  0  0  0  0  0  0  0  0  0  0
   36.0340   23.9740   38.8370 C   0  0  0  0  0  0  0  0  0  0  0  0
   35.5040   22.8970   37.5670 Cl  0  0  0  0  0  0  0  0  0  0  0  0
   36.2890   25.2820   38.5270 C   0  0  0  0  0  0  0  0  0  0  0  0
   36.7090   23.9700   42.0850 H   0  0  0  0  0  0  0  0  0  0  0  0
   35.9850   22.4850   40.3440 H   0  0  0  0  0  0  0  0  0  0  0  0
   36.1830   25.7010   37.5270 H   0  0  0  0  0  0  0  0  0  0  0  0
  1  2  2  0  0  0  0
  2 23  1  0  0  0  0
  3  8  1  0  0  0  0
  3  9  1  0  0  0  0
  4  3  2  0  0  0  0
  5  6  2  0  0  0  0
  5  4  1  0  0  0  0
  6  7  1  0  0  0  0
  7  1  1  0  0  0  0
  7  8  2  0  0  0  0
 10  4  1  0  0  0  0
 10 17  1  0  0  0  0
 11 10  2  0  0  0  0
 12 11  1  0  0  0  0
 13 11  1  0  0  0  0
 13 15  2  0  0  0  0
 14 13  1  0  0  0  0
 15 16  1  0  0  0  0
 16 17  2  0  0  0  0
 18 19  1  0  0  0  0
 18  5  1  0  0  0  0
 19 21  1  0  0  0  0
 20 19  1  0  0  0  0
 22 19  1  0  0  0  0
 23 25  1  0  0  0  0
 23 24  1  0  0  0  0
 26 27  2  0  0  0  0
 26 28  1  0  0  0  0
 28 23  1  0  0  0  0
 29 28  1  0  0  0  0
 30 31  1  0  0  0  0
 31 32  1  0  0  0  0
 32 33  2  0  0  0  0
 32 26  1  0  0  0  0
 33 38  1  0  0  0  0
 34 39  1  0  0  0  0
 34 33  1  0  0  0  0
 35 34  2  0  0  0  0
 36 35  1  0  0  0  0
 37 35  1  0  0  0  0
 37 31  2  0  0  0  0
 40 37  1  0  0  0  0
M  END
>  <minimizedAffinity>
-6.25983238

$$$$

 OpenBabel03242520593D

 40 42  0  0  0  0  0  0  0  0999 V2000
   39.0680   27.8810   42.5940 C   0  0  0  0  0  3  0  0  0  0  0  0
   40.0780   27.0390   42.6260 C   0  0  0  0  0  3  0  0  0  0  0  0
   39.9140   31.4230   42.3230 C   0  0  0  0  0  0  0  0  0  0  0  0
   39.4340   31.7340   41.0160 C   0  0  0  0  0  0  0  0  0  0  0  0
   38.8280   30.7540   40.2710 C   0  0  0  0  0  0  0  0  0  0  0  0
   38.7440   29.5580   40.8490 N   0  0  0  0  0  0  0  0  0  0  0  0
   39.1850   29.2400   42.0610 C   0  0  0  0  0  0  0  0  0  0  0  0
   39.7770   30.1800   42.8130 N   0  0  0  0  0  0  0  0  0  0  0  0
   40.4020   32.1050   43.0070 H   0  0  0  0  0  0  0  0  0  0  0  0
   39.7560   33.1030   40.6900 C   0  0  0  0  0  0  0  0  0  0  0  0
   38.8910   34.1710   40.6510 C   0  0  0  0  0  0  0  0  0  0  0  0
   37.8420   33.9810   40.9490 H   0  0  0  0  0  0  0  0  0  0  0  0
   39.1320   35.4720   40.2740 C   0  0  0  0  0  0  0  0  0  0  0  0
   38.3580   36.2260   40.2890 H   0  0  0  0  0  0  0  0  0  0  0  0
   40.4180   35.7560   39.8770 C   0  0  0  0  0  3  0  0  0  0  0  0
   41.3080   34.7140   39.9030 C   0  0  0  0  0  3  0  0  0  0  0  0
   40.9710   33.4920   40.2850 N   0  0  0  0  0  0  0  0  0  0  0  0
   38.3520   31.0080   39.0450 O   0  0  0  0  0  0  0  0  0  0  0  0
   36.9990   31.4850   38.9310 C   0  0  0  0  0  0  0  0  0  0  0  0
   37.0040   32.7420   38.3070 F   0  0  0  0  0  0  0  0  0  0  0  0
   36.3470   30.6070   38.0640 F   0  0  0  0  0  0  0  0  0  0  0  0
   36.3090   31.5080   40.1300 F   0  0  0  0  0  0  0  0  0  0  0  0
   39.9170   25.6710   43.1730 C   0  0  0  0  0  0  0  0  0  0  0  0
   40.8850   25.1910   43.0560 H   0  0  0  0  0  0  0  0  0  0  0  0
   39.7770   25.7970   44.2870 H   0  0  0  0  0  0  0  0  0  0  0  0
   38.9600   24.5430   41.3650 C   0  0  0  0  0  0  0  0  0  0  0  0
   39.9210   24.5490   40.5560 O   0  0  0  0  0  0  0  0  0  0  0  0
   38.7900   25.0130   42.6630 N   0  0  0  0  0  0  0  0  0  0  0  0
   37.8890   24.8510   43.1330 H   0  0  0  0  0  0  0  0  0  0  0  0
   36.6110   26.0490   40.1360 Cl  0  0  0  0  0  0  0  0  0  0  0  0
   36.8310   24.3440   39.9180 C   0  0  0  0  0  0  0  0  0  0  0  0
   37.9490   23.8590   40.5490 C   0  0  0  0  0  0  0  0  0  0  0  0
   38.2740   22.4960   40.4720 C   0  0  0  0  0  0  0  0  0  0  0  0
   37.4580   21.6260   39.7500 C   0  0  0  0  0  0  0  0  0  0  0  0
   36.3370   22.1350   39.1220 C   0  0  0  0  0  0  0  0  0  0  0  0
   35.2720   21.0990   38.2040 Cl  0  0  0  0  0  0  0  0  0  0  0  0
   36.0430   23.4680   39.2120 C   0  0  0  0  0  0  0  0  0  0  0  0
   39.1210   21.9990   40.9220 H   0  0  0  0  0  0  0  0  0  0  0  0
   37.6620   20.5710   39.6590 H   0  0  0  0  0  0  0  0  0  0  0  0
   35.1760   23.9310   38.7410 H   0  0  0  0  0  0  0  0  0  0  0  0
  1  2  2  0  0  0  0
  2 23  1  0  0  0  0
  3  8  1  0  0  0  0
  3  9  1  0  0  0  0
  4  3  2  0  0  0  0
  5  6  2  0  0  0  0
  5  4  1  0  0  0  0
  6  7  1  0  0  0  0
  7  1  1  0  0  0  0
  7  8  2  0  0  0  0
 10  4  1  0  0  0  0
 11 10  1  0  0  0  0
 11 12  1  0  0  0  0
 13 14  1  0  0  0  0
 13 11  2  0  0  0  0
 15 16  2  0  0  0  0
 15 13  1  0  0  0  0
 16 17  1  0  0  0  0
 17 10  2  0  0  0  0
 18  5  1  0  0  0  0
 19 18  1  0  0  0  0
 19 22  1  0  0  0  0
 20 19  1  0  0  0  0
 21 19  1  0  0  0  0
 23 25  1  0  0  0  0
 24 23  1  0  0  0  0
 26 28  1  0  0  0  0
 27 26  2  0  0  0  0
 28 29  1  0  0  0  0
 28 23  1  0  0  0  0
 31 30  1  0  0  0  0
 31 32  1  0  0  0  0
 32 26  1  0  0  0  0
 33 32  2  0  0  0  0
 33 38  1  0  0  0  0
 34 33  1  0  0  0  0
 35 37  1  0  0  0  0
 35 34  2  0  0  0  0
 36 35  1  0  0  0  0
 37 31  2  0  0  0  0
 39 34  1  0  0  0  0
 40 37  1  0  0  0  0
M  END
>  <minimizedAffinity>
-6.21329498

$$$$

 OpenBabel03242520593D

 40 42  0  0  0  0  0  0  0  0999 V2000
   36.4910   29.9250   40.8190 C   0  0  0  0  0  3  0  0  0  0  0  0
   37.1320   30.7390   40.0090 C   0  0  0  0  0  3  0  0  0  0  0  0
   36.4540   26.4940   39.5670 C   0  0  0  0  0  0  0  0  0  0  0  0
   36.9900   25.7780   40.6780 C   0  0  0  0  0  0  0  0  0  0  0  0
   37.3330   26.4610   41.8170 C   0  0  0  0  0  0  0  0  0  0  0  0
   37.1350   27.7760   41.7840 N   0  0  0  0  0  0  0  0  0  0  0  0
   36.6430   28.4690   40.7630 C   0  0  0  0  0  0  0  0  0  0  0  0
   36.2940   27.8260   39.6390 N   0  0  0  0  0  0  0  0  0  0  0  0
   36.1410   26.0730   38.6210 H   0  0  0  0  0  0  0  0  0  0  0  0
   37.1290   24.3810   40.3380 C   0  0  0  0  0  0  0  0  0  0  0  0
   38.2500   23.6000   40.4840 C   0  0  0  0  0  0  0  0  0  0  0  0
   39.1330   24.0690   40.9580 H   0  0  0  0  0  0  0  0  0  0  0  0
   38.4550   22.2930   40.1070 C   0  0  0  0  0  0  0  0  0  0  0  0
   39.3930   21.7860   40.2810 H   0  0  0  0  0  0  0  0  0  0  0  0
   37.3930   21.6690   39.4950 C   0  0  0  0  0  3  0  0  0  0  0  0
   36.2570   22.4190   39.3330 C   0  0  0  0  0  3  0  0  0  0  0  0
   36.1640   23.6770   39.7340 N   0  0  0  0  0  0  0  0  0  0  0  0
   37.8270   25.8230   42.8870 O   0  0  0  0  0  0  0  0  0  0  0  0
   39.2390   25.9340   43.1460 C   0  0  0  0  0  0  0  0  0  0  0  0
   39.4410   26.7800   44.2470 F   0  0  0  0  0  0  0  0  0  0  0  0
   39.6660   24.6620   43.5310 F   0  0  0  0  0  0  0  0  0  0  0  0
   39.9820   26.3290   42.0480 F   0  0  0  0  0  0  0  0  0  0  0  0
   36.9520   32.2080   40.0980 C   0  0  0  0  0  0  0  0  0  0  0  0
   36.7100   32.5370   39.0910 H   0  0  0  0  0  0  0  0  0  0  0  0
   36.0110   32.3680   40.7010 H   0  0  0  0  0  0  0  0  0  0  0  0
   39.1390   33.0170   39.9700 C   0  0  0  0  0  0  0  0  0  0  0  0
   39.4100   32.7600   38.7700 O   0  0  0  0  0  0  0  0  0  0  0  0
   38.0090   32.8430   40.7620 N   0  0  0  0  0  0  0  0  0  0  0  0
   38.0320   33.1770   41.7350 H   0  0  0  0  0  0  0  0  0  0  0  0
   39.5300   36.0350   40.1490 Cl  0  0  0  0  0  0  0  0  0  0  0  0
   40.7940   34.9150   40.5360 C   0  0  0  0  0  0  0  0  0  0  0  0
   40.4160   33.6050   40.3940 C   0  0  0  0  0  0  0  0  0  0  0  0
   41.3230   32.5700   40.6690 C   0  0  0  0  0  0  0  0  0  0  0  0
   42.6180   32.8720   41.0900 C   0  0  0  0  0  0  0  0  0  0  0  0
   42.9780   34.1990   41.2260 C   0  0  0  0  0  0  0  0  0  0  0  0
   44.5840   34.6460   41.7460 Cl  0  0  0  0  0  0  0  0  0  0  0  0
   42.0740   35.1900   40.9520 C   0  0  0  0  0  0  0  0  0  0  0  0
   41.1440   31.5070   40.5950 H   0  0  0  0  0  0  0  0  0  0  0  0
   43.3530   32.1160   41.3140 H   0  0  0  0  0  0  0  0  0  0  0  0
   42.2950   36.2530   41.0400 H   0  0  0  0  0  0  0  0  0  0  0  0
  2 23  1  0  0  0  0
  2  1  2  0  0  0  0
  3  8  2  0  0  0  0
  3  4  1  0  0  0  0
  4  5  2  0  0  0  0
  5 18  1  0  0  0  0
  6  5  1  0  0  0  0
  7  1  1  0  0  0  0
  7  6  2  0  0  0  0
  8  7  1  0  0  0  0
  9  3  1  0  0  0  0
 10 11  1  0  0  0  0
 10  4  1  0  0  0  0
 11 12  1  0  0  0  0
 13 14  1  0  0  0  0
 13 11  2  0  0  0  0
 15 13  1  0  0  0  0
 16 15  2  0  0  0  0
 16 17  1  0  0  0  0
 17 10  2  0  0  0  0
 18 19  1  0  0  0  0
 19 21  1  0  0  0  0
 19 20  1  0  0  0  0
 22 19  1  0  0  0  0
 23 25  1  0  0  0  0
 23 28  1  0  0  0  0
 24 23  1  0  0  0  0
 26 32  1  0  0  0  0
 26 28  1  0  0  0  0
 27 26  2  0  0  0  0
 28 29  1  0  0  0  0
 30 31  1  0  0  0  0
 31 37  1  0  0  0  0
 32 31  2  0  0  0  0
 32 33  1  0  0  0  0
 33 34  2  0  0  0  0
 34 35  1  0  0  0  0
 34 39  1  0  0  0  0
 35 36  1  0  0  0  0
 37 40  1  0  0  0  0
 37 35  2  0  0  0  0
 38 33  1  0  0  0  0
M  END
>  <minimizedAffinity>
-6.15798235

$$$$

 OpenBabel03242520593D

 40 42  0  0  0  0  0  0  0  0999 V2000
   38.6550   26.9470   42.5170 C   0  0  0  0  0  3  0  0  0  0  0  0
   39.5670   26.0210   42.3180 C   0  0  0  0  0  3  0  0  0  0  0  0
   39.5630   30.4820   42.3840 C   0  0  0  0  0  0  0  0  0  0  0  0
   39.1090   30.8460   41.0820 C   0  0  0  0  0  0  0  0  0  0  0  0
   38.4980   29.9030   40.2940 C   0  0  0  0  0  0  0  0  0  0  0  0
   38.3850   28.6900   40.8280 N   0  0  0  0  0  0  0  0  0  0  0  0
   38.8030   28.3220   42.0340 C   0  0  0  0  0  0  0  0  0  0  0  0
   39.3980   29.2250   42.8280 N   0  0  0  0  0  0  0  0  0  0  0  0
   40.0510   31.1310   43.0990 H   0  0  0  0  0  0  0  0  0  0  0  0
   39.4580   32.2210   40.8090 C   0  0  0  0  0  0  0  0  0  0  0  0
   38.6210   33.3110   40.8450 C   0  0  0  0  0  0  0  0  0  0  0  0
   37.5770   33.1340   41.1650 H   0  0  0  0  0  0  0  0  0  0  0  0
   38.8860   34.6210   40.5210 C   0  0  0  0  0  0  0  0  0  0  0  0
   38.1340   35.3930   40.5930 H   0  0  0  0  0  0  0  0  0  0  0  0
   40.1670   34.8900   40.0990 C   0  0  0  0  0  3  0  0  0  0  0  0
   41.0290   33.8250   40.0500 C   0  0  0  0  0  3  0  0  0  0  0  0
   40.6710   32.5960   40.3860 N   0  0  0  0  0  0  0  0  0  0  0  0
   38.0450   30.2080   39.0700 O   0  0  0  0  0  0  0  0  0  0  0  0
   36.7330   30.7900   38.9610 C   0  0  0  0  0  0  0  0  0  0  0  0
   36.8410   32.0690   38.3950 F   0  0  0  0  0  0  0  0  0  0  0  0
   36.0310   30.0020   38.0480 F   0  0  0  0  0  0  0  0  0  0  0  0
   36.0270   30.8110   40.1510 F   0  0  0  0  0  0  0  0  0  0  0  0
   39.3790   24.6390   42.8230 C   0  0  0  0  0  0  0  0  0  0  0  0
   40.3330   24.1400   42.6790 H   0  0  0  0  0  0  0  0  0  0  0  0
   39.2530   24.7330   43.9410 H   0  0  0  0  0  0  0  0  0  0  0  0
   38.3550   23.6470   40.9720 C   0  0  0  0  0  0  0  0  0  0  0  0
   39.2910   23.7030   40.1350 O   0  0  0  0  0  0  0  0  0  0  0  0
   38.2310   24.0260   42.3050 N   0  0  0  0  0  0  0  0  0  0  0  0
   37.3440   23.8380   42.7900 H   0  0  0  0  0  0  0  0  0  0  0  0
   38.4830   20.7080   40.1750 Cl  0  0  0  0  0  0  0  0  0  0  0  0
   37.1860   21.7440   39.6770 C   0  0  0  0  0  0  0  0  0  0  0  0
   37.3130   23.0280   40.1430 C   0  0  0  0  0  0  0  0  0  0  0  0
   36.3460   23.9960   39.8310 C   0  0  0  0  0  0  0  0  0  0  0  0
   35.2470   23.6540   39.0440 C   0  0  0  0  0  0  0  0  0  0  0  0
   35.1390   22.3540   38.5860 C   0  0  0  0  0  0  0  0  0  0  0  0
   33.7890   21.8610   37.5930 Cl  0  0  0  0  0  0  0  0  0  0  0  0
   36.0960   21.4300   38.9050 C   0  0  0  0  0  0  0  0  0  0  0  0
   36.3360   25.0320   40.1360 H   0  0  0  0  0  0  0  0  0  0  0  0
   34.4770   24.3580   38.7750 H   0  0  0  0  0  0  0  0  0  0  0  0
   36.0690   20.3910   38.5750 H   0  0  0  0  0  0  0  0  0  0  0  0
  2  1  2  0  0  0  0
  2 23  1  0  0  0  0
  3  8  1  0  0  0  0
  3  9  1  0  0  0  0
  4  3  2  0  0  0  0
  5  6  2  0  0  0  0
  5  4  1  0  0  0  0
  6  7  1  0  0  0  0
  7  1  1  0  0  0  0
  7  8  2  0  0  0  0
 10 11  1  0  0  0  0
 10  4  1  0  0  0  0
 11 12  1  0  0  0  0
 13 14  1  0  0  0  0
 13 11  2  0  0  0  0
 15 13  1  0  0  0  0
 16 15  2  0  0  0  0
 16 17  1  0  0  0  0
 17 10  2  0  0  0  0
 18  5  1  0  0  0  0
 19 18  1  0  0  0  0
 19 22  1  0  0  0  0
 20 19  1  0  0  0  0
 21 19  1  0  0  0  0
 23 25  1  0  0  0  0
 24 23  1  0  0  0  0
 26 28  1  0  0  0  0
 27 26  2  0  0  0  0
 28 29  1  0  0  0  0
 28 23  1  0  0  0  0
 31 32  1  0  0  0  0
 31 30  1  0  0  0  0
 32 26  1  0  0  0  0
 33 38  1  0  0  0  0
 33 32  2  0  0  0  0
 34 33  1  0  0  0  0
 35 37  1  0  0  0  0
 35 34  2  0  0  0  0
 36 35  1  0  0  0  0
 37 31  2  0  0  0  0
 39 34  1  0  0  0  0
 40 37  1  0  0  0  0
M  END
>  <minimizedAffinity>
-6.07641077

$$$$

 OpenBabel03242520593D

 40 42  0  0  0  0  0  0  0  0999 V2000
   36.9100   28.7920   40.0890 C   0  0  0  0  0  3  0  0  0  0  0  0
   36.2910   29.4970   41.0100 C   0  0  0  0  0  3  0  0  0  0  0  0
   36.5490   25.3430   38.9440 C   0  0  0  0  0  0  0  0  0  0  0  0
   36.9910   24.6140   40.0870 C   0  0  0  0  0  0  0  0  0  0  0  0
   37.3810   25.2960   41.2120 C   0  0  0  0  0  0  0  0  0  0  0  0
   37.3170   26.6230   41.1330 N   0  0  0  0  0  0  0  0  0  0  0  0
   36.9150   27.3280   40.0810 C   0  0  0  0  0  0  0  0  0  0  0  0
   36.5230   26.6860   38.9700 N   0  0  0  0  0  0  0  0  0  0  0  0
   36.2120   24.9240   38.0040 H   0  0  0  0  0  0  0  0  0  0  0  0
   36.9940   23.2000   39.7930 C   0  0  0  0  0  0  0  0  0  0  0  0
   36.0010   22.4790   39.1720 C   0  0  0  0  0  0  0  0  0  0  0  0
   35.1210   23.0440   38.8090 H   0  0  0  0  0  0  0  0  0  0  0  0
   35.9240   21.1270   38.9390 C   0  0  0  0  0  0  0  0  0  0  0  0
   35.0810   20.6780   38.4340 H   0  0  0  0  0  0  0  0  0  0  0  0
   36.9870   20.3760   39.3880 C   0  0  0  0  0  3  0  0  0  0  0  0
   37.9960   21.0620   40.0130 C   0  0  0  0  0  3  0  0  0  0  0  0
   37.9710   22.3740   40.1870 N   0  0  0  0  0  0  0  0  0  0  0  0
   37.7890   24.6480   42.3100 O   0  0  0  0  0  0  0  0  0  0  0  0
   39.1550   24.8250   42.7310 C   0  0  0  0  0  0  0  0  0  0  0  0
   39.5450   23.7230   43.5070 F   0  0  0  0  0  0  0  0  0  0  0  0
   39.9280   24.7950   41.5690 F   0  0  0  0  0  0  0  0  0  0  0  0
   39.3910   26.0230   43.3810 F   0  0  0  0  0  0  0  0  0  0  0  0
   36.3100   30.9800   40.9820 C   0  0  0  0  0  0  0  0  0  0  0  0
   35.5870   31.2690   40.2230 H   0  0  0  0  0  0  0  0  0  0  0  0
   35.8640   31.3140   41.9640 H   0  0  0  0  0  0  0  0  0  0  0  0
   37.8380   32.2120   39.7160 C   0  0  0  0  0  0  0  0  0  0  0  0
   37.1240   32.5190   38.7280 O   0  0  0  0  0  0  0  0  0  0  0  0
   37.6060   31.5020   40.8890 N   0  0  0  0  0  0  0  0  0  0  0  0
   38.3700   31.4170   41.5730 H   0  0  0  0  0  0  0  0  0  0  0  0
   38.8440   34.7790   41.0150 Cl  0  0  0  0  0  0  0  0  0  0  0  0
   39.7260   33.9720   39.7600 C   0  0  0  0  0  0  0  0  0  0  0  0
   39.1050   32.8340   39.3120 C   0  0  0  0  0  0  0  0  0  0  0  0
   39.6870   32.0600   38.2960 C   0  0  0  0  0  0  0  0  0  0  0  0
   40.9050   32.4480   37.7370 C   0  0  0  0  0  0  0  0  0  0  0  0
   41.5130   33.5980   38.2040 C   0  0  0  0  0  0  0  0  0  0  0  0
   43.0370   34.1410   37.5450 Cl  0  0  0  0  0  0  0  0  0  0  0  0
   40.9240   34.3340   39.1960 C   0  0  0  0  0  0  0  0  0  0  0  0
   39.2980   31.1510   37.8620 H   0  0  0  0  0  0  0  0  0  0  0  0
   41.3950   31.8900   36.9550 H   0  0  0  0  0  0  0  0  0  0  0  0
   41.3510   35.2480   39.6070 H   0  0  0  0  0  0  0  0  0  0  0  0
  1  2  2  0  0  0  0
  3  8  2  0  0  0  0
  3  4  1  0  0  0  0
  4  5  2  0  0  0  0
  5 18  1  0  0  0  0
  6  5  1  0  0  0  0
  7  1  1  0  0  0  0
  7  6  2  0  0  0  0
  8  7  1  0  0  0  0
  9  3  1  0  0  0  0
 10  4  1  0  0  0  0
 10 17  1  0  0  0  0
 11 10  2  0  0  0  0
 12 11  1  0  0  0  0
 13 11  1  0  0  0  0
 13 15  2  0  0  0  0
 14 13  1  0  0  0  0
 15 16  1  0  0  0  0
 16 17  2  0  0  0  0
 18 19  1  0  0  0  0
 19 22  1  0  0  0  0
 19 20  1  0  0  0  0
 21 19  1  0  0  0  0
 23  2  1  0  0  0  0
 23 25  1  0  0  0  0
 24 23  1  0  0  0  0
 26 28  1  0  0  0  0
 27 26  2  0  0  0  0
 28 23  1  0  0  0  0
 28 29  1  0  0  0  0
 31 30  1  0  0  0  0
 32 26  1  0  0  0  0
 32 31  1  0  0  0  0
 33 32  2  0  0  0  0
 34 35  2  0  0  0  0
 34 33  1  0  0  0  0
 35 37  1  0  0  0  0
 36 35  1  0  0  0  0
 37 40  1  0  0  0  0
 37 31  2  0  0  0  0
 38 33  1  0  0  0  0
 39 34  1  0  0  0  0
M  END
>  <minimizedAffinity>
-5.9759469

$$$$

 OpenBabel03242520593D

 40 42  0  0  0  0  0  0  0  0999 V2000
   36.6630   30.0870   39.2200 C   0  0  0  0  0  3  0  0  0  0  0  0
   37.2980   30.7860   38.3050 C   0  0  0  0  0  3  0  0  0  0  0  0
   35.7520   26.6890   38.2380 C   0  0  0  0  0  0  0  0  0  0  0  0
   36.5370   25.9100   39.1380 C   0  0  0  0  0  0  0  0  0  0  0  0
   37.3350   26.5440   40.0580 C   0  0  0  0  0  0  0  0  0  0  0  0
   37.3110   27.8740   40.0230 N   0  0  0  0  0  0  0  0  0  0  0  0
   36.5950   28.6240   39.1940 C   0  0  0  0  0  0  0  0  0  0  0  0
   35.8010   28.0310   38.2890 N   0  0  0  0  0  0  0  0  0  0  0  0
   35.0820   26.3110   37.4770 H   0  0  0  0  0  0  0  0  0  0  0  0
   36.3670   24.5060   38.8460 C   0  0  0  0  0  0  0  0  0  0  0  0
   35.3370   23.6920   39.2540 C   0  0  0  0  0  0  0  0  0  0  0  0
   34.5180   24.1670   39.8280 H   0  0  0  0  0  0  0  0  0  0  0  0
   35.1710   22.3410   39.0670 C   0  0  0  0  0  0  0  0  0  0  0  0
   34.3050   21.8120   39.4410 H   0  0  0  0  0  0  0  0  0  0  0  0
   36.1710   21.7000   38.3740 C   0  0  0  0  0  3  0  0  0  0  0  0
   37.2160   22.4810   37.9510 C   0  0  0  0  0  3  0  0  0  0  0  0
   37.2790   23.7820   38.1860 N   0  0  0  0  0  0  0  0  0  0  0  0
   38.0770   25.8480   40.9290 O   0  0  0  0  0  0  0  0  0  0  0  0
   37.4990   25.5350   42.2100 C   0  0  0  0  0  0  0  0  0  0  0  0
   36.8640   24.2860   42.1360 F   0  0  0  0  0  0  0  0  0  0  0  0
   38.5670   25.3930   43.0960 F   0  0  0  0  0  0  0  0  0  0  0  0
   36.6530   26.5150   42.6990 F   0  0  0  0  0  0  0  0  0  0  0  0
   37.3440   32.2670   38.3690 C   0  0  0  0  0  0  0  0  0  0  0  0
   36.7620   32.6170   37.5190 H   0  0  0  0  0  0  0  0  0  0  0  0
   36.7460   32.5570   39.2820 H   0  0  0  0  0  0  0  0  0  0  0  0
   38.9870   33.0240   39.8460 C   0  0  0  0  0  0  0  0  0  0  0  0
   38.3930   32.8820   40.9440 O   0  0  0  0  0  0  0  0  0  0  0  0
   38.6450   32.7610   38.5230 N   0  0  0  0  0  0  0  0  0  0  0  0
   39.3420   32.9410   37.7880 H   0  0  0  0  0  0  0  0  0  0  0  0
   39.4450   36.0350   39.9800 Cl  0  0  0  0  0  0  0  0  0  0  0  0
   40.6610   34.8940   40.4520 C   0  0  0  0  0  0  0  0  0  0  0  0
   40.2570   33.5900   40.3190 C   0  0  0  0  0  0  0  0  0  0  0  0
   41.1230   32.5390   40.6600 C   0  0  0  0  0  0  0  0  0  0  0  0
   42.4040   32.8190   41.1360 C   0  0  0  0  0  0  0  0  0  0  0  0
   42.7900   34.1400   41.2630 C   0  0  0  0  0  0  0  0  0  0  0  0
   44.3800   34.5590   41.8500 Cl  0  0  0  0  0  0  0  0  0  0  0  0
   41.9260   35.1460   40.9240 C   0  0  0  0  0  0  0  0  0  0  0  0
   40.9210   31.4800   40.5990 H   0  0  0  0  0  0  0  0  0  0  0  0
   43.1070   32.0500   41.4120 H   0  0  0  0  0  0  0  0  0  0  0  0
   42.1690   36.2050   41.0000 H   0  0  0  0  0  0  0  0  0  0  0  0
  2 23  1  0  0  0  0
  2  1  2  0  0  0  0
  3  8  2  0  0  0  0
  3  4  1  0  0  0  0
  4  5  2  0  0  0  0
  5 18  1  0  0  0  0
  6  5  1  0  0  0  0
  7  1  1  0  0  0  0
  7  6  2  0  0  0  0
  8  7  1  0  0  0  0
  9  3  1  0  0  0  0
 10  4  1  0  0  0  0
 10 11  1  0  0  0  0
 11 12  1  0  0  0  0
 13 11  2  0  0  0  0
 13 14  1  0  0  0  0
 15 13  1  0  0  0  0
 16 17  1  0  0  0  0
 16 15  2  0  0  0  0
 17 10  2  0  0  0  0
 18 19  1  0  0  0  0
 19 22  1  0  0  0  0
 19 21  1  0  0  0  0
 20 19  1  0  0  0  0
 23 28  1  0  0  0  0
 23 25  1  0  0  0  0
 24 23  1  0  0  0  0
 26 32  1  0  0  0  0
 26 27  2  0  0  0  0
 28 26  1  0  0  0  0
 29 28  1  0  0  0  0
 30 31  1  0  0  0  0
 31 37  1  0  0  0  0
 32 31  2  0  0  0  0
 32 33  1  0  0  0  0
 33 34  2  0  0  0  0
 34 35  1  0  0  0  0
 34 39  1  0  0  0  0
 35 36  1  0  0  0  0
 37 40  1  0  0  0  0
 37 35  2  0  0  0  0
 38 33  1  0  0  0  0
M  END
>  <minimizedAffinity>
-5.95803785

$$$$

 OpenBabel03242520593D

 40 42  0  0  0  0  0  0  0  0999 V2000
   39.6860   29.9510   41.8710 C   0  0  0  0  0  3  0  0  0  0  0  0
   38.5340   30.0520   42.4980 C   0  0  0  0  0  3  0  0  0  0  0  0
   42.6430   31.8780   42.8100 C   0  0  0  0  0  0  0  0  0  0  0  0
   42.5880   32.9580   41.8800 C   0  0  0  0  0  0  0  0  0  0  0  0
   41.5560   33.0180   40.9780 C   0  0  0  0  0  0  0  0  0  0  0  0
   40.6710   32.0280   41.0470 N   0  0  0  0  0  0  0  0  0  0  0  0
   40.6990   31.0080   41.8980 C   0  0  0  0  0  0  0  0  0  0  0  0
   41.6940   30.9270   42.7950 N   0  0  0  0  0  0  0  0  0  0  0  0
   43.3970   31.7220   43.5700 H   0  0  0  0  0  0  0  0  0  0  0  0
   43.7450   33.8060   42.0470 C   0  0  0  0  0  0  0  0  0  0  0  0
   44.1860   34.3880   43.2120 C   0  0  0  0  0  0  0  0  0  0  0  0
   43.6290   34.1470   44.1370 H   0  0  0  0  0  0  0  0  0  0  0  0
   45.2310   35.2590   43.4070 C   0  0  0  0  0  0  0  0  0  0  0  0
   45.4790   35.6490   44.3840 H   0  0  0  0  0  0  0  0  0  0  0  0
   45.9460   35.6050   42.2840 C   0  0  0  0  0  3  0  0  0  0  0  0
   45.5340   35.0430   41.1030 C   0  0  0  0  0  3  0  0  0  0  0  0
   44.5080   34.2110   41.0240 N   0  0  0  0  0  0  0  0  0  0  0  0
   41.4620   34.0230   40.0970 O   0  0  0  0  0  0  0  0  0  0  0  0
   40.7160   35.1920   40.4840 C   0  0  0  0  0  0  0  0  0  0  0  0
   41.4940   35.9680   41.3560 F   0  0  0  0  0  0  0  0  0  0  0  0
   40.5400   35.9450   39.3220 F   0  0  0  0  0  0  0  0  0  0  0  0
   39.4690   34.9130   41.0160 F   0  0  0  0  0  0  0  0  0  0  0  0
   37.5350   28.9580   42.4470 C   0  0  0  0  0  0  0  0  0  0  0  0
   37.9070   28.1870   43.1170 H   0  0  0  0  0  0  0  0  0  0  0  0
   36.6060   29.3640   42.9420 H   0  0  0  0  0  0  0  0  0  0  0  0
   36.3450   29.4790   40.5060 C   0  0  0  0  0  0  0  0  0  0  0  0
   35.8210   30.5700   40.8440 O   0  0  0  0  0  0  0  0  0  0  0  0
   37.2060   28.5870   41.1370 N   0  0  0  0  0  0  0  0  0  0  0  0
   37.5230   27.7570   40.6190 H   0  0  0  0  0  0  0  0  0  0  0  0
   38.0530   29.9080   38.0180 Cl  0  0  0  0  0  0  0  0  0  0  0  0
   36.3730   29.4910   37.9250 C   0  0  0  0  0  0  0  0  0  0  0  0
   35.7860   29.3400   39.1550 C   0  0  0  0  0  0  0  0  0  0  0  0
   34.4280   29.0020   39.2580 C   0  0  0  0  0  0  0  0  0  0  0  0
   33.6670   28.8170   38.1040 C   0  0  0  0  0  0  0  0  0  0  0  0
   34.2790   28.9730   36.8750 C   0  0  0  0  0  0  0  0  0  0  0  0
   33.3820   28.7590   35.3910 Cl  0  0  0  0  0  0  0  0  0  0  0  0
   35.6050   29.3030   36.8020 C   0  0  0  0  0  0  0  0  0  0  0  0
   33.8570   28.8560   40.1640 H   0  0  0  0  0  0  0  0  0  0  0  0
   32.6210   28.5560   38.1270 H   0  0  0  0  0  0  0  0  0  0  0  0
   36.1450   29.4410   35.8650 H   0  0  0  0  0  0  0  0  0  0  0  0
  1  7  1  0  0  0  0
  1  2  2  0  0  0  0
  3  9  1  0  0  0  0
  4 10  1  0  0  0  0
  4  3  2  0  0  0  0
  5  6  2  0  0  0  0
  5  4  1  0  0  0  0
  6  7  1  0  0  0  0
  7  8  2  0  0  0  0
  8  3  1  0  0  0  0
 10 11  1  0  0  0  0
 11 13  2  0  0  0  0
 11 12  1  0  0  0  0
 13 14  1  0  0  0  0
 15 13  1  0  0  0  0
 16 15  2  0  0  0  0
 17 16  1  0  0  0  0
 17 10  2  0  0  0  0
 18 19  1  0  0  0  0
 18  5  1  0  0  0  0
 19 22  1  0  0  0  0
 19 20  1  0  0  0  0
 21 19  1  0  0  0  0
 23  2  1  0  0  0  0
 23 25  1  0  0  0  0
 23 24  1  0  0  0  0
 26 27  2  0  0  0  0
 26 28  1  0  0  0  0
 28 23  1  0  0  0  0
 29 28  1  0  0  0  0
 31 30  1  0  0  0  0
 31 32  1  0  0  0  0
 32 33  2  0  0  0  0
 32 26  1  0  0  0  0
 33 38  1  0  0  0  0
 34 39  1  0  0  0  0
 34 33  1  0  0  0  0
 35 34  2  0  0  0  0
 36 35  1  0  0  0  0
 37 35  1  0  0  0  0
 37 31  2  0  0  0  0
 40 37  1  0  0  0  0
M  END
>  <minimizedAffinity>
-5.93037319

$$$$
