
 OpenBabel03242513103D

 40 44  0  0  0  0  0  0  0  0999 V2000
   38.9480   27.8530   40.2200 C   0  0  0  0  0  0  0  0  0  0  0  0
   38.4990   27.3390   41.4430 C   0  0  0  0  0  0  0  0  0  0  0  0
   38.0040   28.2500   42.3620 C   0  0  0  0  0  0  0  0  0  0  0  0
   37.9940   29.5670   42.0020 N   0  0  0  0  0  0  0  0  0  0  0  0
   38.4220   30.0410   40.8390 C   0  0  0  0  0  0  0  0  0  0  0  0
   38.9090   29.1770   39.9290 N   0  0  0  0  0  0  0  0  0  0  0  0
   39.3440   27.2030   39.4640 H   0  0  0  0  0  0  0  0  0  0  0  0
   37.2950   32.0110   39.9090 C   0  0  0  0  0  0  0  0  0  0  0  0
   38.3660   31.4600   40.5570 C   0  0  0  0  0  0  0  0  0  0  0  0
   39.4730   32.2250   40.9880 C   0  0  0  0  0  0  0  0  0  0  0  0
   39.5000   33.5950   40.7570 C   0  0  0  0  0  0  0  0  0  0  0  0
   40.3560   34.6140   41.0150 N   0  0  0  0  0  0  0  0  0  0  0  0
   39.7840   35.7650   40.5160 C   0  0  0  0  0  0  0  0  0  0  0  0
   38.6000   35.4290   39.9690 N   0  0  0  0  0  0  0  0  0  0  0  0
   38.3990   34.1080   40.1010 C   0  0  0  0  0  0  0  0  0  0  0  0
   37.3040   33.3840   39.6680 C   0  0  0  0  0  0  0  0  0  0  0  0
   36.4580   31.4180   39.5850 H   0  0  0  0  0  0  0  0  0  0  0  0
   40.3120   31.7850   41.4970 H   0  0  0  0  0  0  0  0  0  0  0  0
   41.2660   34.4340   41.5130 H   0  0  0  0  0  0  0  0  0  0  0  0
   40.3430   36.6690   40.6410 H   0  0  0  0  0  0  0  0  0  0  0  0
   36.4770   33.8610   39.1590 H   0  0  0  0  0  0  0  0  0  0  0  0
   37.5150   27.7720   43.6700 C   0  0  0  0  0  0  0  0  0  0  0  0
   37.1020   28.8490   44.4680 F   0  0  0  0  0  0  0  0  0  0  0  0
   36.4110   26.9720   43.5060 F   0  0  0  0  0  0  0  0  0  0  0  0
   38.5420   27.1050   44.2940 F   0  0  0  0  0  0  0  0  0  0  0  0
   38.5700   26.0050   41.6660 O   0  0  0  0  0  0  0  0  0  0  0  0
   37.8000   25.0970   40.9820 C   0  0  0  0  0  0  0  0  0  0  0  0
   38.5540   23.9310   41.0340 C   0  0  0  0  0  0  0  0  0  0  0  0
   37.5070   22.7170   40.1120 S   0  0  0  0  0  0  0  0  0  0  0  0
   36.2120   24.0370   39.8160 C   0  0  0  0  0  0  0  0  0  0  0  0
   36.7000   24.8820   40.3290 N   0  0  0  0  0  0  0  0  0  0  0  0
   39.5260   23.4110   41.3970 H   0  0  0  0  0  0  0  0  0  0  0  0
   34.9700   23.6730   39.0440 C   0  0  0  0  0  0  0  0  0  0  0  0
   34.1380   22.6790   39.4920 C   0  0  0  0  0  0  0  0  0  0  0  0
   34.3450   22.1330   40.4010 H   0  0  0  0  0  0  0  0  0  0  0  0
   33.0350   22.4680   38.6620 C   0  0  0  0  0  0  0  0  0  0  0  0
   32.3250   21.6910   38.9530 H   0  0  0  0  0  0  0  0  0  0  0  0
   32.8680   23.2350   37.5090 C   0  0  0  0  0  3  0  0  0  0  0  0
   33.7650   24.2210   37.1380 C   0  0  0  0  0  3  0  0  0  0  0  0
   34.8380   24.4150   37.9580 N   0  0  0  0  0  0  0  0  0  0  0  0
  1  2  1  0  0  0  0
  2 26  1  0  0  0  0
  2  3  2  0  0  0  0
  3 22  1  0  0  0  0
  4  3  1  0  0  0  0
  5  4  2  0  0  0  0
  6  1  2  0  0  0  0
  6  5  1  0  0  0  0
  7  1  1  0  0  0  0
  8  9  1  0  0  0  0
  9  5  1  0  0  0  0
  9 10  2  0  0  0  0
 10 18  1  0  0  0  0
 11 10  1  0  0  0  0
 11 12  1  0  0  0  0
 12 19  1  0  0  0  0
 13 20  1  0  0  0  0
 13 12  1  0  0  0  0
 14 15  1  0  0  0  0
 14 13  2  0  0  0  0
 15 11  2  0  0  0  0
 16  8  2  0  0  0  0
 16 15  1  0  0  0  0
 17  8  1  0  0  0  0
 21 16  1  0  0  0  0
 22 25  1  0  0  0  0
 22 23  1  0  0  0  0
 24 22  1  0  0  0  0
 27 28  2  0  0  0  0
 27 26  1  0  0  0  0
 28 32  1  0  0  0  0
 29 28  1  0  0  0  0
 30 29  1  0  0  0  0
 30 31  2  0  0  0  0
 31 27  1  0  0  0  0
 33 34  1  0  0  0  0
 33 30  1  0  0  0  0
 34 35  1  0  0  0  0
 36 37  1  0  0  0  0
 36 34  2  0  0  0  0
 38 36  1  0  0  0  0
 39 38  2  0  0  0  0
 39 40  1  0  0  0  0
 40 33  2  0  0  0  0
M  END
>  <minimizedAffinity>
-7.17296314

$$$$

 OpenBabel03242513103D

 40 44  0  0  0  0  0  0  0  0999 V2000
   36.6120   28.2980   40.1710 C   0  0  0  0  0  0  0  0  0  0  0  0
   37.2130   28.6280   41.3920 C   0  0  0  0  0  0  0  0  0  0  0  0
   37.6850   27.5760   42.1620 C   0  0  0  0  0  0  0  0  0  0  0  0
   37.5260   26.3120   41.6690 N   0  0  0  0  0  0  0  0  0  0  0  0
   36.9540   26.0150   40.5090 C   0  0  0  0  0  0  0  0  0  0  0  0
   36.4870   27.0180   39.7430 N   0  0  0  0  0  0  0  0  0  0  0  0
   36.2250   29.0640   39.5270 H   0  0  0  0  0  0  0  0  0  0  0  0
   35.9130   24.2660   39.1420 C   0  0  0  0  0  0  0  0  0  0  0  0
   36.8370   24.6370   40.0790 C   0  0  0  0  0  0  0  0  0  0  0  0
   37.7230   23.7180   40.6830 C   0  0  0  0  0  0  0  0  0  0  0  0
   37.6770   22.3760   40.3270 C   0  0  0  0  0  0  0  0  0  0  0  0
   38.3420   21.2470   40.6780 N   0  0  0  0  0  0  0  0  0  0  0  0
   37.8060   20.2120   39.9420 C   0  0  0  0  0  0  0  0  0  0  0  0
   36.8330   20.7240   39.1640 N   0  0  0  0  0  0  0  0  0  0  0  0
   36.7310   22.0460   39.3780 C   0  0  0  0  0  0  0  0  0  0  0  0
   35.8510   22.9230   38.7720 C   0  0  0  0  0  0  0  0  0  0  0  0
   35.2420   24.9750   38.6890 H   0  0  0  0  0  0  0  0  0  0  0  0
   38.4470   24.0180   41.4200 H   0  0  0  0  0  0  0  0  0  0  0  0
   39.1110   21.2820   41.3960 H   0  0  0  0  0  0  0  0  0  0  0  0
   38.2270   19.2410   40.1050 H   0  0  0  0  0  0  0  0  0  0  0  0
   35.1360   22.5850   38.0340 H   0  0  0  0  0  0  0  0  0  0  0  0
   38.3290   27.8560   43.4600 C   0  0  0  0  0  0  0  0  0  0  0  0
   38.9020   26.6900   43.9900 F   0  0  0  0  0  0  0  0  0  0  0  0
   39.3590   28.7500   43.3010 F   0  0  0  0  0  0  0  0  0  0  0  0
   37.3690   28.3300   44.3220 F   0  0  0  0  0  0  0  0  0  0  0  0
   37.3020   29.9290   41.7560 O   0  0  0  0  0  0  0  0  0  0  0  0
   37.8140   30.8980   40.9290 C   0  0  0  0  0  0  0  0  0  0  0  0
   36.7050   31.6760   40.6190 C   0  0  0  0  0  0  0  0  0  0  0  0
   37.4080   32.9750   39.5070 S   0  0  0  0  0  0  0  0  0  0  0  0
   39.1100   32.2120   39.6650 C   0  0  0  0  0  0  0  0  0  0  0  0
   38.8660   31.3720   40.3360 N   0  0  0  0  0  0  0  0  0  0  0  0
   35.5670   31.8530   40.7560 H   0  0  0  0  0  0  0  0  0  0  0  0
   40.2610   32.8500   38.9320 C   0  0  0  0  0  0  0  0  0  0  0  0
   40.8050   32.2450   37.8270 C   0  0  0  0  0  0  0  0  0  0  0  0
   40.4290   31.3040   37.4540 H   0  0  0  0  0  0  0  0  0  0  0  0
   41.8620   32.9660   37.2680 C   0  0  0  0  0  0  0  0  0  0  0  0
   42.3470   32.5470   36.3840 H   0  0  0  0  0  0  0  0  0  0  0  0
   42.2650   34.1750   37.8360 C   0  0  0  0  0  3  0  0  0  0  0  0
   41.6510   34.7080   38.9560 C   0  0  0  0  0  3  0  0  0  0  0  0
   40.6210   33.9920   39.4920 N   0  0  0  0  0  0  0  0  0  0  0  0
  1  2  1  0  0  0  0
  2 26  1  0  0  0  0
  2  3  2  0  0  0  0
  3 22  1  0  0  0  0
  4  3  1  0  0  0  0
  5  4  2  0  0  0  0
  6  1  2  0  0  0  0
  6  5  1  0  0  0  0
  7  1  1  0  0  0  0
  8  9  1  0  0  0  0
  9  5  1  0  0  0  0
  9 10  2  0  0  0  0
 10 18  1  0  0  0  0
 11 12  1  0  0  0  0
 11 10  1  0  0  0  0
 12 19  1  0  0  0  0
 13 20  1  0  0  0  0
 13 12  1  0  0  0  0
 14 15  1  0  0  0  0
 14 13  2  0  0  0  0
 15 11  2  0  0  0  0
 16  8  2  0  0  0  0
 16 15  1  0  0  0  0
 17  8  1  0  0  0  0
 21 16  1  0  0  0  0
 22 23  1  0  0  0  0
 22 25  1  0  0  0  0
 24 22  1  0  0  0  0
 27 26  1  0  0  0  0
 28 32  1  0  0  0  0
 28 27  2  0  0  0  0
 29 30  1  0  0  0  0
 29 28  1  0  0  0  0
 30 31  2  0  0  0  0
 31 27  1  0  0  0  0
 33 40  1  0  0  0  0
 33 30  1  0  0  0  0
 34 33  2  0  0  0  0
 35 34  1  0  0  0  0
 36 34  1  0  0  0  0
 36 38  2  0  0  0  0
 37 36  1  0  0  0  0
 38 39  1  0  0  0  0
 39 40  2  0  0  0  0
M  END
>  <minimizedAffinity>
-7.01879072

$$$$

 OpenBabel03242513103D

 40 44  0  0  0  0  0  0  0  0999 V2000
   37.1500   27.9950   39.9260 C   0  0  0  0  0  0  0  0  0  0  0  0
   37.0690   27.4830   41.2280 C   0  0  0  0  0  0  0  0  0  0  0  0
   37.2560   28.3820   42.2670 C   0  0  0  0  0  0  0  0  0  0  0  0
   37.5030   29.6840   41.9380 N   0  0  0  0  0  0  0  0  0  0  0  0
   37.5760   30.1550   40.7000 C   0  0  0  0  0  0  0  0  0  0  0  0
   37.3990   29.3040   39.6730 N   0  0  0  0  0  0  0  0  0  0  0  0
   37.0160   27.3540   39.0760 H   0  0  0  0  0  0  0  0  0  0  0  0
   36.9550   32.3400   39.7760 C   0  0  0  0  0  0  0  0  0  0  0  0
   37.8430   31.5580   40.4620 C   0  0  0  0  0  0  0  0  0  0  0  0
   39.0610   32.0570   40.9750 C   0  0  0  0  0  0  0  0  0  0  0  0
   39.3950   33.3930   40.7910 C   0  0  0  0  0  0  0  0  0  0  0  0
   40.4330   34.1980   41.1270 N   0  0  0  0  0  0  0  0  0  0  0  0
   40.1520   35.4540   40.6350 C   0  0  0  0  0  0  0  0  0  0  0  0
   38.9580   35.3940   40.0160 N   0  0  0  0  0  0  0  0  0  0  0  0
   38.4700   34.1450   40.0940 C   0  0  0  0  0  0  0  0  0  0  0  0
   37.2730   33.6840   39.5810 C   0  0  0  0  0  0  0  0  0  0  0  0
   36.0310   31.9490   39.3890 H   0  0  0  0  0  0  0  0  0  0  0  0
   39.7540   31.4360   41.5140 H   0  0  0  0  0  0  0  0  0  0  0  0
   41.2520   33.8150   41.6660 H   0  0  0  0  0  0  0  0  0  0  0  0
   40.8840   36.2140   40.8190 H   0  0  0  0  0  0  0  0  0  0  0  0
   36.5990   34.3380   39.0440 H   0  0  0  0  0  0  0  0  0  0  0  0
   37.1830   27.9050   43.6620 C   0  0  0  0  0  0  0  0  0  0  0  0
   37.2080   28.9860   44.5560 F   0  0  0  0  0  0  0  0  0  0  0  0
   35.9960   27.2520   43.8840 F   0  0  0  0  0  0  0  0  0  0  0  0
   38.2660   27.0920   43.8950 F   0  0  0  0  0  0  0  0  0  0  0  0
   36.8180   26.1650   41.4060 O   0  0  0  0  0  0  0  0  0  0  0  0
   37.5330   25.1800   40.7700 C   0  0  0  0  0  0  0  0  0  0  0  0
   36.8010   24.0290   41.0320 C   0  0  0  0  0  0  0  0  0  0  0  0
   37.7730   22.7130   40.1700 S   0  0  0  0  0  0  0  0  0  0  0  0
   39.0210   23.9870   39.6010 C   0  0  0  0  0  0  0  0  0  0  0  0
   38.5730   24.8880   40.0520 N   0  0  0  0  0  0  0  0  0  0  0  0
   35.8720   23.5570   41.5420 H   0  0  0  0  0  0  0  0  0  0  0  0
   40.1910   23.5330   38.7680 C   0  0  0  0  0  0  0  0  0  0  0  0
   41.2870   24.3430   38.6040 C   0  0  0  0  0  0  0  0  0  0  0  0
   41.3430   25.3190   39.0630 H   0  0  0  0  0  0  0  0  0  0  0  0
   42.2790   23.7730   37.8040 C   0  0  0  0  0  0  0  0  0  0  0  0
   43.1840   24.3580   37.6280 H   0  0  0  0  0  0  0  0  0  0  0  0
   42.0980   22.5010   37.2620 C   0  0  0  0  0  3  0  0  0  0  0  0
   40.9530   21.7560   37.4840 C   0  0  0  0  0  3  0  0  0  0  0  0
   39.9920   22.3260   38.2670 N   0  0  0  0  0  0  0  0  0  0  0  0
  1  2  1  0  0  0  0
  2 26  1  0  0  0  0
  2  3  2  0  0  0  0
  3 22  1  0  0  0  0
  4  3  1  0  0  0  0
  5  4  2  0  0  0  0
  6  1  2  0  0  0  0
  6  5  1  0  0  0  0
  7  1  1  0  0  0  0
  8  9  1  0  0  0  0
  9  5  1  0  0  0  0
  9 10  2  0  0  0  0
 10 18  1  0  0  0  0
 11 10  1  0  0  0  0
 11 12  1  0  0  0  0
 12 19  1  0  0  0  0
 13 20  1  0  0  0  0
 13 12  1  0  0  0  0
 14 15  1  0  0  0  0
 14 13  2  0  0  0  0
 15 11  2  0  0  0  0
 16  8  2  0  0  0  0
 16 15  1  0  0  0  0
 17  8  1  0  0  0  0
 21 16  1  0  0  0  0
 22 24  1  0  0  0  0
 22 25  1  0  0  0  0
 22 23  1  0  0  0  0
 27 28  2  0  0  0  0
 27 26  1  0  0  0  0
 28 32  1  0  0  0  0
 29 28  1  0  0  0  0
 30 31  2  0  0  0  0
 30 29  1  0  0  0  0
 31 27  1  0  0  0  0
 33 30  1  0  0  0  0
 34 33  1  0  0  0  0
 34 35  1  0  0  0  0
 36 34  2  0  0  0  0
 37 36  1  0  0  0  0
 38 39  2  0  0  0  0
 38 36  1  0  0  0  0
 39 40  1  0  0  0  0
 40 33  2  0  0  0  0
M  END
>  <minimizedAffinity>
-7.01000643

$$$$

 OpenBabel03242513103D

 40 44  0  0  0  0  0  0  0  0999 V2000
   37.5510   27.5800   40.5240 C   0  0  0  0  0  0  0  0  0  0  0  0
   37.3550   27.2230   41.8640 C   0  0  0  0  0  0  0  0  0  0  0  0
   37.3150   28.2550   42.7880 C   0  0  0  0  0  0  0  0  0  0  0  0
   37.4690   29.5280   42.3190 N   0  0  0  0  0  0  0  0  0  0  0  0
   37.6540   29.8530   41.0460 C   0  0  0  0  0  0  0  0  0  0  0  0
   37.6980   28.8690   40.1280 N   0  0  0  0  0  0  0  0  0  0  0  0
   37.5920   26.8310   39.7580 H   0  0  0  0  0  0  0  0  0  0  0  0
   36.9080   31.8390   39.8150 C   0  0  0  0  0  0  0  0  0  0  0  0
   37.8070   31.2380   40.6540 C   0  0  0  0  0  0  0  0  0  0  0  0
   38.9260   31.9160   41.1850 C   0  0  0  0  0  0  0  0  0  0  0  0
   39.1470   33.2490   40.8600 C   0  0  0  0  0  0  0  0  0  0  0  0
   40.0750   34.1900   41.1650 N   0  0  0  0  0  0  0  0  0  0  0  0
   39.7180   35.3450   40.5030 C   0  0  0  0  0  0  0  0  0  0  0  0
   38.5900   35.0900   39.8130 N   0  0  0  0  0  0  0  0  0  0  0  0
   38.2160   33.8150   40.0120 C   0  0  0  0  0  0  0  0  0  0  0  0
   37.1140   33.1760   39.4770 C   0  0  0  0  0  0  0  0  0  0  0  0
   36.0600   31.3120   39.4160 H   0  0  0  0  0  0  0  0  0  0  0  0
   39.6280   31.4370   41.8450 H   0  0  0  0  0  0  0  0  0  0  0  0
   40.8790   33.9600   41.8040 H   0  0  0  0  0  0  0  0  0  0  0  0
   40.3570   36.1920   40.6410 H   0  0  0  0  0  0  0  0  0  0  0  0
   36.4280   33.6900   38.8170 H   0  0  0  0  0  0  0  0  0  0  0  0
   37.1110   27.9460   44.2170 C   0  0  0  0  0  0  0  0  0  0  0  0
   35.9050   27.2550   44.4060 F   0  0  0  0  0  0  0  0  0  0  0  0
   38.1040   27.1140   44.6730 F   0  0  0  0  0  0  0  0  0  0  0  0
   37.0760   29.1310   44.9120 F   0  0  0  0  0  0  0  0  0  0  0  0
   37.2170   25.9150   42.1870 O   0  0  0  0  0  0  0  0  0  0  0  0
   37.0380   24.9330   41.2450 C   0  0  0  0  0  0  0  0  0  0  0  0
   38.1580   24.1260   41.4030 C   0  0  0  0  0  0  0  0  0  0  0  0
   37.9050   22.8080   40.1310 S   0  0  0  0  0  0  0  0  0  0  0  0
   36.2950   23.6070   39.6030 C   0  0  0  0  0  0  0  0  0  0  0  0
   36.2850   24.4610   40.3000 N   0  0  0  0  0  0  0  0  0  0  0  0
   39.1500   23.9320   41.9730 H   0  0  0  0  0  0  0  0  0  0  0  0
   35.5000   22.9690   38.4940 C   0  0  0  0  0  0  0  0  0  0  0  0
   34.5470   22.0230   38.7740 C   0  0  0  0  0  0  0  0  0  0  0  0
   34.3400   21.7100   39.7860 H   0  0  0  0  0  0  0  0  0  0  0  0
   33.9040   21.5350   37.6350 C   0  0  0  0  0  0  0  0  0  0  0  0
   33.1310   20.7770   37.7780 H   0  0  0  0  0  0  0  0  0  0  0  0
   34.2540   22.0130   36.3720 C   0  0  0  0  0  3  0  0  0  0  0  0
   35.2320   22.9740   36.1890 C   0  0  0  0  0  3  0  0  0  0  0  0
   35.8530   23.4410   37.3100 N   0  0  0  0  0  0  0  0  0  0  0  0
  1  2  1  0  0  0  0
  2 26  1  0  0  0  0
  2  3  2  0  0  0  0
  3 22  1  0  0  0  0
  4  3  1  0  0  0  0
  5  4  2  0  0  0  0
  6  1  2  0  0  0  0
  6  5  1  0  0  0  0
  7  1  1  0  0  0  0
  8  9  1  0  0  0  0
  9  5  1  0  0  0  0
  9 10  2  0  0  0  0
 10 18  1  0  0  0  0
 11 12  1  0  0  0  0
 11 10  1  0  0  0  0
 12 19  1  0  0  0  0
 13 20  1  0  0  0  0
 13 12  1  0  0  0  0
 14 15  1  0  0  0  0
 14 13  2  0  0  0  0
 15 11  2  0  0  0  0
 16  8  2  0  0  0  0
 16 15  1  0  0  0  0
 17  8  1  0  0  0  0
 21 16  1  0  0  0  0
 22 23  1  0  0  0  0
 22 24  1  0  0  0  0
 22 25  1  0  0  0  0
 27 28  2  0  0  0  0
 27 26  1  0  0  0  0
 28 32  1  0  0  0  0
 29 28  1  0  0  0  0
 30 29  1  0  0  0  0
 30 31  2  0  0  0  0
 31 27  1  0  0  0  0
 33 34  1  0  0  0  0
 33 30  1  0  0  0  0
 34 35  1  0  0  0  0
 36 37  1  0  0  0  0
 36 34  2  0  0  0  0
 38 36  1  0  0  0  0
 39 38  2  0  0  0  0
 39 40  1  0  0  0  0
 40 33  2  0  0  0  0
M  END
>  <minimizedAffinity>
-6.84834385

$$$$

 OpenBabel03242513103D

 40 44  0  0  0  0  0  0  0  0999 V2000
   36.6320   27.9440   41.5020 C   0  0  0  0  0  0  0  0  0  0  0  0
   37.6880   27.3040   42.1640 C   0  0  0  0  0  0  0  0  0  0  0  0
   38.8390   28.0470   42.3710 C   0  0  0  0  0  0  0  0  0  0  0  0
   38.8500   29.3340   41.9160 N   0  0  0  0  0  0  0  0  0  0  0  0
   37.8420   29.9290   41.2910 C   0  0  0  0  0  0  0  0  0  0  0  0
   36.7120   29.2290   41.0760 N   0  0  0  0  0  0  0  0  0  0  0  0
   35.7120   27.4270   41.3090 H   0  0  0  0  0  0  0  0  0  0  0  0
   37.0000   31.8740   40.0580 C   0  0  0  0  0  0  0  0  0  0  0  0
   37.9580   31.3020   40.8490 C   0  0  0  0  0  0  0  0  0  0  0  0
   39.1080   32.0010   41.2800 C   0  0  0  0  0  0  0  0  0  0  0  0
   39.2970   33.3240   40.9000 C   0  0  0  0  0  0  0  0  0  0  0  0
   40.2380   34.2780   41.1110 N   0  0  0  0  0  0  0  0  0  0  0  0
   39.8280   35.4110   40.4420 C   0  0  0  0  0  0  0  0  0  0  0  0
   38.6560   35.1300   39.8410 N   0  0  0  0  0  0  0  0  0  0  0  0
   38.3060   33.8610   40.1040 C   0  0  0  0  0  0  0  0  0  0  0  0
   37.1720   33.2010   39.6670 C   0  0  0  0  0  0  0  0  0  0  0  0
   36.1290   31.3320   39.7350 H   0  0  0  0  0  0  0  0  0  0  0  0
   39.8580   31.5450   41.9020 H   0  0  0  0  0  0  0  0  0  0  0  0
   41.0860   34.0700   41.6990 H   0  0  0  0  0  0  0  0  0  0  0  0
   40.4710   36.2650   40.5100 H   0  0  0  0  0  0  0  0  0  0  0  0
   36.4390   33.6930   39.0420 H   0  0  0  0  0  0  0  0  0  0  0  0
   39.9880   27.4300   43.0630 C   0  0  0  0  0  0  0  0  0  0  0  0
   40.9300   28.4050   43.4240 F   0  0  0  0  0  0  0  0  0  0  0  0
   39.5820   26.8390   44.2340 F   0  0  0  0  0  0  0  0  0  0  0  0
   40.5690   26.5250   42.2070 F   0  0  0  0  0  0  0  0  0  0  0  0
   37.5370   26.0180   42.5600 O   0  0  0  0  0  0  0  0  0  0  0  0
   37.2780   24.9960   41.6810 C   0  0  0  0  0  0  0  0  0  0  0  0
   38.4470   24.2440   41.7080 C   0  0  0  0  0  0  0  0  0  0  0  0
   38.0840   22.8710   40.5230 S   0  0  0  0  0  0  0  0  0  0  0  0
   36.3830   23.5810   40.1980 C   0  0  0  0  0  0  0  0  0  0  0  0
   36.4270   24.4590   40.8640 N   0  0  0  0  0  0  0  0  0  0  0  0
   39.5150   24.1130   42.1420 H   0  0  0  0  0  0  0  0  0  0  0  0
   35.4740   22.8710   39.2280 C   0  0  0  0  0  0  0  0  0  0  0  0
   34.1280   22.7780   39.4740 C   0  0  0  0  0  0  0  0  0  0  0  0
   33.6830   23.2050   40.3600 H   0  0  0  0  0  0  0  0  0  0  0  0
   33.4320   22.0890   38.4780 C   0  0  0  0  0  0  0  0  0  0  0  0
   32.3540   21.9730   38.6040 H   0  0  0  0  0  0  0  0  0  0  0  0
   34.1120   21.5770   37.3730 C   0  0  0  0  0  3  0  0  0  0  0  0
   35.4790   21.7230   37.2110 C   0  0  0  0  0  3  0  0  0  0  0  0
   36.1460   22.3970   38.1920 N   0  0  0  0  0  0  0  0  0  0  0  0
  1  2  1  0  0  0  0
  2  3  2  0  0  0  0
  2 26  1  0  0  0  0
  3 22  1  0  0  0  0
  4  3  1  0  0  0  0
  5  4  2  0  0  0  0
  6  5  1  0  0  0  0
  6  1  2  0  0  0  0
  7  1  1  0  0  0  0
  8  9  1  0  0  0  0
  9 10  2  0  0  0  0
  9  5  1  0  0  0  0
 10 18  1  0  0  0  0
 11 12  1  0  0  0  0
 11 10  1  0  0  0  0
 12 19  1  0  0  0  0
 13 20  1  0  0  0  0
 13 12  1  0  0  0  0
 14 15  1  0  0  0  0
 14 13  2  0  0  0  0
 15 11  2  0  0  0  0
 16  8  2  0  0  0  0
 16 15  1  0  0  0  0
 17  8  1  0  0  0  0
 21 16  1  0  0  0  0
 22 23  1  0  0  0  0
 22 24  1  0  0  0  0
 25 22  1  0  0  0  0
 27 28  2  0  0  0  0
 27 26  1  0  0  0  0
 28 32  1  0  0  0  0
 29 28  1  0  0  0  0
 30 29  1  0  0  0  0
 30 31  2  0  0  0  0
 31 27  1  0  0  0  0
 33 34  1  0  0  0  0
 33 30  1  0  0  0  0
 34 35  1  0  0  0  0
 36 37  1  0  0  0  0
 36 34  2  0  0  0  0
 38 36  1  0  0  0  0
 39 38  2  0  0  0  0
 39 40  1  0  0  0  0
 40 33  2  0  0  0  0
M  END
>  <minimizedAffinity>
-6.77528286

$$$$

 OpenBabel03242513103D

 40 44  0  0  0  0  0  0  0  0999 V2000
   39.1730   27.8050   40.6430 C   0  0  0  0  0  0  0  0  0  0  0  0
   38.6270   27.3300   41.8420 C   0  0  0  0  0  0  0  0  0  0  0  0
   37.9840   28.2570   42.6480 C   0  0  0  0  0  0  0  0  0  0  0  0
   37.9370   29.5490   42.2090 N   0  0  0  0  0  0  0  0  0  0  0  0
   38.4580   29.9850   41.0700 C   0  0  0  0  0  0  0  0  0  0  0  0
   39.0880   29.1060   40.2690 N   0  0  0  0  0  0  0  0  0  0  0  0
   39.6840   27.1410   39.9730 H   0  0  0  0  0  0  0  0  0  0  0  0
   37.2770   31.8430   39.9890 C   0  0  0  0  0  0  0  0  0  0  0  0
   38.3510   31.3810   40.6980 C   0  0  0  0  0  0  0  0  0  0  0  0
   39.4120   32.2180   41.1080 C   0  0  0  0  0  0  0  0  0  0  0  0
   39.3880   33.5710   40.7930 C   0  0  0  0  0  0  0  0  0  0  0  0
   40.1940   34.6400   41.0070 N   0  0  0  0  0  0  0  0  0  0  0  0
   39.5890   35.7320   40.4220 C   0  0  0  0  0  0  0  0  0  0  0  0
   38.4360   35.3120   39.8680 N   0  0  0  0  0  0  0  0  0  0  0  0
   38.2860   33.9940   40.0780 C   0  0  0  0  0  0  0  0  0  0  0  0
   37.2350   33.1980   39.6630 C   0  0  0  0  0  0  0  0  0  0  0  0
   36.4750   31.1950   39.6820 H   0  0  0  0  0  0  0  0  0  0  0  0
   40.2540   31.8470   41.6660 H   0  0  0  0  0  0  0  0  0  0  0  0
   41.0960   34.5310   41.5390 H   0  0  0  0  0  0  0  0  0  0  0  0
   40.1060   36.6660   40.5050 H   0  0  0  0  0  0  0  0  0  0  0  0
   36.4040   33.6060   39.1040 H   0  0  0  0  0  0  0  0  0  0  0  0
   37.3870   27.8210   43.9260 C   0  0  0  0  0  0  0  0  0  0  0  0
   36.9840   28.9280   44.6870 F   0  0  0  0  0  0  0  0  0  0  0  0
   36.2540   27.0800   43.6970 F   0  0  0  0  0  0  0  0  0  0  0  0
   38.3340   27.1060   44.6200 F   0  0  0  0  0  0  0  0  0  0  0  0
   38.7500   26.0180   42.1520 O   0  0  0  0  0  0  0  0  0  0  0  0
   38.4730   25.0150   41.2560 C   0  0  0  0  0  0  0  0  0  0  0  0
   37.0940   24.8730   41.3470 C   0  0  0  0  0  0  0  0  0  0  0  0
   36.7340   23.5230   40.1360 S   0  0  0  0  0  0  0  0  0  0  0  0
   38.5550   23.3910   39.7190 C   0  0  0  0  0  0  0  0  0  0  0  0
   38.9470   24.1740   40.3900 N   0  0  0  0  0  0  0  0  0  0  0  0
   36.1050   25.2280   41.8390 H   0  0  0  0  0  0  0  0  0  0  0  0
   38.9930   22.3770   38.6950 C   0  0  0  0  0  0  0  0  0  0  0  0
   38.9640   21.0360   38.9850 C   0  0  0  0  0  0  0  0  0  0  0  0
   38.6300   20.6710   39.9440 H   0  0  0  0  0  0  0  0  0  0  0  0
   39.4010   20.2350   37.9280 C   0  0  0  0  0  0  0  0  0  0  0  0
   39.4070   19.1540   38.0840 H   0  0  0  0  0  0  0  0  0  0  0  0
   39.8110   20.8170   36.7290 C   0  0  0  0  0  3  0  0  0  0  0  0
   39.8040   22.1860   36.5290 C   0  0  0  0  0  3  0  0  0  0  0  0
   39.3750   22.9570   37.5700 N   0  0  0  0  0  0  0  0  0  0  0  0
  1  2  1  0  0  0  0
  2 26  1  0  0  0  0
  2  3  2  0  0  0  0
  3 22  1  0  0  0  0
  4  3  1  0  0  0  0
  5  4  2  0  0  0  0
  6  1  2  0  0  0  0
  6  5  1  0  0  0  0
  7  1  1  0  0  0  0
  8  9  1  0  0  0  0
  9  5  1  0  0  0  0
  9 10  2  0  0  0  0
 10 18  1  0  0  0  0
 11 12  1  0  0  0  0
 11 10  1  0  0  0  0
 12 19  1  0  0  0  0
 13 20  1  0  0  0  0
 13 12  1  0  0  0  0
 14 15  1  0  0  0  0
 14 13  2  0  0  0  0
 15 11  2  0  0  0  0
 16  8  2  0  0  0  0
 16 15  1  0  0  0  0
 17  8  1  0  0  0  0
 21 16  1  0  0  0  0
 22 25  1  0  0  0  0
 22 23  1  0  0  0  0
 24 22  1  0  0  0  0
 27 28  2  0  0  0  0
 27 26  1  0  0  0  0
 28 32  1  0  0  0  0
 29 28  1  0  0  0  0
 30 29  1  0  0  0  0
 30 31  2  0  0  0  0
 31 27  1  0  0  0  0
 33 34  1  0  0  0  0
 33 30  1  0  0  0  0
 34 35  1  0  0  0  0
 36 37  1  0  0  0  0
 36 34  2  0  0  0  0
 38 36  1  0  0  0  0
 39 38  2  0  0  0  0
 39 40  1  0  0  0  0
 40 33  2  0  0  0  0
M  END
>  <minimizedAffinity>
-6.68621063

$$$$

 OpenBabel03242513103D

 40 44  0  0  0  0  0  0  0  0999 V2000
   38.7500   28.0530   39.9070 C   0  0  0  0  0  0  0  0  0  0  0  0
   38.3340   27.4970   41.1240 C   0  0  0  0  0  0  0  0  0  0  0  0
   37.9370   28.3820   42.1140 C   0  0  0  0  0  0  0  0  0  0  0  0
   37.9840   29.7150   41.8240 N   0  0  0  0  0  0  0  0  0  0  0  0
   38.3800   30.2280   40.6660 C   0  0  0  0  0  0  0  0  0  0  0  0
   38.7710   29.3910   39.6880 N   0  0  0  0  0  0  0  0  0  0  0  0
   39.0710   27.4240   39.0990 H   0  0  0  0  0  0  0  0  0  0  0  0
   37.3230   32.3030   39.8960 C   0  0  0  0  0  0  0  0  0  0  0  0
   38.3900   31.6620   40.4620 C   0  0  0  0  0  0  0  0  0  0  0  0
   39.5560   32.3420   40.8770 C   0  0  0  0  0  0  0  0  0  0  0  0
   39.6490   33.7190   40.7170 C   0  0  0  0  0  0  0  0  0  0  0  0
   40.5720   34.6750   40.9860 N   0  0  0  0  0  0  0  0  0  0  0  0
   40.0430   35.8800   40.5760 C   0  0  0  0  0  0  0  0  0  0  0  0
   38.8180   35.6390   40.0710 N   0  0  0  0  0  0  0  0  0  0  0  0
   38.5500   34.3250   40.1440 C   0  0  0  0  0  0  0  0  0  0  0  0
   37.3970   33.6850   39.7270 C   0  0  0  0  0  0  0  0  0  0  0  0
   36.4400   31.7750   39.5830 H   0  0  0  0  0  0  0  0  0  0  0  0
   40.3920   31.8300   41.3210 H   0  0  0  0  0  0  0  0  0  0  0  0
   41.4930   34.4200   41.4290 H   0  0  0  0  0  0  0  0  0  0  0  0
   40.6570   36.7460   40.7200 H   0  0  0  0  0  0  0  0  0  0  0  0
   36.5760   34.2330   39.2850 H   0  0  0  0  0  0  0  0  0  0  0  0
   37.4870   27.8590   43.4190 C   0  0  0  0  0  0  0  0  0  0  0  0
   37.1810   28.9120   44.2940 F   0  0  0  0  0  0  0  0  0  0  0  0
   36.3310   27.1340   43.2730 F   0  0  0  0  0  0  0  0  0  0  0  0
   38.5030   27.1010   43.9510 F   0  0  0  0  0  0  0  0  0  0  0  0
   38.3400   26.1510   41.2730 O   0  0  0  0  0  0  0  0  0  0  0  0
   37.7690   25.3000   40.3580 C   0  0  0  0  0  0  0  0  0  0  0  0
   36.8690   24.5660   41.1200 C   0  0  0  0  0  0  0  0  0  0  0  0
   36.1060   23.4270   39.8780 S   0  0  0  0  0  0  0  0  0  0  0  0
   37.1690   24.1670   38.5260 C   0  0  0  0  0  0  0  0  0  0  0  0
   37.7230   24.9110   39.1220 N   0  0  0  0  0  0  0  0  0  0  0  0
   36.4050   24.3680   42.1650 H   0  0  0  0  0  0  0  0  0  0  0  0
   37.0300   23.6360   37.1220 C   0  0  0  0  0  0  0  0  0  0  0  0
   35.9780   22.8220   36.7860 C   0  0  0  0  0  0  0  0  0  0  0  0
   35.2260   22.5410   37.5080 H   0  0  0  0  0  0  0  0  0  0  0  0
   35.9980   22.4200   35.4490 C   0  0  0  0  0  0  0  0  0  0  0  0
   35.1910   21.7690   35.1060 H   0  0  0  0  0  0  0  0  0  0  0  0
   37.0220   22.8460   34.6040 C   0  0  0  0  0  3  0  0  0  0  0  0
   38.0450   23.6710   35.0360 C   0  0  0  0  0  3  0  0  0  0  0  0
   38.0130   24.0560   36.3440 N   0  0  0  0  0  0  0  0  0  0  0  0
  1  2  1  0  0  0  0
  2 26  1  0  0  0  0
  2  3  2  0  0  0  0
  3 22  1  0  0  0  0
  4  3  1  0  0  0  0
  5  4  2  0  0  0  0
  6  1  2  0  0  0  0
  6  5  1  0  0  0  0
  7  1  1  0  0  0  0
  8  9  1  0  0  0  0
  9  5  1  0  0  0  0
  9 10  2  0  0  0  0
 10 18  1  0  0  0  0
 11 10  1  0  0  0  0
 11 12  1  0  0  0  0
 12 19  1  0  0  0  0
 13 20  1  0  0  0  0
 13 12  1  0  0  0  0
 14 15  1  0  0  0  0
 14 13  2  0  0  0  0
 15 11  2  0  0  0  0
 16  8  2  0  0  0  0
 16 15  1  0  0  0  0
 17  8  1  0  0  0  0
 21 16  1  0  0  0  0
 22 25  1  0  0  0  0
 22 23  1  0  0  0  0
 24 22  1  0  0  0  0
 27 28  2  0  0  0  0
 27 26  1  0  0  0  0
 28 32  1  0  0  0  0
 29 28  1  0  0  0  0
 30 31  2  0  0  0  0
 30 29  1  0  0  0  0
 31 27  1  0  0  0  0
 33 30  1  0  0  0  0
 34 33  1  0  0  0  0
 34 35  1  0  0  0  0
 36 34  2  0  0  0  0
 37 36  1  0  0  0  0
 38 39  2  0  0  0  0
 38 36  1  0  0  0  0
 39 40  1  0  0  0  0
 40 33  2  0  0  0  0
M  END
>  <minimizedAffinity>
-6.48988199

$$$$

 OpenBabel03242513103D

 40 44  0  0  0  0  0  0  0  0999 V2000
   38.0190   30.0780   40.8770 C   0  0  0  0  0  0  0  0  0  0  0  0
   38.0280   29.4500   42.1290 C   0  0  0  0  0  0  0  0  0  0  0  0
   37.1680   28.3760   42.2970 C   0  0  0  0  0  0  0  0  0  0  0  0
   36.3870   28.0200   41.2360 N   0  0  0  0  0  0  0  0  0  0  0  0
   36.3890   28.6240   40.0540 C   0  0  0  0  0  0  0  0  0  0  0  0
   37.2140   29.6710   39.8640 N   0  0  0  0  0  0  0  0  0  0  0  0
   38.6590   30.9150   40.6790 H   0  0  0  0  0  0  0  0  0  0  0  0
   35.7960   27.0230   38.2940 C   0  0  0  0  0  0  0  0  0  0  0  0
   35.5180   28.1650   38.9920 C   0  0  0  0  0  0  0  0  0  0  0  0
   34.3830   28.9630   38.7290 C   0  0  0  0  0  0  0  0  0  0  0  0
   33.4950   28.5940   37.7260 C   0  0  0  0  0  0  0  0  0  0  0  0
   32.3440   29.0890   37.2070 N   0  0  0  0  0  0  0  0  0  0  0  0
   31.9470   28.2330   36.2020 C   0  0  0  0  0  0  0  0  0  0  0  0
   32.8540   27.2410   36.1280 N   0  0  0  0  0  0  0  0  0  0  0  0
   33.8140   27.4350   37.0480 C   0  0  0  0  0  0  0  0  0  0  0  0
   34.9170   26.6360   37.2830 C   0  0  0  0  0  0  0  0  0  0  0  0
   36.6640   26.4240   38.5030 H   0  0  0  0  0  0  0  0  0  0  0  0
   34.1700   29.8610   39.2820 H   0  0  0  0  0  0  0  0  0  0  0  0
   31.9250   29.9780   37.5870 H   0  0  0  0  0  0  0  0  0  0  0  0
   31.0440   28.4870   35.6870 H   0  0  0  0  0  0  0  0  0  0  0  0
   35.0980   25.7400   36.7060 H   0  0  0  0  0  0  0  0  0  0  0  0
   37.1300   27.6700   43.5940 C   0  0  0  0  0  0  0  0  0  0  0  0
   38.3710   27.0780   43.8710 F   0  0  0  0  0  0  0  0  0  0  0  0
   36.8930   28.5570   44.6150 F   0  0  0  0  0  0  0  0  0  0  0  0
   36.1620   26.6980   43.5250 F   0  0  0  0  0  0  0  0  0  0  0  0
   38.8580   29.9110   43.0940 O   0  0  0  0  0  0  0  0  0  0  0  0
   40.1420   30.3220   42.8350 C   0  0  0  0  0  0  0  0  0  0  0  0
   40.8440   29.1280   42.7140 C   0  0  0  0  0  0  0  0  0  0  0  0
   42.5690   29.6950   42.3640 S   0  0  0  0  0  0  0  0  0  0  0  0
   42.0160   31.4820   42.4490 C   0  0  0  0  0  0  0  0  0  0  0  0
   40.9450   31.3250   42.6630 N   0  0  0  0  0  0  0  0  0  0  0  0
   40.8110   27.9690   42.7370 H   0  0  0  0  0  0  0  0  0  0  0  0
   43.0370   32.5680   42.2310 C   0  0  0  0  0  0  0  0  0  0  0  0
   44.2150   32.5690   42.9350 C   0  0  0  0  0  0  0  0  0  0  0  0
   44.4430   31.8000   43.6570 H   0  0  0  0  0  0  0  0  0  0  0  0
   45.0470   33.6430   42.6140 C   0  0  0  0  0  0  0  0  0  0  0  0
   46.0050   33.7120   43.1340 H   0  0  0  0  0  0  0  0  0  0  0  0
   44.6480   34.5800   41.6610 C   0  0  0  0  0  3  0  0  0  0  0  0
   43.4350   34.4940   41.0000 C   0  0  0  0  0  3  0  0  0  0  0  0
   42.6320   33.4400   41.3250 N   0  0  0  0  0  0  0  0  0  0  0  0
  1  2  1  0  0  0  0
  2  3  2  0  0  0  0
  2 26  1  0  0  0  0
  3 22  1  0  0  0  0
  4  3  1  0  0  0  0
  5  4  2  0  0  0  0
  6  5  1  0  0  0  0
  6  1  2  0  0  0  0
  7  1  1  0  0  0  0
  8 17  1  0  0  0  0
  8  9  1  0  0  0  0
  9  5  1  0  0  0  0
 10  9  2  0  0  0  0
 10 18  1  0  0  0  0
 11 10  1  0  0  0  0
 12 19  1  0  0  0  0
 12 11  1  0  0  0  0
 13 12  1  0  0  0  0
 14 13  2  0  0  0  0
 14 15  1  0  0  0  0
 15 16  1  0  0  0  0
 15 11  2  0  0  0  0
 16  8  2  0  0  0  0
 20 13  1  0  0  0  0
 21 16  1  0  0  0  0
 22 23  1  0  0  0  0
 22 24  1  0  0  0  0
 25 22  1  0  0  0  0
 27 26  1  0  0  0  0
 28 32  1  0  0  0  0
 28 27  2  0  0  0  0
 29 30  1  0  0  0  0
 29 28  1  0  0  0  0
 30 31  2  0  0  0  0
 31 27  1  0  0  0  0
 33 30  1  0  0  0  0
 33 34  1  0  0  0  0
 34 35  1  0  0  0  0
 36 34  2  0  0  0  0
 36 37  1  0  0  0  0
 38 36  1  0  0  0  0
 39 40  1  0  0  0  0
 39 38  2  0  0  0  0
 40 33  2  0  0  0  0
M  END
>  <minimizedAffinity>
-6.34148264

$$$$

 OpenBabel03242513103D

 40 44  0  0  0  0  0  0  0  0999 V2000
   37.4780   28.0300   41.1340 C   0  0  0  0  0  0  0  0  0  0  0  0
   38.2700   27.2770   42.0100 C   0  0  0  0  0  0  0  0  0  0  0  0
   39.4710   27.8410   42.4100 C   0  0  0  0  0  0  0  0  0  0  0  0
   39.7810   29.0780   41.9210 N   0  0  0  0  0  0  0  0  0  0  0  0
   39.0210   29.7810   41.0920 C   0  0  0  0  0  0  0  0  0  0  0  0
   37.8500   29.2550   40.6870 N   0  0  0  0  0  0  0  0  0  0  0  0
   36.5360   27.6530   40.7840 H   0  0  0  0  0  0  0  0  0  0  0  0
   40.4060   31.2190   39.6680 C   0  0  0  0  0  0  0  0  0  0  0  0
   39.4450   31.0860   40.6330 C   0  0  0  0  0  0  0  0  0  0  0  0
   38.8130   32.1950   41.2370 C   0  0  0  0  0  0  0  0  0  0  0  0
   39.1620   33.4850   40.8540 C   0  0  0  0  0  0  0  0  0  0  0  0
   38.7870   34.7420   41.1970 N   0  0  0  0  0  0  0  0  0  0  0  0
   39.5310   35.6130   40.4300 C   0  0  0  0  0  0  0  0  0  0  0  0
   40.3370   34.8780   39.6410 N   0  0  0  0  0  0  0  0  0  0  0  0
   40.1340   33.5720   39.8790 C   0  0  0  0  0  0  0  0  0  0  0  0
   40.7700   32.5050   39.2710 C   0  0  0  0  0  0  0  0  0  0  0  0
   40.8810   30.3670   39.2160 H   0  0  0  0  0  0  0  0  0  0  0  0
   38.0580   32.0830   41.9950 H   0  0  0  0  0  0  0  0  0  0  0  0
   38.0490   34.8980   41.9320 H   0  0  0  0  0  0  0  0  0  0  0  0
   39.3510   36.6580   40.5830 H   0  0  0  0  0  0  0  0  0  0  0  0
   41.5250   32.6560   38.5110 H   0  0  0  0  0  0  0  0  0  0  0  0
   40.3520   27.0980   43.3330 C   0  0  0  0  0  0  0  0  0  0  0  0
   39.6320   26.6470   44.4490 F   0  0  0  0  0  0  0  0  0  0  0  0
   40.8500   25.9750   42.7190 F   0  0  0  0  0  0  0  0  0  0  0  0
   41.3540   27.9440   43.7430 F   0  0  0  0  0  0  0  0  0  0  0  0
   37.8350   26.0600   42.4150 O   0  0  0  0  0  0  0  0  0  0  0  0
   37.3800   25.1050   41.5390 C   0  0  0  0  0  0  0  0  0  0  0  0
   38.3430   24.1070   41.6220 C   0  0  0  0  0  0  0  0  0  0  0  0
   37.7190   22.8280   40.4410 S   0  0  0  0  0  0  0  0  0  0  0  0
   36.2380   23.9010   40.0390 C   0  0  0  0  0  0  0  0  0  0  0  0
   36.4590   24.7600   40.6950 N   0  0  0  0  0  0  0  0  0  0  0  0
   39.3360   23.7440   42.1010 H   0  0  0  0  0  0  0  0  0  0  0  0
   35.2270   23.3970   39.0420 C   0  0  0  0  0  0  0  0  0  0  0  0
   34.1830   22.6060   39.4490 C   0  0  0  0  0  0  0  0  0  0  0  0
   34.0540   22.3240   40.4830 H   0  0  0  0  0  0  0  0  0  0  0  0
   33.3400   22.2260   38.4020 C   0  0  0  0  0  0  0  0  0  0  0  0
   32.4840   21.5940   38.6470 H   0  0  0  0  0  0  0  0  0  0  0  0
   33.6030   22.6500   37.1000 C   0  0  0  0  0  3  0  0  0  0  0  0
   34.6870   23.4520   36.7860 C   0  0  0  0  0  3  0  0  0  0  0  0
   35.5020   23.8150   37.8180 N   0  0  0  0  0  0  0  0  0  0  0  0
  1  2  1  0  0  0  0
  2  3  2  0  0  0  0
  2 26  1  0  0  0  0
  3 22  1  0  0  0  0
  4  3  1  0  0  0  0
  5  4  2  0  0  0  0
  6  5  1  0  0  0  0
  6  1  2  0  0  0  0
  7  1  1  0  0  0  0
  8  9  1  0  0  0  0
  9  5  1  0  0  0  0
  9 10  2  0  0  0  0
 10 18  1  0  0  0  0
 11 12  1  0  0  0  0
 11 10  1  0  0  0  0
 12 19  1  0  0  0  0
 13 20  1  0  0  0  0
 13 12  1  0  0  0  0
 14 15  1  0  0  0  0
 14 13  2  0  0  0  0
 15 11  2  0  0  0  0
 16  8  2  0  0  0  0
 16 15  1  0  0  0  0
 17  8  1  0  0  0  0
 21 16  1  0  0  0  0
 22 25  1  0  0  0  0
 22 23  1  0  0  0  0
 24 22  1  0  0  0  0
 27 28  2  0  0  0  0
 27 26  1  0  0  0  0
 28 32  1  0  0  0  0
 29 28  1  0  0  0  0
 30 29  1  0  0  0  0
 30 31  2  0  0  0  0
 31 27  1  0  0  0  0
 33 34  1  0  0  0  0
 33 30  1  0  0  0  0
 34 35  1  0  0  0  0
 36 37  1  0  0  0  0
 36 34  2  0  0  0  0
 38 36  1  0  0  0  0
 39 38  2  0  0  0  0
 39 40  1  0  0  0  0
 40 33  2  0  0  0  0
M  END
>  <minimizedAffinity>
-6.32980204

$$$$
