
 OpenBabel03242522023D

 34 36  0  0  1  0  0  0  0  0999 V2000
   47.3820   33.7040   42.9900 N   0  0  0  0  0  0  0  0  0  0  0  0
   46.9710   32.8560   41.8940 C   0  0  0  0  0  0  0  0  0  0  0  0
   48.1530   32.3390   41.1170 C   0  0  0  0  0  0  0  0  0  0  0  0
   49.0830   33.3200   40.7250 N   0  0  0  0  0  0  0  0  0  0  0  0
   49.3070   34.3940   41.6270 C   0  0  2  0  0  0  0  0  0  0  0  0
   48.6790   34.3140   42.9570 C   0  0  0  0  0  0  0  0  0  0  0  0
   46.2640   33.4330   41.2380 H   0  0  0  0  0  0  0  0  0  0  0  0
   46.4050   31.9660   42.2400 H   0  0  0  0  0  0  0  0  0  0  0  0
   48.6250   31.5330   41.7230 H   0  0  0  0  0  0  0  0  0  0  0  0
   47.7540   31.8320   40.2100 H   0  0  0  0  0  0  0  0  0  0  0  0
   49.9690   32.8290   40.4320 H   0  0  0  0  0  0  0  0  0  0  0  0
   50.4060   34.4950   41.7680 H   0  0  0  0  0  0  0  0  0  0  0  0
   48.5980   35.3370   43.3850 H   0  0  0  0  0  0  0  0  0  0  0  0
   49.3790   33.7610   43.6430 H   0  0  0  0  0  0  0  0  0  0  0  0
   44.7380   35.0380   45.2860 C   0  0  0  0  0  0  0  0  0  0  0  0
   45.5260   34.9240   44.1290 C   0  0  0  0  0  0  0  0  0  0  0  0
   46.5150   33.9330   44.0900 C   0  0  0  0  0  0  0  0  0  0  0  0
   46.6270   33.1520   45.1990 N   0  0  0  0  0  0  0  0  0  0  0  0
   45.8550   33.2880   46.2930 C   0  0  0  0  0  0  0  0  0  0  0  0
   44.9020   34.2420   46.3290 N   0  0  0  0  0  0  0  0  0  0  0  0
   44.0220   35.8260   45.1940 H   0  0  0  0  0  0  0  0  0  0  0  0
   45.4250   35.5500   43.2570 H   0  0  0  0  0  0  0  0  0  0  0  0
   46.0480   32.4030   47.4370 C   0  0  0  0  0  0  0  0  0  0  0  0
   44.9630   32.0300   48.2040 C   0  0  0  0  0  0  0  0  0  0  0  0
   43.9630   32.3770   47.9800 H   0  0  0  0  0  0  0  0  0  0  0  0
   45.1790   31.1860   49.2870 C   0  0  0  0  0  0  0  0  0  0  0  0
   44.3810   30.8490   49.9350 H   0  0  0  0  0  0  0  0  0  0  0  0
   46.4840   30.7920   49.5000 C   0  0  0  0  0  0  0  0  0  0  0  0
   47.5810   31.1520   48.7470 C   0  0  0  0  0  0  0  0  0  0  0  0
   47.3160   31.9810   47.6980 N   0  0  0  0  0  0  0  0  0  0  0  0
   48.8480   35.6830   40.9760 C   0  0  0  0  0  0  0  0  0  0  0  0
   49.6500   36.7440   41.3770 F   0  0  0  0  0  0  0  0  0  0  0  0
   47.5860   35.9420   41.4860 F   0  0  0  0  0  0  0  0  0  0  0  0
   48.8570   35.6380   39.6110 F   0  0  0  0  0  0  0  0  0  0  0  0
  1 17  1  0  0  0  0
  2  8  1  0  0  0  0
  2  1  1  0  0  0  0
  3  9  1  0  0  0  0
  3  2  1  0  0  0  0
  4  3  1  0  0  0  0
  4  5  1  0  0  0  0
  5 12  1  1  0  0  0
  5  6  1  0  0  0  0
  6  1  1  0  0  0  0
  6 13  1  0  0  0  0
  6 14  1  0  0  0  0
  7  2  1  0  0  0  0
 10  3  1  0  0  0  0
 11  4  1  0  0  0  0
 15 20  1  0  0  0  0
 16 15  2  0  0  0  0
 17 16  1  0  0  0  0
 17 18  2  0  0  0  0
 18 19  1  0  0  0  0
 19 20  2  0  0  0  0
 19 23  1  0  0  0  0
 21 15  1  0  0  0  0
 22 16  1  0  0  0  0
 23 30  2  0  0  0  0
 23 24  1  0  0  0  0
 24 26  2  0  0  0  0
 25 24  1  0  0  0  0
 26 28  1  0  0  0  0
 26 27  1  0  0  0  0
 29 28  2  0  0  0  0
 30 29  1  0  0  0  0
 31 32  1  0  0  0  0
 31 33  1  0  0  0  0
 31  5  1  0  0  0  0
 34 31  1  0  0  0  0
M  END
>  <minimizedAffinity>
-6.3929534

>  <minimizedRMSD>
0.960427225

$$$$
