
     RDKit          3D

 28 30  0  0  0  0  0  0  0  0999 V2000
   45.6223   33.9576   45.4459 C   0  0  0  0  0  0  0  0  0  0  0  0
   44.7063   34.9810   45.7015 C   0  0  0  0  0  0  0  0  0  0  0  0
   44.5193   35.9385   44.6816 C   0  0  0  0  0  0  0  0  0  0  0  0
   45.2299   35.8221   43.5135 N   0  0  0  0  0  0  0  0  0  0  0  0
   46.0953   34.8109   43.3357 C   0  0  0  0  0  0  0  0  0  0  0  0
   46.3037   33.8793   44.2781 N   0  0  0  0  0  0  0  0  0  0  0  0
   46.8311   34.7274   42.0730 C   0  0  0  0  0  0  0  0  0  0  0  0
   48.0178   35.4073   41.9035 C   0  0  0  0  0  0  0  0  0  0  0  0
   48.7793   35.3892   40.7532 C   0  0  0  0  0  0  0  0  0  0  0  0
   48.2502   34.6075   39.7319 C   0  0  0  0  0  0  0  0  0  0  0  0
   47.0578   33.9135   39.8775 C   0  0  0  0  0  0  0  0  0  0  0  0
   46.3659   33.9866   41.0524 N   0  0  0  0  0  0  0  0  0  0  0  0
   44.1570   35.0524   46.6313 H   0  0  0  0  0  0  0  0  0  0  0  0
   43.8179   36.7654   44.8154 H   0  0  0  0  0  0  0  0  0  0  0  0
   48.3730   35.9998   42.7444 H   0  0  0  0  0  0  0  0  0  0  0  0
   49.7028   35.9422   40.6760 H   0  0  0  0  0  0  0  0  0  0  0  0
   48.7908   34.5410   38.7923 H   0  0  0  0  0  0  0  0  0  0  0  0
   46.6965   33.3187   39.0401 H   0  0  0  0  0  0  0  0  0  0  0  0
   45.8362   32.9602   46.4726 C   0  0  0  0  0  0  0  0  0  0  0  0
   47.0564   32.3293   46.6028 C   0  0  0  0  0  0  0  0  0  0  0  0
   47.8814   32.5846   45.9192 H   0  0  0  0  0  0  0  0  0  0  0  0
   47.3204   31.3817   47.5492 C   0  0  0  0  0  0  0  0  0  0  0  0
   48.2559   30.8590   47.6931 H   0  0  0  0  0  0  0  0  0  0  0  0
   46.2454   31.0997   48.3826 C   0  0  0  0  0  0  0  0  0  0  0  0
   44.9886   31.7097   48.2934 C   0  0  0  0  0  0  0  0  0  0  0  0
   44.8478   32.6308   47.3183 N   0  0  0  0  0  0  0  0  0  0  0  0
   46.3497   30.3617   49.1680 H   0  0  0  0  0  0  0  0  0  0  0  0
   44.2069   31.4287   48.9855 H   0  0  0  0  0  0  0  0  0  0  0  0
  1  2  2  0
  3  2  1  0
  4  3  2  0
  5  4  1  0
  5  6  2  0
  6  1  1  0
  7  5  1  0
  8  7  2  0
  9  8  1  0
 10 11  1  0
 10  9  2  0
 11 12  2  0
 12  7  1  0
  2 13  1  0
  3 14  1  0
  8 15  1  0
  9 16  1  0
 10 17  1  0
 11 18  1  0
 19 20  2  0
 20 21  1  0
 20 22  1  0
 22 23  1  0
 22 24  2  0
 24 25  1  0
 25 26  2  0
 26 19  1  0
 24 27  1  0
 25 28  1  0
  1 19  1  0
M  ISO  8  13  14  14  14  15  14  16  14  17  14  18  14  21  15  23  16
M  END
>  <DihAtoms>  (1) 
1,0,18,19

>  <DihDeg>  (1) 
179.99980656120744

$$$$
