
 OpenBabel03242518053D

 19 20  0  0  0  0  0  0  0  0999 V2000
   37.1880   31.5010   40.8540 C   0  0  0  0  0  0  0  0  0  0  0  0
   38.2180   30.6280   41.2410 C   0  0  0  0  0  0  0  0  0  0  0  0
   39.5480   31.0090   41.0190 C   0  0  0  0  0  0  0  0  0  0  0  0
   39.7460   32.2160   40.4360 N   0  0  0  0  0  0  0  0  0  0  0  0
   38.7640   33.0460   40.0700 C   0  0  0  0  0  0  0  0  0  0  0  0
   37.4920   32.6820   40.2810 N   0  0  0  0  0  0  0  0  0  0  0  0
   35.8240   31.1590   41.0580 N   0  0  0  0  0  0  0  0  0  0  0  0
   40.3370   30.3630   41.3030 H   0  0  0  0  0  0  0  0  0  0  0  0
   39.0840   33.9840   39.6120 H   0  0  0  0  0  0  0  0  0  0  0  0
   35.3270   31.1580   41.9970 H   0  0  0  0  0  0  0  0  0  0  0  0
   35.2060   30.8780   40.2690 H   0  0  0  0  0  0  0  0  0  0  0  0
   37.8540   29.3590   41.8570 C   0  0  0  0  0  0  0  0  0  0  0  0
   38.0180   29.0890   43.1750 C   0  0  0  0  0  0  0  0  0  0  0  0
   38.4290   29.8060   43.8400 H   0  0  0  0  0  0  0  0  0  0  0  0
   37.6470   27.8610   43.6800 C   0  0  0  0  0  0  0  0  0  0  0  0
   37.7580   27.6000   44.7220 H   0  0  0  0  0  0  0  0  0  0  0  0
   37.1120   26.9080   42.8490 C   0  0  0  0  0  3  0  0  0  0  0  0
   36.9520   27.2030   41.5070 C   0  0  0  0  0  3  0  0  0  0  0  0
   37.3290   28.4160   41.0620 N   0  0  0  0  0  0  0  0  0  0  0  0
  1  7  1  0  0  0  0
  1  2  1  0  0  0  0
  2 12  1  0  0  0  0
  3  2  2  0  0  0  0
  3  8  1  0  0  0  0
  4  3  1  0  0  0  0
  5  6  1  0  0  0  0
  5  4  2  0  0  0  0
  6  1  2  0  0  0  0
  7 10  1  0  0  0  0
  9  5  1  0  0  0  0
 11  7  1  0  0  0  0
 12 13  1  0  0  0  0
 13 15  2  0  0  0  0
 13 14  1  0  0  0  0
 15 16  1  0  0  0  0
 17 15  1  0  0  0  0
 18 17  2  0  0  0  0
 19 18  1  0  0  0  0
 19 12  2  0  0  0  0
M  END
>  <minimizedAffinity>
-4.6951313

$$$$

 OpenBabel03242518053D

 19 20  0  0  0  0  0  0  0  0999 V2000
   36.7720   30.9070   40.0080 C   0  0  0  0  0  0  0  0  0  0  0  0
   37.5620   29.7480   40.0890 C   0  0  0  0  0  0  0  0  0  0  0  0
   38.4390   29.4530   39.0360 C   0  0  0  0  0  0  0  0  0  0  0  0
   38.4600   30.3230   37.9980 N   0  0  0  0  0  0  0  0  0  0  0  0
   37.7070   31.4260   37.9250 C   0  0  0  0  0  0  0  0  0  0  0  0
   36.8690   31.7100   38.9300 N   0  0  0  0  0  0  0  0  0  0  0  0
   35.8680   31.2490   41.0500 N   0  0  0  0  0  0  0  0  0  0  0  0
   39.0410   28.5840   39.0790 H   0  0  0  0  0  0  0  0  0  0  0  0
   37.8380   32.0280   37.0230 H   0  0  0  0  0  0  0  0  0  0  0  0
   36.1470   31.6320   42.0010 H   0  0  0  0  0  0  0  0  0  0  0  0
   34.8390   31.1400   40.9400 H   0  0  0  0  0  0  0  0  0  0  0  0
   37.4320   28.9030   41.2680 C   0  0  0  0  0  0  0  0  0  0  0  0
   36.9700   27.6300   41.2330 C   0  0  0  0  0  0  0  0  0  0  0  0
   36.6730   27.1730   40.3230 H   0  0  0  0  0  0  0  0  0  0  0  0
   36.8780   26.8960   42.3970 C   0  0  0  0  0  0  0  0  0  0  0  0
   36.5160   25.8790   42.4190 H   0  0  0  0  0  0  0  0  0  0  0  0
   37.2530   27.4540   43.5940 C   0  0  0  0  0  3  0  0  0  0  0  0
   37.7220   28.7550   43.6080 C   0  0  0  0  0  3  0  0  0  0  0  0
   37.7940   29.4300   42.4460 N   0  0  0  0  0  0  0  0  0  0  0  0
  1  2  1  0  0  0  0
  1  7  1  0  0  0  0
  2 12  1  0  0  0  0
  3  8  1  0  0  0  0
  3  2  2  0  0  0  0
  4  3  1  0  0  0  0
  5  4  2  0  0  0  0
  5  6  1  0  0  0  0
  6  1  2  0  0  0  0
  7 10  1  0  0  0  0
  9  5  1  0  0  0  0
 11  7  1  0  0  0  0
 12 19  1  0  0  0  0
 13 12  2  0  0  0  0
 13 15  1  0  0  0  0
 14 13  1  0  0  0  0
 15 16  1  0  0  0  0
 15 17  2  0  0  0  0
 17 18  1  0  0  0  0
 19 18  2  0  0  0  0
M  END
>  <minimizedAffinity>
-4.47701168

$$$$

 OpenBabel03242518053D

 19 20  0  0  0  0  0  0  0  0999 V2000
   35.8040   30.2310   40.2680 C   0  0  0  0  0  0  0  0  0  0  0  0
   36.6850   30.7940   39.3300 C   0  0  0  0  0  0  0  0  0  0  0  0
   36.6780   30.3060   38.0170 C   0  0  0  0  0  0  0  0  0  0  0  0
   35.8050   29.3070   37.7430 N   0  0  0  0  0  0  0  0  0  0  0  0
   34.9670   28.7740   38.6370 C   0  0  0  0  0  0  0  0  0  0  0  0
   34.9720   29.2390   39.8930 N   0  0  0  0  0  0  0  0  0  0  0  0
   35.7740   30.6920   41.6120 N   0  0  0  0  0  0  0  0  0  0  0  0
   37.3360   30.7180   37.2970 H   0  0  0  0  0  0  0  0  0  0  0  0
   34.3230   27.9740   38.2640 H   0  0  0  0  0  0  0  0  0  0  0  0
   35.3570   31.6160   41.9330 H   0  0  0  0  0  0  0  0  0  0  0  0
   36.1720   30.1310   42.3920 H   0  0  0  0  0  0  0  0  0  0  0  0
   37.5700   31.8650   39.7690 C   0  0  0  0  0  0  0  0  0  0  0  0
   37.3660   33.1730   39.4830 C   0  0  0  0  0  0  0  0  0  0  0  0
   36.5310   33.4920   38.9120 H   0  0  0  0  0  0  0  0  0  0  0  0
   38.2540   34.1260   39.9370 C   0  0  0  0  0  0  0  0  0  0  0  0
   38.1330   35.1800   39.7350 H   0  0  0  0  0  0  0  0  0  0  0  0
   39.3460   33.7510   40.6790 C   0  0  0  0  0  3  0  0  0  0  0  0
   39.5360   32.4110   40.9600 C   0  0  0  0  0  3  0  0  0  0  0  0
   38.6420   31.5180   40.4950 N   0  0  0  0  0  0  0  0  0  0  0  0
  1  7  1  0  0  0  0
  2 12  1  0  0  0  0
  2  1  2  0  0  0  0
  3  2  1  0  0  0  0
  4  3  2  0  0  0  0
  4  5  1  0  0  0  0
  5  6  2  0  0  0  0
  6  1  1  0  0  0  0
  7 10  1  0  0  0  0
  7 11  1  0  0  0  0
  8  3  1  0  0  0  0
  9  5  1  0  0  0  0
 12 19  1  0  0  0  0
 13 12  2  0  0  0  0
 13 15  1  0  0  0  0
 14 13  1  0  0  0  0
 15 17  2  0  0  0  0
 16 15  1  0  0  0  0
 17 18  1  0  0  0  0
 19 18  2  0  0  0  0
M  END
>  <minimizedAffinity>
-4.47293997

$$$$

 OpenBabel03242518053D

 19 20  0  0  0  0  0  0  0  0999 V2000
   37.2570   28.2280   42.6410 C   0  0  0  0  0  0  0  0  0  0  0  0
   37.4460   28.6050   41.3010 C   0  0  0  0  0  0  0  0  0  0  0  0
   37.4500   27.6120   40.3130 C   0  0  0  0  0  0  0  0  0  0  0  0
   37.2680   26.3360   40.7310 N   0  0  0  0  0  0  0  0  0  0  0  0
   37.0860   25.9810   42.0070 C   0  0  0  0  0  0  0  0  0  0  0  0
   37.0820   26.9290   42.9530 N   0  0  0  0  0  0  0  0  0  0  0  0
   37.2450   29.1990   43.6790 N   0  0  0  0  0  0  0  0  0  0  0  0
   37.5930   27.8770   39.2990 H   0  0  0  0  0  0  0  0  0  0  0  0
   36.9520   24.9110   42.1860 H   0  0  0  0  0  0  0  0  0  0  0  0
   36.4540   29.8820   43.8690 H   0  0  0  0  0  0  0  0  0  0  0  0
   38.0420   29.3030   44.3410 H   0  0  0  0  0  0  0  0  0  0  0  0
   37.6320   30.0180   41.0000 C   0  0  0  0  0  0  0  0  0  0  0  0
   36.7230   30.7690   40.3330 C   0  0  0  0  0  0  0  0  0  0  0  0
   35.8080   30.3570   39.9890 H   0  0  0  0  0  0  0  0  0  0  0  0
   36.9760   32.1030   40.0870 C   0  0  0  0  0  0  0  0  0  0  0  0
   36.2820   32.7410   39.5600 H   0  0  0  0  0  0  0  0  0  0  0  0
   38.1490   32.6720   40.5170 C   0  0  0  0  0  3  0  0  0  0  0  0
   39.0630   31.8870   41.1960 C   0  0  0  0  0  3  0  0  0  0  0  0
   38.7710   30.5910   41.4110 N   0  0  0  0  0  0  0  0  0  0  0  0
  1  6  1  0  0  0  0
  1  7  1  0  0  0  0
  2  1  2  0  0  0  0
  3  4  2  0  0  0  0
  3  2  1  0  0  0  0
  4  5  1  0  0  0  0
  5  9  1  0  0  0  0
  5  6  2  0  0  0  0
  7 10  1  0  0  0  0
  7 11  1  0  0  0  0
  8  3  1  0  0  0  0
 12  2  1  0  0  0  0
 12 19  1  0  0  0  0
 13 12  2  0  0  0  0
 14 13  1  0  0  0  0
 15 13  1  0  0  0  0
 15 17  2  0  0  0  0
 16 15  1  0  0  0  0
 17 18  1  0  0  0  0
 18 19  2  0  0  0  0
M  END
>  <minimizedAffinity>
-4.14836121

$$$$

 OpenBabel03242518053D

 19 20  0  0  0  0  0  0  0  0999 V2000
   38.1870   28.6340   43.0730 C   0  0  0  0  0  0  0  0  0  0  0  0
   39.0150   29.2170   42.1000 C   0  0  0  0  0  0  0  0  0  0  0  0
   40.2280   28.5920   41.7810 C   0  0  0  0  0  0  0  0  0  0  0  0
   40.5180   27.4490   42.4480 N   0  0  0  0  0  0  0  0  0  0  0  0
   39.7280   26.8960   43.3730 C   0  0  0  0  0  0  0  0  0  0  0  0
   38.5680   27.4920   43.6800 N   0  0  0  0  0  0  0  0  0  0  0  0
   36.9470   29.2300   43.4310 N   0  0  0  0  0  0  0  0  0  0  0  0
   40.8640   29.0180   41.0510 H   0  0  0  0  0  0  0  0  0  0  0  0
   40.1000   25.9720   43.8220 H   0  0  0  0  0  0  0  0  0  0  0  0
   36.0700   29.2230   42.8320 H   0  0  0  0  0  0  0  0  0  0  0  0
   36.8200   29.7270   44.3370 H   0  0  0  0  0  0  0  0  0  0  0  0
   38.5720   30.4510   41.4650 C   0  0  0  0  0  0  0  0  0  0  0  0
   39.2800   31.6050   41.4920 C   0  0  0  0  0  0  0  0  0  0  0  0
   40.2150   31.6710   41.9880 H   0  0  0  0  0  0  0  0  0  0  0  0
   38.7890   32.7310   40.8640 C   0  0  0  0  0  0  0  0  0  0  0  0
   39.3160   33.6730   40.8590 H   0  0  0  0  0  0  0  0  0  0  0  0
   37.5820   32.6850   40.2120 C   0  0  0  0  0  3  0  0  0  0  0  0
   36.8750   31.4960   40.1960 C   0  0  0  0  0  3  0  0  0  0  0  0
   37.3960   30.4250   40.8230 N   0  0  0  0  0  0  0  0  0  0  0  0
  1  7  1  0  0  0  0
  1  6  1  0  0  0  0
  2  1  2  0  0  0  0
  3  2  1  0  0  0  0
  3  4  2  0  0  0  0
  4  5  1  0  0  0  0
  5  6  2  0  0  0  0
  5  9  1  0  0  0  0
  7 11  1  0  0  0  0
  8  3  1  0  0  0  0
 10  7  1  0  0  0  0
 12 13  1  0  0  0  0
 12  2  1  0  0  0  0
 13 14  1  0  0  0  0
 15 13  2  0  0  0  0
 16 15  1  0  0  0  0
 17 15  1  0  0  0  0
 18 17  2  0  0  0  0
 18 19  1  0  0  0  0
 19 12  2  0  0  0  0
M  END
>  <minimizedAffinity>
-4.10510397

$$$$

 OpenBabel03242518053D

 19 20  0  0  0  0  0  0  0  0999 V2000
   39.1900   31.1940   41.5630 C   0  0  0  0  0  0  0  0  0  0  0  0
   37.9080   30.6900   41.2940 C   0  0  0  0  0  0  0  0  0  0  0  0
   37.0020   31.4870   40.5810 C   0  0  0  0  0  0  0  0  0  0  0  0
   37.4390   32.7100   40.1960 N   0  0  0  0  0  0  0  0  0  0  0  0
   38.6620   33.1880   40.4530 C   0  0  0  0  0  0  0  0  0  0  0  0
   39.5280   32.4270   41.1350 N   0  0  0  0  0  0  0  0  0  0  0  0
   40.1430   30.4240   42.2820 N   0  0  0  0  0  0  0  0  0  0  0  0
   36.0310   31.1230   40.3700 H   0  0  0  0  0  0  0  0  0  0  0  0
   38.8650   34.1930   40.0770 H   0  0  0  0  0  0  0  0  0  0  0  0
   40.6690   29.5850   41.8960 H   0  0  0  0  0  0  0  0  0  0  0  0
   40.3930   30.6430   43.2690 H   0  0  0  0  0  0  0  0  0  0  0  0
   37.5760   29.3540   41.7710 C   0  0  0  0  0  0  0  0  0  0  0  0
   37.3110   28.3080   40.9520 C   0  0  0  0  0  0  0  0  0  0  0  0
   37.3330   28.4100   39.8970 H   0  0  0  0  0  0  0  0  0  0  0  0
   37.0050   27.0730   41.4860 C   0  0  0  0  0  0  0  0  0  0  0  0
   36.7860   26.2110   40.8740 H   0  0  0  0  0  0  0  0  0  0  0  0
   36.9670   26.9020   42.8470 C   0  0  0  0  0  3  0  0  0  0  0  0
   37.2400   27.9820   43.6660 C   0  0  0  0  0  3  0  0  0  0  0  0
   37.5340   29.1670   43.0980 N   0  0  0  0  0  0  0  0  0  0  0  0
  1  7  1  0  0  0  0
  2  1  1  0  0  0  0
  2 12  1  0  0  0  0
  3  2  2  0  0  0  0
  4  5  2  0  0  0  0
  4  3  1  0  0  0  0
  5  6  1  0  0  0  0
  6  1  2  0  0  0  0
  7 11  1  0  0  0  0
  8  3  1  0  0  0  0
  9  5  1  0  0  0  0
 10  7  1  0  0  0  0
 12 19  1  0  0  0  0
 13 15  1  0  0  0  0
 13 12  2  0  0  0  0
 14 13  1  0  0  0  0
 15 17  2  0  0  0  0
 16 15  1  0  0  0  0
 17 18  1  0  0  0  0
 19 18  2  0  0  0  0
M  END
>  <minimizedAffinity>
-4.07930422

$$$$

 OpenBabel03242518053D

 19 20  0  0  0  0  0  0  0  0999 V2000
   38.1370   33.0170   39.7650 C   0  0  0  0  0  0  0  0  0  0  0  0
   38.3540   31.6450   39.5620 C   0  0  0  0  0  0  0  0  0  0  0  0
   39.6700   31.1680   39.5070 C   0  0  0  0  0  0  0  0  0  0  0  0
   40.6570   32.0840   39.6560 N   0  0  0  0  0  0  0  0  0  0  0  0
   40.4480   33.3900   39.8510 C   0  0  0  0  0  0  0  0  0  0  0  0
   39.1900   33.8480   39.9030 N   0  0  0  0  0  0  0  0  0  0  0  0
   36.8210   33.5490   39.8280 N   0  0  0  0  0  0  0  0  0  0  0  0
   39.8520   30.1370   39.3540 H   0  0  0  0  0  0  0  0  0  0  0  0
   41.3460   34.0030   39.9540 H   0  0  0  0  0  0  0  0  0  0  0  0
   36.1510   33.4300   40.6450 H   0  0  0  0  0  0  0  0  0  0  0  0
   36.4180   34.1080   39.0480 H   0  0  0  0  0  0  0  0  0  0  0  0
   37.1930   30.7760   39.4160 C   0  0  0  0  0  0  0  0  0  0  0  0
   36.7460   30.3140   38.2240 C   0  0  0  0  0  0  0  0  0  0  0  0
   37.2290   30.5670   37.3150 H   0  0  0  0  0  0  0  0  0  0  0  0
   35.6370   29.4940   38.1730 C   0  0  0  0  0  0  0  0  0  0  0  0
   35.2430   29.1020   37.2470 H   0  0  0  0  0  0  0  0  0  0  0  0
   34.9850   29.1450   39.3290 C   0  0  0  0  0  3  0  0  0  0  0  0
   35.4590   29.6270   40.5360 C   0  0  0  0  0  3  0  0  0  0  0  0
   36.5440   30.4240   40.5340 N   0  0  0  0  0  0  0  0  0  0  0  0
  1  7  1  0  0  0  0
  1  6  1  0  0  0  0
  2  1  2  0  0  0  0
  3  2  1  0  0  0  0
  3  4  2  0  0  0  0
  4  5  1  0  0  0  0
  5  6  2  0  0  0  0
  5  9  1  0  0  0  0
  7 10  1  0  0  0  0
  8  3  1  0  0  0  0
 11  7  1  0  0  0  0
 12  2  1  0  0  0  0
 12 19  1  0  0  0  0
 13 12  2  0  0  0  0
 14 13  1  0  0  0  0
 15 13  1  0  0  0  0
 15 17  2  0  0  0  0
 16 15  1  0  0  0  0
 17 18  1  0  0  0  0
 19 18  2  0  0  0  0
M  END
>  <minimizedAffinity>
-4.05554438

$$$$

 OpenBabel03242518053D

 19 20  0  0  0  0  0  0  0  0999 V2000
   36.5730   28.7760   41.7770 C   0  0  0  0  0  0  0  0  0  0  0  0
   37.6700   29.6080   41.5020 C   0  0  0  0  0  0  0  0  0  0  0  0
   38.8240   29.4890   42.2880 C   0  0  0  0  0  0  0  0  0  0  0  0
   38.7950   28.5610   43.2750 N   0  0  0  0  0  0  0  0  0  0  0  0
   37.7490   27.7690   43.5340 C   0  0  0  0  0  0  0  0  0  0  0  0
   36.6450   27.8820   42.7830 N   0  0  0  0  0  0  0  0  0  0  0  0
   35.3810   28.8600   41.0070 N   0  0  0  0  0  0  0  0  0  0  0  0
   39.6600   30.1080   42.0960 H   0  0  0  0  0  0  0  0  0  0  0  0
   37.8790   27.0700   44.3630 H   0  0  0  0  0  0  0  0  0  0  0  0
   35.2680   28.5030   40.0130 H   0  0  0  0  0  0  0  0  0  0  0  0
   34.5130   29.2920   41.3870 H   0  0  0  0  0  0  0  0  0  0  0  0
   37.5570   30.5630   40.4080 C   0  0  0  0  0  0  0  0  0  0  0  0
   37.4080   31.8980   40.5870 C   0  0  0  0  0  0  0  0  0  0  0  0
   37.3650   32.3250   41.5560 H   0  0  0  0  0  0  0  0  0  0  0  0
   37.3080   32.7340   39.4950 C   0  0  0  0  0  0  0  0  0  0  0  0
   37.1880   33.8030   39.5870 H   0  0  0  0  0  0  0  0  0  0  0  0
   37.3580   32.2170   38.2240 C   0  0  0  0  0  3  0  0  0  0  0  0
   37.5110   30.8520   38.0630 C   0  0  0  0  0  3  0  0  0  0  0  0
   37.6050   30.0770   39.1600 N   0  0  0  0  0  0  0  0  0  0  0  0
  1  6  1  0  0  0  0
  2  1  2  0  0  0  0
  2  3  1  0  0  0  0
  3  4  2  0  0  0  0
  4  5  1  0  0  0  0
  5  9  1  0  0  0  0
  6  5  2  0  0  0  0
  7 11  1  0  0  0  0
  7  1  1  0  0  0  0
  8  3  1  0  0  0  0
 10  7  1  0  0  0  0
 12 13  1  0  0  0  0
 12  2  1  0  0  0  0
 13 14  1  0  0  0  0
 15 16  1  0  0  0  0
 15 13  2  0  0  0  0
 17 15  1  0  0  0  0
 18 17  2  0  0  0  0
 18 19  1  0  0  0  0
 19 12  2  0  0  0  0
M  END
>  <minimizedAffinity>
-4.03769112

$$$$

 OpenBabel03242518053D

 19 20  0  0  0  0  0  0  0  0999 V2000
   41.1010   32.9690   37.7520 C   0  0  0  0  0  0  0  0  0  0  0  0
   40.8710   33.0500   39.1350 C   0  0  0  0  0  0  0  0  0  0  0  0
   41.8440   33.6450   39.9490 C   0  0  0  0  0  0  0  0  0  0  0  0
   42.9570   34.1070   39.3300 N   0  0  0  0  0  0  0  0  0  0  0  0
   43.1730   34.0290   38.0130 C   0  0  0  0  0  0  0  0  0  0  0  0
   42.2440   33.4600   37.2330 N   0  0  0  0  0  0  0  0  0  0  0  0
   40.1450   32.3740   36.8850 N   0  0  0  0  0  0  0  0  0  0  0  0
   41.6880   33.7140   40.9940 H   0  0  0  0  0  0  0  0  0  0  0  0
   44.1200   34.4460   37.6630 H   0  0  0  0  0  0  0  0  0  0  0  0
   39.2210   32.8150   36.5990 H   0  0  0  0  0  0  0  0  0  0  0  0
   40.2970   31.4350   36.4620 H   0  0  0  0  0  0  0  0  0  0  0  0
   39.6250   32.5090   39.6620 C   0  0  0  0  0  0  0  0  0  0  0  0
   39.5490   31.3650   40.3840 C   0  0  0  0  0  0  0  0  0  0  0  0
   40.4130   30.7930   40.6090 H   0  0  0  0  0  0  0  0  0  0  0  0
   38.3280   30.9210   40.8470 C   0  0  0  0  0  0  0  0  0  0  0  0
   38.2170   30.0160   41.4260 H   0  0  0  0  0  0  0  0  0  0  0  0
   37.1870   31.6350   40.5760 C   0  0  0  0  0  3  0  0  0  0  0  0
   37.2870   32.8000   39.8370 C   0  0  0  0  0  3  0  0  0  0  0  0
   38.5010   33.1920   39.4080 N   0  0  0  0  0  0  0  0  0  0  0  0
  1  2  1  0  0  0  0
  2 12  1  0  0  0  0
  2  3  2  0  0  0  0
  3  8  1  0  0  0  0
  4  3  1  0  0  0  0
  5  4  2  0  0  0  0
  6  1  2  0  0  0  0
  6  5  1  0  0  0  0
  7  1  1  0  0  0  0
  9  5  1  0  0  0  0
 10  7  1  0  0  0  0
 11  7  1  0  0  0  0
 12 13  1  0  0  0  0
 13 14  1  0  0  0  0
 13 15  2  0  0  0  0
 15 16  1  0  0  0  0
 17 15  1  0  0  0  0
 18 17  2  0  0  0  0
 19 12  2  0  0  0  0
 19 18  1  0  0  0  0
M  END
>  <minimizedAffinity>
-4.03518629

$$$$
