REMARK  Name = 
REMARK  2 active torsions:
REMARK  status: ('A' for Active; 'I' for Inactive)
REMARK    1  A    between atoms: C_2  and  C_14
REMARK    2  A    between atoms: C_3  and  C_23
REMARK                            x       y       z     vdW  Elec       q    Type
REMARK                         _______ _______ _______ _____ _____    ______ ____
ROOT
ATOM      1  C   UNL     1      47.228  31.360  45.077  0.00  0.00    +0.000 A 
ATOM      2  C   UNL     1      46.886  32.706  45.099  0.00  0.00    +0.000 A 
ATOM      3  C   UNL     1      46.289  33.310  46.187  0.00  0.00    +0.000 A 
ATOM      4  C   UNL     1      45.996  32.584  47.333  0.00  0.00    +0.000 A 
ATOM      5  N   UNL     1      45.442  32.805  48.543  0.00  0.00    +0.000 N 
ATOM      6  C   UNL     1      45.434  31.651  49.254  0.00  0.00    +0.000 A 
ATOM      7  N   UNL     1      45.990  30.709  48.469  0.00  0.00    +0.000 NA
ATOM      8  C   UNL     1      46.347  31.238  47.289  0.00  0.00    +0.000 A 
ATOM      9  C   UNL     1      46.944  30.606  46.217  0.00  0.00    +0.000 A 
ATOM     10  H   UNL     1      47.692  30.931  44.210  0.00  0.00    +0.000 HD
ATOM     11  H   UNL     1      45.105  33.780  48.776  0.00  0.00    +0.000 HD
ATOM     12  H   UNL     1      45.014  31.677  50.254  0.00  0.00    +0.000 HD
ATOM     13  H   UNL     1      47.190  29.558  46.252  0.00  0.00    +0.000 HD
ENDROOT
BRANCH   2  18
ATOM     14  C   UNL     1      46.521  35.195  42.420  0.00  0.00    +0.000 A 
ATOM     15  C   UNL     1      47.716  35.051  41.707  0.00  0.00    +0.000 A 
ATOM     16  C   UNL     1      48.642  34.100  42.150  0.00  0.00    +0.000 A 
ATOM     17  N   UNL     1      48.316  33.368  43.260  0.00  0.00    +0.000 NA
ATOM     18  C   UNL     1      47.164  33.530  43.920  0.00  0.00    +0.000 A 
ATOM     19  N   UNL     1      46.249  34.440  43.516  0.00  0.00    +0.000 NA
ATOM     20  H   UNL     1      45.779  35.936  42.090  0.00  0.00    +0.000 HD
ATOM     21  H   UNL     1      47.901  35.669  40.836  0.00  0.00    +0.000 HD
ATOM     22  H   UNL     1      49.573  33.959  41.629  0.00  0.00    +0.000 HD
ENDBRANCH   2  18
BRANCH   3  23
ATOM     23  C   UNL     1      45.925  34.725  46.220  0.00  0.00    +0.000 A 
ATOM     24  C   UNL     1      46.538  35.795  45.592  0.00  0.00    +0.000 A 
ATOM     25  H   UNL     1      47.407  35.487  45.003  0.00  0.00    +0.000 HD
ATOM     26  C   UNL     1      46.009  37.056  45.772  0.00  0.00    +0.000 A 
ATOM     27  H   UNL     1      46.564  37.820  45.237  0.00  0.00    +0.000 HD
ATOM     28  C   UNL     1      44.901  37.235  46.557  0.00  0.00    +0.000 A 
ATOM     29  C   UNL     1      44.295  36.163  47.181  0.00  0.00    +0.000 A 
ATOM     30  N   UNL     1      44.823  34.947  46.994  0.00  0.00    +0.000 NA
ENDBRANCH   3  23
TORSDOF 2
