
 OpenBabel03252502143D

 36 39  0  0  0  0  0  0  0  0999 V2000
   36.4650   29.7200   34.6750 Cl  0  0  0  0  0  0  0  0  0  0  0  0
   35.5770   29.3310   36.1350 C   0  0  0  0  0  0  0  0  0  0  0  0
   36.1700   29.3620   37.3560 C   0  0  0  0  0  0  0  0  0  0  0  0
   35.3750   29.0390   38.4330 C   0  0  0  0  0  0  0  0  0  0  0  0
   34.0740   28.7040   38.3150 C   0  0  0  0  0  0  0  0  0  0  0  0
   33.4720   28.6720   37.0780 C   0  0  0  0  0  0  0  0  0  0  0  0
   34.2420   28.9920   35.9940 C   0  0  0  0  0  0  0  0  0  0  0  0
   33.5080   28.4600   39.2140 H   0  0  0  0  0  0  0  0  0  0  0  0
   32.4310   28.4040   36.9960 H   0  0  0  0  0  0  0  0  0  0  0  0
   33.7460   28.9590   35.0320 H   0  0  0  0  0  0  0  0  0  0  0  0
   39.3810   31.3410   37.6920 C   0  0  0  0  0  0  0  0  0  0  0  0
   38.0260   31.0130   37.6110 C   0  0  0  0  0  0  0  0  0  0  0  0
   37.5680   29.7260   37.4420 C   0  0  0  0  0  0  0  0  0  0  0  0
   38.5470   28.7720   37.3570 N   0  0  0  0  0  0  0  0  0  0  0  0
   39.8570   29.0810   37.4350 C   0  0  0  0  0  0  0  0  0  0  0  0
   40.2790   30.3520   37.6000 N   0  0  0  0  0  0  0  0  0  0  0  0
   39.6810   32.3720   37.8250 H   0  0  0  0  0  0  0  0  0  0  0  0
   37.2630   31.7920   37.6820 H   0  0  0  0  0  0  0  0  0  0  0  0
   40.5580   28.2400   37.3540 H   0  0  0  0  0  0  0  0  0  0  0  0
   35.9970   29.0650   39.7680 C   0  0  0  0  0  0  0  0  0  0  0  0
   35.9260   30.2770   40.4680 C   0  0  0  0  0  0  0  0  0  0  0  0
   36.5330   30.2000   41.7020 C   0  0  0  0  0  0  0  0  0  0  0  0
   37.1510   29.1100   42.2480 C   0  0  0  0  0  0  0  0  0  0  0  0
   37.1660   27.9580   41.4740 C   0  0  0  0  0  0  0  0  0  0  0  0
   36.5850   27.9980   40.2710 N   0  0  0  0  0  0  0  0  0  0  0  0
   35.4670   31.1730   40.1210 H   0  0  0  0  0  0  0  0  0  0  0  0
   36.4990   31.1480   42.2910 H   0  0  0  0  0  0  0  0  0  0  0  0
   37.6080   29.0930   43.2060 H   0  0  0  0  0  0  0  0  0  0  0  0
   37.7790   26.7020   41.8970 C   0  0  0  0  0  0  0  0  0  0  0  0
   37.2470   25.4620   41.6140 C   0  0  0  0  0  0  0  0  0  0  0  0
   36.3440   25.3870   41.0600 H   0  0  0  0  0  0  0  0  0  0  0  0
   37.8310   24.2730   42.0150 C   0  0  0  0  0  0  0  0  0  0  0  0
   37.3640   23.3300   41.7620 H   0  0  0  0  0  0  0  0  0  0  0  0
   38.9940   24.3120   42.7300 C   0  0  0  0  0  3  0  0  0  0  0  0
   39.5170   25.5570   43.0080 C   0  0  0  0  0  3  0  0  0  0  0  0
   38.9300   26.6720   42.6060 N   0  0  0  0  0  0  0  0  0  0  0  0
  1  2  1  0  0  0  0
  2  3  1  0  0  0  0
  3 13  1  0  0  0  0
  3  4  2  0  0  0  0
  4 20  1  0  0  0  0
  5  4  1  0  0  0  0
  5  8  1  0  0  0  0
  6  5  2  0  0  0  0
  7  2  2  0  0  0  0
  7  6  1  0  0  0  0
  9  6  1  0  0  0  0
 10  7  1  0  0  0  0
 11 17  1  0  0  0  0
 12 18  1  0  0  0  0
 12 11  1  0  0  0  0
 13 12  2  0  0  0  0
 14 15  2  0  0  0  0
 14 13  1  0  0  0  0
 15 16  1  0  0  0  0
 16 11  2  0  0  0  0
 19 15  1  0  0  0  0
 20 25  2  0  0  0  0
 20 21  1  0  0  0  0
 21 22  2  0  0  0  0
 22 23  1  0  0  0  0
 22 27  1  0  0  0  0
 23 28  1  0  0  0  0
 24 29  1  0  0  0  0
 24 23  2  0  0  0  0
 25 24  1  0  0  0  0
 26 21  1  0  0  0  0
 29 36  1  0  0  0  0
 30 29  2  0  0  0  0
 30 32  1  0  0  0  0
 31 30  1  0  0  0  0
 32 34  2  0  0  0  0
 33 32  1  0  0  0  0
 34 35  1  0  0  0  0
 36 35  2  0  0  0  0
M  END
>  <minimizedAffinity>
-5.94693947

$$$$

 OpenBabel03252502143D

 36 39  0  0  0  0  0  0  0  0999 V2000
   40.8320   32.2660   37.1020 Cl  0  0  0  0  0  0  0  0  0  0  0  0
   39.9930   32.2830   38.6410 C   0  0  0  0  0  0  0  0  0  0  0  0
   39.2210   31.2400   39.0390 C   0  0  0  0  0  0  0  0  0  0  0  0
   38.6100   31.3620   40.2670 C   0  0  0  0  0  0  0  0  0  0  0  0
   38.7510   32.4470   41.0560 C   0  0  0  0  0  0  0  0  0  0  0  0
   39.5330   33.5040   40.6530 C   0  0  0  0  0  0  0  0  0  0  0  0
   40.1510   33.4040   39.4370 C   0  0  0  0  0  0  0  0  0  0  0  0
   38.2360   32.4710   42.0160 H   0  0  0  0  0  0  0  0  0  0  0  0
   39.6390   34.3650   41.2920 H   0  0  0  0  0  0  0  0  0  0  0  0
   40.7610   34.2490   39.1430 H   0  0  0  0  0  0  0  0  0  0  0  0
   37.9380   28.7700   36.4700 C   0  0  0  0  0  0  0  0  0  0  0  0
   38.0390   29.8850   37.3050 C   0  0  0  0  0  0  0  0  0  0  0  0
   39.0940   30.0930   38.1640 C   0  0  0  0  0  0  0  0  0  0  0  0
   40.0550   29.1160   38.1470 N   0  0  0  0  0  0  0  0  0  0  0  0
   39.9630   28.0370   37.3430 C   0  0  0  0  0  0  0  0  0  0  0  0
   38.9180   27.8580   36.5090 N   0  0  0  0  0  0  0  0  0  0  0  0
   37.0840   28.6620   35.8150 H   0  0  0  0  0  0  0  0  0  0  0  0
   37.2610   30.6520   37.3010 H   0  0  0  0  0  0  0  0  0  0  0  0
   40.7870   27.3150   37.4080 H   0  0  0  0  0  0  0  0  0  0  0  0
   37.7660   30.2430   40.7200 C   0  0  0  0  0  0  0  0  0  0  0  0
   36.3820   30.3990   40.5640 C   0  0  0  0  0  0  0  0  0  0  0  0
   35.6810   29.3020   41.0150 C   0  0  0  0  0  0  0  0  0  0  0  0
   36.2020   28.1620   41.5610 C   0  0  0  0  0  0  0  0  0  0  0  0
   37.5840   28.1070   41.6710 C   0  0  0  0  0  0  0  0  0  0  0  0
   38.2940   29.1540   41.2420 N   0  0  0  0  0  0  0  0  0  0  0  0
   35.8920   31.2500   40.1510 H   0  0  0  0  0  0  0  0  0  0  0  0
   34.5730   29.3890   40.9100 H   0  0  0  0  0  0  0  0  0  0  0  0
   35.6250   27.3370   41.8980 H   0  0  0  0  0  0  0  0  0  0  0  0
   38.3110   26.9680   42.2270 C   0  0  0  0  0  0  0  0  0  0  0  0
   39.3240   27.0910   43.1540 C   0  0  0  0  0  0  0  0  0  0  0  0
   39.6120   28.0530   43.4990 H   0  0  0  0  0  0  0  0  0  0  0  0
   40.0100   26.0110   43.6800 C   0  0  0  0  0  0  0  0  0  0  0  0
   40.7980   26.1720   44.4050 H   0  0  0  0  0  0  0  0  0  0  0  0
   39.6800   24.7510   43.2700 C   0  0  0  0  0  3  0  0  0  0  0  0
   38.6660   24.6390   42.3430 C   0  0  0  0  0  3  0  0  0  0  0  0
   38.0320   25.6960   41.8640 N   0  0  0  0  0  0  0  0  0  0  0  0
  1  2  1  0  0  0  0
  2  3  2  0  0  0  0
  2  7  1  0  0  0  0
  3  4  1  0  0  0  0
  4 20  1  0  0  0  0
  4  5  2  0  0  0  0
  5  8  1  0  0  0  0
  6  5  1  0  0  0  0
  6  9  1  0  0  0  0
  7  6  2  0  0  0  0
 10  7  1  0  0  0  0
 11 16  2  0  0  0  0
 11 12  1  0  0  0  0
 12 13  2  0  0  0  0
 13  3  1  0  0  0  0
 14 13  1  0  0  0  0
 15 19  1  0  0  0  0
 15 14  2  0  0  0  0
 16 15  1  0  0  0  0
 17 11  1  0  0  0  0
 18 12  1  0  0  0  0
 20 25  1  0  0  0  0
 21 20  2  0  0  0  0
 21 22  1  0  0  0  0
 22 23  2  0  0  0  0
 23 24  1  0  0  0  0
 23 28  1  0  0  0  0
 24 29  1  0  0  0  0
 25 24  2  0  0  0  0
 26 21  1  0  0  0  0
 27 22  1  0  0  0  0
 29 30  1  0  0  0  0
 30 31  1  0  0  0  0
 30 32  2  0  0  0  0
 32 33  1  0  0  0  0
 34 32  1  0  0  0  0
 35 34  2  0  0  0  0
 36 29  2  0  0  0  0
 36 35  1  0  0  0  0
M  END
>  <minimizedAffinity>
-5.83546782

$$$$

 OpenBabel03252502143D

 36 39  0  0  0  0  0  0  0  0999 V2000
   37.3270   27.4160   43.5610 Cl  0  0  0  0  0  0  0  0  0  0  0  0
   37.0730   26.5270   42.0720 C   0  0  0  0  0  0  0  0  0  0  0  0
   37.0110   27.1570   40.8720 C   0  0  0  0  0  0  0  0  0  0  0  0
   36.8080   26.3580   39.7680 C   0  0  0  0  0  0  0  0  0  0  0  0
   36.6760   25.0170   39.8430 C   0  0  0  0  0  0  0  0  0  0  0  0
   36.7400   24.3780   41.0600 C   0  0  0  0  0  0  0  0  0  0  0  0
   36.9410   25.1530   42.1690 C   0  0  0  0  0  0  0  0  0  0  0  0
   36.5180   24.4510   38.9260 H   0  0  0  0  0  0  0  0  0  0  0  0
   36.6330   23.3070   41.1080 H   0  0  0  0  0  0  0  0  0  0  0  0
   36.9870   24.6260   43.1150 H   0  0  0  0  0  0  0  0  0  0  0  0
   36.2840   30.8730   40.9380 C   0  0  0  0  0  0  0  0  0  0  0  0
   36.1180   29.4870   40.9800 C   0  0  0  0  0  0  0  0  0  0  0  0
   37.1570   28.5970   40.8310 C   0  0  0  0  0  0  0  0  0  0  0  0
   38.3860   29.1700   40.6350 N   0  0  0  0  0  0  0  0  0  0  0  0
   38.5520   30.5080   40.5930 C   0  0  0  0  0  0  0  0  0  0  0  0
   37.5160   31.3590   40.7420 N   0  0  0  0  0  0  0  0  0  0  0  0
   35.4280   31.5230   41.0610 H   0  0  0  0  0  0  0  0  0  0  0  0
   35.1280   29.0530   41.1380 H   0  0  0  0  0  0  0  0  0  0  0  0
   39.5790   30.8620   40.4300 H   0  0  0  0  0  0  0  0  0  0  0  0
   36.7360   27.0190   38.4550 C   0  0  0  0  0  0  0  0  0  0  0  0
   37.9100   27.0220   37.6890 C   0  0  0  0  0  0  0  0  0  0  0  0
   37.7420   27.6610   36.4810 C   0  0  0  0  0  0  0  0  0  0  0  0
   36.5980   28.2470   36.0130 C   0  0  0  0  0  0  0  0  0  0  0  0
   35.4910   28.1890   36.8480 C   0  0  0  0  0  0  0  0  0  0  0  0
   35.6200   27.5750   38.0280 N   0  0  0  0  0  0  0  0  0  0  0  0
   38.8420   26.5910   37.9740 H   0  0  0  0  0  0  0  0  0  0  0  0
   38.6570   27.6860   35.8410 H   0  0  0  0  0  0  0  0  0  0  0  0
   36.5100   28.7310   35.0730 H   0  0  0  0  0  0  0  0  0  0  0  0
   34.1890   28.7600   36.5120 C   0  0  0  0  0  0  0  0  0  0  0  0
   33.1770   28.9420   37.4310 C   0  0  0  0  0  0  0  0  0  0  0  0
   33.3260   28.6610   38.4440 H   0  0  0  0  0  0  0  0  0  0  0  0
   31.9450   29.4830   37.1090 C   0  0  0  0  0  0  0  0  0  0  0  0
   31.1900   29.6000   37.8770 H   0  0  0  0  0  0  0  0  0  0  0  0
   31.7010   29.8610   35.8200 C   0  0  0  0  0  3  0  0  0  0  0  0
   32.7190   29.6750   34.9090 C   0  0  0  0  0  3  0  0  0  0  0  0
   33.8850   29.1540   35.2550 N   0  0  0  0  0  0  0  0  0  0  0  0
  2  7  1  0  0  0  0
  2  1  1  0  0  0  0
  3  2  2  0  0  0  0
  4  5  2  0  0  0  0
  4  3  1  0  0  0  0
  5  6  1  0  0  0  0
  6  9  1  0  0  0  0
  6  7  2  0  0  0  0
  7 10  1  0  0  0  0
  8  5  1  0  0  0  0
 11 12  1  0  0  0  0
 11 17  1  0  0  0  0
 12 18  1  0  0  0  0
 13  3  1  0  0  0  0
 13 12  2  0  0  0  0
 14 13  1  0  0  0  0
 15 14  2  0  0  0  0
 15 16  1  0  0  0  0
 16 11  2  0  0  0  0
 19 15  1  0  0  0  0
 20  4  1  0  0  0  0
 21 26  1  0  0  0  0
 21 20  2  0  0  0  0
 22 21  1  0  0  0  0
 23 22  2  0  0  0  0
 23 24  1  0  0  0  0
 24 25  2  0  0  0  0
 25 20  1  0  0  0  0
 27 22  1  0  0  0  0
 28 23  1  0  0  0  0
 29 24  1  0  0  0  0
 29 30  1  0  0  0  0
 30 31  1  0  0  0  0
 32 30  2  0  0  0  0
 32 33  1  0  0  0  0
 34 32  1  0  0  0  0
 35 36  1  0  0  0  0
 35 34  2  0  0  0  0
 36 29  2  0  0  0  0
M  END
>  <minimizedAffinity>
-5.82608509

$$$$

 OpenBabel03252502143D

 36 39  0  0  0  0  0  0  0  0999 V2000
   37.1980   25.4260   40.2760 Cl  0  0  0  0  0  0  0  0  0  0  0  0
   37.2780   26.8360   41.3140 C   0  0  0  0  0  0  0  0  0  0  0  0
   37.5350   28.0720   40.8130 C   0  0  0  0  0  0  0  0  0  0  0  0
   37.5740   29.1060   41.7210 C   0  0  0  0  0  0  0  0  0  0  0  0
   37.3720   28.9340   43.0440 C   0  0  0  0  0  0  0  0  0  0  0  0
   37.1120   27.6820   43.5520 C   0  0  0  0  0  0  0  0  0  0  0  0
   37.0670   26.6400   42.6670 C   0  0  0  0  0  0  0  0  0  0  0  0
   37.4180   29.8010   43.7010 H   0  0  0  0  0  0  0  0  0  0  0  0
   36.9520   27.5570   44.6100 H   0  0  0  0  0  0  0  0  0  0  0  0
   36.8610   25.6650   43.0920 H   0  0  0  0  0  0  0  0  0  0  0  0
   39.1620   28.3750   37.4070 C   0  0  0  0  0  0  0  0  0  0  0  0
   38.9830   28.2340   38.7850 C   0  0  0  0  0  0  0  0  0  0  0  0
   37.7460   28.2160   39.3880 C   0  0  0  0  0  0  0  0  0  0  0  0
   36.6840   28.3490   38.5330 N   0  0  0  0  0  0  0  0  0  0  0  0
   36.8500   28.4850   37.2010 C   0  0  0  0  0  0  0  0  0  0  0  0
   38.0740   28.4990   36.6360 N   0  0  0  0  0  0  0  0  0  0  0  0
   40.1600   28.3830   36.9900 H   0  0  0  0  0  0  0  0  0  0  0  0
   39.8450   28.1300   39.4470 H   0  0  0  0  0  0  0  0  0  0  0  0
   35.9320   28.5840   36.6080 H   0  0  0  0  0  0  0  0  0  0  0  0
   37.8510   30.4560   41.2020 C   0  0  0  0  0  0  0  0  0  0  0  0
   36.7570   31.1670   40.6890 C   0  0  0  0  0  0  0  0  0  0  0  0
   37.1170   32.4150   40.2300 C   0  0  0  0  0  0  0  0  0  0  0  0
   38.3690   32.9640   40.2390 C   0  0  0  0  0  0  0  0  0  0  0  0
   39.3830   32.1780   40.7680 C   0  0  0  0  0  0  0  0  0  0  0  0
   39.0670   30.9620   41.2230 N   0  0  0  0  0  0  0  0  0  0  0  0
   35.7520   30.8180   40.6430 H   0  0  0  0  0  0  0  0  0  0  0  0
   36.2720   33.0130   39.8120 H   0  0  0  0  0  0  0  0  0  0  0  0
   38.6050   33.9320   39.8740 H   0  0  0  0  0  0  0  0  0  0  0  0
   40.7780   32.6030   40.8580 C   0  0  0  0  0  0  0  0  0  0  0  0
   41.3230   33.5990   40.0770 C   0  0  0  0  0  0  0  0  0  0  0  0
   40.7190   34.1010   39.3620 H   0  0  0  0  0  0  0  0  0  0  0  0
   42.6440   33.9990   40.1650 C   0  0  0  0  0  0  0  0  0  0  0  0
   43.0140   34.7880   39.5220 H   0  0  0  0  0  0  0  0  0  0  0  0
   43.4650   33.3860   41.0680 C   0  0  0  0  0  3  0  0  0  0  0  0
   42.9110   32.3910   41.8440 C   0  0  0  0  0  3  0  0  0  0  0  0
   41.6420   32.0360   41.7310 N   0  0  0  0  0  0  0  0  0  0  0  0
  1  2  1  0  0  0  0
  2  7  1  0  0  0  0
  3  2  2  0  0  0  0
  3  4  1  0  0  0  0
  4  5  2  0  0  0  0
  5  6  1  0  0  0  0
  5  8  1  0  0  0  0
  6  9  1  0  0  0  0
  7 10  1  0  0  0  0
  7  6  2  0  0  0  0
 11 12  1  0  0  0  0
 12 13  2  0  0  0  0
 12 18  1  0  0  0  0
 13  3  1  0  0  0  0
 14 13  1  0  0  0  0
 15 14  2  0  0  0  0
 16 15  1  0  0  0  0
 16 11  2  0  0  0  0
 17 11  1  0  0  0  0
 19 15  1  0  0  0  0
 20 25  1  0  0  0  0
 20  4  1  0  0  0  0
 21 20  2  0  0  0  0
 22 23  2  0  0  0  0
 22 21  1  0  0  0  0
 23 24  1  0  0  0  0
 24 29  1  0  0  0  0
 24 25  2  0  0  0  0
 26 21  1  0  0  0  0
 27 22  1  0  0  0  0
 28 23  1  0  0  0  0
 29 36  1  0  0  0  0
 30 32  1  0  0  0  0
 30 29  2  0  0  0  0
 31 30  1  0  0  0  0
 32 34  2  0  0  0  0
 33 32  1  0  0  0  0
 34 35  1  0  0  0  0
 36 35  2  0  0  0  0
M  END
>  <minimizedAffinity>
-5.73711252

$$$$

 OpenBabel03252502143D

 36 39  0  0  0  0  0  0  0  0999 V2000
   37.0450   24.1620   40.6220 Cl  0  0  0  0  0  0  0  0  0  0  0  0
   36.5610   25.5480   39.6630 C   0  0  0  0  0  0  0  0  0  0  0  0
   36.8640   26.8150   40.0450 C   0  0  0  0  0  0  0  0  0  0  0  0
   36.4340   27.8260   39.2150 C   0  0  0  0  0  0  0  0  0  0  0  0
   35.7470   27.6030   38.0760 C   0  0  0  0  0  0  0  0  0  0  0  0
   35.4390   26.3190   37.6880 C   0  0  0  0  0  0  0  0  0  0  0  0
   35.8580   25.2990   38.4980 C   0  0  0  0  0  0  0  0  0  0  0  0
   35.4400   28.4540   37.4700 H   0  0  0  0  0  0  0  0  0  0  0  0
   34.8900   26.1520   36.7760 H   0  0  0  0  0  0  0  0  0  0  0  0
   35.6030   24.2980   38.1710 H   0  0  0  0  0  0  0  0  0  0  0  0
   37.7570   27.4010   43.6790 C   0  0  0  0  0  0  0  0  0  0  0  0
   37.0230   27.2110   42.5060 C   0  0  0  0  0  0  0  0  0  0  0  0
   37.6040   27.0150   41.2740 C   0  0  0  0  0  0  0  0  0  0  0  0
   38.9740   27.0200   41.2740 N   0  0  0  0  0  0  0  0  0  0  0  0
   39.6880   27.2030   42.4030 C   0  0  0  0  0  0  0  0  0  0  0  0
   39.0930   27.3930   43.5980 N   0  0  0  0  0  0  0  0  0  0  0  0
   37.2440   27.5510   44.6190 H   0  0  0  0  0  0  0  0  0  0  0  0
   35.9300   27.2100   42.5310 H   0  0  0  0  0  0  0  0  0  0  0  0
   40.7800   27.1900   42.2900 H   0  0  0  0  0  0  0  0  0  0  0  0
   36.7510   29.2090   39.6090 C   0  0  0  0  0  0  0  0  0  0  0  0
   35.8060   29.8650   40.4100 C   0  0  0  0  0  0  0  0  0  0  0  0
   36.1920   31.1490   40.7250 C   0  0  0  0  0  0  0  0  0  0  0  0
   37.3430   31.7790   40.3400 C   0  0  0  0  0  0  0  0  0  0  0  0
   38.2130   31.0430   39.5480 C   0  0  0  0  0  0  0  0  0  0  0  0
   37.8680   29.7920   39.2250 N   0  0  0  0  0  0  0  0  0  0  0  0
   34.8860   29.4520   40.7550 H   0  0  0  0  0  0  0  0  0  0  0  0
   35.4640   31.7060   41.3620 H   0  0  0  0  0  0  0  0  0  0  0  0
   37.6030   32.7730   40.6050 H   0  0  0  0  0  0  0  0  0  0  0  0
   39.4860   31.5540   39.0470 C   0  0  0  0  0  0  0  0  0  0  0  0
   39.7340   31.8050   37.7140 C   0  0  0  0  0  0  0  0  0  0  0  0
   38.9760   31.6270   36.9910 H   0  0  0  0  0  0  0  0  0  0  0  0
   40.9410   32.2900   37.2420 C   0  0  0  0  0  0  0  0  0  0  0  0
   41.0750   32.4670   36.1820 H   0  0  0  0  0  0  0  0  0  0  0  0
   41.9500   32.5370   38.1290 C   0  0  0  0  0  3  0  0  0  0  0  0
   41.6920   32.2820   39.4590 C   0  0  0  0  0  3  0  0  0  0  0  0
   40.5240   31.8190   39.8710 N   0  0  0  0  0  0  0  0  0  0  0  0
  2  3  1  0  0  0  0
  2  1  1  0  0  0  0
  3 13  1  0  0  0  0
  4 20  1  0  0  0  0
  4  3  2  0  0  0  0
  5  4  1  0  0  0  0
  6  5  2  0  0  0  0
  6  7  1  0  0  0  0
  7  2  2  0  0  0  0
  8  5  1  0  0  0  0
  9  6  1  0  0  0  0
 10  7  1  0  0  0  0
 11 17  1  0  0  0  0
 12 18  1  0  0  0  0
 12 11  2  0  0  0  0
 13 12  1  0  0  0  0
 14 13  2  0  0  0  0
 14 15  1  0  0  0  0
 15 16  2  0  0  0  0
 16 11  1  0  0  0  0
 19 15  1  0  0  0  0
 20 21  1  0  0  0  0
 21 22  2  0  0  0  0
 21 26  1  0  0  0  0
 22 27  1  0  0  0  0
 23 28  1  0  0  0  0
 23 22  1  0  0  0  0
 24 23  2  0  0  0  0
 25 24  1  0  0  0  0
 25 20  2  0  0  0  0
 29 24  1  0  0  0  0
 29 36  1  0  0  0  0
 30 29  2  0  0  0  0
 31 30  1  0  0  0  0
 32 30  1  0  0  0  0
 32 34  2  0  0  0  0
 33 32  1  0  0  0  0
 34 35  1  0  0  0  0
 35 36  2  0  0  0  0
M  END
>  <minimizedAffinity>
-5.73491716

$$$$

 OpenBabel03252502143D

 36 39  0  0  0  0  0  0  0  0999 V2000
   41.3380   32.0300   39.9160 Cl  0  0  0  0  0  0  0  0  0  0  0  0
   41.2550   30.7340   41.0950 C   0  0  0  0  0  0  0  0  0  0  0  0
   40.1050   30.0470   41.3120 C   0  0  0  0  0  0  0  0  0  0  0  0
   40.1560   29.0500   42.2610 C   0  0  0  0  0  0  0  0  0  0  0  0
   41.2740   28.7490   42.9550 C   0  0  0  0  0  0  0  0  0  0  0  0
   42.4400   29.4450   42.7340 C   0  0  0  0  0  0  0  0  0  0  0  0
   42.4120   30.4390   41.7950 C   0  0  0  0  0  0  0  0  0  0  0  0
   41.2380   27.9460   43.6900 H   0  0  0  0  0  0  0  0  0  0  0  0
   43.3260   29.1950   43.2930 H   0  0  0  0  0  0  0  0  0  0  0  0
   43.3420   30.9730   41.6400 H   0  0  0  0  0  0  0  0  0  0  0  0
   37.4400   30.1840   38.6260 C   0  0  0  0  0  0  0  0  0  0  0  0
   38.5830   29.8280   39.3450 C   0  0  0  0  0  0  0  0  0  0  0  0
   38.9270   30.3990   40.5490 C   0  0  0  0  0  0  0  0  0  0  0  0
   38.0590   31.3570   41.0020 N   0  0  0  0  0  0  0  0  0  0  0  0
   36.9540   31.7060   40.3130 C   0  0  0  0  0  0  0  0  0  0  0  0
   36.6400   31.1290   39.1350 N   0  0  0  0  0  0  0  0  0  0  0  0
   37.2220   29.6990   37.6840 H   0  0  0  0  0  0  0  0  0  0  0  0
   39.2600   29.0600   38.9630 H   0  0  0  0  0  0  0  0  0  0  0  0
   36.3270   32.4850   40.7660 H   0  0  0  0  0  0  0  0  0  0  0  0
   38.9210   28.2900   42.5160 C   0  0  0  0  0  0  0  0  0  0  0  0
   38.0760   28.7850   43.5180 C   0  0  0  0  0  0  0  0  0  0  0  0
   36.9500   28.0090   43.6800 C   0  0  0  0  0  0  0  0  0  0  0  0
   36.6250   26.8770   42.9850 C   0  0  0  0  0  0  0  0  0  0  0  0
   37.5290   26.4700   42.0130 C   0  0  0  0  0  0  0  0  0  0  0  0
   38.6320   27.2030   41.8300 N   0  0  0  0  0  0  0  0  0  0  0  0
   38.2490   29.6560   44.1070 H   0  0  0  0  0  0  0  0  0  0  0  0
   36.2510   28.3700   44.4720 H   0  0  0  0  0  0  0  0  0  0  0  0
   35.7450   26.3050   43.1410 H   0  0  0  0  0  0  0  0  0  0  0  0
   37.3450   25.2880   41.1750 C   0  0  0  0  0  0  0  0  0  0  0  0
   37.8810   24.0540   41.4720 C   0  0  0  0  0  0  0  0  0  0  0  0
   38.4640   23.9270   42.3510 H   0  0  0  0  0  0  0  0  0  0  0  0
   37.7050   22.9350   40.6770 C   0  0  0  0  0  0  0  0  0  0  0  0
   38.1530   21.9920   40.9640 H   0  0  0  0  0  0  0  0  0  0  0  0
   36.9640   23.0420   39.5340 C   0  0  0  0  0  3  0  0  0  0  0  0
   36.4330   24.2810   39.2460 C   0  0  0  0  0  3  0  0  0  0  0  0
   36.6230   25.3270   40.0330 N   0  0  0  0  0  0  0  0  0  0  0  0
  1  2  1  0  0  0  0
  2  3  2  0  0  0  0
  2  7  1  0  0  0  0
  3  4  1  0  0  0  0
  4 20  1  0  0  0  0
  4  5  2  0  0  0  0
  5  8  1  0  0  0  0
  6  5  1  0  0  0  0
  6  9  1  0  0  0  0
  7  6  2  0  0  0  0
 10  7  1  0  0  0  0
 11 16  2  0  0  0  0
 11 12  1  0  0  0  0
 12 13  2  0  0  0  0
 13 14  1  0  0  0  0
 13  3  1  0  0  0  0
 15 19  1  0  0  0  0
 15 14  2  0  0  0  0
 16 15  1  0  0  0  0
 17 11  1  0  0  0  0
 18 12  1  0  0  0  0
 20 21  1  0  0  0  0
 21 22  2  0  0  0  0
 21 26  1  0  0  0  0
 22 27  1  0  0  0  0
 23 28  1  0  0  0  0
 23 22  1  0  0  0  0
 24 23  2  0  0  0  0
 25 24  1  0  0  0  0
 25 20  2  0  0  0  0
 29 30  1  0  0  0  0
 29 24  1  0  0  0  0
 30 31  1  0  0  0  0
 32 33  1  0  0  0  0
 32 30  2  0  0  0  0
 34 32  1  0  0  0  0
 35 34  2  0  0  0  0
 35 36  1  0  0  0  0
 36 29  2  0  0  0  0
M  END
>  <minimizedAffinity>
-5.71255827

$$$$

 OpenBabel03252502143D

 36 39  0  0  0  0  0  0  0  0999 V2000
   35.9690   25.1220   37.3380 Cl  0  0  0  0  0  0  0  0  0  0  0  0
   35.7100   26.6220   38.2080 C   0  0  0  0  0  0  0  0  0  0  0  0
   36.4170   26.9250   39.3250 C   0  0  0  0  0  0  0  0  0  0  0  0
   36.1300   28.1310   39.9260 C   0  0  0  0  0  0  0  0  0  0  0  0
   35.2010   28.9870   39.4530 C   0  0  0  0  0  0  0  0  0  0  0  0
   34.4830   28.6800   38.3200 C   0  0  0  0  0  0  0  0  0  0  0  0
   34.7530   27.4880   37.7060 C   0  0  0  0  0  0  0  0  0  0  0  0
   35.0290   29.9240   39.9820 H   0  0  0  0  0  0  0  0  0  0  0  0
   33.7440   29.3720   37.9510 H   0  0  0  0  0  0  0  0  0  0  0  0
   34.1750   27.2690   36.8170 H   0  0  0  0  0  0  0  0  0  0  0  0
   38.0960   24.0100   41.0660 C   0  0  0  0  0  0  0  0  0  0  0  0
   37.1250   24.9090   40.6180 C   0  0  0  0  0  0  0  0  0  0  0  0
   37.4060   25.9810   39.8020 C   0  0  0  0  0  0  0  0  0  0  0  0
   38.7240   26.1110   39.4530 N   0  0  0  0  0  0  0  0  0  0  0  0
   39.6660   25.2470   39.8820 C   0  0  0  0  0  0  0  0  0  0  0  0
   39.3640   24.2040   40.6810 N   0  0  0  0  0  0  0  0  0  0  0  0
   37.8140   23.1860   41.7070 H   0  0  0  0  0  0  0  0  0  0  0  0
   36.0790   24.7840   40.9100 H   0  0  0  0  0  0  0  0  0  0  0  0
   40.6920   25.4440   39.5430 H   0  0  0  0  0  0  0  0  0  0  0  0
   36.8850   28.4820   41.1400 C   0  0  0  0  0  0  0  0  0  0  0  0
   36.4420   27.9090   42.3410 C   0  0  0  0  0  0  0  0  0  0  0  0
   37.2100   28.2960   43.4160 C   0  0  0  0  0  0  0  0  0  0  0  0
   38.2900   29.1350   43.3960 C   0  0  0  0  0  0  0  0  0  0  0  0
   38.6470   29.6490   42.1570 C   0  0  0  0  0  0  0  0  0  0  0  0
   37.9230   29.2920   41.0920 N   0  0  0  0  0  0  0  0  0  0  0  0
   35.6130   27.2480   42.4490 H   0  0  0  0  0  0  0  0  0  0  0  0
   36.8880   27.8610   44.3930 H   0  0  0  0  0  0  0  0  0  0  0  0
   38.8560   29.4090   44.2500 H   0  0  0  0  0  0  0  0  0  0  0  0
   39.7720   30.5570   41.9470 C   0  0  0  0  0  0  0  0  0  0  0  0
   40.9340   30.5130   42.6870 C   0  0  0  0  0  0  0  0  0  0  0  0
   41.0450   29.7910   43.4580 H   0  0  0  0  0  0  0  0  0  0  0  0
   41.9980   31.3750   42.4850 C   0  0  0  0  0  0  0  0  0  0  0  0
   42.8850   31.2900   43.1010 H   0  0  0  0  0  0  0  0  0  0  0  0
   41.9090   32.3230   41.5070 C   0  0  0  0  0  3  0  0  0  0  0  0
   40.7430   32.3590   40.7730 C   0  0  0  0  0  3  0  0  0  0  0  0
   39.7470   31.5170   40.9960 N   0  0  0  0  0  0  0  0  0  0  0  0
  1  2  1  0  0  0  0
  2  3  1  0  0  0  0
  3 13  1  0  0  0  0
  3  4  2  0  0  0  0
  4 20  1  0  0  0  0
  5  4  1  0  0  0  0
  5  8  1  0  0  0  0
  6  5  2  0  0  0  0
  7  2  2  0  0  0  0
  7  6  1  0  0  0  0
  9  6  1  0  0  0  0
 10  7  1  0  0  0  0
 11 17  1  0  0  0  0
 12 18  1  0  0  0  0
 12 11  2  0  0  0  0
 13 12  1  0  0  0  0
 14 13  2  0  0  0  0
 14 15  1  0  0  0  0
 15 16  2  0  0  0  0
 16 11  1  0  0  0  0
 19 15  1  0  0  0  0
 20 21  1  0  0  0  0
 21 26  1  0  0  0  0
 21 22  2  0  0  0  0
 22 27  1  0  0  0  0
 23 22  1  0  0  0  0
 23 28  1  0  0  0  0
 24 23  2  0  0  0  0
 25 20  2  0  0  0  0
 25 24  1  0  0  0  0
 29 24  1  0  0  0  0
 29 30  1  0  0  0  0
 30 31  1  0  0  0  0
 32 30  2  0  0  0  0
 32 33  1  0  0  0  0
 34 32  1  0  0  0  0
 35 36  1  0  0  0  0
 35 34  2  0  0  0  0
 36 29  2  0  0  0  0
M  END
>  <minimizedAffinity>
-5.68492937

$$$$

 OpenBabel03252502143D

 36 39  0  0  0  0  0  0  0  0999 V2000
   40.8820   31.5190   42.3180 Cl  0  0  0  0  0  0  0  0  0  0  0  0
   39.5230   31.9880   41.3140 C   0  0  0  0  0  0  0  0  0  0  0  0
   38.5940   31.0840   40.9110 C   0  0  0  0  0  0  0  0  0  0  0  0
   37.5700   31.5650   40.1250 C   0  0  0  0  0  0  0  0  0  0  0  0
   37.4680   32.8600   39.7580 C   0  0  0  0  0  0  0  0  0  0  0  0
   38.4100   33.7760   40.1670 C   0  0  0  0  0  0  0  0  0  0  0  0
   39.4350   33.3200   40.9490 C   0  0  0  0  0  0  0  0  0  0  0  0
   36.6290   33.1660   39.1350 H   0  0  0  0  0  0  0  0  0  0  0  0
   38.3180   34.8070   39.8680 H   0  0  0  0  0  0  0  0  0  0  0  0
   40.1640   34.0600   41.2570 H   0  0  0  0  0  0  0  0  0  0  0  0
   39.4050   27.3850   40.9610 C   0  0  0  0  0  0  0  0  0  0  0  0
   39.2760   28.7110   40.5400 C   0  0  0  0  0  0  0  0  0  0  0  0
   38.7370   29.7050   41.3250 C   0  0  0  0  0  0  0  0  0  0  0  0
   38.3280   29.3010   42.5680 N   0  0  0  0  0  0  0  0  0  0  0  0
   38.4500   28.0220   42.9810 C   0  0  0  0  0  0  0  0  0  0  0  0
   38.9820   27.0670   42.1910 N   0  0  0  0  0  0  0  0  0  0  0  0
   39.8360   26.6480   40.2980 H   0  0  0  0  0  0  0  0  0  0  0  0
   39.6100   29.0100   39.5430 H   0  0  0  0  0  0  0  0  0  0  0  0
   38.0900   27.8060   43.9960 H   0  0  0  0  0  0  0  0  0  0  0  0
   36.5500   30.6040   39.6760 C   0  0  0  0  0  0  0  0  0  0  0  0
   35.6520   30.1420   40.6480 C   0  0  0  0  0  0  0  0  0  0  0  0
   34.7390   29.2500   40.1300 C   0  0  0  0  0  0  0  0  0  0  0  0
   34.6540   28.8180   38.8360 C   0  0  0  0  0  0  0  0  0  0  0  0
   35.5890   29.3370   37.9510 C   0  0  0  0  0  0  0  0  0  0  0  0
   36.4900   30.2060   38.4210 N   0  0  0  0  0  0  0  0  0  0  0  0
   35.6450   30.4230   41.6750 H   0  0  0  0  0  0  0  0  0  0  0  0
   34.0060   28.8570   40.8750 H   0  0  0  0  0  0  0  0  0  0  0  0
   33.9330   28.1280   38.4770 H   0  0  0  0  0  0  0  0  0  0  0  0
   35.6480   28.9890   36.5340 C   0  0  0  0  0  0  0  0  0  0  0  0
   34.9590   27.9310   35.9800 C   0  0  0  0  0  0  0  0  0  0  0  0
   34.3460   27.3190   36.5940 H   0  0  0  0  0  0  0  0  0  0  0  0
   35.0160   27.6050   34.6360 C   0  0  0  0  0  0  0  0  0  0  0  0
   34.4520   26.7600   34.2620 H   0  0  0  0  0  0  0  0  0  0  0  0
   35.7890   28.3600   33.8020 C   0  0  0  0  0  3  0  0  0  0  0  0
   36.4740   29.4150   34.3650 C   0  0  0  0  0  3  0  0  0  0  0  0
   36.3940   29.6960   35.6550 N   0  0  0  0  0  0  0  0  0  0  0  0
  2  1  1  0  0  0  0
  3  2  2  0  0  0  0
  3 13  1  0  0  0  0
  4  3  1  0  0  0  0
  5  4  2  0  0  0  0
  5  6  1  0  0  0  0
  6  7  2  0  0  0  0
  7 10  1  0  0  0  0
  7  2  1  0  0  0  0
  8  5  1  0  0  0  0
  9  6  1  0  0  0  0
 11 16  1  0  0  0  0
 12 11  2  0  0  0  0
 12 13  1  0  0  0  0
 13 14  2  0  0  0  0
 14 15  1  0  0  0  0
 15 19  1  0  0  0  0
 16 15  2  0  0  0  0
 17 11  1  0  0  0  0
 18 12  1  0  0  0  0
 20  4  1  0  0  0  0
 20 21  1  0  0  0  0
 21 26  1  0  0  0  0
 22 21  2  0  0  0  0
 22 27  1  0  0  0  0
 23 22  1  0  0  0  0
 24 25  1  0  0  0  0
 24 23  2  0  0  0  0
 25 20  2  0  0  0  0
 28 23  1  0  0  0  0
 29 24  1  0  0  0  0
 30 29  1  0  0  0  0
 30 31  1  0  0  0  0
 32 30  2  0  0  0  0
 33 32  1  0  0  0  0
 34 35  2  0  0  0  0
 34 32  1  0  0  0  0
 35 36  1  0  0  0  0
 36 29  2  0  0  0  0
M  END
>  <minimizedAffinity>
-5.68067503

$$$$

 OpenBabel03252502143D

 36 39  0  0  0  0  0  0  0  0999 V2000
   37.8180   32.4370   39.2880 Cl  0  0  0  0  0  0  0  0  0  0  0  0
   38.4290   31.4030   40.5660 C   0  0  0  0  0  0  0  0  0  0  0  0
   37.9120   30.1680   40.7870 C   0  0  0  0  0  0  0  0  0  0  0  0
   38.4700   29.4440   41.8170 C   0  0  0  0  0  0  0  0  0  0  0  0
   39.4770   29.9100   42.5850 C   0  0  0  0  0  0  0  0  0  0  0  0
   40.0020   31.1620   42.3610 C   0  0  0  0  0  0  0  0  0  0  0  0
   39.4640   31.8980   41.3410 C   0  0  0  0  0  0  0  0  0  0  0  0
   39.8680   29.2790   43.3820 H   0  0  0  0  0  0  0  0  0  0  0  0
   40.8070   31.5230   42.9790 H   0  0  0  0  0  0  0  0  0  0  0  0
   39.8940   32.8800   41.1860 H   0  0  0  0  0  0  0  0  0  0  0  0
   34.4750   29.2860   39.4630 C   0  0  0  0  0  0  0  0  0  0  0  0
   35.5020   29.7400   40.2950 C   0  0  0  0  0  0  0  0  0  0  0  0
   36.8320   29.7030   39.9430 C   0  0  0  0  0  0  0  0  0  0  0  0
   37.0870   29.1820   38.7020 N   0  0  0  0  0  0  0  0  0  0  0  0
   36.1010   28.7420   37.8940 C   0  0  0  0  0  0  0  0  0  0  0  0
   34.8050   28.7890   38.2640 N   0  0  0  0  0  0  0  0  0  0  0  0
   33.4480   29.3400   39.7950 H   0  0  0  0  0  0  0  0  0  0  0  0
   35.2730   30.1520   41.2810 H   0  0  0  0  0  0  0  0  0  0  0  0
   36.4150   28.3430   36.9210 H   0  0  0  0  0  0  0  0  0  0  0  0
   37.9250   28.1010   42.0770 C   0  0  0  0  0  0  0  0  0  0  0  0
   37.0280   27.9850   43.1480 C   0  0  0  0  0  0  0  0  0  0  0  0
   36.5750   26.6950   43.3090 C   0  0  0  0  0  0  0  0  0  0  0  0
   36.9130   25.6040   42.5560 C   0  0  0  0  0  0  0  0  0  0  0  0
   37.8090   25.8260   41.5190 C   0  0  0  0  0  0  0  0  0  0  0  0
   38.2680   27.0680   41.3350 N   0  0  0  0  0  0  0  0  0  0  0  0
   36.7100   28.7780   43.7840 H   0  0  0  0  0  0  0  0  0  0  0  0
   35.8580   26.5600   44.1540 H   0  0  0  0  0  0  0  0  0  0  0  0
   36.5410   24.6240   42.7140 H   0  0  0  0  0  0  0  0  0  0  0  0
   38.2800   24.7810   40.6140 C   0  0  0  0  0  0  0  0  0  0  0  0
   38.0020   23.4420   40.7870 C   0  0  0  0  0  0  0  0  0  0  0  0
   37.4160   23.1250   41.6140 H   0  0  0  0  0  0  0  0  0  0  0  0
   38.4490   22.4540   39.9280 C   0  0  0  0  0  0  0  0  0  0  0  0
   38.1980   21.4180   40.1180 H   0  0  0  0  0  0  0  0  0  0  0  0
   39.2070   22.8060   38.8480 C   0  0  0  0  0  3  0  0  0  0  0  0
   39.4800   24.1470   38.6840 C   0  0  0  0  0  3  0  0  0  0  0  0
   39.0330   25.0630   39.5270 N   0  0  0  0  0  0  0  0  0  0  0  0
  1  2  1  0  0  0  0
  2  3  2  0  0  0  0
  2  7  1  0  0  0  0
  3  4  1  0  0  0  0
  4 20  1  0  0  0  0
  4  5  2  0  0  0  0
  5  8  1  0  0  0  0
  6  5  1  0  0  0  0
  6  9  1  0  0  0  0
  7  6  2  0  0  0  0
 10  7  1  0  0  0  0
 11 17  1  0  0  0  0
 11 12  1  0  0  0  0
 12 18  1  0  0  0  0
 13 12  2  0  0  0  0
 13  3  1  0  0  0  0
 14 13  1  0  0  0  0
 15 16  1  0  0  0  0
 15 14  2  0  0  0  0
 16 11  2  0  0  0  0
 19 15  1  0  0  0  0
 20 21  1  0  0  0  0
 21 22  2  0  0  0  0
 21 26  1  0  0  0  0
 22 27  1  0  0  0  0
 23 28  1  0  0  0  0
 23 22  1  0  0  0  0
 24 23  2  0  0  0  0
 25 24  1  0  0  0  0
 25 20  2  0  0  0  0
 29 30  1  0  0  0  0
 29 24  1  0  0  0  0
 30 31  1  0  0  0  0
 32 33  1  0  0  0  0
 32 30  2  0  0  0  0
 34 32  1  0  0  0  0
 35 34  2  0  0  0  0
 35 36  1  0  0  0  0
 36 29  2  0  0  0  0
M  END
>  <minimizedAffinity>
-5.66935921

$$$$
