
 OpenBabel03252509163D

 24 26  0  0  0  0  0  0  0  0999 V2000
   46.0980   32.8850   45.9330 C   0  0  0  0  0  0  0  0  0  0  0  0
   45.7360   32.6420   47.2880 C   0  0  0  0  0  0  0  0  0  0  0  0
   46.2200   31.5240   47.8840 C   0  0  0  0  0  0  0  0  0  0  0  0
   47.0580   30.6530   47.1460 C   0  0  0  0  0  0  0  0  0  0  0  0
   47.1540   31.4890   45.5000 S   0  0  0  0  0  0  0  0  0  0  0  0
   45.0940   33.3320   47.8190 H   0  0  0  0  0  0  0  0  0  0  0  0
   46.0290   31.2280   48.8790 H   0  0  0  0  0  0  0  0  0  0  0  0
   44.4580   36.0200   44.7670 C   0  0  0  0  0  0  0  0  0  0  0  0
   45.0180   36.1070   43.4660 C   0  0  0  0  0  0  0  0  0  0  0  0
   45.9180   35.1060   43.0560 C   0  0  0  0  0  0  0  0  0  0  0  0
   46.2030   34.0900   43.9500 N   0  0  0  0  0  0  0  0  0  0  0  0
   45.6360   34.0620   45.1770 C   0  0  0  0  0  0  0  0  0  0  0  0
   44.7650   35.0150   45.5970 N   0  0  0  0  0  0  0  0  0  0  0  0
   43.7820   36.7790   45.0640 H   0  0  0  0  0  0  0  0  0  0  0  0
   44.7770   36.9140   42.7870 H   0  0  0  0  0  0  0  0  0  0  0  0
   46.3810   35.1060   42.0880 H   0  0  0  0  0  0  0  0  0  0  0  0
   47.6950   29.4320   47.5130 C   0  0  0  0  0  0  0  0  0  0  0  0
   47.1490   28.2110   47.1940 C   0  0  0  0  0  0  0  0  0  0  0  0
   46.2190   28.2350   46.6550 H   0  0  0  0  0  0  0  0  0  0  0  0
   47.8250   27.0770   47.5850 C   0  0  0  0  0  0  0  0  0  0  0  0
   47.3710   26.1290   47.3190 H   0  0  0  0  0  0  0  0  0  0  0  0
   49.0290   27.1370   48.2830 C   0  0  0  0  0  3  0  0  0  0  0  0
   49.4980   28.4050   48.5570 C   0  0  0  0  0  3  0  0  0  0  0  0
   48.8520   29.5400   48.1850 N   0  0  0  0  0  0  0  0  0  0  0  0
  1  2  2  0  0  0  0
  2  6  1  0  0  0  0
  2  3  1  0  0  0  0
  3  7  1  0  0  0  0
  4 17  1  0  0  0  0
  4  3  2  0  0  0  0
  5  1  1  0  0  0  0
  5  4  1  0  0  0  0
  8 14  1  0  0  0  0
  8 13  1  0  0  0  0
  9  8  2  0  0  0  0
 10  9  1  0  0  0  0
 10 11  2  0  0  0  0
 11 12  1  0  0  0  0
 12 13  2  0  0  0  0
 12  1  1  0  0  0  0
 15  9  1  0  0  0  0
 16 10  1  0  0  0  0
 17 24  1  0  0  0  0
 18 17  2  0  0  0  0
 18 20  1  0  0  0  0
 19 18  1  0  0  0  0
 20 22  2  0  0  0  0
 21 20  1  0  0  0  0
 22 23  1  0  0  0  0
 24 23  2  0  0  0  0
M  END
>  <minimizedAffinity>
-4.50442171

>  <minimizedRMSD>
1.57631552

$$$$
