
 OpenBabel03252505353D

 29 31  0  0  0  0  0  0  0  0999 V2000
   37.6170   29.3370   41.4940 C   0  0  0  0  0  0  0  0  0  0  0  0
   38.3470   29.3000   42.6690 C   0  0  0  0  0  0  0  0  0  0  0  0
   38.0730   28.3720   43.6790 C   0  0  0  0  0  0  0  0  0  0  0  0
   37.0480   27.4590   43.5190 C   0  0  0  0  0  0  0  0  0  0  0  0
   36.3300   27.5100   42.3400 C   0  0  0  0  0  0  0  0  0  0  0  0
   36.6090   28.4250   41.3580 C   0  0  0  0  0  0  0  0  0  0  0  0
   39.1620   29.9860   42.8610 H   0  0  0  0  0  0  0  0  0  0  0  0
   38.6550   28.3520   44.6020 H   0  0  0  0  0  0  0  0  0  0  0  0
   36.7800   26.7140   44.2570 H   0  0  0  0  0  0  0  0  0  0  0  0
   35.5330   26.8040   42.2080 H   0  0  0  0  0  0  0  0  0  0  0  0
   39.1610   31.1240   38.5710 C   0  0  0  0  0  0  0  0  0  0  0  0
   38.8930   30.0910   39.4860 C   0  0  0  0  0  0  0  0  0  0  0  0
   37.9610   30.3170   40.5080 C   0  0  0  0  0  0  0  0  0  0  0  0
   37.3480   31.5310   40.5790 N   0  0  0  0  0  0  0  0  0  0  0  0
   37.6400   32.5040   39.6690 C   0  0  0  0  0  0  0  0  0  0  0  0
   38.5370   32.3020   38.6740 N   0  0  0  0  0  0  0  0  0  0  0  0
   37.0020   33.7670   39.7500 N   0  0  0  0  0  0  0  0  0  0  0  0
   39.8880   30.8610   37.8230 H   0  0  0  0  0  0  0  0  0  0  0  0
   39.3670   29.1170   39.4530 H   0  0  0  0  0  0  0  0  0  0  0  0
   36.8560   34.3120   38.8840 H   0  0  0  0  0  0  0  0  0  0  0  0
   36.6810   34.1520   40.6770 H   0  0  0  0  0  0  0  0  0  0  0  0
   35.7910   28.3910   40.1520 C   0  0  0  0  0  0  0  0  0  0  0  0
   34.6970   29.1380   39.7710 C   0  0  0  0  0  0  0  0  0  0  0  0
   34.4350   29.8610   40.5360 H   0  0  0  0  0  0  0  0  0  0  0  0
   34.0950   28.9190   38.5670 C   0  0  0  0  0  0  0  0  0  0  0  0
   33.2470   29.5550   38.3600 H   0  0  0  0  0  0  0  0  0  0  0  0
   34.5620   27.9540   37.7120 C   0  0  0  0  0  3  0  0  0  0  0  0
   35.6470   27.2130   38.0900 C   0  0  0  0  0  3  0  0  0  0  0  0
   36.2480   27.4340   39.2940 N   0  0  0  0  0  0  0  0  0  0  0  0
  1  2  1  0  0  0  0
  2  7  1  0  0  0  0
  2  3  2  0  0  0  0
  3  8  1  0  0  0  0
  4  3  1  0  0  0  0
  4  9  1  0  0  0  0
  5  4  2  0  0  0  0
  6  1  2  0  0  0  0
  6  5  1  0  0  0  0
 10  5  1  0  0  0  0
 11 16  2  0  0  0  0
 11 12  1  0  0  0  0
 12 13  2  0  0  0  0
 13 14  1  0  0  0  0
 13  1  1  0  0  0  0
 15 17  1  0  0  0  0
 15 14  2  0  0  0  0
 16 15  1  0  0  0  0
 17 21  1  0  0  0  0
 18 11  1  0  0  0  0
 19 12  1  0  0  0  0
 20 17  1  0  0  0  0
 22  6  1  0  0  0  0
 23 22  1  0  0  0  0
 23 24  1  0  0  0  0
 25 23  2  0  0  0  0
 26 25  1  0  0  0  0
 27 28  2  0  0  0  0
 27 25  1  0  0  0  0
 28 29  1  0  0  0  0
 29 22  2  0  0  0  0
M  END
>  <minimizedAffinity>
-5.85045099

$$$$

 OpenBabel03252505353D

 29 31  0  0  0  0  0  0  0  0999 V2000
   37.4670   29.5630   41.4420 C   0  0  0  0  0  0  0  0  0  0  0  0
   38.2080   29.6000   42.6100 C   0  0  0  0  0  0  0  0  0  0  0  0
   38.0100   28.6740   43.6390 C   0  0  0  0  0  0  0  0  0  0  0  0
   37.0530   27.6860   43.5050 C   0  0  0  0  0  0  0  0  0  0  0  0
   36.3230   27.6630   42.3330 C   0  0  0  0  0  0  0  0  0  0  0  0
   36.5260   28.5770   41.3330 C   0  0  0  0  0  0  0  0  0  0  0  0
   38.9720   30.3470   42.7810 H   0  0  0  0  0  0  0  0  0  0  0  0
   38.6010   28.7130   44.5560 H   0  0  0  0  0  0  0  0  0  0  0  0
   36.8470   26.9370   44.2600 H   0  0  0  0  0  0  0  0  0  0  0  0
   35.5780   26.8990   42.2220 H   0  0  0  0  0  0  0  0  0  0  0  0
   37.4490   32.6990   39.3730 C   0  0  0  0  0  0  0  0  0  0  0  0
   37.1220   31.8080   40.4090 C   0  0  0  0  0  0  0  0  0  0  0  0
   37.7300   30.5460   40.4360 C   0  0  0  0  0  0  0  0  0  0  0  0
   38.6180   30.2270   39.4530 N   0  0  0  0  0  0  0  0  0  0  0  0
   38.9050   31.1230   38.4660 C   0  0  0  0  0  0  0  0  0  0  0  0
   38.3260   32.3480   38.4260 N   0  0  0  0  0  0  0  0  0  0  0  0
   39.8260   30.7830   37.4430 N   0  0  0  0  0  0  0  0  0  0  0  0
   36.9350   33.6410   39.4340 H   0  0  0  0  0  0  0  0  0  0  0  0
   36.4190   32.0370   41.2030 H   0  0  0  0  0  0  0  0  0  0  0  0
   40.3740   31.5340   36.9920 H   0  0  0  0  0  0  0  0  0  0  0  0
   39.9530   29.7830   37.1410 H   0  0  0  0  0  0  0  0  0  0  0  0
   35.7030   28.4620   40.1350 C   0  0  0  0  0  0  0  0  0  0  0  0
   34.5820   29.1550   39.7300 C   0  0  0  0  0  0  0  0  0  0  0  0
   34.3010   29.9020   40.4640 H   0  0  0  0  0  0  0  0  0  0  0  0
   33.9800   28.8620   38.5420 C   0  0  0  0  0  0  0  0  0  0  0  0
   33.1100   29.4590   38.3130 H   0  0  0  0  0  0  0  0  0  0  0  0
   34.4730   27.8760   37.7270 C   0  0  0  0  0  3  0  0  0  0  0  0
   35.5850   27.1890   38.1300 C   0  0  0  0  0  3  0  0  0  0  0  0
   36.1860   27.4830   39.3180 N   0  0  0  0  0  0  0  0  0  0  0  0
  1  2  1  0  0  0  0
  2  7  1  0  0  0  0
  2  3  2  0  0  0  0
  3  8  1  0  0  0  0
  4  3  1  0  0  0  0
  4  9  1  0  0  0  0
  5  4  2  0  0  0  0
  6  1  2  0  0  0  0
  6  5  1  0  0  0  0
 10  5  1  0  0  0  0
 11 18  1  0  0  0  0
 11 12  1  0  0  0  0
 12 13  2  0  0  0  0
 12 19  1  0  0  0  0
 13  1  1  0  0  0  0
 14 13  1  0  0  0  0
 15 14  2  0  0  0  0
 16 15  1  0  0  0  0
 16 11  2  0  0  0  0
 17 15  1  0  0  0  0
 20 17  1  0  0  0  0
 21 17  1  0  0  0  0
 22  6  1  0  0  0  0
 23 22  1  0  0  0  0
 23 24  1  0  0  0  0
 25 23  2  0  0  0  0
 26 25  1  0  0  0  0
 27 28  2  0  0  0  0
 27 25  1  0  0  0  0
 28 29  1  0  0  0  0
 29 22  2  0  0  0  0
M  END
>  <minimizedAffinity>
-5.63269234

$$$$

 OpenBabel03252505353D

 29 31  0  0  0  0  0  0  0  0999 V2000
   36.9690   28.5340   40.7940 C   0  0  0  0  0  0  0  0  0  0  0  0
   36.7090   27.3110   41.3880 C   0  0  0  0  0  0  0  0  0  0  0  0
   36.9730   27.0770   42.7410 C   0  0  0  0  0  0  0  0  0  0  0  0
   37.5080   28.0810   43.5250 C   0  0  0  0  0  0  0  0  0  0  0  0
   37.7610   29.2950   42.9170 C   0  0  0  0  0  0  0  0  0  0  0  0
   37.4980   29.5120   41.5890 C   0  0  0  0  0  0  0  0  0  0  0  0
   36.2910   26.4820   40.8330 H   0  0  0  0  0  0  0  0  0  0  0  0
   36.7640   26.1080   43.1990 H   0  0  0  0  0  0  0  0  0  0  0  0
   37.7370   27.9710   44.5780 H   0  0  0  0  0  0  0  0  0  0  0  0
   38.1770   30.0800   43.5200 H   0  0  0  0  0  0  0  0  0  0  0  0
   35.1960   29.0820   37.5270 C   0  0  0  0  0  0  0  0  0  0  0  0
   35.3810   28.9440   38.9140 C   0  0  0  0  0  0  0  0  0  0  0  0
   36.6700   28.6950   39.4040 C   0  0  0  0  0  0  0  0  0  0  0  0
   37.6990   28.5930   38.5180 N   0  0  0  0  0  0  0  0  0  0  0  0
   37.4720   28.7330   37.1800 C   0  0  0  0  0  0  0  0  0  0  0  0
   36.2330   28.9760   36.6890 N   0  0  0  0  0  0  0  0  0  0  0  0
   38.5460   28.6220   36.2620 N   0  0  0  0  0  0  0  0  0  0  0  0
   34.1760   29.2710   37.2440 H   0  0  0  0  0  0  0  0  0  0  0  0
   34.5800   29.0200   39.6400 H   0  0  0  0  0  0  0  0  0  0  0  0
   38.5010   29.1430   35.3710 H   0  0  0  0  0  0  0  0  0  0  0  0
   39.3820   28.0180   36.4770 H   0  0  0  0  0  0  0  0  0  0  0  0
   37.8000   30.8310   41.0480 C   0  0  0  0  0  0  0  0  0  0  0  0
   36.9910   31.7860   40.4690 C   0  0  0  0  0  0  0  0  0  0  0  0
   35.9610   31.4490   40.4290 H   0  0  0  0  0  0  0  0  0  0  0  0
   37.5170   32.9670   40.0360 C   0  0  0  0  0  0  0  0  0  0  0  0
   36.8030   33.6490   39.5980 H   0  0  0  0  0  0  0  0  0  0  0  0
   38.8560   33.2320   40.1660 C   0  0  0  0  0  3  0  0  0  0  0  0
   39.6580   32.2850   40.7410 C   0  0  0  0  0  3  0  0  0  0  0  0
   39.1310   31.1040   41.1730 N   0  0  0  0  0  0  0  0  0  0  0  0
  1  2  2  0  0  0  0
  1  6  1  0  0  0  0
  2  3  1  0  0  0  0
  3  8  1  0  0  0  0
  3  4  2  0  0  0  0
  4  9  1  0  0  0  0
  5 10  1  0  0  0  0
  5  4  1  0  0  0  0
  6  5  2  0  0  0  0
  7  2  1  0  0  0  0
 11 12  1  0  0  0  0
 12 13  2  0  0  0  0
 12 19  1  0  0  0  0
 13  1  1  0  0  0  0
 14 13  1  0  0  0  0
 15 14  2  0  0  0  0
 16 15  1  0  0  0  0
 16 11  2  0  0  0  0
 17 21  1  0  0  0  0
 17 15  1  0  0  0  0
 18 11  1  0  0  0  0
 20 17  1  0  0  0  0
 22 29  1  0  0  0  0
 22  6  1  0  0  0  0
 23 22  2  0  0  0  0
 24 23  1  0  0  0  0
 25 27  2  0  0  0  0
 25 23  1  0  0  0  0
 26 25  1  0  0  0  0
 27 28  1  0  0  0  0
 28 29  2  0  0  0  0
M  END
>  <minimizedAffinity>
-5.47251129

$$$$

 OpenBabel03252505353D

 29 31  0  0  0  0  0  0  0  0999 V2000
   36.5740   26.6450   39.4590 C   0  0  0  0  0  0  0  0  0  0  0  0
   35.8340   26.0910   38.4280 C   0  0  0  0  0  0  0  0  0  0  0  0
   35.5410   24.7240   38.3810 C   0  0  0  0  0  0  0  0  0  0  0  0
   35.9940   23.8860   39.3820 C   0  0  0  0  0  0  0  0  0  0  0  0
   36.7310   24.4550   40.4030 C   0  0  0  0  0  0  0  0  0  0  0  0
   37.0110   25.7960   40.4370 C   0  0  0  0  0  0  0  0  0  0  0  0
   35.4490   26.6890   37.6130 H   0  0  0  0  0  0  0  0  0  0  0  0
   34.9570   24.2990   37.5640 H   0  0  0  0  0  0  0  0  0  0  0  0
   35.8050   22.8200   39.4110 H   0  0  0  0  0  0  0  0  0  0  0  0
   37.0860   23.8100   41.1840 H   0  0  0  0  0  0  0  0  0  0  0  0
   37.9290   30.0500   38.6300 C   0  0  0  0  0  0  0  0  0  0  0  0
   37.7510   28.6570   38.5690 C   0  0  0  0  0  0  0  0  0  0  0  0
   36.8290   28.0530   39.4350 C   0  0  0  0  0  0  0  0  0  0  0  0
   36.1370   28.8390   40.3060 N   0  0  0  0  0  0  0  0  0  0  0  0
   36.3430   30.1860   40.3300 C   0  0  0  0  0  0  0  0  0  0  0  0
   37.2300   30.7860   39.5000 N   0  0  0  0  0  0  0  0  0  0  0  0
   35.6240   30.9990   41.2420 N   0  0  0  0  0  0  0  0  0  0  0  0
   38.6550   30.4230   37.9310 H   0  0  0  0  0  0  0  0  0  0  0  0
   38.2890   28.0080   37.8870 H   0  0  0  0  0  0  0  0  0  0  0  0
   35.4220   31.9800   40.9890 H   0  0  0  0  0  0  0  0  0  0  0  0
   35.2970   30.6150   42.1670 H   0  0  0  0  0  0  0  0  0  0  0  0
   37.7940   26.2940   41.5600 C   0  0  0  0  0  0  0  0  0  0  0  0
   37.4120   26.8400   42.7670 C   0  0  0  0  0  0  0  0  0  0  0  0
   36.3310   26.8900   42.8450 H   0  0  0  0  0  0  0  0  0  0  0  0
   38.3480   27.2340   43.6760 C   0  0  0  0  0  0  0  0  0  0  0  0
   37.9500   27.6490   44.5900 H   0  0  0  0  0  0  0  0  0  0  0  0
   39.6870   27.0970   43.4120 C   0  0  0  0  0  3  0  0  0  0  0  0
   40.0660   26.5540   42.2150 C   0  0  0  0  0  3  0  0  0  0  0  0
   39.1280   26.1610   41.3080 N   0  0  0  0  0  0  0  0  0  0  0  0
  1  6  1  0  0  0  0
  2  1  2  0  0  0  0
  3  2  1  0  0  0  0
  3  4  2  0  0  0  0
  4  9  1  0  0  0  0
  4  5  1  0  0  0  0
  5  6  2  0  0  0  0
  5 10  1  0  0  0  0
  6 22  1  0  0  0  0
  7  2  1  0  0  0  0
  8  3  1  0  0  0  0
 11 16  1  0  0  0  0
 12 11  2  0  0  0  0
 12 13  1  0  0  0  0
 13  1  1  0  0  0  0
 13 14  2  0  0  0  0
 14 15  1  0  0  0  0
 15 17  1  0  0  0  0
 16 15  2  0  0  0  0
 17 21  1  0  0  0  0
 18 11  1  0  0  0  0
 19 12  1  0  0  0  0
 20 17  1  0  0  0  0
 22 23  1  0  0  0  0
 23 24  1  0  0  0  0
 23 25  2  0  0  0  0
 25 26  1  0  0  0  0
 27 25  1  0  0  0  0
 28 27  2  0  0  0  0
 29 22  2  0  0  0  0
 29 28  1  0  0  0  0
M  END
>  <minimizedAffinity>
-5.43366432

$$$$

 OpenBabel03252505353D

 29 31  0  0  0  0  0  0  0  0999 V2000
   38.9780   29.0720   41.6530 C   0  0  0  0  0  0  0  0  0  0  0  0
   39.9990   28.7820   42.5420 C   0  0  0  0  0  0  0  0  0  0  0  0
   39.9530   27.6630   43.3800 C   0  0  0  0  0  0  0  0  0  0  0  0
   38.8660   26.8100   43.3340 C   0  0  0  0  0  0  0  0  0  0  0  0
   37.8570   27.1140   42.4410 C   0  0  0  0  0  0  0  0  0  0  0  0
   37.9140   28.2140   41.6270 C   0  0  0  0  0  0  0  0  0  0  0  0
   40.8780   29.4070   42.6310 H   0  0  0  0  0  0  0  0  0  0  0  0
   40.7630   27.4440   44.0770 H   0  0  0  0  0  0  0  0  0  0  0  0
   38.7630   25.9270   43.9520 H   0  0  0  0  0  0  0  0  0  0  0  0
   37.0100   26.4560   42.4000 H   0  0  0  0  0  0  0  0  0  0  0  0
   39.5750   31.3960   38.7630 C   0  0  0  0  0  0  0  0  0  0  0  0
   39.4810   30.1920   39.4810 C   0  0  0  0  0  0  0  0  0  0  0  0
   39.1020   30.2350   40.8290 C   0  0  0  0  0  0  0  0  0  0  0  0
   38.8380   31.4450   41.3970 N   0  0  0  0  0  0  0  0  0  0  0  0
   38.9440   32.5890   40.6610 C   0  0  0  0  0  0  0  0  0  0  0  0
   39.3080   32.5650   39.3560 N   0  0  0  0  0  0  0  0  0  0  0  0
   38.6730   33.8460   41.2580 N   0  0  0  0  0  0  0  0  0  0  0  0
   39.8720   31.2660   37.7370 H   0  0  0  0  0  0  0  0  0  0  0  0
   39.6850   29.2160   39.0540 H   0  0  0  0  0  0  0  0  0  0  0  0
   38.3140   34.6150   40.6680 H   0  0  0  0  0  0  0  0  0  0  0  0
   38.8350   34.0010   42.2870 H   0  0  0  0  0  0  0  0  0  0  0  0
   36.7970   28.4410   40.7190 C   0  0  0  0  0  0  0  0  0  0  0  0
   35.6960   29.2660   40.8160 C   0  0  0  0  0  0  0  0  0  0  0  0
   35.7060   29.8180   41.7500 H   0  0  0  0  0  0  0  0  0  0  0  0
   34.7730   29.3080   39.8140 C   0  0  0  0  0  0  0  0  0  0  0  0
   33.9480   29.9840   39.9840 H   0  0  0  0  0  0  0  0  0  0  0  0
   34.9170   28.5350   38.6910 C   0  0  0  0  0  3  0  0  0  0  0  0
   36.0090   27.7170   38.5940 C   0  0  0  0  0  3  0  0  0  0  0  0
   36.9310   27.6760   39.5980 N   0  0  0  0  0  0  0  0  0  0  0  0
  1  2  1  0  0  0  0
  2  7  1  0  0  0  0
  2  3  2  0  0  0  0
  3  8  1  0  0  0  0
  4  3  1  0  0  0  0
  4  9  1  0  0  0  0
  5  4  2  0  0  0  0
  6  1  2  0  0  0  0
  6  5  1  0  0  0  0
 10  5  1  0  0  0  0
 11 16  2  0  0  0  0
 11 12  1  0  0  0  0
 12 13  2  0  0  0  0
 13 14  1  0  0  0  0
 13  1  1  0  0  0  0
 15 17  1  0  0  0  0
 15 14  2  0  0  0  0
 16 15  1  0  0  0  0
 17 21  1  0  0  0  0
 18 11  1  0  0  0  0
 19 12  1  0  0  0  0
 20 17  1  0  0  0  0
 22 23  1  0  0  0  0
 22  6  1  0  0  0  0
 23 24  1  0  0  0  0
 25 26  1  0  0  0  0
 25 23  2  0  0  0  0
 27 25  1  0  0  0  0
 28 27  2  0  0  0  0
 28 29  1  0  0  0  0
 29 22  2  0  0  0  0
M  END
>  <minimizedAffinity>
-5.39271021

$$$$

 OpenBabel03252505353D

 29 31  0  0  0  0  0  0  0  0999 V2000
   38.5320   31.4570   40.8430 C   0  0  0  0  0  0  0  0  0  0  0  0
   39.3900   32.5000   41.1460 C   0  0  0  0  0  0  0  0  0  0  0  0
   39.1550   33.8040   40.6960 C   0  0  0  0  0  0  0  0  0  0  0  0
   38.0410   34.0780   39.9240 C   0  0  0  0  0  0  0  0  0  0  0  0
   37.1960   33.0260   39.6320 C   0  0  0  0  0  0  0  0  0  0  0  0
   37.4380   31.7530   40.0790 C   0  0  0  0  0  0  0  0  0  0  0  0
   40.2800   32.3560   41.7440 H   0  0  0  0  0  0  0  0  0  0  0  0
   39.8380   34.6190   40.9410 H   0  0  0  0  0  0  0  0  0  0  0  0
   37.7970   35.0620   39.5420 H   0  0  0  0  0  0  0  0  0  0  0  0
   36.3290   33.2320   39.0330 H   0  0  0  0  0  0  0  0  0  0  0  0
   38.8990   28.4300   43.0380 C   0  0  0  0  0  0  0  0  0  0  0  0
   38.5470   29.7340   42.6470 C   0  0  0  0  0  0  0  0  0  0  0  0
   38.8420   30.1530   41.3430 C   0  0  0  0  0  0  0  0  0  0  0  0
   39.4600   29.2800   40.4990 N   0  0  0  0  0  0  0  0  0  0  0  0
   39.7830   28.0250   40.9230 C   0  0  0  0  0  0  0  0  0  0  0  0
   39.5050   27.6040   42.1800 N   0  0  0  0  0  0  0  0  0  0  0  0
   40.4310   27.1220   40.0420 N   0  0  0  0  0  0  0  0  0  0  0  0
   38.6340   28.1980   44.0550 H   0  0  0  0  0  0  0  0  0  0  0  0
   38.0560   30.4480   43.2980 H   0  0  0  0  0  0  0  0  0  0  0  0
   40.2780   26.1070   40.1610 H   0  0  0  0  0  0  0  0  0  0  0  0
   41.0620   27.4740   39.2750 H   0  0  0  0  0  0  0  0  0  0  0  0
   36.4810   30.7160   39.7140 C   0  0  0  0  0  0  0  0  0  0  0  0
   35.5510   30.0290   40.4660 C   0  0  0  0  0  0  0  0  0  0  0  0
   35.5760   30.3500   41.5020 H   0  0  0  0  0  0  0  0  0  0  0  0
   34.7500   29.0900   39.8860 C   0  0  0  0  0  0  0  0  0  0  0  0
   34.0550   28.6080   40.5560 H   0  0  0  0  0  0  0  0  0  0  0  0
   34.8530   28.8080   38.5480 C   0  0  0  0  0  3  0  0  0  0  0  0
   35.7750   29.4890   37.8030 C   0  0  0  0  0  3  0  0  0  0  0  0
   36.5740   30.4280   38.3840 N   0  0  0  0  0  0  0  0  0  0  0  0
  1  2  1  0  0  0  0
  1 13  1  0  0  0  0
  2  7  1  0  0  0  0
  3  8  1  0  0  0  0
  3  2  2  0  0  0  0
  4  3  1  0  0  0  0
  5  4  2  0  0  0  0
  5  6  1  0  0  0  0
  6  1  2  0  0  0  0
  9  4  1  0  0  0  0
 10  5  1  0  0  0  0
 11 18  1  0  0  0  0
 12 11  1  0  0  0  0
 12 19  1  0  0  0  0
 13 12  2  0  0  0  0
 14 15  2  0  0  0  0
 14 13  1  0  0  0  0
 15 16  1  0  0  0  0
 16 11  2  0  0  0  0
 17 20  1  0  0  0  0
 17 15  1  0  0  0  0
 21 17  1  0  0  0  0
 22  6  1  0  0  0  0
 22 23  1  0  0  0  0
 23 24  1  0  0  0  0
 25 23  2  0  0  0  0
 25 26  1  0  0  0  0
 27 25  1  0  0  0  0
 28 29  1  0  0  0  0
 28 27  2  0  0  0  0
 29 22  2  0  0  0  0
M  END
>  <minimizedAffinity>
-5.26384068

$$$$

 OpenBabel03252505353D

 29 31  0  0  0  0  0  0  0  0999 V2000
   37.7060   29.2120   41.5150 C   0  0  0  0  0  0  0  0  0  0  0  0
   36.5500   28.4890   41.7540 C   0  0  0  0  0  0  0  0  0  0  0  0
   36.4480   27.5920   42.8230 C   0  0  0  0  0  0  0  0  0  0  0  0
   37.5200   27.4070   43.6750 C   0  0  0  0  0  0  0  0  0  0  0  0
   38.6660   28.1360   43.4210 C   0  0  0  0  0  0  0  0  0  0  0  0
   38.7530   29.0120   42.3710 C   0  0  0  0  0  0  0  0  0  0  0  0
   35.6730   28.5840   41.1270 H   0  0  0  0  0  0  0  0  0  0  0  0
   35.5310   27.0280   43.0020 H   0  0  0  0  0  0  0  0  0  0  0  0
   37.5120   26.7310   44.5200 H   0  0  0  0  0  0  0  0  0  0  0  0
   39.5030   27.9980   44.0790 H   0  0  0  0  0  0  0  0  0  0  0  0
   38.1380   30.7030   38.0940 C   0  0  0  0  0  0  0  0  0  0  0  0
   38.1500   29.7400   39.1170 C   0  0  0  0  0  0  0  0  0  0  0  0
   37.7300   30.1110   40.4020 C   0  0  0  0  0  0  0  0  0  0  0  0
   37.3250   31.3940   40.6130 N   0  0  0  0  0  0  0  0  0  0  0  0
   37.3310   32.2950   39.5900 C   0  0  0  0  0  0  0  0  0  0  0  0
   37.7330   31.9530   38.3420 N   0  0  0  0  0  0  0  0  0  0  0  0
   36.9130   33.6310   39.8160 N   0  0  0  0  0  0  0  0  0  0  0  0
   38.4760   30.3290   37.1440 H   0  0  0  0  0  0  0  0  0  0  0  0
   38.4680   28.7130   38.9770 H   0  0  0  0  0  0  0  0  0  0  0  0
   36.4920   34.1640   39.0370 H   0  0  0  0  0  0  0  0  0  0  0  0
   37.0270   34.0800   40.7620 H   0  0  0  0  0  0  0  0  0  0  0  0
   40.0070   29.7330   42.1950 C   0  0  0  0  0  0  0  0  0  0  0  0
   40.4080   30.9820   42.6200 C   0  0  0  0  0  0  0  0  0  0  0  0
   39.6170   31.4750   43.1750 H   0  0  0  0  0  0  0  0  0  0  0  0
   41.6580   31.4430   42.3300 C   0  0  0  0  0  0  0  0  0  0  0  0
   41.8770   32.4310   42.7070 H   0  0  0  0  0  0  0  0  0  0  0  0
   42.5410   30.6790   41.6110 C   0  0  0  0  0  3  0  0  0  0  0  0
   42.1430   29.4400   41.1890 C   0  0  0  0  0  3  0  0  0  0  0  0
   40.8930   28.9810   41.4800 N   0  0  0  0  0  0  0  0  0  0  0  0
  1  2  2  0  0  0  0
  1  6  1  0  0  0  0
  2  3  1  0  0  0  0
  3  8  1  0  0  0  0
  3  4  2  0  0  0  0
  4  9  1  0  0  0  0
  5  4  1  0  0  0  0
  5 10  1  0  0  0  0
  6  5  2  0  0  0  0
  7  2  1  0  0  0  0
 11 16  2  0  0  0  0
 11 12  1  0  0  0  0
 12 13  2  0  0  0  0
 13 14  1  0  0  0  0
 13  1  1  0  0  0  0
 15 17  1  0  0  0  0
 15 14  2  0  0  0  0
 16 15  1  0  0  0  0
 17 21  1  0  0  0  0
 18 11  1  0  0  0  0
 19 12  1  0  0  0  0
 20 17  1  0  0  0  0
 22  6  1  0  0  0  0
 22 23  1  0  0  0  0
 23 24  1  0  0  0  0
 25 23  2  0  0  0  0
 25 26  1  0  0  0  0
 27 25  1  0  0  0  0
 28 29  1  0  0  0  0
 28 27  2  0  0  0  0
 29 22  2  0  0  0  0
M  END
>  <minimizedAffinity>
-5.23960161

$$$$

 OpenBabel03252505353D

 29 31  0  0  0  0  0  0  0  0999 V2000
   36.4910   28.5280   41.2560 C   0  0  0  0  0  0  0  0  0  0  0  0
   36.3180   27.5980   42.2660 C   0  0  0  0  0  0  0  0  0  0  0  0
   37.0320   27.6690   43.4670 C   0  0  0  0  0  0  0  0  0  0  0  0
   37.9420   28.6910   43.6700 C   0  0  0  0  0  0  0  0  0  0  0  0
   38.1020   29.6100   42.6510 C   0  0  0  0  0  0  0  0  0  0  0  0
   37.3960   29.5280   41.4800 C   0  0  0  0  0  0  0  0  0  0  0  0
   35.6240   26.7730   42.1740 H   0  0  0  0  0  0  0  0  0  0  0  0
   36.8880   26.9300   44.2560 H   0  0  0  0  0  0  0  0  0  0  0  0
   38.5280   28.8080   44.5720 H   0  0  0  0  0  0  0  0  0  0  0  0
   38.8060   30.4060   42.8020 H   0  0  0  0  0  0  0  0  0  0  0  0
   33.8800   28.9070   38.5810 C   0  0  0  0  0  0  0  0  0  0  0  0
   34.5650   29.1290   39.7890 C   0  0  0  0  0  0  0  0  0  0  0  0
   35.7210   28.3850   40.0590 C   0  0  0  0  0  0  0  0  0  0  0  0
   36.1410   27.4720   39.1390 N   0  0  0  0  0  0  0  0  0  0  0  0
   35.4440   27.2900   37.9810 C   0  0  0  0  0  0  0  0  0  0  0  0
   34.3250   28.0010   37.7050 N   0  0  0  0  0  0  0  0  0  0  0  0
   35.8830   26.3340   37.0310 N   0  0  0  0  0  0  0  0  0  0  0  0
   33.0060   29.5220   38.4610 H   0  0  0  0  0  0  0  0  0  0  0  0
   34.2520   29.8490   40.5370 H   0  0  0  0  0  0  0  0  0  0  0  0
   35.6750   26.4890   36.0300 H   0  0  0  0  0  0  0  0  0  0  0  0
   36.4130   25.4750   37.3320 H   0  0  0  0  0  0  0  0  0  0  0  0
   37.6390   30.5520   40.4720 C   0  0  0  0  0  0  0  0  0  0  0  0
   37.0540   31.7830   40.2620 C   0  0  0  0  0  0  0  0  0  0  0  0
   36.2810   31.9750   41.0000 H   0  0  0  0  0  0  0  0  0  0  0  0
   37.4650   32.5780   39.2340 C   0  0  0  0  0  0  0  0  0  0  0  0
   36.9460   33.5220   39.1540 H   0  0  0  0  0  0  0  0  0  0  0  0
   38.4650   32.1740   38.3880 C   0  0  0  0  0  3  0  0  0  0  0  0
   39.0460   30.9540   38.5960 C   0  0  0  0  0  3  0  0  0  0  0  0
   38.6340   30.1590   39.6250 N   0  0  0  0  0  0  0  0  0  0  0  0
  1  6  2  0  0  0  0
  1  2  1  0  0  0  0
  2  3  2  0  0  0  0
  3  4  1  0  0  0  0
  3  8  1  0  0  0  0
  4  9  1  0  0  0  0
  5 10  1  0  0  0  0
  5  4  2  0  0  0  0
  6  5  1  0  0  0  0
  7  2  1  0  0  0  0
 11 12  1  0  0  0  0
 12 13  2  0  0  0  0
 12 19  1  0  0  0  0
 13  1  1  0  0  0  0
 14 13  1  0  0  0  0
 15 14  2  0  0  0  0
 16 15  1  0  0  0  0
 16 11  2  0  0  0  0
 17 21  1  0  0  0  0
 17 15  1  0  0  0  0
 18 11  1  0  0  0  0
 20 17  1  0  0  0  0
 22  6  1  0  0  0  0
 23 22  1  0  0  0  0
 23 24  1  0  0  0  0
 25 23  2  0  0  0  0
 26 25  1  0  0  0  0
 27 28  2  0  0  0  0
 27 25  1  0  0  0  0
 28 29  1  0  0  0  0
 29 22  2  0  0  0  0
M  END
>  <minimizedAffinity>
-5.23614454

$$$$

 OpenBabel03252505353D

 29 31  0  0  0  0  0  0  0  0999 V2000
   37.2560   26.6120   40.9110 C   0  0  0  0  0  0  0  0  0  0  0  0
   37.1870   25.8650   42.0750 C   0  0  0  0  0  0  0  0  0  0  0  0
   36.8940   24.4970   42.0570 C   0  0  0  0  0  0  0  0  0  0  0  0
   36.6630   23.8550   40.8550 C   0  0  0  0  0  0  0  0  0  0  0  0
   36.7350   24.6160   39.7040 C   0  0  0  0  0  0  0  0  0  0  0  0
   37.0230   25.9550   39.7350 C   0  0  0  0  0  0  0  0  0  0  0  0
   37.3560   26.3040   43.0490 H   0  0  0  0  0  0  0  0  0  0  0  0
   36.8420   23.9180   42.9810 H   0  0  0  0  0  0  0  0  0  0  0  0
   36.4310   22.8010   40.7670 H   0  0  0  0  0  0  0  0  0  0  0  0
   36.5570   24.1240   38.7670 H   0  0  0  0  0  0  0  0  0  0  0  0
   39.0590   29.9010   41.1250 C   0  0  0  0  0  0  0  0  0  0  0  0
   38.8690   28.5130   41.0160 C   0  0  0  0  0  0  0  0  0  0  0  0
   37.5620   28.0060   41.0140 C   0  0  0  0  0  0  0  0  0  0  0  0
   36.5210   28.8790   41.1190 N   0  0  0  0  0  0  0  0  0  0  0  0
   36.7540   30.2180   41.2230 C   0  0  0  0  0  0  0  0  0  0  0  0
   38.0100   30.7250   41.2260 N   0  0  0  0  0  0  0  0  0  0  0  0
   35.6670   31.1210   41.3370 N   0  0  0  0  0  0  0  0  0  0  0  0
   40.0930   30.1970   41.1180 H   0  0  0  0  0  0  0  0  0  0  0  0
   39.6780   27.7970   40.9310 H   0  0  0  0  0  0  0  0  0  0  0  0
   35.7740   32.0830   40.9740 H   0  0  0  0  0  0  0  0  0  0  0  0
   34.7620   30.8240   41.7850 H   0  0  0  0  0  0  0  0  0  0  0  0
   37.0780   26.6640   38.4630 C   0  0  0  0  0  0  0  0  0  0  0  0
   36.1340   27.4180   37.7970 C   0  0  0  0  0  0  0  0  0  0  0  0
   35.2050   27.4580   38.3570 H   0  0  0  0  0  0  0  0  0  0  0  0
   36.4300   27.9960   36.5990 C   0  0  0  0  0  0  0  0  0  0  0  0
   35.6260   28.5650   36.1570 H   0  0  0  0  0  0  0  0  0  0  0  0
   37.6680   27.8400   36.0290 C   0  0  0  0  0  3  0  0  0  0  0  0
   38.6040   27.0930   36.6890 C   0  0  0  0  0  3  0  0  0  0  0  0
   38.3060   26.5160   37.8880 N   0  0  0  0  0  0  0  0  0  0  0  0
  1 13  1  0  0  0  0
  1  2  1  0  0  0  0
  2  7  1  0  0  0  0
  3  2  2  0  0  0  0
  3  8  1  0  0  0  0
  4  3  1  0  0  0  0
  5  6  1  0  0  0  0
  5  4  2  0  0  0  0
  6  1  2  0  0  0  0
  9  4  1  0  0  0  0
 10  5  1  0  0  0  0
 11 16  1  0  0  0  0
 12 11  2  0  0  0  0
 13 12  1  0  0  0  0
 13 14  2  0  0  0  0
 14 15  1  0  0  0  0
 15 16  2  0  0  0  0
 15 17  1  0  0  0  0
 17 21  1  0  0  0  0
 18 11  1  0  0  0  0
 19 12  1  0  0  0  0
 20 17  1  0  0  0  0
 22  6  1  0  0  0  0
 23 24  1  0  0  0  0
 23 22  2  0  0  0  0
 25 23  1  0  0  0  0
 26 25  1  0  0  0  0
 27 25  2  0  0  0  0
 27 28  1  0  0  0  0
 28 29  2  0  0  0  0
 29 22  1  0  0  0  0
M  END
>  <minimizedAffinity>
-5.15362835

$$$$
