
 OpenBabel03252508383D

 40 43  0  0  0  0  0  0  0  0999 V2000
   45.2430   33.9650   40.7200 C   0  0  0  0  0  0  0  0  0  0  0  0
   44.1870   33.6570   39.9150 C   0  0  0  0  0  0  0  0  0  0  0  0
   44.4600   33.1700   38.6670 C   0  0  0  0  0  0  0  0  0  0  0  0
   45.7300   32.9800   38.1930 C   0  0  0  0  0  0  0  0  0  0  0  0
   46.7810   33.2990   39.0270 C   0  0  0  0  0  0  0  0  0  0  0  0
   46.5560   33.7890   40.2850 C   0  0  0  0  0  0  0  0  0  0  0  0
   43.6180   32.9260   38.0280 H   0  0  0  0  0  0  0  0  0  0  0  0
   45.8540   32.5860   37.1840 H   0  0  0  0  0  0  0  0  0  0  0  0
   47.7890   33.1430   38.6390 H   0  0  0  0  0  0  0  0  0  0  0  0
   40.9930   35.3350   41.0440 C   0  0  0  0  0  0  0  0  0  0  0  0
   42.2830   35.1630   40.5110 C   0  0  0  0  0  0  0  0  0  0  0  0
   42.8600   33.8750   40.4560 C   0  0  0  0  0  0  0  0  0  0  0  0
   42.0860   32.8700   40.9450 N   0  0  0  0  0  0  0  0  0  0  0  0
   40.8610   33.0600   41.4470 C   0  0  0  0  0  0  0  0  0  0  0  0
   40.3220   34.2850   41.4940 N   0  0  0  0  0  0  0  0  0  0  0  0
   40.4680   36.6460   41.0720 N   0  0  0  0  0  0  0  0  0  0  0  0
   42.8510   36.0160   40.1340 H   0  0  0  0  0  0  0  0  0  0  0  0
   40.3160   32.1920   41.8160 H   0  0  0  0  0  0  0  0  0  0  0  0
   39.8120   36.8380   41.8660 H   0  0  0  0  0  0  0  0  0  0  0  0
   40.6730   37.4110   40.3930 H   0  0  0  0  0  0  0  0  0  0  0  0
   47.7210   34.0980   41.0940 C   0  0  0  0  0  0  0  0  0  0  0  0
   48.1910   35.3940   40.9900 C   0  0  0  0  0  0  0  0  0  0  0  0
   49.3010   35.8620   41.6950 C   0  0  0  0  0  0  0  0  0  0  0  0
   49.9550   34.9950   42.5280 C   0  0  0  0  0  0  0  0  0  0  0  0
   49.5050   33.6930   42.6490 C   0  0  0  0  0  0  0  0  0  0  0  0
   48.3980   33.2510   41.9380 C   0  0  0  0  0  0  0  0  0  0  0  0
   47.7210   36.1260   40.3500 H   0  0  0  0  0  0  0  0  0  0  0  0
   49.6380   36.8980   41.5820 H   0  0  0  0  0  0  0  0  0  0  0  0
   50.8220   35.2900   43.1050 H   0  0  0  0  0  0  0  0  0  0  0  0
   49.9450   32.9330   43.2760 H   0  0  0  0  0  0  0  0  0  0  0  0
   47.8680   31.8790   42.0220 C   0  0  0  0  0  0  0  0  0  0  0  0
   46.9200   31.5540   42.9960 C   0  0  0  0  0  0  0  0  0  0  0  0
   46.5770   32.3070   43.6890 H   0  0  0  0  0  0  0  0  0  0  0  0
   46.4120   30.2700   43.0900 C   0  0  0  0  0  0  0  0  0  0  0  0
   45.6820   30.0090   43.8380 H   0  0  0  0  0  0  0  0  0  0  0  0
   46.8570   29.2910   42.1940 C   0  0  0  0  0  3  0  0  0  0  0  0
   47.7920   29.6710   41.2550 C   0  0  0  0  0  3  0  0  0  0  0  0
   48.2880   30.9360   41.1680 N   0  0  0  0  0  0  0  0  0  0  0  0
   44.8820   34.9100   43.1310 N   0  0  0  0  0  0  0  0  0  0  0  0
   45.0370   34.4820   42.0460 C   0  0  0  0  0  0  0  0  0  0  0  0
  1 40  1  0  0  0  0
  2 12  1  0  0  0  0
  2  1  2  0  0  0  0
  3  2  1  0  0  0  0
  4  3  2  0  0  0  0
  4  5  1  0  0  0  0
  5  6  2  0  0  0  0
  6  1  1  0  0  0  0
  6 21  1  0  0  0  0
  7  3  1  0  0  0  0
  8  4  1  0  0  0  0
  9  5  1  0  0  0  0
 10 16  1  0  0  0  0
 10 15  1  0  0  0  0
 11 10  2  0  0  0  0
 12 11  1  0  0  0  0
 12 13  2  0  0  0  0
 13 14  1  0  0  0  0
 14 15  2  0  0  0  0
 14 18  1  0  0  0  0
 16 19  1  0  0  0  0
 17 11  1  0  0  0  0
 20 16  1  0  0  0  0
 21 26  1  0  0  0  0
 22 21  2  0  0  0  0
 22 23  1  0  0  0  0
 23 24  2  0  0  0  0
 24 25  1  0  0  0  0
 24 29  1  0  0  0  0
 25 30  1  0  0  0  0
 26 31  1  0  0  0  0
 26 25  2  0  0  0  0
 27 22  1  0  0  0  0
 28 23  1  0  0  0  0
 31 32  1  0  0  0  0
 32 34  2  0  0  0  0
 32 33  1  0  0  0  0
 34 35  1  0  0  0  0
 36 34  1  0  0  0  0
 37 36  2  0  0  0  0
 38 37  1  0  0  0  0
 38 31  2  0  0  0  0
 40 39  3  0  0  0  0
M  END
>  <minimizedAffinity>
-5.93372488

>  <minimizedRMSD>
0.66047281

$$$$
