
 OpenBabel03252505593D

 35 37  0  0  0  0  0  0  0  0999 V2000
   36.2290   29.3690   39.3010 C   0  0  0  0  0  0  0  0  0  0  0  0
   37.1700   30.3810   39.1450 C   0  0  0  0  0  0  0  0  0  0  0  0
   37.9310   30.7080   40.2680 C   0  0  0  0  0  0  0  0  0  0  0  0
   37.7300   30.0490   41.4220 N   0  0  0  0  0  0  0  0  0  0  0  0
   36.8040   29.0750   41.5200 C   0  0  0  0  0  0  0  0  0  0  0  0
   36.0630   28.7390   40.4720 N   0  0  0  0  0  0  0  0  0  0  0  0
   35.6120   29.0750   38.4600 H   0  0  0  0  0  0  0  0  0  0  0  0
   38.9510   31.7450   40.2300 C   0  0  0  0  0  0  0  0  0  0  0  0
   38.4300   32.9870   40.6190 C   0  0  0  0  0  0  0  0  0  0  0  0
   37.3850   33.1680   40.9110 H   0  0  0  0  0  0  0  0  0  0  0  0
   39.1760   34.1470   40.6850 C   0  0  0  0  0  0  0  0  0  0  0  0
   38.7930   35.1010   40.9800 H   0  0  0  0  0  0  0  0  0  0  0  0
   40.5140   34.1120   40.3530 C   0  0  0  0  0  3  0  0  0  0  0  0
   41.0010   32.8630   39.9700 C   0  0  0  0  0  3  0  0  0  0  0  0
   40.2430   31.7580   39.9200 N   0  0  0  0  0  0  0  0  0  0  0  0
   37.3190   31.0610   37.8290 C   0  0  0  0  0  0  0  0  0  0  0  0
   36.4120   30.3960   37.0110 F   0  0  0  0  0  0  0  0  0  0  0  0
   38.6010   30.7850   37.3770 F   0  0  0  0  0  0  0  0  0  0  0  0
   37.0350   32.3720   37.9460 F   0  0  0  0  0  0  0  0  0  0  0  0
   36.5770   28.3830   42.6960 O   0  0  0  0  0  0  0  0  0  0  0  0
   37.5980   28.2280   43.6600 C   0  0  0  0  0  0  0  0  0  0  0  0
   37.1210   28.1730   44.6600 H   0  0  0  0  0  0  0  0  0  0  0  0
   38.2480   29.1230   43.5670 H   0  0  0  0  0  0  0  0  0  0  0  0
   38.3560   27.0230   43.3160 C   0  0  0  0  0  0  0  0  0  0  0  0
   39.6450   26.6440   43.6790 C   0  0  0  0  0  0  0  0  0  0  0  0
   40.1160   25.4520   43.2110 C   0  0  0  0  0  0  0  0  0  0  0  0
   39.3860   24.6600   42.4350 N   0  0  0  0  0  0  0  0  0  0  0  0
   38.1470   25.0320   42.0900 C   0  0  0  0  0  0  0  0  0  0  0  0
   37.6210   26.2100   42.5240 N   0  0  0  0  0  0  0  0  0  0  0  0
   40.1260   27.3810   44.3140 H   0  0  0  0  0  0  0  0  0  0  0  0
   41.1360   25.2110   43.5330 H   0  0  0  0  0  0  0  0  0  0  0  0
   37.4150   24.0800   41.2200 C   0  0  0  0  0  0  0  0  0  0  0  0
   37.9200   22.8120   41.3280 F   0  0  0  0  0  0  0  0  0  0  0  0
   37.5100   24.4920   39.8740 F   0  0  0  0  0  0  0  0  0  0  0  0
   36.0730   24.0240   41.5240 F   0  0  0  0  0  0  0  0  0  0  0  0
  1  6  1  0  0  0  0
  2  1  2  0  0  0  0
  2  3  1  0  0  0  0
  3  4  2  0  0  0  0
  4  5  1  0  0  0  0
  5 20  1  0  0  0  0
  6  5  2  0  0  0  0
  7  1  1  0  0  0  0
  8  3  1  0  0  0  0
  8  9  1  0  0  0  0
  9 11  2  0  0  0  0
  9 10  1  0  0  0  0
 11 12  1  0  0  0  0
 13 11  1  0  0  0  0
 14 13  2  0  0  0  0
 15 14  1  0  0  0  0
 15  8  2  0  0  0  0
 16 19  1  0  0  0  0
 16  2  1  0  0  0  0
 17 16  1  0  0  0  0
 18 16  1  0  0  0  0
 20 21  1  0  0  0  0
 21 22  1  0  0  0  0
 23 21  1  0  0  0  0
 24 21  1  0  0  0  0
 24 25  1  0  0  0  0
 25 30  1  0  0  0  0
 26 31  1  0  0  0  0
 26 25  2  0  0  0  0
 27 26  1  0  0  0  0
 28 27  2  0  0  0  0
 28 29  1  0  0  0  0
 29 24  2  0  0  0  0
 32 33  1  0  0  0  0
 32 35  1  0  0  0  0
 32 28  1  0  0  0  0
 34 32  1  0  0  0  0
M  END
>  <minimizedAffinity>
-6.07731056

$$$$

 OpenBabel03252505593D

 35 37  0  0  0  0  0  0  0  0999 V2000
   36.5910   31.4530   40.6520 C   0  0  0  0  0  0  0  0  0  0  0  0
   37.8950   31.8960   40.4560 C   0  0  0  0  0  0  0  0  0  0  0  0
   38.9110   31.1190   41.0140 C   0  0  0  0  0  0  0  0  0  0  0  0
   38.5970   30.0050   41.6960 N   0  0  0  0  0  0  0  0  0  0  0  0
   37.3170   29.6200   41.8570 C   0  0  0  0  0  0  0  0  0  0  0  0
   36.3260   30.3350   41.3400 N   0  0  0  0  0  0  0  0  0  0  0  0
   35.7640   32.0200   40.2390 H   0  0  0  0  0  0  0  0  0  0  0  0
   40.3150   31.4750   40.8740 C   0  0  0  0  0  0  0  0  0  0  0  0
   40.9570   30.6560   39.9350 C   0  0  0  0  0  0  0  0  0  0  0  0
   40.4740   29.8420   39.3750 H   0  0  0  0  0  0  0  0  0  0  0  0
   42.2900   30.7750   39.5950 C   0  0  0  0  0  0  0  0  0  0  0  0
   42.7940   30.1590   38.8810 H   0  0  0  0  0  0  0  0  0  0  0  0
   43.0600   31.7470   40.1990 C   0  0  0  0  0  3  0  0  0  0  0  0
   42.3910   32.5440   41.1280 C   0  0  0  0  0  3  0  0  0  0  0  0
   41.0940   32.3970   41.4300 N   0  0  0  0  0  0  0  0  0  0  0  0
   38.1470   33.1480   39.6900 C   0  0  0  0  0  0  0  0  0  0  0  0
   36.9030   33.4640   39.1560 F   0  0  0  0  0  0  0  0  0  0  0  0
   39.0010   32.8170   38.6490 F   0  0  0  0  0  0  0  0  0  0  0  0
   38.6100   34.1120   40.5110 F   0  0  0  0  0  0  0  0  0  0  0  0
   36.9660   28.4790   42.5550 O   0  0  0  0  0  0  0  0  0  0  0  0
   37.7140   28.0510   43.6750 C   0  0  0  0  0  0  0  0  0  0  0  0
   37.0170   27.9270   44.5280 H   0  0  0  0  0  0  0  0  0  0  0  0
   38.4600   28.8490   43.8710 H   0  0  0  0  0  0  0  0  0  0  0  0
   38.3980   26.8100   43.3050 C   0  0  0  0  0  0  0  0  0  0  0  0
   39.6520   26.3340   43.6790 C   0  0  0  0  0  0  0  0  0  0  0  0
   40.0530   25.1290   43.1800 C   0  0  0  0  0  0  0  0  0  0  0  0
   39.2880   24.4130   42.3650 N   0  0  0  0  0  0  0  0  0  0  0  0
   38.0830   24.8770   42.0100 C   0  0  0  0  0  0  0  0  0  0  0  0
   37.6270   26.0730   42.4730 N   0  0  0  0  0  0  0  0  0  0  0  0
   40.1670   27.0170   44.3460 H   0  0  0  0  0  0  0  0  0  0  0  0
   41.0470   24.8110   43.5120 H   0  0  0  0  0  0  0  0  0  0  0  0
   37.3080   24.0040   41.0960 C   0  0  0  0  0  0  0  0  0  0  0  0
   37.3740   24.4480   39.8020 F   0  0  0  0  0  0  0  0  0  0  0  0
   35.9560   23.9750   41.4960 F   0  0  0  0  0  0  0  0  0  0  0  0
   37.7550   22.7020   41.1160 F   0  0  0  0  0  0  0  0  0  0  0  0
  1  6  1  0  0  0  0
  2  1  2  0  0  0  0
  2  3  1  0  0  0  0
  3  4  2  0  0  0  0
  4  5  1  0  0  0  0
  5 20  1  0  0  0  0
  6  5  2  0  0  0  0
  7  1  1  0  0  0  0
  8  3  1  0  0  0  0
  8 15  1  0  0  0  0
  9  8  2  0  0  0  0
 10  9  1  0  0  0  0
 11  9  1  0  0  0  0
 11 13  2  0  0  0  0
 12 11  1  0  0  0  0
 13 14  1  0  0  0  0
 14 15  2  0  0  0  0
 16  2  1  0  0  0  0
 16 19  1  0  0  0  0
 17 16  1  0  0  0  0
 18 16  1  0  0  0  0
 20 21  1  0  0  0  0
 21 23  1  0  0  0  0
 21 22  1  0  0  0  0
 24 21  1  0  0  0  0
 24 25  1  0  0  0  0
 25 30  1  0  0  0  0
 26 31  1  0  0  0  0
 26 25  2  0  0  0  0
 27 26  1  0  0  0  0
 28 27  2  0  0  0  0
 28 29  1  0  0  0  0
 29 24  2  0  0  0  0
 32 35  1  0  0  0  0
 32 34  1  0  0  0  0
 32 28  1  0  0  0  0
 33 32  1  0  0  0  0
M  END
>  <minimizedAffinity>
-5.96696377

$$$$

 OpenBabel03252505593D

 35 37  0  0  0  0  0  0  0  0999 V2000
   36.4560   31.4120   40.5970 C   0  0  0  0  0  0  0  0  0  0  0  0
   37.8060   31.7380   40.6710 C   0  0  0  0  0  0  0  0  0  0  0  0
   38.6600   30.7580   41.1790 C   0  0  0  0  0  0  0  0  0  0  0  0
   38.1580   29.5730   41.5640 N   0  0  0  0  0  0  0  0  0  0  0  0
   36.8400   29.3070   41.4710 C   0  0  0  0  0  0  0  0  0  0  0  0
   36.0000   30.2160   40.9920 N   0  0  0  0  0  0  0  0  0  0  0  0
   35.7480   32.1370   40.2090 H   0  0  0  0  0  0  0  0  0  0  0  0
   40.0930   30.9770   41.3010 C   0  0  0  0  0  0  0  0  0  0  0  0
   40.4890   31.0290   42.6440 C   0  0  0  0  0  0  0  0  0  0  0  0
   39.8110   30.9270   43.5050 H   0  0  0  0  0  0  0  0  0  0  0  0
   41.7930   31.2180   43.0560 C   0  0  0  0  0  0  0  0  0  0  0  0
   42.1100   31.2600   44.0760 H   0  0  0  0  0  0  0  0  0  0  0  0
   42.7870   31.3660   42.1110 C   0  0  0  0  0  3  0  0  0  0  0  0
   42.3610   31.3100   40.7850 C   0  0  0  0  0  3  0  0  0  0  0  0
   41.0820   31.1250   40.4260 N   0  0  0  0  0  0  0  0  0  0  0  0
   38.2710   33.0810   40.2270 C   0  0  0  0  0  0  0  0  0  0  0  0
   37.0980   33.7340   39.8670 F   0  0  0  0  0  0  0  0  0  0  0  0
   39.0320   32.8850   39.0840 F   0  0  0  0  0  0  0  0  0  0  0  0
   38.9170   33.7060   41.2310 F   0  0  0  0  0  0  0  0  0  0  0  0
   36.2970   28.0960   41.8600 O   0  0  0  0  0  0  0  0  0  0  0  0
   36.7900   27.4070   42.9910 C   0  0  0  0  0  0  0  0  0  0  0  0
   35.9360   27.1970   43.6660 H   0  0  0  0  0  0  0  0  0  0  0  0
   37.5300   28.0840   43.4670 H   0  0  0  0  0  0  0  0  0  0  0  0
   37.4590   26.1930   42.5150 C   0  0  0  0  0  0  0  0  0  0  0  0
   36.9190   24.9810   42.0950 C   0  0  0  0  0  0  0  0  0  0  0  0
   37.7820   24.0010   41.6970 C   0  0  0  0  0  0  0  0  0  0  0  0
   39.0970   24.1750   41.7000 N   0  0  0  0  0  0  0  0  0  0  0  0
   39.6090   25.3440   42.1050 C   0  0  0  0  0  0  0  0  0  0  0  0
   38.8010   26.3610   42.5140 N   0  0  0  0  0  0  0  0  0  0  0  0
   35.8350   24.9770   42.1430 H   0  0  0  0  0  0  0  0  0  0  0  0
   37.2940   23.0730   41.3780 H   0  0  0  0  0  0  0  0  0  0  0  0
   41.0890   25.4380   42.0710 C   0  0  0  0  0  0  0  0  0  0  0  0
   41.6570   24.7860   43.1330 F   0  0  0  0  0  0  0  0  0  0  0  0
   41.4830   26.7920   42.1080 F   0  0  0  0  0  0  0  0  0  0  0  0
   41.6180   24.9030   40.9180 F   0  0  0  0  0  0  0  0  0  0  0  0
  1  2  2  0  0  0  0
  1  6  1  0  0  0  0
  2  3  1  0  0  0  0
  3  8  1  0  0  0  0
  3  4  2  0  0  0  0
  5  4  1  0  0  0  0
  5 20  1  0  0  0  0
  6  5  2  0  0  0  0
  7  1  1  0  0  0  0
  8  9  1  0  0  0  0
  9 11  2  0  0  0  0
  9 10  1  0  0  0  0
 11 12  1  0  0  0  0
 13 11  1  0  0  0  0
 14 13  2  0  0  0  0
 15 14  1  0  0  0  0
 15  8  2  0  0  0  0
 16  2  1  0  0  0  0
 16 19  1  0  0  0  0
 17 16  1  0  0  0  0
 18 16  1  0  0  0  0
 20 21  1  0  0  0  0
 21 23  1  0  0  0  0
 21 22  1  0  0  0  0
 24 21  1  0  0  0  0
 25 30  1  0  0  0  0
 25 24  2  0  0  0  0
 26 27  2  0  0  0  0
 26 25  1  0  0  0  0
 27 28  1  0  0  0  0
 28 29  2  0  0  0  0
 29 24  1  0  0  0  0
 31 26  1  0  0  0  0
 32 28  1  0  0  0  0
 32 34  1  0  0  0  0
 32 33  1  0  0  0  0
 35 32  1  0  0  0  0
M  END
>  <minimizedAffinity>
-5.87641239

$$$$

 OpenBabel03252505593D

 35 37  0  0  0  0  0  0  0  0999 V2000
   38.8100   31.7340   38.2660 C   0  0  0  0  0  0  0  0  0  0  0  0
   40.0020   32.1960   38.8130 C   0  0  0  0  0  0  0  0  0  0  0  0
   40.0420   32.3350   40.2010 C   0  0  0  0  0  0  0  0  0  0  0  0
   38.9580   32.0240   40.9310 N   0  0  0  0  0  0  0  0  0  0  0  0
   37.8270   31.5790   40.3520 C   0  0  0  0  0  0  0  0  0  0  0  0
   37.7540   31.4350   39.0340 N   0  0  0  0  0  0  0  0  0  0  0  0
   38.7250   31.6070   37.1920 H   0  0  0  0  0  0  0  0  0  0  0  0
   41.2330   32.8050   40.8920 C   0  0  0  0  0  0  0  0  0  0  0  0
   41.7990   31.7930   41.6790 C   0  0  0  0  0  0  0  0  0  0  0  0
   41.3980   30.7740   41.7760 H   0  0  0  0  0  0  0  0  0  0  0  0
   42.9410   31.9560   42.4380 C   0  0  0  0  0  0  0  0  0  0  0  0
   43.3840   31.1940   43.0430 H   0  0  0  0  0  0  0  0  0  0  0  0
   43.5850   33.1760   42.4400 C   0  0  0  0  0  3  0  0  0  0  0  0
   42.9970   34.1610   41.6470 C   0  0  0  0  0  3  0  0  0  0  0  0
   41.8860   33.9630   40.9240 N   0  0  0  0  0  0  0  0  0  0  0  0
   41.1500   32.5230   37.9230 C   0  0  0  0  0  0  0  0  0  0  0  0
   42.2280   31.8860   38.5290 F   0  0  0  0  0  0  0  0  0  0  0  0
   41.3470   33.8930   38.0070 F   0  0  0  0  0  0  0  0  0  0  0  0
   40.9210   32.0640   36.6770 F   0  0  0  0  0  0  0  0  0  0  0  0
   36.6970   31.2530   41.0800 O   0  0  0  0  0  0  0  0  0  0  0  0
   36.0700   29.9950   40.9280 C   0  0  0  0  0  0  0  0  0  0  0  0
   36.0790   29.7350   39.8500 H   0  0  0  0  0  0  0  0  0  0  0  0
   35.0350   30.1180   41.3090 H   0  0  0  0  0  0  0  0  0  0  0  0
   36.7980   29.0330   41.7580 C   0  0  0  0  0  0  0  0  0  0  0  0
   37.5760   29.2400   42.8940 C   0  0  0  0  0  0  0  0  0  0  0  0
   38.1500   28.1510   43.4820 C   0  0  0  0  0  0  0  0  0  0  0  0
   37.9860   26.9230   43.0060 N   0  0  0  0  0  0  0  0  0  0  0  0
   37.2360   26.7320   41.9130 C   0  0  0  0  0  0  0  0  0  0  0  0
   36.6370   27.7770   41.2810 N   0  0  0  0  0  0  0  0  0  0  0  0
   37.6240   30.2870   43.1720 H   0  0  0  0  0  0  0  0  0  0  0  0
   38.7480   28.3810   44.3710 H   0  0  0  0  0  0  0  0  0  0  0  0
   37.1160   25.3240   41.4610 C   0  0  0  0  0  0  0  0  0  0  0  0
   36.4040   25.2310   40.2950 F   0  0  0  0  0  0  0  0  0  0  0  0
   36.4650   24.5590   42.4510 F   0  0  0  0  0  0  0  0  0  0  0  0
   38.3430   24.7390   41.2510 F   0  0  0  0  0  0  0  0  0  0  0  0
  1  2  2  0  0  0  0
  1  6  1  0  0  0  0
  2  3  1  0  0  0  0
  3  8  1  0  0  0  0
  3  4  2  0  0  0  0
  5  4  1  0  0  0  0
  5 20  1  0  0  0  0
  6  5  2  0  0  0  0
  7  1  1  0  0  0  0
  8 15  2  0  0  0  0
  8  9  1  0  0  0  0
  9 10  1  0  0  0  0
  9 11  2  0  0  0  0
 11 13  1  0  0  0  0
 11 12  1  0  0  0  0
 14 13  2  0  0  0  0
 15 14  1  0  0  0  0
 16 18  1  0  0  0  0
 16 17  1  0  0  0  0
 16  2  1  0  0  0  0
 19 16  1  0  0  0  0
 21 20  1  0  0  0  0
 21 23  1  0  0  0  0
 21 24  1  0  0  0  0
 22 21  1  0  0  0  0
 24 25  1  0  0  0  0
 25 30  1  0  0  0  0
 25 26  2  0  0  0  0
 26 31  1  0  0  0  0
 27 26  1  0  0  0  0
 28 27  2  0  0  0  0
 29 24  2  0  0  0  0
 29 28  1  0  0  0  0
 32 28  1  0  0  0  0
 32 34  1  0  0  0  0
 33 32  1  0  0  0  0
 35 32  1  0  0  0  0
M  END
>  <minimizedAffinity>
-5.80609941

$$$$

 OpenBabel03252505593D

 35 37  0  0  0  0  0  0  0  0999 V2000
   37.9620   31.0880   40.8870 C   0  0  0  0  0  0  0  0  0  0  0  0
   37.7590   30.8310   39.5360 C   0  0  0  0  0  0  0  0  0  0  0  0
   37.1320   29.6270   39.2140 C   0  0  0  0  0  0  0  0  0  0  0  0
   36.7600   28.7880   40.1950 N   0  0  0  0  0  0  0  0  0  0  0  0
   36.9800   29.0850   41.4910 C   0  0  0  0  0  0  0  0  0  0  0  0
   37.5730   30.2210   41.8330 N   0  0  0  0  0  0  0  0  0  0  0  0
   38.4440   32.0100   41.1930 H   0  0  0  0  0  0  0  0  0  0  0  0
   36.8600   29.2470   37.8360 C   0  0  0  0  0  0  0  0  0  0  0  0
   35.4860   29.2840   37.5590 C   0  0  0  0  0  0  0  0  0  0  0  0
   34.7050   29.5560   38.2840 H   0  0  0  0  0  0  0  0  0  0  0  0
   34.9410   28.9790   36.3280 C   0  0  0  0  0  0  0  0  0  0  0  0
   33.8970   29.0030   36.1010 H   0  0  0  0  0  0  0  0  0  0  0  0
   35.7730   28.6140   35.2900 C   0  0  0  0  0  3  0  0  0  0  0  0
   37.1330   28.5870   35.5980 C   0  0  0  0  0  3  0  0  0  0  0  0
   37.6230   28.8900   36.8080 N   0  0  0  0  0  0  0  0  0  0  0  0
   38.2110   31.8180   38.5160 C   0  0  0  0  0  0  0  0  0  0  0  0
   38.5200   32.9480   39.2660 F   0  0  0  0  0  0  0  0  0  0  0  0
   37.1130   32.1060   37.7200 F   0  0  0  0  0  0  0  0  0  0  0  0
   39.2790   31.3410   37.8480 F   0  0  0  0  0  0  0  0  0  0  0  0
   36.6080   28.2390   42.5200 O   0  0  0  0  0  0  0  0  0  0  0  0
   37.4840   27.9730   43.5970 C   0  0  0  0  0  0  0  0  0  0  0  0
   36.8730   27.8490   44.5140 H   0  0  0  0  0  0  0  0  0  0  0  0
   38.1580   28.8510   43.6710 H   0  0  0  0  0  0  0  0  0  0  0  0
   38.2570   26.7770   43.2550 C   0  0  0  0  0  0  0  0  0  0  0  0
   39.5240   26.3810   43.6770 C   0  0  0  0  0  0  0  0  0  0  0  0
   40.0180   25.2030   43.1960 C   0  0  0  0  0  0  0  0  0  0  0  0
   39.3310   24.4410   42.3530 N   0  0  0  0  0  0  0  0  0  0  0  0
   38.1140   24.8290   41.9520 C   0  0  0  0  0  0  0  0  0  0  0  0
   37.5660   25.9940   42.3950 N   0  0  0  0  0  0  0  0  0  0  0  0
   39.9690   27.0940   44.3620 H   0  0  0  0  0  0  0  0  0  0  0  0
   41.0170   24.9480   43.5660 H   0  0  0  0  0  0  0  0  0  0  0  0
   37.4300   23.9100   41.0100 C   0  0  0  0  0  0  0  0  0  0  0  0
   36.0780   23.8880   41.2250 F   0  0  0  0  0  0  0  0  0  0  0  0
   37.9350   22.6030   41.1670 F   0  0  0  0  0  0  0  0  0  0  0  0
   37.6400   24.2610   39.6960 F   0  0  0  0  0  0  0  0  0  0  0  0
  1  7  1  0  0  0  0
  1  6  1  0  0  0  0
  2  1  2  0  0  0  0
  3  2  1  0  0  0  0
  3  4  2  0  0  0  0
  4  5  1  0  0  0  0
  5  6  2  0  0  0  0
  5 20  1  0  0  0  0
  8  3  1  0  0  0  0
  9  8  1  0  0  0  0
  9 10  1  0  0  0  0
 11  9  2  0  0  0  0
 12 11  1  0  0  0  0
 13 14  2  0  0  0  0
 13 11  1  0  0  0  0
 14 15  1  0  0  0  0
 15  8  2  0  0  0  0
 16 17  1  0  0  0  0
 16  2  1  0  0  0  0
 18 16  1  0  0  0  0
 19 16  1  0  0  0  0
 20 21  1  0  0  0  0
 21 23  1  0  0  0  0
 21 22  1  0  0  0  0
 24 21  1  0  0  0  0
 24 25  1  0  0  0  0
 25 30  1  0  0  0  0
 26 31  1  0  0  0  0
 26 25  2  0  0  0  0
 27 26  1  0  0  0  0
 28 27  2  0  0  0  0
 28 29  1  0  0  0  0
 29 24  2  0  0  0  0
 32 34  1  0  0  0  0
 32 33  1  0  0  0  0
 32 28  1  0  0  0  0
 35 32  1  0  0  0  0
M  END
>  <minimizedAffinity>
-5.71523857

$$$$

 OpenBabel03252505593D

 35 37  0  0  0  0  0  0  0  0999 V2000
   35.7850   28.2370   39.7200 C   0  0  0  0  0  0  0  0  0  0  0  0
   36.7120   29.2120   40.0690 C   0  0  0  0  0  0  0  0  0  0  0  0
   36.9260   30.2340   39.1430 C   0  0  0  0  0  0  0  0  0  0  0  0
   36.2440   30.2350   37.9850 N   0  0  0  0  0  0  0  0  0  0  0  0
   35.3550   29.2650   37.6950 C   0  0  0  0  0  0  0  0  0  0  0  0
   35.1280   28.2780   38.5530 N   0  0  0  0  0  0  0  0  0  0  0  0
   35.5810   27.4200   40.4030 H   0  0  0  0  0  0  0  0  0  0  0  0
   37.8660   31.3150   39.3950 C   0  0  0  0  0  0  0  0  0  0  0  0
   37.2010   32.5220   39.6480 C   0  0  0  0  0  0  0  0  0  0  0  0
   36.1090   32.6510   39.6500 H   0  0  0  0  0  0  0  0  0  0  0  0
   37.8440   33.7120   39.9270 C   0  0  0  0  0  0  0  0  0  0  0  0
   37.3510   34.6400   40.1220 H   0  0  0  0  0  0  0  0  0  0  0  0
   39.2230   33.7440   39.9660 C   0  0  0  0  0  3  0  0  0  0  0  0
   39.8540   32.5270   39.7110 C   0  0  0  0  0  3  0  0  0  0  0  0
   39.1920   31.3920   39.4430 N   0  0  0  0  0  0  0  0  0  0  0  0
   37.4260   29.1260   41.3730 C   0  0  0  0  0  0  0  0  0  0  0  0
   38.7210   28.7670   41.0170 F   0  0  0  0  0  0  0  0  0  0  0  0
   36.8560   28.0740   42.0750 F   0  0  0  0  0  0  0  0  0  0  0  0
   37.3820   30.3130   42.0080 F   0  0  0  0  0  0  0  0  0  0  0  0
   34.6420   29.2420   36.5110 O   0  0  0  0  0  0  0  0  0  0  0  0
   33.4670   28.4660   36.3830 C   0  0  0  0  0  0  0  0  0  0  0  0
   33.4370   27.7460   37.2260 H   0  0  0  0  0  0  0  0  0  0  0  0
   33.5440   27.9470   35.4050 H   0  0  0  0  0  0  0  0  0  0  0  0
   32.3270   29.3860   36.3710 C   0  0  0  0  0  0  0  0  0  0  0  0
   31.9380   30.3150   35.4100 C   0  0  0  0  0  0  0  0  0  0  0  0
   30.8170   31.0550   35.6540 C   0  0  0  0  0  0  0  0  0  0  0  0
   30.1050   30.9120   36.7650 N   0  0  0  0  0  0  0  0  0  0  0  0
   30.4860   30.0160   37.6840 C   0  0  0  0  0  0  0  0  0  0  0  0
   31.5940   29.2480   37.5000 N   0  0  0  0  0  0  0  0  0  0  0  0
   32.6070   30.3270   34.5570 H   0  0  0  0  0  0  0  0  0  0  0  0
   30.5650   31.7670   34.8600 H   0  0  0  0  0  0  0  0  0  0  0  0
   29.6240   29.9330   38.8880 C   0  0  0  0  0  0  0  0  0  0  0  0
   28.7000   28.9280   38.7750 F   0  0  0  0  0  0  0  0  0  0  0  0
   28.9430   31.1540   39.0740 F   0  0  0  0  0  0  0  0  0  0  0  0
   30.3520   29.7070   40.0340 F   0  0  0  0  0  0  0  0  0  0  0  0
  1  2  1  0  0  0  0
  1  7  1  0  0  0  0
  2 16  1  0  0  0  0
  3  8  1  0  0  0  0
  3  2  2  0  0  0  0
  4  3  1  0  0  0  0
  5  4  2  0  0  0  0
  5  6  1  0  0  0  0
  6  1  2  0  0  0  0
  8 15  2  0  0  0  0
  8  9  1  0  0  0  0
  9 10  1  0  0  0  0
  9 11  2  0  0  0  0
 11 13  1  0  0  0  0
 11 12  1  0  0  0  0
 14 13  2  0  0  0  0
 15 14  1  0  0  0  0
 16 19  1  0  0  0  0
 16 18  1  0  0  0  0
 17 16  1  0  0  0  0
 20  5  1  0  0  0  0
 21 20  1  0  0  0  0
 21 22  1  0  0  0  0
 23 21  1  0  0  0  0
 24 21  1  0  0  0  0
 24 29  1  0  0  0  0
 25 26  1  0  0  0  0
 25 24  2  0  0  0  0
 26 27  2  0  0  0  0
 27 28  1  0  0  0  0
 28 32  1  0  0  0  0
 29 28  2  0  0  0  0
 30 25  1  0  0  0  0
 31 26  1  0  0  0  0
 32 34  1  0  0  0  0
 32 35  1  0  0  0  0
 33 32  1  0  0  0  0
M  END
>  <minimizedAffinity>
-5.69765377

$$$$

 OpenBabel03252505593D

 35 37  0  0  0  0  0  0  0  0999 V2000
   36.3330   29.5010   41.4370 C   0  0  0  0  0  0  0  0  0  0  0  0
   36.8210   28.2160   41.6490 C   0  0  0  0  0  0  0  0  0  0  0  0
   36.7010   27.3170   40.5880 C   0  0  0  0  0  0  0  0  0  0  0  0
   36.1360   27.7190   39.4380 N   0  0  0  0  0  0  0  0  0  0  0  0
   35.6790   28.9760   39.2830 C   0  0  0  0  0  0  0  0  0  0  0  0
   35.7770   29.8570   40.2710 N   0  0  0  0  0  0  0  0  0  0  0  0
   36.4020   30.2400   42.2280 H   0  0  0  0  0  0  0  0  0  0  0  0
   37.1780   25.9460   40.6860 C   0  0  0  0  0  0  0  0  0  0  0  0
   38.3400   25.7550   39.9270 C   0  0  0  0  0  0  0  0  0  0  0  0
   38.8340   26.5320   39.3250 H   0  0  0  0  0  0  0  0  0  0  0  0
   39.0150   24.5540   39.8420 C   0  0  0  0  0  0  0  0  0  0  0  0
   39.9030   24.3930   39.2680 H   0  0  0  0  0  0  0  0  0  0  0  0
   38.5400   23.4590   40.5340 C   0  0  0  0  0  3  0  0  0  0  0  0
   37.3820   23.6820   41.2790 C   0  0  0  0  0  3  0  0  0  0  0  0
   36.7560   24.8660   41.3350 N   0  0  0  0  0  0  0  0  0  0  0  0
   37.4260   27.8580   42.9620 C   0  0  0  0  0  0  0  0  0  0  0  0
   36.4410   27.0970   43.5820 F   0  0  0  0  0  0  0  0  0  0  0  0
   37.5780   29.0410   43.6700 F   0  0  0  0  0  0  0  0  0  0  0  0
   38.5660   27.1650   42.7760 F   0  0  0  0  0  0  0  0  0  0  0  0
   35.0930   29.4150   38.1100 O   0  0  0  0  0  0  0  0  0  0  0  0
   34.8530   28.5260   37.0380 C   0  0  0  0  0  0  0  0  0  0  0  0
   34.9300   27.4900   37.4270 H   0  0  0  0  0  0  0  0  0  0  0  0
   35.6350   28.7370   36.2800 H   0  0  0  0  0  0  0  0  0  0  0  0
   33.5300   28.8380   36.4900 C   0  0  0  0  0  0  0  0  0  0  0  0
   33.0580   28.7390   35.1840 C   0  0  0  0  0  0  0  0  0  0  0  0
   31.7650   29.1010   34.9430 C   0  0  0  0  0  0  0  0  0  0  0  0
   30.9620   29.5350   35.9080 N   0  0  0  0  0  0  0  0  0  0  0  0
   31.4240   29.6280   37.1610 C   0  0  0  0  0  0  0  0  0  0  0  0
   32.7050   29.2820   37.4650 N   0  0  0  0  0  0  0  0  0  0  0  0
   33.8160   28.3710   34.5010 H   0  0  0  0  0  0  0  0  0  0  0  0
   31.4550   29.0000   33.8970 H   0  0  0  0  0  0  0  0  0  0  0  0
   30.4500   30.1240   38.1640 C   0  0  0  0  0  0  0  0  0  0  0  0
   29.2060   29.5890   37.9620 F   0  0  0  0  0  0  0  0  0  0  0  0
   30.3570   31.5290   38.0850 F   0  0  0  0  0  0  0  0  0  0  0  0
   30.8320   29.8230   39.4520 F   0  0  0  0  0  0  0  0  0  0  0  0
  1  2  1  0  0  0  0
  1  7  1  0  0  0  0
  2 16  1  0  0  0  0
  3  8  1  0  0  0  0
  3  2  2  0  0  0  0
  4  3  1  0  0  0  0
  5  4  2  0  0  0  0
  5  6  1  0  0  0  0
  6  1  2  0  0  0  0
  8 15  1  0  0  0  0
  9  8  2  0  0  0  0
 10  9  1  0  0  0  0
 11  9  1  0  0  0  0
 11 13  2  0  0  0  0
 12 11  1  0  0  0  0
 13 14  1  0  0  0  0
 14 15  2  0  0  0  0
 16 17  1  0  0  0  0
 16 18  1  0  0  0  0
 19 16  1  0  0  0  0
 20  5  1  0  0  0  0
 21 22  1  0  0  0  0
 21 20  1  0  0  0  0
 23 21  1  0  0  0  0
 24 21  1  0  0  0  0
 24 29  1  0  0  0  0
 25 24  2  0  0  0  0
 26 25  1  0  0  0  0
 26 27  2  0  0  0  0
 27 28  1  0  0  0  0
 28 29  2  0  0  0  0
 28 32  1  0  0  0  0
 30 25  1  0  0  0  0
 31 26  1  0  0  0  0
 32 35  1  0  0  0  0
 33 32  1  0  0  0  0
 34 32  1  0  0  0  0
M  END
>  <minimizedAffinity>
-5.68015289

$$$$

 OpenBabel03252505593D

 35 37  0  0  0  0  0  0  0  0999 V2000
   37.6610   29.7990   42.3270 C   0  0  0  0  0  0  0  0  0  0  0  0
   38.0400   30.5840   41.2440 C   0  0  0  0  0  0  0  0  0  0  0  0
   39.3800   30.5180   40.8600 C   0  0  0  0  0  0  0  0  0  0  0  0
   40.2250   29.7190   41.5330 N   0  0  0  0  0  0  0  0  0  0  0  0
   39.8070   28.9770   42.5760 C   0  0  0  0  0  0  0  0  0  0  0  0
   38.5400   29.0160   42.9680 N   0  0  0  0  0  0  0  0  0  0  0  0
   36.6310   29.8120   42.6670 H   0  0  0  0  0  0  0  0  0  0  0  0
   39.8970   31.2880   39.7390 C   0  0  0  0  0  0  0  0  0  0  0  0
   40.6420   32.3910   40.1780 C   0  0  0  0  0  0  0  0  0  0  0  0
   40.8140   32.6550   41.2320 H   0  0  0  0  0  0  0  0  0  0  0  0
   41.2570   33.2910   39.3310 C   0  0  0  0  0  0  0  0  0  0  0  0
   41.8280   34.1350   39.6500 H   0  0  0  0  0  0  0  0  0  0  0  0
   41.1490   33.1190   37.9660 C   0  0  0  0  0  3  0  0  0  0  0  0
   40.4020   32.0130   37.5620 C   0  0  0  0  0  3  0  0  0  0  0  0
   39.8190   31.1620   38.4180 N   0  0  0  0  0  0  0  0  0  0  0  0
   37.0340   31.4450   40.5630 C   0  0  0  0  0  0  0  0  0  0  0  0
   35.8830   31.2720   41.3240 F   0  0  0  0  0  0  0  0  0  0  0  0
   36.8170   30.8940   39.3090 F   0  0  0  0  0  0  0  0  0  0  0  0
   37.4500   32.7270   40.5480 F   0  0  0  0  0  0  0  0  0  0  0  0
   40.6560   28.1480   43.2860 O   0  0  0  0  0  0  0  0  0  0  0  0
   40.2490   26.8530   43.6790 C   0  0  0  0  0  0  0  0  0  0  0  0
   39.3040   26.9480   44.2510 H   0  0  0  0  0  0  0  0  0  0  0  0
   41.0690   26.4500   44.3100 H   0  0  0  0  0  0  0  0  0  0  0  0
   40.1090   26.0440   42.4660 C   0  0  0  0  0  0  0  0  0  0  0  0
   41.0420   25.7490   41.4770 C   0  0  0  0  0  0  0  0  0  0  0  0
   40.6430   24.9590   40.4370 C   0  0  0  0  0  0  0  0  0  0  0  0
   39.4100   24.4760   40.3520 N   0  0  0  0  0  0  0  0  0  0  0  0
   38.5180   24.7640   41.3080 C   0  0  0  0  0  0  0  0  0  0  0  0
   38.8550   25.5470   42.3700 N   0  0  0  0  0  0  0  0  0  0  0  0
   42.0060   26.2060   41.6720 H   0  0  0  0  0  0  0  0  0  0  0  0
   41.4230   24.7640   39.6930 H   0  0  0  0  0  0  0  0  0  0  0  0
   37.1690   24.1770   41.1200 C   0  0  0  0  0  0  0  0  0  0  0  0
   37.2400   22.8380   40.8410 F   0  0  0  0  0  0  0  0  0  0  0  0
   36.5090   24.8270   40.0570 F   0  0  0  0  0  0  0  0  0  0  0  0
   36.3750   24.3320   42.2340 F   0  0  0  0  0  0  0  0  0  0  0  0
  1  7  1  0  0  0  0
  1  6  1  0  0  0  0
  2  1  2  0  0  0  0
  3  2  1  0  0  0  0
  3  4  2  0  0  0  0
  4  5  1  0  0  0  0
  5  6  2  0  0  0  0
  5 20  1  0  0  0  0
  8  9  1  0  0  0  0
  8  3  1  0  0  0  0
  9 10  1  0  0  0  0
 11 12  1  0  0  0  0
 11  9  2  0  0  0  0
 13 11  1  0  0  0  0
 14 13  2  0  0  0  0
 14 15  1  0  0  0  0
 15  8  2  0  0  0  0
 16  2  1  0  0  0  0
 16 17  1  0  0  0  0
 18 16  1  0  0  0  0
 19 16  1  0  0  0  0
 20 21  1  0  0  0  0
 21 22  1  0  0  0  0
 21 23  1  0  0  0  0
 24 21  1  0  0  0  0
 25 30  1  0  0  0  0
 25 24  2  0  0  0  0
 26 25  1  0  0  0  0
 27 26  2  0  0  0  0
 27 28  1  0  0  0  0
 28 29  2  0  0  0  0
 29 24  1  0  0  0  0
 31 26  1  0  0  0  0
 32 28  1  0  0  0  0
 32 35  1  0  0  0  0
 33 32  1  0  0  0  0
 34 32  1  0  0  0  0
M  END
>  <minimizedAffinity>
-5.57776546

$$$$

 OpenBabel03252505593D

 35 37  0  0  0  0  0  0  0  0999 V2000
   35.7910   26.1700   38.1730 C   0  0  0  0  0  0  0  0  0  0  0  0
   36.4320   26.4560   39.3740 C   0  0  0  0  0  0  0  0  0  0  0  0
   36.2040   27.7190   39.9200 C   0  0  0  0  0  0  0  0  0  0  0  0
   35.3960   28.5830   39.2820 N   0  0  0  0  0  0  0  0  0  0  0  0
   34.7990   28.2560   38.1200 C   0  0  0  0  0  0  0  0  0  0  0  0
   34.9940   27.0630   37.5720 N   0  0  0  0  0  0  0  0  0  0  0  0
   35.9340   25.2020   37.7050 H   0  0  0  0  0  0  0  0  0  0  0  0
   36.8120   28.1350   41.1750 C   0  0  0  0  0  0  0  0  0  0  0  0
   37.8540   29.0470   40.9590 C   0  0  0  0  0  0  0  0  0  0  0  0
   38.1830   29.4050   39.9730 H   0  0  0  0  0  0  0  0  0  0  0  0
   38.6010   29.6150   41.9710 C   0  0  0  0  0  0  0  0  0  0  0  0
   39.3980   30.3110   41.8230 H   0  0  0  0  0  0  0  0  0  0  0  0
   38.3300   29.2830   43.2830 C   0  0  0  0  0  3  0  0  0  0  0  0
   37.2880   28.3730   43.4630 C   0  0  0  0  0  3  0  0  0  0  0  0
   36.5850   27.8440   42.4520 N   0  0  0  0  0  0  0  0  0  0  0  0
   37.3150   25.4370   40.0060 C   0  0  0  0  0  0  0  0  0  0  0  0
   37.3380   24.4010   39.0790 F   0  0  0  0  0  0  0  0  0  0  0  0
   36.6630   24.9920   41.1460 F   0  0  0  0  0  0  0  0  0  0  0  0
   38.5400   25.9530   40.2260 F   0  0  0  0  0  0  0  0  0  0  0  0
   33.9650   29.1270   37.4420 O   0  0  0  0  0  0  0  0  0  0  0  0
   32.8240   28.6560   36.7550 C   0  0  0  0  0  0  0  0  0  0  0  0
   32.5080   27.7030   37.2260 H   0  0  0  0  0  0  0  0  0  0  0  0
   33.1380   28.5050   35.7010 H   0  0  0  0  0  0  0  0  0  0  0  0
   31.8000   29.7010   36.8250 C   0  0  0  0  0  0  0  0  0  0  0  0
   30.9520   30.0530   37.8720 C   0  0  0  0  0  0  0  0  0  0  0  0
   30.0770   31.0800   37.6680 C   0  0  0  0  0  0  0  0  0  0  0  0
   30.0180   31.7380   36.5170 N   0  0  0  0  0  0  0  0  0  0  0  0
   30.8360   31.3930   35.5140 C   0  0  0  0  0  0  0  0  0  0  0  0
   31.7310   30.3770   35.6560 N   0  0  0  0  0  0  0  0  0  0  0  0
   31.1080   29.4350   38.7510 H   0  0  0  0  0  0  0  0  0  0  0  0
   29.4400   31.3080   38.5290 H   0  0  0  0  0  0  0  0  0  0  0  0
   30.6920   32.1880   34.2710 C   0  0  0  0  0  0  0  0  0  0  0  0
   31.7720   33.0050   34.0700 F   0  0  0  0  0  0  0  0  0  0  0  0
   29.5300   32.9850   34.3460 F   0  0  0  0  0  0  0  0  0  0  0  0
   30.5550   31.3910   33.1570 F   0  0  0  0  0  0  0  0  0  0  0  0
  1  2  1  0  0  0  0
  2  3  2  0  0  0  0
  2 16  1  0  0  0  0
  3  8  1  0  0  0  0
  4  3  1  0  0  0  0
  5  4  2  0  0  0  0
  6  5  1  0  0  0  0
  6  1  2  0  0  0  0
  7  1  1  0  0  0  0
  8 15  1  0  0  0  0
  9  8  2  0  0  0  0
  9 11  1  0  0  0  0
 10  9  1  0  0  0  0
 11 13  2  0  0  0  0
 12 11  1  0  0  0  0
 13 14  1  0  0  0  0
 15 14  2  0  0  0  0
 16 19  1  0  0  0  0
 16 18  1  0  0  0  0
 17 16  1  0  0  0  0
 20  5  1  0  0  0  0
 21 24  1  0  0  0  0
 21 22  1  0  0  0  0
 21 20  1  0  0  0  0
 23 21  1  0  0  0  0
 24 25  1  0  0  0  0
 25 30  1  0  0  0  0
 26 25  2  0  0  0  0
 26 31  1  0  0  0  0
 27 26  1  0  0  0  0
 28 29  1  0  0  0  0
 28 27  2  0  0  0  0
 29 24  2  0  0  0  0
 32 34  1  0  0  0  0
 32 28  1  0  0  0  0
 33 32  1  0  0  0  0
 35 32  1  0  0  0  0
M  END
>  <minimizedAffinity>
-5.53834867

$$$$
