
 OpenBabel03252505573D

 35 37  0  0  0  0  0  0  0  0999 V2000
   45.0280   34.9520   44.8120 C   0  0  0  0  0  0  0  0  0  0  0  0
   45.8680   34.6090   43.7580 C   0  0  0  0  0  0  0  0  0  0  0  0
   46.7800   33.5790   43.9940 C   0  0  0  0  0  0  0  0  0  0  0  0
   46.8070   32.9780   45.1950 N   0  0  0  0  0  0  0  0  0  0  0  0
   45.9700   33.3480   46.1830 C   0  0  0  0  0  0  0  0  0  0  0  0
   45.0900   34.3230   45.9930 N   0  0  0  0  0  0  0  0  0  0  0  0
   44.2990   35.7450   44.6820 H   0  0  0  0  0  0  0  0  0  0  0  0
   47.7090   33.1260   42.9700 C   0  0  0  0  0  0  0  0  0  0  0  0
   48.9550   33.7540   43.0960 C   0  0  0  0  0  0  0  0  0  0  0  0
   49.2080   34.5020   43.8620 H   0  0  0  0  0  0  0  0  0  0  0  0
   50.0290   33.5080   42.2640 C   0  0  0  0  0  0  0  0  0  0  0  0
   50.9840   33.9790   42.3480 H   0  0  0  0  0  0  0  0  0  0  0  0
   49.8960   32.5950   41.2390 C   0  0  0  0  0  0  0  0  0  0  0  0
   48.6450   31.9880   41.1400 C   0  0  0  0  0  0  0  0  0  0  0  0
   47.6260   32.2540   41.9700 N   0  0  0  0  0  0  0  0  0  0  0  0
   45.7710   35.3360   42.4620 C   0  0  0  0  0  0  0  0  0  0  0  0
   44.8190   36.3190   42.7080 F   0  0  0  0  0  0  0  0  0  0  0  0
   45.2500   34.4420   41.5380 F   0  0  0  0  0  0  0  0  0  0  0  0
   46.9680   35.8560   42.1280 F   0  0  0  0  0  0  0  0  0  0  0  0
   45.9780   32.7470   47.4290 O   0  0  0  0  0  0  0  0  0  0  0  0
   45.5050   31.4270   47.6030 C   0  0  0  0  0  0  0  0  0  0  0  0
   44.8920   31.1610   46.7180 H   0  0  0  0  0  0  0  0  0  0  0  0
   44.8980   31.4360   48.5320 H   0  0  0  0  0  0  0  0  0  0  0  0
   46.6710   30.5570   47.7780 C   0  0  0  0  0  0  0  0  0  0  0  0
   46.9000   29.2650   47.3130 C   0  0  0  0  0  0  0  0  0  0  0  0
   48.0900   28.6740   47.6270 C   0  0  0  0  0  0  0  0  0  0  0  0
   49.0150   29.2930   48.3500 N   0  0  0  0  0  0  0  0  0  0  0  0
   48.7870   30.5350   48.7930 C   0  0  0  0  0  0  0  0  0  0  0  0
   47.6200   31.1780   48.5150 N   0  0  0  0  0  0  0  0  0  0  0  0
   46.0640   28.8820   46.7370 H   0  0  0  0  0  0  0  0  0  0  0  0
   48.2080   27.6600   47.2310 H   0  0  0  0  0  0  0  0  0  0  0  0
   49.8820   31.1380   49.5920 C   0  0  0  0  0  0  0  0  0  0  0  0
   49.8700   32.5050   49.5080 F   0  0  0  0  0  0  0  0  0  0  0  0
   51.1280   30.6670   49.1270 F   0  0  0  0  0  0  0  0  0  0  0  0
   49.8020   30.7990   50.9240 F   0  0  0  0  0  0  0  0  0  0  0  0
  1  6  1  0  0  0  0
  2  3  1  0  0  0  0
  2  1  2  0  0  0  0
  3  4  2  0  0  0  0
  4  5  1  0  0  0  0
  5 20  1  0  0  0  0
  6  5  2  0  0  0  0
  7  1  1  0  0  0  0
  8  9  1  0  0  0  0
  8  3  1  0  0  0  0
  9 10  1  0  0  0  0
 11 12  1  0  0  0  0
 11  9  2  0  0  0  0
 13 11  1  0  0  0  0
 14 13  2  0  0  0  0
 14 15  1  0  0  0  0
 15  8  2  0  0  0  0
 16 17  1  0  0  0  0
 16  2  1  0  0  0  0
 18 16  1  0  0  0  0
 19 16  1  0  0  0  0
 20 21  1  0  0  0  0
 21 24  1  0  0  0  0
 21 23  1  0  0  0  0
 22 21  1  0  0  0  0
 24 29  1  0  0  0  0
 25 26  1  0  0  0  0
 25 24  2  0  0  0  0
 26 27  2  0  0  0  0
 27 28  1  0  0  0  0
 28 32  1  0  0  0  0
 29 28  2  0  0  0  0
 30 25  1  0  0  0  0
 31 26  1  0  0  0  0
 32 35  1  0  0  0  0
 33 32  1  0  0  0  0
 34 32  1  0  0  0  0
M  END
>  <minimizedAffinity>
-6.05892372

>  <minimizedRMSD>
0.320758104

$$$$
