
 OpenBabel03242510293D

 33 35  0  0  1  0  0  0  0  0999 V2000
   47.8830   32.9590   41.9290 C   0  0  1  0  0  0  0  0  0  0  0  0
   47.5940   32.2850   40.6250 C   0  0  0  0  0  0  0  0  0  0  0  0
   48.6590   32.8250   39.6580 C   0  0  0  0  0  0  0  0  0  0  0  0
   48.2970   34.2750   39.4050 C   0  0  0  0  0  0  0  0  0  0  0  0
   48.1790   35.0930   40.6450 C   0  0  0  0  0  0  0  0  0  0  0  0
   47.6650   34.4380   41.8600 C   0  0  1  0  0  0  0  0  0  0  0  0
   48.9790   32.8210   42.0980 H   0  0  0  0  0  0  0  0  0  0  0  0
   46.5930   32.4980   40.2040 H   0  0  0  0  0  0  0  0  0  0  0  0
   47.7080   31.1860   40.7350 H   0  0  0  0  0  0  0  0  0  0  0  0
   49.6540   32.7260   40.1540 H   0  0  0  0  0  0  0  0  0  0  0  0
   48.5810   32.2960   38.6970 H   0  0  0  0  0  0  0  0  0  0  0  0
   49.1110   34.6660   38.7550 H   0  0  0  0  0  0  0  0  0  0  0  0
   47.3760   34.2750   38.7870 H   0  0  0  0  0  0  0  0  0  0  0  0
   47.4820   35.9370   40.3860 H   0  0  0  0  0  0  0  0  0  0  0  0
   49.1620   35.6030   40.8050 H   0  0  0  0  0  0  0  0  0  0  0  0
   48.2560   34.8300   42.7440 H   0  0  0  0  0  0  0  0  0  0  0  0
   45.4230   30.9570   43.9850 C   0  0  0  0  0  0  0  0  0  0  0  0
   46.1120   31.5200   42.9140 C   0  0  0  0  0  0  0  0  0  0  0  0
   47.1820   32.3730   43.0780 C   0  0  0  0  0  0  0  0  0  0  0  0
   47.5430   32.6460   44.3550 N   0  0  0  0  0  0  0  0  0  0  0  0
   46.8830   32.1060   45.4060 C   0  0  0  0  0  0  0  0  0  0  0  0
   45.8470   31.2810   45.2400 N   0  0  0  0  0  0  0  0  0  0  0  0
   44.5900   30.2930   43.9260 H   0  0  0  0  0  0  0  0  0  0  0  0
   45.7120   31.1890   41.9840 H   0  0  0  0  0  0  0  0  0  0  0  0
   47.2160   32.3600   46.4000 H   0  0  0  0  0  0  0  0  0  0  0  0
   46.2520   34.7830   42.1530 C   0  0  0  0  0  0  0  0  0  0  0  0
   45.7350   35.3340   43.3310 C   0  0  0  0  0  0  0  0  0  0  0  0
   46.4740   35.4890   44.1020 H   0  0  0  0  0  0  0  0  0  0  0  0
   44.3600   35.5950   43.3230 C   0  0  0  0  0  0  0  0  0  0  0  0
   44.0110   36.0160   44.2460 H   0  0  0  0  0  0  0  0  0  0  0  0
   43.6330   35.2990   42.1910 C   0  0  0  0  0  0  0  0  0  0  0  0
   44.1610   34.7620   41.0560 C   0  0  0  0  0  0  0  0  0  0  0  0
   45.4850   34.5070   41.0520 N   0  0  0  0  0  0  0  0  0  0  0  0
  1  7  1  1  0  0  0
  1 19  1  0  0  0  0
  2  9  1  0  0  0  0
  2  1  1  0  0  0  0
  3 10  1  0  0  0  0
  3  2  1  0  0  0  0
  4  3  1  0  0  0  0
  4  5  1  0  0  0  0
  5 15  1  0  0  0  0
  5  6  1  0  0  0  0
  6  1  1  0  0  0  0
  6 26  1  0  0  0  0
  6 16  1  1  0  0  0
  8  2  1  0  0  0  0
 11  3  1  0  0  0  0
 12  4  1  0  0  0  0
 13  4  1  0  0  0  0
 14  5  1  0  0  0  0
 17 22  1  0  0  0  0
 18 19  1  0  0  0  0
 18 17  2  0  0  0  0
 19 20  2  0  0  0  0
 20 21  1  0  0  0  0
 21 25  1  0  0  0  0
 22 21  2  0  0  0  0
 23 17  1  0  0  0  0
 24 18  1  0  0  0  0
 26 27  1  0  0  0  0
 27 28  1  0  0  0  0
 29 27  2  0  0  0  0
 29 30  1  0  0  0  0
 31 29  1  0  0  0  0
 32 31  2  0  0  0  0
 33 32  1  0  0  0  0
 33 26  2  0  0  0  0
M  END
>  <minimizedAffinity>
-4.53957272

>  <minimizedRMSD>
3.19509196

$$$$
