
 OpenBabel03252502313D

 23 24  0  0  0  0  0  0  0  0999 V2000
   47.9240   34.5040   42.4010 C   0  0  0  0  0  0  0  0  0  0  0  0
   48.0270   33.4980   43.3970 C   0  0  0  0  0  0  0  0  0  0  0  0
   46.9670   33.4200   44.3160 C   0  0  0  0  0  0  0  0  0  0  0  0
   45.9280   34.2830   44.2110 N   0  0  0  0  0  0  0  0  0  0  0  0
   45.8730   35.2240   43.2470 C   0  0  0  0  0  0  0  0  0  0  0  0
   46.8690   35.3330   42.3460 N   0  0  0  0  0  0  0  0  0  0  0  0
   48.8680   32.8380   43.4390 H   0  0  0  0  0  0  0  0  0  0  0  0
   47.0150   32.4060   45.3630 C   0  0  0  0  0  0  0  0  0  0  0  0
   47.3130   31.1080   45.0000 C   0  0  0  0  0  0  0  0  0  0  0  0
   47.5100   30.8180   43.9800 H   0  0  0  0  0  0  0  0  0  0  0  0
   47.3400   30.1920   46.0540 C   0  0  0  0  0  0  0  0  0  0  0  0
   47.5710   29.1600   45.8050 H   0  0  0  0  0  0  0  0  0  0  0  0
   47.0810   30.5890   47.3690 C   0  0  0  0  0  0  0  0  0  0  0  0
   46.7880   31.9200   47.6610 C   0  0  0  0  0  0  0  0  0  0  0  0
   46.7630   32.8030   46.6230 N   0  0  0  0  0  0  0  0  0  0  0  0
   49.0510   34.5900   41.4210 C   0  0  0  0  0  0  0  0  0  0  0  0
   49.1250   33.5080   40.6070 F   0  0  0  0  0  0  0  0  0  0  0  0
   48.8970   35.7770   40.6890 F   0  0  0  0  0  0  0  0  0  0  0  0
   50.2500   34.7710   42.1320 F   0  0  0  0  0  0  0  0  0  0  0  0
   44.7270   36.1610   43.1470 C   0  0  0  0  0  0  0  0  0  0  0  0
   44.0570   36.0020   41.9560 F   0  0  0  0  0  0  0  0  0  0  0  0
   45.1440   37.4780   43.3170 F   0  0  0  0  0  0  0  0  0  0  0  0
   43.8080   35.9360   44.1680 F   0  0  0  0  0  0  0  0  0  0  0  0
  1  2  1  0  0  0  0
  2  7  1  0  0  0  0
  2  3  2  0  0  0  0
  3  8  1  0  0  0  0
  4  3  1  0  0  0  0
  5  4  2  0  0  0  0
  6  1  2  0  0  0  0
  6  5  1  0  0  0  0
  8 15  1  0  0  0  0
  9  8  2  0  0  0  0
  9 11  1  0  0  0  0
 10  9  1  0  0  0  0
 11 13  2  0  0  0  0
 12 11  1  0  0  0  0
 13 14  1  0  0  0  0
 15 14  2  0  0  0  0
 16 19  1  0  0  0  0
 16  1  1  0  0  0  0
 17 16  1  0  0  0  0
 18 16  1  0  0  0  0
 20  5  1  0  0  0  0
 20 22  1  0  0  0  0
 20 23  1  0  0  0  0
 21 20  1  0  0  0  0
M  END
>  <minimizedAffinity>
-5.87145901

>  <minimizedRMSD>
1.1464169

$$$$
