
 OpenBabel03252501563D

 20 21  0  0  0  0  0  0  0  0999 V2000
   37.2960   32.3810   40.1900 C   0  0  0  0  0  0  0  0  0  0  0  0
   37.1390   31.0630   40.6550 C   0  0  0  0  0  0  0  0  0  0  0  0
   38.1950   30.5110   41.3640 C   0  0  0  0  0  0  0  0  0  0  0  0
   39.2980   31.2590   41.5660 N   0  0  0  0  0  0  0  0  0  0  0  0
   39.4270   32.5200   41.1120 C   0  0  0  0  0  0  0  0  0  0  0  0
   38.4270   33.1090   40.4140 N   0  0  0  0  0  0  0  0  0  0  0  0
   36.5560   32.9370   39.6240 H   0  0  0  0  0  0  0  0  0  0  0  0
   40.3670   32.9940   41.3500 H   0  0  0  0  0  0  0  0  0  0  0  0
   38.0110   29.1530   41.8320 C   0  0  0  0  0  0  0  0  0  0  0  0
   37.5720   28.9380   43.1410 C   0  0  0  0  0  0  0  0  0  0  0  0
   37.3730   29.7930   43.7940 H   0  0  0  0  0  0  0  0  0  0  0  0
   37.3870   27.6460   43.6130 C   0  0  0  0  0  0  0  0  0  0  0  0
   37.0420   27.5070   44.6440 H   0  0  0  0  0  0  0  0  0  0  0  0
   37.6270   26.5520   42.8180 C   0  0  0  0  0  3  0  0  0  0  0  0
   38.0620   26.7910   41.5250 C   0  0  0  0  0  3  0  0  0  0  0  0
   38.2260   28.0400   41.1140 N   0  0  0  0  0  0  0  0  0  0  0  0
   35.8620   30.4190   40.3300 C   0  0  0  0  0  0  0  0  0  0  0  0
   35.9930   29.3250   40.3280 H   0  0  0  0  0  0  0  0  0  0  0  0
   35.4860   30.7830   39.3520 H   0  0  0  0  0  0  0  0  0  0  0  0
   35.1310   30.7000   41.1430 H   0  0  0  0  0  0  0  0  0  0  0  0
  1  6  2  0  0  0  0
  1  2  1  0  0  0  0
  2  3  2  0  0  0  0
  3  4  1  0  0  0  0
  3  9  1  0  0  0  0
  5  8  1  0  0  0  0
  5  4  2  0  0  0  0
  6  5  1  0  0  0  0
  7  1  1  0  0  0  0
  9 10  1  0  0  0  0
 10 12  2  0  0  0  0
 10 11  1  0  0  0  0
 12 13  1  0  0  0  0
 14 12  1  0  0  0  0
 15 14  2  0  0  0  0
 16 15  1  0  0  0  0
 16  9  2  0  0  0  0
 17  2  1  0  0  0  0
 17 20  1  0  0  0  0
 18 17  1  0  0  0  0
 19 17  1  0  0  0  0
M  END
>  <minimizedAffinity>
-4.1226902

$$$$

 OpenBabel03252501563D

 20 21  0  0  0  0  0  0  0  0999 V2000
   39.5420   32.2600   41.0620 C   0  0  0  0  0  0  0  0  0  0  0  0
   39.1980   30.9940   41.5690 C   0  0  0  0  0  0  0  0  0  0  0  0
   37.9010   30.5560   41.3520 C   0  0  0  0  0  0  0  0  0  0  0  0
   37.0530   31.3550   40.6760 N   0  0  0  0  0  0  0  0  0  0  0  0
   37.4040   32.5650   40.1970 C   0  0  0  0  0  0  0  0  0  0  0  0
   38.6580   33.0430   40.3800 N   0  0  0  0  0  0  0  0  0  0  0  0
   40.5160   32.7280   41.1560 H   0  0  0  0  0  0  0  0  0  0  0  0
   36.6200   33.0910   39.6750 H   0  0  0  0  0  0  0  0  0  0  0  0
   37.5690   29.2500   41.8850 C   0  0  0  0  0  0  0  0  0  0  0  0
   37.4860   28.1610   41.0140 C   0  0  0  0  0  0  0  0  0  0  0  0
   37.6710   28.3050   39.9440 H   0  0  0  0  0  0  0  0  0  0  0  0
   37.1700   26.9000   41.4990 C   0  0  0  0  0  0  0  0  0  0  0  0
   37.1110   26.0640   40.7930 H   0  0  0  0  0  0  0  0  0  0  0  0
   36.9330   26.6860   42.8340 C   0  0  0  0  0  3  0  0  0  0  0  0
   37.0220   27.7810   43.6780 C   0  0  0  0  0  3  0  0  0  0  0  0
   37.3260   28.9680   43.1730 N   0  0  0  0  0  0  0  0  0  0  0  0
   40.2640   30.2790   42.2780 C   0  0  0  0  0  0  0  0  0  0  0  0
   39.8170   29.5620   42.9860 H   0  0  0  0  0  0  0  0  0  0  0  0
   40.9290   30.9990   42.7980 H   0  0  0  0  0  0  0  0  0  0  0  0
   40.8570   29.7100   41.5040 H   0  0  0  0  0  0  0  0  0  0  0  0
  1  7  1  0  0  0  0
  1  2  1  0  0  0  0
  2 17  1  0  0  0  0
  3  2  2  0  0  0  0
  3  9  1  0  0  0  0
  4  3  1  0  0  0  0
  5  6  1  0  0  0  0
  5  4  2  0  0  0  0
  6  1  2  0  0  0  0
  8  5  1  0  0  0  0
  9 16  1  0  0  0  0
 10 12  1  0  0  0  0
 10  9  2  0  0  0  0
 11 10  1  0  0  0  0
 12 14  2  0  0  0  0
 13 12  1  0  0  0  0
 14 15  1  0  0  0  0
 16 15  2  0  0  0  0
 17 19  1  0  0  0  0
 17 18  1  0  0  0  0
 20 17  1  0  0  0  0
M  END
>  <minimizedAffinity>
-4.03530312

$$$$

 OpenBabel03252501563D

 20 21  0  0  0  0  0  0  0  0999 V2000
   35.8820   29.5880   37.7720 C   0  0  0  0  0  0  0  0  0  0  0  0
   35.9610   29.2040   39.1230 C   0  0  0  0  0  0  0  0  0  0  0  0
   37.2110   28.8550   39.6100 C   0  0  0  0  0  0  0  0  0  0  0  0
   38.2670   28.9010   38.7740 N   0  0  0  0  0  0  0  0  0  0  0  0
   38.1690   29.2730   37.4820 C   0  0  0  0  0  0  0  0  0  0  0  0
   36.9730   29.6250   36.9540 N   0  0  0  0  0  0  0  0  0  0  0  0
   34.9740   29.8860   37.2580 H   0  0  0  0  0  0  0  0  0  0  0  0
   39.0990   29.2630   36.9360 H   0  0  0  0  0  0  0  0  0  0  0  0
   37.2680   28.4620   41.0030 C   0  0  0  0  0  0  0  0  0  0  0  0
   37.0170   27.1310   41.3450 C   0  0  0  0  0  0  0  0  0  0  0  0
   36.7810   26.4040   40.5620 H   0  0  0  0  0  0  0  0  0  0  0  0
   37.0640   26.7300   42.6730 C   0  0  0  0  0  0  0  0  0  0  0  0
   36.8630   25.6790   42.9120 H   0  0  0  0  0  0  0  0  0  0  0  0
   37.3570   27.6170   43.6790 C   0  0  0  0  0  3  0  0  0  0  0  0
   37.6020   28.9310   43.3140 C   0  0  0  0  0  3  0  0  0  0  0  0
   37.5460   29.2720   42.0350 N   0  0  0  0  0  0  0  0  0  0  0  0
   34.6970   29.2180   39.8650 C   0  0  0  0  0  0  0  0  0  0  0  0
   34.7620   28.5190   40.7140 H   0  0  0  0  0  0  0  0  0  0  0  0
   33.8530   28.9590   39.1920 H   0  0  0  0  0  0  0  0  0  0  0  0
   34.5540   30.2660   40.2620 H   0  0  0  0  0  0  0  0  0  0  0  0
  1  2  1  0  0  0  0
  2  3  2  0  0  0  0
  2 17  1  0  0  0  0
  3  9  1  0  0  0  0
  4  3  1  0  0  0  0
  5  4  2  0  0  0  0
  6  5  1  0  0  0  0
  6  1  2  0  0  0  0
  7  1  1  0  0  0  0
  8  5  1  0  0  0  0
  9 10  2  0  0  0  0
  9 16  1  0  0  0  0
 10 12  1  0  0  0  0
 11 10  1  0  0  0  0
 12 13  1  0  0  0  0
 12 14  2  0  0  0  0
 15 14  1  0  0  0  0
 16 15  2  0  0  0  0
 17 20  1  0  0  0  0
 17 18  1  0  0  0  0
 19 17  1  0  0  0  0
M  END
>  <minimizedAffinity>
-3.98313498

$$$$

 OpenBabel03252501563D

 20 21  0  0  0  0  0  0  0  0999 V2000
   39.6480   31.9060   39.8230 C   0  0  0  0  0  0  0  0  0  0  0  0
   39.2970   30.7110   40.4760 C   0  0  0  0  0  0  0  0  0  0  0  0
   37.9840   30.5840   40.9010 C   0  0  0  0  0  0  0  0  0  0  0  0
   37.1290   31.5990   40.6700 N   0  0  0  0  0  0  0  0  0  0  0  0
   37.4860   32.7350   40.0410 C   0  0  0  0  0  0  0  0  0  0  0  0
   38.7550   32.9130   39.6040 N   0  0  0  0  0  0  0  0  0  0  0  0
   40.6350   32.1410   39.4370 H   0  0  0  0  0  0  0  0  0  0  0  0
   36.6940   33.4590   39.9260 H   0  0  0  0  0  0  0  0  0  0  0  0
   37.6460   29.3450   41.5720 C   0  0  0  0  0  0  0  0  0  0  0  0
   37.7300   29.2810   42.9650 C   0  0  0  0  0  0  0  0  0  0  0  0
   38.0490   30.1620   43.5310 H   0  0  0  0  0  0  0  0  0  0  0  0
   37.4120   28.1050   43.6310 C   0  0  0  0  0  0  0  0  0  0  0  0
   37.4880   28.0840   44.7250 H   0  0  0  0  0  0  0  0  0  0  0  0
   37.0090   26.9840   42.9510 C   0  0  0  0  0  3  0  0  0  0  0  0
   36.9330   27.0720   41.5700 C   0  0  0  0  0  3  0  0  0  0  0  0
   37.2460   28.2130   40.9740 N   0  0  0  0  0  0  0  0  0  0  0  0
   40.3740   29.7280   40.6320 C   0  0  0  0  0  0  0  0  0  0  0  0
   40.1520   29.0740   41.4900 H   0  0  0  0  0  0  0  0  0  0  0  0
   41.3490   30.2430   40.7570 H   0  0  0  0  0  0  0  0  0  0  0  0
   40.3970   29.1050   39.6910 H   0  0  0  0  0  0  0  0  0  0  0  0
  1  2  1  0  0  0  0
  2 17  1  0  0  0  0
  2  3  2  0  0  0  0
  3  9  1  0  0  0  0
  4  3  1  0  0  0  0
  5  4  2  0  0  0  0
  6  1  2  0  0  0  0
  6  5  1  0  0  0  0
  7  1  1  0  0  0  0
  8  5  1  0  0  0  0
  9 10  1  0  0  0  0
 10 11  1  0  0  0  0
 10 12  2  0  0  0  0
 12 13  1  0  0  0  0
 14 12  1  0  0  0  0
 15 14  2  0  0  0  0
 16 15  1  0  0  0  0
 16  9  2  0  0  0  0
 17 19  1  0  0  0  0
 17 18  1  0  0  0  0
 20 17  1  0  0  0  0
M  END
>  <minimizedAffinity>
-3.88658643

$$$$

 OpenBabel03252501563D

 20 21  0  0  0  0  0  0  0  0999 V2000
   36.9500   25.1830   42.5550 C   0  0  0  0  0  0  0  0  0  0  0  0
   36.9430   26.5800   42.3950 C   0  0  0  0  0  0  0  0  0  0  0  0
   37.0690   27.0710   41.1050 C   0  0  0  0  0  0  0  0  0  0  0  0
   37.1910   26.1950   40.0890 N   0  0  0  0  0  0  0  0  0  0  0  0
   37.1950   24.8590   40.2640 C   0  0  0  0  0  0  0  0  0  0  0  0
   37.0740   24.3240   41.5030 N   0  0  0  0  0  0  0  0  0  0  0  0
   36.8600   24.6610   43.5020 H   0  0  0  0  0  0  0  0  0  0  0  0
   37.2990   24.2830   39.3580 H   0  0  0  0  0  0  0  0  0  0  0  0
   37.0600   28.5130   40.9660 C   0  0  0  0  0  0  0  0  0  0  0  0
   35.8600   29.1590   40.6580 C   0  0  0  0  0  0  0  0  0  0  0  0
   34.9450   28.5720   40.5250 H   0  0  0  0  0  0  0  0  0  0  0  0
   35.8250   30.5400   40.5190 C   0  0  0  0  0  0  0  0  0  0  0  0
   34.8690   31.0190   40.2760 H   0  0  0  0  0  0  0  0  0  0  0  0
   36.9530   31.3040   40.6800 C   0  0  0  0  0  3  0  0  0  0  0  0
   38.1300   30.6410   40.9850 C   0  0  0  0  0  3  0  0  0  0  0  0
   38.1210   29.3220   41.1080 N   0  0  0  0  0  0  0  0  0  0  0  0
   36.8020   27.3620   43.6280 C   0  0  0  0  0  0  0  0  0  0  0  0
   37.2350   28.3640   43.4780 H   0  0  0  0  0  0  0  0  0  0  0  0
   37.2860   26.8350   44.4750 H   0  0  0  0  0  0  0  0  0  0  0  0
   35.6960   27.4680   43.8310 H   0  0  0  0  0  0  0  0  0  0  0  0
  1  7  1  0  0  0  0
  2  1  1  0  0  0  0
  2 17  1  0  0  0  0
  3  2  2  0  0  0  0
  4  5  2  0  0  0  0
  4  3  1  0  0  0  0
  5  6  1  0  0  0  0
  6  1  2  0  0  0  0
  8  5  1  0  0  0  0
  9  3  1  0  0  0  0
  9 16  1  0  0  0  0
 10  9  2  0  0  0  0
 11 10  1  0  0  0  0
 12 10  1  0  0  0  0
 12 14  2  0  0  0  0
 13 12  1  0  0  0  0
 14 15  1  0  0  0  0
 15 16  2  0  0  0  0
 17 20  1  0  0  0  0
 17 19  1  0  0  0  0
 18 17  1  0  0  0  0
M  END
>  <minimizedAffinity>
-3.87632275

$$$$

 OpenBabel03252501563D

 20 21  0  0  0  0  0  0  0  0999 V2000
   35.8740   29.6680   37.7900 C   0  0  0  0  0  0  0  0  0  0  0  0
   35.9480   29.2280   39.1240 C   0  0  0  0  0  0  0  0  0  0  0  0
   37.2030   28.8960   39.6120 C   0  0  0  0  0  0  0  0  0  0  0  0
   38.2660   29.0110   38.7930 N   0  0  0  0  0  0  0  0  0  0  0  0
   38.1720   29.4360   37.5180 C   0  0  0  0  0  0  0  0  0  0  0  0
   36.9720   29.7740   36.9890 N   0  0  0  0  0  0  0  0  0  0  0  0
   34.9630   29.9600   37.2770 H   0  0  0  0  0  0  0  0  0  0  0  0
   39.1090   29.4770   36.9830 H   0  0  0  0  0  0  0  0  0  0  0  0
   37.2540   28.4450   40.9880 C   0  0  0  0  0  0  0  0  0  0  0  0
   37.6220   29.3490   41.9870 C   0  0  0  0  0  0  0  0  0  0  0  0
   37.8650   30.3830   41.7210 H   0  0  0  0  0  0  0  0  0  0  0  0
   37.6790   28.9420   43.3120 C   0  0  0  0  0  0  0  0  0  0  0  0
   37.9700   29.6730   44.0750 H   0  0  0  0  0  0  0  0  0  0  0  0
   37.3790   27.6530   43.6780 C   0  0  0  0  0  3  0  0  0  0  0  0
   37.0170   26.7750   42.6700 C   0  0  0  0  0  3  0  0  0  0  0  0
   36.9760   27.2050   41.4170 N   0  0  0  0  0  0  0  0  0  0  0  0
   34.6750   29.1710   39.8490 C   0  0  0  0  0  0  0  0  0  0  0  0
   34.7520   28.4380   40.6680 H   0  0  0  0  0  0  0  0  0  0  0  0
   33.8480   28.9160   39.1550 H   0  0  0  0  0  0  0  0  0  0  0  0
   34.4950   30.1950   40.2890 H   0  0  0  0  0  0  0  0  0  0  0  0
  1  2  1  0  0  0  0
  2  3  2  0  0  0  0
  2 17  1  0  0  0  0
  3  9  1  0  0  0  0
  4  3  1  0  0  0  0
  5  4  2  0  0  0  0
  6  5  1  0  0  0  0
  6  1  2  0  0  0  0
  7  1  1  0  0  0  0
  8  5  1  0  0  0  0
  9 16  2  0  0  0  0
  9 10  1  0  0  0  0
 10 12  2  0  0  0  0
 11 10  1  0  0  0  0
 12 14  1  0  0  0  0
 12 13  1  0  0  0  0
 15 14  2  0  0  0  0
 16 15  1  0  0  0  0
 17 20  1  0  0  0  0
 17 18  1  0  0  0  0
 19 17  1  0  0  0  0
M  END
>  <minimizedAffinity>
-3.86937547

$$$$

 OpenBabel03252501563D

 20 21  0  0  0  0  0  0  0  0999 V2000
   37.3370   26.8810   41.5440 C   0  0  0  0  0  0  0  0  0  0  0  0
   37.6230   28.1450   40.9970 C   0  0  0  0  0  0  0  0  0  0  0  0
   37.6380   29.2230   41.8680 C   0  0  0  0  0  0  0  0  0  0  0  0
   37.3810   29.0040   43.1720 N   0  0  0  0  0  0  0  0  0  0  0  0
   37.1100   27.7840   43.6760 C   0  0  0  0  0  0  0  0  0  0  0  0
   37.0820   26.6950   42.8710 N   0  0  0  0  0  0  0  0  0  0  0  0
   37.2910   25.9530   40.9840 H   0  0  0  0  0  0  0  0  0  0  0  0
   36.9250   27.7630   44.7390 H   0  0  0  0  0  0  0  0  0  0  0  0
   37.9340   30.5140   41.2820 C   0  0  0  0  0  0  0  0  0  0  0  0
   36.9030   31.2410   40.6810 C   0  0  0  0  0  0  0  0  0  0  0  0
   35.8890   30.8290   40.6600 H   0  0  0  0  0  0  0  0  0  0  0  0
   37.1610   32.4810   40.1120 C   0  0  0  0  0  0  0  0  0  0  0  0
   36.3330   33.0290   39.6480 H   0  0  0  0  0  0  0  0  0  0  0  0
   38.4210   33.0250   40.1230 C   0  0  0  0  0  3  0  0  0  0  0  0
   39.4260   32.2850   40.7250 C   0  0  0  0  0  3  0  0  0  0  0  0
   39.1380   31.1060   41.2550 N   0  0  0  0  0  0  0  0  0  0  0  0
   37.8740   28.1730   39.5530 C   0  0  0  0  0  0  0  0  0  0  0  0
   37.6500   29.1790   39.1610 H   0  0  0  0  0  0  0  0  0  0  0  0
   37.2680   27.3970   39.0420 H   0  0  0  0  0  0  0  0  0  0  0  0
   38.9710   27.9560   39.4000 H   0  0  0  0  0  0  0  0  0  0  0  0
  1  6  1  0  0  0  0
  2  1  2  0  0  0  0
  2  3  1  0  0  0  0
  3  4  2  0  0  0  0
  4  5  1  0  0  0  0
  5  8  1  0  0  0  0
  6  5  2  0  0  0  0
  7  1  1  0  0  0  0
  9  3  1  0  0  0  0
 10  9  2  0  0  0  0
 11 10  1  0  0  0  0
 12 14  2  0  0  0  0
 12 10  1  0  0  0  0
 13 12  1  0  0  0  0
 14 15  1  0  0  0  0
 15 16  2  0  0  0  0
 16  9  1  0  0  0  0
 17  2  1  0  0  0  0
 18 17  1  0  0  0  0
 19 17  1  0  0  0  0
 20 17  1  0  0  0  0
M  END
>  <minimizedAffinity>
-3.84385061

$$$$

 OpenBabel03252501563D

 20 21  0  0  0  0  0  0  0  0999 V2000
   36.3400   24.6120   39.0140 C   0  0  0  0  0  0  0  0  0  0  0  0
   36.6420   25.7330   39.8080 C   0  0  0  0  0  0  0  0  0  0  0  0
   37.3080   25.5030   41.0020 C   0  0  0  0  0  0  0  0  0  0  0  0
   37.6240   24.2350   41.3310 N   0  0  0  0  0  0  0  0  0  0  0  0
   37.3260   23.1750   40.5560 C   0  0  0  0  0  0  0  0  0  0  0  0
   36.6770   23.3420   39.3790 N   0  0  0  0  0  0  0  0  0  0  0  0
   35.8250   24.6410   38.0590 H   0  0  0  0  0  0  0  0  0  0  0  0
   37.6430   22.2220   40.9490 H   0  0  0  0  0  0  0  0  0  0  0  0
   37.6070   26.6730   41.8030 C   0  0  0  0  0  0  0  0  0  0  0  0
   36.7920   26.9740   42.8970 C   0  0  0  0  0  0  0  0  0  0  0  0
   35.9420   26.3280   43.1350 H   0  0  0  0  0  0  0  0  0  0  0  0
   37.0570   28.0890   43.6790 C   0  0  0  0  0  0  0  0  0  0  0  0
   36.4010   28.3020   44.5320 H   0  0  0  0  0  0  0  0  0  0  0  0
   38.1160   28.9200   43.4070 C   0  0  0  0  0  3  0  0  0  0  0  0
   38.9090   28.5990   42.3170 C   0  0  0  0  0  3  0  0  0  0  0  0
   38.6210   27.5260   41.5960 N   0  0  0  0  0  0  0  0  0  0  0  0
   36.2110   27.0280   39.2730 C   0  0  0  0  0  0  0  0  0  0  0  0
   36.0830   27.7430   40.1010 H   0  0  0  0  0  0  0  0  0  0  0  0
   35.2730   26.9110   38.6910 H   0  0  0  0  0  0  0  0  0  0  0  0
   37.0320   27.3990   38.5920 H   0  0  0  0  0  0  0  0  0  0  0  0
  1  6  2  0  0  0  0
  1  2  1  0  0  0  0
  2  3  2  0  0  0  0
  3  4  1  0  0  0  0
  3  9  1  0  0  0  0
  5  8  1  0  0  0  0
  5  4  2  0  0  0  0
  6  5  1  0  0  0  0
  7  1  1  0  0  0  0
  9 10  1  0  0  0  0
 10 11  1  0  0  0  0
 10 12  2  0  0  0  0
 12 13  1  0  0  0  0
 14 12  1  0  0  0  0
 15 14  2  0  0  0  0
 16  9  2  0  0  0  0
 16 15  1  0  0  0  0
 17  2  1  0  0  0  0
 17 18  1  0  0  0  0
 19 17  1  0  0  0  0
 20 17  1  0  0  0  0
M  END
>  <minimizedAffinity>
-3.77339077

$$$$

 OpenBabel03252501563D

 20 21  0  0  0  0  0  0  0  0999 V2000
   38.6810   24.3700   42.5270 C   0  0  0  0  0  0  0  0  0  0  0  0
   37.9000   25.2400   41.7460 C   0  0  0  0  0  0  0  0  0  0  0  0
   38.2260   26.5870   41.7810 C   0  0  0  0  0  0  0  0  0  0  0  0
   39.2590   26.9820   42.5500 N   0  0  0  0  0  0  0  0  0  0  0  0
   39.9960   26.1310   43.2900 C   0  0  0  0  0  0  0  0  0  0  0  0
   39.7210   24.8050   43.2940 N   0  0  0  0  0  0  0  0  0  0  0  0
   38.5410   23.2960   42.5970 H   0  0  0  0  0  0  0  0  0  0  0  0
   40.7910   26.5920   43.8550 H   0  0  0  0  0  0  0  0  0  0  0  0
   37.4070   27.4640   40.9700 C   0  0  0  0  0  0  0  0  0  0  0  0
   36.3540   28.1600   41.5700 C   0  0  0  0  0  0  0  0  0  0  0  0
   36.1620   28.0360   42.6400 H   0  0  0  0  0  0  0  0  0  0  0  0
   35.5550   29.0070   40.8140 C   0  0  0  0  0  0  0  0  0  0  0  0
   34.7360   29.5400   41.3120 H   0  0  0  0  0  0  0  0  0  0  0  0
   35.7710   29.1850   39.4710 C   0  0  0  0  0  3  0  0  0  0  0  0
   36.8200   28.4840   38.8990 C   0  0  0  0  0  3  0  0  0  0  0  0
   37.5590   27.6860   39.6550 N   0  0  0  0  0  0  0  0  0  0  0  0
   36.8180   24.6130   40.9800 C   0  0  0  0  0  0  0  0  0  0  0  0
   36.0320   25.3580   40.7780 H   0  0  0  0  0  0  0  0  0  0  0  0
   36.4150   23.7380   41.5290 H   0  0  0  0  0  0  0  0  0  0  0  0
   37.2600   24.2710   39.9990 H   0  0  0  0  0  0  0  0  0  0  0  0
  1  7  1  0  0  0  0
  1  6  1  0  0  0  0
  2  3  1  0  0  0  0
  2  1  2  0  0  0  0
  3  4  2  0  0  0  0
  4  5  1  0  0  0  0
  5  6  2  0  0  0  0
  5  8  1  0  0  0  0
  9 10  1  0  0  0  0
  9  3  1  0  0  0  0
 10 11  1  0  0  0  0
 12 13  1  0  0  0  0
 12 10  2  0  0  0  0
 14 12  1  0  0  0  0
 15 14  2  0  0  0  0
 15 16  1  0  0  0  0
 16  9  2  0  0  0  0
 17 19  1  0  0  0  0
 17  2  1  0  0  0  0
 18 17  1  0  0  0  0
 20 17  1  0  0  0  0
M  END
>  <minimizedAffinity>
-3.72621346

$$$$
