
 OpenBabel03252508393D

 40 43  0  0  0  0  0  0  0  0999 V2000
   45.1110   33.9630   40.7250 C   0  0  0  0  0  0  0  0  0  0  0  0
   44.0690   33.6330   39.9100 C   0  0  0  0  0  0  0  0  0  0  0  0
   44.3620   33.1130   38.6800 C   0  0  0  0  0  0  0  0  0  0  0  0
   45.6400   32.9120   38.2330 C   0  0  0  0  0  0  0  0  0  0  0  0
   46.6770   33.2550   39.0750 C   0  0  0  0  0  0  0  0  0  0  0  0
   46.4310   33.7780   40.3160 C   0  0  0  0  0  0  0  0  0  0  0  0
   43.5310   32.8510   38.0350 H   0  0  0  0  0  0  0  0  0  0  0  0
   45.7810   32.4930   37.2360 H   0  0  0  0  0  0  0  0  0  0  0  0
   47.6910   33.0900   38.7080 H   0  0  0  0  0  0  0  0  0  0  0  0
   40.7950   35.3000   40.8020 C   0  0  0  0  0  0  0  0  0  0  0  0
   42.0910   35.1140   40.2900 C   0  0  0  0  0  0  0  0  0  0  0  0
   42.7330   33.8630   40.4240 C   0  0  0  0  0  0  0  0  0  0  0  0
   42.0110   32.9050   41.0640 N   0  0  0  0  0  0  0  0  0  0  0  0
   40.7780   33.1070   41.5420 C   0  0  0  0  0  0  0  0  0  0  0  0
   40.1780   34.2970   41.4100 N   0  0  0  0  0  0  0  0  0  0  0  0
   40.2040   36.5720   40.6390 N   0  0  0  0  0  0  0  0  0  0  0  0
   42.6160   35.9280   39.7860 H   0  0  0  0  0  0  0  0  0  0  0  0
   40.2770   32.2780   42.0400 H   0  0  0  0  0  0  0  0  0  0  0  0
   39.5400   36.8480   41.4000 H   0  0  0  0  0  0  0  0  0  0  0  0
   40.3700   37.2360   39.8510 H   0  0  0  0  0  0  0  0  0  0  0  0
   47.5830   34.1090   41.1350 C   0  0  0  0  0  0  0  0  0  0  0  0
   48.1240   35.3630   40.9210 C   0  0  0  0  0  0  0  0  0  0  0  0
   49.2320   35.8450   41.6190 C   0  0  0  0  0  0  0  0  0  0  0  0
   49.8100   35.0360   42.5600 C   0  0  0  0  0  0  0  0  0  0  0  0
   49.2870   33.7780   42.7930 C   0  0  0  0  0  0  0  0  0  0  0  0
   48.1840   33.3200   42.0860 C   0  0  0  0  0  0  0  0  0  0  0  0
   47.7160   36.0490   40.1920 H   0  0  0  0  0  0  0  0  0  0  0  0
   49.6290   36.8460   41.4160 H   0  0  0  0  0  0  0  0  0  0  0  0
   50.6710   35.3450   43.1380 H   0  0  0  0  0  0  0  0  0  0  0  0
   49.6640   33.0650   43.5100 H   0  0  0  0  0  0  0  0  0  0  0  0
   47.5780   31.9920   42.2860 C   0  0  0  0  0  0  0  0  0  0  0  0
   46.6740   31.7860   43.3310 C   0  0  0  0  0  0  0  0  0  0  0  0
   46.4170   32.5990   43.9930 H   0  0  0  0  0  0  0  0  0  0  0  0
   46.0970   30.5450   43.5330 C   0  0  0  0  0  0  0  0  0  0  0  0
   45.3970   30.3750   44.3370 H   0  0  0  0  0  0  0  0  0  0  0  0
   46.4270   29.4890   42.6780 C   0  0  0  0  0  0  0  0  0  0  0  0
   47.3250   29.7510   41.6650 C   0  0  0  0  0  0  0  0  0  0  0  0
   47.8900   30.9740   41.4710 N   0  0  0  0  0  0  0  0  0  0  0  0
   44.7090   34.9700   43.1030 N   0  0  0  0  0  0  0  0  0  0  0  0
   44.8830   34.5150   42.0330 C   0  0  0  0  0  0  0  0  0  0  0  0
  1 40  1  0  0  0  0
  2 12  1  0  0  0  0
  2  1  2  0  0  0  0
  3  2  1  0  0  0  0
  4  3  2  0  0  0  0
  4  5  1  0  0  0  0
  5  6  2  0  0  0  0
  6  1  1  0  0  0  0
  6 21  1  0  0  0  0
  7  3  1  0  0  0  0
  8  4  1  0  0  0  0
  9  5  1  0  0  0  0
 10 15  1  0  0  0  0
 11 12  1  0  0  0  0
 11 10  2  0  0  0  0
 12 13  2  0  0  0  0
 13 14  1  0  0  0  0
 14 18  1  0  0  0  0
 15 14  2  0  0  0  0
 16 10  1  0  0  0  0
 16 19  1  0  0  0  0
 17 11  1  0  0  0  0
 20 16  1  0  0  0  0
 21 26  1  0  0  0  0
 22 21  2  0  0  0  0
 22 23  1  0  0  0  0
 23 24  2  0  0  0  0
 24 25  1  0  0  0  0
 24 29  1  0  0  0  0
 25 30  1  0  0  0  0
 26 31  1  0  0  0  0
 26 25  2  0  0  0  0
 27 22  1  0  0  0  0
 28 23  1  0  0  0  0
 31 32  1  0  0  0  0
 32 34  2  0  0  0  0
 32 33  1  0  0  0  0
 34 35  1  0  0  0  0
 36 34  1  0  0  0  0
 37 36  2  0  0  0  0
 38 37  1  0  0  0  0
 38 31  2  0  0  0  0
 40 39  3  0  0  0  0
M  END
>  <minimizedAffinity>
-5.97599602

>  <minimizedRMSD>
0.513140976

$$$$
