
 OpenBabel03252508393D

 40 43  0  0  0  0  0  0  0  0999 V2000
   45.1100   33.9630   40.7250 C   0  0  0  0  0  0  0  0  0  0  0  0
   44.0680   33.6330   39.9110 C   0  0  0  0  0  0  0  0  0  0  0  0
   44.3610   33.1140   38.6800 C   0  0  0  0  0  0  0  0  0  0  0  0
   45.6390   32.9130   38.2320 C   0  0  0  0  0  0  0  0  0  0  0  0
   46.6760   33.2550   39.0740 C   0  0  0  0  0  0  0  0  0  0  0  0
   46.4300   33.7780   40.3160 C   0  0  0  0  0  0  0  0  0  0  0  0
   43.5300   32.8530   38.0350 H   0  0  0  0  0  0  0  0  0  0  0  0
   45.7800   32.4940   37.2360 H   0  0  0  0  0  0  0  0  0  0  0  0
   47.6900   33.0910   38.7080 H   0  0  0  0  0  0  0  0  0  0  0  0
   40.7940   35.3000   40.8020 C   0  0  0  0  0  0  0  0  0  0  0  0
   42.0900   35.1140   40.2900 C   0  0  0  0  0  0  0  0  0  0  0  0
   42.7320   33.8630   40.4240 C   0  0  0  0  0  0  0  0  0  0  0  0
   42.0110   32.9060   41.0640 N   0  0  0  0  0  0  0  0  0  0  0  0
   40.7780   33.1070   41.5430 C   0  0  0  0  0  0  0  0  0  0  0  0
   40.1770   34.2970   41.4100 N   0  0  0  0  0  0  0  0  0  0  0  0
   40.2030   36.5710   40.6380 N   0  0  0  0  0  0  0  0  0  0  0  0
   42.6140   35.9280   39.7850 H   0  0  0  0  0  0  0  0  0  0  0  0
   40.2770   32.2780   42.0420 H   0  0  0  0  0  0  0  0  0  0  0  0
   39.5390   36.8480   41.3990 H   0  0  0  0  0  0  0  0  0  0  0  0
   40.3680   37.2350   39.8500 H   0  0  0  0  0  0  0  0  0  0  0  0
   47.5820   34.1090   41.1350 C   0  0  0  0  0  0  0  0  0  0  0  0
   48.1240   35.3630   40.9200 C   0  0  0  0  0  0  0  0  0  0  0  0
   49.2320   35.8450   41.6180 C   0  0  0  0  0  0  0  0  0  0  0  0
   49.8100   35.0350   42.5600 C   0  0  0  0  0  0  0  0  0  0  0  0
   49.2860   33.7770   42.7930 C   0  0  0  0  0  0  0  0  0  0  0  0
   48.1830   33.3200   42.0860 C   0  0  0  0  0  0  0  0  0  0  0  0
   47.7160   36.0480   40.1920 H   0  0  0  0  0  0  0  0  0  0  0  0
   49.6290   36.8460   41.4160 H   0  0  0  0  0  0  0  0  0  0  0  0
   50.6710   35.3440   43.1380 H   0  0  0  0  0  0  0  0  0  0  0  0
   49.6630   33.0640   43.5100 H   0  0  0  0  0  0  0  0  0  0  0  0
   47.5770   31.9920   42.2860 C   0  0  0  0  0  0  0  0  0  0  0  0
   46.6730   31.7860   43.3310 C   0  0  0  0  0  0  0  0  0  0  0  0
   46.4170   32.5990   43.9930 H   0  0  0  0  0  0  0  0  0  0  0  0
   46.0950   30.5450   43.5330 C   0  0  0  0  0  0  0  0  0  0  0  0
   45.3960   30.3760   44.3370 H   0  0  0  0  0  0  0  0  0  0  0  0
   46.4240   29.4890   42.6780 C   0  0  0  0  0  3  0  0  0  0  0  0
   47.3210   29.7510   41.6650 C   0  0  0  0  0  3  0  0  0  0  0  0
   47.8870   30.9750   41.4710 N   0  0  0  0  0  0  0  0  0  0  0  0
   44.7080   34.9690   43.1040 N   0  0  0  0  0  0  0  0  0  0  0  0
   44.8820   34.5140   42.0330 C   0  0  0  0  0  0  0  0  0  0  0  0
  1 40  1  0  0  0  0
  2 12  1  0  0  0  0
  2  1  2  0  0  0  0
  3  2  1  0  0  0  0
  4  3  2  0  0  0  0
  4  5  1  0  0  0  0
  5  6  2  0  0  0  0
  6  1  1  0  0  0  0
  6 21  1  0  0  0  0
  7  3  1  0  0  0  0
  8  4  1  0  0  0  0
  9  5  1  0  0  0  0
 10 15  1  0  0  0  0
 11 12  1  0  0  0  0
 11 10  2  0  0  0  0
 12 13  2  0  0  0  0
 13 14  1  0  0  0  0
 14 18  1  0  0  0  0
 15 14  2  0  0  0  0
 16 10  1  0  0  0  0
 16 19  1  0  0  0  0
 17 11  1  0  0  0  0
 20 16  1  0  0  0  0
 21 26  1  0  0  0  0
 22 21  2  0  0  0  0
 22 23  1  0  0  0  0
 23 24  2  0  0  0  0
 24 25  1  0  0  0  0
 24 29  1  0  0  0  0
 25 30  1  0  0  0  0
 26 31  1  0  0  0  0
 26 25  2  0  0  0  0
 27 22  1  0  0  0  0
 28 23  1  0  0  0  0
 31 32  1  0  0  0  0
 32 34  2  0  0  0  0
 32 33  1  0  0  0  0
 34 35  1  0  0  0  0
 36 34  1  0  0  0  0
 37 36  2  0  0  0  0
 38 37  1  0  0  0  0
 38 31  2  0  0  0  0
 40 39  3  0  0  0  0
M  END
>  <minimizedAffinity>
-5.97597361

>  <minimizedRMSD>
0.411363035

$$$$
