
 OpenBabel03252505253D

 42 45  0  0  1  0  0  0  0  0999 V2000
   46.5790   33.2180   44.8680 F   0  0  0  0  0  0  0  0  0  0  0  0
   47.2710   32.0460   44.7290 C   0  0  0  0  0  0  0  0  0  0  0  0
   48.1200   31.9180   43.6590 C   0  0  0  0  0  0  0  0  0  0  0  0
   48.8050   30.7510   43.5260 C   0  0  0  0  0  0  0  0  0  0  0  0
   48.6270   29.7400   44.4640 C   0  0  0  0  0  0  0  0  0  0  0  0
   47.7810   29.8650   45.5330 C   0  0  0  0  0  0  0  0  0  0  0  0
   47.0850   31.0680   45.6560 C   0  0  0  0  0  0  0  0  0  0  0  0
   49.4790   30.6340   42.6870 H   0  0  0  0  0  0  0  0  0  0  0  0
   49.2060   28.8210   44.3050 H   0  0  0  0  0  0  0  0  0  0  0  0
   47.6650   29.0590   46.2470 H   0  0  0  0  0  0  0  0  0  0  0  0
   46.2160   31.1570   46.7820 N   0  0  0  0  0  0  0  0  0  0  0  0
   45.0820   30.3540   47.1660 C   0  0  0  0  0  0  0  0  0  0  0  0
   45.3690   30.0380   48.6350 C   0  0  0  0  0  0  0  0  0  0  0  0
   46.3020   31.1420   49.0630 C   0  0  0  0  0  0  0  0  0  0  0  0
   46.2060   32.0890   47.8940 C   0  0  2  0  0  0  0  0  0  0  0  0
   44.1180   30.8760   47.0310 H   0  0  0  0  0  0  0  0  0  0  0  0
   45.1440   29.4180   46.6030 H   0  0  0  0  0  0  0  0  0  0  0  0
   44.4260   30.1070   49.2310 H   0  0  0  0  0  0  0  0  0  0  0  0
   45.8860   29.0850   48.7720 H   0  0  0  0  0  0  0  0  0  0  0  0
   47.3540   30.7940   49.0990 H   0  0  0  0  0  0  0  0  0  0  0  0
   45.9710   31.6670   49.9740 H   0  0  0  0  0  0  0  0  0  0  0  0
   47.1220   32.7220   47.7640 H   0  0  0  0  0  0  0  0  0  0  0  0
   45.0280   32.9890   47.9280 C   0  0  0  0  0  0  0  0  0  0  0  0
   44.3950   32.7520   48.7880 H   0  0  0  0  0  0  0  0  0  0  0  0
   45.3130   34.0730   48.0180 H   0  0  0  0  0  0  0  0  0  0  0  0
   44.3830   32.9380   47.0260 H   0  0  0  0  0  0  0  0  0  0  0  0
   49.0140   35.1470   42.1800 C   0  0  0  0  0  0  0  0  0  0  0  0
   48.5280   35.0610   40.8710 C   0  0  0  0  0  0  0  0  0  0  0  0
   47.8990   33.8630   40.5500 C   0  0  0  0  0  0  0  0  0  0  0  0
   47.7920   32.8910   41.4720 N   0  0  0  0  0  0  0  0  0  0  0  0
   48.2670   33.0030   42.7120 C   0  0  0  0  0  0  0  0  0  0  0  0
   48.8860   34.1420   43.0790 N   0  0  0  0  0  0  0  0  0  0  0  0
   49.5270   36.0410   42.5450 H   0  0  0  0  0  0  0  0  0  0  0  0
   48.6470   35.8720   40.1900 H   0  0  0  0  0  0  0  0  0  0  0  0
   47.3580   33.6780   39.2080 C   0  0  0  0  0  0  0  0  0  0  0  0
   48.1110   34.0650   38.1180 C   0  0  0  0  0  0  0  0  0  0  0  0
   49.0920   34.4990   38.2500 H   0  0  0  0  0  0  0  0  0  0  0  0
   47.6340   33.9040   36.8410 C   0  0  0  0  0  0  0  0  0  0  0  0
   48.1490   34.1760   35.9340 H   0  0  0  0  0  0  0  0  0  0  0  0
   46.3680   33.3390   36.7560 C   0  0  0  0  0  0  0  0  0  0  0  0
   45.5820   32.9390   37.8410 C   0  0  0  0  0  0  0  0  0  0  0  0
   46.1390   33.1370   39.0530 N   0  0  0  0  0  0  0  0  0  0  0  0
  2  1  1  0  0  0  0
  2  7  1  0  0  0  0
  3  2  2  0  0  0  0
  4  3  1  0  0  0  0
  4  5  2  0  0  0  0
  5  6  1  0  0  0  0
  6  7  2  0  0  0  0
  6 10  1  0  0  0  0
  7 11  1  0  0  0  0
  8  4  1  0  0  0  0
  9  5  1  0  0  0  0
 11 12  1  0  0  0  0
 11 15  1  0  0  0  0
 12 13  1  0  0  0  0
 13 19  1  0  0  0  0
 13 14  1  0  0  0  0
 13 18  1  0  0  0  0
 14 20  1  0  0  0  0
 14 21  1  0  0  0  0
 15 22  1  6  0  0  0
 15 23  1  0  0  0  0
 15 14  1  0  0  0  0
 16 12  1  0  0  0  0
 17 12  1  0  0  0  0
 23 25  1  0  0  0  0
 23 24  1  0  0  0  0
 26 23  1  0  0  0  0
 27 33  1  0  0  0  0
 27 32  1  0  0  0  0
 28 27  2  0  0  0  0
 29 28  1  0  0  0  0
 29 30  2  0  0  0  0
 30 31  1  0  0  0  0
 31 32  2  0  0  0  0
 31  3  1  0  0  0  0
 34 28  1  0  0  0  0
 35 29  1  0  0  0  0
 36 37  1  0  0  0  0
 36 35  2  0  0  0  0
 38 36  1  0  0  0  0
 39 38  1  0  0  0  0
 40 38  2  0  0  0  0
 40 41  1  0  0  0  0
 41 42  2  0  0  0  0
 42 35  1  0  0  0  0
M  END
>  <minimizedAffinity>
-5.57618284

>  <minimizedRMSD>
0.936369419

$$$$
