
 OpenBabel03252508323D

 31 33  0  0  1  0  0  0  0  0999 V2000
   44.2640   34.2830   42.1330 N   0  0  0  0  0  0  0  0  0  0  0  0
   45.0390   33.6860   41.0910 C   0  0  1  0  0  0  0  0  0  0  0  0
   44.4470   33.7710   39.7360 C   0  0  0  0  0  0  0  0  0  0  0  0
   43.0560   33.7510   39.6160 N   0  0  0  0  0  0  0  0  0  0  0  0
   42.2840   34.2060   40.7060 C   0  0  0  0  0  0  0  0  0  0  0  0
   43.1200   35.0150   41.6800 C   0  0  0  0  0  0  0  0  0  0  0  0
   45.2060   32.6060   41.3760 H   0  0  0  0  0  0  0  0  0  0  0  0
   44.8570   34.6590   39.2100 H   0  0  0  0  0  0  0  0  0  0  0  0
   44.8570   32.8960   39.1530 H   0  0  0  0  0  0  0  0  0  0  0  0
   42.7540   34.2520   38.7470 H   0  0  0  0  0  0  0  0  0  0  0  0
   41.4290   34.8850   40.4300 H   0  0  0  0  0  0  0  0  0  0  0  0
   41.8580   33.3480   41.2470 H   0  0  0  0  0  0  0  0  0  0  0  0
   43.4140   35.9370   41.0940 H   0  0  0  0  0  0  0  0  0  0  0  0
   42.4330   35.3800   42.4360 H   0  0  0  0  0  0  0  0  0  0  0  0
   44.4720   35.1770   44.3290 C   0  0  0  0  0  0  0  0  0  0  0  0
   44.6830   34.1050   43.4680 C   0  0  0  0  0  0  0  0  0  0  0  0
   45.2880   32.9770   43.9920 C   0  0  0  0  0  0  0  0  0  0  0  0
   45.6640   32.9110   45.2940 N   0  0  0  0  0  0  0  0  0  0  0  0
   45.4430   33.9800   46.1140 C   0  0  0  0  0  0  0  0  0  0  0  0
   44.8610   35.0760   45.6300 N   0  0  0  0  0  0  0  0  0  0  0  0
   44.0240   36.1350   44.1240 H   0  0  0  0  0  0  0  0  0  0  0  0
   45.4490   32.1530   43.3410 H   0  0  0  0  0  0  0  0  0  0  0  0
   45.7620   33.8710   47.1390 H   0  0  0  0  0  0  0  0  0  0  0  0
   46.3950   34.2930   41.0020 C   0  0  0  0  0  0  0  0  0  0  0  0
   47.1810   34.1450   39.8760 C   0  0  0  0  0  0  0  0  0  0  0  0
   46.8470   33.5970   39.0240 H   0  0  0  0  0  0  0  0  0  0  0  0
   48.4500   34.6820   39.7400 C   0  0  0  0  0  0  0  0  0  0  0  0
   49.0500   34.5560   38.8500 H   0  0  0  0  0  0  0  0  0  0  0  0
   48.9900   35.4080   40.7670 C   0  0  0  0  0  3  0  0  0  0  0  0
   48.2050   35.5560   41.8900 C   0  0  0  0  0  3  0  0  0  0  0  0
   46.9970   35.0280   41.9820 N   0  0  0  0  0  0  0  0  0  0  0  0
  1 16  1  0  0  0  0
  2  7  1  1  0  0  0
  2  1  1  0  0  0  0
  3  2  1  0  0  0  0
  4  3  1  0  0  0  0
  4  5  1  0  0  0  0
  5 12  1  0  0  0  0
  5  6  1  0  0  0  0
  6  1  1  0  0  0  0
  6 14  1  0  0  0  0
  8  3  1  0  0  0  0
  9  3  1  0  0  0  0
 10  4  1  0  0  0  0
 11  5  1  0  0  0  0
 13  6  1  0  0  0  0
 15 20  1  0  0  0  0
 16 17  1  0  0  0  0
 16 15  2  0  0  0  0
 17 18  2  0  0  0  0
 18 19  1  0  0  0  0
 19 23  1  0  0  0  0
 20 19  2  0  0  0  0
 21 15  1  0  0  0  0
 22 17  1  0  0  0  0
 24  2  1  0  0  0  0
 24 31  1  0  0  0  0
 25 24  2  0  0  0  0
 26 25  1  0  0  0  0
 27 25  1  0  0  0  0
 27 29  2  0  0  0  0
 28 27  1  0  0  0  0
 29 30  1  0  0  0  0
 30 31  2  0  0  0  0
M  END
>  <minimizedAffinity>
-4.62634706

>  <minimizedRMSD>
1.30197251

$$$$
