
 OpenBabel03252508323D

 31 33  0  0  1  0  0  0  0  0999 V2000
   44.3380   34.5120   41.9440 N   0  0  0  0  0  0  0  0  0  0  0  0
   44.7160   33.4830   41.0280 C   0  0  1  0  0  0  0  0  0  0  0  0
   44.1890   33.6370   39.6520 C   0  0  0  0  0  0  0  0  0  0  0  0
   42.9440   34.2460   39.4820 N   0  0  0  0  0  0  0  0  0  0  0  0
   42.5050   35.1570   40.4660 C   0  0  0  0  0  0  0  0  0  0  0  0
   43.6500   35.6170   41.3480 C   0  0  0  0  0  0  0  0  0  0  0  0
   44.3710   32.5010   41.4680 H   0  0  0  0  0  0  0  0  0  0  0  0
   44.9470   34.1490   39.0230 H   0  0  0  0  0  0  0  0  0  0  0  0
   44.1280   32.5980   39.2150 H   0  0  0  0  0  0  0  0  0  0  0  0
   42.8820   34.7000   38.5400 H   0  0  0  0  0  0  0  0  0  0  0  0
   42.0540   36.1070   40.0630 H   0  0  0  0  0  0  0  0  0  0  0  0
   41.7460   34.6810   41.1050 H   0  0  0  0  0  0  0  0  0  0  0  0
   44.3200   36.2040   40.6500 H   0  0  0  0  0  0  0  0  0  0  0  0
   43.2340   36.3630   42.0180 H   0  0  0  0  0  0  0  0  0  0  0  0
   44.3870   35.4300   44.1390 C   0  0  0  0  0  0  0  0  0  0  0  0
   44.6680   34.3530   43.3060 C   0  0  0  0  0  0  0  0  0  0  0  0
   45.2500   33.2380   43.8810 C   0  0  0  0  0  0  0  0  0  0  0  0
   45.5380   33.1890   45.2070 N   0  0  0  0  0  0  0  0  0  0  0  0
   45.2490   34.2640   45.9990 C   0  0  0  0  0  0  0  0  0  0  0  0
   44.6890   35.3470   45.4650 N   0  0  0  0  0  0  0  0  0  0  0  0
   43.9420   36.3810   43.8940 H   0  0  0  0  0  0  0  0  0  0  0  0
   45.4640   32.4100   43.2520 H   0  0  0  0  0  0  0  0  0  0  0  0
   45.5000   34.1690   47.0440 H   0  0  0  0  0  0  0  0  0  0  0  0
   46.1940   33.3730   40.9070 C   0  0  0  0  0  0  0  0  0  0  0  0
   46.9940   34.4880   40.7550 C   0  0  0  0  0  0  0  0  0  0  0  0
   46.5870   35.4750   40.7230 H   0  0  0  0  0  0  0  0  0  0  0  0
   48.3720   34.4450   40.6320 C   0  0  0  0  0  0  0  0  0  0  0  0
   48.9820   35.3300   40.5130 H   0  0  0  0  0  0  0  0  0  0  0  0
   49.0140   33.2370   40.6570 C   0  0  0  0  0  3  0  0  0  0  0  0
   48.2170   32.1230   40.8080 C   0  0  0  0  0  3  0  0  0  0  0  0
   46.9030   32.2060   40.9240 N   0  0  0  0  0  0  0  0  0  0  0  0
  1 16  1  0  0  0  0
  2  7  1  1  0  0  0
  2  1  1  0  0  0  0
  3  2  1  0  0  0  0
  4  3  1  0  0  0  0
  4  5  1  0  0  0  0
  5 12  1  0  0  0  0
  5  6  1  0  0  0  0
  6  1  1  0  0  0  0
  6 14  1  0  0  0  0
  8  3  1  0  0  0  0
  9  3  1  0  0  0  0
 10  4  1  0  0  0  0
 11  5  1  0  0  0  0
 13  6  1  0  0  0  0
 15 20  1  0  0  0  0
 16 17  1  0  0  0  0
 16 15  2  0  0  0  0
 17 18  2  0  0  0  0
 18 19  1  0  0  0  0
 19 23  1  0  0  0  0
 20 19  2  0  0  0  0
 21 15  1  0  0  0  0
 22 17  1  0  0  0  0
 24 31  1  0  0  0  0
 24  2  1  0  0  0  0
 25 24  2  0  0  0  0
 26 25  1  0  0  0  0
 27 29  2  0  0  0  0
 27 25  1  0  0  0  0
 28 27  1  0  0  0  0
 29 30  1  0  0  0  0
 30 31  2  0  0  0  0
M  END
>  <minimizedAffinity>
-4.42849874

>  <minimizedRMSD>
0.522734404

$$$$
