
 OpenBabel03252508293D

 38 41  0  0  1  0  0  0  0  0999 V2000
   39.6990   33.5420   42.0630 N   0  0  0  0  0  0  0  0  0  0  0  0
   39.9320   34.6980   41.1950 C   0  0  2  0  0  0  0  0  0  0  0  0
   39.0790   34.6790   39.9770 C   0  0  0  0  0  0  0  0  0  0  0  0
   38.0250   33.6850   40.0480 N   0  0  0  0  0  0  0  0  0  0  0  0
   38.4610   32.3840   40.4080 C   0  0  0  0  0  0  0  0  0  0  0  0
   39.7800   32.3800   41.1450 C   0  0  2  0  0  0  0  0  0  0  0  0
   40.5060   33.5480   42.7270 H   0  0  0  0  0  0  0  0  0  0  0  0
   39.7780   35.6020   41.8160 H   0  0  0  0  0  0  0  0  0  0  0  0
   38.5660   35.6590   39.9080 H   0  0  0  0  0  0  0  0  0  0  0  0
   39.5690   34.3840   39.0320 H   0  0  0  0  0  0  0  0  0  0  0  0
   37.5270   33.6700   39.1520 H   0  0  0  0  0  0  0  0  0  0  0  0
   37.7040   31.9850   41.1410 H   0  0  0  0  0  0  0  0  0  0  0  0
   38.4480   31.6410   39.5620 H   0  0  0  0  0  0  0  0  0  0  0  0
   40.6250   32.5260   40.4320 H   0  0  0  0  0  0  0  0  0  0  0  0
   39.9390   31.1520   41.9310 C   0  0  0  0  0  0  0  0  0  0  0  0
   40.9580   30.8680   42.7870 C   0  0  0  0  0  0  0  0  0  0  0  0
   41.7350   31.6080   42.9130 H   0  0  0  0  0  0  0  0  0  0  0  0
   41.1000   29.7100   43.5210 C   0  0  0  0  0  0  0  0  0  0  0  0
   41.9580   29.5810   44.1810 H   0  0  0  0  0  0  0  0  0  0  0  0
   40.1020   28.7560   43.3610 C   0  0  0  0  0  0  0  0  0  0  0  0
   39.0730   29.0610   42.4890 C   0  0  0  0  0  0  0  0  0  0  0  0
   38.9900   30.2050   41.8020 N   0  0  0  0  0  0  0  0  0  0  0  0
   43.5170   34.6160   40.7940 C   0  0  0  0  0  0  0  0  0  0  0  0
   43.0260   34.6870   39.4840 C   0  0  0  0  0  0  0  0  0  0  0  0
   41.6430   34.7300   39.5030 C   0  0  0  0  0  0  0  0  0  0  0  0
   41.3270   34.6830   40.7950 N   0  0  0  0  0  0  0  0  0  0  0  0
   42.4170   34.6180   41.5460 N   0  0  0  0  0  0  0  0  0  0  0  0
   43.7640   34.6990   38.6600 H   0  0  0  0  0  0  0  0  0  0  0  0
   41.2680   34.7930   38.4870 H   0  0  0  0  0  0  0  0  0  0  0  0
   47.2200   33.9870   40.8880 C   0  0  0  0  0  0  0  0  0  0  0  0
   45.8770   33.9320   40.3980 C   0  0  0  0  0  0  0  0  0  0  0  0
   44.9330   34.5710   41.1630 C   0  0  0  0  0  0  0  0  0  0  0  0
   45.3000   35.2020   42.3060 N   0  0  0  0  0  0  0  0  0  0  0  0
   46.5800   35.2340   42.7400 C   0  0  0  0  0  0  0  0  0  0  0  0
   47.5160   34.6210   42.0140 N   0  0  0  0  0  0  0  0  0  0  0  0
   47.9360   33.4750   40.2620 H   0  0  0  0  0  0  0  0  0  0  0  0
   45.5840   33.4320   39.4910 H   0  0  0  0  0  0  0  0  0  0  0  0
   46.7310   35.7660   43.6550 H   0  0  0  0  0  0  0  0  0  0  0  0
  1  7  1  0  0  0  0
  2  8  1  1  0  0  0
  2  1  1  0  0  0  0
  3  4  1  0  0  0  0
  3  2  1  0  0  0  0
  4  5  1  0  0  0  0
  5 12  1  0  0  0  0
  5  6  1  0  0  0  0
  6 14  1  6  0  0  0
  6 15  1  0  0  0  0
  6  1  1  0  0  0  0
  9  3  1  0  0  0  0
 10  3  1  0  0  0  0
 11  4  1  0  0  0  0
 13  5  1  0  0  0  0
 15 16  1  0  0  0  0
 16 17  1  0  0  0  0
 16 18  2  0  0  0  0
 18 19  1  0  0  0  0
 20 18  1  0  0  0  0
 21 20  2  0  0  0  0
 22 15  2  0  0  0  0
 22 21  1  0  0  0  0
 23 32  1  0  0  0  0
 23 27  2  0  0  0  0
 24 25  2  0  0  0  0
 24 23  1  0  0  0  0
 25 26  1  0  0  0  0
 26  2  1  0  0  0  0
 26 27  1  0  0  0  0
 28 24  1  0  0  0  0
 29 25  1  0  0  0  0
 30 35  1  0  0  0  0
 31 30  2  0  0  0  0
 31 32  1  0  0  0  0
 32 33  2  0  0  0  0
 33 34  1  0  0  0  0
 34 38  1  0  0  0  0
 35 34  2  0  0  0  0
 36 30  1  0  0  0  0
 37 31  1  0  0  0  0
M  END
>  <minimizedAffinity>
-6.17575788

>  <minimizedRMSD>
5.28137207

$$$$
