
 OpenBabel03252504563D

 30 32  0  0  1  0  0  0  0  0999 V2000
   37.1280   29.5340   41.6750 N   0  0  0  0  0  0  0  0  0  0  0  0
   38.5450   29.6660   41.6130 C   0  0  0  0  0  0  0  0  0  0  0  0
   38.9730   29.0850   42.9300 C   0  0  0  0  0  0  0  0  0  0  0  0
   37.7500   28.5720   43.6560 C   0  0  0  0  0  0  0  0  0  0  0  0
   36.7090   28.5180   42.5140 C   0  0  2  0  0  0  0  0  0  0  0  0
   39.2900   30.0220   40.9650 H   0  0  0  0  0  0  0  0  0  0  0  0
   39.9970   28.9850   43.3130 H   0  0  0  0  0  0  0  0  0  0  0  0
   37.4630   29.3220   44.4080 H   0  0  0  0  0  0  0  0  0  0  0  0
   37.9440   27.5910   44.0890 H   0  0  0  0  0  0  0  0  0  0  0  0
   35.7560   28.6020   43.0340 H   0  0  0  0  0  0  0  0  0  0  0  0
   36.7910   27.1770   41.8960 C   0  0  0  0  0  0  0  0  0  0  0  0
   37.0020   25.9930   42.5540 C   0  0  0  0  0  0  0  0  0  0  0  0
   37.1200   26.0110   43.6150 H   0  0  0  0  0  0  0  0  0  0  0  0
   37.0740   24.7630   41.9380 C   0  0  0  0  0  0  0  0  0  0  0  0
   37.2440   23.8610   42.5210 H   0  0  0  0  0  0  0  0  0  0  0  0
   36.9290   24.6680   40.5720 C   0  0  0  0  0  3  0  0  0  0  0  0
   36.7190   25.8600   39.9350 C   0  0  0  0  0  3  0  0  0  0  0  0
   36.6540   27.0330   40.5450 N   0  0  0  0  0  0  0  0  0  0  0  0
   36.3570   30.4450   41.0200 C   0  0  0  0  0  0  0  0  0  0  0  0
   35.2400   30.3200   41.0470 H   0  0  0  0  0  0  0  0  0  0  0  0
   36.4620   31.4640   41.5230 H   0  0  0  0  0  0  0  0  0  0  0  0
   37.6640   31.9110   37.7920 C   0  0  0  0  0  0  0  0  0  0  0  0
   37.3650   31.8390   39.1770 C   0  0  0  0  0  0  0  0  0  0  0  0
   36.7070   30.7060   39.6230 C   0  0  0  0  0  0  0  0  0  0  0  0
   36.3870   29.7440   38.7260 N   0  0  0  0  0  0  0  0  0  0  0  0
   36.6820   29.8320   37.3900 C   0  0  0  0  0  0  0  0  0  0  0  0
   37.3240   30.9230   36.9290 N   0  0  0  0  0  0  0  0  0  0  0  0
   38.1740   32.8070   37.4990 H   0  0  0  0  0  0  0  0  0  0  0  0
   37.6200   32.6040   39.8780 H   0  0  0  0  0  0  0  0  0  0  0  0
   36.3710   28.9970   36.7840 H   0  0  0  0  0  0  0  0  0  0  0  0
  1  5  1  0  0  0  0
  2  1  1  0  0  0  0
  2  3  2  0  0  0  0
  3  7  1  0  0  0  0
  3  4  1  0  0  0  0
  4  9  1  0  0  0  0
  4  8  1  0  0  0  0
  5 10  1  1  0  0  0
  5  4  1  0  0  0  0
  6  2  1  0  0  0  0
 11  5  1  0  0  0  0
 11 12  1  0  0  0  0
 12 13  1  0  0  0  0
 14 15  1  0  0  0  0
 14 12  2  0  0  0  0
 16 14  1  0  0  0  0
 17 18  1  0  0  0  0
 17 16  2  0  0  0  0
 18 11  2  0  0  0  0
 19 20  1  0  0  0  0
 19 21  1  0  0  0  0
 19  1  1  0  0  0  0
 22 23  1  0  0  0  0
 23 24  2  0  0  0  0
 23 29  1  0  0  0  0
 24 19  1  0  0  0  0
 25 24  1  0  0  0  0
 26 25  2  0  0  0  0
 27 26  1  0  0  0  0
 27 22  2  0  0  0  0
 28 22  1  0  0  0  0
 30 26  1  0  0  0  0
M  END
>  <minimizedAffinity>
-4.95077991

$$$$

 OpenBabel03252504563D

 30 32  0  0  1  0  0  0  0  0999 V2000
   36.6240   28.0150   41.4710 N   0  0  0  0  0  0  0  0  0  0  0  0
   37.0480   27.4250   40.2460 C   0  0  0  0  0  0  0  0  0  0  0  0
   36.1180   28.0590   39.2520 C   0  0  0  0  0  0  0  0  0  0  0  0
   35.2420   29.0580   39.9740 C   0  0  0  0  0  0  0  0  0  0  0  0
   36.0110   29.2420   41.3030 C   0  0  2  0  0  0  0  0  0  0  0  0
   37.7590   26.7390   39.8890 H   0  0  0  0  0  0  0  0  0  0  0  0
   36.0840   27.8890   38.1680 H   0  0  0  0  0  0  0  0  0  0  0  0
   34.2660   28.5850   40.1520 H   0  0  0  0  0  0  0  0  0  0  0  0
   35.1670   29.9840   39.4040 H   0  0  0  0  0  0  0  0  0  0  0  0
   35.2390   29.5630   42.0010 H   0  0  0  0  0  0  0  0  0  0  0  0
   36.9670   30.3540   41.1170 C   0  0  0  0  0  0  0  0  0  0  0  0
   36.7430   31.5050   40.4060 C   0  0  0  0  0  0  0  0  0  0  0  0
   35.7960   31.6390   39.9330 H   0  0  0  0  0  0  0  0  0  0  0  0
   37.6650   32.5180   40.2560 C   0  0  0  0  0  0  0  0  0  0  0  0
   37.4230   33.4060   39.6770 H   0  0  0  0  0  0  0  0  0  0  0  0
   38.9070   32.4110   40.8410 C   0  0  0  0  0  3  0  0  0  0  0  0
   39.1100   31.2550   41.5450 C   0  0  0  0  0  3  0  0  0  0  0  0
   38.2110   30.2930   41.6780 N   0  0  0  0  0  0  0  0  0  0  0  0
   36.7580   27.3010   42.6220 C   0  0  0  0  0  0  0  0  0  0  0  0
   36.4220   27.7710   43.5870 H   0  0  0  0  0  0  0  0  0  0  0  0
   36.0720   26.3900   42.5880 H   0  0  0  0  0  0  0  0  0  0  0  0
   40.3370   26.7080   43.6790 C   0  0  0  0  0  0  0  0  0  0  0  0
   39.1320   27.4250   43.4600 C   0  0  0  0  0  0  0  0  0  0  0  0
   38.0820   26.7330   42.8820 C   0  0  0  0  0  0  0  0  0  0  0  0
   38.2600   25.4300   42.5620 N   0  0  0  0  0  0  0  0  0  0  0  0
   39.4320   24.7530   42.7800 C   0  0  0  0  0  0  0  0  0  0  0  0
   40.4700   25.4030   43.3430 N   0  0  0  0  0  0  0  0  0  0  0  0
   41.1180   27.2890   44.1290 H   0  0  0  0  0  0  0  0  0  0  0  0
   39.0020   28.4540   43.7140 H   0  0  0  0  0  0  0  0  0  0  0  0
   39.4410   23.7190   42.4780 H   0  0  0  0  0  0  0  0  0  0  0  0
  1 19  1  0  0  0  0
  2  1  1  0  0  0  0
  3  4  1  0  0  0  0
  3  2  2  0  0  0  0
  4  8  1  0  0  0  0
  4  5  1  0  0  0  0
  5  1  1  0  0  0  0
  5 10  1  1  0  0  0
  6  2  1  0  0  0  0
  7  3  1  0  0  0  0
  9  4  1  0  0  0  0
 11  5  1  0  0  0  0
 11 18  1  0  0  0  0
 12 11  2  0  0  0  0
 13 12  1  0  0  0  0
 14 12  1  0  0  0  0
 14 16  2  0  0  0  0
 15 14  1  0  0  0  0
 16 17  1  0  0  0  0
 17 18  2  0  0  0  0
 19 24  1  0  0  0  0
 19 20  1  0  0  0  0
 21 19  1  0  0  0  0
 22 28  1  0  0  0  0
 23 22  1  0  0  0  0
 23 29  1  0  0  0  0
 24 23  2  0  0  0  0
 25 26  2  0  0  0  0
 25 24  1  0  0  0  0
 26 27  1  0  0  0  0
 27 22  2  0  0  0  0
 30 26  1  0  0  0  0
M  END
>  <minimizedAffinity>
-4.89543009

$$$$

 OpenBabel03252504563D

 30 32  0  0  1  0  0  0  0  0999 V2000
   37.2690   29.3860   38.7970 N   0  0  0  0  0  0  0  0  0  0  0  0
   35.8630   29.5810   38.6820 C   0  0  0  0  0  0  0  0  0  0  0  0
   35.3510   28.1700   38.6440 C   0  0  0  0  0  0  0  0  0  0  0  0
   36.5180   27.2240   38.8190 C   0  0  0  0  0  0  0  0  0  0  0  0
   37.6090   28.1730   39.3670 C   0  0  2  0  0  0  0  0  0  0  0  0
   35.1620   30.3610   38.6240 H   0  0  0  0  0  0  0  0  0  0  0  0
   34.3070   27.8400   38.5570 H   0  0  0  0  0  0  0  0  0  0  0  0
   36.7980   26.8440   37.8250 H   0  0  0  0  0  0  0  0  0  0  0  0
   36.2660   26.4290   39.5210 H   0  0  0  0  0  0  0  0  0  0  0  0
   38.5390   27.6830   39.0850 H   0  0  0  0  0  0  0  0  0  0  0  0
   37.5040   28.1710   40.8420 C   0  0  0  0  0  0  0  0  0  0  0  0
   36.8590   27.2330   41.6070 C   0  0  0  0  0  0  0  0  0  0  0  0
   36.3780   26.4150   41.1170 H   0  0  0  0  0  0  0  0  0  0  0  0
   36.7840   27.2690   42.9830 C   0  0  0  0  0  0  0  0  0  0  0  0
   36.2550   26.4930   43.5280 H   0  0  0  0  0  0  0  0  0  0  0  0
   37.3820   28.2960   43.6770 C   0  0  0  0  0  3  0  0  0  0  0  0
   38.0200   29.2200   42.8960 C   0  0  0  0  0  3  0  0  0  0  0  0
   38.0820   29.1690   41.5740 N   0  0  0  0  0  0  0  0  0  0  0  0
   38.1040   30.3180   38.2610 C   0  0  0  0  0  0  0  0  0  0  0  0
   39.1500   30.0070   37.9890 H   0  0  0  0  0  0  0  0  0  0  0  0
   37.7130   30.6370   37.2370 H   0  0  0  0  0  0  0  0  0  0  0  0
   37.5690   33.7500   39.7480 C   0  0  0  0  0  0  0  0  0  0  0  0
   37.3140   32.6150   38.9350 C   0  0  0  0  0  0  0  0  0  0  0  0
   38.2290   31.5770   38.9960 C   0  0  0  0  0  0  0  0  0  0  0  0
   39.2990   31.7010   39.8140 N   0  0  0  0  0  0  0  0  0  0  0  0
   39.5300   32.8070   40.5910 C   0  0  0  0  0  0  0  0  0  0  0  0
   38.6550   33.8310   40.5530 N   0  0  0  0  0  0  0  0  0  0  0  0
   36.8320   34.5230   39.6650 H   0  0  0  0  0  0  0  0  0  0  0  0
   36.4660   32.5260   38.2910 H   0  0  0  0  0  0  0  0  0  0  0  0
   40.4210   32.7780   41.1970 H   0  0  0  0  0  0  0  0  0  0  0  0
  1  5  1  0  0  0  0
  2  1  1  0  0  0  0
  3  2  2  0  0  0  0
  3  4  1  0  0  0  0
  4  5  1  0  0  0  0
  4  9  1  0  0  0  0
  5 10  1  6  0  0  0
  5 11  1  0  0  0  0
  6  2  1  0  0  0  0
  7  3  1  0  0  0  0
  8  4  1  0  0  0  0
 11 18  2  0  0  0  0
 11 12  1  0  0  0  0
 12 14  2  0  0  0  0
 13 12  1  0  0  0  0
 14 15  1  0  0  0  0
 14 16  1  0  0  0  0
 17 16  2  0  0  0  0
 18 17  1  0  0  0  0
 19  1  1  0  0  0  0
 19 24  1  0  0  0  0
 20 19  1  0  0  0  0
 21 19  1  0  0  0  0
 22 27  1  0  0  0  0
 23 24  1  0  0  0  0
 23 22  2  0  0  0  0
 24 25  2  0  0  0  0
 25 26  1  0  0  0  0
 26 30  1  0  0  0  0
 27 26  2  0  0  0  0
 28 22  1  0  0  0  0
 29 23  1  0  0  0  0
M  END
>  <minimizedAffinity>
-4.83181524

$$$$

 OpenBabel03252504563D

 30 32  0  0  1  0  0  0  0  0999 V2000
   37.1620   31.0300   40.4750 N   0  0  0  0  0  0  0  0  0  0  0  0
   37.3970   30.3180   39.2640 C   0  0  0  0  0  0  0  0  0  0  0  0
   37.3740   31.4180   38.2420 C   0  0  0  0  0  0  0  0  0  0  0  0
   37.1980   32.7400   38.9550 C   0  0  0  0  0  0  0  0  0  0  0  0
   37.5440   32.3570   40.4120 C   0  0  2  0  0  0  0  0  0  0  0  0
   37.5640   29.3370   38.9290 H   0  0  0  0  0  0  0  0  0  0  0  0
   37.5110   31.3230   37.1570 H   0  0  0  0  0  0  0  0  0  0  0  0
   36.1410   33.0320   38.8700 H   0  0  0  0  0  0  0  0  0  0  0  0
   37.8780   33.4890   38.5480 H   0  0  0  0  0  0  0  0  0  0  0  0
   37.0150   33.1030   41.0040 H   0  0  0  0  0  0  0  0  0  0  0  0
   38.9980   32.5570   40.5940 C   0  0  0  0  0  0  0  0  0  0  0  0
   39.8440   31.7490   41.3090 C   0  0  0  0  0  0  0  0  0  0  0  0
   39.4420   30.8850   41.7900 H   0  0  0  0  0  0  0  0  0  0  0  0
   41.1960   31.9740   41.4550 C   0  0  0  0  0  0  0  0  0  0  0  0
   41.8100   31.2930   42.0370 H   0  0  0  0  0  0  0  0  0  0  0  0
   41.7790   33.0700   40.8600 C   0  0  0  0  0  3  0  0  0  0  0  0
   40.9180   33.8620   40.1510 C   0  0  0  0  0  3  0  0  0  0  0  0
   39.6210   33.6300   40.0230 N   0  0  0  0  0  0  0  0  0  0  0  0
   36.5170   30.3960   41.4920 C   0  0  0  0  0  0  0  0  0  0  0  0
   36.1980   31.0010   42.3850 H   0  0  0  0  0  0  0  0  0  0  0  0
   35.5020   30.0220   41.1250 H   0  0  0  0  0  0  0  0  0  0  0  0
   38.7420   27.9430   43.3100 C   0  0  0  0  0  0  0  0  0  0  0  0
   38.2680   29.2000   42.8540 C   0  0  0  0  0  0  0  0  0  0  0  0
   37.1620   29.1940   42.0210 C   0  0  0  0  0  0  0  0  0  0  0  0
   36.6030   28.0060   41.6910 N   0  0  0  0  0  0  0  0  0  0  0  0
   37.0770   26.8000   42.1400 C   0  0  0  0  0  0  0  0  0  0  0  0
   38.1500   26.7780   42.9530 N   0  0  0  0  0  0  0  0  0  0  0  0
   39.5990   28.0030   43.9510 H   0  0  0  0  0  0  0  0  0  0  0  0
   38.7170   30.1330   43.1180 H   0  0  0  0  0  0  0  0  0  0  0  0
   36.5400   25.9300   41.8010 H   0  0  0  0  0  0  0  0  0  0  0  0
  1 19  1  0  0  0  0
  2  1  1  0  0  0  0
  3  4  1  0  0  0  0
  3  2  2  0  0  0  0
  4  5  1  0  0  0  0
  5  1  1  0  0  0  0
  5 11  1  0  0  0  0
  5 10  1  1  0  0  0
  6  2  1  0  0  0  0
  7  3  1  0  0  0  0
  8  4  1  0  0  0  0
  9  4  1  0  0  0  0
 11 12  1  0  0  0  0
 12 14  2  0  0  0  0
 12 13  1  0  0  0  0
 14 15  1  0  0  0  0
 16 14  1  0  0  0  0
 17 16  2  0  0  0  0
 18 17  1  0  0  0  0
 18 11  2  0  0  0  0
 19 24  1  0  0  0  0
 19 20  1  0  0  0  0
 21 19  1  0  0  0  0
 22 28  1  0  0  0  0
 23 29  1  0  0  0  0
 23 22  2  0  0  0  0
 24 23  1  0  0  0  0
 25 24  2  0  0  0  0
 25 26  1  0  0  0  0
 26 27  2  0  0  0  0
 27 22  1  0  0  0  0
 30 26  1  0  0  0  0
M  END
>  <minimizedAffinity>
-4.77718592

$$$$

 OpenBabel03252504563D

 30 32  0  0  1  0  0  0  0  0999 V2000
   36.4460   29.1180   40.6520 N   0  0  0  0  0  0  0  0  0  0  0  0
   35.0530   29.1690   40.3570 C   0  0  0  0  0  0  0  0  0  0  0  0
   35.0120   28.6640   38.9440 C   0  0  0  0  0  0  0  0  0  0  0  0
   36.4110   28.2720   38.5260 C   0  0  0  0  0  0  0  0  0  0  0  0
   37.1320   28.1900   39.8920 C   0  0  2  0  0  0  0  0  0  0  0  0
   34.1450   29.4360   40.8120 H   0  0  0  0  0  0  0  0  0  0  0  0
   34.1270   28.5380   38.3060 H   0  0  0  0  0  0  0  0  0  0  0  0
   36.8240   29.0890   37.9170 H   0  0  0  0  0  0  0  0  0  0  0  0
   36.4020   27.3160   38.0020 H   0  0  0  0  0  0  0  0  0  0  0  0
   38.1770   28.3630   39.6390 H   0  0  0  0  0  0  0  0  0  0  0  0
   36.9920   26.8050   40.3900 C   0  0  0  0  0  0  0  0  0  0  0  0
   37.1530   26.3900   41.6870 C   0  0  0  0  0  0  0  0  0  0  0  0
   37.4030   27.1150   42.4290 H   0  0  0  0  0  0  0  0  0  0  0  0
   37.0140   25.0860   42.1090 C   0  0  0  0  0  0  0  0  0  0  0  0
   37.1560   24.8240   43.1540 H   0  0  0  0  0  0  0  0  0  0  0  0
   36.6910   24.1000   41.2030 C   0  0  0  0  0  3  0  0  0  0  0  0
   36.5340   24.5360   39.9160 C   0  0  0  0  0  3  0  0  0  0  0  0
   36.6720   25.7940   39.5290 N   0  0  0  0  0  0  0  0  0  0  0  0
   36.9600   30.0190   41.5330 C   0  0  0  0  0  0  0  0  0  0  0  0
   36.2950   30.4070   42.3530 H   0  0  0  0  0  0  0  0  0  0  0  0
   37.7790   29.5210   42.1530 H   0  0  0  0  0  0  0  0  0  0  0  0
   37.7850   33.2000   39.6700 C   0  0  0  0  0  0  0  0  0  0  0  0
   37.0080   32.0970   40.1080 C   0  0  0  0  0  0  0  0  0  0  0  0
   37.6210   31.1890   40.9540 C   0  0  0  0  0  0  0  0  0  0  0  0
   38.9090   31.4000   41.3100 N   0  0  0  0  0  0  0  0  0  0  0  0
   39.6460   32.4720   40.8750 C   0  0  0  0  0  0  0  0  0  0  0  0
   39.0730   33.3720   40.0530 N   0  0  0  0  0  0  0  0  0  0  0  0
   37.2640   33.8730   39.0180 H   0  0  0  0  0  0  0  0  0  0  0  0
   35.9910   31.9380   39.8200 H   0  0  0  0  0  0  0  0  0  0  0  0
   40.6610   32.5210   41.2340 H   0  0  0  0  0  0  0  0  0  0  0  0
  1 19  1  0  0  0  0
  2  1  1  0  0  0  0
  2  6  1  0  0  0  0
  3  2  2  0  0  0  0
  4  3  1  0  0  0  0
  4  5  1  0  0  0  0
  5 10  1  6  0  0  0
  5 11  1  0  0  0  0
  5  1  1  0  0  0  0
  7  3  1  0  0  0  0
  8  4  1  0  0  0  0
  9  4  1  0  0  0  0
 11 12  1  0  0  0  0
 12 14  2  0  0  0  0
 12 13  1  0  0  0  0
 14 15  1  0  0  0  0
 16 14  1  0  0  0  0
 17 16  2  0  0  0  0
 18 17  1  0  0  0  0
 18 11  2  0  0  0  0
 19 21  1  0  0  0  0
 19 20  1  0  0  0  0
 22 27  2  0  0  0  0
 22 23  1  0  0  0  0
 23 24  2  0  0  0  0
 24 25  1  0  0  0  0
 24 19  1  0  0  0  0
 26 30  1  0  0  0  0
 26 25  2  0  0  0  0
 27 26  1  0  0  0  0
 28 22  1  0  0  0  0
 29 23  1  0  0  0  0
M  END
>  <minimizedAffinity>
-4.7653141

$$$$

 OpenBabel03252504563D

 30 32  0  0  1  0  0  0  0  0999 V2000
   38.4690   28.7120   41.4120 N   0  0  0  0  0  0  0  0  0  0  0  0
   38.7170   28.8420   42.8080 C   0  0  0  0  0  0  0  0  0  0  0  0
   37.3820   28.4910   43.3990 C   0  0  0  0  0  0  0  0  0  0  0  0
   36.4430   28.0980   42.2810 C   0  0  0  0  0  0  0  0  0  0  0  0
   37.4320   27.8470   41.1180 C   0  0  2  0  0  0  0  0  0  0  0  0
   39.4980   29.0900   43.4650 H   0  0  0  0  0  0  0  0  0  0  0  0
   37.1100   28.4640   44.4630 H   0  0  0  0  0  0  0  0  0  0  0  0
   35.7970   28.9610   42.0620 H   0  0  0  0  0  0  0  0  0  0  0  0
   35.8800   27.2040   42.5490 H   0  0  0  0  0  0  0  0  0  0  0  0
   36.8250   28.0100   40.2290 H   0  0  0  0  0  0  0  0  0  0  0  0
   37.8260   26.4230   41.1650 C   0  0  0  0  0  0  0  0  0  0  0  0
   37.1010   25.3990   41.7190 C   0  0  0  0  0  0  0  0  0  0  0  0
   36.1570   25.6230   42.1650 H   0  0  0  0  0  0  0  0  0  0  0  0
   37.5070   24.0820   41.7430 C   0  0  0  0  0  0  0  0  0  0  0  0
   36.8830   23.3190   42.2000 H   0  0  0  0  0  0  0  0  0  0  0  0
   38.7130   23.7250   41.1840 C   0  0  0  0  0  3  0  0  0  0  0  0
   39.4200   24.7600   40.6370 C   0  0  0  0  0  3  0  0  0  0  0  0
   39.0130   26.0200   40.6240 N   0  0  0  0  0  0  0  0  0  0  0  0
   39.1710   29.4960   40.5480 C   0  0  0  0  0  0  0  0  0  0  0  0
   40.2730   29.6340   40.7240 H   0  0  0  0  0  0  0  0  0  0  0  0
   39.1880   29.0060   39.5170 H   0  0  0  0  0  0  0  0  0  0  0  0
   37.0960   32.4390   39.4030 C   0  0  0  0  0  0  0  0  0  0  0  0
   37.5140   31.0870   39.5090 C   0  0  0  0  0  0  0  0  0  0  0  0
   38.6260   30.8300   40.2930 C   0  0  0  0  0  0  0  0  0  0  0  0
   39.2430   31.8670   40.9050 N   0  0  0  0  0  0  0  0  0  0  0  0
   38.8260   33.1680   40.7890 C   0  0  0  0  0  0  0  0  0  0  0  0
   37.7460   33.4460   40.0340 N   0  0  0  0  0  0  0  0  0  0  0  0
   36.2320   32.5830   38.7860 H   0  0  0  0  0  0  0  0  0  0  0  0
   37.0210   30.2750   39.0210 H   0  0  0  0  0  0  0  0  0  0  0  0
   39.4080   33.8980   41.3270 H   0  0  0  0  0  0  0  0  0  0  0  0
  1  2  1  0  0  0  0
  2  3  2  0  0  0  0
  2  6  1  0  0  0  0
  3  7  1  0  0  0  0
  4  9  1  0  0  0  0
  4  3  1  0  0  0  0
  5 10  1  6  0  0  0
  5 11  1  0  0  0  0
  5  1  1  0  0  0  0
  5  4  1  0  0  0  0
  8  4  1  0  0  0  0
 11 12  1  0  0  0  0
 12 14  2  0  0  0  0
 12 13  1  0  0  0  0
 14 15  1  0  0  0  0
 16 14  1  0  0  0  0
 17 16  2  0  0  0  0
 18 17  1  0  0  0  0
 18 11  2  0  0  0  0
 19 20  1  0  0  0  0
 19  1  1  0  0  0  0
 21 19  1  0  0  0  0
 22 23  2  0  0  0  0
 22 27  1  0  0  0  0
 23 24  1  0  0  0  0
 24 19  1  0  0  0  0
 24 25  2  0  0  0  0
 26 25  1  0  0  0  0
 26 30  1  0  0  0  0
 27 26  2  0  0  0  0
 28 22  1  0  0  0  0
 29 23  1  0  0  0  0
M  END
>  <minimizedAffinity>
-4.75594616

$$$$

 OpenBabel03252504563D

 30 32  0  0  1  0  0  0  0  0999 V2000
   38.2790   29.1540   40.8220 N   0  0  0  0  0  0  0  0  0  0  0  0
   39.5770   28.9470   41.3720 C   0  0  0  0  0  0  0  0  0  0  0  0
   39.2810   28.8230   42.8390 C   0  0  0  0  0  0  0  0  0  0  0  0
   37.7840   28.8930   43.0410 C   0  0  0  0  0  0  0  0  0  0  0  0
   37.2640   28.6400   41.6070 C   0  0  2  0  0  0  0  0  0  0  0  0
   40.5770   28.8660   41.0620 H   0  0  0  0  0  0  0  0  0  0  0  0
   40.0000   28.6570   43.6530 H   0  0  0  0  0  0  0  0  0  0  0  0
   37.5350   29.9120   43.3710 H   0  0  0  0  0  0  0  0  0  0  0  0
   37.4560   28.1280   43.7450 H   0  0  0  0  0  0  0  0  0  0  0  0
   36.2840   29.1140   41.6050 H   0  0  0  0  0  0  0  0  0  0  0  0
   37.0820   27.1810   41.4480 C   0  0  0  0  0  0  0  0  0  0  0  0
   37.0780   26.2510   42.4550 C   0  0  0  0  0  0  0  0  0  0  0  0
   37.2170   26.5830   43.4600 H   0  0  0  0  0  0  0  0  0  0  0  0
   36.9060   24.8970   42.2620 C   0  0  0  0  0  0  0  0  0  0  0  0
   36.9150   24.2120   43.1060 H   0  0  0  0  0  0  0  0  0  0  0  0
   36.7210   24.4010   40.9910 C   0  0  0  0  0  3  0  0  0  0  0  0
   36.7280   25.3460   40.0020 C   0  0  0  0  0  3  0  0  0  0  0  0
   36.8950   26.6430   40.2070 N   0  0  0  0  0  0  0  0  0  0  0  0
   38.1610   29.8960   39.6880 C   0  0  0  0  0  0  0  0  0  0  0  0
   38.5920   29.4870   38.7330 H   0  0  0  0  0  0  0  0  0  0  0  0
   37.0600   29.9770   39.3970 H   0  0  0  0  0  0  0  0  0  0  0  0
   38.6210   33.5350   40.5940 C   0  0  0  0  0  0  0  0  0  0  0  0
   38.0390   32.2410   40.6050 C   0  0  0  0  0  0  0  0  0  0  0  0
   38.6040   31.2880   39.7740 C   0  0  0  0  0  0  0  0  0  0  0  0
   39.6630   31.6390   39.0070 N   0  0  0  0  0  0  0  0  0  0  0  0
   40.2100   32.8970   39.0080 C   0  0  0  0  0  0  0  0  0  0  0  0
   39.6810   33.8420   39.8090 N   0  0  0  0  0  0  0  0  0  0  0  0
   38.1470   34.2340   41.2540 H   0  0  0  0  0  0  0  0  0  0  0  0
   37.2020   31.9730   41.2120 H   0  0  0  0  0  0  0  0  0  0  0  0
   41.0500   33.0440   38.3500 H   0  0  0  0  0  0  0  0  0  0  0  0
  1  2  1  0  0  0  0
  1  5  1  0  0  0  0
  2  3  2  0  0  0  0
  3  4  1  0  0  0  0
  3  7  1  0  0  0  0
  4  8  1  0  0  0  0
  4  9  1  0  0  0  0
  5 10  1  6  0  0  0
  5  4  1  0  0  0  0
  6  2  1  0  0  0  0
 11  5  1  0  0  0  0
 11 12  1  0  0  0  0
 12 13  1  0  0  0  0
 14 12  2  0  0  0  0
 14 15  1  0  0  0  0
 16 14  1  0  0  0  0
 17 18  1  0  0  0  0
 17 16  2  0  0  0  0
 18 11  2  0  0  0  0
 19 24  1  0  0  0  0
 19  1  1  0  0  0  0
 20 19  1  0  0  0  0
 21 19  1  0  0  0  0
 22 23  1  0  0  0  0
 22 28  1  0  0  0  0
 23 29  1  0  0  0  0
 24 23  2  0  0  0  0
 25 26  2  0  0  0  0
 25 24  1  0  0  0  0
 26 27  1  0  0  0  0
 27 22  2  0  0  0  0
 30 26  1  0  0  0  0
M  END
>  <minimizedAffinity>
-4.72247028

$$$$

 OpenBabel03252504563D

 30 32  0  0  1  0  0  0  0  0999 V2000
   38.3740   29.0260   41.3840 N   0  0  0  0  0  0  0  0  0  0  0  0
   37.2930   29.2530   42.2830 C   0  0  0  0  0  0  0  0  0  0  0  0
   36.2380   28.3270   41.7470 C   0  0  0  0  0  0  0  0  0  0  0  0
   36.8180   27.5490   40.5870 C   0  0  0  0  0  0  0  0  0  0  0  0
   38.3340   27.7820   40.7820 C   0  0  2  0  0  0  0  0  0  0  0  0
   37.0590   29.8300   43.1280 H   0  0  0  0  0  0  0  0  0  0  0  0
   35.2230   28.1760   42.1360 H   0  0  0  0  0  0  0  0  0  0  0  0
   36.4690   28.0190   39.6560 H   0  0  0  0  0  0  0  0  0  0  0  0
   36.5460   26.4960   40.6570 H   0  0  0  0  0  0  0  0  0  0  0  0
   38.7430   27.6500   39.7820 H   0  0  0  0  0  0  0  0  0  0  0  0
   38.8460   26.6970   41.6470 C   0  0  0  0  0  0  0  0  0  0  0  0
   39.7460   26.8340   42.6720 C   0  0  0  0  0  0  0  0  0  0  0  0
   40.1290   27.8060   42.8900 H   0  0  0  0  0  0  0  0  0  0  0  0
   40.1980   25.7930   43.4540 C   0  0  0  0  0  0  0  0  0  0  0  0
   40.9140   25.9710   44.2520 H   0  0  0  0  0  0  0  0  0  0  0  0
   39.7430   24.5140   43.2270 C   0  0  0  0  0  3  0  0  0  0  0  0
   38.8460   24.4000   42.2000 C   0  0  0  0  0  3  0  0  0  0  0  0
   38.4240   25.4120   41.4590 N   0  0  0  0  0  0  0  0  0  0  0  0
   39.2400   30.0460   41.1320 C   0  0  0  0  0  0  0  0  0  0  0  0
   39.9300   30.3780   41.9560 H   0  0  0  0  0  0  0  0  0  0  0  0
   40.0000   29.7170   40.3480 H   0  0  0  0  0  0  0  0  0  0  0  0
   37.2220   32.5610   39.1620 C   0  0  0  0  0  0  0  0  0  0  0  0
   37.7100   31.2900   39.5620 C   0  0  0  0  0  0  0  0  0  0  0  0
   38.6600   31.2660   40.5690 C   0  0  0  0  0  0  0  0  0  0  0  0
   39.0660   32.4390   41.1070 N   0  0  0  0  0  0  0  0  0  0  0  0
   38.5850   33.6590   40.7070 C   0  0  0  0  0  0  0  0  0  0  0  0
   37.6590   33.7110   39.7300 N   0  0  0  0  0  0  0  0  0  0  0  0
   36.4900   32.5240   38.3810 H   0  0  0  0  0  0  0  0  0  0  0  0
   37.3840   30.3680   39.1300 H   0  0  0  0  0  0  0  0  0  0  0  0
   38.9930   34.5150   41.2170 H   0  0  0  0  0  0  0  0  0  0  0  0
  1  2  1  0  0  0  0
  2  6  1  0  0  0  0
  3  7  1  0  0  0  0
  3  2  2  0  0  0  0
  4  9  1  0  0  0  0
  4  5  1  0  0  0  0
  4  3  1  0  0  0  0
  5 10  1  6  0  0  0
  5  1  1  0  0  0  0
  5 11  1  0  0  0  0
  8  4  1  0  0  0  0
 11 12  1  0  0  0  0
 12 13  1  0  0  0  0
 12 14  2  0  0  0  0
 14 15  1  0  0  0  0
 16 14  1  0  0  0  0
 17 16  2  0  0  0  0
 18 11  2  0  0  0  0
 18 17  1  0  0  0  0
 19  1  1  0  0  0  0
 19 20  1  0  0  0  0
 21 19  1  0  0  0  0
 22 23  2  0  0  0  0
 22 27  1  0  0  0  0
 23 24  1  0  0  0  0
 24 25  2  0  0  0  0
 24 19  1  0  0  0  0
 26 25  1  0  0  0  0
 26 30  1  0  0  0  0
 27 26  2  0  0  0  0
 28 22  1  0  0  0  0
 29 23  1  0  0  0  0
M  END
>  <minimizedAffinity>
-4.69692612

$$$$

 OpenBabel03252504563D

 30 32  0  0  1  0  0  0  0  0999 V2000
   36.8730   28.5920   41.6160 N   0  0  0  0  0  0  0  0  0  0  0  0
   37.0220   28.1710   40.2630 C   0  0  0  0  0  0  0  0  0  0  0  0
   36.5770   29.3870   39.5040 C   0  0  0  0  0  0  0  0  0  0  0  0
   36.2630   30.4890   40.4910 C   0  0  0  0  0  0  0  0  0  0  0  0
   36.9480   29.9630   41.7730 C   0  0  2  0  0  0  0  0  0  0  0  0
   37.3260   27.3290   39.7130 H   0  0  0  0  0  0  0  0  0  0  0  0
   36.5250   29.5110   38.4140 H   0  0  0  0  0  0  0  0  0  0  0  0
   35.1710   30.5260   40.6200 H   0  0  0  0  0  0  0  0  0  0  0  0
   36.6810   31.4370   40.1530 H   0  0  0  0  0  0  0  0  0  0  0  0
   36.3940   30.4480   42.5750 H   0  0  0  0  0  0  0  0  0  0  0  0
   38.3350   30.4770   41.7820 C   0  0  0  0  0  0  0  0  0  0  0  0
   39.3770   29.9830   42.5240 C   0  0  0  0  0  0  0  0  0  0  0  0
   39.1990   29.1480   43.1640 H   0  0  0  0  0  0  0  0  0  0  0  0
   40.6570   30.4940   42.5030 C   0  0  0  0  0  0  0  0  0  0  0  0
   41.4380   30.0550   43.1180 H   0  0  0  0  0  0  0  0  0  0  0  0
   40.9550   31.5700   41.6990 C   0  0  0  0  0  3  0  0  0  0  0  0
   39.9010   32.0470   40.9670 C   0  0  0  0  0  3  0  0  0  0  0  0
   38.6780   31.5430   41.0000 N   0  0  0  0  0  0  0  0  0  0  0  0
   36.5770   27.6590   42.5620 C   0  0  0  0  0  0  0  0  0  0  0  0
   36.4460   27.9990   43.6260 H   0  0  0  0  0  0  0  0  0  0  0  0
   35.5430   27.2230   42.3570 H   0  0  0  0  0  0  0  0  0  0  0  0
   38.0950   24.2170   42.2130 C   0  0  0  0  0  0  0  0  0  0  0  0
   37.1110   25.2350   42.1220 C   0  0  0  0  0  0  0  0  0  0  0  0
   37.4500   26.4850   42.6110 C   0  0  0  0  0  0  0  0  0  0  0  0
   38.6810   26.6640   43.1430 N   0  0  0  0  0  0  0  0  0  0  0  0
   39.6190   25.6670   43.2250 C   0  0  0  0  0  0  0  0  0  0  0  0
   39.3160   24.4410   42.7540 N   0  0  0  0  0  0  0  0  0  0  0  0
   37.7840   23.2700   41.8200 H   0  0  0  0  0  0  0  0  0  0  0  0
   36.1410   25.0850   41.7020 H   0  0  0  0  0  0  0  0  0  0  0  0
   40.5600   25.9420   43.6720 H   0  0  0  0  0  0  0  0  0  0  0  0
  1  5  1  0  0  0  0
  1 19  1  0  0  0  0
  2  1  1  0  0  0  0
  3  2  2  0  0  0  0
  3  4  1  0  0  0  0
  4  8  1  0  0  0  0
  4  5  1  0  0  0  0
  5 11  1  0  0  0  0
  5 10  1  1  0  0  0
  6  2  1  0  0  0  0
  7  3  1  0  0  0  0
  9  4  1  0  0  0  0
 11 12  1  0  0  0  0
 12 13  1  0  0  0  0
 14 12  2  0  0  0  0
 14 15  1  0  0  0  0
 16 14  1  0  0  0  0
 17 18  1  0  0  0  0
 17 16  2  0  0  0  0
 18 11  2  0  0  0  0
 19 24  1  0  0  0  0
 19 20  1  0  0  0  0
 21 19  1  0  0  0  0
 22 27  1  0  0  0  0
 23 22  2  0  0  0  0
 23 24  1  0  0  0  0
 24 25  2  0  0  0  0
 25 26  1  0  0  0  0
 26 30  1  0  0  0  0
 27 26  2  0  0  0  0
 28 22  1  0  0  0  0
 29 23  1  0  0  0  0
M  END
>  <minimizedAffinity>
-4.68038654

$$$$
