REMARK  Name = 
REMARK  2 active torsions:
REMARK  status: ('A' for Active; 'I' for Inactive)
REMARK    1  A    between atoms: C_2  and  N_7
REMARK    2  A    between atoms: C_8  and  C_24
REMARK                            x       y       z     vdW  Elec       q    Type
REMARK                         _______ _______ _______ _____ _____    ______ ____
ROOT
ATOM      1  N   UNL     1      44.282  34.395  41.975  0.00  0.00    +0.000 N 
ATOM      2  C   UNL     1      44.466  33.411  40.956  0.00  0.00    +0.000 C 
ATOM      3  C   UNL     1      43.802  33.707  39.665  0.00  0.00    +0.000 C 
ATOM      4  N   UNL     1      42.602  34.420  39.684  0.00  0.00    +0.000 NA
ATOM      5  C   UNL     1      42.355  35.286  40.770  0.00  0.00    +0.000 C 
ATOM      6  C   UNL     1      43.627  35.591  41.538  0.00  0.00    +0.000 C 
ATOM      7  H   UNL     1      44.092  32.428  41.369  0.00  0.00    +0.000 HD
ATOM      8  H   UNL     1      44.525  34.205  38.985  0.00  0.00    +0.000 HD
ATOM      9  H   UNL     1      43.605  32.711  39.172  0.00  0.00    +0.000 HD
ATOM     10  H   UNL     1      42.472  34.946  38.787  0.00  0.00    +0.000 HD
ATOM     11  H   UNL     1      41.943  36.295  40.486  0.00  0.00    +0.000 HD
ATOM     12  H   UNL     1      41.636  34.823  41.462  0.00  0.00    +0.000 HD
ATOM     13  H   UNL     1      44.261  36.175  40.805  0.00  0.00    +0.000 HD
ATOM     14  H   UNL     1      43.354  36.314  42.299  0.00  0.00    +0.000 HD
ENDROOT
BRANCH   1  16
ATOM     15  C   UNL     1      44.648  35.139  44.206  0.00  0.00    +0.000 A 
ATOM     16  C   UNL     1      44.750  34.111  43.275  0.00  0.00    +0.000 A 
ATOM     17  C   UNL     1      45.304  32.918  43.702  0.00  0.00    +0.000 A 
ATOM     18  N   UNL     1      45.734  32.749  44.978  0.00  0.00    +0.000 NA
ATOM     19  C   UNL     1      45.620  33.778  45.869  0.00  0.00    +0.000 A 
ATOM     20  N   UNL     1      45.089  34.935  45.479  0.00  0.00    +0.000 NA
ATOM     21  H   UNL     1      44.253  36.134  44.080  0.00  0.00    +0.000 HD
ATOM     22  H   UNL     1      45.382  32.127  42.997  0.00  0.00    +0.000 HD
ATOM     23  H   UNL     1      45.978  33.587  46.869  0.00  0.00    +0.000 HD
ENDBRANCH   1  16
BRANCH   2  24
ATOM     24  C   UNL     1      45.907  33.198  40.654  0.00  0.00    +0.000 A 
ATOM     25  C   UNL     1      46.318  32.567  39.496  0.00  0.00    +0.000 A 
ATOM     26  H   UNL     1      45.623  32.211  38.770  0.00  0.00    +0.000 HD
ATOM     27  C   UNL     1      47.644  32.337  39.166  0.00  0.00    +0.000 A 
ATOM     28  H   UNL     1      47.947  31.841  38.255  0.00  0.00    +0.000 HD
ATOM     29  C   UNL     1      48.633  32.748  40.019  0.00  0.00    +0.000 A 
ATOM     30  C   UNL     1      48.222  33.379  41.174  0.00  0.00    +0.000 A 
ATOM     31  N   UNL     1      46.946  33.580  41.453  0.00  0.00    +0.000 NA
ENDBRANCH   2  24
TORSDOF 2
