
 OpenBabel03252508303D

 38 41  0  0  1  0  0  0  0  0999 V2000
   39.0420   32.0980   41.9790 N   0  0  0  0  0  0  0  0  0  0  0  0
   39.4130   33.0970   40.9750 C   0  0  2  0  0  0  0  0  0  0  0  0
   38.3560   33.2960   39.9490 C   0  0  0  0  0  0  0  0  0  0  0  0
   37.0980   32.6730   40.3140 N   0  0  0  0  0  0  0  0  0  0  0  0
   37.2020   31.3150   40.7090 C   0  0  0  0  0  0  0  0  0  0  0  0
   38.5870   30.9350   41.1790 C   0  0  2  0  0  0  0  0  0  0  0  0
   39.9370   31.8810   42.4740 H   0  0  0  0  0  0  0  0  0  0  0  0
   39.6640   34.0250   41.5230 H   0  0  0  0  0  0  0  0  0  0  0  0
   38.1480   34.3820   39.8830 H   0  0  0  0  0  0  0  0  0  0  0  0
   38.5290   32.8320   38.9610 H   0  0  0  0  0  0  0  0  0  0  0  0
   36.4410   32.7790   39.5350 H   0  0  0  0  0  0  0  0  0  0  0  0
   36.5330   31.1910   41.6070 H   0  0  0  0  0  0  0  0  0  0  0  0
   36.7960   30.5810   39.9570 H   0  0  0  0  0  0  0  0  0  0  0  0
   39.2680   30.7910   40.3080 H   0  0  0  0  0  0  0  0  0  0  0  0
   38.5430   29.7450   42.0350 C   0  0  0  0  0  0  0  0  0  0  0  0
   39.6070   28.9890   42.4220 C   0  0  0  0  0  0  0  0  0  0  0  0
   40.5870   29.2800   42.0750 H   0  0  0  0  0  0  0  0  0  0  0  0
   39.5560   27.8720   43.2270 C   0  0  0  0  0  0  0  0  0  0  0  0
   40.4710   27.3360   43.4800 H   0  0  0  0  0  0  0  0  0  0  0  0
   38.2950   27.4960   43.6770 C   0  0  0  0  0  3  0  0  0  0  0  0
   37.2250   28.2750   43.2760 C   0  0  0  0  0  3  0  0  0  0  0  0
   37.3380   29.3510   42.4900 N   0  0  0  0  0  0  0  0  0  0  0  0
   42.0740   31.8670   38.8700 C   0  0  0  0  0  0  0  0  0  0  0  0
   42.7140   32.2090   40.0680 C   0  0  0  0  0  0  0  0  0  0  0  0
   41.7860   32.6960   40.9720 C   0  0  0  0  0  0  0  0  0  0  0  0
   40.6270   32.6440   40.3210 N   0  0  0  0  0  0  0  0  0  0  0  0
   40.7940   32.1600   39.0980 N   0  0  0  0  0  0  0  0  0  0  0  0
   43.8070   32.0540   40.1270 H   0  0  0  0  0  0  0  0  0  0  0  0
   42.2850   32.9520   41.9010 H   0  0  0  0  0  0  0  0  0  0  0  0
   42.9090   29.9390   35.7550 C   0  0  0  0  0  0  0  0  0  0  0  0
   42.1330   30.3820   36.8720 C   0  0  0  0  0  0  0  0  0  0  0  0
   42.7360   31.3050   37.6910 C   0  0  0  0  0  0  0  0  0  0  0  0
   43.9910   31.7390   37.4150 N   0  0  0  0  0  0  0  0  0  0  0  0
   44.6950   31.2980   36.3490 C   0  0  0  0  0  0  0  0  0  0  0  0
   44.1310   30.4010   35.5380 N   0  0  0  0  0  0  0  0  0  0  0  0
   42.4040   29.2140   35.1330 H   0  0  0  0  0  0  0  0  0  0  0  0
   41.1370   30.0390   37.0930 H   0  0  0  0  0  0  0  0  0  0  0  0
   45.6720   31.7220   36.2490 H   0  0  0  0  0  0  0  0  0  0  0  0
  1  7  1  0  0  0  0
  2  8  1  1  0  0  0
  2  1  1  0  0  0  0
  3  4  1  0  0  0  0
  3  2  1  0  0  0  0
  4  5  1  0  0  0  0
  5  6  1  0  0  0  0
  5 12  1  0  0  0  0
  6 14  1  6  0  0  0
  6  1  1  0  0  0  0
  6 15  1  0  0  0  0
  9  3  1  0  0  0  0
 10  3  1  0  0  0  0
 11  4  1  0  0  0  0
 13  5  1  0  0  0  0
 15 16  2  0  0  0  0
 15 22  1  0  0  0  0
 16 18  1  0  0  0  0
 17 16  1  0  0  0  0
 18 19  1  0  0  0  0
 18 20  2  0  0  0  0
 21 20  1  0  0  0  0
 22 21  2  0  0  0  0
 23 27  2  0  0  0  0
 23 24  1  0  0  0  0
 24 28  1  0  0  0  0
 24 25  2  0  0  0  0
 25 29  1  0  0  0  0
 26 25  1  0  0  0  0
 26  2  1  0  0  0  0
 27 26  1  0  0  0  0
 30 31  1  0  0  0  0
 31 37  1  0  0  0  0
 31 32  2  0  0  0  0
 32 23  1  0  0  0  0
 33 32  1  0  0  0  0
 34 33  2  0  0  0  0
 35 30  2  0  0  0  0
 35 34  1  0  0  0  0
 36 30  1  0  0  0  0
 38 34  1  0  0  0  0
M  END
>  <minimizedAffinity>
-5.74286985

$$$$

 OpenBabel03252508303D

 38 41  0  0  1  0  0  0  0  0999 V2000
   36.5460   30.9200   39.8710 N   0  0  0  0  0  0  0  0  0  0  0  0
   36.9910   31.7850   38.7750 C   0  0  2  0  0  0  0  0  0  0  0  0
   37.2900   31.0250   37.5330 C   0  0  0  0  0  0  0  0  0  0  0  0
   36.8200   29.6540   37.5900 N   0  0  0  0  0  0  0  0  0  0  0  0
   37.2120   28.9410   38.7520 C   0  0  0  0  0  0  0  0  0  0  0  0
   37.5630   29.8420   39.9140 C   0  0  2  0  0  0  0  0  0  0  0  0
   36.6090   31.5250   40.7210 H   0  0  0  0  0  0  0  0  0  0  0  0
   36.2060   32.5530   38.6340 H   0  0  0  0  0  0  0  0  0  0  0  0
   36.7320   31.5010   36.7030 H   0  0  0  0  0  0  0  0  0  0  0  0
   38.3560   30.8610   37.2950 H   0  0  0  0  0  0  0  0  0  0  0  0
   37.1250   29.1670   36.7410 H   0  0  0  0  0  0  0  0  0  0  0  0
   36.3090   28.3550   39.0860 H   0  0  0  0  0  0  0  0  0  0  0  0
   38.0010   28.1580   38.5720 H   0  0  0  0  0  0  0  0  0  0  0  0
   38.5780   30.2800   39.7730 H   0  0  0  0  0  0  0  0  0  0  0  0
   37.4540   29.1230   41.1870 C   0  0  0  0  0  0  0  0  0  0  0  0
   36.6860   28.0260   41.4320 C   0  0  0  0  0  0  0  0  0  0  0  0
   36.0920   27.6320   40.6200 H   0  0  0  0  0  0  0  0  0  0  0  0
   36.5900   27.3570   42.6330 C   0  0  0  0  0  0  0  0  0  0  0  0
   35.9440   26.4840   42.7250 H   0  0  0  0  0  0  0  0  0  0  0  0
   37.3540   27.8610   43.6800 C   0  0  0  0  0  3  0  0  0  0  0  0
   38.1290   28.9760   43.4140 C   0  0  0  0  0  3  0  0  0  0  0  0
   38.1800   29.5830   42.2240 N   0  0  0  0  0  0  0  0  0  0  0  0
   40.2410   33.2330   39.3740 C   0  0  0  0  0  0  0  0  0  0  0  0
   39.4370   33.7610   40.3920 C   0  0  0  0  0  0  0  0  0  0  0  0
   38.1480   33.2700   40.2730 C   0  0  0  0  0  0  0  0  0  0  0  0
   38.1920   32.4730   39.2090 N   0  0  0  0  0  0  0  0  0  0  0  0
   39.4100   32.4510   38.6860 N   0  0  0  0  0  0  0  0  0  0  0  0
   39.9100   34.4570   41.1100 H   0  0  0  0  0  0  0  0  0  0  0  0
   37.5310   33.6750   41.0690 H   0  0  0  0  0  0  0  0  0  0  0  0
   43.6330   33.9950   37.9470 C   0  0  0  0  0  0  0  0  0  0  0  0
   42.2290   33.7160   37.9560 C   0  0  0  0  0  0  0  0  0  0  0  0
   41.6650   33.5180   39.1920 C   0  0  0  0  0  0  0  0  0  0  0  0
   42.4340   33.5940   40.3080 N   0  0  0  0  0  0  0  0  0  0  0  0
   43.7580   33.8600   40.2610 C   0  0  0  0  0  0  0  0  0  0  0  0
   44.3300   34.0560   39.0720 N   0  0  0  0  0  0  0  0  0  0  0  0
   44.0420   34.1450   36.9590 H   0  0  0  0  0  0  0  0  0  0  0  0
   41.6180   33.6560   37.0720 H   0  0  0  0  0  0  0  0  0  0  0  0
   44.2430   33.8910   41.2140 H   0  0  0  0  0  0  0  0  0  0  0  0
  1  6  1  0  0  0  0
  1  7  1  0  0  0  0
  2  8  1  6  0  0  0
  2 26  1  0  0  0  0
  2  1  1  0  0  0  0
  3  4  1  0  0  0  0
  3  2  1  0  0  0  0
  4  5  1  0  0  0  0
  5 12  1  0  0  0  0
  5  6  1  0  0  0  0
  6 14  1  6  0  0  0
  6 15  1  0  0  0  0
  9  3  1  0  0  0  0
 10  3  1  0  0  0  0
 11  4  1  0  0  0  0
 13  5  1  0  0  0  0
 15 16  2  0  0  0  0
 15 22  1  0  0  0  0
 16 18  1  0  0  0  0
 17 16  1  0  0  0  0
 18 19  1  0  0  0  0
 18 20  2  0  0  0  0
 21 20  1  0  0  0  0
 22 21  2  0  0  0  0
 23 24  1  0  0  0  0
 24 28  1  0  0  0  0
 25 24  2  0  0  0  0
 25 29  1  0  0  0  0
 26 25  1  0  0  0  0
 27 26  1  0  0  0  0
 27 23  2  0  0  0  0
 30 31  2  0  0  0  0
 30 35  1  0  0  0  0
 31 32  1  0  0  0  0
 32 23  1  0  0  0  0
 32 33  2  0  0  0  0
 34 33  1  0  0  0  0
 34 38  1  0  0  0  0
 35 34  2  0  0  0  0
 36 30  1  0  0  0  0
 37 31  1  0  0  0  0
M  END
>  <minimizedAffinity>
-5.71269464

$$$$

 OpenBabel03252508303D

 38 41  0  0  1  0  0  0  0  0999 V2000
   37.0660   30.1210   42.0900 N   0  0  0  0  0  0  0  0  0  0  0  0
   36.3370   30.8680   41.0620 C   0  0  2  0  0  0  0  0  0  0  0  0
   35.3630   30.0230   40.3240 C   0  0  0  0  0  0  0  0  0  0  0  0
   35.1490   28.7350   40.9550 N   0  0  0  0  0  0  0  0  0  0  0  0
   36.3370   28.0230   41.2650 C   0  0  0  0  0  0  0  0  0  0  0  0
   37.5520   28.9130   41.3800 C   0  0  2  0  0  0  0  0  0  0  0  0
   37.8620   30.7450   42.3500 H   0  0  0  0  0  0  0  0  0  0  0  0
   35.8650   31.7320   41.5690 H   0  0  0  0  0  0  0  0  0  0  0  0
   34.3820   30.5380   40.3490 H   0  0  0  0  0  0  0  0  0  0  0  0
   35.6520   29.7020   39.3070 H   0  0  0  0  0  0  0  0  0  0  0  0
   34.5320   28.1750   40.3580 H   0  0  0  0  0  0  0  0  0  0  0  0
   36.1860   27.5830   42.2920 H   0  0  0  0  0  0  0  0  0  0  0  0
   36.5280   27.1310   40.6050 H   0  0  0  0  0  0  0  0  0  0  0  0
   37.9220   29.1990   40.3670 H   0  0  0  0  0  0  0  0  0  0  0  0
   38.6010   28.2710   42.1790 C   0  0  0  0  0  0  0  0  0  0  0  0
   38.4670   27.1440   42.9300 C   0  0  0  0  0  0  0  0  0  0  0  0
   37.5000   26.6620   42.9510 H   0  0  0  0  0  0  0  0  0  0  0  0
   39.4580   26.5460   43.6780 C   0  0  0  0  0  0  0  0  0  0  0  0
   39.2460   25.6410   44.2470 H   0  0  0  0  0  0  0  0  0  0  0  0
   40.7030   27.1640   43.6510 C   0  0  0  0  0  3  0  0  0  0  0  0
   40.8230   28.3080   42.8830 C   0  0  0  0  0  3  0  0  0  0  0  0
   39.8200   28.8410   42.1770 N   0  0  0  0  0  0  0  0  0  0  0  0
   39.0930   32.2910   39.2180 C   0  0  0  0  0  0  0  0  0  0  0  0
   38.1640   31.9400   38.2300 C   0  0  0  0  0  0  0  0  0  0  0  0
   37.0430   31.3800   38.8190 C   0  0  0  0  0  0  0  0  0  0  0  0
   37.3080   31.3990   40.1230 N   0  0  0  0  0  0  0  0  0  0  0  0
   38.5000   31.9300   40.3550 N   0  0  0  0  0  0  0  0  0  0  0  0
   38.4330   32.1440   37.1770 H   0  0  0  0  0  0  0  0  0  0  0  0
   36.3230   31.1180   38.0510 H   0  0  0  0  0  0  0  0  0  0  0  0
   42.2100   33.6690   37.6340 C   0  0  0  0  0  0  0  0  0  0  0  0
   40.9400   33.0140   37.7130 C   0  0  0  0  0  0  0  0  0  0  0  0
   40.3910   32.9210   38.9680 C   0  0  0  0  0  0  0  0  0  0  0  0
   41.0500   33.4360   40.0370 N   0  0  0  0  0  0  0  0  0  0  0  0
   42.2490   34.0490   39.9240 C   0  0  0  0  0  0  0  0  0  0  0  0
   42.8040   34.1520   38.7160 N   0  0  0  0  0  0  0  0  0  0  0  0
   42.6120   33.7240   36.6330 H   0  0  0  0  0  0  0  0  0  0  0  0
   40.4160   32.6060   36.8670 H   0  0  0  0  0  0  0  0  0  0  0  0
   42.6570   34.4090   40.8460 H   0  0  0  0  0  0  0  0  0  0  0  0
  1  7  1  0  0  0  0
  2  8  1  1  0  0  0
  2  1  1  0  0  0  0
  3  9  1  0  0  0  0
  3  4  1  0  0  0  0
  3  2  1  0  0  0  0
  4  5  1  0  0  0  0
  5  6  1  0  0  0  0
  5 12  1  0  0  0  0
  6 14  1  6  0  0  0
  6  1  1  0  0  0  0
  6 15  1  0  0  0  0
 10  3  1  0  0  0  0
 11  4  1  0  0  0  0
 13  5  1  0  0  0  0
 15 16  1  0  0  0  0
 16 17  1  0  0  0  0
 16 18  2  0  0  0  0
 18 19  1  0  0  0  0
 20 18  1  0  0  0  0
 21 20  2  0  0  0  0
 22 15  2  0  0  0  0
 22 21  1  0  0  0  0
 23 27  2  0  0  0  0
 24 25  2  0  0  0  0
 24 23  1  0  0  0  0
 25 26  1  0  0  0  0
 26 27  1  0  0  0  0
 26  2  1  0  0  0  0
 28 24  1  0  0  0  0
 29 25  1  0  0  0  0
 30 31  2  0  0  0  0
 30 35  1  0  0  0  0
 31 32  1  0  0  0  0
 32 23  1  0  0  0  0
 32 33  2  0  0  0  0
 34 33  1  0  0  0  0
 34 38  1  0  0  0  0
 35 34  2  0  0  0  0
 36 30  1  0  0  0  0
 37 31  1  0  0  0  0
M  END
>  <minimizedAffinity>
-5.68321466

$$$$

 OpenBabel03252508303D

 38 41  0  0  1  0  0  0  0  0999 V2000
   36.5970   29.9300   41.9260 N   0  0  0  0  0  0  0  0  0  0  0  0
   36.4260   28.4760   41.9820 C   0  0  2  0  0  0  0  0  0  0  0  0
   37.6230   27.7810   42.5220 C   0  0  0  0  0  0  0  0  0  0  0  0
   38.5770   28.6930   43.1230 N   0  0  0  0  0  0  0  0  0  0  0  0
   38.9310   29.8010   42.3100 C   0  0  0  0  0  0  0  0  0  0  0  0
   37.9030   30.1130   41.2480 C   0  0  2  0  0  0  0  0  0  0  0  0
   35.8130   30.2610   41.3190 H   0  0  0  0  0  0  0  0  0  0  0  0
   35.5100   28.2840   42.5740 H   0  0  0  0  0  0  0  0  0  0  0  0
   37.2870   27.1130   43.3390 H   0  0  0  0  0  0  0  0  0  0  0  0
   38.2730   27.2680   41.7900 H   0  0  0  0  0  0  0  0  0  0  0  0
   39.4080   28.1630   43.4030 H   0  0  0  0  0  0  0  0  0  0  0  0
   38.9490   30.7010   42.9880 H   0  0  0  0  0  0  0  0  0  0  0  0
   39.9730   29.7500   41.8870 H   0  0  0  0  0  0  0  0  0  0  0  0
   37.9880   29.3930   40.4010 H   0  0  0  0  0  0  0  0  0  0  0  0
   38.0220   31.5020   40.7930 C   0  0  0  0  0  0  0  0  0  0  0  0
   37.1230   32.1830   40.0320 C   0  0  0  0  0  0  0  0  0  0  0  0
   36.2260   31.6640   39.7230 H   0  0  0  0  0  0  0  0  0  0  0  0
   37.2430   33.4880   39.6090 C   0  0  0  0  0  0  0  0  0  0  0  0
   36.4620   33.9420   38.9990 H   0  0  0  0  0  0  0  0  0  0  0  0
   38.3950   34.1580   40.0050 C   0  0  0  0  0  3  0  0  0  0  0  0
   39.2990   33.4530   40.7800 C   0  0  0  0  0  3  0  0  0  0  0  0
   39.1260   32.1820   41.1590 N   0  0  0  0  0  0  0  0  0  0  0  0
   35.4600   27.8020   38.5710 C   0  0  0  0  0  0  0  0  0  0  0  0
   36.3070   26.7370   38.9050 C   0  0  0  0  0  0  0  0  0  0  0  0
   36.7460   26.8800   40.2100 C   0  0  0  0  0  0  0  0  0  0  0  0
   36.1730   28.0040   40.6330 N   0  0  0  0  0  0  0  0  0  0  0  0
   35.4240   28.5400   39.6800 N   0  0  0  0  0  0  0  0  0  0  0  0
   36.4980   25.9720   38.1300 H   0  0  0  0  0  0  0  0  0  0  0  0
   37.3940   26.0490   40.4670 H   0  0  0  0  0  0  0  0  0  0  0  0
   34.4150   28.9910   35.1630 C   0  0  0  0  0  0  0  0  0  0  0  0
   35.1540   28.9580   36.3880 C   0  0  0  0  0  0  0  0  0  0  0  0
   34.7960   27.9770   37.2790 C   0  0  0  0  0  0  0  0  0  0  0  0
   33.7950   27.1130   36.9700 N   0  0  0  0  0  0  0  0  0  0  0  0
   33.1180   27.1740   35.8020 C   0  0  0  0  0  0  0  0  0  0  0  0
   33.4480   28.1180   34.9200 N   0  0  0  0  0  0  0  0  0  0  0  0
   34.7240   29.7740   34.4870 H   0  0  0  0  0  0  0  0  0  0  0  0
   35.9480   29.6420   36.6340 H   0  0  0  0  0  0  0  0  0  0  0  0
   32.3550   26.4330   35.6870 H   0  0  0  0  0  0  0  0  0  0  0  0
  1  2  1  0  0  0  0
  2  3  1  0  0  0  0
  2  8  1  1  0  0  0
  3  4  1  0  0  0  0
  3  9  1  0  0  0  0
  4 11  1  0  0  0  0
  5 12  1  0  0  0  0
  5  4  1  0  0  0  0
  6 14  1  6  0  0  0
  6  1  1  0  0  0  0
  6  5  1  0  0  0  0
  7  1  1  0  0  0  0
 10  3  1  0  0  0  0
 13  5  1  0  0  0  0
 15 22  1  0  0  0  0
 15  6  1  0  0  0  0
 16 15  2  0  0  0  0
 17 16  1  0  0  0  0
 18 20  2  0  0  0  0
 18 16  1  0  0  0  0
 19 18  1  0  0  0  0
 20 21  1  0  0  0  0
 21 22  2  0  0  0  0
 23 24  1  0  0  0  0
 23 27  2  0  0  0  0
 24 25  2  0  0  0  0
 25 29  1  0  0  0  0
 25 26  1  0  0  0  0
 26  2  1  0  0  0  0
 27 26  1  0  0  0  0
 28 24  1  0  0  0  0
 30 31  1  0  0  0  0
 31 37  1  0  0  0  0
 31 32  2  0  0  0  0
 32 23  1  0  0  0  0
 33 32  1  0  0  0  0
 34 33  2  0  0  0  0
 35 30  2  0  0  0  0
 35 34  1  0  0  0  0
 36 30  1  0  0  0  0
 38 34  1  0  0  0  0
M  END
>  <minimizedAffinity>
-5.59938717

$$$$

 OpenBabel03252508303D

 38 41  0  0  1  0  0  0  0  0999 V2000
   39.1620   31.4500   39.6440 N   0  0  0  0  0  0  0  0  0  0  0  0
   37.7960   30.9250   39.7190 C   0  0  2  0  0  0  0  0  0  0  0  0
   36.8090   31.9590   40.1250 C   0  0  0  0  0  0  0  0  0  0  0  0
   37.3570   33.3010   40.0910 N   0  0  0  0  0  0  0  0  0  0  0  0
   38.5930   33.4530   40.7720 C   0  0  0  0  0  0  0  0  0  0  0  0
   39.3480   32.1550   40.9350 C   0  0  2  0  0  0  0  0  0  0  0  0
   39.7650   30.5980   39.5960 H   0  0  0  0  0  0  0  0  0  0  0  0
   37.5710   30.4760   38.7330 H   0  0  0  0  0  0  0  0  0  0  0  0
   35.9850   31.9500   39.3840 H   0  0  0  0  0  0  0  0  0  0  0  0
   36.4470   31.9180   41.1680 H   0  0  0  0  0  0  0  0  0  0  0  0
   36.6550   33.9520   40.4550 H   0  0  0  0  0  0  0  0  0  0  0  0
   39.2410   34.1000   40.1150 H   0  0  0  0  0  0  0  0  0  0  0  0
   38.5200   34.0240   41.7400 H   0  0  0  0  0  0  0  0  0  0  0  0
   38.9050   31.5480   41.7590 H   0  0  0  0  0  0  0  0  0  0  0  0
   40.7770   32.4020   41.1510 C   0  0  0  0  0  0  0  0  0  0  0  0
   41.6230   31.6430   41.9000 C   0  0  0  0  0  0  0  0  0  0  0  0
   41.2190   30.7690   42.3910 H   0  0  0  0  0  0  0  0  0  0  0  0
   42.9660   31.8830   42.0980 C   0  0  0  0  0  0  0  0  0  0  0  0
   43.5580   31.2100   42.7180 H   0  0  0  0  0  0  0  0  0  0  0  0
   43.4880   33.0060   41.4670 C   0  0  0  0  0  3  0  0  0  0  0  0
   42.6150   33.7660   40.7090 C   0  0  0  0  0  3  0  0  0  0  0  0
   41.3180   33.4820   40.5550 N   0  0  0  0  0  0  0  0  0  0  0  0
   38.2370   28.0340   41.8320 C   0  0  0  0  0  0  0  0  0  0  0  0
   37.1680   28.7260   42.4160 C   0  0  0  0  0  0  0  0  0  0  0  0
   36.8940   29.8690   41.6840 C   0  0  0  0  0  0  0  0  0  0  0  0
   37.7830   29.8500   40.6940 N   0  0  0  0  0  0  0  0  0  0  0  0
   38.5630   28.7820   40.7800 N   0  0  0  0  0  0  0  0  0  0  0  0
   36.7140   28.2940   43.3270 H   0  0  0  0  0  0  0  0  0  0  0  0
   36.0610   30.3970   42.1350 H   0  0  0  0  0  0  0  0  0  0  0  0
   40.2400   25.4110   43.6290 C   0  0  0  0  0  0  0  0  0  0  0  0
   39.8150   26.7210   43.2400 C   0  0  0  0  0  0  0  0  0  0  0  0
   38.7930   26.7720   42.3250 C   0  0  0  0  0  0  0  0  0  0  0  0
   38.2500   25.6230   41.8490 N   0  0  0  0  0  0  0  0  0  0  0  0
   38.6770   24.4020   42.2400 C   0  0  0  0  0  0  0  0  0  0  0  0
   39.6690   24.3250   43.1280 N   0  0  0  0  0  0  0  0  0  0  0  0
   41.0450   25.4080   44.3490 H   0  0  0  0  0  0  0  0  0  0  0  0
   40.2440   27.6330   43.6170 H   0  0  0  0  0  0  0  0  0  0  0  0
   38.1620   23.5800   41.7870 H   0  0  0  0  0  0  0  0  0  0  0  0
  1  2  1  0  0  0  0
  1  6  1  0  0  0  0
  2  8  1  6  0  0  0
  2  3  1  0  0  0  0
  2 26  1  0  0  0  0
  3 10  1  0  0  0  0
  4  3  1  0  0  0  0
  4 11  1  0  0  0  0
  4  5  1  0  0  0  0
  5  6  1  0  0  0  0
  5 13  1  0  0  0  0
  6 15  1  0  0  0  0
  6 14  1  1  0  0  0
  7  1  1  0  0  0  0
  9  3  1  0  0  0  0
 12  5  1  0  0  0  0
 15 16  1  0  0  0  0
 16 18  2  0  0  0  0
 16 17  1  0  0  0  0
 18 19  1  0  0  0  0
 20 18  1  0  0  0  0
 21 20  2  0  0  0  0
 22 21  1  0  0  0  0
 22 15  2  0  0  0  0
 23 32  1  0  0  0  0
 23 24  1  0  0  0  0
 24 28  1  0  0  0  0
 25 29  1  0  0  0  0
 25 24  2  0  0  0  0
 26 27  1  0  0  0  0
 26 25  1  0  0  0  0
 27 23  2  0  0  0  0
 30 36  1  0  0  0  0
 31 37  1  0  0  0  0
 31 30  1  0  0  0  0
 32 31  2  0  0  0  0
 33 34  2  0  0  0  0
 33 32  1  0  0  0  0
 34 35  1  0  0  0  0
 35 30  2  0  0  0  0
 38 34  1  0  0  0  0
M  END
>  <minimizedAffinity>
-5.56688404

$$$$

 OpenBabel03252508303D

 38 41  0  0  1  0  0  0  0  0999 V2000
   36.1990   31.1460   40.0370 N   0  0  0  0  0  0  0  0  0  0  0  0
   37.1790   31.5340   41.0550 C   0  0  2  0  0  0  0  0  0  0  0  0
   38.2050   32.4730   40.5320 C   0  0  0  0  0  0  0  0  0  0  0  0
   37.8600   33.0100   39.2290 N   0  0  0  0  0  0  0  0  0  0  0  0
   37.4950   32.0350   38.2650 C   0  0  0  0  0  0  0  0  0  0  0  0
   37.0280   30.7360   38.8780 C   0  0  2  0  0  0  0  0  0  0  0  0
   35.7060   30.3230   40.4510 H   0  0  0  0  0  0  0  0  0  0  0  0
   36.6080   31.9470   41.9080 H   0  0  0  0  0  0  0  0  0  0  0  0
   38.2460   33.3440   41.2160 H   0  0  0  0  0  0  0  0  0  0  0  0
   39.2020   32.0510   40.3160 H   0  0  0  0  0  0  0  0  0  0  0  0
   38.6390   33.5840   38.8930 H   0  0  0  0  0  0  0  0  0  0  0  0
   36.6030   32.4490   37.7140 H   0  0  0  0  0  0  0  0  0  0  0  0
   38.2660   31.8690   37.4600 H   0  0  0  0  0  0  0  0  0  0  0  0
   37.8990   30.1380   39.2340 H   0  0  0  0  0  0  0  0  0  0  0  0
   36.1990   29.9780   37.9340 C   0  0  0  0  0  0  0  0  0  0  0  0
   35.0650   29.2860   38.2310 C   0  0  0  0  0  0  0  0  0  0  0  0
   34.7270   29.2840   39.2570 H   0  0  0  0  0  0  0  0  0  0  0  0
   34.2930   28.5760   37.3380 C   0  0  0  0  0  0  0  0  0  0  0  0
   33.3990   28.0540   37.6790 H   0  0  0  0  0  0  0  0  0  0  0  0
   34.7250   28.5770   36.0160 C   0  0  0  0  0  3  0  0  0  0  0  0
   35.8780   29.2860   35.7310 C   0  0  0  0  0  3  0  0  0  0  0  0
   36.5880   29.9570   36.6450 N   0  0  0  0  0  0  0  0  0  0  0  0
   38.3310   28.2470   42.0000 C   0  0  0  0  0  0  0  0  0  0  0  0
   39.3660   29.1020   42.4000 C   0  0  0  0  0  0  0  0  0  0  0  0
   39.0370   30.4110   42.0930 C   0  0  0  0  0  0  0  0  0  0  0  0
   37.8380   30.3280   41.5230 N   0  0  0  0  0  0  0  0  0  0  0  0
   37.4270   29.0690   41.4690 N   0  0  0  0  0  0  0  0  0  0  0  0
   40.2520   28.6450   42.8790 H   0  0  0  0  0  0  0  0  0  0  0  0
   39.8380   31.0700   42.4130 H   0  0  0  0  0  0  0  0  0  0  0  0
   37.3770   24.6150   42.1160 C   0  0  0  0  0  0  0  0  0  0  0  0
   37.2220   26.0200   41.9010 C   0  0  0  0  0  0  0  0  0  0  0  0
   38.3220   26.7940   42.1770 C   0  0  0  0  0  0  0  0  0  0  0  0
   39.4640   26.2130   42.6250 N   0  0  0  0  0  0  0  0  0  0  0  0
   39.5750   24.8800   42.8170 C   0  0  0  0  0  0  0  0  0  0  0  0
   38.5200   24.1070   42.5550 N   0  0  0  0  0  0  0  0  0  0  0  0
   36.4930   24.0380   41.8880 H   0  0  0  0  0  0  0  0  0  0  0  0
   36.3170   26.4820   41.5450 H   0  0  0  0  0  0  0  0  0  0  0  0
   40.5300   24.5550   43.1720 H   0  0  0  0  0  0  0  0  0  0  0  0
  1  7  1  0  0  0  0
  1  2  1  0  0  0  0
  2 26  1  0  0  0  0
  2  8  1  1  0  0  0
  3  2  1  0  0  0  0
  3  9  1  0  0  0  0
  4  3  1  0  0  0  0
  5  6  1  0  0  0  0
  5  4  1  0  0  0  0
  6 14  1  1  0  0  0
  6  1  1  0  0  0  0
 10  3  1  0  0  0  0
 11  4  1  0  0  0  0
 12  5  1  0  0  0  0
 13  5  1  0  0  0  0
 15 16  1  0  0  0  0
 15  6  1  0  0  0  0
 16 17  1  0  0  0  0
 18 19  1  0  0  0  0
 18 16  2  0  0  0  0
 20 18  1  0  0  0  0
 21 20  2  0  0  0  0
 21 22  1  0  0  0  0
 22 15  2  0  0  0  0
 23 32  1  0  0  0  0
 23 24  1  0  0  0  0
 24 28  1  0  0  0  0
 25 24  2  0  0  0  0
 25 29  1  0  0  0  0
 26 25  1  0  0  0  0
 27 26  1  0  0  0  0
 27 23  2  0  0  0  0
 30 35  1  0  0  0  0
 31 30  2  0  0  0  0
 31 32  1  0  0  0  0
 32 33  2  0  0  0  0
 33 34  1  0  0  0  0
 34 38  1  0  0  0  0
 35 34  2  0  0  0  0
 36 30  1  0  0  0  0
 37 31  1  0  0  0  0
M  END
>  <minimizedAffinity>
-5.56034946

$$$$

 OpenBabel03252508303D

 38 41  0  0  1  0  0  0  0  0999 V2000
   37.0490   29.1500   42.3140 N   0  0  0  0  0  0  0  0  0  0  0  0
   36.9670   30.5040   41.7600 C   0  0  2  0  0  0  0  0  0  0  0  0
   36.0100   30.6000   40.6270 C   0  0  0  0  0  0  0  0  0  0  0  0
   35.1760   29.4210   40.4970 N   0  0  0  0  0  0  0  0  0  0  0  0
   35.8850   28.1920   40.4880 C   0  0  0  0  0  0  0  0  0  0  0  0
   37.2500   28.2870   41.1270 C   0  0  2  0  0  0  0  0  0  0  0  0
   37.9060   29.1660   42.9130 H   0  0  0  0  0  0  0  0  0  0  0  0
   36.7120   31.1790   42.6000 H   0  0  0  0  0  0  0  0  0  0  0  0
   35.3180   31.4390   40.8390 H   0  0  0  0  0  0  0  0  0  0  0  0
   36.4450   30.6500   39.6120 H   0  0  0  0  0  0  0  0  0  0  0  0
   34.5980   29.5180   39.6560 H   0  0  0  0  0  0  0  0  0  0  0  0
   35.2970   27.4790   41.1340 H   0  0  0  0  0  0  0  0  0  0  0  0
   35.9230   27.6880   39.4810 H   0  0  0  0  0  0  0  0  0  0  0  0
   37.9730   28.7730   40.4300 H   0  0  0  0  0  0  0  0  0  0  0  0
   37.7200   26.9670   41.5610 C   0  0  0  0  0  0  0  0  0  0  0  0
   37.0020   25.8100   41.5480 C   0  0  0  0  0  0  0  0  0  0  0  0
   35.9850   25.8490   41.1860 H   0  0  0  0  0  0  0  0  0  0  0  0
   37.4520   24.5740   41.9590 C   0  0  0  0  0  0  0  0  0  0  0  0
   36.7940   23.7060   41.9070 H   0  0  0  0  0  0  0  0  0  0  0  0
   38.7600   24.5210   42.4250 C   0  0  0  0  0  3  0  0  0  0  0  0
   39.4770   25.7040   42.4300 C   0  0  0  0  0  3  0  0  0  0  0  0
   38.9830   26.8770   42.0190 N   0  0  0  0  0  0  0  0  0  0  0  0
   39.9770   31.5760   40.0840 C   0  0  0  0  0  0  0  0  0  0  0  0
   40.4080   31.2170   41.3680 C   0  0  0  0  0  0  0  0  0  0  0  0
   39.3310   30.7770   42.1180 C   0  0  0  0  0  0  0  0  0  0  0  0
   38.2900   30.8770   41.2950 N   0  0  0  0  0  0  0  0  0  0  0  0
   38.6660   31.3410   40.1120 N   0  0  0  0  0  0  0  0  0  0  0  0
   41.4850   31.3260   41.5960 H   0  0  0  0  0  0  0  0  0  0  0  0
   39.6710   30.4920   43.1080 H   0  0  0  0  0  0  0  0  0  0  0  0
   42.1580   31.8990   37.0420 C   0  0  0  0  0  0  0  0  0  0  0  0
   41.3350   31.2600   38.0220 C   0  0  0  0  0  0  0  0  0  0  0  0
   40.8430   32.0720   39.0130 C   0  0  0  0  0  0  0  0  0  0  0  0
   41.1460   33.3950   39.0190 N   0  0  0  0  0  0  0  0  0  0  0  0
   41.9280   33.9650   38.0750 C   0  0  0  0  0  0  0  0  0  0  0  0
   42.4180   33.1970   37.1010 N   0  0  0  0  0  0  0  0  0  0  0  0
   42.5280   31.2310   36.2780 H   0  0  0  0  0  0  0  0  0  0  0  0
   41.0930   30.2110   38.0190 H   0  0  0  0  0  0  0  0  0  0  0  0
   42.0860   35.0160   38.1990 H   0  0  0  0  0  0  0  0  0  0  0  0
  1  7  1  0  0  0  0
  2  1  1  0  0  0  0
  2  8  1  1  0  0  0
  3  9  1  0  0  0  0
  3  2  1  0  0  0  0
  4  3  1  0  0  0  0
  5  4  1  0  0  0  0
  5  6  1  0  0  0  0
  5 12  1  0  0  0  0
  6 14  1  6  0  0  0
  6 15  1  0  0  0  0
  6  1  1  0  0  0  0
 10  3  1  0  0  0  0
 11  4  1  0  0  0  0
 13  5  1  0  0  0  0
 15 22  1  0  0  0  0
 16 15  2  0  0  0  0
 16 18  1  0  0  0  0
 17 16  1  0  0  0  0
 18 20  2  0  0  0  0
 19 18  1  0  0  0  0
 20 21  1  0  0  0  0
 22 21  2  0  0  0  0
 23 27  2  0  0  0  0
 23 24  1  0  0  0  0
 24 28  1  0  0  0  0
 24 25  2  0  0  0  0
 25 29  1  0  0  0  0
 26  2  1  0  0  0  0
 26 25  1  0  0  0  0
 27 26  1  0  0  0  0
 30 35  2  0  0  0  0
 30 31  1  0  0  0  0
 31 32  2  0  0  0  0
 32 33  1  0  0  0  0
 32 23  1  0  0  0  0
 34 38  1  0  0  0  0
 34 33  2  0  0  0  0
 35 34  1  0  0  0  0
 36 30  1  0  0  0  0
 37 31  1  0  0  0  0
M  END
>  <minimizedAffinity>
-5.48714733

$$$$

 OpenBabel03252508303D

 38 41  0  0  1  0  0  0  0  0999 V2000
   37.7890   29.4870   39.9330 N   0  0  0  0  0  0  0  0  0  0  0  0
   37.2090   28.3150   40.5920 C   0  0  2  0  0  0  0  0  0  0  0  0
   35.9170   28.6180   41.2620 C   0  0  0  0  0  0  0  0  0  0  0  0
   35.3840   29.9150   40.8900 N   0  0  0  0  0  0  0  0  0  0  0  0
   36.3040   30.9890   41.0060 C   0  0  0  0  0  0  0  0  0  0  0  0
   37.7470   30.5430   40.9730 C   0  0  2  0  0  0  0  0  0  0  0  0
   38.7750   29.2080   39.7260 H   0  0  0  0  0  0  0  0  0  0  0  0
   37.1220   27.5250   39.8220 H   0  0  0  0  0  0  0  0  0  0  0  0
   35.1730   27.8750   40.9130 H   0  0  0  0  0  0  0  0  0  0  0  0
   35.9380   28.7190   42.3610 H   0  0  0  0  0  0  0  0  0  0  0  0
   34.5400   30.0940   41.4420 H   0  0  0  0  0  0  0  0  0  0  0  0
   36.1650   31.6300   40.0900 H   0  0  0  0  0  0  0  0  0  0  0  0
   36.0970   31.6850   41.8670 H   0  0  0  0  0  0  0  0  0  0  0  0
   38.0430   30.1090   41.9570 H   0  0  0  0  0  0  0  0  0  0  0  0
   38.6290   31.6470   40.5800 C   0  0  0  0  0  0  0  0  0  0  0  0
   39.9380   31.5450   40.2190 C   0  0  0  0  0  0  0  0  0  0  0  0
   40.3880   30.5630   40.2160 H   0  0  0  0  0  0  0  0  0  0  0  0
   40.7590   32.5880   39.8510 C   0  0  0  0  0  0  0  0  0  0  0  0
   41.7980   32.3990   39.5780 H   0  0  0  0  0  0  0  0  0  0  0  0
   40.1830   33.8530   39.8520 C   0  0  0  0  0  3  0  0  0  0  0  0
   38.8520   33.9400   40.2200 C   0  0  0  0  0  3  0  0  0  0  0  0
   38.1050   32.8870   40.5700 N   0  0  0  0  0  0  0  0  0  0  0  0
   39.9840   27.2400   42.6320 C   0  0  0  0  0  0  0  0  0  0  0  0
   38.8730   27.1320   43.4790 C   0  0  0  0  0  0  0  0  0  0  0  0
   37.7290   27.5160   42.8010 C   0  0  0  0  0  0  0  0  0  0  0  0
   38.1570   27.8450   41.5850 N   0  0  0  0  0  0  0  0  0  0  0  0
   39.4690   27.6840   41.4870 N   0  0  0  0  0  0  0  0  0  0  0  0
   39.0480   26.7750   44.5110 H   0  0  0  0  0  0  0  0  0  0  0  0
   36.8700   27.4230   43.4580 H   0  0  0  0  0  0  0  0  0  0  0  0
   43.1810   25.4490   43.4640 C   0  0  0  0  0  0  0  0  0  0  0  0
   41.8050   25.6100   43.1050 C   0  0  0  0  0  0  0  0  0  0  0  0
   41.3600   26.9050   43.0010 C   0  0  0  0  0  0  0  0  0  0  0  0
   42.2120   27.9350   43.2340 N   0  0  0  0  0  0  0  0  0  0  0  0
   43.5070   27.7450   43.5710 C   0  0  0  0  0  0  0  0  0  0  0  0
   43.9630   26.4970   43.6790 N   0  0  0  0  0  0  0  0  0  0  0  0
   43.4960   24.4190   43.5370 H   0  0  0  0  0  0  0  0  0  0  0  0
   41.1280   24.7940   42.9200 H   0  0  0  0  0  0  0  0  0  0  0  0
   44.0670   28.6440   43.7260 H   0  0  0  0  0  0  0  0  0  0  0  0
  1  2  1  0  0  0  0
  1  6  1  0  0  0  0
  2  8  1  6  0  0  0
  2  3  1  0  0  0  0
  2 26  1  0  0  0  0
  3 10  1  0  0  0  0
  4  5  1  0  0  0  0
  4  3  1  0  0  0  0
  4 11  1  0  0  0  0
  5 13  1  0  0  0  0
  6  5  1  0  0  0  0
  6 14  1  1  0  0  0
  7  1  1  0  0  0  0
  9  3  1  0  0  0  0
 12  5  1  0  0  0  0
 15  6  1  0  0  0  0
 16 15  2  0  0  0  0
 17 16  1  0  0  0  0
 18 20  2  0  0  0  0
 18 16  1  0  0  0  0
 19 18  1  0  0  0  0
 20 21  1  0  0  0  0
 21 22  2  0  0  0  0
 22 15  1  0  0  0  0
 23 32  1  0  0  0  0
 23 24  1  0  0  0  0
 24 28  1  0  0  0  0
 25 29  1  0  0  0  0
 25 24  2  0  0  0  0
 26 25  1  0  0  0  0
 27 26  1  0  0  0  0
 27 23  2  0  0  0  0
 30 36  1  0  0  0  0
 30 35  1  0  0  0  0
 31 30  2  0  0  0  0
 32 31  1  0  0  0  0
 32 33  2  0  0  0  0
 33 34  1  0  0  0  0
 34 35  2  0  0  0  0
 34 38  1  0  0  0  0
 37 31  1  0  0  0  0
M  END
>  <minimizedAffinity>
-5.48216534

$$$$

 OpenBabel03252508303D

 38 41  0  0  1  0  0  0  0  0999 V2000
   38.4720   30.6380   41.6960 N   0  0  0  0  0  0  0  0  0  0  0  0
   38.1080   31.7050   40.7600 C   0  0  2  0  0  0  0  0  0  0  0  0
   36.6530   31.7250   40.4550 C   0  0  0  0  0  0  0  0  0  0  0  0
   35.8830   30.8770   41.3450 N   0  0  0  0  0  0  0  0  0  0  0  0
   36.3770   29.5540   41.4770 C   0  0  0  0  0  0  0  0  0  0  0  0
   37.8400   29.4250   41.1220 C   0  0  2  0  0  0  0  0  0  0  0  0
   39.5140   30.5800   41.6310 H   0  0  0  0  0  0  0  0  0  0  0  0
   38.4700   32.6540   41.2000 H   0  0  0  0  0  0  0  0  0  0  0  0
   36.2860   32.7560   40.6260 H   0  0  0  0  0  0  0  0  0  0  0  0
   36.3450   31.3170   39.4750 H   0  0  0  0  0  0  0  0  0  0  0  0
   34.9070   30.8740   41.0330 H   0  0  0  0  0  0  0  0  0  0  0  0
   36.3080   29.2950   42.5720 H   0  0  0  0  0  0  0  0  0  0  0  0
   35.7490   28.7710   40.9670 H   0  0  0  0  0  0  0  0  0  0  0  0
   37.9730   29.4230   40.0150 H   0  0  0  0  0  0  0  0  0  0  0  0
   38.4280   28.2330   41.7410 C   0  0  0  0  0  0  0  0  0  0  0  0
   38.8950   28.1320   43.0160 C   0  0  0  0  0  0  0  0  0  0  0  0
   38.8330   29.0060   43.6480 H   0  0  0  0  0  0  0  0  0  0  0  0
   39.4470   27.0070   43.5890 C   0  0  0  0  0  0  0  0  0  0  0  0
   39.7910   27.0310   44.6240 H   0  0  0  0  0  0  0  0  0  0  0  0
   39.5260   25.8810   42.7780 C   0  0  0  0  0  3  0  0  0  0  0  0
   39.0470   26.0000   41.4860 C   0  0  0  0  0  3  0  0  0  0  0  0
   38.5220   27.1230   40.9850 N   0  0  0  0  0  0  0  0  0  0  0  0
   40.4240   31.0960   38.0610 C   0  0  0  0  0  0  0  0  0  0  0  0
   39.1910   31.2770   37.4210 C   0  0  0  0  0  0  0  0  0  0  0  0
   38.2070   31.5280   38.3630 C   0  0  0  0  0  0  0  0  0  0  0  0
   38.8460   31.4920   39.5290 N   0  0  0  0  0  0  0  0  0  0  0  0
   40.1360   31.2420   39.3540 N   0  0  0  0  0  0  0  0  0  0  0  0
   39.1700   31.2020   36.3180 H   0  0  0  0  0  0  0  0  0  0  0  0
   37.2560   31.6760   37.8620 H   0  0  0  0  0  0  0  0  0  0  0  0
   43.2120   29.5680   36.0590 C   0  0  0  0  0  0  0  0  0  0  0  0
   41.9240   29.6760   36.6720 C   0  0  0  0  0  0  0  0  0  0  0  0
   41.6930   30.8270   37.3840 C   0  0  0  0  0  0  0  0  0  0  0  0
   42.6600   31.7760   37.4700 N   0  0  0  0  0  0  0  0  0  0  0  0
   43.8660   31.6400   36.8770 C   0  0  0  0  0  0  0  0  0  0  0  0
   44.1150   30.5310   36.1800 N   0  0  0  0  0  0  0  0  0  0  0  0
   43.3590   28.6510   35.5080 H   0  0  0  0  0  0  0  0  0  0  0  0
   41.1570   28.9250   36.6040 H   0  0  0  0  0  0  0  0  0  0  0  0
   44.5340   32.4630   37.0250 H   0  0  0  0  0  0  0  0  0  0  0  0
  2  8  1  1  0  0  0
  2  1  1  0  0  0  0
  3  9  1  0  0  0  0
  3  2  1  0  0  0  0
  3  4  1  0  0  0  0
  4  5  1  0  0  0  0
  5 12  1  0  0  0  0
  6 14  1  6  0  0  0
  6  5  1  0  0  0  0
  6  1  1  0  0  0  0
  6 15  1  0  0  0  0
  7  1  1  0  0  0  0
 10  3  1  0  0  0  0
 11  4  1  0  0  0  0
 13  5  1  0  0  0  0
 15 16  1  0  0  0  0
 16 18  2  0  0  0  0
 16 17  1  0  0  0  0
 18 19  1  0  0  0  0
 20 18  1  0  0  0  0
 21 20  2  0  0  0  0
 22 21  1  0  0  0  0
 22 15  2  0  0  0  0
 23 27  2  0  0  0  0
 24 23  1  0  0  0  0
 24 25  2  0  0  0  0
 25 26  1  0  0  0  0
 26  2  1  0  0  0  0
 27 26  1  0  0  0  0
 28 24  1  0  0  0  0
 29 25  1  0  0  0  0
 30 35  2  0  0  0  0
 30 31  1  0  0  0  0
 31 32  2  0  0  0  0
 32 33  1  0  0  0  0
 32 23  1  0  0  0  0
 34 38  1  0  0  0  0
 34 33  2  0  0  0  0
 35 34  1  0  0  0  0
 36 30  1  0  0  0  0
 37 31  1  0  0  0  0
M  END
>  <minimizedAffinity>
-5.40883017

$$$$
