
 OpenBabel03252508323D

 31 33  0  0  1  0  0  0  0  0999 V2000
   44.3170   34.2280   42.4530 N   0  0  0  0  0  0  0  0  0  0  0  0
   44.8070   33.8010   41.1810 C   0  0  1  0  0  0  0  0  0  0  0  0
   44.0290   34.2760   40.0130 C   0  0  0  0  0  0  0  0  0  0  0  0
   42.6530   34.4600   40.1610 N   0  0  0  0  0  0  0  0  0  0  0  0
   42.1510   34.7390   41.4500 C   0  0  0  0  0  0  0  0  0  0  0  0
   43.2530   35.1850   42.3920 C   0  0  0  0  0  0  0  0  0  0  0  0
   44.8350   32.6710   41.1960 H   0  0  0  0  0  0  0  0  0  0  0  0
   44.4920   35.2040   39.6150 H   0  0  0  0  0  0  0  0  0  0  0  0
   44.1900   33.5170   39.1930 H   0  0  0  0  0  0  0  0  0  0  0  0
   42.3040   35.1850   39.4900 H   0  0  0  0  0  0  0  0  0  0  0  0
   41.3870   35.5660   41.4900 H   0  0  0  0  0  0  0  0  0  0  0  0
   41.6790   33.8390   41.8710 H   0  0  0  0  0  0  0  0  0  0  0  0
   43.6000   36.1740   41.9660 H   0  0  0  0  0  0  0  0  0  0  0  0
   42.7650   35.4460   43.3250 H   0  0  0  0  0  0  0  0  0  0  0  0
   45.0330   34.5530   44.7000 C   0  0  0  0  0  0  0  0  0  0  0  0
   44.9080   33.6910   43.6160 C   0  0  0  0  0  0  0  0  0  0  0  0
   45.3780   32.4000   43.7720 C   0  0  0  0  0  0  0  0  0  0  0  0
   45.9410   31.9820   44.9340 N   0  0  0  0  0  0  0  0  0  0  0  0
   46.0490   32.8530   45.9800 C   0  0  0  0  0  0  0  0  0  0  0  0
   45.6020   34.1010   45.8520 N   0  0  0  0  0  0  0  0  0  0  0  0
   44.7350   35.5850   44.7850 H   0  0  0  0  0  0  0  0  0  0  0  0
   45.2820   31.7340   42.9490 H   0  0  0  0  0  0  0  0  0  0  0  0
   46.5050   32.4670   46.8790 H   0  0  0  0  0  0  0  0  0  0  0  0
   46.2120   34.2350   40.9620 C   0  0  0  0  0  0  0  0  0  0  0  0
   46.8770   35.0290   41.8760 C   0  0  0  0  0  0  0  0  0  0  0  0
   46.4130   35.3590   42.7780 H   0  0  0  0  0  0  0  0  0  0  0  0
   48.1820   35.4670   41.7190 C   0  0  0  0  0  0  0  0  0  0  0  0
   48.6860   36.0880   42.4460 H   0  0  0  0  0  0  0  0  0  0  0  0
   48.8850   35.1090   40.6010 C   0  0  0  0  0  3  0  0  0  0  0  0
   48.2220   34.3170   39.6890 C   0  0  0  0  0  3  0  0  0  0  0  0
   46.9750   33.9190   39.8730 N   0  0  0  0  0  0  0  0  0  0  0  0
  1 16  1  0  0  0  0
  2  7  1  6  0  0  0
  2  1  1  0  0  0  0
  3  4  1  0  0  0  0
  3  2  1  0  0  0  0
  4  5  1  0  0  0  0
  5 11  1  0  0  0  0
  5 12  1  0  0  0  0
  5  6  1  0  0  0  0
  6  1  1  0  0  0  0
  6 14  1  0  0  0  0
  8  3  1  0  0  0  0
  9  3  1  0  0  0  0
 10  4  1  0  0  0  0
 13  6  1  0  0  0  0
 15 21  1  0  0  0  0
 15 20  1  0  0  0  0
 16 17  1  0  0  0  0
 16 15  2  0  0  0  0
 17 18  2  0  0  0  0
 18 19  1  0  0  0  0
 19 23  1  0  0  0  0
 20 19  2  0  0  0  0
 22 17  1  0  0  0  0
 24  2  1  0  0  0  0
 24 25  1  0  0  0  0
 25 26  1  0  0  0  0
 27 25  2  0  0  0  0
 27 28  1  0  0  0  0
 29 27  1  0  0  0  0
 30 31  1  0  0  0  0
 30 29  2  0  0  0  0
 31 24  2  0  0  0  0
M  END
>  <minimizedAffinity>
-4.61751413

>  <minimizedRMSD>
1.22966397

$$$$
