
 OpenBabel03252503253D

 46 51  0  0  1  0  0  0  0  0999 V2000
   35.1910   28.8530   37.8090 C   0  0  1  0  0  0  0  0  0  0  0  0
   35.3360   28.0340   36.6100 C   0  0  0  0  0  0  0  0  0  0  0  0
   33.9870   28.1390   37.2170 C   0  0  2  0  0  0  0  0  0  0  0  0
   35.2050   29.9530   37.7170 H   0  0  0  0  0  0  0  0  0  0  0  0
   35.6910   28.5170   35.7170 H   0  0  0  0  0  0  0  0  0  0  0  0
   35.8660   27.0430   36.7950 H   0  0  0  0  0  0  0  0  0  0  0  0
   33.5670   27.3450   37.8670 H   0  0  0  0  0  0  0  0  0  0  0  0
   33.0170   29.0490   36.5430 C   0  0  0  0  0  0  0  0  0  0  0  0
   33.0710   29.3770   35.2040 C   0  0  0  0  0  0  0  0  0  0  0  0
   32.1400   30.2360   34.6430 C   0  0  0  0  0  0  0  0  0  0  0  0
   31.1370   30.7770   35.4190 C   0  0  0  0  0  0  0  0  0  0  0  0
   30.2050   31.6180   34.8940 N   0  0  0  0  0  0  0  0  0  0  0  0
   29.2320   32.1310   35.6730 C   0  0  0  0  0  0  0  0  0  0  0  0
   29.0970   31.8510   37.0550 C   0  0  0  0  0  0  0  0  0  0  0  0
   30.0340   31.0000   37.6010 C   0  0  0  0  0  0  0  0  0  0  0  0
   31.0330   30.4790   36.7830 C   0  0  0  0  0  0  0  0  0  0  0  0
   31.9860   29.6180   37.2950 C   0  0  0  0  0  0  0  0  0  0  0  0
   33.8530   28.9560   34.6020 H   0  0  0  0  0  0  0  0  0  0  0  0
   32.2150   30.4720   33.5860 H   0  0  0  0  0  0  0  0  0  0  0  0
   28.5050   32.7980   35.2240 H   0  0  0  0  0  0  0  0  0  0  0  0
   28.2890   32.3000   37.6160 H   0  0  0  0  0  0  0  0  0  0  0  0
   29.9810   30.7520   38.6510 H   0  0  0  0  0  0  0  0  0  0  0  0
   31.8490   29.4370   38.3520 H   0  0  0  0  0  0  0  0  0  0  0  0
   35.3930   29.1230   40.3020 C   0  0  0  0  0  0  0  0  0  0  0  0
   35.6800   28.3610   39.1290 C   0  0  0  0  0  0  0  0  0  0  0  0
   36.4040   27.2060   39.2770 C   0  0  0  0  0  0  0  0  0  0  0  0
   36.7950   26.8730   40.5380 N   0  0  0  0  0  0  0  0  0  0  0  0
   36.5210   27.5950   41.6290 C   0  0  0  0  0  0  0  0  0  0  0  0
   35.8150   28.7280   41.5130 N   0  0  0  0  0  0  0  0  0  0  0  0
   34.8160   30.0480   40.2020 H   0  0  0  0  0  0  0  0  0  0  0  0
   36.6380   26.6070   38.4180 H   0  0  0  0  0  0  0  0  0  0  0  0
   37.0110   27.0950   42.9380 C   0  0  2  0  0  0  0  0  0  0  0  0
   37.2260   27.9700   44.0770 C   0  0  0  0  0  0  0  0  0  0  0  0
   38.4440   27.6020   43.3110 C   0  0  2  0  0  0  0  0  0  0  0  0
   36.9770   25.9670   42.9860 H   0  0  0  0  0  0  0  0  0  0  0  0
   36.8020   28.9760   44.0720 H   0  0  0  0  0  0  0  0  0  0  0  0
   37.0940   27.4680   45.0860 H   0  0  0  0  0  0  0  0  0  0  0  0
   39.1330   26.7900   43.6470 H   0  0  0  0  0  0  0  0  0  0  0  0
   39.0180   28.6770   42.4650 C   0  0  0  0  0  0  0  0  0  0  0  0
   38.8590   30.0420   42.5430 C   0  0  0  0  0  0  0  0  0  0  0  0
   38.2410   30.3910   43.3550 H   0  0  0  0  0  0  0  0  0  0  0  0
   39.4370   30.9290   41.6800 C   0  0  0  0  0  0  0  0  0  0  0  0
   39.2540   31.9790   41.8200 H   0  0  0  0  0  0  0  0  0  0  0  0
   40.2270   30.4720   40.6680 C   0  0  0  0  0  3  0  0  0  0  0  0
   40.3670   29.1020   40.6180 C   0  0  0  0  0  3  0  0  0  0  0  0
   39.8020   28.2260   41.4610 N   0  0  0  0  0  0  0  0  0  0  0  0
  1  4  1  6  0  0  0
  1 25  1  0  0  0  0
  2  6  1  0  0  0  0
  2  3  1  0  0  0  0
  2  1  1  0  0  0  0
  3  1  1  0  0  0  0
  3  7  1  1  0  0  0
  5  2  1  0  0  0  0
  8  3  1  0  0  0  0
  8 17  1  0  0  0  0
  9  8  2  0  0  0  0
 10  9  1  0  0  0  0
 10 11  2  0  0  0  0
 11 16  1  0  0  0  0
 12 11  1  0  0  0  0
 12 13  2  0  0  0  0
 13 14  1  0  0  0  0
 14 15  2  0  0  0  0
 14 21  1  0  0  0  0
 15 22  1  0  0  0  0
 16 17  2  0  0  0  0
 16 15  1  0  0  0  0
 17 23  1  0  0  0  0
 18  9  1  0  0  0  0
 19 10  1  0  0  0  0
 20 13  1  0  0  0  0
 24 29  1  0  0  0  0
 25 26  1  0  0  0  0
 25 24  2  0  0  0  0
 26 27  2  0  0  0  0
 27 28  1  0  0  0  0
 28 32  1  0  0  0  0
 29 28  2  0  0  0  0
 30 24  1  0  0  0  0
 31 26  1  0  0  0  0
 32 35  1  1  0  0  0
 32 34  1  0  0  0  0
 32 33  1  0  0  0  0
 33 37  1  0  0  0  0
 34 38  1  1  0  0  0
 34 33  1  0  0  0  0
 36 33  1  0  0  0  0
 39 40  1  0  0  0  0
 39 34  1  0  0  0  0
 40 41  1  0  0  0  0
 42 43  1  0  0  0  0
 42 40  2  0  0  0  0
 44 42  1  0  0  0  0
 45 44  2  0  0  0  0
 45 46  1  0  0  0  0
 46 39  2  0  0  0  0
M  END
>  <minimizedAffinity>
-6.82466173

$$$$

 OpenBabel03252503253D

 46 51  0  0  1  0  0  0  0  0999 V2000
   34.6080   29.1670   37.9390 C   0  0  1  0  0  0  0  0  0  0  0  0
   34.5240   28.4890   36.6490 C   0  0  0  0  0  0  0  0  0  0  0  0
   33.3140   28.4980   37.5050 C   0  0  2  0  0  0  0  0  0  0  0  0
   34.6040   30.2700   37.9710 H   0  0  0  0  0  0  0  0  0  0  0  0
   34.7050   29.0770   35.7650 H   0  0  0  0  0  0  0  0  0  0  0  0
   35.0790   27.4950   36.6180 H   0  0  0  0  0  0  0  0  0  0  0  0
   33.0220   27.6290   38.1280 H   0  0  0  0  0  0  0  0  0  0  0  0
   32.2340   29.4570   37.1320 C   0  0  0  0  0  0  0  0  0  0  0  0
   31.2610   29.8990   38.0050 C   0  0  0  0  0  0  0  0  0  0  0  0
   30.2810   30.7860   37.5900 C   0  0  0  0  0  0  0  0  0  0  0  0
   30.2650   31.2470   36.2910 C   0  0  0  0  0  0  0  0  0  0  0  0
   29.3190   32.1230   35.8570 N   0  0  0  0  0  0  0  0  0  0  0  0
   29.3280   32.5600   34.5820 C   0  0  0  0  0  0  0  0  0  0  0  0
   30.2850   32.1630   33.6170 C   0  0  0  0  0  0  0  0  0  0  0  0
   31.2500   31.2750   34.0420 C   0  0  0  0  0  0  0  0  0  0  0  0
   31.2280   30.8330   35.3620 C   0  0  0  0  0  0  0  0  0  0  0  0
   32.1830   29.9460   35.8250 C   0  0  0  0  0  0  0  0  0  0  0  0
   31.2750   29.5390   39.0160 H   0  0  0  0  0  0  0  0  0  0  0  0
   29.5320   31.1110   38.3060 H   0  0  0  0  0  0  0  0  0  0  0  0
   28.5600   33.2580   34.2680 H   0  0  0  0  0  0  0  0  0  0  0  0
   30.2280   32.5570   32.6120 H   0  0  0  0  0  0  0  0  0  0  0  0
   32.0060   30.9370   33.3480 H   0  0  0  0  0  0  0  0  0  0  0  0
   32.8880   29.6650   35.0550 H   0  0  0  0  0  0  0  0  0  0  0  0
   35.2680   29.1560   40.3660 C   0  0  0  0  0  0  0  0  0  0  0  0
   35.3350   28.5410   39.0800 C   0  0  0  0  0  0  0  0  0  0  0  0
   36.0800   27.3960   38.9560 C   0  0  0  0  0  0  0  0  0  0  0  0
   36.7010   26.9320   40.0760 N   0  0  0  0  0  0  0  0  0  0  0  0
   36.6310   27.5170   41.2750 C   0  0  0  0  0  0  0  0  0  0  0  0
   35.9100   28.6380   41.4240 N   0  0  0  0  0  0  0  0  0  0  0  0
   34.6790   30.0710   40.4820 H   0  0  0  0  0  0  0  0  0  0  0  0
   36.1530   26.9050   38.0040 H   0  0  0  0  0  0  0  0  0  0  0  0
   37.3580   26.8850   42.4030 C   0  0  2  0  0  0  0  0  0  0  0  0
   37.7200   27.6150   43.6060 C   0  0  0  0  0  0  0  0  0  0  0  0
   38.8070   27.4380   42.6100 C   0  0  2  0  0  0  0  0  0  0  0  0
   37.3870   25.7600   42.2960 H   0  0  0  0  0  0  0  0  0  0  0  0
   37.2540   28.5800   43.8120 H   0  0  0  0  0  0  0  0  0  0  0  0
   37.7840   26.9760   44.5420 H   0  0  0  0  0  0  0  0  0  0  0  0
   39.5810   26.6390   42.7120 H   0  0  0  0  0  0  0  0  0  0  0  0
   39.1790   28.6520   41.8440 C   0  0  0  0  0  0  0  0  0  0  0  0
   39.6770   28.7730   40.5660 C   0  0  0  0  0  0  0  0  0  0  0  0
   39.7970   27.8470   40.0270 H   0  0  0  0  0  0  0  0  0  0  0  0
   39.9980   29.9650   39.9800 C   0  0  0  0  0  0  0  0  0  0  0  0
   40.3820   29.9590   38.9770 H   0  0  0  0  0  0  0  0  0  0  0  0
   39.8260   31.1270   40.6710 C   0  0  0  0  0  3  0  0  0  0  0  0
   39.3250   30.9730   41.9460 C   0  0  0  0  0  3  0  0  0  0  0  0
   39.0090   29.8060   42.5270 N   0  0  0  0  0  0  0  0  0  0  0  0
  1  4  1  6  0  0  0
  1 25  1  0  0  0  0
  2  3  1  0  0  0  0
  2  1  1  0  0  0  0
  3  1  1  0  0  0  0
  3  7  1  1  0  0  0
  5  2  1  0  0  0  0
  6  2  1  0  0  0  0
  8  3  1  0  0  0  0
  8  9  1  0  0  0  0
  9 18  1  0  0  0  0
 10  9  2  0  0  0  0
 10 19  1  0  0  0  0
 11 10  1  0  0  0  0
 12 11  1  0  0  0  0
 13 12  2  0  0  0  0
 14 15  2  0  0  0  0
 14 13  1  0  0  0  0
 15 16  1  0  0  0  0
 16 17  1  0  0  0  0
 16 11  2  0  0  0  0
 17  8  2  0  0  0  0
 20 13  1  0  0  0  0
 21 14  1  0  0  0  0
 22 15  1  0  0  0  0
 23 17  1  0  0  0  0
 24 30  1  0  0  0  0
 24 29  1  0  0  0  0
 25 24  2  0  0  0  0
 26 25  1  0  0  0  0
 26 27  2  0  0  0  0
 27 28  1  0  0  0  0
 28 29  2  0  0  0  0
 28 32  1  0  0  0  0
 31 26  1  0  0  0  0
 32 35  1  1  0  0  0
 32 34  1  0  0  0  0
 32 33  1  0  0  0  0
 33 36  1  0  0  0  0
 33 37  1  0  0  0  0
 34 38  1  1  0  0  0
 34 33  1  0  0  0  0
 39 46  1  0  0  0  0
 39 34  1  0  0  0  0
 40 39  2  0  0  0  0
 41 40  1  0  0  0  0
 42 40  1  0  0  0  0
 42 44  2  0  0  0  0
 43 42  1  0  0  0  0
 44 45  1  0  0  0  0
 45 46  2  0  0  0  0
M  END
>  <minimizedAffinity>
-6.7402215

$$$$

 OpenBabel03252503253D

 46 51  0  0  1  0  0  0  0  0999 V2000
   34.6640   29.2210   38.0890 C   0  0  1  0  0  0  0  0  0  0  0  0
   34.6070   28.5120   36.8150 C   0  0  0  0  0  0  0  0  0  0  0  0
   33.3880   28.5160   37.6590 C   0  0  2  0  0  0  0  0  0  0  0  0
   34.6380   30.3250   38.0940 H   0  0  0  0  0  0  0  0  0  0  0  0
   34.7840   29.0820   35.9190 H   0  0  0  0  0  0  0  0  0  0  0  0
   35.1820   27.5290   36.8130 H   0  0  0  0  0  0  0  0  0  0  0  0
   33.1090   27.6550   38.3000 H   0  0  0  0  0  0  0  0  0  0  0  0
   32.2930   29.4430   37.2530 C   0  0  0  0  0  0  0  0  0  0  0  0
   31.2780   29.8500   38.0940 C   0  0  0  0  0  0  0  0  0  0  0  0
   30.2860   30.7090   37.6490 C   0  0  0  0  0  0  0  0  0  0  0  0
   30.3000   31.1750   36.3520 C   0  0  0  0  0  0  0  0  0  0  0  0
   29.3420   32.0240   35.8890 N   0  0  0  0  0  0  0  0  0  0  0  0
   29.3810   32.4680   34.6170 C   0  0  0  0  0  0  0  0  0  0  0  0
   30.3820   32.1040   33.6830 C   0  0  0  0  0  0  0  0  0  0  0  0
   31.3590   31.2450   34.1380 C   0  0  0  0  0  0  0  0  0  0  0  0
   31.3050   30.7950   35.4550 C   0  0  0  0  0  0  0  0  0  0  0  0
   32.2710   29.9360   35.9460 C   0  0  0  0  0  0  0  0  0  0  0  0
   31.2680   29.4870   39.1040 H   0  0  0  0  0  0  0  0  0  0  0  0
   29.5030   31.0080   38.3400 H   0  0  0  0  0  0  0  0  0  0  0  0
   28.6030   33.1430   34.2800 H   0  0  0  0  0  0  0  0  0  0  0  0
   30.3470   32.5010   32.6790 H   0  0  0  0  0  0  0  0  0  0  0  0
   32.1470   30.9320   33.4690 H   0  0  0  0  0  0  0  0  0  0  0  0
   33.0100   29.6800   35.2000 H   0  0  0  0  0  0  0  0  0  0  0  0
   36.3550   27.6080   39.0210 C   0  0  0  0  0  0  0  0  0  0  0  0
   35.3930   28.6380   39.2510 C   0  0  0  0  0  0  0  0  0  0  0  0
   35.1810   29.0380   40.5460 C   0  0  0  0  0  0  0  0  0  0  0  0
   35.9090   28.4180   41.5170 N   0  0  0  0  0  0  0  0  0  0  0  0
   36.8050   27.4550   41.2890 C   0  0  0  0  0  0  0  0  0  0  0  0
   37.0320   27.0450   40.0320 N   0  0  0  0  0  0  0  0  0  0  0  0
   36.5350   27.2770   37.9930 H   0  0  0  0  0  0  0  0  0  0  0  0
   34.4670   29.8110   40.7580 H   0  0  0  0  0  0  0  0  0  0  0  0
   37.5260   26.8820   42.4530 C   0  0  2  0  0  0  0  0  0  0  0  0
   37.7520   27.6310   43.6760 C   0  0  0  0  0  0  0  0  0  0  0  0
   38.9040   27.5650   42.7410 C   0  0  2  0  0  0  0  0  0  0  0  0
   37.6650   25.7660   42.3420 H   0  0  0  0  0  0  0  0  0  0  0  0
   37.1880   28.5460   43.8610 H   0  0  0  0  0  0  0  0  0  0  0  0
   37.8250   26.9920   44.6120 H   0  0  0  0  0  0  0  0  0  0  0  0
   39.7420   26.8410   42.8820 H   0  0  0  0  0  0  0  0  0  0  0  0
   39.2010   28.8160   42.0020 C   0  0  0  0  0  0  0  0  0  0  0  0
   38.7970   30.1080   42.2540 C   0  0  0  0  0  0  0  0  0  0  0  0
   38.1900   30.2400   43.1350 H   0  0  0  0  0  0  0  0  0  0  0  0
   39.1320   31.1790   41.4750 C   0  0  0  0  0  0  0  0  0  0  0  0
   38.7680   32.1520   41.7510 H   0  0  0  0  0  0  0  0  0  0  0  0
   39.9130   30.9970   40.3730 C   0  0  0  0  0  3  0  0  0  0  0  0
   40.3010   29.6940   40.1490 C   0  0  0  0  0  3  0  0  0  0  0  0
   39.9760   28.6380   40.9090 N   0  0  0  0  0  0  0  0  0  0  0  0
  1  4  1  6  0  0  0
  1 25  1  0  0  0  0
  2  3  1  0  0  0  0
  2  1  1  0  0  0  0
  3  1  1  0  0  0  0
  3  7  1  1  0  0  0
  5  2  1  0  0  0  0
  6  2  1  0  0  0  0
  8  3  1  0  0  0  0
  8  9  1  0  0  0  0
  9 18  1  0  0  0  0
 10  9  2  0  0  0  0
 10 19  1  0  0  0  0
 11 10  1  0  0  0  0
 12 11  1  0  0  0  0
 13 12  2  0  0  0  0
 14 15  2  0  0  0  0
 14 13  1  0  0  0  0
 15 16  1  0  0  0  0
 16 17  1  0  0  0  0
 16 11  2  0  0  0  0
 17  8  2  0  0  0  0
 20 13  1  0  0  0  0
 21 14  1  0  0  0  0
 22 15  1  0  0  0  0
 23 17  1  0  0  0  0
 24 25  2  0  0  0  0
 24 29  1  0  0  0  0
 25 26  1  0  0  0  0
 26 31  1  0  0  0  0
 26 27  2  0  0  0  0
 28 27  1  0  0  0  0
 28 32  1  0  0  0  0
 29 28  2  0  0  0  0
 30 24  1  0  0  0  0
 32 35  1  1  0  0  0
 32 34  1  0  0  0  0
 32 33  1  0  0  0  0
 33 36  1  0  0  0  0
 33 37  1  0  0  0  0
 34 38  1  1  0  0  0
 34 33  1  0  0  0  0
 39 40  1  0  0  0  0
 39 34  1  0  0  0  0
 40 41  1  0  0  0  0
 42 43  1  0  0  0  0
 42 40  2  0  0  0  0
 44 42  1  0  0  0  0
 45 44  2  0  0  0  0
 45 46  1  0  0  0  0
 46 39  2  0  0  0  0
M  END
>  <minimizedAffinity>
-6.67775917

$$$$

 OpenBabel03252503253D

 46 51  0  0  1  0  0  0  0  0999 V2000
   35.5750   29.4000   38.2080 C   0  0  1  0  0  0  0  0  0  0  0  0
   35.7310   28.4500   37.1110 C   0  0  0  0  0  0  0  0  0  0  0  0
   34.4720   28.4020   37.8920 C   0  0  2  0  0  0  0  0  0  0  0  0
   35.3600   30.4580   37.9800 H   0  0  0  0  0  0  0  0  0  0  0  0
   35.8720   28.8510   36.1220 H   0  0  0  0  0  0  0  0  0  0  0  0
   36.4640   27.6090   37.3360 H   0  0  0  0  0  0  0  0  0  0  0  0
   34.2980   27.6520   38.6900 H   0  0  0  0  0  0  0  0  0  0  0  0
   33.2670   29.0140   37.2630 C   0  0  0  0  0  0  0  0  0  0  0  0
   33.1270   29.2180   35.9050 C   0  0  0  0  0  0  0  0  0  0  0  0
   31.9810   29.7990   35.3870 C   0  0  0  0  0  0  0  0  0  0  0  0
   30.9560   30.1830   36.2240 C   0  0  0  0  0  0  0  0  0  0  0  0
   29.8170   30.7500   35.7430 N   0  0  0  0  0  0  0  0  0  0  0  0
   28.8270   31.1140   36.5830 C   0  0  0  0  0  0  0  0  0  0  0  0
   28.8820   30.9440   37.9880 C   0  0  0  0  0  0  0  0  0  0  0  0
   30.0300   30.3700   38.4900 C   0  0  0  0  0  0  0  0  0  0  0  0
   31.0430   30.0000   37.6100 C   0  0  0  0  0  0  0  0  0  0  0  0
   32.2060   29.4170   38.0780 C   0  0  0  0  0  0  0  0  0  0  0  0
   33.9260   28.9180   35.2550 H   0  0  0  0  0  0  0  0  0  0  0  0
   31.9070   29.9440   34.3130 H   0  0  0  0  0  0  0  0  0  0  0  0
   27.9330   31.5630   36.1670 H   0  0  0  0  0  0  0  0  0  0  0  0
   28.0470   31.2600   38.5990 H   0  0  0  0  0  0  0  0  0  0  0  0
   30.1270   30.2170   39.5550 H   0  0  0  0  0  0  0  0  0  0  0  0
   32.2080   29.3120   39.1540 H   0  0  0  0  0  0  0  0  0  0  0  0
   37.7210   29.0080   39.4610 C   0  0  0  0  0  0  0  0  0  0  0  0
   36.3070   29.2040   39.4920 C   0  0  0  0  0  0  0  0  0  0  0  0
   35.6860   29.1960   40.7150 C   0  0  0  0  0  0  0  0  0  0  0  0
   36.4710   29.0010   41.8110 N   0  0  0  0  0  0  0  0  0  0  0  0
   37.7930   28.8170   41.7700 C   0  0  0  0  0  0  0  0  0  0  0  0
   38.4250   28.8200   40.5870 N   0  0  0  0  0  0  0  0  0  0  0  0
   38.2310   29.0100   38.4930 H   0  0  0  0  0  0  0  0  0  0  0  0
   34.6240   29.3420   40.7780 H   0  0  0  0  0  0  0  0  0  0  0  0
   38.5120   28.6240   43.0530 C   0  0  2  0  0  0  0  0  0  0  0  0
   39.8100   27.9770   43.1320 C   0  0  0  0  0  0  0  0  0  0  0  0
   38.6450   27.1260   43.4840 C   0  0  2  0  0  0  0  0  0  0  0  0
   38.0360   29.2230   43.8850 H   0  0  0  0  0  0  0  0  0  0  0  0
   40.3980   27.8340   42.2240 H   0  0  0  0  0  0  0  0  0  0  0  0
   40.4580   28.3270   43.9960 H   0  0  0  0  0  0  0  0  0  0  0  0
   38.3470   26.9360   44.5440 H   0  0  0  0  0  0  0  0  0  0  0  0
   38.2730   26.1020   42.4780 C   0  0  0  0  0  0  0  0  0  0  0  0
   37.0520   25.5200   42.2200 C   0  0  0  0  0  0  0  0  0  0  0  0
   36.2320   25.8760   42.8230 H   0  0  0  0  0  0  0  0  0  0  0  0
   36.8470   24.5650   41.2650 C   0  0  0  0  0  0  0  0  0  0  0  0
   35.8570   24.1680   41.1360 H   0  0  0  0  0  0  0  0  0  0  0  0
   37.8910   24.1370   40.5000 C   0  0  0  0  0  3  0  0  0  0  0  0
   39.0980   24.7380   40.7820 C   0  0  0  0  0  3  0  0  0  0  0  0
   39.3060   25.6760   41.7190 N   0  0  0  0  0  0  0  0  0  0  0  0
  1  4  1  6  0  0  0
  1 25  1  0  0  0  0
  2  6  1  0  0  0  0
  2  3  1  0  0  0  0
  2  1  1  0  0  0  0
  3  1  1  0  0  0  0
  3  7  1  1  0  0  0
  5  2  1  0  0  0  0
  8  3  1  0  0  0  0
  8 17  1  0  0  0  0
  9  8  2  0  0  0  0
 10  9  1  0  0  0  0
 10 11  2  0  0  0  0
 11 16  1  0  0  0  0
 12 11  1  0  0  0  0
 12 13  2  0  0  0  0
 13 14  1  0  0  0  0
 14 15  2  0  0  0  0
 14 21  1  0  0  0  0
 15 22  1  0  0  0  0
 16 17  2  0  0  0  0
 16 15  1  0  0  0  0
 17 23  1  0  0  0  0
 18  9  1  0  0  0  0
 19 10  1  0  0  0  0
 20 13  1  0  0  0  0
 24 25  2  0  0  0  0
 24 29  1  0  0  0  0
 25 26  1  0  0  0  0
 26 31  1  0  0  0  0
 26 27  2  0  0  0  0
 28 27  1  0  0  0  0
 28 32  1  0  0  0  0
 29 28  2  0  0  0  0
 30 24  1  0  0  0  0
 32 33  1  0  0  0  0
 32 34  1  0  0  0  0
 32 35  1  1  0  0  0
 33 34  1  0  0  0  0
 33 37  1  0  0  0  0
 34 38  1  1  0  0  0
 36 33  1  0  0  0  0
 39 34  1  0  0  0  0
 40 39  1  0  0  0  0
 40 41  1  0  0  0  0
 42 40  2  0  0  0  0
 43 42  1  0  0  0  0
 44 45  2  0  0  0  0
 44 42  1  0  0  0  0
 45 46  1  0  0  0  0
 46 39  2  0  0  0  0
M  END
>  <minimizedAffinity>
-6.63404226

$$$$

 OpenBabel03252503253D

 46 51  0  0  1  0  0  0  0  0999 V2000
   36.0380   29.7500   37.5440 C   0  0  1  0  0  0  0  0  0  0  0  0
   36.0720   28.4400   36.9020 C   0  0  0  0  0  0  0  0  0  0  0  0
   34.9660   28.7160   37.8490 C   0  0  2  0  0  0  0  0  0  0  0  0
   35.7190   30.6310   36.9590 H   0  0  0  0  0  0  0  0  0  0  0  0
   36.0210   28.4110   35.8270 H   0  0  0  0  0  0  0  0  0  0  0  0
   36.8860   27.7540   37.3060 H   0  0  0  0  0  0  0  0  0  0  0  0
   34.9760   28.3490   38.8950 H   0  0  0  0  0  0  0  0  0  0  0  0
   33.6350   29.0330   37.2550 C   0  0  0  0  0  0  0  0  0  0  0  0
   33.3590   28.9640   35.9050 C   0  0  0  0  0  0  0  0  0  0  0  0
   32.1010   29.2790   35.4180 C   0  0  0  0  0  0  0  0  0  0  0  0
   31.0980   29.6670   36.2810 C   0  0  0  0  0  0  0  0  0  0  0  0
   29.8520   29.9770   35.8330 N   0  0  0  0  0  0  0  0  0  0  0  0
   28.8880   30.3500   36.6990 C   0  0  0  0  0  0  0  0  0  0  0  0
   29.0790   30.4490   38.0980 C   0  0  0  0  0  0  0  0  0  0  0  0
   30.3370   30.1380   38.5670 C   0  0  0  0  0  0  0  0  0  0  0  0
   31.3220   29.7550   37.6610 C   0  0  0  0  0  0  0  0  0  0  0  0
   32.5940   29.4310   38.0960 C   0  0  0  0  0  0  0  0  0  0  0  0
   34.1410   28.6620   35.2340 H   0  0  0  0  0  0  0  0  0  0  0  0
   31.9210   29.2140   34.3490 H   0  0  0  0  0  0  0  0  0  0  0  0
   27.9060   30.5900   36.3090 H   0  0  0  0  0  0  0  0  0  0  0  0
   28.2570   30.7560   38.7310 H   0  0  0  0  0  0  0  0  0  0  0  0
   30.5410   30.1980   39.6270 H   0  0  0  0  0  0  0  0  0  0  0  0
   32.6970   29.5260   39.1680 H   0  0  0  0  0  0  0  0  0  0  0  0
   36.5570   30.9600   39.6870 C   0  0  0  0  0  0  0  0  0  0  0  0
   36.9840   30.0800   38.6480 C   0  0  0  0  0  0  0  0  0  0  0  0
   38.2600   29.5820   38.7150 C   0  0  0  0  0  0  0  0  0  0  0  0
   39.0250   29.9680   39.7740 N   0  0  0  0  0  0  0  0  0  0  0  0
   38.6150   30.7930   40.7410 C   0  0  0  0  0  0  0  0  0  0  0  0
   37.3720   31.2950   40.6990 N   0  0  0  0  0  0  0  0  0  0  0  0
   35.5420   31.3670   39.6480 H   0  0  0  0  0  0  0  0  0  0  0  0
   38.6160   28.9160   37.9520 H   0  0  0  0  0  0  0  0  0  0  0  0
   39.5640   31.1140   41.8350 C   0  0  2  0  0  0  0  0  0  0  0  0
   40.6600   30.2330   42.2010 C   0  0  0  0  0  0  0  0  0  0  0  0
   39.4560   30.1530   43.0660 C   0  0  2  0  0  0  0  0  0  0  0  0
   39.4550   32.1860   42.1730 H   0  0  0  0  0  0  0  0  0  0  0  0
   40.9590   29.4330   41.5210 H   0  0  0  0  0  0  0  0  0  0  0  0
   41.5620   30.7640   42.6390 H   0  0  0  0  0  0  0  0  0  0  0  0
   39.3920   30.6860   44.0450 H   0  0  0  0  0  0  0  0  0  0  0  0
   38.6260   28.9350   42.8970 C   0  0  0  0  0  0  0  0  0  0  0  0
   37.2870   28.7370   43.1500 C   0  0  0  0  0  0  0  0  0  0  0  0
   36.7490   29.6020   43.5030 H   0  0  0  0  0  0  0  0  0  0  0  0
   36.6430   27.5470   42.9660 C   0  0  0  0  0  0  0  0  0  0  0  0
   35.5940   27.4880   43.1920 H   0  0  0  0  0  0  0  0  0  0  0  0
   37.3340   26.4660   42.5040 C   0  0  0  0  0  3  0  0  0  0  0  0
   38.6710   26.6980   42.2600 C   0  0  0  0  0  3  0  0  0  0  0  0
   39.3090   27.8630   42.4390 N   0  0  0  0  0  0  0  0  0  0  0  0
  1  4  1  6  0  0  0
  1  3  1  0  0  0  0
  1 25  1  0  0  0  0
  2  6  1  0  0  0  0
  2  1  1  0  0  0  0
  2  3  1  0  0  0  0
  3  7  1  1  0  0  0
  5  2  1  0  0  0  0
  8  3  1  0  0  0  0
  8 17  1  0  0  0  0
  9  8  2  0  0  0  0
 10  9  1  0  0  0  0
 10 11  2  0  0  0  0
 11 16  1  0  0  0  0
 12 11  1  0  0  0  0
 12 13  2  0  0  0  0
 13 14  1  0  0  0  0
 14 15  2  0  0  0  0
 14 21  1  0  0  0  0
 15 22  1  0  0  0  0
 16 17  2  0  0  0  0
 16 15  1  0  0  0  0
 17 23  1  0  0  0  0
 18  9  1  0  0  0  0
 19 10  1  0  0  0  0
 20 13  1  0  0  0  0
 24 29  1  0  0  0  0
 25 26  1  0  0  0  0
 25 24  2  0  0  0  0
 26 27  2  0  0  0  0
 27 28  1  0  0  0  0
 28 32  1  0  0  0  0
 29 28  2  0  0  0  0
 30 24  1  0  0  0  0
 31 26  1  0  0  0  0
 32 35  1  1  0  0  0
 32 33  1  0  0  0  0
 32 34  1  0  0  0  0
 33 37  1  0  0  0  0
 33 34  1  0  0  0  0
 34 38  1  1  0  0  0
 36 33  1  0  0  0  0
 39 34  1  0  0  0  0
 39 40  1  0  0  0  0
 40 41  1  0  0  0  0
 42 40  2  0  0  0  0
 42 43  1  0  0  0  0
 44 42  1  0  0  0  0
 45 46  1  0  0  0  0
 45 44  2  0  0  0  0
 46 39  2  0  0  0  0
M  END
>  <minimizedAffinity>
-6.35449553

$$$$

 OpenBabel03252503253D

 46 51  0  0  1  0  0  0  0  0999 V2000
   35.4560   29.4370   38.4160 C   0  0  1  0  0  0  0  0  0  0  0  0
   35.5370   28.5880   37.2330 C   0  0  0  0  0  0  0  0  0  0  0  0
   34.3360   28.4610   38.0930 C   0  0  2  0  0  0  0  0  0  0  0  0
   35.2220   30.5100   38.2970 H   0  0  0  0  0  0  0  0  0  0  0  0
   35.6060   29.0730   36.2750 H   0  0  0  0  0  0  0  0  0  0  0  0
   36.2860   27.7360   37.3320 H   0  0  0  0  0  0  0  0  0  0  0  0
   34.2210   27.6430   38.8330 H   0  0  0  0  0  0  0  0  0  0  0  0
   33.0880   29.1140   37.6050 C   0  0  0  0  0  0  0  0  0  0  0  0
   32.0580   29.5200   38.4290 C   0  0  0  0  0  0  0  0  0  0  0  0
   30.9210   30.1150   37.9080 C   0  0  0  0  0  0  0  0  0  0  0  0
   30.8010   30.3140   36.5490 C   0  0  0  0  0  0  0  0  0  0  0  0
   29.6980   30.9010   36.0090 N   0  0  0  0  0  0  0  0  0  0  0  0
   29.6070   31.0880   34.6770 C   0  0  0  0  0  0  0  0  0  0  0  0
   30.6120   30.7050   33.7560 C   0  0  0  0  0  0  0  0  0  0  0  0
   31.7350   30.1080   34.2880 C   0  0  0  0  0  0  0  0  0  0  0  0
   31.8140   29.9230   35.6660 C   0  0  0  0  0  0  0  0  0  0  0  0
   32.9270   29.3330   36.2350 C   0  0  0  0  0  0  0  0  0  0  0  0
   32.1530   29.3640   39.4870 H   0  0  0  0  0  0  0  0  0  0  0  0
   30.1310   30.4210   38.5880 H   0  0  0  0  0  0  0  0  0  0  0  0
   28.7160   31.5590   34.2800 H   0  0  0  0  0  0  0  0  0  0  0  0
   30.4680   30.8870   32.7000 H   0  0  0  0  0  0  0  0  0  0  0  0
   32.5330   29.7940   33.6320 H   0  0  0  0  0  0  0  0  0  0  0  0
   33.6650   29.0510   35.4960 H   0  0  0  0  0  0  0  0  0  0  0  0
   37.6740   28.8830   39.4660 C   0  0  0  0  0  0  0  0  0  0  0  0
   36.2780   29.1380   39.6240 C   0  0  0  0  0  0  0  0  0  0  0  0
   35.7570   29.0880   40.8910 C   0  0  0  0  0  0  0  0  0  0  0  0
   36.6150   28.7970   41.9070 N   0  0  0  0  0  0  0  0  0  0  0  0
   37.9200   28.5590   41.7480 C   0  0  0  0  0  0  0  0  0  0  0  0
   38.4560   28.6020   40.5190 N   0  0  0  0  0  0  0  0  0  0  0  0
   38.1050   28.9190   38.4620 H   0  0  0  0  0  0  0  0  0  0  0  0
   34.7110   29.2750   41.0480 H   0  0  0  0  0  0  0  0  0  0  0  0
   38.7280   28.2630   42.9570 C   0  0  2  0  0  0  0  0  0  0  0  0
   39.9870   27.5400   42.8970 C   0  0  0  0  0  0  0  0  0  0  0  0
   38.8060   26.7400   43.3080 C   0  0  2  0  0  0  0  0  0  0  0  0
   38.3590   28.8470   43.8510 H   0  0  0  0  0  0  0  0  0  0  0  0
   40.4890   27.4100   41.9370 H   0  0  0  0  0  0  0  0  0  0  0  0
   40.7240   27.8110   43.7170 H   0  0  0  0  0  0  0  0  0  0  0  0
   38.5840   26.5160   44.3800 H   0  0  0  0  0  0  0  0  0  0  0  0
   38.2910   25.7890   42.2920 C   0  0  0  0  0  0  0  0  0  0  0  0
   37.0310   25.2570   42.1400 C   0  0  0  0  0  0  0  0  0  0  0  0
   36.2950   25.5960   42.8510 H   0  0  0  0  0  0  0  0  0  0  0  0
   36.6900   24.3670   41.1610 C   0  0  0  0  0  0  0  0  0  0  0  0
   35.6800   24.0040   41.1220 H   0  0  0  0  0  0  0  0  0  0  0  0
   37.6290   23.9590   40.2600 C   0  0  0  0  0  3  0  0  0  0  0  0
   38.8790   24.5110   40.4390 C   0  0  0  0  0  3  0  0  0  0  0  0
   39.2200   25.3840   41.3990 N   0  0  0  0  0  0  0  0  0  0  0  0
  1  4  1  6  0  0  0
  1 25  1  0  0  0  0
  2  6  1  0  0  0  0
  2  3  1  0  0  0  0
  2  1  1  0  0  0  0
  3  1  1  0  0  0  0
  3  7  1  1  0  0  0
  5  2  1  0  0  0  0
  8  3  1  0  0  0  0
  8  9  1  0  0  0  0
  9 18  1  0  0  0  0
 10  9  2  0  0  0  0
 10 19  1  0  0  0  0
 11 10  1  0  0  0  0
 12 11  1  0  0  0  0
 13 12  2  0  0  0  0
 14 15  2  0  0  0  0
 14 13  1  0  0  0  0
 15 16  1  0  0  0  0
 16 17  1  0  0  0  0
 16 11  2  0  0  0  0
 17  8  2  0  0  0  0
 20 13  1  0  0  0  0
 21 14  1  0  0  0  0
 22 15  1  0  0  0  0
 23 17  1  0  0  0  0
 24 25  2  0  0  0  0
 24 29  1  0  0  0  0
 25 26  1  0  0  0  0
 26 31  1  0  0  0  0
 26 27  2  0  0  0  0
 28 27  1  0  0  0  0
 28 32  1  0  0  0  0
 29 28  2  0  0  0  0
 30 24  1  0  0  0  0
 32 34  1  0  0  0  0
 32 35  1  1  0  0  0
 33 32  1  0  0  0  0
 33 34  1  0  0  0  0
 33 37  1  0  0  0  0
 34 38  1  1  0  0  0
 36 33  1  0  0  0  0
 39 34  1  0  0  0  0
 40 39  1  0  0  0  0
 40 41  1  0  0  0  0
 42 40  2  0  0  0  0
 43 42  1  0  0  0  0
 44 45  2  0  0  0  0
 44 42  1  0  0  0  0
 45 46  1  0  0  0  0
 46 39  2  0  0  0  0
M  END
>  <minimizedAffinity>
-6.26449823

$$$$

 OpenBabel03252503253D

 46 51  0  0  1  0  0  0  0  0999 V2000
   37.1930   27.3290   41.4330 C   0  0  1  0  0  0  0  0  0  0  0  0
   36.7030   27.7390   42.7440 C   0  0  0  0  0  0  0  0  0  0  0  0
   38.1270   28.0030   42.4260 C   0  0  2  0  0  0  0  0  0  0  0  0
   36.9140   27.9190   40.5420 H   0  0  0  0  0  0  0  0  0  0  0  0
   35.8960   28.4510   42.7740 H   0  0  0  0  0  0  0  0  0  0  0  0
   36.5270   26.8700   43.4590 H   0  0  0  0  0  0  0  0  0  0  0  0
   38.9460   27.3520   42.7910 H   0  0  0  0  0  0  0  0  0  0  0  0
   38.4850   29.4040   42.0620 C   0  0  0  0  0  0  0  0  0  0  0  0
   39.5990   30.0630   42.5410 C   0  0  0  0  0  0  0  0  0  0  0  0
   39.8690   31.3690   42.1670 C   0  0  0  0  0  0  0  0  0  0  0  0
   39.0250   32.0340   41.3040 C   0  0  0  0  0  0  0  0  0  0  0  0
   39.2680   33.3150   40.9150 N   0  0  0  0  0  0  0  0  0  0  0  0
   38.4290   33.9420   40.0670 C   0  0  0  0  0  0  0  0  0  0  0  0
   37.2630   33.3470   39.5260 C   0  0  0  0  0  0  0  0  0  0  0  0
   37.0040   32.0490   39.9110 C   0  0  0  0  0  0  0  0  0  0  0  0
   37.8810   31.4160   40.7870 C   0  0  0  0  0  0  0  0  0  0  0  0
   37.6540   30.1130   41.1910 C   0  0  0  0  0  0  0  0  0  0  0  0
   40.2550   29.5430   43.2130 H   0  0  0  0  0  0  0  0  0  0  0  0
   40.7560   31.8550   42.5650 H   0  0  0  0  0  0  0  0  0  0  0  0
   38.6520   34.9620   39.7770 H   0  0  0  0  0  0  0  0  0  0  0  0
   36.6370   33.9140   38.8500 H   0  0  0  0  0  0  0  0  0  0  0  0
   36.1270   31.5460   39.5300 H   0  0  0  0  0  0  0  0  0  0  0  0
   36.7530   29.7000   40.7600 H   0  0  0  0  0  0  0  0  0  0  0  0
   38.1700   25.5490   39.9470 C   0  0  0  0  0  0  0  0  0  0  0  0
   37.4570   25.8920   41.1350 C   0  0  0  0  0  0  0  0  0  0  0  0
   37.0400   24.8690   41.9490 C   0  0  0  0  0  0  0  0  0  0  0  0
   37.3400   23.6000   41.5580 N   0  0  0  0  0  0  0  0  0  0  0  0
   38.0070   23.2910   40.4430 C   0  0  0  0  0  0  0  0  0  0  0  0
   38.4260   24.2710   39.6300 N   0  0  0  0  0  0  0  0  0  0  0  0
   38.5090   26.3530   39.2860 H   0  0  0  0  0  0  0  0  0  0  0  0
   36.5020   25.0890   42.8520 H   0  0  0  0  0  0  0  0  0  0  0  0
   38.2650   21.8580   40.1580 C   0  0  2  0  0  0  0  0  0  0  0  0
   38.5500   21.3670   38.8210 C   0  0  0  0  0  0  0  0  0  0  0  0
   37.1540   21.1770   39.2900 C   0  0  2  0  0  0  0  0  0  0  0  0
   38.4230   21.2710   41.1100 H   0  0  0  0  0  0  0  0  0  0  0  0
   38.8220   22.0720   38.0340 H   0  0  0  0  0  0  0  0  0  0  0  0
   39.2030   20.4390   38.7910 H   0  0  0  0  0  0  0  0  0  0  0  0
   36.7950   20.2050   39.7060 H   0  0  0  0  0  0  0  0  0  0  0  0
   36.1440   22.0690   38.6710 C   0  0  0  0  0  0  0  0  0  0  0  0
   34.9410   22.5200   39.1680 C   0  0  0  0  0  0  0  0  0  0  0  0
   34.7030   22.1970   40.1690 H   0  0  0  0  0  0  0  0  0  0  0  0
   34.0870   23.3340   38.4790 C   0  0  0  0  0  0  0  0  0  0  0  0
   33.1680   23.6340   38.9500 H   0  0  0  0  0  0  0  0  0  0  0  0
   34.4100   23.7460   37.2210 C   0  0  0  0  0  3  0  0  0  0  0  0
   35.6190   23.2780   36.7530 C   0  0  0  0  0  3  0  0  0  0  0  0
   36.4630   22.4790   37.4240 N   0  0  0  0  0  0  0  0  0  0  0  0
  1  4  1  6  0  0  0
  1  3  1  0  0  0  0
  1  2  1  0  0  0  0
  2  5  1  0  0  0  0
  2  6  1  0  0  0  0
  3  2  1  0  0  0  0
  3  7  1  1  0  0  0
  8  3  1  0  0  0  0
  8  9  1  0  0  0  0
  9 18  1  0  0  0  0
 10  9  2  0  0  0  0
 10 19  1  0  0  0  0
 11 10  1  0  0  0  0
 12 11  1  0  0  0  0
 13 12  2  0  0  0  0
 14 15  2  0  0  0  0
 14 13  1  0  0  0  0
 15 16  1  0  0  0  0
 16 17  1  0  0  0  0
 16 11  2  0  0  0  0
 17  8  2  0  0  0  0
 20 13  1  0  0  0  0
 21 14  1  0  0  0  0
 22 15  1  0  0  0  0
 23 17  1  0  0  0  0
 24 25  1  0  0  0  0
 25  1  1  0  0  0  0
 25 26  2  0  0  0  0
 26 31  1  0  0  0  0
 27 26  1  0  0  0  0
 28 27  2  0  0  0  0
 29 24  2  0  0  0  0
 29 28  1  0  0  0  0
 30 24  1  0  0  0  0
 32 28  1  0  0  0  0
 32 35  1  1  0  0  0
 33 34  1  0  0  0  0
 33 32  1  0  0  0  0
 34 38  1  1  0  0  0
 34 32  1  0  0  0  0
 36 33  1  0  0  0  0
 37 33  1  0  0  0  0
 39 40  1  0  0  0  0
 39 34  1  0  0  0  0
 40 41  1  0  0  0  0
 42 43  1  0  0  0  0
 42 40  2  0  0  0  0
 44 42  1  0  0  0  0
 45 44  2  0  0  0  0
 45 46  1  0  0  0  0
 46 39  2  0  0  0  0
M  END
>  <minimizedAffinity>
-6.24970531

$$$$

 OpenBabel03252503253D

 46 51  0  0  1  0  0  0  0  0999 V2000
   37.5280   30.5010   39.7970 C   0  0  1  0  0  0  0  0  0  0  0  0
   36.8650   31.4450   40.6910 C   0  0  0  0  0  0  0  0  0  0  0  0
   38.3260   31.2510   40.8500 C   0  0  2  0  0  0  0  0  0  0  0  0
   37.7090   30.7870   38.7460 H   0  0  0  0  0  0  0  0  0  0  0  0
   36.3620   32.2850   40.2440 H   0  0  0  0  0  0  0  0  0  0  0  0
   36.2280   30.9460   41.4910 H   0  0  0  0  0  0  0  0  0  0  0  0
   38.7550   30.6030   41.6410 H   0  0  0  0  0  0  0  0  0  0  0  0
   39.2100   32.3160   40.2940 C   0  0  0  0  0  0  0  0  0  0  0  0
   39.0570   33.6610   40.5590 C   0  0  0  0  0  0  0  0  0  0  0  0
   39.9110   34.5990   40.0020 C   0  0  0  0  0  0  0  0  0  0  0  0
   40.9340   34.2000   39.1700 C   0  0  0  0  0  0  0  0  0  0  0  0
   41.7920   35.0970   38.6130 N   0  0  0  0  0  0  0  0  0  0  0  0
   42.7870   34.6800   37.8050 C   0  0  0  0  0  0  0  0  0  0  0  0
   43.0210   33.3230   37.4760 C   0  0  0  0  0  0  0  0  0  0  0  0
   42.1600   32.4020   38.0330 C   0  0  0  0  0  0  0  0  0  0  0  0
   41.1370   32.8480   38.8650 C   0  0  0  0  0  0  0  0  0  0  0  0
   40.2580   31.9520   39.4450 C   0  0  0  0  0  0  0  0  0  0  0  0
   38.2590   33.9700   41.2070 H   0  0  0  0  0  0  0  0  0  0  0  0
   39.7590   35.6490   40.2340 H   0  0  0  0  0  0  0  0  0  0  0  0
   43.4530   35.4210   37.3780 H   0  0  0  0  0  0  0  0  0  0  0  0
   43.8410   33.0640   36.8200 H   0  0  0  0  0  0  0  0  0  0  0  0
   42.2910   31.3510   37.8160 H   0  0  0  0  0  0  0  0  0  0  0  0
   40.4690   30.9300   39.1630 H   0  0  0  0  0  0  0  0  0  0  0  0
   36.7680   28.5530   41.1960 C   0  0  0  0  0  0  0  0  0  0  0  0
   37.3730   29.0310   39.9950 C   0  0  0  0  0  0  0  0  0  0  0  0
   37.7920   28.1030   39.0760 C   0  0  0  0  0  0  0  0  0  0  0  0
   37.5980   26.7910   39.3820 N   0  0  0  0  0  0  0  0  0  0  0  0
   37.0320   26.3550   40.5110 C   0  0  0  0  0  0  0  0  0  0  0  0
   36.6130   27.2410   41.4260 N   0  0  0  0  0  0  0  0  0  0  0  0
   36.4290   29.2800   41.9400 H   0  0  0  0  0  0  0  0  0  0  0  0
   38.2510   28.4260   38.1600 H   0  0  0  0  0  0  0  0  0  0  0  0
   36.8820   24.8900   40.6970 C   0  0  2  0  0  0  0  0  0  0  0  0
   36.7430   24.2800   42.0070 C   0  0  0  0  0  0  0  0  0  0  0  0
   38.1010   24.2170   41.4110 C   0  0  2  0  0  0  0  0  0  0  0  0
   36.6750   24.3700   39.7160 H   0  0  0  0  0  0  0  0  0  0  0  0
   36.5000   24.9030   42.8700 H   0  0  0  0  0  0  0  0  0  0  0  0
   36.1490   23.3120   42.0140 H   0  0  0  0  0  0  0  0  0  0  0  0
   38.4770   23.3040   40.8880 H   0  0  0  0  0  0  0  0  0  0  0  0
   39.1090   25.1210   42.0160 C   0  0  0  0  0  0  0  0  0  0  0  0
   39.1030   25.7600   43.2350 C   0  0  0  0  0  0  0  0  0  0  0  0
   38.2480   25.5580   43.8600 H   0  0  0  0  0  0  0  0  0  0  0  0
   40.0990   26.5890   43.6680 C   0  0  0  0  0  0  0  0  0  0  0  0
   40.0060   27.0450   44.6370 H   0  0  0  0  0  0  0  0  0  0  0  0
   41.1810   26.8220   42.8720 C   0  0  0  0  0  3  0  0  0  0  0  0
   41.1570   26.1670   41.6600 C   0  0  0  0  0  3  0  0  0  0  0  0
   40.1820   25.3520   41.2290 N   0  0  0  0  0  0  0  0  0  0  0  0
  1  4  1  6  0  0  0
  1 25  1  0  0  0  0
  1  2  1  0  0  0  0
  1  3  1  0  0  0  0
  2  3  1  0  0  0  0
  2  6  1  0  0  0  0
  3  7  1  1  0  0  0
  5  2  1  0  0  0  0
  8  9  1  0  0  0  0
  8  3  1  0  0  0  0
  9 18  1  0  0  0  0
 10 19  1  0  0  0  0
 10  9  2  0  0  0  0
 11 10  1  0  0  0  0
 12 11  2  0  0  0  0
 13 12  1  0  0  0  0
 14 13  2  0  0  0  0
 14 15  1  0  0  0  0
 15 16  2  0  0  0  0
 16 11  1  0  0  0  0
 16 17  1  0  0  0  0
 17  8  2  0  0  0  0
 20 13  1  0  0  0  0
 21 14  1  0  0  0  0
 22 15  1  0  0  0  0
 23 17  1  0  0  0  0
 24 29  1  0  0  0  0
 24 30  1  0  0  0  0
 25 24  2  0  0  0  0
 26 27  2  0  0  0  0
 26 25  1  0  0  0  0
 27 28  1  0  0  0  0
 28 32  1  0  0  0  0
 28 29  2  0  0  0  0
 31 26  1  0  0  0  0
 32 35  1  6  0  0  0
 32 34  1  0  0  0  0
 32 33  1  0  0  0  0
 33 37  1  0  0  0  0
 33 36  1  0  0  0  0
 34 38  1  6  0  0  0
 34 33  1  0  0  0  0
 34 39  1  0  0  0  0
 39 40  1  0  0  0  0
 40 42  2  0  0  0  0
 40 41  1  0  0  0  0
 42 43  1  0  0  0  0
 44 42  1  0  0  0  0
 45 44  2  0  0  0  0
 46 45  1  0  0  0  0
 46 39  2  0  0  0  0
M  END
>  <minimizedAffinity>
-6.05307674

$$$$

 OpenBabel03252503253D

 46 51  0  0  1  0  0  0  0  0999 V2000
   39.5380   27.8790   42.0760 C   0  0  1  0  0  0  0  0  0  0  0  0
   38.7510   27.8060   43.3030 C   0  0  0  0  0  0  0  0  0  0  0  0
   38.0190   27.8700   42.0150 C   0  0  2  0  0  0  0  0  0  0  0  0
   40.0490   26.9740   41.7070 H   0  0  0  0  0  0  0  0  0  0  0  0
   38.8910   26.9450   43.9330 H   0  0  0  0  0  0  0  0  0  0  0  0
   38.7480   28.7740   43.9020 H   0  0  0  0  0  0  0  0  0  0  0  0
   37.5750   28.8120   41.6330 H   0  0  0  0  0  0  0  0  0  0  0  0
   37.4420   26.5930   41.5050 C   0  0  0  0  0  0  0  0  0  0  0  0
   37.3440   25.4390   42.2550 C   0  0  0  0  0  0  0  0  0  0  0  0
   36.8030   24.2830   41.7160 C   0  0  0  0  0  0  0  0  0  0  0  0
   36.3500   24.2690   40.4140 C   0  0  0  0  0  0  0  0  0  0  0  0
   35.8090   23.1500   39.8590 N   0  0  0  0  0  0  0  0  0  0  0  0
   35.3710   23.1640   38.5850 C   0  0  0  0  0  0  0  0  0  0  0  0
   35.4310   24.2990   37.7410 C   0  0  0  0  0  0  0  0  0  0  0  0
   35.9770   25.4400   38.2890 C   0  0  0  0  0  0  0  0  0  0  0  0
   36.4250   25.4100   39.6070 C   0  0  0  0  0  0  0  0  0  0  0  0
   36.9740   26.5380   40.1900 C   0  0  0  0  0  0  0  0  0  0  0  0
   37.6970   25.4520   43.2690 H   0  0  0  0  0  0  0  0  0  0  0  0
   36.7420   23.3940   42.3360 H   0  0  0  0  0  0  0  0  0  0  0  0
   34.9450   22.2560   38.1730 H   0  0  0  0  0  0  0  0  0  0  0  0
   35.0590   24.2340   36.7280 H   0  0  0  0  0  0  0  0  0  0  0  0
   36.0490   26.3370   37.6900 H   0  0  0  0  0  0  0  0  0  0  0  0
   37.0060   27.3770   39.5100 H   0  0  0  0  0  0  0  0  0  0  0  0
   40.9590   29.1880   40.4650 C   0  0  0  0  0  0  0  0  0  0  0  0
   40.2160   29.1480   41.6840 C   0  0  0  0  0  0  0  0  0  0  0  0
   40.1700   30.2890   42.4430 C   0  0  0  0  0  0  0  0  0  0  0  0
   40.8390   31.3780   41.9740 N   0  0  0  0  0  0  0  0  0  0  0  0
   41.5320   31.4040   40.8320 C   0  0  0  0  0  0  0  0  0  0  0  0
   41.5940   30.3020   40.0700 N   0  0  0  0  0  0  0  0  0  0  0  0
   41.0070   28.2860   39.8470 H   0  0  0  0  0  0  0  0  0  0  0  0
   39.6190   30.2960   43.3650 H   0  0  0  0  0  0  0  0  0  0  0  0
   42.2020   32.6710   40.4510 C   0  0  2  0  0  0  0  0  0  0  0  0
   41.7250   33.9700   40.8920 C   0  0  0  0  0  0  0  0  0  0  0  0
   41.3430   33.5820   39.5110 C   0  0  2  0  0  0  0  0  0  0  0  0
   43.2110   32.4780   39.9820 H   0  0  0  0  0  0  0  0  0  0  0  0
   41.0080   34.0310   41.7130 H   0  0  0  0  0  0  0  0  0  0  0  0
   42.5350   34.7600   40.9890 H   0  0  0  0  0  0  0  0  0  0  0  0
   41.8990   33.9520   38.6160 H   0  0  0  0  0  0  0  0  0  0  0  0
   39.9220   33.2020   39.3230 C   0  0  0  0  0  0  0  0  0  0  0  0
   38.8050   33.5780   40.0350 C   0  0  0  0  0  0  0  0  0  0  0  0
   38.9810   34.2730   40.8400 H   0  0  0  0  0  0  0  0  0  0  0  0
   37.5410   33.1350   39.7640 C   0  0  0  0  0  0  0  0  0  0  0  0
   36.7300   33.4840   40.3760 H   0  0  0  0  0  0  0  0  0  0  0  0
   37.3330   32.2680   38.7330 C   0  0  0  0  0  3  0  0  0  0  0  0
   38.4710   31.9120   38.0400 C   0  0  0  0  0  3  0  0  0  0  0  0
   39.7140   32.3420   38.3010 N   0  0  0  0  0  0  0  0  0  0  0  0
  1  4  1  6  0  0  0
  1  2  1  0  0  0  0
  2  6  1  0  0  0  0
  2  5  1  0  0  0  0
  3  7  1  6  0  0  0
  3  1  1  0  0  0  0
  3  2  1  0  0  0  0
  8  3  1  0  0  0  0
  8  9  1  0  0  0  0
  9 18  1  0  0  0  0
 10  9  2  0  0  0  0
 10 19  1  0  0  0  0
 11 10  1  0  0  0  0
 12 11  1  0  0  0  0
 13 12  2  0  0  0  0
 14 15  2  0  0  0  0
 14 13  1  0  0  0  0
 15 16  1  0  0  0  0
 16 17  1  0  0  0  0
 16 11  2  0  0  0  0
 17  8  2  0  0  0  0
 20 13  1  0  0  0  0
 21 14  1  0  0  0  0
 22 15  1  0  0  0  0
 23 17  1  0  0  0  0
 24 25  1  0  0  0  0
 25  1  1  0  0  0  0
 25 26  2  0  0  0  0
 26 31  1  0  0  0  0
 27 26  1  0  0  0  0
 28 27  2  0  0  0  0
 29 24  2  0  0  0  0
 29 28  1  0  0  0  0
 30 24  1  0  0  0  0
 32 35  1  6  0  0  0
 32 28  1  0  0  0  0
 32 33  1  0  0  0  0
 33 37  1  0  0  0  0
 33 36  1  0  0  0  0
 34 38  1  6  0  0  0
 34 32  1  0  0  0  0
 34 33  1  0  0  0  0
 39 34  1  0  0  0  0
 39 40  1  0  0  0  0
 40 41  1  0  0  0  0
 42 40  2  0  0  0  0
 42 43  1  0  0  0  0
 44 42  1  0  0  0  0
 45 46  1  0  0  0  0
 45 44  2  0  0  0  0
 46 39  2  0  0  0  0
M  END
>  <minimizedAffinity>
-5.9930625

$$$$
