
 OpenBabel03252500383D

 45 48  0  0  1  0  0  0  0  0999 V2000
   35.6330   30.2140   40.2930 C   0  0  1  0  0  0  0  0  0  0  0  0
   35.0340   29.0630   39.7780 C   0  0  0  0  0  0  0  0  0  0  0  0
   35.7850   28.8520   41.0300 C   0  0  1  0  0  0  0  0  0  0  0  0
   35.0230   30.9820   40.8470 H   0  0  0  0  0  0  0  0  0  0  0  0
   33.9460   28.9180   39.8000 H   0  0  0  0  0  0  0  0  0  0  0  0
   35.4860   28.5550   38.8760 H   0  0  0  0  0  0  0  0  0  0  0  0
   35.3260   28.9110   42.0290 H   0  0  0  0  0  0  0  0  0  0  0  0
   37.5430   31.7580   40.7280 C   0  0  0  0  0  0  0  0  0  0  0  0
   36.8990   30.8550   39.8240 C   0  0  0  0  0  0  0  0  0  0  0  0
   37.4430   30.6240   38.6010 C   0  0  0  0  0  0  0  0  0  0  0  0
   38.6020   31.2850   38.3020 N   0  0  0  0  0  0  0  0  0  0  0  0
   39.2110   32.1370   39.1550 C   0  0  0  0  0  0  0  0  0  0  0  0
   38.6910   32.3970   40.4040 N   0  0  0  0  0  0  0  0  0  0  0  0
   37.1750   31.9890   41.7030 H   0  0  0  0  0  0  0  0  0  0  0  0
   36.9680   29.9460   37.9060 H   0  0  0  0  0  0  0  0  0  0  0  0
   40.4490   32.7940   38.7440 C   0  0  0  0  0  0  0  0  0  0  0  0
   41.0110   32.4990   37.5190 C   0  0  0  0  0  0  0  0  0  0  0  0
   40.5850   31.7920   36.8230 H   0  0  0  0  0  0  0  0  0  0  0  0
   42.1930   33.1510   37.1680 C   0  0  0  0  0  0  0  0  0  0  0  0
   42.7180   33.0010   36.2460 H   0  0  0  0  0  0  0  0  0  0  0  0
   42.7060   34.0550   38.1010 C   0  0  0  0  0  3  0  0  0  0  0  0
   42.1260   34.3470   39.3390 C   0  0  0  0  0  3  0  0  0  0  0  0
   40.9830   33.6760   39.6100 N   0  0  0  0  0  0  0  0  0  0  0  0
   37.0960   28.1580   41.0070 C   0  0  0  0  0  0  0  0  0  0  0  0
   37.8280   28.8130   40.5000 H   0  0  0  0  0  0  0  0  0  0  0  0
   36.9750   27.1960   40.4660 H   0  0  0  0  0  0  0  0  0  0  0  0
   37.4610   27.8950   42.3520 N   0  0  0  0  0  0  0  0  0  0  0  0
   38.2490   28.8400   43.0200 C   0  0  0  0  0  0  0  0  0  0  0  0
   39.7470   28.5320   42.8540 C   0  0  0  0  0  0  0  0  0  0  0  0
   39.9900   27.2590   43.6330 C   0  0  0  0  0  0  0  0  0  0  0  0
   39.1730   26.1960   42.9400 C   0  0  0  0  0  0  0  0  0  0  0  0
   37.7350   26.5780   42.7440 C   0  0  2  0  0  0  0  0  0  0  0  0
   38.0730   28.6490   44.1240 H   0  0  0  0  0  0  0  0  0  0  0  0
   38.0130   29.9000   42.9270 H   0  0  0  0  0  0  0  0  0  0  0  0
   39.9800   28.3090   41.7920 H   0  0  0  0  0  0  0  0  0  0  0  0
   40.3660   29.3690   43.2310 H   0  0  0  0  0  0  0  0  0  0  0  0
   39.5320   27.4040   44.6420 H   0  0  0  0  0  0  0  0  0  0  0  0
   41.0300   26.9560   43.6630 H   0  0  0  0  0  0  0  0  0  0  0  0
   39.6000   26.0690   41.9130 H   0  0  0  0  0  0  0  0  0  0  0  0
   39.2110   25.2230   43.4460 H   0  0  0  0  0  0  0  0  0  0  0  0
   37.2350   26.3750   43.7280 H   0  0  0  0  0  0  0  0  0  0  0  0
   37.1430   25.5610   41.7770 C   0  0  0  0  0  0  0  0  0  0  0  0
   37.4900   25.8250   40.7620 H   0  0  0  0  0  0  0  0  0  0  0  0
   36.0480   25.5450   41.8200 H   0  0  0  0  0  0  0  0  0  0  0  0
   37.5710   24.5820   42.0800 H   0  0  0  0  0  0  0  0  0  0  0  0
  1  4  1  1  0  0  0
  1  3  1  0  0  0  0
  2  5  1  0  0  0  0
  2  1  1  0  0  0  0
  2  3  1  0  0  0  0
  3  7  1  1  0  0  0
  6  2  1  0  0  0  0
  8 14  1  0  0  0  0
  9  1  1  0  0  0  0
  9  8  2  0  0  0  0
 10  9  1  0  0  0  0
 11 10  2  0  0  0  0
 11 12  1  0  0  0  0
 12 13  2  0  0  0  0
 13  8  1  0  0  0  0
 15 10  1  0  0  0  0
 16 12  1  0  0  0  0
 16 23  1  0  0  0  0
 17 16  2  0  0  0  0
 18 17  1  0  0  0  0
 19 17  1  0  0  0  0
 19 21  2  0  0  0  0
 20 19  1  0  0  0  0
 21 22  1  0  0  0  0
 22 23  2  0  0  0  0
 24  3  1  0  0  0  0
 24 27  1  0  0  0  0
 25 24  1  0  0  0  0
 26 24  1  0  0  0  0
 27 32  1  0  0  0  0
 27 28  1  0  0  0  0
 28 33  1  0  0  0  0
 29 28  1  0  0  0  0
 29 36  1  0  0  0  0
 29 30  1  0  0  0  0
 30 38  1  0  0  0  0
 30 37  1  0  0  0  0
 31 40  1  0  0  0  0
 31 30  1  0  0  0  0
 32 31  1  0  0  0  0
 32 41  1  1  0  0  0
 34 28  1  0  0  0  0
 35 29  1  0  0  0  0
 39 31  1  0  0  0  0
 42 44  1  0  0  0  0
 42 45  1  0  0  0  0
 42 32  1  0  0  0  0
 43 42  1  0  0  0  0
M  END
>  <minimizedAffinity>
-5.76094675

$$$$

 OpenBabel03252500383D

 45 48  0  0  1  0  0  0  0  0999 V2000
   36.9480   25.8010   42.3570 C   0  0  1  0  0  0  0  0  0  0  0  0
   36.8280   24.6390   41.5930 C   0  0  0  0  0  0  0  0  0  0  0  0
   38.1590   24.8360   42.1980 C   0  0  1  0  0  0  0  0  0  0  0  0
   36.5220   25.8520   43.3990 H   0  0  0  0  0  0  0  0  0  0  0  0
   36.2290   23.7840   41.9330 H   0  0  0  0  0  0  0  0  0  0  0  0
   36.8150   24.7120   40.4660 H   0  0  0  0  0  0  0  0  0  0  0  0
   38.4450   24.4260   43.1790 H   0  0  0  0  0  0  0  0  0  0  0  0
   37.5680   28.1770   42.8000 C   0  0  0  0  0  0  0  0  0  0  0  0
   37.1440   27.1940   41.8510 C   0  0  0  0  0  0  0  0  0  0  0  0
   36.9330   27.5530   40.5580 C   0  0  0  0  0  0  0  0  0  0  0  0
   37.1450   28.8650   40.2350 N   0  0  0  0  0  0  0  0  0  0  0  0
   37.5460   29.7930   41.1310 C   0  0  0  0  0  0  0  0  0  0  0  0
   37.7700   29.4680   42.4510 N   0  0  0  0  0  0  0  0  0  0  0  0
   37.7530   27.9690   43.8310 H   0  0  0  0  0  0  0  0  0  0  0  0
   36.6110   26.8230   39.8290 H   0  0  0  0  0  0  0  0  0  0  0  0
   37.7460   31.1700   40.6890 C   0  0  0  0  0  0  0  0  0  0  0  0
   36.9000   31.7220   39.7500 C   0  0  0  0  0  0  0  0  0  0  0  0
   36.0740   31.1870   39.3050 H   0  0  0  0  0  0  0  0  0  0  0  0
   37.1290   33.0400   39.3570 C   0  0  0  0  0  0  0  0  0  0  0  0
   36.5390   33.5710   38.6370 H   0  0  0  0  0  0  0  0  0  0  0  0
   38.2090   33.6900   39.9590 C   0  0  0  0  0  3  0  0  0  0  0  0
   39.0590   33.1210   40.9110 C   0  0  0  0  0  3  0  0  0  0  0  0
   38.7760   31.8400   41.2410 N   0  0  0  0  0  0  0  0  0  0  0  0
   39.3080   25.2480   41.3560 C   0  0  0  0  0  0  0  0  0  0  0  0
   39.1430   26.2910   41.0260 H   0  0  0  0  0  0  0  0  0  0  0  0
   39.3740   24.5590   40.4890 H   0  0  0  0  0  0  0  0  0  0  0  0
   40.4800   25.1210   42.1450 N   0  0  0  0  0  0  0  0  0  0  0  0
   40.4130   25.4940   43.4930 C   0  0  0  0  0  0  0  0  0  0  0  0
   40.7930   26.9730   43.6800 C   0  0  0  0  0  0  0  0  0  0  0  0
   42.2690   27.0570   43.3650 C   0  0  0  0  0  0  0  0  0  0  0  0
   42.3970   26.6810   41.9100 C   0  0  0  0  0  0  0  0  0  0  0  0
   41.7290   25.3810   41.5660 C   0  0  2  0  0  0  0  0  0  0  0  0
   41.2700   24.9480   43.9960 H   0  0  0  0  0  0  0  0  0  0  0  0
   39.5570   25.1880   44.0940 H   0  0  0  0  0  0  0  0  0  0  0  0
   40.2680   27.6040   42.9330 H   0  0  0  0  0  0  0  0  0  0  0  0
   40.5730   27.3090   44.7120 H   0  0  0  0  0  0  0  0  0  0  0  0
   42.7710   26.2470   43.9480 H   0  0  0  0  0  0  0  0  0  0  0  0
   42.6950   28.0400   43.5250 H   0  0  0  0  0  0  0  0  0  0  0  0
   41.8640   27.4670   41.3170 H   0  0  0  0  0  0  0  0  0  0  0  0
   43.4380   26.6410   41.5630 H   0  0  0  0  0  0  0  0  0  0  0  0
   42.4530   24.5820   41.8760 H   0  0  0  0  0  0  0  0  0  0  0  0
   41.6790   25.3080   40.0450 C   0  0  0  0  0  0  0  0  0  0  0  0
   40.8620   25.9710   39.7070 H   0  0  0  0  0  0  0  0  0  0  0  0
   41.5170   24.2840   39.6900 H   0  0  0  0  0  0  0  0  0  0  0  0
   42.6560   25.7040   39.6980 H   0  0  0  0  0  0  0  0  0  0  0  0
  1  4  1  1  0  0  0
  2  5  1  0  0  0  0
  2  3  1  0  0  0  0
  2  1  1  0  0  0  0
  3  1  1  0  0  0  0
  3  7  1  1  0  0  0
  6  2  1  0  0  0  0
  8 14  1  0  0  0  0
  9  1  1  0  0  0  0
  9  8  2  0  0  0  0
 10  9  1  0  0  0  0
 11 10  2  0  0  0  0
 11 12  1  0  0  0  0
 12 13  2  0  0  0  0
 13  8  1  0  0  0  0
 15 10  1  0  0  0  0
 16 12  1  0  0  0  0
 16 23  1  0  0  0  0
 17 16  2  0  0  0  0
 18 17  1  0  0  0  0
 19 17  1  0  0  0  0
 19 21  2  0  0  0  0
 20 19  1  0  0  0  0
 21 22  1  0  0  0  0
 22 23  2  0  0  0  0
 24 27  1  0  0  0  0
 24  3  1  0  0  0  0
 25 24  1  0  0  0  0
 26 24  1  0  0  0  0
 27 28  1  0  0  0  0
 28 29  1  0  0  0  0
 28 33  1  0  0  0  0
 28 34  1  0  0  0  0
 29 36  1  0  0  0  0
 30 38  1  0  0  0  0
 30 29  1  0  0  0  0
 30 37  1  0  0  0  0
 31 30  1  0  0  0  0
 32 41  1  1  0  0  0
 32 31  1  0  0  0  0
 32 27  1  0  0  0  0
 35 29  1  0  0  0  0
 39 31  1  0  0  0  0
 40 31  1  0  0  0  0
 42 32  1  0  0  0  0
 43 42  1  0  0  0  0
 44 42  1  0  0  0  0
 45 42  1  0  0  0  0
M  END
>  <minimizedAffinity>
-5.63595295

$$$$

 OpenBabel03252500383D

 45 48  0  0  1  0  0  0  0  0999 V2000
   34.6540   28.6040   35.6820 C   0  0  1  0  0  0  0  0  0  0  0  0
   33.6080   27.8220   35.1920 C   0  0  0  0  0  0  0  0  0  0  0  0
   33.2290   29.2080   35.5230 C   0  0  1  0  0  0  0  0  0  0  0  0
   35.4270   29.0350   34.9840 H   0  0  0  0  0  0  0  0  0  0  0  0
   33.5610   27.5130   34.1390 H   0  0  0  0  0  0  0  0  0  0  0  0
   33.1370   27.0400   35.8570 H   0  0  0  0  0  0  0  0  0  0  0  0
   33.2480   30.0320   34.7940 H   0  0  0  0  0  0  0  0  0  0  0  0
   35.9350   29.7530   37.4880 C   0  0  0  0  0  0  0  0  0  0  0  0
   35.2150   28.5900   37.0670 C   0  0  0  0  0  0  0  0  0  0  0  0
   35.0750   27.5400   37.9160 C   0  0  0  0  0  0  0  0  0  0  0  0
   35.6460   27.6610   39.1540 N   0  0  0  0  0  0  0  0  0  0  0  0
   36.3250   28.7590   39.5520 C   0  0  0  0  0  0  0  0  0  0  0  0
   36.4890   29.8440   38.7200 N   0  0  0  0  0  0  0  0  0  0  0  0
   36.0860   30.6140   36.8770 H   0  0  0  0  0  0  0  0  0  0  0  0
   34.5350   26.6540   37.6140 H   0  0  0  0  0  0  0  0  0  0  0  0
   36.8980   28.7940   40.8950 C   0  0  0  0  0  0  0  0  0  0  0  0
   36.4620   27.9020   41.8530 C   0  0  0  0  0  0  0  0  0  0  0  0
   35.7010   27.1570   41.6720 H   0  0  0  0  0  0  0  0  0  0  0  0
   37.0360   27.9730   43.1220 C   0  0  0  0  0  0  0  0  0  0  0  0
   36.7770   27.3330   43.9420 H   0  0  0  0  0  0  0  0  0  0  0  0
   38.0140   28.9520   43.3090 C   0  0  0  0  0  3  0  0  0  0  0  0
   38.4490   29.8490   42.3300 C   0  0  0  0  0  3  0  0  0  0  0  0
   37.8460   29.7220   41.1250 N   0  0  0  0  0  0  0  0  0  0  0  0
   32.4240   29.4910   36.7360 C   0  0  0  0  0  0  0  0  0  0  0  0
   32.9290   30.2890   37.3120 H   0  0  0  0  0  0  0  0  0  0  0  0
   32.3410   28.5570   37.3300 H   0  0  0  0  0  0  0  0  0  0  0  0
   31.1310   29.8870   36.3050 N   0  0  0  0  0  0  0  0  0  0  0  0
   31.0070   30.4730   35.0400 C   0  0  0  0  0  0  0  0  0  0  0  0
   31.1360   32.0030   35.1210 C   0  0  0  0  0  0  0  0  0  0  0  0
   29.8990   32.4780   35.8500 C   0  0  0  0  0  0  0  0  0  0  0  0
   29.9920   31.8870   37.2340 C   0  0  0  0  0  0  0  0  0  0  0  0
   30.2250   30.4040   37.2390 C   0  0  2  0  0  0  0  0  0  0  0  0
   29.9220   30.3260   34.7480 H   0  0  0  0  0  0  0  0  0  0  0  0
   31.5370   30.0390   34.1910 H   0  0  0  0  0  0  0  0  0  0  0  0
   32.0070   32.2850   35.7470 H   0  0  0  0  0  0  0  0  0  0  0  0
   31.2120   32.4480   34.1090 H   0  0  0  0  0  0  0  0  0  0  0  0
   29.0240   31.9910   35.3540 H   0  0  0  0  0  0  0  0  0  0  0  0
   29.8190   33.5560   35.9190 H   0  0  0  0  0  0  0  0  0  0  0  0
   30.8880   32.3410   37.7280 H   0  0  0  0  0  0  0  0  0  0  0  0
   29.1150   32.1060   37.8570 H   0  0  0  0  0  0  0  0  0  0  0  0
   29.2160   29.9430   37.0670 H   0  0  0  0  0  0  0  0  0  0  0  0
   30.5990   30.0280   38.6670 C   0  0  0  0  0  0  0  0  0  0  0  0
   31.6510   30.3280   38.8250 H   0  0  0  0  0  0  0  0  0  0  0  0
   30.4710   28.9560   38.8540 H   0  0  0  0  0  0  0  0  0  0  0  0
   29.9320   30.6330   39.3160 H   0  0  0  0  0  0  0  0  0  0  0  0
  1  4  1  6  0  0  0
  1  9  1  0  0  0  0
  2  3  1  0  0  0  0
  2  1  1  0  0  0  0
  2  6  1  0  0  0  0
  3  7  1  6  0  0  0
  3  1  1  0  0  0  0
  3 24  1  0  0  0  0
  5  2  1  0  0  0  0
  8 13  1  0  0  0  0
  9  8  2  0  0  0  0
  9 10  1  0  0  0  0
 10 11  2  0  0  0  0
 11 12  1  0  0  0  0
 12 16  1  0  0  0  0
 13 12  2  0  0  0  0
 14  8  1  0  0  0  0
 15 10  1  0  0  0  0
 16 23  2  0  0  0  0
 16 17  1  0  0  0  0
 17 19  2  0  0  0  0
 18 17  1  0  0  0  0
 19 21  1  0  0  0  0
 19 20  1  0  0  0  0
 22 21  2  0  0  0  0
 23 22  1  0  0  0  0
 24 25  1  0  0  0  0
 24 26  1  0  0  0  0
 27 24  1  0  0  0  0
 27 32  1  0  0  0  0
 28 29  1  0  0  0  0
 28 27  1  0  0  0  0
 29 35  1  0  0  0  0
 29 30  1  0  0  0  0
 30 38  1  0  0  0  0
 30 31  1  0  0  0  0
 31 32  1  0  0  0  0
 31 39  1  0  0  0  0
 31 40  1  0  0  0  0
 32 41  1  6  0  0  0
 32 42  1  0  0  0  0
 33 28  1  0  0  0  0
 34 28  1  0  0  0  0
 36 29  1  0  0  0  0
 37 30  1  0  0  0  0
 42 43  1  0  0  0  0
 42 44  1  0  0  0  0
 42 45  1  0  0  0  0
M  END
>  <minimizedAffinity>
-5.39328384

$$$$

 OpenBabel03252500383D

 45 48  0  0  1  0  0  0  0  0999 V2000
   37.0590   31.9570   39.5880 C   0  0  1  0  0  0  0  0  0  0  0  0
   36.5300   30.7270   39.1930 C   0  0  0  0  0  0  0  0  0  0  0  0
   36.5780   30.9300   40.6530 C   0  0  1  0  0  0  0  0  0  0  0  0
   36.4390   32.8960   39.5280 H   0  0  0  0  0  0  0  0  0  0  0  0
   35.5440   30.6480   38.7160 H   0  0  0  0  0  0  0  0  0  0  0  0
   37.2220   29.9190   38.8140 H   0  0  0  0  0  0  0  0  0  0  0  0
   35.7430   31.3520   41.2340 H   0  0  0  0  0  0  0  0  0  0  0  0
   38.8620   33.3890   40.5470 C   0  0  0  0  0  0  0  0  0  0  0  0
   38.5030   32.3390   39.6430 C   0  0  0  0  0  0  0  0  0  0  0  0
   39.4590   31.7470   38.8830 C   0  0  0  0  0  0  0  0  0  0  0  0
   40.7410   32.2020   39.0320 N   0  0  0  0  0  0  0  0  0  0  0  0
   41.0810   33.1920   39.8860 C   0  0  0  0  0  0  0  0  0  0  0  0
   40.1400   33.8170   40.6740 N   0  0  0  0  0  0  0  0  0  0  0  0
   38.1660   33.9000   41.1740 H   0  0  0  0  0  0  0  0  0  0  0  0
   39.2040   30.9540   38.1950 H   0  0  0  0  0  0  0  0  0  0  0  0
   42.4790   33.6070   39.9750 C   0  0  0  0  0  0  0  0  0  0  0  0
   43.0170   33.9580   41.1960 C   0  0  0  0  0  0  0  0  0  0  0  0
   42.4560   33.9460   42.1190 H   0  0  0  0  0  0  0  0  0  0  0  0
   44.3550   34.3480   41.2330 C   0  0  0  0  0  0  0  0  0  0  0  0
   44.8780   34.6410   42.1220 H   0  0  0  0  0  0  0  0  0  0  0  0
   45.0370   34.3490   40.0150 C   0  0  0  0  0  3  0  0  0  0  0  0
   44.4820   33.9900   38.7830 C   0  0  0  0  0  3  0  0  0  0  0  0
   43.1800   33.6240   38.8250 N   0  0  0  0  0  0  0  0  0  0  0  0
   37.5850   30.2130   41.4730 C   0  0  0  0  0  0  0  0  0  0  0  0
   37.3900   30.4360   42.5380 H   0  0  0  0  0  0  0  0  0  0  0  0
   38.5960   30.5550   41.1680 H   0  0  0  0  0  0  0  0  0  0  0  0
   37.4550   28.8280   41.1890 N   0  0  0  0  0  0  0  0  0  0  0  0
   36.3320   28.1550   41.6840 C   0  0  0  0  0  0  0  0  0  0  0  0
   36.6130   27.5520   43.0720 C   0  0  0  0  0  0  0  0  0  0  0  0
   37.6140   26.4420   42.8390 C   0  0  0  0  0  0  0  0  0  0  0  0
   38.8570   27.1190   42.3190 C   0  0  0  0  0  0  0  0  0  0  0  0
   38.6030   28.0260   41.1490 C   0  0  2  0  0  0  0  0  0  0  0  0
   36.2220   27.2370   41.0280 H   0  0  0  0  0  0  0  0  0  0  0  0
   35.3490   28.6170   41.6050 H   0  0  0  0  0  0  0  0  0  0  0  0
   37.1080   28.3000   43.7250 H   0  0  0  0  0  0  0  0  0  0  0  0
   35.6810   27.1730   43.5330 H   0  0  0  0  0  0  0  0  0  0  0  0
   37.2170   25.8190   42.0000 H   0  0  0  0  0  0  0  0  0  0  0  0
   37.8540   25.8760   43.7300 H   0  0  0  0  0  0  0  0  0  0  0  0
   39.2430   27.7770   43.1380 H   0  0  0  0  0  0  0  0  0  0  0  0
   39.6530   26.4140   42.0470 H   0  0  0  0  0  0  0  0  0  0  0  0
   38.5490   27.3500   40.2540 H   0  0  0  0  0  0  0  0  0  0  0  0
   39.8690   28.8500   40.9540 C   0  0  0  0  0  0  0  0  0  0  0  0
   39.8780   29.6350   41.7310 H   0  0  0  0  0  0  0  0  0  0  0  0
   39.9170   29.2950   39.9540 H   0  0  0  0  0  0  0  0  0  0  0  0
   40.7090   28.1430   41.1210 H   0  0  0  0  0  0  0  0  0  0  0  0
  1  4  1  6  0  0  0
  1  9  1  0  0  0  0
  1  3  1  0  0  0  0
  2  1  1  0  0  0  0
  2  3  1  0  0  0  0
  3  7  1  1  0  0  0
  3 24  1  0  0  0  0
  5  2  1  0  0  0  0
  6  2  1  0  0  0  0
  8 13  1  0  0  0  0
  8 14  1  0  0  0  0
  9  8  2  0  0  0  0
 10 11  2  0  0  0  0
 10  9  1  0  0  0  0
 11 12  1  0  0  0  0
 12 16  1  0  0  0  0
 12 13  2  0  0  0  0
 15 10  1  0  0  0  0
 16 17  1  0  0  0  0
 17 19  2  0  0  0  0
 17 18  1  0  0  0  0
 19 20  1  0  0  0  0
 21 19  1  0  0  0  0
 22 23  1  0  0  0  0
 22 21  2  0  0  0  0
 23 16  2  0  0  0  0
 24 25  1  0  0  0  0
 26 24  1  0  0  0  0
 27 24  1  0  0  0  0
 27 28  1  0  0  0  0
 28 29  1  0  0  0  0
 29 36  1  0  0  0  0
 29 35  1  0  0  0  0
 30 29  1  0  0  0  0
 30 38  1  0  0  0  0
 31 30  1  0  0  0  0
 31 39  1  0  0  0  0
 32 41  1  6  0  0  0
 32 27  1  0  0  0  0
 32 31  1  0  0  0  0
 33 28  1  0  0  0  0
 34 28  1  0  0  0  0
 37 30  1  0  0  0  0
 40 31  1  0  0  0  0
 42 45  1  0  0  0  0
 42 32  1  0  0  0  0
 42 43  1  0  0  0  0
 44 42  1  0  0  0  0
M  END
>  <minimizedAffinity>
-5.37245989

$$$$

 OpenBabel03252500383D

 45 48  0  0  1  0  0  0  0  0999 V2000
   37.7040   28.3530   43.6790 C   0  0  1  0  0  0  0  0  0  0  0  0
   36.5410   27.5990   43.5190 C   0  0  0  0  0  0  0  0  0  0  0  0
   37.7900   26.8490   43.2900 C   0  0  1  0  0  0  0  0  0  0  0  0
   38.0960   28.5950   44.7080 H   0  0  0  0  0  0  0  0  0  0  0  0
   35.9160   27.3100   44.3750 H   0  0  0  0  0  0  0  0  0  0  0  0
   35.9080   27.7390   42.5940 H   0  0  0  0  0  0  0  0  0  0  0  0
   38.3110   26.2840   44.0800 H   0  0  0  0  0  0  0  0  0  0  0  0
   39.6970   29.5640   42.7930 C   0  0  0  0  0  0  0  0  0  0  0  0
   38.2890   29.3220   42.7030 C   0  0  0  0  0  0  0  0  0  0  0  0
   37.5530   29.9690   41.7640 C   0  0  0  0  0  0  0  0  0  0  0  0
   38.2190   30.8330   40.9390 N   0  0  0  0  0  0  0  0  0  0  0  0
   39.5480   31.0620   41.0230 C   0  0  0  0  0  0  0  0  0  0  0  0
   40.3290   30.4250   41.9620 N   0  0  0  0  0  0  0  0  0  0  0  0
   40.3380   29.0930   43.5050 H   0  0  0  0  0  0  0  0  0  0  0  0
   36.4880   29.7980   41.6830 H   0  0  0  0  0  0  0  0  0  0  0  0
   40.1690   32.0040   40.0960 C   0  0  0  0  0  0  0  0  0  0  0  0
   40.7200   33.1760   40.5710 C   0  0  0  0  0  0  0  0  0  0  0  0
   40.7230   33.4520   41.6150 H   0  0  0  0  0  0  0  0  0  0  0  0
   41.3020   34.0460   39.6500 C   0  0  0  0  0  0  0  0  0  0  0  0
   41.7590   34.9820   39.9030 H   0  0  0  0  0  0  0  0  0  0  0  0
   41.2730   33.6460   38.3120 C   0  0  0  0  0  3  0  0  0  0  0  0
   40.7130   32.4550   37.8420 C   0  0  0  0  0  3  0  0  0  0  0  0
   40.1660   31.6630   38.7940 N   0  0  0  0  0  0  0  0  0  0  0  0
   38.1970   26.4790   41.9130 C   0  0  0  0  0  0  0  0  0  0  0  0
   39.2130   26.0450   41.9540 H   0  0  0  0  0  0  0  0  0  0  0  0
   38.1760   27.3930   41.2830 H   0  0  0  0  0  0  0  0  0  0  0  0
   37.2430   25.5510   41.4220 N   0  0  0  0  0  0  0  0  0  0  0  0
   37.3250   24.2240   41.8630 C   0  0  0  0  0  0  0  0  0  0  0  0
   38.2040   23.3800   40.9250 C   0  0  0  0  0  0  0  0  0  0  0  0
   37.4320   23.2730   39.6290 C   0  0  0  0  0  0  0  0  0  0  0  0
   37.3300   24.6810   39.0990 C   0  0  0  0  0  0  0  0  0  0  0  0
   36.7930   25.6620   40.1010 C   0  0  2  0  0  0  0  0  0  0  0  0
   36.2900   23.7900   41.6970 H   0  0  0  0  0  0  0  0  0  0  0  0
   37.4970   24.0170   42.9190 H   0  0  0  0  0  0  0  0  0  0  0  0
   39.1480   23.9160   40.6930 H   0  0  0  0  0  0  0  0  0  0  0  0
   38.4090   22.3850   41.3640 H   0  0  0  0  0  0  0  0  0  0  0  0
   36.3930   22.9580   39.8970 H   0  0  0  0  0  0  0  0  0  0  0  0
   37.9040   22.6390   38.8890 H   0  0  0  0  0  0  0  0  0  0  0  0
   38.3700   25.0220   38.8620 H   0  0  0  0  0  0  0  0  0  0  0  0
   36.7320   24.7560   38.1810 H   0  0  0  0  0  0  0  0  0  0  0  0
   35.6780   25.5320   40.0790 H   0  0  0  0  0  0  0  0  0  0  0  0
   37.0450   27.0510   39.5280 C   0  0  0  0  0  0  0  0  0  0  0  0
   38.1160   27.2820   39.6750 H   0  0  0  0  0  0  0  0  0  0  0  0
   36.4160   27.8110   40.0040 H   0  0  0  0  0  0  0  0  0  0  0  0
   36.8230   26.9670   38.4430 H   0  0  0  0  0  0  0  0  0  0  0  0
  1  4  1  1  0  0  0
  2  1  1  0  0  0  0
  2  5  1  0  0  0  0
  3  2  1  0  0  0  0
  3  1  1  0  0  0  0
  3  7  1  1  0  0  0
  6  2  1  0  0  0  0
  8 14  1  0  0  0  0
  9  8  1  0  0  0  0
  9  1  1  0  0  0  0
 10  9  2  0  0  0  0
 11 12  2  0  0  0  0
 11 10  1  0  0  0  0
 12 13  1  0  0  0  0
 13  8  2  0  0  0  0
 15 10  1  0  0  0  0
 16 17  1  0  0  0  0
 16 12  1  0  0  0  0
 17 18  1  0  0  0  0
 19 20  1  0  0  0  0
 19 17  2  0  0  0  0
 21 19  1  0  0  0  0
 22 21  2  0  0  0  0
 22 23  1  0  0  0  0
 23 16  2  0  0  0  0
 24 25  1  0  0  0  0
 24  3  1  0  0  0  0
 26 24  1  0  0  0  0
 27 28  1  0  0  0  0
 27 24  1  0  0  0  0
 28 34  1  0  0  0  0
 29 36  1  0  0  0  0
 29 28  1  0  0  0  0
 30 37  1  0  0  0  0
 30 29  1  0  0  0  0
 31 30  1  0  0  0  0
 31 32  1  0  0  0  0
 32 41  1  1  0  0  0
 32 27  1  0  0  0  0
 33 28  1  0  0  0  0
 35 29  1  0  0  0  0
 38 30  1  0  0  0  0
 39 31  1  0  0  0  0
 40 31  1  0  0  0  0
 42 43  1  0  0  0  0
 42 44  1  0  0  0  0
 42 32  1  0  0  0  0
 45 42  1  0  0  0  0
M  END
>  <minimizedAffinity>
-5.3679285

$$$$

 OpenBabel03252500383D

 45 48  0  0  1  0  0  0  0  0999 V2000
   40.2530   31.1190   42.5990 C   0  0  1  0  0  0  0  0  0  0  0  0
   41.6300   31.3150   42.4780 C   0  0  0  0  0  0  0  0  0  0  0  0
   40.8250   31.9810   41.4370 C   0  0  1  0  0  0  0  0  0  0  0  0
   39.6550   31.6950   43.3600 H   0  0  0  0  0  0  0  0  0  0  0  0
   42.1880   31.9480   43.1810 H   0  0  0  0  0  0  0  0  0  0  0  0
   42.2810   30.4760   42.0950 H   0  0  0  0  0  0  0  0  0  0  0  0
   40.4620   33.0170   41.5220 H   0  0  0  0  0  0  0  0  0  0  0  0
   40.1970   28.6660   42.1490 C   0  0  0  0  0  0  0  0  0  0  0  0
   39.4800   29.9040   42.2010 C   0  0  0  0  0  0  0  0  0  0  0  0
   38.1590   29.9310   41.8890 C   0  0  0  0  0  0  0  0  0  0  0  0
   37.5800   28.7430   41.5360 N   0  0  0  0  0  0  0  0  0  0  0  0
   38.2560   27.5740   41.4880 C   0  0  0  0  0  0  0  0  0  0  0  0
   39.5960   27.5060   41.7970 N   0  0  0  0  0  0  0  0  0  0  0  0
   41.2350   28.5680   42.3800 H   0  0  0  0  0  0  0  0  0  0  0  0
   37.6030   30.8570   41.9220 H   0  0  0  0  0  0  0  0  0  0  0  0
   37.5480   26.3570   41.0990 C   0  0  0  0  0  0  0  0  0  0  0  0
   37.3430   25.3550   42.0250 C   0  0  0  0  0  0  0  0  0  0  0  0
   37.6820   25.4110   43.0490 H   0  0  0  0  0  0  0  0  0  0  0  0
   36.6630   24.2100   41.6100 C   0  0  0  0  0  0  0  0  0  0  0  0
   36.4470   23.3700   42.2390 H   0  0  0  0  0  0  0  0  0  0  0  0
   36.2450   24.1840   40.2780 C   0  0  0  0  0  3  0  0  0  0  0  0
   36.4580   25.2060   39.3490 C   0  0  0  0  0  3  0  0  0  0  0  0
   37.1250   26.2840   39.8230 N   0  0  0  0  0  0  0  0  0  0  0  0
   40.7990   31.4420   40.0550 C   0  0  0  0  0  0  0  0  0  0  0  0
   40.3500   30.4320   40.0830 H   0  0  0  0  0  0  0  0  0  0  0  0
   41.8400   31.4090   39.6700 H   0  0  0  0  0  0  0  0  0  0  0  0
   40.0370   32.3400   39.2640 N   0  0  0  0  0  0  0  0  0  0  0  0
   39.7790   33.6170   39.7750 C   0  0  0  0  0  0  0  0  0  0  0  0
   38.4590   33.6430   40.5660 C   0  0  0  0  0  0  0  0  0  0  0  0
   37.3660   33.4490   39.5390 C   0  0  0  0  0  0  0  0  0  0  0  0
   37.5870   32.0720   38.9660 C   0  0  0  0  0  0  0  0  0  0  0  0
   38.9880   31.8420   38.4790 C   0  0  2  0  0  0  0  0  0  0  0  0
   39.5440   34.2590   38.8710 H   0  0  0  0  0  0  0  0  0  0  0  0
   40.5820   34.1770   40.2560 H   0  0  0  0  0  0  0  0  0  0  0  0
   38.4070   32.7790   41.2590 H   0  0  0  0  0  0  0  0  0  0  0  0
   38.3450   34.6000   41.1110 H   0  0  0  0  0  0  0  0  0  0  0  0
   37.5660   34.1740   38.7120 H   0  0  0  0  0  0  0  0  0  0  0  0
   36.3650   33.5170   39.9480 H   0  0  0  0  0  0  0  0  0  0  0  0
   37.4260   31.3380   39.7950 H   0  0  0  0  0  0  0  0  0  0  0  0
   36.8900   31.8240   38.1540 H   0  0  0  0  0  0  0  0  0  0  0  0
   39.0330   32.3150   37.4620 H   0  0  0  0  0  0  0  0  0  0  0  0
   39.1230   30.3450   38.2310 C   0  0  0  0  0  0  0  0  0  0  0  0
   39.2410   29.8540   39.2140 H   0  0  0  0  0  0  0  0  0  0  0  0
   39.9720   30.1140   37.5780 H   0  0  0  0  0  0  0  0  0  0  0  0
   38.1620   30.0360   37.7670 H   0  0  0  0  0  0  0  0  0  0  0  0
  1  4  1  1  0  0  0
  2  1  1  0  0  0  0
  2  5  1  0  0  0  0
  3  7  1  1  0  0  0
  3  2  1  0  0  0  0
  3  1  1  0  0  0  0
  6  2  1  0  0  0  0
  8  9  1  0  0  0  0
  8 14  1  0  0  0  0
  9  1  1  0  0  0  0
 10 15  1  0  0  0  0
 10  9  2  0  0  0  0
 11 10  1  0  0  0  0
 12 11  2  0  0  0  0
 12 13  1  0  0  0  0
 13  8  2  0  0  0  0
 16 12  1  0  0  0  0
 16 17  1  0  0  0  0
 17 18  1  0  0  0  0
 19 17  2  0  0  0  0
 19 20  1  0  0  0  0
 21 19  1  0  0  0  0
 22 23  1  0  0  0  0
 22 21  2  0  0  0  0
 23 16  2  0  0  0  0
 24 25  1  0  0  0  0
 24  3  1  0  0  0  0
 26 24  1  0  0  0  0
 27 28  1  0  0  0  0
 27 24  1  0  0  0  0
 28 34  1  0  0  0  0
 28 29  1  0  0  0  0
 29 36  1  0  0  0  0
 29 35  1  0  0  0  0
 30 38  1  0  0  0  0
 30 29  1  0  0  0  0
 31 30  1  0  0  0  0
 31 39  1  0  0  0  0
 32 41  1  6  0  0  0
 32 31  1  0  0  0  0
 32 27  1  0  0  0  0
 33 28  1  0  0  0  0
 37 30  1  0  0  0  0
 40 31  1  0  0  0  0
 42 32  1  0  0  0  0
 42 43  1  0  0  0  0
 44 42  1  0  0  0  0
 45 42  1  0  0  0  0
M  END
>  <minimizedAffinity>
-5.35427523

$$$$

 OpenBabel03252500383D

 45 48  0  0  1  0  0  0  0  0999 V2000
   34.6590   27.8710   36.2900 C   0  0  1  0  0  0  0  0  0  0  0  0
   33.6120   27.1090   36.8120 C   0  0  0  0  0  0  0  0  0  0  0  0
   33.1810   28.2450   35.9760 C   0  0  1  0  0  0  0  0  0  0  0  0
   35.2490   27.5060   35.4030 H   0  0  0  0  0  0  0  0  0  0  0  0
   33.3990   26.0940   36.4510 H   0  0  0  0  0  0  0  0  0  0  0  0
   33.3410   27.2080   37.9040 H   0  0  0  0  0  0  0  0  0  0  0  0
   32.9940   28.1650   34.8940 H   0  0  0  0  0  0  0  0  0  0  0  0
   36.3350   29.7160   36.2150 C   0  0  0  0  0  0  0  0  0  0  0  0
   35.4640   28.9050   37.0090 C   0  0  0  0  0  0  0  0  0  0  0  0
   35.4040   29.0940   38.3520 C   0  0  0  0  0  0  0  0  0  0  0  0
   36.2010   30.0740   38.8770 N   0  0  0  0  0  0  0  0  0  0  0  0
   37.0240   30.8400   38.1290 C   0  0  0  0  0  0  0  0  0  0  0  0
   37.1130   30.6790   36.7630 N   0  0  0  0  0  0  0  0  0  0  0  0
   36.4350   29.6250   35.1560 H   0  0  0  0  0  0  0  0  0  0  0  0
   34.7520   28.4900   38.9660 H   0  0  0  0  0  0  0  0  0  0  0  0
   37.8370   31.8630   38.7820 C   0  0  0  0  0  0  0  0  0  0  0  0
   37.2310   32.9640   39.3520 C   0  0  0  0  0  0  0  0  0  0  0  0
   36.1640   33.1260   39.3470 H   0  0  0  0  0  0  0  0  0  0  0  0
   38.0460   33.9140   39.9650 C   0  0  0  0  0  0  0  0  0  0  0  0
   37.6880   34.8070   40.4390 H   0  0  0  0  0  0  0  0  0  0  0  0
   39.4200   33.6620   39.9460 C   0  0  0  0  0  3  0  0  0  0  0  0
   40.0220   32.5420   39.3670 C   0  0  0  0  0  3  0  0  0  0  0  0
   39.1680   31.6640   38.7900 N   0  0  0  0  0  0  0  0  0  0  0  0
   32.5910   29.4530   36.6040 C   0  0  0  0  0  0  0  0  0  0  0  0
   33.3220   30.2790   36.5270 H   0  0  0  0  0  0  0  0  0  0  0  0
   32.3580   29.2200   37.6640 H   0  0  0  0  0  0  0  0  0  0  0  0
   31.3860   29.7440   35.9140 N   0  0  0  0  0  0  0  0  0  0  0  0
   31.4640   30.0590   34.5520 C   0  0  0  0  0  0  0  0  0  0  0  0
   31.6170   31.5750   34.3400 C   0  0  0  0  0  0  0  0  0  0  0  0
   30.2990   32.1810   34.7660 C   0  0  0  0  0  0  0  0  0  0  0  0
   30.1720   31.8850   36.2390 C   0  0  0  0  0  0  0  0  0  0  0  0
   30.3650   30.4350   36.5790 C   0  0  2  0  0  0  0  0  0  0  0  0
   30.4300   29.8500   34.1380 H   0  0  0  0  0  0  0  0  0  0  0  0
   32.1020   29.4650   33.8980 H   0  0  0  0  0  0  0  0  0  0  0  0
   32.3930   31.9840   35.0200 H   0  0  0  0  0  0  0  0  0  0  0  0
   31.8520   31.8040   33.2830 H   0  0  0  0  0  0  0  0  0  0  0  0
   29.4940   31.5980   34.2540 H   0  0  0  0  0  0  0  0  0  0  0  0
   30.2350   33.2500   34.6030 H   0  0  0  0  0  0  0  0  0  0  0  0
   30.9970   32.4350   36.7590 H   0  0  0  0  0  0  0  0  0  0  0  0
   29.2180   32.2200   36.6670 H   0  0  0  0  0  0  0  0  0  0  0  0
   29.3810   29.9430   36.3550 H   0  0  0  0  0  0  0  0  0  0  0  0
   30.5160   30.3600   38.0920 C   0  0  0  0  0  0  0  0  0  0  0  0
   31.5400   30.6920   38.3410 H   0  0  0  0  0  0  0  0  0  0  0  0
   30.3350   29.3480   38.4720 H   0  0  0  0  0  0  0  0  0  0  0  0
   29.7760   31.0800   38.4990 H   0  0  0  0  0  0  0  0  0  0  0  0
  1  4  1  6  0  0  0
  1  2  1  0  0  0  0
  1  9  1  0  0  0  0
  2  6  1  0  0  0  0
  3  7  1  6  0  0  0
  3  1  1  0  0  0  0
  3 24  1  0  0  0  0
  3  2  1  0  0  0  0
  5  2  1  0  0  0  0
  8 13  2  0  0  0  0
  8  9  1  0  0  0  0
  9 10  2  0  0  0  0
 10 11  1  0  0  0  0
 10 15  1  0  0  0  0
 12 16  1  0  0  0  0
 12 11  2  0  0  0  0
 13 12  1  0  0  0  0
 14  8  1  0  0  0  0
 16 23  2  0  0  0  0
 16 17  1  0  0  0  0
 17 19  2  0  0  0  0
 18 17  1  0  0  0  0
 19 20  1  0  0  0  0
 21 19  1  0  0  0  0
 22 21  2  0  0  0  0
 23 22  1  0  0  0  0
 24 26  1  0  0  0  0
 25 24  1  0  0  0  0
 27 32  1  0  0  0  0
 27 24  1  0  0  0  0
 28 27  1  0  0  0  0
 29 28  1  0  0  0  0
 29 30  1  0  0  0  0
 29 35  1  0  0  0  0
 30 31  1  0  0  0  0
 31 32  1  0  0  0  0
 31 40  1  0  0  0  0
 31 39  1  0  0  0  0
 32 41  1  6  0  0  0
 32 42  1  0  0  0  0
 33 28  1  0  0  0  0
 34 28  1  0  0  0  0
 36 29  1  0  0  0  0
 37 30  1  0  0  0  0
 38 30  1  0  0  0  0
 42 43  1  0  0  0  0
 42 44  1  0  0  0  0
 42 45  1  0  0  0  0
M  END
>  <minimizedAffinity>
-5.23312473

$$$$

 OpenBabel03252500383D

 45 48  0  0  1  0  0  0  0  0999 V2000
   37.3640   32.6040   38.9690 C   0  0  1  0  0  0  0  0  0  0  0  0
   36.9710   33.8050   39.5610 C   0  0  0  0  0  0  0  0  0  0  0  0
   38.4180   33.5310   39.6400 C   0  0  1  0  0  0  0  0  0  0  0  0
   37.4600   32.5180   37.8500 H   0  0  0  0  0  0  0  0  0  0  0  0
   36.6420   34.6640   38.9620 H   0  0  0  0  0  0  0  0  0  0  0  0
   36.4400   33.7880   40.5580 H   0  0  0  0  0  0  0  0  0  0  0  0
   39.1430   33.8820   38.8900 H   0  0  0  0  0  0  0  0  0  0  0  0
   37.9990   30.1920   38.9320 C   0  0  0  0  0  0  0  0  0  0  0  0
   37.2300   31.2310   39.5450 C   0  0  0  0  0  0  0  0  0  0  0  0
   36.4210   30.9410   40.5960 C   0  0  0  0  0  0  0  0  0  0  0  0
   36.3910   29.6390   41.0160 N   0  0  0  0  0  0  0  0  0  0  0  0
   37.1180   28.6580   40.4390 C   0  0  0  0  0  0  0  0  0  0  0  0
   37.9490   28.9120   39.3700 N   0  0  0  0  0  0  0  0  0  0  0  0
   38.6540   30.3440   38.1030 H   0  0  0  0  0  0  0  0  0  0  0  0
   35.8330   31.7140   41.0700 H   0  0  0  0  0  0  0  0  0  0  0  0
   37.0190   27.2970   40.9600 C   0  0  0  0  0  0  0  0  0  0  0  0
   36.9580   27.0840   42.3220 C   0  0  0  0  0  0  0  0  0  0  0  0
   36.9800   27.8800   43.0510 H   0  0  0  0  0  0  0  0  0  0  0  0
   36.8650   25.7680   42.7740 C   0  0  0  0  0  0  0  0  0  0  0  0
   36.8110   25.4830   43.8060 H   0  0  0  0  0  0  0  0  0  0  0  0
   36.8400   24.7740   41.7950 C   0  0  0  0  0  3  0  0  0  0  0  0
   36.9010   25.0010   40.4170 C   0  0  0  0  0  3  0  0  0  0  0  0
   36.9920   26.3020   40.0540 N   0  0  0  0  0  0  0  0  0  0  0  0
   39.0300   33.1180   40.9270 C   0  0  0  0  0  0  0  0  0  0  0  0
   38.5560   32.1740   41.2520 H   0  0  0  0  0  0  0  0  0  0  0  0
   38.8660   33.9270   41.6700 H   0  0  0  0  0  0  0  0  0  0  0  0
   40.4220   32.9630   40.7050 N   0  0  0  0  0  0  0  0  0  0  0  0
   40.9840   33.5780   39.5800 C   0  0  0  0  0  0  0  0  0  0  0  0
   40.9760   32.6320   38.3670 C   0  0  0  0  0  0  0  0  0  0  0  0
   41.9640   31.5360   38.6980 C   0  0  0  0  0  0  0  0  0  0  0  0
   41.3940   30.8250   39.9010 C   0  0  0  0  0  0  0  0  0  0  0  0
   41.0380   31.7480   41.0300 C   0  0  2  0  0  0  0  0  0  0  0  0
   42.0890   33.6770   39.8140 H   0  0  0  0  0  0  0  0  0  0  0  0
   40.7070   34.6020   39.3310 H   0  0  0  0  0  0  0  0  0  0  0  0
   39.9830   32.1490   38.2610 H   0  0  0  0  0  0  0  0  0  0  0  0
   41.2570   33.1720   37.4420 H   0  0  0  0  0  0  0  0  0  0  0  0
   42.9020   32.0380   39.0410 H   0  0  0  0  0  0  0  0  0  0  0  0
   42.1160   30.8260   37.8940 H   0  0  0  0  0  0  0  0  0  0  0  0
   40.4340   30.3490   39.5790 H   0  0  0  0  0  0  0  0  0  0  0  0
   42.0510   30.0360   40.2880 H   0  0  0  0  0  0  0  0  0  0  0  0
   42.0050   31.9560   41.5620 H   0  0  0  0  0  0  0  0  0  0  0  0
   40.2070   30.9330   42.0130 C   0  0  0  0  0  0  0  0  0  0  0  0
   39.1900   30.8400   41.5910 H   0  0  0  0  0  0  0  0  0  0  0  0
   40.1740   31.3970   43.0040 H   0  0  0  0  0  0  0  0  0  0  0  0
   40.6930   29.9340   42.0520 H   0  0  0  0  0  0  0  0  0  0  0  0
  1  4  1  6  0  0  0
  1  9  1  0  0  0  0
  1  2  1  0  0  0  0
  1  3  1  0  0  0  0
  2  3  1  0  0  0  0
  2  6  1  0  0  0  0
  3  7  1  6  0  0  0
  3 24  1  0  0  0  0
  5  2  1  0  0  0  0
  8 13  2  0  0  0  0
  8  9  1  0  0  0  0
  9 10  2  0  0  0  0
 10 11  1  0  0  0  0
 10 15  1  0  0  0  0
 12 16  1  0  0  0  0
 12 11  2  0  0  0  0
 13 12  1  0  0  0  0
 14  8  1  0  0  0  0
 16 17  1  0  0  0  0
 17 19  2  0  0  0  0
 17 18  1  0  0  0  0
 19 20  1  0  0  0  0
 21 19  1  0  0  0  0
 22 21  2  0  0  0  0
 23 22  1  0  0  0  0
 23 16  2  0  0  0  0
 24 25  1  0  0  0  0
 24 26  1  0  0  0  0
 27 24  1  0  0  0  0
 27 32  1  0  0  0  0
 28 33  1  0  0  0  0
 28 27  1  0  0  0  0
 29 30  1  0  0  0  0
 29 28  1  0  0  0  0
 30 37  1  0  0  0  0
 30 31  1  0  0  0  0
 31 40  1  0  0  0  0
 31 32  1  0  0  0  0
 32 41  1  1  0  0  0
 32 42  1  0  0  0  0
 34 28  1  0  0  0  0
 35 29  1  0  0  0  0
 36 29  1  0  0  0  0
 38 30  1  0  0  0  0
 39 31  1  0  0  0  0
 42 45  1  0  0  0  0
 42 44  1  0  0  0  0
 43 42  1  0  0  0  0
M  END
>  <minimizedAffinity>
-5.19904566

$$$$

 OpenBabel03252500383D

 45 48  0  0  1  0  0  0  0  0999 V2000
   37.0620   32.1730   39.4530 C   0  0  1  0  0  0  0  0  0  0  0  0
   37.6900   33.2010   40.1580 C   0  0  0  0  0  0  0  0  0  0  0  0
   38.4460   32.7150   38.9890 C   0  0  1  0  0  0  0  0  0  0  0  0
   36.2110   32.3940   38.7490 H   0  0  0  0  0  0  0  0  0  0  0  0
   37.3130   34.2330   40.1340 H   0  0  0  0  0  0  0  0  0  0  0  0
   38.1790   32.9790   41.1520 H   0  0  0  0  0  0  0  0  0  0  0  0
   38.3590   33.1570   37.9840 H   0  0  0  0  0  0  0  0  0  0  0  0
   36.7940   29.7890   38.7690 C   0  0  0  0  0  0  0  0  0  0  0  0
   37.0110   30.7270   39.8280 C   0  0  0  0  0  0  0  0  0  0  0  0
   37.1540   30.2830   41.1030 C   0  0  0  0  0  0  0  0  0  0  0  0
   37.0790   28.9310   41.3020 N   0  0  0  0  0  0  0  0  0  0  0  0
   36.8740   28.0460   40.3020 C   0  0  0  0  0  0  0  0  0  0  0  0
   36.7260   28.4570   38.9960 N   0  0  0  0  0  0  0  0  0  0  0  0
   36.6730   30.0640   37.7440 H   0  0  0  0  0  0  0  0  0  0  0  0
   37.3170   30.9780   41.9140 H   0  0  0  0  0  0  0  0  0  0  0  0
   36.8110   26.6210   40.6150 C   0  0  0  0  0  0  0  0  0  0  0  0
   37.1120   26.1810   41.8880 C   0  0  0  0  0  0  0  0  0  0  0  0
   37.4010   26.8400   42.6930 H   0  0  0  0  0  0  0  0  0  0  0  0
   37.0390   24.8120   42.1410 C   0  0  0  0  0  0  0  0  0  0  0  0
   37.2490   24.3570   43.0890 H   0  0  0  0  0  0  0  0  0  0  0  0
   36.6620   24.0000   41.0690 C   0  0  0  0  0  3  0  0  0  0  0  0
   36.3580   24.4570   39.7840 C   0  0  0  0  0  3  0  0  0  0  0  0
   36.4520   25.7960   39.6140 N   0  0  0  0  0  0  0  0  0  0  0  0
   39.6530   31.8740   39.1780 C   0  0  0  0  0  0  0  0  0  0  0  0
   39.4940   30.9120   38.6550 H   0  0  0  0  0  0  0  0  0  0  0  0
   39.8070   31.7190   40.2660 H   0  0  0  0  0  0  0  0  0  0  0  0
   40.7560   32.5900   38.6460 N   0  0  0  0  0  0  0  0  0  0  0  0
   41.0320   32.4600   37.2800 C   0  0  0  0  0  0  0  0  0  0  0  0
   42.0190   31.3100   37.0180 C   0  0  0  0  0  0  0  0  0  0  0  0
   43.3380   31.7640   37.6010 C   0  0  0  0  0  0  0  0  0  0  0  0
   43.1010   31.9030   39.0840 C   0  0  0  0  0  0  0  0  0  0  0  0
   41.9100   32.7500   39.4250 C   0  0  2  0  0  0  0  0  0  0  0  0
   41.6380   33.3790   37.0090 H   0  0  0  0  0  0  0  0  0  0  0  0
   40.2140   32.5010   36.5600 H   0  0  0  0  0  0  0  0  0  0  0  0
   41.7130   30.4030   37.5810 H   0  0  0  0  0  0  0  0  0  0  0  0
   42.1000   31.0970   35.9340 H   0  0  0  0  0  0  0  0  0  0  0  0
   43.5260   32.7950   37.2110 H   0  0  0  0  0  0  0  0  0  0  0  0
   44.1550   31.0750   37.4260 H   0  0  0  0  0  0  0  0  0  0  0  0
   42.8750   30.8810   39.4790 H   0  0  0  0  0  0  0  0  0  0  0  0
   43.9730   32.2910   39.6270 H   0  0  0  0  0  0  0  0  0  0  0  0
   42.2650   33.8120   39.3430 H   0  0  0  0  0  0  0  0  0  0  0  0
   41.6320   32.5340   40.9070 C   0  0  0  0  0  0  0  0  0  0  0  0
   41.1330   31.5540   41.0120 H   0  0  0  0  0  0  0  0  0  0  0  0
   41.0100   33.3320   41.3270 H   0  0  0  0  0  0  0  0  0  0  0  0
   42.6300   32.5040   41.3930 H   0  0  0  0  0  0  0  0  0  0  0  0
  1  4  1  6  0  0  0
  1  9  1  0  0  0  0
  1  2  1  0  0  0  0
  2  6  1  0  0  0  0
  3  7  1  6  0  0  0
  3 24  1  0  0  0  0
  3  1  1  0  0  0  0
  3  2  1  0  0  0  0
  5  2  1  0  0  0  0
  8 13  2  0  0  0  0
  8  9  1  0  0  0  0
  9 10  2  0  0  0  0
 10 11  1  0  0  0  0
 10 15  1  0  0  0  0
 12 16  1  0  0  0  0
 12 11  2  0  0  0  0
 13 12  1  0  0  0  0
 14  8  1  0  0  0  0
 16 17  1  0  0  0  0
 17 19  2  0  0  0  0
 17 18  1  0  0  0  0
 19 20  1  0  0  0  0
 21 19  1  0  0  0  0
 22 21  2  0  0  0  0
 23 22  1  0  0  0  0
 23 16  2  0  0  0  0
 24 26  1  0  0  0  0
 25 24  1  0  0  0  0
 27 24  1  0  0  0  0
 27 32  1  0  0  0  0
 28 27  1  0  0  0  0
 29 28  1  0  0  0  0
 29 35  1  0  0  0  0
 29 30  1  0  0  0  0
 30 31  1  0  0  0  0
 31 32  1  0  0  0  0
 31 39  1  0  0  0  0
 31 40  1  0  0  0  0
 32 41  1  6  0  0  0
 32 42  1  0  0  0  0
 33 28  1  0  0  0  0
 34 28  1  0  0  0  0
 36 29  1  0  0  0  0
 37 30  1  0  0  0  0
 38 30  1  0  0  0  0
 42 43  1  0  0  0  0
 42 44  1  0  0  0  0
 42 45  1  0  0  0  0
M  END
>  <minimizedAffinity>
-5.1427989

$$$$
