
 OpenBabel03252508323D

 31 33  0  0  1  0  0  0  0  0999 V2000
   44.2810   34.4440   41.7810 N   0  0  0  0  0  0  0  0  0  0  0  0
   44.6020   33.4490   40.8080 C   0  0  1  0  0  0  0  0  0  0  0  0
   43.9940   33.6520   39.4720 C   0  0  0  0  0  0  0  0  0  0  0  0
   42.7420   34.2670   39.4000 N   0  0  0  0  0  0  0  0  0  0  0  0
   42.3640   35.1410   40.4400 C   0  0  0  0  0  0  0  0  0  0  0  0
   43.5610   35.5700   41.2680 C   0  0  0  0  0  0  0  0  0  0  0  0
   44.2830   32.4510   41.2320 H   0  0  0  0  0  0  0  0  0  0  0  0
   44.7140   34.1870   38.8180 H   0  0  0  0  0  0  0  0  0  0  0  0
   43.9050   32.6300   39.0030 H   0  0  0  0  0  0  0  0  0  0  0  0
   42.6240   34.7540   38.4800 H   0  0  0  0  0  0  0  0  0  0  0  0
   41.8910   36.1050   40.1000 H   0  0  0  0  0  0  0  0  0  0  0  0
   41.6450   34.6420   41.1060 H   0  0  0  0  0  0  0  0  0  0  0  0
   44.1890   36.1820   40.5520 H   0  0  0  0  0  0  0  0  0  0  0  0
   43.1880   36.2910   41.9870 H   0  0  0  0  0  0  0  0  0  0  0  0
   44.5500   35.3160   43.9790 C   0  0  0  0  0  0  0  0  0  0  0  0
   44.6930   34.2370   43.1140 C   0  0  0  0  0  0  0  0  0  0  0  0
   45.2300   33.0720   43.6330 C   0  0  0  0  0  0  0  0  0  0  0  0
   45.6040   32.9780   44.9340 N   0  0  0  0  0  0  0  0  0  0  0  0
   45.4510   34.0560   45.7580 C   0  0  0  0  0  0  0  0  0  0  0  0
   44.9360   35.1870   45.2800 N   0  0  0  0  0  0  0  0  0  0  0  0
   44.1590   36.3010   43.7800 H   0  0  0  0  0  0  0  0  0  0  0  0
   45.3390   32.2430   42.9780 H   0  0  0  0  0  0  0  0  0  0  0  0
   45.7650   33.9240   46.7820 H   0  0  0  0  0  0  0  0  0  0  0  0
   46.0710   33.3440   40.5950 C   0  0  0  0  0  0  0  0  0  0  0  0
   46.6900   32.1250   40.4020 C   0  0  0  0  0  0  0  0  0  0  0  0
   46.1420   31.2100   40.3930 H   0  0  0  0  0  0  0  0  0  0  0  0
   48.0510   31.9680   40.2050 C   0  0  0  0  0  0  0  0  0  0  0  0
   48.5180   31.0050   40.0540 H   0  0  0  0  0  0  0  0  0  0  0  0
   48.8630   33.0700   40.1940 C   0  0  0  0  0  3  0  0  0  0  0  0
   48.2460   34.2880   40.3870 C   0  0  0  0  0  3  0  0  0  0  0  0
   46.9420   34.3960   40.5720 N   0  0  0  0  0  0  0  0  0  0  0  0
  1 16  1  0  0  0  0
  2  7  1  1  0  0  0
  2  1  1  0  0  0  0
  3  2  1  0  0  0  0
  4  3  1  0  0  0  0
  4  5  1  0  0  0  0
  5 12  1  0  0  0  0
  5  6  1  0  0  0  0
  6  1  1  0  0  0  0
  6 14  1  0  0  0  0
  8  3  1  0  0  0  0
  9  3  1  0  0  0  0
 10  4  1  0  0  0  0
 11  5  1  0  0  0  0
 13  6  1  0  0  0  0
 15 20  1  0  0  0  0
 16 17  1  0  0  0  0
 16 15  2  0  0  0  0
 17 18  2  0  0  0  0
 18 19  1  0  0  0  0
 19 23  1  0  0  0  0
 20 19  2  0  0  0  0
 21 15  1  0  0  0  0
 22 17  1  0  0  0  0
 24  2  1  0  0  0  0
 25 24  2  0  0  0  0
 26 25  1  0  0  0  0
 27 25  1  0  0  0  0
 28 27  1  0  0  0  0
 29 27  2  0  0  0  0
 29 30  1  0  0  0  0
 30 31  2  0  0  0  0
 31 24  1  0  0  0  0
M  END
>  <minimizedAffinity>
-4.24939346

>  <minimizedRMSD>
0.343400031

$$$$
