
 OpenBabel03252508323D

 31 33  0  0  1  0  0  0  0  0999 V2000
   44.3530   34.4760   41.9250 N   0  0  0  0  0  0  0  0  0  0  0  0
   44.6990   33.4720   40.9700 C   0  0  1  0  0  0  0  0  0  0  0  0
   44.1380   33.6710   39.6130 C   0  0  0  0  0  0  0  0  0  0  0  0
   42.8950   34.2930   39.4930 N   0  0  0  0  0  0  0  0  0  0  0  0
   42.4880   35.1780   40.5150 C   0  0  0  0  0  0  0  0  0  0  0  0
   43.6590   35.6040   41.3800 C   0  0  0  0  0  0  0  0  0  0  0  0
   44.3580   32.4790   41.3890 H   0  0  0  0  0  0  0  0  0  0  0  0
   44.8840   34.1950   38.9790 H   0  0  0  0  0  0  0  0  0  0  0  0
   44.0580   32.6450   39.1470 H   0  0  0  0  0  0  0  0  0  0  0  0
   42.8120   34.7750   38.5670 H   0  0  0  0  0  0  0  0  0  0  0  0
   42.0350   36.1430   40.1520 H   0  0  0  0  0  0  0  0  0  0  0  0
   41.7430   34.6890   41.1590 H   0  0  0  0  0  0  0  0  0  0  0  0
   44.3160   36.2060   40.6820 H   0  0  0  0  0  0  0  0  0  0  0  0
   43.2670   36.3320   42.0810 H   0  0  0  0  0  0  0  0  0  0  0  0
   44.4940   35.3400   44.1380 C   0  0  0  0  0  0  0  0  0  0  0  0
   44.7180   34.2750   43.2720 C   0  0  0  0  0  0  0  0  0  0  0  0
   45.2810   33.1290   43.8050 C   0  0  0  0  0  0  0  0  0  0  0  0
   45.6050   33.0400   45.1200 N   0  0  0  0  0  0  0  0  0  0  0  0
   45.3720   34.1040   45.9440 C   0  0  0  0  0  0  0  0  0  0  0  0
   44.8300   35.2160   45.4520 N   0  0  0  0  0  0  0  0  0  0  0  0
   44.0710   36.3090   43.9290 H   0  0  0  0  0  0  0  0  0  0  0  0
   45.4520   32.3100   43.1500 H   0  0  0  0  0  0  0  0  0  0  0  0
   45.6490   33.9770   46.9790 H   0  0  0  0  0  0  0  0  0  0  0  0
   46.1730   33.3550   40.8070 C   0  0  0  0  0  0  0  0  0  0  0  0
   46.9810   34.4700   40.7080 C   0  0  0  0  0  0  0  0  0  0  0  0
   46.5850   35.4600   40.7490 H   0  0  0  0  0  0  0  0  0  0  0  0
   48.3570   34.4210   40.5490 C   0  0  0  0  0  0  0  0  0  0  0  0
   48.9730   35.3050   40.4730 H   0  0  0  0  0  0  0  0  0  0  0  0
   48.9860   33.2070   40.4830 C   0  0  0  0  0  3  0  0  0  0  0  0
   48.1790   32.0940   40.5820 C   0  0  0  0  0  3  0  0  0  0  0  0
   46.8690   32.1820   40.7330 N   0  0  0  0  0  0  0  0  0  0  0  0
  1 16  1  0  0  0  0
  2  7  1  1  0  0  0
  2  1  1  0  0  0  0
  3  2  1  0  0  0  0
  4  3  1  0  0  0  0
  4  5  1  0  0  0  0
  5 12  1  0  0  0  0
  5  6  1  0  0  0  0
  6  1  1  0  0  0  0
  6 14  1  0  0  0  0
  8  3  1  0  0  0  0
  9  3  1  0  0  0  0
 10  4  1  0  0  0  0
 11  5  1  0  0  0  0
 13  6  1  0  0  0  0
 15 20  1  0  0  0  0
 16 17  1  0  0  0  0
 16 15  2  0  0  0  0
 17 18  2  0  0  0  0
 18 19  1  0  0  0  0
 19 23  1  0  0  0  0
 20 19  2  0  0  0  0
 21 15  1  0  0  0  0
 22 17  1  0  0  0  0
 24  2  1  0  0  0  0
 25 26  1  0  0  0  0
 25 24  2  0  0  0  0
 27 25  1  0  0  0  0
 28 27  1  0  0  0  0
 29 27  2  0  0  0  0
 29 30  1  0  0  0  0
 30 31  2  0  0  0  0
 31 24  1  0  0  0  0
M  END
>  <minimizedAffinity>
-4.39874554

>  <minimizedRMSD>
0.395861119

$$$$
