
 OpenBabel03252508323D

 31 33  0  0  1  0  0  0  0  0999 V2000
   44.1040   34.2360   42.1240 N   0  0  0  0  0  0  0  0  0  0  0  0
   44.4050   33.6150   40.8740 C   0  0  1  0  0  0  0  0  0  0  0  0
   43.5500   34.0320   39.7390 C   0  0  0  0  0  0  0  0  0  0  0  0
   42.2230   34.3780   40.0000 N   0  0  0  0  0  0  0  0  0  0  0  0
   41.8960   34.8560   41.2870 C   0  0  0  0  0  0  0  0  0  0  0  0
   43.1340   35.2870   42.0500 C   0  0  0  0  0  0  0  0  0  0  0  0
   44.3290   32.4980   41.0280 H   0  0  0  0  0  0  0  0  0  0  0  0
   44.0500   34.8530   39.1830 H   0  0  0  0  0  0  0  0  0  0  0  0
   43.5460   33.1710   39.0090 H   0  0  0  0  0  0  0  0  0  0  0  0
   41.8700   35.0540   39.2810 H   0  0  0  0  0  0  0  0  0  0  0  0
   41.2230   35.7590   41.2990 H   0  0  0  0  0  0  0  0  0  0  0  0
   41.3920   34.0660   41.8630 H   0  0  0  0  0  0  0  0  0  0  0  0
   43.5220   36.1780   41.4700 H   0  0  0  0  0  0  0  0  0  0  0  0
   42.7810   35.7040   42.9870 H   0  0  0  0  0  0  0  0  0  0  0  0
   45.0160   34.7230   44.2680 C   0  0  0  0  0  0  0  0  0  0  0  0
   44.7690   33.7760   43.2800 C   0  0  0  0  0  0  0  0  0  0  0  0
   45.2010   32.4830   43.5150 C   0  0  0  0  0  0  0  0  0  0  0  0
   45.8430   32.1440   44.6620 N   0  0  0  0  0  0  0  0  0  0  0  0
   46.0700   33.0970   45.6130 C   0  0  0  0  0  0  0  0  0  0  0  0
   45.6620   34.3480   45.4080 N   0  0  0  0  0  0  0  0  0  0  0  0
   44.7650   35.7710   44.2830 H   0  0  0  0  0  0  0  0  0  0  0  0
   45.0130   31.7540   42.7660 H   0  0  0  0  0  0  0  0  0  0  0  0
   46.5840   32.7710   46.5040 H   0  0  0  0  0  0  0  0  0  0  0  0
   45.8120   33.8680   40.4620 C   0  0  0  0  0  0  0  0  0  0  0  0
   46.3320   33.3370   39.2970 C   0  0  0  0  0  0  0  0  0  0  0  0
   45.7480   32.7280   38.6450 H   0  0  0  0  0  0  0  0  0  0  0  0
   47.6340   33.5350   38.8670 C   0  0  0  0  0  0  0  0  0  0  0  0
   48.0240   33.1100   37.9530 H   0  0  0  0  0  0  0  0  0  0  0  0
   48.4850   34.3000   39.6200 C   0  0  0  0  0  3  0  0  0  0  0  0
   47.9650   34.8310   40.7810 C   0  0  0  0  0  3  0  0  0  0  0  0
   46.7160   34.6190   41.1580 N   0  0  0  0  0  0  0  0  0  0  0  0
  1 16  1  0  0  0  0
  2  7  1  1  0  0  0
  2  1  1  0  0  0  0
  3  4  1  0  0  0  0
  3  2  1  0  0  0  0
  4  5  1  0  0  0  0
  5 11  1  0  0  0  0
  5 12  1  0  0  0  0
  5  6  1  0  0  0  0
  6  1  1  0  0  0  0
  6 14  1  0  0  0  0
  8  3  1  0  0  0  0
  9  3  1  0  0  0  0
 10  4  1  0  0  0  0
 13  6  1  0  0  0  0
 15 21  1  0  0  0  0
 15 20  1  0  0  0  0
 16 17  1  0  0  0  0
 16 15  2  0  0  0  0
 17 18  2  0  0  0  0
 18 19  1  0  0  0  0
 19 23  1  0  0  0  0
 20 19  2  0  0  0  0
 22 17  1  0  0  0  0
 24  2  1  0  0  0  0
 24 31  1  0  0  0  0
 25 24  2  0  0  0  0
 26 25  1  0  0  0  0
 27 25  1  0  0  0  0
 27 29  2  0  0  0  0
 28 27  1  0  0  0  0
 29 30  1  0  0  0  0
 30 31  2  0  0  0  0
M  END
>  <minimizedAffinity>
-4.32206106

>  <minimizedRMSD>
0.854615986

$$$$
