
 OpenBabel03252508323D

 31 33  0  0  1  0  0  0  0  0999 V2000
   45.1040   34.4170   42.2830 N   0  0  0  0  0  0  0  0  0  0  0  0
   46.0560   33.6430   41.5520 C   0  0  1  0  0  0  0  0  0  0  0  0
   45.9000   33.6740   40.0790 C   0  0  0  0  0  0  0  0  0  0  0  0
   44.6140   33.8080   39.5510 N   0  0  0  0  0  0  0  0  0  0  0  0
   43.6310   34.4460   40.3360 C   0  0  0  0  0  0  0  0  0  0  0  0
   44.2530   35.2360   41.4720 C   0  0  0  0  0  0  0  0  0  0  0  0
   45.9810   32.5800   41.9280 H   0  0  0  0  0  0  0  0  0  0  0  0
   46.5640   34.4570   39.6560 H   0  0  0  0  0  0  0  0  0  0  0  0
   46.3350   32.7080   39.6920 H   0  0  0  0  0  0  0  0  0  0  0  0
   44.6500   34.2600   38.6070 H   0  0  0  0  0  0  0  0  0  0  0  0
   42.9960   35.1930   39.7820 H   0  0  0  0  0  0  0  0  0  0  0  0
   42.9510   33.6970   40.7670 H   0  0  0  0  0  0  0  0  0  0  0  0
   44.8300   36.0600   40.9540 H   0  0  0  0  0  0  0  0  0  0  0  0
   43.4350   35.7460   41.9680 H   0  0  0  0  0  0  0  0  0  0  0  0
   44.5860   35.4070   44.3850 C   0  0  0  0  0  0  0  0  0  0  0  0
   45.0900   34.3130   43.6890 C   0  0  0  0  0  0  0  0  0  0  0  0
   45.5360   33.2360   44.4330 C   0  0  0  0  0  0  0  0  0  0  0  0
   45.4870   33.2380   45.7900 N   0  0  0  0  0  0  0  0  0  0  0  0
   44.9870   34.3280   46.4430 C   0  0  0  0  0  0  0  0  0  0  0  0
   44.5510   35.3750   45.7460 N   0  0  0  0  0  0  0  0  0  0  0  0
   44.1930   36.3340   44.0010 H   0  0  0  0  0  0  0  0  0  0  0  0
   45.9190   32.3950   43.9090 H   0  0  0  0  0  0  0  0  0  0  0  0
   44.9720   34.2750   47.5210 H   0  0  0  0  0  0  0  0  0  0  0  0
   47.4500   34.0740   41.8410 C   0  0  0  0  0  0  0  0  0  0  0  0
   47.8960   35.3420   41.5230 C   0  0  0  0  0  0  0  0  0  0  0  0
   47.2600   36.0650   41.0620 H   0  0  0  0  0  0  0  0  0  0  0  0
   49.1820   35.7960   41.7630 C   0  0  0  0  0  0  0  0  0  0  0  0
   49.5140   36.7920   41.5060 H   0  0  0  0  0  0  0  0  0  0  0  0
   50.0940   34.9610   42.3500 C   0  0  0  0  0  3  0  0  0  0  0  0
   49.6490   33.6950   42.6680 C   0  0  0  0  0  3  0  0  0  0  0  0
   48.4120   33.3000   42.4230 N   0  0  0  0  0  0  0  0  0  0  0  0
  1 16  1  0  0  0  0
  2 24  1  0  0  0  0
  2  7  1  1  0  0  0
  2  1  1  0  0  0  0
  3  2  1  0  0  0  0
  4  3  1  0  0  0  0
  4  5  1  0  0  0  0
  5 12  1  0  0  0  0
  5  6  1  0  0  0  0
  6 14  1  0  0  0  0
  6  1  1  0  0  0  0
  8  3  1  0  0  0  0
  9  3  1  0  0  0  0
 10  4  1  0  0  0  0
 11  5  1  0  0  0  0
 13  6  1  0  0  0  0
 15 20  1  0  0  0  0
 16 15  2  0  0  0  0
 16 17  1  0  0  0  0
 17 18  2  0  0  0  0
 18 19  1  0  0  0  0
 19 23  1  0  0  0  0
 20 19  2  0  0  0  0
 21 15  1  0  0  0  0
 22 17  1  0  0  0  0
 24 31  1  0  0  0  0
 25 27  1  0  0  0  0
 25 24  2  0  0  0  0
 26 25  1  0  0  0  0
 27 29  2  0  0  0  0
 28 27  1  0  0  0  0
 29 30  1  0  0  0  0
 31 30  2  0  0  0  0
M  END
>  <minimizedAffinity>
-5.25727272

>  <minimizedRMSD>
1.94268179

$$$$
