
 OpenBabel03252507093D

 23 24  0  0  0  0  0  0  0  0999 V2000
   38.8370   27.8990   43.4030 C   0  0  0  0  0  0  0  0  0  0  0  0
   38.8540   29.2150   42.9100 C   0  0  0  0  0  0  0  0  0  0  0  0
   38.2490   29.4460   41.6700 C   0  0  0  0  0  0  0  0  0  0  0  0
   37.6870   28.3950   41.0230 N   0  0  0  0  0  0  0  0  0  0  0  0
   37.6850   27.1380   41.5250 C   0  0  0  0  0  0  0  0  0  0  0  0
   38.2600   26.9000   42.7090 N   0  0  0  0  0  0  0  0  0  0  0  0
   39.3240   27.7960   44.3700 H   0  0  0  0  0  0  0  0  0  0  0  0
   39.3200   30.0220   43.4710 H   0  0  0  0  0  0  0  0  0  0  0  0
   37.0590   26.0590   40.7690 C   0  0  0  0  0  0  0  0  0  0  0  0
   36.9140   24.8110   41.3390 C   0  0  0  0  0  0  0  0  0  0  0  0
   37.2700   24.6360   42.3560 H   0  0  0  0  0  0  0  0  0  0  0  0
   36.3410   23.7530   40.6970 C   0  0  0  0  0  0  0  0  0  0  0  0
   36.2440   22.7790   41.1830 H   0  0  0  0  0  0  0  0  0  0  0  0
   35.8870   23.9510   39.4170 C   0  0  0  0  0  3  0  0  0  0  0  0
   36.0300   25.2090   38.8360 C   0  0  0  0  0  3  0  0  0  0  0  0
   36.6090   26.2360   39.5130 N   0  0  0  0  0  0  0  0  0  0  0  0
   38.2650   30.7380   41.1830 O   0  0  0  0  0  0  0  0  0  0  0  0
   36.7760   30.9260   39.0050 O   0  0  0  0  0  0  0  0  0  0  0  0
   36.8630   31.3880   40.4520 P   0  0  0  0  0  0  0  0  0  0  0  0
   35.5300   30.9200   41.3400 O   0  0  0  0  0  0  0  0  0  0  0  0
   35.0780   30.1640   40.8620 H   0  0  0  0  0  0  0  0  0  0  0  0
   37.0510   33.0850   40.4520 O   0  0  0  0  0  0  0  0  0  0  0  0
   36.9510   33.3570   41.4000 H   0  0  0  0  0  0  0  0  0  0  0  0
  1  7  1  0  0  0  0
  2  1  1  0  0  0  0
  2  8  1  0  0  0  0
  3  2  2  0  0  0  0
  4  5  2  0  0  0  0
  4  3  1  0  0  0  0
  5  6  1  0  0  0  0
  6  1  2  0  0  0  0
  9 10  1  0  0  0  0
  9  5  1  0  0  0  0
 10 11  1  0  0  0  0
 12 13  1  0  0  0  0
 12 10  2  0  0  0  0
 14 12  1  0  0  0  0
 15 14  2  0  0  0  0
 15 16  1  0  0  0  0
 16  9  2  0  0  0  0
 17  3  1  0  0  0  0
 18 19  2  0  0  0  0
 19 17  1  0  0  0  0
 19 20  1  0  0  0  0
 21 20  1  0  0  0  0
 22 19  1  0  0  0  0
 22 23  1  0  0  0  0
M  END
>  <minimizedAffinity>
-5.4175272

$$$$

 OpenBabel03252507093D

 23 24  0  0  0  0  0  0  0  0999 V2000
   38.8250   34.1550   40.4940 C   0  0  0  0  0  0  0  0  0  0  0  0
   40.0420   34.1360   39.7930 C   0  0  0  0  0  0  0  0  0  0  0  0
   40.6950   32.9050   39.6670 C   0  0  0  0  0  0  0  0  0  0  0  0
   40.1190   31.8120   40.2240 N   0  0  0  0  0  0  0  0  0  0  0  0
   38.9440   31.8610   40.8940 C   0  0  0  0  0  0  0  0  0  0  0  0
   38.3070   33.0310   41.0240 N   0  0  0  0  0  0  0  0  0  0  0  0
   38.3770   35.1430   40.5520 H   0  0  0  0  0  0  0  0  0  0  0  0
   40.4620   35.0440   39.3650 H   0  0  0  0  0  0  0  0  0  0  0  0
   38.3860   30.6400   41.4670 C   0  0  0  0  0  0  0  0  0  0  0  0
   39.0380   30.0030   42.5020 C   0  0  0  0  0  0  0  0  0  0  0  0
   39.9720   30.4160   42.8890 H   0  0  0  0  0  0  0  0  0  0  0  0
   38.5810   28.8600   43.0880 C   0  0  0  0  0  0  0  0  0  0  0  0
   39.1270   28.3840   43.9070 H   0  0  0  0  0  0  0  0  0  0  0  0
   37.4100   28.3240   42.6160 C   0  0  0  0  0  3  0  0  0  0  0  0
   36.7450   28.9620   41.5720 C   0  0  0  0  0  3  0  0  0  0  0  0
   37.2380   30.1010   41.0160 N   0  0  0  0  0  0  0  0  0  0  0  0
   41.8920   32.8850   38.9780 O   0  0  0  0  0  0  0  0  0  0  0  0
   42.8360   31.5810   36.8790 O   0  0  0  0  0  0  0  0  0  0  0  0
   41.8910   32.7040   37.2780 P   0  0  0  0  0  0  0  0  0  0  0  0
   40.3260   32.4170   36.7720 O   0  0  0  0  0  0  0  0  0  0  0  0
   40.2270   31.4370   36.5860 H   0  0  0  0  0  0  0  0  0  0  0  0
   42.5020   34.1610   36.6300 O   0  0  0  0  0  0  0  0  0  0  0  0
   41.7870   34.8320   36.7800 H   0  0  0  0  0  0  0  0  0  0  0  0
  1  7  1  0  0  0  0
  1  6  1  0  0  0  0
  2  1  2  0  0  0  0
  3  2  1  0  0  0  0
  3  4  2  0  0  0  0
  4  5  1  0  0  0  0
  5  6  2  0  0  0  0
  5  9  1  0  0  0  0
  8  2  1  0  0  0  0
  9 10  1  0  0  0  0
 10 11  1  0  0  0  0
 10 12  2  0  0  0  0
 12 13  1  0  0  0  0
 14 12  1  0  0  0  0
 15 14  2  0  0  0  0
 16  9  2  0  0  0  0
 16 15  1  0  0  0  0
 17  3  1  0  0  0  0
 18 19  2  0  0  0  0
 19 17  1  0  0  0  0
 20 19  1  0  0  0  0
 21 20  1  0  0  0  0
 22 23  1  0  0  0  0
 22 19  1  0  0  0  0
M  END
>  <minimizedAffinity>
-5.39871502

$$$$

 OpenBabel03252507093D

 23 24  0  0  0  0  0  0  0  0999 V2000
   35.5660   28.1840   37.0390 C   0  0  0  0  0  0  0  0  0  0  0  0
   35.9510   29.5140   37.2820 C   0  0  0  0  0  0  0  0  0  0  0  0
   36.5670   29.7930   38.5060 C   0  0  0  0  0  0  0  0  0  0  0  0
   36.7540   28.7730   39.3790 N   0  0  0  0  0  0  0  0  0  0  0  0
   36.3720   27.5010   39.1170 C   0  0  0  0  0  0  0  0  0  0  0  0
   35.7820   27.2170   37.9510 N   0  0  0  0  0  0  0  0  0  0  0  0
   35.0940   28.0430   36.0700 H   0  0  0  0  0  0  0  0  0  0  0  0
   35.7760   30.2960   36.5460 H   0  0  0  0  0  0  0  0  0  0  0  0
   36.6090   26.4560   40.1070 C   0  0  0  0  0  0  0  0  0  0  0  0
   37.0430   26.7910   41.3730 C   0  0  0  0  0  0  0  0  0  0  0  0
   37.2090   27.8390   41.6290 H   0  0  0  0  0  0  0  0  0  0  0  0
   37.2860   25.8730   42.3520 C   0  0  0  0  0  0  0  0  0  0  0  0
   37.6300   26.1780   43.3440 H   0  0  0  0  0  0  0  0  0  0  0  0
   37.0840   24.5500   42.0520 C   0  0  0  0  0  3  0  0  0  0  0  0
   36.6450   24.2040   40.7760 C   0  0  0  0  0  3  0  0  0  0  0  0
   36.4160   25.1530   39.8300 N   0  0  0  0  0  0  0  0  0  0  0  0
   36.9460   31.0990   38.7470 O   0  0  0  0  0  0  0  0  0  0  0  0
   38.3140   31.1520   41.0090 O   0  0  0  0  0  0  0  0  0  0  0  0
   37.0450   31.6730   40.3550 P   0  0  0  0  0  0  0  0  0  0  0  0
   36.9880   33.3400   40.3320 O   0  0  0  0  0  0  0  0  0  0  0  0
   37.9180   33.6920   40.4560 H   0  0  0  0  0  0  0  0  0  0  0  0
   35.7120   31.0120   41.1930 O   0  0  0  0  0  0  0  0  0  0  0  0
   34.9180   31.4900   40.8360 H   0  0  0  0  0  0  0  0  0  0  0  0
  1  2  2  0  0  0  0
  1  6  1  0  0  0  0
  2  3  1  0  0  0  0
  3 17  1  0  0  0  0
  3  4  2  0  0  0  0
  5  4  1  0  0  0  0
  5  9  1  0  0  0  0
  6  5  2  0  0  0  0
  7  1  1  0  0  0  0
  8  2  1  0  0  0  0
  9 10  1  0  0  0  0
 10 11  1  0  0  0  0
 10 12  2  0  0  0  0
 12 13  1  0  0  0  0
 14 12  1  0  0  0  0
 15 14  2  0  0  0  0
 16  9  2  0  0  0  0
 16 15  1  0  0  0  0
 17 19  1  0  0  0  0
 19 18  2  0  0  0  0
 19 22  1  0  0  0  0
 20 19  1  0  0  0  0
 20 21  1  0  0  0  0
 23 22  1  0  0  0  0
M  END
>  <minimizedAffinity>
-5.18064976

$$$$

 OpenBabel03252507093D

 23 24  0  0  0  0  0  0  0  0999 V2000
   41.7410   31.5700   42.3950 C   0  0  0  0  0  0  0  0  0  0  0  0
   42.1750   32.4240   41.3680 C   0  0  0  0  0  0  0  0  0  0  0  0
   41.3010   32.6390   40.2960 C   0  0  0  0  0  0  0  0  0  0  0  0
   40.0980   32.0150   40.3130 N   0  0  0  0  0  0  0  0  0  0  0  0
   39.7070   31.1980   41.3190 C   0  0  0  0  0  0  0  0  0  0  0  0
   40.5300   30.9820   42.3510 N   0  0  0  0  0  0  0  0  0  0  0  0
   42.4710   31.4510   43.1920 H   0  0  0  0  0  0  0  0  0  0  0  0
   43.1530   32.8990   41.4030 H   0  0  0  0  0  0  0  0  0  0  0  0
   38.3940   30.5630   41.2660 C   0  0  0  0  0  0  0  0  0  0  0  0
   37.3590   31.1730   40.5880 C   0  0  0  0  0  0  0  0  0  0  0  0
   37.5270   32.1310   40.0930 H   0  0  0  0  0  0  0  0  0  0  0  0
   36.1060   30.6440   40.4940 C   0  0  0  0  0  0  0  0  0  0  0  0
   35.3120   31.1580   39.9470 H   0  0  0  0  0  0  0  0  0  0  0  0
   35.8730   29.4400   41.1100 C   0  0  0  0  0  3  0  0  0  0  0  0
   36.9140   28.8180   41.7970 C   0  0  0  0  0  3  0  0  0  0  0  0
   38.1480   29.3830   41.8650 N   0  0  0  0  0  0  0  0  0  0  0  0
   41.7270   33.4770   39.2840 O   0  0  0  0  0  0  0  0  0  0  0  0
   42.5620   31.6770   37.5360 O   0  0  0  0  0  0  0  0  0  0  0  0
   41.7100   32.9290   37.6640 P   0  0  0  0  0  0  0  0  0  0  0  0
   40.1280   32.6620   37.2070 O   0  0  0  0  0  0  0  0  0  0  0  0
   39.9500   31.6760   37.2380 H   0  0  0  0  0  0  0  0  0  0  0  0
   42.4350   34.1570   36.7250 O   0  0  0  0  0  0  0  0  0  0  0  0
   41.7760   34.8990   36.7130 H   0  0  0  0  0  0  0  0  0  0  0  0
  1  7  1  0  0  0  0
  2  8  1  0  0  0  0
  2  1  2  0  0  0  0
  3  4  2  0  0  0  0
  3  2  1  0  0  0  0
  4  5  1  0  0  0  0
  5  6  2  0  0  0  0
  6  1  1  0  0  0  0
  9  5  1  0  0  0  0
  9 16  1  0  0  0  0
 10  9  2  0  0  0  0
 11 10  1  0  0  0  0
 12 10  1  0  0  0  0
 12 14  2  0  0  0  0
 13 12  1  0  0  0  0
 14 15  1  0  0  0  0
 15 16  2  0  0  0  0
 17  3  1  0  0  0  0
 18 19  2  0  0  0  0
 19 17  1  0  0  0  0
 20 21  1  0  0  0  0
 20 19  1  0  0  0  0
 22 19  1  0  0  0  0
 23 22  1  0  0  0  0
M  END
>  <minimizedAffinity>
-4.80880117

$$$$

 OpenBabel03252507093D

 23 24  0  0  0  0  0  0  0  0999 V2000
   41.5700   31.3860   42.2820 C   0  0  0  0  0  0  0  0  0  0  0  0
   41.4500   32.1750   41.1250 C   0  0  0  0  0  0  0  0  0  0  0  0
   40.3650   31.9180   40.2800 C   0  0  0  0  0  0  0  0  0  0  0  0
   39.5020   30.9310   40.6240 N   0  0  0  0  0  0  0  0  0  0  0  0
   39.6440   30.1880   41.7460 C   0  0  0  0  0  0  0  0  0  0  0  0
   40.6760   30.4210   42.5650 N   0  0  0  0  0  0  0  0  0  0  0  0
   42.4350   31.6430   42.8890 H   0  0  0  0  0  0  0  0  0  0  0  0
   42.1730   32.9550   40.8950 H   0  0  0  0  0  0  0  0  0  0  0  0
   38.6720   29.1420   42.0490 C   0  0  0  0  0  0  0  0  0  0  0  0
   38.1320   29.0480   43.3150 C   0  0  0  0  0  0  0  0  0  0  0  0
   38.4360   29.7580   44.0870 H   0  0  0  0  0  0  0  0  0  0  0  0
   37.2210   28.1000   43.6750 C   0  0  0  0  0  0  0  0  0  0  0  0
   36.8150   28.0580   44.6900 H   0  0  0  0  0  0  0  0  0  0  0  0
   36.8260   27.1970   42.7200 C   0  0  0  0  0  3  0  0  0  0  0  0
   37.3670   27.2870   41.4390 C   0  0  0  0  0  3  0  0  0  0  0  0
   38.2740   28.2490   41.1250 N   0  0  0  0  0  0  0  0  0  0  0  0
   40.2460   32.6920   39.1420 O   0  0  0  0  0  0  0  0  0  0  0  0
   41.9010   32.7230   37.0800 O   0  0  0  0  0  0  0  0  0  0  0  0
   40.6590   32.0320   37.6190 P   0  0  0  0  0  0  0  0  0  0  0  0
   40.8800   30.3870   37.7910 O   0  0  0  0  0  0  0  0  0  0  0  0
   41.8640   30.2000   37.8160 H   0  0  0  0  0  0  0  0  0  0  0  0
   39.3620   32.3830   36.5650 O   0  0  0  0  0  0  0  0  0  0  0  0
   38.6190   31.7980   36.8640 H   0  0  0  0  0  0  0  0  0  0  0  0
  1  6  1  0  0  0  0
  1  7  1  0  0  0  0
  2  1  2  0  0  0  0
  3  4  2  0  0  0  0
  3  2  1  0  0  0  0
  4  5  1  0  0  0  0
  5  9  1  0  0  0  0
  5  6  2  0  0  0  0
  8  2  1  0  0  0  0
  9 10  1  0  0  0  0
 10 12  2  0  0  0  0
 10 11  1  0  0  0  0
 12 13  1  0  0  0  0
 14 12  1  0  0  0  0
 15 14  2  0  0  0  0
 16 15  1  0  0  0  0
 16  9  2  0  0  0  0
 17  3  1  0  0  0  0
 18 19  2  0  0  0  0
 19 20  1  0  0  0  0
 19 17  1  0  0  0  0
 20 21  1  0  0  0  0
 22 23  1  0  0  0  0
 22 19  1  0  0  0  0
M  END
>  <minimizedAffinity>
-4.74681759

$$$$

 OpenBabel03252507093D

 23 24  0  0  0  0  0  0  0  0999 V2000
   35.4950   28.9550   40.7900 C   0  0  0  0  0  0  0  0  0  0  0  0
   35.8980   30.2840   40.5820 C   0  0  0  0  0  0  0  0  0  0  0  0
   37.1950   30.6330   40.9740 C   0  0  0  0  0  0  0  0  0  0  0  0
   37.9790   29.6750   41.5290 N   0  0  0  0  0  0  0  0  0  0  0  0
   37.5610   28.4020   41.7160 C   0  0  0  0  0  0  0  0  0  0  0  0
   36.3240   28.0520   41.3460 N   0  0  0  0  0  0  0  0  0  0  0  0
   34.4770   28.7580   40.4610 H   0  0  0  0  0  0  0  0  0  0  0  0
   35.2280   31.0150   40.1330 H   0  0  0  0  0  0  0  0  0  0  0  0
   38.4640   27.4260   42.3190 C   0  0  0  0  0  0  0  0  0  0  0  0
   39.5350   27.8530   43.0760 C   0  0  0  0  0  0  0  0  0  0  0  0
   39.7030   28.9220   43.2210 H   0  0  0  0  0  0  0  0  0  0  0  0
   40.4210   27.0050   43.6710 C   0  0  0  0  0  0  0  0  0  0  0  0
   41.2580   27.3820   44.2640 H   0  0  0  0  0  0  0  0  0  0  0  0
   40.2280   25.6570   43.5000 C   0  0  0  0  0  3  0  0  0  0  0  0
   39.1490   25.2180   42.7370 C   0  0  0  0  0  3  0  0  0  0  0  0
   38.2890   26.1010   42.1620 N   0  0  0  0  0  0  0  0  0  0  0  0
   37.5940   31.9400   40.7710 O   0  0  0  0  0  0  0  0  0  0  0  0
   39.4430   33.8060   40.4680 O   0  0  0  0  0  0  0  0  0  0  0  0
   39.2570   32.3360   40.8100 P   0  0  0  0  0  0  0  0  0  0  0  0
   39.8600   31.9620   42.3210 O   0  0  0  0  0  0  0  0  0  0  0  0
   39.9410   32.8090   42.8490 H   0  0  0  0  0  0  0  0  0  0  0  0
   40.0100   31.4120   39.5880 O   0  0  0  0  0  0  0  0  0  0  0  0
   39.9980   30.4780   39.9240 H   0  0  0  0  0  0  0  0  0  0  0  0
  1  6  1  0  0  0  0
  2  1  2  0  0  0  0
  2  3  1  0  0  0  0
  3  4  2  0  0  0  0
  4  5  1  0  0  0  0
  5  9  1  0  0  0  0
  6  5  2  0  0  0  0
  7  1  1  0  0  0  0
  8  2  1  0  0  0  0
  9 10  1  0  0  0  0
 10 11  1  0  0  0  0
 10 12  2  0  0  0  0
 12 13  1  0  0  0  0
 14 12  1  0  0  0  0
 15 14  2  0  0  0  0
 16  9  2  0  0  0  0
 16 15  1  0  0  0  0
 17 19  1  0  0  0  0
 17  3  1  0  0  0  0
 18 19  2  0  0  0  0
 19 20  1  0  0  0  0
 20 21  1  0  0  0  0
 22 23  1  0  0  0  0
 22 19  1  0  0  0  0
M  END
>  <minimizedAffinity>
-4.67863178

$$$$

 OpenBabel03252507093D

 23 24  0  0  0  0  0  0  0  0999 V2000
   36.0980   29.4240   37.6500 C   0  0  0  0  0  0  0  0  0  0  0  0
   36.9410   30.4200   37.1280 C   0  0  0  0  0  0  0  0  0  0  0  0
   37.9200   30.9450   37.9770 C   0  0  0  0  0  0  0  0  0  0  0  0
   37.9980   30.4660   39.2430 N   0  0  0  0  0  0  0  0  0  0  0  0
   37.1710   29.5050   39.7170 C   0  0  0  0  0  0  0  0  0  0  0  0
   36.2290   28.9920   38.9180 N   0  0  0  0  0  0  0  0  0  0  0  0
   35.3630   29.0640   36.9340 H   0  0  0  0  0  0  0  0  0  0  0  0
   36.8340   30.7690   36.1030 H   0  0  0  0  0  0  0  0  0  0  0  0
   37.3160   29.0400   41.0930 C   0  0  0  0  0  0  0  0  0  0  0  0
   36.5760   27.9660   41.5400 C   0  0  0  0  0  0  0  0  0  0  0  0
   35.8810   27.4670   40.8620 H   0  0  0  0  0  0  0  0  0  0  0  0
   36.6550   27.4740   42.8100 C   0  0  0  0  0  0  0  0  0  0  0  0
   36.0510   26.6200   43.1270 H   0  0  0  0  0  0  0  0  0  0  0  0
   37.5220   28.0870   43.6800 C   0  0  0  0  0  3  0  0  0  0  0  0
   38.2730   29.1720   43.2350 C   0  0  0  0  0  3  0  0  0  0  0  0
   38.1610   29.6300   41.9590 N   0  0  0  0  0  0  0  0  0  0  0  0
   38.7490   31.9240   37.4660 O   0  0  0  0  0  0  0  0  0  0  0  0
   41.0440   30.6100   37.4330 O   0  0  0  0  0  0  0  0  0  0  0  0
   40.4120   31.9230   37.8660 P   0  0  0  0  0  0  0  0  0  0  0  0
   41.1380   33.2390   37.1390 O   0  0  0  0  0  0  0  0  0  0  0  0
   41.6290   32.9210   36.3260 H   0  0  0  0  0  0  0  0  0  0  0  0
   40.5070   32.0160   39.5680 O   0  0  0  0  0  0  0  0  0  0  0  0
   40.2270   32.9410   39.7930 H   0  0  0  0  0  0  0  0  0  0  0  0
  1  6  1  0  0  0  0
  2  1  2  0  0  0  0
  2  3  1  0  0  0  0
  3  4  2  0  0  0  0
  4  5  1  0  0  0  0
  5  9  1  0  0  0  0
  6  5  2  0  0  0  0
  7  1  1  0  0  0  0
  8  2  1  0  0  0  0
  9 10  2  0  0  0  0
  9 16  1  0  0  0  0
 10 12  1  0  0  0  0
 11 10  1  0  0  0  0
 12 13  1  0  0  0  0
 12 14  2  0  0  0  0
 15 14  1  0  0  0  0
 16 15  2  0  0  0  0
 17 19  1  0  0  0  0
 17  3  1  0  0  0  0
 18 19  2  0  0  0  0
 19 22  1  0  0  0  0
 20 19  1  0  0  0  0
 21 20  1  0  0  0  0
 22 23  1  0  0  0  0
M  END
>  <minimizedAffinity>
-4.64765692

$$$$

 OpenBabel03252507093D

 23 24  0  0  0  0  0  0  0  0999 V2000
   37.1540   29.1960   37.1250 C   0  0  0  0  0  0  0  0  0  0  0  0
   37.6690   30.4700   37.4160 C   0  0  0  0  0  0  0  0  0  0  0  0
   38.1180   30.7020   38.7200 C   0  0  0  0  0  0  0  0  0  0  0  0
   38.0300   29.6910   39.6190 N   0  0  0  0  0  0  0  0  0  0  0  0
   37.5300   28.4720   39.3080 C   0  0  0  0  0  0  0  0  0  0  0  0
   37.0960   28.2340   38.0660 N   0  0  0  0  0  0  0  0  0  0  0  0
   36.8250   29.0900   36.0940 H   0  0  0  0  0  0  0  0  0  0  0  0
   37.7150   31.2480   36.6560 H   0  0  0  0  0  0  0  0  0  0  0  0
   37.4680   27.4330   40.3310 C   0  0  0  0  0  0  0  0  0  0  0  0
   36.9980   26.1760   40.0110 C   0  0  0  0  0  0  0  0  0  0  0  0
   36.6720   25.9640   38.9920 H   0  0  0  0  0  0  0  0  0  0  0  0
   36.9100   25.1550   40.9110 C   0  0  0  0  0  0  0  0  0  0  0  0
   36.5320   24.1720   40.6180 H   0  0  0  0  0  0  0  0  0  0  0  0
   37.3130   25.4010   42.1990 C   0  0  0  0  0  3  0  0  0  0  0  0
   37.7900   26.6670   42.5290 C   0  0  0  0  0  3  0  0  0  0  0  0
   37.8600   27.6570   41.6000 N   0  0  0  0  0  0  0  0  0  0  0  0
   38.6240   31.9540   39.0080 O   0  0  0  0  0  0  0  0  0  0  0  0
   38.6630   33.6520   41.0350 O   0  0  0  0  0  0  0  0  0  0  0  0
   37.7360   33.0190   40.0100 P   0  0  0  0  0  0  0  0  0  0  0  0
   36.9900   34.1600   39.0480 O   0  0  0  0  0  0  0  0  0  0  0  0
   37.5150   35.0120   39.1000 H   0  0  0  0  0  0  0  0  0  0  0  0
   36.5960   32.0650   40.8500 O   0  0  0  0  0  0  0  0  0  0  0  0
   35.9280   31.7970   40.1670 H   0  0  0  0  0  0  0  0  0  0  0  0
  1  2  2  0  0  0  0
  1  6  1  0  0  0  0
  2  3  1  0  0  0  0
  3 17  1  0  0  0  0
  3  4  2  0  0  0  0
  5  4  1  0  0  0  0
  5  9  1  0  0  0  0
  6  5  2  0  0  0  0
  7  1  1  0  0  0  0
  8  2  1  0  0  0  0
  9 16  1  0  0  0  0
 10  9  2  0  0  0  0
 10 12  1  0  0  0  0
 11 10  1  0  0  0  0
 12 14  2  0  0  0  0
 13 12  1  0  0  0  0
 14 15  1  0  0  0  0
 16 15  2  0  0  0  0
 17 19  1  0  0  0  0
 19 22  1  0  0  0  0
 19 18  2  0  0  0  0
 20 21  1  0  0  0  0
 20 19  1  0  0  0  0
 23 22  1  0  0  0  0
M  END
>  <minimizedAffinity>
-4.61735916

$$$$

 OpenBabel03252507093D

 23 24  0  0  0  0  0  0  0  0999 V2000
   37.8720   28.6110   43.5930 C   0  0  0  0  0  0  0  0  0  0  0  0
   38.5270   27.3920   43.3540 C   0  0  0  0  0  0  0  0  0  0  0  0
   38.9620   27.1380   42.0490 C   0  0  0  0  0  0  0  0  0  0  0  0
   38.7260   28.0770   41.0990 N   0  0  0  0  0  0  0  0  0  0  0  0
   38.0930   29.2440   41.3600 C   0  0  0  0  0  0  0  0  0  0  0  0
   37.6710   29.5020   42.6030 N   0  0  0  0  0  0  0  0  0  0  0  0
   37.5630   28.7380   44.6270 H   0  0  0  0  0  0  0  0  0  0  0  0
   38.6890   26.6710   44.1540 H   0  0  0  0  0  0  0  0  0  0  0  0
   37.8770   30.2060   40.2840 C   0  0  0  0  0  0  0  0  0  0  0  0
   37.2920   31.4250   40.5560 C   0  0  0  0  0  0  0  0  0  0  0  0
   36.9910   31.6660   41.5770 H   0  0  0  0  0  0  0  0  0  0  0  0
   37.0570   32.3750   39.6060 C   0  0  0  0  0  0  0  0  0  0  0  0
   36.5910   33.3300   39.8610 H   0  0  0  0  0  0  0  0  0  0  0  0
   37.4260   32.0930   38.3150 C   0  0  0  0  0  3  0  0  0  0  0  0
   38.0180   30.8640   38.0330 C   0  0  0  0  0  3  0  0  0  0  0  0
   38.2330   29.9450   39.0130 N   0  0  0  0  0  0  0  0  0  0  0  0
   39.6050   25.9390   41.8120 O   0  0  0  0  0  0  0  0  0  0  0  0
   37.2490   24.7680   42.0790 O   0  0  0  0  0  0  0  0  0  0  0  0
   38.7310   24.4730   41.9060 P   0  0  0  0  0  0  0  0  0  0  0  0
   39.0370   23.5780   40.5310 O   0  0  0  0  0  0  0  0  0  0  0  0
   38.2550   23.6690   39.9120 H   0  0  0  0  0  0  0  0  0  0  0  0
   39.2740   23.6680   43.3110 O   0  0  0  0  0  0  0  0  0  0  0  0
   40.1930   23.3630   43.0970 H   0  0  0  0  0  0  0  0  0  0  0  0
  1  7  1  0  0  0  0
  2  1  1  0  0  0  0
  2  8  1  0  0  0  0
  3  2  2  0  0  0  0
  4  5  2  0  0  0  0
  4  3  1  0  0  0  0
  5  6  1  0  0  0  0
  6  1  2  0  0  0  0
  9 10  1  0  0  0  0
  9  5  1  0  0  0  0
 10 11  1  0  0  0  0
 12 13  1  0  0  0  0
 12 10  2  0  0  0  0
 14 12  1  0  0  0  0
 15 14  2  0  0  0  0
 15 16  1  0  0  0  0
 16  9  2  0  0  0  0
 17 19  1  0  0  0  0
 17  3  1  0  0  0  0
 19 18  2  0  0  0  0
 19 22  1  0  0  0  0
 20 19  1  0  0  0  0
 21 20  1  0  0  0  0
 23 22  1  0  0  0  0
M  END
>  <minimizedAffinity>
-4.58420992

$$$$
