
 OpenBabel03252503463D

 43 46  0  0  1  0  0  0  0  0999 V2000
   44.8930   35.0120   45.1260 C   0  0  0  0  0  0  0  0  0  0  0  0
   45.6780   34.7650   44.0050 C   0  0  0  0  0  0  0  0  0  0  0  0
   46.4870   33.6330   44.0300 C   0  0  0  0  0  0  0  0  0  0  0  0
   46.5040   32.8160   45.0950 N   0  0  0  0  0  0  0  0  0  0  0  0
   45.7250   33.0860   46.1730 C   0  0  0  0  0  0  0  0  0  0  0  0
   44.9200   34.1760   46.2000 N   0  0  0  0  0  0  0  0  0  0  0  0
   44.2490   35.8800   45.1490 H   0  0  0  0  0  0  0  0  0  0  0  0
   47.1620   33.2980   43.2810 H   0  0  0  0  0  0  0  0  0  0  0  0
   47.2520   31.8260   47.6850 C   0  0  2  0  0  0  0  0  0  0  0  0
   45.7790   32.1580   47.3000 C   0  0  1  0  0  0  0  0  0  0  0  0
   45.3640   32.6450   48.4940 O   0  0  0  0  0  0  0  0  0  0  0  0
   45.7810   31.7740   49.4620 C   0  0  0  0  0  0  0  0  0  0  0  0
   46.9350   30.9650   48.9140 C   0  0  2  0  0  0  0  0  0  0  0  0
   47.7360   31.2410   46.8910 H   0  0  0  0  0  0  0  0  0  0  0  0
   45.2650   31.1970   47.0550 H   0  0  0  0  0  0  0  0  0  0  0  0
   46.1810   32.3580   50.3210 H   0  0  0  0  0  0  0  0  0  0  0  0
   44.9720   31.1170   49.8700 H   0  0  0  0  0  0  0  0  0  0  0  0
   46.5320   30.0130   48.5510 H   0  0  0  0  0  0  0  0  0  0  0  0
   47.8850   32.9350   48.1040 O   0  0  0  0  0  0  0  0  0  0  0  0
   48.8380   32.9370   47.8120 H   0  0  0  0  0  0  0  0  0  0  0  0
   47.9980   30.8690   49.7820 O   0  0  0  0  0  0  0  0  0  0  0  0
   47.7860   30.1700   50.4230 H   0  0  0  0  0  0  0  0  0  0  0  0
   45.6220   35.6860   42.8730 C   0  0  0  0  0  0  0  0  0  0  0  0
   46.6180   35.8720   42.5040 H   0  0  0  0  0  0  0  0  0  0  0  0
   45.2880   36.6880   43.2810 H   0  0  0  0  0  0  0  0  0  0  0  0
   44.5950   35.2760   41.9190 C   0  0  0  0  0  0  0  0  0  0  0  0
   43.2690   35.6950   42.0100 C   0  0  0  0  0  0  0  0  0  0  0  0
   42.2540   35.3050   41.1710 C   0  0  0  0  0  0  0  0  0  0  0  0
   42.5820   34.4350   40.1670 C   0  0  0  0  0  0  0  0  0  0  0  0
   43.9050   34.0050   40.0590 C   0  0  0  0  0  0  0  0  0  0  0  0
   44.9560   34.4120   40.9270 C   0  0  0  0  0  0  0  0  0  0  0  0
   43.0930   36.3920   42.8460 H   0  0  0  0  0  0  0  0  0  0  0  0
   41.2940   35.7360   41.3980 H   0  0  0  0  0  0  0  0  0  0  0  0
   41.7820   34.1320   39.5150 H   0  0  0  0  0  0  0  0  0  0  0  0
   43.9960   33.3190   39.2160 H   0  0  0  0  0  0  0  0  0  0  0  0
   46.1730   33.7920   40.4830 C   0  0  0  0  0  0  0  0  0  0  0  0
   47.4070   34.3760   40.3330 C   0  0  0  0  0  0  0  0  0  0  0  0
   47.6120   35.3880   40.5730 H   0  0  0  0  0  0  0  0  0  0  0  0
   48.5420   33.7860   39.8330 C   0  0  0  0  0  0  0  0  0  0  0  0
   49.4990   34.2430   39.7180 H   0  0  0  0  0  0  0  0  0  0  0  0
   48.4470   32.4720   39.4340 C   0  0  0  0  0  0  0  0  0  0  0  0
   47.2260   31.8710   39.5740 C   0  0  0  0  0  0  0  0  0  0  0  0
   46.1740   32.5270   40.0730 N   0  0  0  0  0  0  0  0  0  0  0  0
  1  7  1  0  0  0  0
  1  6  1  0  0  0  0
  2  3  1  0  0  0  0
  2  1  2  0  0  0  0
  3  4  2  0  0  0  0
  4  5  1  0  0  0  0
  5  6  2  0  0  0  0
  5 10  1  0  0  0  0
  8  3  1  0  0  0  0
  9 14  1  6  0  0  0
  9 19  1  0  0  0  0
  9 13  1  0  0  0  0
 10 15  1  6  0  0  0
 10  9  1  0  0  0  0
 10 11  1  0  0  0  0
 11 12  1  0  0  0  0
 12 17  1  0  0  0  0
 12 16  1  0  0  0  0
 13 18  1  6  0  0  0
 13 12  1  0  0  0  0
 13 21  1  0  0  0  0
 20 19  1  0  0  0  0
 21 22  1  0  0  0  0
 23 25  1  0  0  0  0
 23  2  1  0  0  0  0
 24 23  1  0  0  0  0
 26 27  1  0  0  0  0
 26 23  1  0  0  0  0
 27 32  1  0  0  0  0
 28 33  1  0  0  0  0
 28 27  2  0  0  0  0
 29 28  1  0  0  0  0
 30 29  2  0  0  0  0
 30 31  1  0  0  0  0
 31 26  2  0  0  0  0
 34 29  1  0  0  0  0
 35 30  1  0  0  0  0
 36 31  1  0  0  0  0
 37 36  1  0  0  0  0
 37 38  1  0  0  0  0
 39 37  2  0  0  0  0
 40 39  1  0  0  0  0
 41 42  2  0  0  0  0
 41 39  1  0  0  0  0
 42 43  1  0  0  0  0
 43 36  2  0  0  0  0
M  END
>  <minimizedAffinity>
-7.0246582

>  <minimizedRMSD>
0.558826506

$$$$
