
 OpenBabel03252502533D

 30 32  0  0  0  0  0  0  0  0999 V2000
   46.2600   29.6290   44.8370 Br  0  0  0  0  0  0  0  0  0  0  0  0
   45.9080   30.5260   46.5170 C   0  0  0  0  0  0  0  0  0  0  0  0
   46.3340   31.8240   46.5850 C   0  0  0  0  0  0  0  0  0  0  0  0
   46.0670   32.4440   47.8090 C   0  0  0  0  0  0  0  0  0  0  0  0
   45.4330   31.8180   48.8620 C   0  0  0  0  0  0  0  0  0  0  0  0
   45.0430   30.5070   48.6910 C   0  0  0  0  0  0  0  0  0  0  0  0
   45.2700   29.8260   47.5180 C   0  0  0  0  0  0  0  0  0  0  0  0
   46.3660   33.4750   47.9610 H   0  0  0  0  0  0  0  0  0  0  0  0
   45.2480   32.3410   49.7920 H   0  0  0  0  0  0  0  0  0  0  0  0
   44.5440   29.9730   49.4880 H   0  0  0  0  0  0  0  0  0  0  0  0
   44.8900   28.4370   47.2560 C   0  0  0  0  0  0  0  0  0  0  0  0
   43.7760   28.1020   46.5270 C   0  0  0  0  0  0  0  0  0  0  0  0
   43.1390   28.8490   46.1190 H   0  0  0  0  0  0  0  0  0  0  0  0
   43.3780   26.8090   46.2540 C   0  0  0  0  0  0  0  0  0  0  0  0
   42.4930   26.5780   45.6740 H   0  0  0  0  0  0  0  0  0  0  0  0
   44.1540   25.7620   46.7490 C   0  0  0  0  0  0  0  0  0  0  0  0
   45.2650   26.1330   47.4780 C   0  0  0  0  0  0  0  0  0  0  0  0
   45.6170   27.4090   47.7210 N   0  0  0  0  0  0  0  0  0  0  0  0
   47.0150   32.6020   45.5440 C   0  0  0  0  0  0  0  0  0  0  0  0
   48.0290   32.9040   45.8670 H   0  0  0  0  0  0  0  0  0  0  0  0
   47.1800   31.9330   44.6670 H   0  0  0  0  0  0  0  0  0  0  0  0
   44.5550   35.3840   45.2190 C   0  0  0  0  0  0  0  0  0  0  0  0
   44.7790   35.8340   43.9190 C   0  0  0  0  0  0  0  0  0  0  0  0
   45.7670   35.1740   43.1810 C   0  0  0  0  0  0  0  0  0  0  0  0
   46.4470   34.1530   43.7460 N   0  0  0  0  0  0  0  0  0  0  0  0
   46.2000   33.7390   45.0290 C   0  0  0  0  0  0  0  0  0  0  0  0
   45.2510   34.3750   45.7350 N   0  0  0  0  0  0  0  0  0  0  0  0
   43.8090   35.8320   45.8720 H   0  0  0  0  0  0  0  0  0  0  0  0
   44.1900   36.6590   43.5400 H   0  0  0  0  0  0  0  0  0  0  0  0
   45.9600   35.5040   42.1690 H   0  0  0  0  0  0  0  0  0  0  0  0
  1  2  1  0  0  0  0
  2  3  2  0  0  0  0
  2  7  1  0  0  0  0
  3  4  1  0  0  0  0
  4  8  1  0  0  0  0
  4  5  2  0  0  0  0
  5  9  1  0  0  0  0
  6  5  1  0  0  0  0
  6 10  1  0  0  0  0
  7  6  2  0  0  0  0
 11  7  1  0  0  0  0
 11 18  1  0  0  0  0
 12 11  2  0  0  0  0
 13 12  1  0  0  0  0
 14 12  1  0  0  0  0
 14 16  2  0  0  0  0
 15 14  1  0  0  0  0
 16 17  1  0  0  0  0
 17 18  2  0  0  0  0
 19 20  1  0  0  0  0
 19  3  1  0  0  0  0
 21 19  1  0  0  0  0
 22 27  1  0  0  0  0
 22 28  1  0  0  0  0
 23 22  2  0  0  0  0
 24 25  2  0  0  0  0
 24 23  1  0  0  0  0
 25 26  1  0  0  0  0
 26 19  1  0  0  0  0
 26 27  2  0  0  0  0
 29 23  1  0  0  0  0
 30 24  1  0  0  0  0
M  END
>  <minimizedAffinity>
-5.25765705

>  <minimizedRMSD>
1.01849794

$$$$
