
 OpenBabel03252506253D

 44 48  0  0  0  0  0  0  0  0999 V2000
   46.2410   30.2800   48.5030 C   0  0  0  0  0  0  0  0  0  0  0  0
   46.4700   29.8530   49.5180 H   0  0  0  0  0  0  0  0  0  0  0  0
   45.5250   31.1010   48.7100 H   0  0  0  0  0  0  0  0  0  0  0  0
   45.8910   27.8520   47.6630 C   0  0  0  0  0  0  0  0  0  0  0  0
   45.5970   29.2040   47.7460 C   0  0  0  0  0  0  0  0  0  0  0  0
   44.5030   29.6350   46.9830 C   0  0  0  0  0  0  0  0  0  0  0  0
   43.7670   28.7740   46.2020 C   0  0  0  0  0  0  0  0  0  0  0  0
   42.7100   28.9000   45.3980 N   0  0  0  0  0  0  0  0  0  0  0  0
   42.3610   27.7220   44.8500 C   0  0  0  0  0  0  0  0  0  0  0  0
   43.2330   26.7540   45.3100 C   0  0  0  0  0  0  0  0  0  0  0  0
   44.0920   27.4320   46.1450 C   0  0  0  0  0  0  0  0  0  0  0  0
   45.1610   27.0040   46.8880 C   0  0  0  0  0  0  0  0  0  0  0  0
   46.7400   27.6220   48.2780 H   0  0  0  0  0  0  0  0  0  0  0  0
   44.1590   30.6620   46.9510 H   0  0  0  0  0  0  0  0  0  0  0  0
   42.2050   29.8070   45.2130 H   0  0  0  0  0  0  0  0  0  0  0  0
   41.5290   27.5620   44.1580 H   0  0  0  0  0  0  0  0  0  0  0  0
   43.1570   25.7350   45.0140 H   0  0  0  0  0  0  0  0  0  0  0  0
   45.5400   25.5910   46.8570 C   0  0  0  0  0  0  0  0  0  0  0  0
   45.1240   24.6830   47.7980 C   0  0  0  0  0  0  0  0  0  0  0  0
   44.4910   24.9610   48.6150 H   0  0  0  0  0  0  0  0  0  0  0  0
   45.4580   23.3490   47.8040 C   0  0  0  0  0  0  0  0  0  0  0  0
   45.1090   22.6450   48.5710 H   0  0  0  0  0  0  0  0  0  0  0  0
   46.2690   22.8590   46.8060 C   0  0  0  0  0  0  0  0  0  0  0  0
   46.6720   23.7690   45.8840 C   0  0  0  0  0  0  0  0  0  0  0  0
   46.3260   25.0510   45.9140 N   0  0  0  0  0  0  0  0  0  0  0  0
   47.5100   30.8020   47.9600 C   0  0  0  0  0  0  0  0  0  0  0  0
   48.2580   30.0200   47.8640 H   0  0  0  0  0  0  0  0  0  0  0  0
   47.9100   31.5640   48.6500 H   0  0  0  0  0  0  0  0  0  0  0  0
   46.6030   32.9250   45.2280 C   0  0  0  0  0  0  0  0  0  0  0  0
   47.2430   31.8490   44.5620 C   0  0  0  0  0  0  0  0  0  0  0  0
   47.6530   30.9390   45.4830 C   0  0  0  0  0  0  0  0  0  0  0  0
   47.2790   31.4390   46.6670 N   0  0  0  0  0  0  0  0  0  0  0  0
   46.6520   32.6210   46.5200 N   0  0  0  0  0  0  0  0  0  0  0  0
   47.3880   31.7550   43.4850 H   0  0  0  0  0  0  0  0  0  0  0  0
   48.1720   30.0040   45.3270 H   0  0  0  0  0  0  0  0  0  0  0  0
   44.5150   35.8440   44.5490 C   0  0  0  0  0  0  0  0  0  0  0  0
   44.9380   36.2410   43.2910 C   0  0  0  0  0  0  0  0  0  0  0  0
   45.9580   35.5060   42.6540 C   0  0  0  0  0  0  0  0  0  0  0  0
   46.4590   34.4410   43.3300 N   0  0  0  0  0  0  0  0  0  0  0  0
   46.0420   34.0710   44.5370 C   0  0  0  0  0  0  0  0  0  0  0  0
   45.0680   34.7760   45.1450 N   0  0  0  0  0  0  0  0  0  0  0  0
   43.7370   36.3710   45.0830 H   0  0  0  0  0  0  0  0  0  0  0  0
   44.4910   37.0950   42.8230 H   0  0  0  0  0  0  0  0  0  0  0  0
   46.3120   35.7760   41.6910 H   0  0  0  0  0  0  0  0  0  0  0  0
  1  3  1  0  0  0  0
  1  2  1  0  0  0  0
  4  5  1  0  0  0  0
  4 13  1  0  0  0  0
  5  1  1  0  0  0  0
  6  5  2  0  0  0  0
  7  6  1  0  0  0  0
  8  7  1  0  0  0  0
  9 10  2  0  0  0  0
  9  8  1  0  0  0  0
 10 11  1  0  0  0  0
 11  7  2  0  0  0  0
 11 12  1  0  0  0  0
 12  4  2  0  0  0  0
 14  6  1  0  0  0  0
 15  8  1  0  0  0  0
 16  9  1  0  0  0  0
 17 10  1  0  0  0  0
 18 12  1  0  0  0  0
 18 19  1  0  0  0  0
 19 21  2  0  0  0  0
 19 20  1  0  0  0  0
 21 22  1  0  0  0  0
 23 21  1  0  0  0  0
 24 25  1  0  0  0  0
 24 23  2  0  0  0  0
 25 18  2  0  0  0  0
 26  1  1  0  0  0  0
 26 28  1  0  0  0  0
 27 26  1  0  0  0  0
 29 33  2  0  0  0  0
 30 29  1  0  0  0  0
 30 31  2  0  0  0  0
 31 32  1  0  0  0  0
 32 26  1  0  0  0  0
 33 32  1  0  0  0  0
 34 30  1  0  0  0  0
 35 31  1  0  0  0  0
 36 42  1  0  0  0  0
 36 41  1  0  0  0  0
 37 36  2  0  0  0  0
 38 37  1  0  0  0  0
 38 39  2  0  0  0  0
 39 40  1  0  0  0  0
 40 41  2  0  0  0  0
 40 29  1  0  0  0  0
 43 37  1  0  0  0  0
 44 38  1  0  0  0  0
M  END
>  <minimizedAffinity>
-5.30633545

>  <minimizedRMSD>
1.11244953

$$$$
