
 OpenBabel03242511303D

 33 36  0  0  0  0  0  0  0  0999 V2000
   37.8920   27.6510   39.2500 Cl  0  0  0  0  0  0  0  0  0  0  0  0
   37.7610   27.9120   40.9460 C   0  0  0  0  0  0  0  0  0  0  0  0
   37.6650   26.8370   41.8060 C   0  0  0  0  0  0  0  0  0  0  0  0
   37.5560   26.9960   43.1990 C   0  0  0  0  0  0  0  0  0  0  0  0
   37.5530   28.2880   43.6490 C   0  0  0  0  0  0  0  0  0  0  0  0
   37.6470   29.3580   42.8160 C   0  0  0  0  0  0  0  0  0  0  0  0
   37.7530   29.1750   41.4390 C   0  0  0  0  0  0  0  0  0  0  0  0
   37.4860   26.1180   43.7980 H   0  0  0  0  0  0  0  0  0  0  0  0
   37.4690   28.4130   44.7210 H   0  0  0  0  0  0  0  0  0  0  0  0
   37.6330   30.3340   43.2840 H   0  0  0  0  0  0  0  0  0  0  0  0
   36.5320   23.6240   40.4020 C   0  0  0  0  0  0  0  0  0  0  0  0
   37.7250   22.9300   40.2310 C   0  0  0  0  0  0  0  0  0  0  0  0
   38.9160   23.5520   40.5930 C   0  0  0  0  0  0  0  0  0  0  0  0
   38.8640   24.8120   41.0970 N   0  0  0  0  0  0  0  0  0  0  0  0
   37.6750   25.4760   41.2570 C   0  0  0  0  0  0  0  0  0  0  0  0
   36.5370   24.8640   40.9040 N   0  0  0  0  0  0  0  0  0  0  0  0
   35.5630   23.2160   40.1480 H   0  0  0  0  0  0  0  0  0  0  0  0
   37.6690   21.9280   39.8200 H   0  0  0  0  0  0  0  0  0  0  0  0
   39.8460   23.0220   40.4630 H   0  0  0  0  0  0  0  0  0  0  0  0
   37.8460   30.4210   40.6770 C   0  0  0  0  0  0  0  0  0  0  0  0
   36.7100   31.2040   40.5140 C   0  0  0  0  0  0  0  0  0  0  0  0
   37.3130   32.6390   39.5070 S   0  0  0  0  0  0  0  0  0  0  0  0
   39.0450   31.8860   39.4920 C   0  0  0  0  0  0  0  0  0  0  0  0
   38.8750   30.9560   40.0890 N   0  0  0  0  0  0  0  0  0  0  0  0
   35.6630   31.0770   40.8670 H   0  0  0  0  0  0  0  0  0  0  0  0
   40.1970   32.5400   38.8010 C   0  0  0  0  0  0  0  0  0  0  0  0
   40.5710   33.7680   39.2950 C   0  0  0  0  0  0  0  0  0  0  0  0
   40.0360   34.1880   40.1290 H   0  0  0  0  0  0  0  0  0  0  0  0
   41.6360   34.3460   38.6360 C   0  0  0  0  0  0  0  0  0  0  0  0
   41.9420   35.3310   39.0280 H   0  0  0  0  0  0  0  0  0  0  0  0
   42.2610   33.7190   37.5640 C   0  0  0  0  0  3  0  0  0  0  0  0
   41.8390   32.4850   37.1140 C   0  0  0  0  0  3  0  0  0  0  0  0
   40.7840   31.9130   37.7660 N   0  0  0  0  0  0  0  0  0  0  0  0
  1  2  1  0  0  0  0
  2  7  2  0  0  0  0
  2  3  1  0  0  0  0
  3  4  2  0  0  0  0
  4  5  1  0  0  0  0
  4  8  1  0  0  0  0
  5  9  1  0  0  0  0
  6 10  1  0  0  0  0
  6  5  2  0  0  0  0
  7  6  1  0  0  0  0
 11 16  1  0  0  0  0
 12 11  2  0  0  0  0
 12 13  1  0  0  0  0
 13 14  2  0  0  0  0
 14 15  1  0  0  0  0
 15  3  1  0  0  0  0
 16 15  2  0  0  0  0
 17 11  1  0  0  0  0
 18 12  1  0  0  0  0
 19 13  1  0  0  0  0
 20  7  1  0  0  0  0
 21 20  2  0  0  0  0
 21 25  1  0  0  0  0
 22 21  1  0  0  0  0
 23 22  1  0  0  0  0
 23 24  2  0  0  0  0
 24 20  1  0  0  0  0
 26 27  1  0  0  0  0
 26 23  1  0  0  0  0
 27 28  1  0  0  0  0
 29 30  1  0  0  0  0
 29 27  2  0  0  0  0
 31 29  1  0  0  0  0
 32 31  2  0  0  0  0
 32 33  1  0  0  0  0
 33 26  2  0  0  0  0
M  END
>  <minimizedAffinity>
-5.8789854

$$$$

 OpenBabel03242511303D

 33 36  0  0  0  0  0  0  0  0999 V2000
   40.9500   30.4540   40.4050 Cl  0  0  0  0  0  0  0  0  0  0  0  0
   39.5250   31.4090   40.2560 C   0  0  0  0  0  0  0  0  0  0  0  0
   39.5830   32.6480   39.6510 C   0  0  0  0  0  0  0  0  0  0  0  0
   38.4490   33.4660   39.5040 C   0  0  0  0  0  0  0  0  0  0  0  0
   37.2810   32.9540   40.0020 C   0  0  0  0  0  0  0  0  0  0  0  0
   37.2070   31.7360   40.6010 C   0  0  0  0  0  0  0  0  0  0  0  0
   38.3450   30.9440   40.7350 C   0  0  0  0  0  0  0  0  0  0  0  0
   38.5710   34.4090   39.0250 H   0  0  0  0  0  0  0  0  0  0  0  0
   36.4060   33.5820   39.8900 H   0  0  0  0  0  0  0  0  0  0  0  0
   36.2310   31.4340   40.9580 H   0  0  0  0  0  0  0  0  0  0  0  0
   42.9280   34.1850   39.4920 C   0  0  0  0  0  0  0  0  0  0  0  0
   43.2650   34.0400   38.1510 C   0  0  0  0  0  0  0  0  0  0  0  0
   42.3560   33.4210   37.2980 C   0  0  0  0  0  0  0  0  0  0  0  0
   41.1780   32.9830   37.8120 N   0  0  0  0  0  0  0  0  0  0  0  0
   40.8680   33.1360   39.1370 C   0  0  0  0  0  0  0  0  0  0  0  0
   41.7520   33.7340   39.9470 N   0  0  0  0  0  0  0  0  0  0  0  0
   43.5740   34.6530   40.2230 H   0  0  0  0  0  0  0  0  0  0  0  0
   44.2280   34.4210   37.8320 H   0  0  0  0  0  0  0  0  0  0  0  0
   42.6090   33.3040   36.2560 H   0  0  0  0  0  0  0  0  0  0  0  0
   38.1050   29.6630   41.4000 C   0  0  0  0  0  0  0  0  0  0  0  0
   38.3280   29.5550   42.7680 C   0  0  0  0  0  0  0  0  0  0  0  0
   37.8960   27.7910   43.1400 S   0  0  0  0  0  0  0  0  0  0  0  0
   37.4820   27.5190   41.3170 C   0  0  0  0  0  0  0  0  0  0  0  0
   37.6930   28.5350   40.9010 N   0  0  0  0  0  0  0  0  0  0  0  0
   38.6770   30.2920   43.5230 H   0  0  0  0  0  0  0  0  0  0  0  0
   37.0110   26.2030   40.7910 C   0  0  0  0  0  0  0  0  0  0  0  0
   37.0930   25.1460   41.6660 C   0  0  0  0  0  0  0  0  0  0  0  0
   37.4800   25.3080   42.6570 H   0  0  0  0  0  0  0  0  0  0  0  0
   36.6510   23.9440   41.1500 C   0  0  0  0  0  0  0  0  0  0  0  0
   36.7140   23.0920   41.8470 H   0  0  0  0  0  0  0  0  0  0  0  0
   36.1680   23.8390   39.8510 C   0  0  0  0  0  3  0  0  0  0  0  0
   36.1100   24.9390   39.0200 C   0  0  0  0  0  3  0  0  0  0  0  0
   36.5480   26.1280   39.5300 N   0  0  0  0  0  0  0  0  0  0  0  0
  2  1  1  0  0  0  0
  2  7  1  0  0  0  0
  3  2  2  0  0  0  0
  4  3  1  0  0  0  0
  4  5  2  0  0  0  0
  5  6  1  0  0  0  0
  6  7  2  0  0  0  0
  6 10  1  0  0  0  0
  7 20  1  0  0  0  0
  8  4  1  0  0  0  0
  9  5  1  0  0  0  0
 11 16  1  0  0  0  0
 11 17  1  0  0  0  0
 12 11  2  0  0  0  0
 13 14  2  0  0  0  0
 13 12  1  0  0  0  0
 14 15  1  0  0  0  0
 15  3  1  0  0  0  0
 15 16  2  0  0  0  0
 18 12  1  0  0  0  0
 19 13  1  0  0  0  0
 20 21  2  0  0  0  0
 21 22  1  0  0  0  0
 21 25  1  0  0  0  0
 23 22  1  0  0  0  0
 24 23  2  0  0  0  0
 24 20  1  0  0  0  0
 26 23  1  0  0  0  0
 26 27  1  0  0  0  0
 27 28  1  0  0  0  0
 29 27  2  0  0  0  0
 29 30  1  0  0  0  0
 31 29  1  0  0  0  0
 32 33  1  0  0  0  0
 32 31  2  0  0  0  0
 33 26  2  0  0  0  0
M  END
>  <minimizedAffinity>
-5.72491741

$$$$

 OpenBabel03242511303D

 33 36  0  0  0  0  0  0  0  0999 V2000
   41.0410   30.7550   40.9250 Cl  0  0  0  0  0  0  0  0  0  0  0  0
   39.8980   31.9990   40.5950 C   0  0  0  0  0  0  0  0  0  0  0  0
   40.3320   33.2700   40.2760 C   0  0  0  0  0  0  0  0  0  0  0  0
   39.4390   34.3210   39.9990 C   0  0  0  0  0  0  0  0  0  0  0  0
   38.1100   34.0010   40.0650 C   0  0  0  0  0  0  0  0  0  0  0  0
   37.6670   32.7560   40.3780 C   0  0  0  0  0  0  0  0  0  0  0  0
   38.5700   31.7310   40.6490 C   0  0  0  0  0  0  0  0  0  0  0  0
   39.8490   35.2740   39.7600 H   0  0  0  0  0  0  0  0  0  0  0  0
   37.4210   34.8090   39.8510 H   0  0  0  0  0  0  0  0  0  0  0  0
   36.5930   32.6190   40.4010 H   0  0  0  0  0  0  0  0  0  0  0  0
   43.7760   33.6370   39.0200 C   0  0  0  0  0  0  0  0  0  0  0  0
   44.4670   34.0640   40.1490 C   0  0  0  0  0  0  0  0  0  0  0  0
   43.7640   34.2270   41.3390 C   0  0  0  0  0  0  0  0  0  0  0  0
   42.4320   33.9630   41.3480 N   0  0  0  0  0  0  0  0  0  0  0  0
   41.7730   33.5440   40.2220 C   0  0  0  0  0  0  0  0  0  0  0  0
   42.4620   33.3910   39.0830 N   0  0  0  0  0  0  0  0  0  0  0  0
   44.2430   33.4850   38.0560 H   0  0  0  0  0  0  0  0  0  0  0  0
   45.5300   34.2500   40.0460 H   0  0  0  0  0  0  0  0  0  0  0  0
   44.2920   34.5570   42.2190 H   0  0  0  0  0  0  0  0  0  0  0  0
   37.9400   30.4490   40.9690 C   0  0  0  0  0  0  0  0  0  0  0  0
   36.5770   30.2890   40.7530 C   0  0  0  0  0  0  0  0  0  0  0  0
   36.2540   28.5460   41.2930 S   0  0  0  0  0  0  0  0  0  0  0  0
   38.0820   28.3510   41.7230 C   0  0  0  0  0  0  0  0  0  0  0  0
   38.4710   29.3630   41.4490 N   0  0  0  0  0  0  0  0  0  0  0  0
   35.8020   30.9820   40.3600 H   0  0  0  0  0  0  0  0  0  0  0  0
   38.6450   27.0820   42.2740 C   0  0  0  0  0  0  0  0  0  0  0  0
   38.0630   25.9230   41.8170 C   0  0  0  0  0  0  0  0  0  0  0  0
   37.2550   25.9800   41.1080 H   0  0  0  0  0  0  0  0  0  0  0  0
   38.6040   24.7680   42.3440 C   0  0  0  0  0  0  0  0  0  0  0  0
   38.1420   23.8350   41.9820 H   0  0  0  0  0  0  0  0  0  0  0  0
   39.6490   24.8010   43.2600 C   0  0  0  0  0  3  0  0  0  0  0  0
   40.1930   25.9980   43.6790 C   0  0  0  0  0  3  0  0  0  0  0  0
   39.6570   27.1410   43.1580 N   0  0  0  0  0  0  0  0  0  0  0  0
  2  7  1  0  0  0  0
  2  1  1  0  0  0  0
  3  2  2  0  0  0  0
  4  5  2  0  0  0  0
  4  3  1  0  0  0  0
  5  6  1  0  0  0  0
  6 10  1  0  0  0  0
  6  7  2  0  0  0  0
  7 20  1  0  0  0  0
  8  4  1  0  0  0  0
  9  5  1  0  0  0  0
 11 16  2  0  0  0  0
 11 12  1  0  0  0  0
 12 13  2  0  0  0  0
 13 14  1  0  0  0  0
 13 19  1  0  0  0  0
 15  3  1  0  0  0  0
 15 14  2  0  0  0  0
 16 15  1  0  0  0  0
 17 11  1  0  0  0  0
 18 12  1  0  0  0  0
 20 24  1  0  0  0  0
 21 20  2  0  0  0  0
 21 22  1  0  0  0  0
 22 23  1  0  0  0  0
 23 26  1  0  0  0  0
 24 23  2  0  0  0  0
 25 21  1  0  0  0  0
 26 33  1  0  0  0  0
 27 26  2  0  0  0  0
 27 29  1  0  0  0  0
 28 27  1  0  0  0  0
 29 31  2  0  0  0  0
 30 29  1  0  0  0  0
 31 32  1  0  0  0  0
 33 32  2  0  0  0  0
M  END
>  <minimizedAffinity>
-5.70725632

$$$$

 OpenBabel03242511303D

 33 36  0  0  0  0  0  0  0  0999 V2000
   40.4830   30.6840   38.4550 Cl  0  0  0  0  0  0  0  0  0  0  0  0
   39.4800   31.9300   39.0910 C   0  0  0  0  0  0  0  0  0  0  0  0
   40.0100   33.1760   39.3560 C   0  0  0  0  0  0  0  0  0  0  0  0
   39.2340   34.2280   39.8750 C   0  0  0  0  0  0  0  0  0  0  0  0
   37.9160   33.9350   40.1010 C   0  0  0  0  0  0  0  0  0  0  0  0
   37.3790   32.7130   39.8450 C   0  0  0  0  0  0  0  0  0  0  0  0
   38.1680   31.6870   39.3310 C   0  0  0  0  0  0  0  0  0  0  0  0
   39.7130   35.1620   40.0540 H   0  0  0  0  0  0  0  0  0  0  0  0
   37.3160   34.7430   40.5000 H   0  0  0  0  0  0  0  0  0  0  0  0
   36.3240   32.5960   40.0630 H   0  0  0  0  0  0  0  0  0  0  0  0
   43.1380   34.0870   37.6360 C   0  0  0  0  0  0  0  0  0  0  0  0
   44.0990   33.8770   38.6200 C   0  0  0  0  0  0  0  0  0  0  0  0
   43.6840   33.4250   39.8690 C   0  0  0  0  0  0  0  0  0  0  0  0
   42.3590   33.2090   40.0760 N   0  0  0  0  0  0  0  0  0  0  0  0
   41.4320   33.4230   39.0900 C   0  0  0  0  0  0  0  0  0  0  0  0
   41.8450   33.8580   37.8920 N   0  0  0  0  0  0  0  0  0  0  0  0
   43.3720   34.4360   36.6390 H   0  0  0  0  0  0  0  0  0  0  0  0
   45.1320   34.0760   38.3630 H   0  0  0  0  0  0  0  0  0  0  0  0
   44.4210   33.2590   40.6390 H   0  0  0  0  0  0  0  0  0  0  0  0
   37.4470   30.4330   39.1090 C   0  0  0  0  0  0  0  0  0  0  0  0
   36.6000   30.3210   38.0130 C   0  0  0  0  0  0  0  0  0  0  0  0
   35.9340   28.5970   38.1540 S   0  0  0  0  0  0  0  0  0  0  0  0
   36.9570   28.3420   39.7210 C   0  0  0  0  0  0  0  0  0  0  0  0
   37.4630   29.3350   39.8060 N   0  0  0  0  0  0  0  0  0  0  0  0
   36.3330   31.0370   37.2060 H   0  0  0  0  0  0  0  0  0  0  0  0
   36.9420   27.0590   40.4870 C   0  0  0  0  0  0  0  0  0  0  0  0
   37.1150   27.1730   41.8460 C   0  0  0  0  0  0  0  0  0  0  0  0
   37.2500   28.1480   42.2820 H   0  0  0  0  0  0  0  0  0  0  0  0
   37.0970   25.9720   42.5250 C   0  0  0  0  0  0  0  0  0  0  0  0
   37.2350   26.0560   43.6160 H   0  0  0  0  0  0  0  0  0  0  0  0
   36.9180   24.7610   41.8660 C   0  0  0  0  0  3  0  0  0  0  0  0
   36.7480   24.7120   40.4970 C   0  0  0  0  0  3  0  0  0  0  0  0
   36.7660   25.9010   39.8250 N   0  0  0  0  0  0  0  0  0  0  0  0
  1  2  1  0  0  0  0
  2  7  2  0  0  0  0
  2  3  1  0  0  0  0
  3  4  2  0  0  0  0
  4  8  1  0  0  0  0
  4  5  1  0  0  0  0
  5  9  1  0  0  0  0
  6 10  1  0  0  0  0
  6  5  2  0  0  0  0
  7  6  1  0  0  0  0
 11 16  2  0  0  0  0
 11 12  1  0  0  0  0
 12 13  2  0  0  0  0
 13 14  1  0  0  0  0
 13 19  1  0  0  0  0
 15  3  1  0  0  0  0
 15 14  2  0  0  0  0
 16 15  1  0  0  0  0
 17 11  1  0  0  0  0
 18 12  1  0  0  0  0
 20  7  1  0  0  0  0
 20 24  1  0  0  0  0
 21 22  1  0  0  0  0
 21 20  2  0  0  0  0
 22 23  1  0  0  0  0
 23 24  2  0  0  0  0
 23 26  1  0  0  0  0
 25 21  1  0  0  0  0
 26 27  1  0  0  0  0
 27 28  1  0  0  0  0
 27 29  2  0  0  0  0
 29 30  1  0  0  0  0
 31 29  1  0  0  0  0
 32 31  2  0  0  0  0
 33 26  2  0  0  0  0
 33 32  1  0  0  0  0
M  END
>  <minimizedAffinity>
-5.6941843

$$$$

 OpenBabel03242511303D

 33 36  0  0  0  0  0  0  0  0999 V2000
   40.5390   29.8390   41.1610 Cl  0  0  0  0  0  0  0  0  0  0  0  0
   39.3110   30.9300   40.6470 C   0  0  0  0  0  0  0  0  0  0  0  0
   37.9860   30.6620   40.9230 C   0  0  0  0  0  0  0  0  0  0  0  0
   36.9470   31.5210   40.5250 C   0  0  0  0  0  0  0  0  0  0  0  0
   37.3340   32.6430   39.8440 C   0  0  0  0  0  0  0  0  0  0  0  0
   38.6340   32.9230   39.5640 C   0  0  0  0  0  0  0  0  0  0  0  0
   39.6470   32.0560   39.9680 C   0  0  0  0  0  0  0  0  0  0  0  0
   35.9480   31.2470   40.7750 H   0  0  0  0  0  0  0  0  0  0  0  0
   36.5350   33.3070   39.5370 H   0  0  0  0  0  0  0  0  0  0  0  0
   38.8230   33.8390   39.0200 H   0  0  0  0  0  0  0  0  0  0  0  0
   37.3620   28.2980   43.6790 C   0  0  0  0  0  0  0  0  0  0  0  0
   36.9870   27.1390   43.0070 C   0  0  0  0  0  0  0  0  0  0  0  0
   36.9460   27.1600   41.6160 C   0  0  0  0  0  0  0  0  0  0  0  0
   37.2730   28.3110   40.9730 N   0  0  0  0  0  0  0  0  0  0  0  0
   37.6400   29.4390   41.6580 C   0  0  0  0  0  0  0  0  0  0  0  0
   37.6750   29.4060   42.9970 N   0  0  0  0  0  0  0  0  0  0  0  0
   37.4210   28.3690   44.7570 H   0  0  0  0  0  0  0  0  0  0  0  0
   36.7430   26.2690   43.6050 H   0  0  0  0  0  0  0  0  0  0  0  0
   36.6560   26.2670   41.0860 H   0  0  0  0  0  0  0  0  0  0  0  0
   40.9920   32.4930   39.5940 C   0  0  0  0  0  0  0  0  0  0  0  0
   41.5770   33.5520   40.2770 C   0  0  0  0  0  0  0  0  0  0  0  0
   43.2340   33.7300   39.4650 S   0  0  0  0  0  0  0  0  0  0  0  0
   42.8120   32.2930   38.3150 C   0  0  0  0  0  0  0  0  0  0  0  0
   41.7850   32.0320   38.6730 N   0  0  0  0  0  0  0  0  0  0  0  0
   41.2130   34.1880   41.1130 H   0  0  0  0  0  0  0  0  0  0  0  0
   43.7590   31.7980   37.2710 C   0  0  0  0  0  0  0  0  0  0  0  0
   45.0110   32.3650   37.2840 C   0  0  0  0  0  0  0  0  0  0  0  0
   45.2460   33.1150   38.0200 H   0  0  0  0  0  0  0  0  0  0  0  0
   45.8630   31.8890   36.3070 C   0  0  0  0  0  0  0  0  0  0  0  0
   46.8690   32.3390   36.3120 H   0  0  0  0  0  0  0  0  0  0  0  0
   45.4620   30.9160   35.3990 C   0  0  0  0  0  3  0  0  0  0  0  0
   44.1900   30.3830   35.4380 C   0  0  0  0  0  3  0  0  0  0  0  0
   43.3480   30.8560   36.4040 N   0  0  0  0  0  0  0  0  0  0  0  0
  2  3  1  0  0  0  0
  2  1  1  0  0  0  0
  3 15  1  0  0  0  0
  4  8  1  0  0  0  0
  4  3  2  0  0  0  0
  5  4  1  0  0  0  0
  6  5  2  0  0  0  0
  6  7  1  0  0  0  0
  7  2  2  0  0  0  0
  9  5  1  0  0  0  0
 10  6  1  0  0  0  0
 11 17  1  0  0  0  0
 12 18  1  0  0  0  0
 12 11  1  0  0  0  0
 13 12  2  0  0  0  0
 14 13  1  0  0  0  0
 14 15  2  0  0  0  0
 15 16  1  0  0  0  0
 16 11  2  0  0  0  0
 19 13  1  0  0  0  0
 20  7  1  0  0  0  0
 20 21  2  0  0  0  0
 21 25  1  0  0  0  0
 22 21  1  0  0  0  0
 23 24  2  0  0  0  0
 23 22  1  0  0  0  0
 24 20  1  0  0  0  0
 26 27  1  0  0  0  0
 26 23  1  0  0  0  0
 27 28  1  0  0  0  0
 29 30  1  0  0  0  0
 29 27  2  0  0  0  0
 31 32  2  0  0  0  0
 31 29  1  0  0  0  0
 32 33  1  0  0  0  0
 33 26  2  0  0  0  0
M  END
>  <minimizedAffinity>
-5.67069197

$$$$

 OpenBabel03242511303D

 33 36  0  0  0  0  0  0  0  0999 V2000
   35.4630   29.6550   39.5920 Cl  0  0  0  0  0  0  0  0  0  0  0  0
   35.6800   28.0140   39.1220 C   0  0  0  0  0  0  0  0  0  0  0  0
   36.5200   27.1920   39.8460 C   0  0  0  0  0  0  0  0  0  0  0  0
   36.7310   25.8450   39.5040 C   0  0  0  0  0  0  0  0  0  0  0  0
   36.0480   25.3990   38.4040 C   0  0  0  0  0  0  0  0  0  0  0  0
   35.2180   26.1950   37.6810 C   0  0  0  0  0  0  0  0  0  0  0  0
   35.0250   27.5270   38.0390 C   0  0  0  0  0  0  0  0  0  0  0  0
   37.3940   25.2730   40.1110 H   0  0  0  0  0  0  0  0  0  0  0  0
   36.2090   24.3620   38.1390 H   0  0  0  0  0  0  0  0  0  0  0  0
   34.7310   25.7350   36.8310 H   0  0  0  0  0  0  0  0  0  0  0  0
   39.0950   28.7670   41.9590 C   0  0  0  0  0  0  0  0  0  0  0  0
   38.5100   28.7430   43.2200 C   0  0  0  0  0  0  0  0  0  0  0  0
   37.2400   28.1900   43.3550 C   0  0  0  0  0  0  0  0  0  0  0  0
   36.6240   27.6990   42.2480 N   0  0  0  0  0  0  0  0  0  0  0  0
   37.2210   27.7350   41.0160 C   0  0  0  0  0  0  0  0  0  0  0  0
   38.4440   28.2690   40.9000 N   0  0  0  0  0  0  0  0  0  0  0  0
   40.0770   29.1770   41.7650 H   0  0  0  0  0  0  0  0  0  0  0  0
   39.0770   29.1580   44.0450 H   0  0  0  0  0  0  0  0  0  0  0  0
   36.7780   28.1660   44.3290 H   0  0  0  0  0  0  0  0  0  0  0  0
   34.1030   28.2530   37.1650 C   0  0  0  0  0  0  0  0  0  0  0  0
   34.3480   28.2870   35.7980 C   0  0  0  0  0  0  0  0  0  0  0  0
   32.9440   29.2970   35.1300 S   0  0  0  0  0  0  0  0  0  0  0  0
   32.2660   29.4910   36.8820 C   0  0  0  0  0  0  0  0  0  0  0  0
   33.0240   28.9130   37.4660 N   0  0  0  0  0  0  0  0  0  0  0  0
   35.1580   27.8460   35.1770 H   0  0  0  0  0  0  0  0  0  0  0  0
   31.0200   30.2620   37.1770 C   0  0  0  0  0  0  0  0  0  0  0  0
   30.7150   31.2670   36.2910 C   0  0  0  0  0  0  0  0  0  0  0  0
   31.3650   31.4480   35.4520 H   0  0  0  0  0  0  0  0  0  0  0  0
   29.5600   31.9600   36.5910 C   0  0  0  0  0  0  0  0  0  0  0  0
   29.3090   32.7680   35.8830 H   0  0  0  0  0  0  0  0  0  0  0  0
   28.7880   31.6480   37.7040 C   0  0  0  0  0  3  0  0  0  0  0  0
   29.1470   30.6250   38.5570 C   0  0  0  0  0  3  0  0  0  0  0  0
   30.2910   29.9400   38.2600 N   0  0  0  0  0  0  0  0  0  0  0  0
  2  1  1  0  0  0  0
  2  3  1  0  0  0  0
  3 15  1  0  0  0  0
  4  3  2  0  0  0  0
  4  8  1  0  0  0  0
  5  4  1  0  0  0  0
  6  7  1  0  0  0  0
  6  5  2  0  0  0  0
  7  2  2  0  0  0  0
  9  5  1  0  0  0  0
 10  6  1  0  0  0  0
 11 12  1  0  0  0  0
 12 13  2  0  0  0  0
 12 18  1  0  0  0  0
 13 19  1  0  0  0  0
 14 13  1  0  0  0  0
 15 14  2  0  0  0  0
 16 15  1  0  0  0  0
 16 11  2  0  0  0  0
 17 11  1  0  0  0  0
 20 24  1  0  0  0  0
 20  7  1  0  0  0  0
 21 20  2  0  0  0  0
 22 21  1  0  0  0  0
 22 23  1  0  0  0  0
 23 26  1  0  0  0  0
 23 24  2  0  0  0  0
 25 21  1  0  0  0  0
 26 33  1  0  0  0  0
 27 29  1  0  0  0  0
 27 26  2  0  0  0  0
 28 27  1  0  0  0  0
 29 31  2  0  0  0  0
 30 29  1  0  0  0  0
 31 32  1  0  0  0  0
 33 32  2  0  0  0  0
M  END
>  <minimizedAffinity>
-5.65102005

$$$$

 OpenBabel03242511303D

 33 36  0  0  0  0  0  0  0  0999 V2000
   36.4010   27.6670   38.4410 Cl  0  0  0  0  0  0  0  0  0  0  0  0
   36.5130   26.2930   39.4730 C   0  0  0  0  0  0  0  0  0  0  0  0
   36.0980   25.0560   39.0250 C   0  0  0  0  0  0  0  0  0  0  0  0
   36.1680   23.9030   39.8280 C   0  0  0  0  0  0  0  0  0  0  0  0
   36.6760   24.0880   41.0850 C   0  0  0  0  0  0  0  0  0  0  0  0
   37.0890   25.3000   41.5420 C   0  0  0  0  0  0  0  0  0  0  0  0
   37.0090   26.4270   40.7280 C   0  0  0  0  0  0  0  0  0  0  0  0
   35.8290   22.9830   39.4120 H   0  0  0  0  0  0  0  0  0  0  0  0
   36.7310   23.2020   41.7050 H   0  0  0  0  0  0  0  0  0  0  0  0
   37.4730   25.3270   42.5540 H   0  0  0  0  0  0  0  0  0  0  0  0
   33.7540   24.9580   36.1840 C   0  0  0  0  0  0  0  0  0  0  0  0
   34.5920   24.6840   35.1080 C   0  0  0  0  0  0  0  0  0  0  0  0
   35.9540   24.5310   35.3470 C   0  0  0  0  0  0  0  0  0  0  0  0
   36.4090   24.6570   36.6210 N   0  0  0  0  0  0  0  0  0  0  0  0
   35.5640   24.9280   37.6640 C   0  0  0  0  0  0  0  0  0  0  0  0
   34.2540   25.0720   37.4200 N   0  0  0  0  0  0  0  0  0  0  0  0
   32.6850   25.0910   36.0880 H   0  0  0  0  0  0  0  0  0  0  0  0
   34.1390   24.6010   34.1270 H   0  0  0  0  0  0  0  0  0  0  0  0
   36.6120   24.3180   34.5190 H   0  0  0  0  0  0  0  0  0  0  0  0
   37.4910   27.6550   41.3610 C   0  0  0  0  0  0  0  0  0  0  0  0
   37.9850   27.6030   42.6580 C   0  0  0  0  0  0  0  0  0  0  0  0
   38.4620   29.3580   43.0130 S   0  0  0  0  0  0  0  0  0  0  0  0
   37.8850   29.8530   41.2840 C   0  0  0  0  0  0  0  0  0  0  0  0
   37.5410   28.8650   40.8870 N   0  0  0  0  0  0  0  0  0  0  0  0
   38.1010   26.7610   43.3750 H   0  0  0  0  0  0  0  0  0  0  0  0
   37.9630   31.2590   40.7840 C   0  0  0  0  0  0  0  0  0  0  0  0
   37.0100   31.6180   39.8610 C   0  0  0  0  0  0  0  0  0  0  0  0
   36.2760   30.8960   39.5490 H   0  0  0  0  0  0  0  0  0  0  0  0
   37.1090   32.9220   39.4190 C   0  0  0  0  0  0  0  0  0  0  0  0
   36.3470   33.2170   38.6780 H   0  0  0  0  0  0  0  0  0  0  0  0
   38.1000   33.7790   39.8840 C   0  0  0  0  0  3  0  0  0  0  0  0
   39.0290   33.3580   40.8130 C   0  0  0  0  0  3  0  0  0  0  0  0
   38.9310   32.0680   41.2500 N   0  0  0  0  0  0  0  0  0  0  0  0
  1  2  1  0  0  0  0
  2  7  1  0  0  0  0
  3  2  2  0  0  0  0
  3  4  1  0  0  0  0
  4  5  2  0  0  0  0
  5  6  1  0  0  0  0
  5  9  1  0  0  0  0
  6 10  1  0  0  0  0
  7 20  1  0  0  0  0
  7  6  2  0  0  0  0
  8  4  1  0  0  0  0
 11 16  1  0  0  0  0
 12 13  1  0  0  0  0
 12 11  2  0  0  0  0
 13 14  2  0  0  0  0
 14 15  1  0  0  0  0
 15  3  1  0  0  0  0
 16 15  2  0  0  0  0
 17 11  1  0  0  0  0
 18 12  1  0  0  0  0
 19 13  1  0  0  0  0
 20 21  2  0  0  0  0
 21 22  1  0  0  0  0
 21 25  1  0  0  0  0
 23 22  1  0  0  0  0
 24 23  2  0  0  0  0
 24 20  1  0  0  0  0
 26 33  1  0  0  0  0
 26 23  1  0  0  0  0
 27 26  2  0  0  0  0
 28 27  1  0  0  0  0
 29 27  1  0  0  0  0
 29 31  2  0  0  0  0
 30 29  1  0  0  0  0
 31 32  1  0  0  0  0
 32 33  2  0  0  0  0
M  END
>  <minimizedAffinity>
-5.38715076

$$$$

 OpenBabel03242511303D

 33 36  0  0  0  0  0  0  0  0999 V2000
   33.2510   29.3470   39.0190 Cl  0  0  0  0  0  0  0  0  0  0  0  0
   33.3160   28.6790   37.4340 C   0  0  0  0  0  0  0  0  0  0  0  0
   32.3730   29.0380   36.4930 C   0  0  0  0  0  0  0  0  0  0  0  0
   32.3820   28.5210   35.1850 C   0  0  0  0  0  0  0  0  0  0  0  0
   33.3880   27.6370   34.9050 C   0  0  0  0  0  0  0  0  0  0  0  0
   34.3250   27.2730   35.8200 C   0  0  0  0  0  0  0  0  0  0  0  0
   34.2950   27.7980   37.1090 C   0  0  0  0  0  0  0  0  0  0  0  0
   31.6200   28.8450   34.5140 H   0  0  0  0  0  0  0  0  0  0  0  0
   33.3970   27.2380   33.8980 H   0  0  0  0  0  0  0  0  0  0  0  0
   35.0740   26.5660   35.4860 H   0  0  0  0  0  0  0  0  0  0  0  0
   29.5060   30.5920   38.2080 C   0  0  0  0  0  0  0  0  0  0  0  0
   29.3600   31.7960   37.5260 C   0  0  0  0  0  0  0  0  0  0  0  0
   30.2360   32.0800   36.4820 C   0  0  0  0  0  0  0  0  0  0  0  0
   31.1960   31.1710   36.1730 N   0  0  0  0  0  0  0  0  0  0  0  0
   31.3200   29.9920   36.8600 C   0  0  0  0  0  0  0  0  0  0  0  0
   30.4710   29.7310   37.8630 N   0  0  0  0  0  0  0  0  0  0  0  0
   28.8710   30.2920   39.0300 H   0  0  0  0  0  0  0  0  0  0  0  0
   28.5640   32.4590   37.8440 H   0  0  0  0  0  0  0  0  0  0  0  0
   30.1300   33.0110   35.9480 H   0  0  0  0  0  0  0  0  0  0  0  0
   35.3680   27.3110   37.9770 C   0  0  0  0  0  0  0  0  0  0  0  0
   36.1150   26.2100   37.5800 C   0  0  0  0  0  0  0  0  0  0  0  0
   37.3210   25.9790   38.9690 S   0  0  0  0  0  0  0  0  0  0  0  0
   36.5630   27.4640   39.8580 C   0  0  0  0  0  0  0  0  0  0  0  0
   35.7680   27.7610   39.1300 N   0  0  0  0  0  0  0  0  0  0  0  0
   36.0690   25.5690   36.6730 H   0  0  0  0  0  0  0  0  0  0  0  0
   37.0590   27.9430   41.1830 C   0  0  0  0  0  0  0  0  0  0  0  0
   36.8320   27.1010   42.2460 C   0  0  0  0  0  0  0  0  0  0  0  0
   36.3240   26.1660   42.0810 H   0  0  0  0  0  0  0  0  0  0  0  0
   37.3010   27.5710   43.4560 C   0  0  0  0  0  0  0  0  0  0  0  0
   37.1220   26.9000   44.3120 H   0  0  0  0  0  0  0  0  0  0  0  0
   37.9450   28.7980   43.5630 C   0  0  0  0  0  3  0  0  0  0  0  0
   38.1440   29.5990   42.4580 C   0  0  0  0  0  3  0  0  0  0  0  0
   37.6800   29.1340   41.2610 N   0  0  0  0  0  0  0  0  0  0  0  0
  2  1  1  0  0  0  0
  3 15  1  0  0  0  0
  3  2  2  0  0  0  0
  4  3  1  0  0  0  0
  5  4  2  0  0  0  0
  5  6  1  0  0  0  0
  6  7  2  0  0  0  0
  7  2  1  0  0  0  0
  7 20  1  0  0  0  0
  8  4  1  0  0  0  0
  9  5  1  0  0  0  0
 10  6  1  0  0  0  0
 11 17  1  0  0  0  0
 12 18  1  0  0  0  0
 12 11  2  0  0  0  0
 13 12  1  0  0  0  0
 14 13  2  0  0  0  0
 14 15  1  0  0  0  0
 15 16  2  0  0  0  0
 16 11  1  0  0  0  0
 19 13  1  0  0  0  0
 20 24  1  0  0  0  0
 21 20  2  0  0  0  0
 21 22  1  0  0  0  0
 22 23  1  0  0  0  0
 23 26  1  0  0  0  0
 24 23  2  0  0  0  0
 25 21  1  0  0  0  0
 26 33  2  0  0  0  0
 26 27  1  0  0  0  0
 27 29  2  0  0  0  0
 28 27  1  0  0  0  0
 29 31  1  0  0  0  0
 29 30  1  0  0  0  0
 32 31  2  0  0  0  0
 33 32  1  0  0  0  0
M  END
>  <minimizedAffinity>
-5.36683416

$$$$

 OpenBabel03242511303D

 33 36  0  0  0  0  0  0  0  0999 V2000
   39.7990   28.7680   40.3730 Cl  0  0  0  0  0  0  0  0  0  0  0  0
   38.4020   29.2620   39.4960 C   0  0  0  0  0  0  0  0  0  0  0  0
   37.2240   28.5530   39.6160 C   0  0  0  0  0  0  0  0  0  0  0  0
   36.0560   28.9140   38.9230 C   0  0  0  0  0  0  0  0  0  0  0  0
   36.1620   30.0170   38.1190 C   0  0  0  0  0  0  0  0  0  0  0  0
   37.3140   30.7260   37.9900 C   0  0  0  0  0  0  0  0  0  0  0  0
   38.4590   30.3480   38.6870 C   0  0  0  0  0  0  0  0  0  0  0  0
   35.1850   28.3190   39.0660 H   0  0  0  0  0  0  0  0  0  0  0  0
   35.2630   30.2980   37.5840 H   0  0  0  0  0  0  0  0  0  0  0  0
   37.2810   31.5810   37.3260 H   0  0  0  0  0  0  0  0  0  0  0  0
   36.9170   26.4490   42.6260 C   0  0  0  0  0  0  0  0  0  0  0  0
   37.1000   25.1660   42.1200 C   0  0  0  0  0  0  0  0  0  0  0  0
   37.3300   25.0150   40.7560 C   0  0  0  0  0  0  0  0  0  0  0  0
   37.3640   26.1260   39.9750 N   0  0  0  0  0  0  0  0  0  0  0  0
   37.1800   27.3790   40.4970 C   0  0  0  0  0  0  0  0  0  0  0  0
   36.9600   27.5110   41.8110 N   0  0  0  0  0  0  0  0  0  0  0  0
   36.7340   26.6570   43.6710 H   0  0  0  0  0  0  0  0  0  0  0  0
   37.0570   24.3400   42.8200 H   0  0  0  0  0  0  0  0  0  0  0  0
   37.4730   24.0240   40.3540 H   0  0  0  0  0  0  0  0  0  0  0  0
   39.6170   31.2090   38.4440 C   0  0  0  0  0  0  0  0  0  0  0  0
   39.6050   32.5140   38.9210 C   0  0  0  0  0  0  0  0  0  0  0  0
   41.2460   33.1880   38.3810 S   0  0  0  0  0  0  0  0  0  0  0  0
   41.6540   31.5250   37.5850 C   0  0  0  0  0  0  0  0  0  0  0  0
   40.7270   30.9460   37.8200 N   0  0  0  0  0  0  0  0  0  0  0  0
   38.8440   33.0890   39.4920 H   0  0  0  0  0  0  0  0  0  0  0  0
   42.9460   31.2720   36.8780 C   0  0  0  0  0  0  0  0  0  0  0  0
   42.9220   30.2760   35.9300 C   0  0  0  0  0  0  0  0  0  0  0  0
   42.0060   29.7420   35.7470 H   0  0  0  0  0  0  0  0  0  0  0  0
   44.1290   30.0650   35.2950 C   0  0  0  0  0  0  0  0  0  0  0  0
   44.1170   29.2680   34.5330 H   0  0  0  0  0  0  0  0  0  0  0  0
   45.2600   30.8120   35.6070 C   0  0  0  0  0  3  0  0  0  0  0  0
   45.2200   31.8000   36.5690 C   0  0  0  0  0  3  0  0  0  0  0  0
   44.0250   32.0070   37.1980 N   0  0  0  0  0  0  0  0  0  0  0  0
  2  3  1  0  0  0  0
  2  1  1  0  0  0  0
  3 15  1  0  0  0  0
  4  8  1  0  0  0  0
  4  3  2  0  0  0  0
  5  4  1  0  0  0  0
  6  5  2  0  0  0  0
  6  7  1  0  0  0  0
  7  2  2  0  0  0  0
  9  5  1  0  0  0  0
 10  6  1  0  0  0  0
 11 17  1  0  0  0  0
 12 11  1  0  0  0  0
 12 18  1  0  0  0  0
 13 12  2  0  0  0  0
 14 15  2  0  0  0  0
 14 13  1  0  0  0  0
 15 16  1  0  0  0  0
 16 11  2  0  0  0  0
 19 13  1  0  0  0  0
 20  7  1  0  0  0  0
 20 21  2  0  0  0  0
 21 25  1  0  0  0  0
 22 21  1  0  0  0  0
 23 24  2  0  0  0  0
 23 22  1  0  0  0  0
 24 20  1  0  0  0  0
 26 33  1  0  0  0  0
 26 23  1  0  0  0  0
 27 26  2  0  0  0  0
 28 27  1  0  0  0  0
 29 31  2  0  0  0  0
 29 27  1  0  0  0  0
 30 29  1  0  0  0  0
 31 32  1  0  0  0  0
 32 33  2  0  0  0  0
M  END
>  <minimizedAffinity>
-5.31436634

$$$$
