
 OpenBabel03242511553D

 33 35  0  0  1  0  0  0  0  0999 V2000
   36.0300   29.6630   40.3360 C   0  0  2  0  0  0  0  0  0  0  0  0
   34.7860   29.0120   39.8830 C   0  0  0  0  0  0  0  0  0  0  0  0
   34.8900   28.4140   38.5110 C   0  0  0  0  0  0  0  0  0  0  0  0
   35.3070   29.4450   37.4820 C   0  0  0  0  0  0  0  0  0  0  0  0
   36.4490   30.3070   37.9410 C   0  0  0  0  0  0  0  0  0  0  0  0
   37.0530   29.8480   39.2290 C   0  0  1  0  0  0  0  0  0  0  0  0
   35.8200   30.6970   40.7450 H   0  0  0  0  0  0  0  0  0  0  0  0
   33.9880   29.8070   39.7790 H   0  0  0  0  0  0  0  0  0  0  0  0
   34.3460   28.2860   40.5750 H   0  0  0  0  0  0  0  0  0  0  0  0
   35.4650   27.5050   38.4080 H   0  0  0  0  0  0  0  0  0  0  0  0
   33.8300   28.1480   38.2230 H   0  0  0  0  0  0  0  0  0  0  0  0
   35.6430   28.8770   36.5890 H   0  0  0  0  0  0  0  0  0  0  0  0
   34.4790   30.0950   37.1500 H   0  0  0  0  0  0  0  0  0  0  0  0
   36.1610   31.3780   38.0600 H   0  0  0  0  0  0  0  0  0  0  0  0
   37.2680   30.3210   37.1920 H   0  0  0  0  0  0  0  0  0  0  0  0
   37.6160   28.8950   39.1430 H   0  0  0  0  0  0  0  0  0  0  0  0
   36.6910   28.9370   41.4380 C   0  0  0  0  0  0  0  0  0  0  0  0
   36.7830   27.5220   41.2760 C   0  0  0  0  0  0  0  0  0  0  0  0
   37.4010   26.7720   42.2730 C   0  0  0  0  0  0  0  0  0  0  0  0
   37.8900   27.4560   43.3630 N   0  0  0  0  0  0  0  0  0  0  0  0
   37.7870   28.8010   43.4840 C   0  0  0  0  0  0  0  0  0  0  0  0
   37.1880   29.5350   42.5220 N   0  0  0  0  0  0  0  0  0  0  0  0
   36.4340   26.9260   40.4770 H   0  0  0  0  0  0  0  0  0  0  0  0
   37.5160   25.7040   42.2370 H   0  0  0  0  0  0  0  0  0  0  0  0
   38.2130   29.2370   44.3960 H   0  0  0  0  0  0  0  0  0  0  0  0
   37.9600   30.9400   39.6870 C   0  0  0  0  0  0  0  0  0  0  0  0
   37.4240   32.1990   39.9800 C   0  0  0  0  0  0  0  0  0  0  0  0
   36.3650   32.3330   39.8620 H   0  0  0  0  0  0  0  0  0  0  0  0
   38.3290   33.1540   40.3970 C   0  0  0  0  0  0  0  0  0  0  0  0
   37.9460   34.1390   40.6320 H   0  0  0  0  0  0  0  0  0  0  0  0
   39.6650   32.8220   40.4960 C   0  0  0  0  0  3  0  0  0  0  0  0
   40.1770   31.5810   40.2040 C   0  0  0  0  0  3  0  0  0  0  0  0
   39.2760   30.6710   39.8010 N   0  0  0  0  0  0  0  0  0  0  0  0
  1  7  1  1  0  0  0
  1 17  1  0  0  0  0
  2  1  1  0  0  0  0
  2  9  1  0  0  0  0
  3  2  1  0  0  0  0
  4  5  1  0  0  0  0
  4  3  1  0  0  0  0
  5 14  1  0  0  0  0
  5  6  1  0  0  0  0
  6 16  1  6  0  0  0
  6 26  1  0  0  0  0
  6  1  1  0  0  0  0
  8  2  1  0  0  0  0
 10  3  1  0  0  0  0
 11  3  1  0  0  0  0
 12  4  1  0  0  0  0
 13  4  1  0  0  0  0
 15  5  1  0  0  0  0
 17 22  1  0  0  0  0
 18 17  2  0  0  0  0
 18 19  1  0  0  0  0
 19 20  2  0  0  0  0
 20 21  1  0  0  0  0
 21 25  1  0  0  0  0
 22 21  2  0  0  0  0
 23 18  1  0  0  0  0
 24 19  1  0  0  0  0
 26 33  2  0  0  0  0
 26 27  1  0  0  0  0
 27 29  2  0  0  0  0
 28 27  1  0  0  0  0
 29 31  1  0  0  0  0
 29 30  1  0  0  0  0
 32 31  2  0  0  0  0
 33 32  1  0  0  0  0
M  END
>  <minimizedAffinity>
-5.1552701

$$$$

 OpenBabel03242511553D

 33 35  0  0  1  0  0  0  0  0999 V2000
   37.1290   28.3460   40.7900 C   0  0  2  0  0  0  0  0  0  0  0  0
   37.0040   27.1110   41.5850 C   0  0  0  0  0  0  0  0  0  0  0  0
   36.6910   27.3580   43.0310 C   0  0  0  0  0  0  0  0  0  0  0  0
   37.7240   28.2570   43.6800 C   0  0  0  0  0  0  0  0  0  0  0  0
   38.0750   29.4540   42.8400 C   0  0  0  0  0  0  0  0  0  0  0  0
   37.2010   29.6050   41.6370 C   0  0  1  0  0  0  0  0  0  0  0  0
   38.0720   28.3330   40.1650 H   0  0  0  0  0  0  0  0  0  0  0  0
   38.0120   26.5980   41.6030 H   0  0  0  0  0  0  0  0  0  0  0  0
   36.3290   26.3480   41.1820 H   0  0  0  0  0  0  0  0  0  0  0  0
   35.6870   27.6770   43.2740 H   0  0  0  0  0  0  0  0  0  0  0  0
   36.8330   26.3600   43.5400 H   0  0  0  0  0  0  0  0  0  0  0  0
   37.2700   28.6220   44.6250 H   0  0  0  0  0  0  0  0  0  0  0  0
   38.6520   27.7300   43.9580 H   0  0  0  0  0  0  0  0  0  0  0  0
   39.1360   29.4420   42.4950 H   0  0  0  0  0  0  0  0  0  0  0  0
   37.9820   30.3940   43.4230 H   0  0  0  0  0  0  0  0  0  0  0  0
   36.1580   29.8970   41.8760 H   0  0  0  0  0  0  0  0  0  0  0  0
   36.0270   28.5230   39.8230 C   0  0  0  0  0  0  0  0  0  0  0  0
   36.3170   28.1370   38.4800 C   0  0  0  0  0  0  0  0  0  0  0  0
   35.3220   28.2680   37.5150 C   0  0  0  0  0  0  0  0  0  0  0  0
   34.1080   28.7670   37.9270 N   0  0  0  0  0  0  0  0  0  0  0  0
   33.8650   29.1230   39.2120 C   0  0  0  0  0  0  0  0  0  0  0  0
   34.8260   29.0000   40.1530 N   0  0  0  0  0  0  0  0  0  0  0  0
   37.2180   27.7490   38.0850 H   0  0  0  0  0  0  0  0  0  0  0  0
   35.4500   28.0030   36.4810 H   0  0  0  0  0  0  0  0  0  0  0  0
   32.8610   29.5080   39.4230 H   0  0  0  0  0  0  0  0  0  0  0  0
   37.8400   30.6420   40.7760 C   0  0  0  0  0  0  0  0  0  0  0  0
   37.1290   31.8060   40.4600 C   0  0  0  0  0  0  0  0  0  0  0  0
   36.1360   31.9080   40.8540 H   0  0  0  0  0  0  0  0  0  0  0  0
   37.7910   32.7140   39.6580 C   0  0  0  0  0  0  0  0  0  0  0  0
   37.2680   33.6240   39.3950 H   0  0  0  0  0  0  0  0  0  0  0  0
   39.0730   32.4310   39.2310 C   0  0  0  0  0  3  0  0  0  0  0  0
   39.7580   31.2830   39.5500 C   0  0  0  0  0  3  0  0  0  0  0  0
   39.0920   30.4170   40.3290 N   0  0  0  0  0  0  0  0  0  0  0  0
  1  7  1  6  0  0  0
  1  2  1  0  0  0  0
  1  6  1  0  0  0  0
  2  8  1  0  0  0  0
  2  3  1  0  0  0  0
  3 10  1  0  0  0  0
  3 11  1  0  0  0  0
  3  4  1  0  0  0  0
  4 13  1  0  0  0  0
  4 12  1  0  0  0  0
  5 15  1  0  0  0  0
  5  4  1  0  0  0  0
  6 16  1  1  0  0  0
  6  5  1  0  0  0  0
  9  2  1  0  0  0  0
 14  5  1  0  0  0  0
 17 22  1  0  0  0  0
 17  1  1  0  0  0  0
 18 17  2  0  0  0  0
 19 20  2  0  0  0  0
 19 18  1  0  0  0  0
 20 21  1  0  0  0  0
 21 25  1  0  0  0  0
 21 22  2  0  0  0  0
 23 18  1  0  0  0  0
 24 19  1  0  0  0  0
 26  6  1  0  0  0  0
 27 26  1  0  0  0  0
 27 28  1  0  0  0  0
 29 27  2  0  0  0  0
 30 29  1  0  0  0  0
 31 32  2  0  0  0  0
 31 29  1  0  0  0  0
 32 33  1  0  0  0  0
 33 26  2  0  0  0  0
M  END
>  <minimizedAffinity>
-5.00799322

$$$$

 OpenBabel03242511553D

 33 35  0  0  1  0  0  0  0  0999 V2000
   37.4980   29.6110   41.7310 C   0  0  2  0  0  0  0  0  0  0  0  0
   38.1500   29.4370   43.0430 C   0  0  0  0  0  0  0  0  0  0  0  0
   38.8490   28.1180   43.1930 C   0  0  0  0  0  0  0  0  0  0  0  0
   37.9060   26.9560   42.9560 C   0  0  0  0  0  0  0  0  0  0  0  0
   37.0410   27.1380   41.7400 C   0  0  0  0  0  0  0  0  0  0  0  0
   37.4200   28.3280   40.9200 C   0  0  1  0  0  0  0  0  0  0  0  0
   36.4330   29.9710   41.8520 H   0  0  0  0  0  0  0  0  0  0  0  0
   37.3460   29.4170   43.8370 H   0  0  0  0  0  0  0  0  0  0  0  0
   38.8130   30.2490   43.3590 H   0  0  0  0  0  0  0  0  0  0  0  0
   39.7770   27.9840   42.6560 H   0  0  0  0  0  0  0  0  0  0  0  0
   39.1090   28.0440   44.2900 H   0  0  0  0  0  0  0  0  0  0  0  0
   38.5450   26.0640   42.7920 H   0  0  0  0  0  0  0  0  0  0  0  0
   37.2620   26.7290   43.8220 H   0  0  0  0  0  0  0  0  0  0  0  0
   35.9570   27.2250   41.9900 H   0  0  0  0  0  0  0  0  0  0  0  0
   37.1020   26.2560   41.0690 H   0  0  0  0  0  0  0  0  0  0  0  0
   38.3900   28.2170   40.3930 H   0  0  0  0  0  0  0  0  0  0  0  0
   38.1590   30.6300   40.8910 C   0  0  0  0  0  0  0  0  0  0  0  0
   37.4130   31.8280   40.6740 C   0  0  0  0  0  0  0  0  0  0  0  0
   37.9770   32.8360   39.8970 C   0  0  0  0  0  0  0  0  0  0  0  0
   39.2330   32.6080   39.3850 N   0  0  0  0  0  0  0  0  0  0  0  0
   39.9140   31.4590   39.6110 C   0  0  0  0  0  0  0  0  0  0  0  0
   39.3730   30.4750   40.3620 N   0  0  0  0  0  0  0  0  0  0  0  0
   36.4500   32.0780   41.0290 H   0  0  0  0  0  0  0  0  0  0  0  0
   37.4900   33.7700   39.6820 H   0  0  0  0  0  0  0  0  0  0  0  0
   40.9070   31.3890   39.1510 H   0  0  0  0  0  0  0  0  0  0  0  0
   36.3200   28.5340   39.9340 C   0  0  0  0  0  0  0  0  0  0  0  0
   35.0700   28.9760   40.3820 C   0  0  0  0  0  0  0  0  0  0  0  0
   34.9490   29.1520   41.4350 H   0  0  0  0  0  0  0  0  0  0  0  0
   34.1070   29.1400   39.4070 C   0  0  0  0  0  0  0  0  0  0  0  0
   33.1290   29.4810   39.7220 H   0  0  0  0  0  0  0  0  0  0  0  0
   34.4230   28.8670   38.0910 C   0  0  0  0  0  3  0  0  0  0  0  0
   35.6560   28.4340   37.6670 C   0  0  0  0  0  3  0  0  0  0  0  0
   36.5730   28.2820   38.6340 N   0  0  0  0  0  0  0  0  0  0  0  0
  1  7  1  1  0  0  0
  1  2  1  0  0  0  0
  2  3  1  0  0  0  0
  2  9  1  0  0  0  0
  2  8  1  0  0  0  0
  3 11  1  0  0  0  0
  4  3  1  0  0  0  0
  4 13  1  0  0  0  0
  5 14  1  0  0  0  0
  5  4  1  0  0  0  0
  6 16  1  6  0  0  0
  6  1  1  0  0  0  0
  6  5  1  0  0  0  0
 10  3  1  0  0  0  0
 12  4  1  0  0  0  0
 15  5  1  0  0  0  0
 17  1  1  0  0  0  0
 18 17  1  0  0  0  0
 18 23  1  0  0  0  0
 19 18  2  0  0  0  0
 20 21  2  0  0  0  0
 20 19  1  0  0  0  0
 21 22  1  0  0  0  0
 22 17  2  0  0  0  0
 24 19  1  0  0  0  0
 25 21  1  0  0  0  0
 26 27  1  0  0  0  0
 26  6  1  0  0  0  0
 27 28  1  0  0  0  0
 29 30  1  0  0  0  0
 29 27  2  0  0  0  0
 31 29  1  0  0  0  0
 32 31  2  0  0  0  0
 32 33  1  0  0  0  0
 33 26  2  0  0  0  0
M  END
>  <minimizedAffinity>
-5.0005002

$$$$

 OpenBabel03242511553D

 33 35  0  0  1  0  0  0  0  0999 V2000
   37.0970   31.0200   40.6630 C   0  0  2  0  0  0  0  0  0  0  0  0
   37.2250   32.4450   40.3040 C   0  0  0  0  0  0  0  0  0  0  0  0
   38.6100   32.8330   39.8770 C   0  0  0  0  0  0  0  0  0  0  0  0
   39.6350   32.5020   40.9420 C   0  0  0  0  0  0  0  0  0  0  0  0
   39.4570   31.1270   41.5250 C   0  0  0  0  0  0  0  0  0  0  0  0
   38.4330   30.3110   40.8060 C   0  0  1  0  0  0  0  0  0  0  0  0
   36.5690   30.8990   41.6560 H   0  0  0  0  0  0  0  0  0  0  0  0
   37.0370   33.0620   41.2320 H   0  0  0  0  0  0  0  0  0  0  0  0
   36.4920   32.8240   39.5830 H   0  0  0  0  0  0  0  0  0  0  0  0
   38.9390   32.5030   38.9020 H   0  0  0  0  0  0  0  0  0  0  0  0
   38.6030   33.9620   39.8400 H   0  0  0  0  0  0  0  0  0  0  0  0
   40.6260   32.5370   40.4440 H   0  0  0  0  0  0  0  0  0  0  0  0
   39.6680   33.2370   41.7640 H   0  0  0  0  0  0  0  0  0  0  0  0
   39.1810   31.1490   42.6060 H   0  0  0  0  0  0  0  0  0  0  0  0
   40.4050   30.5520   41.4910 H   0  0  0  0  0  0  0  0  0  0  0  0
   38.7450   29.9980   39.7890 H   0  0  0  0  0  0  0  0  0  0  0  0
   36.2860   30.2530   39.6970 C   0  0  0  0  0  0  0  0  0  0  0  0
   36.7750   30.2380   38.3560 C   0  0  0  0  0  0  0  0  0  0  0  0
   36.0640   29.5280   37.3920 C   0  0  0  0  0  0  0  0  0  0  0  0
   34.9240   28.8780   37.8030 N   0  0  0  0  0  0  0  0  0  0  0  0
   34.4880   28.9110   39.0850 C   0  0  0  0  0  0  0  0  0  0  0  0
   35.1710   29.5990   40.0260 N   0  0  0  0  0  0  0  0  0  0  0  0
   37.6350   30.7090   37.9630 H   0  0  0  0  0  0  0  0  0  0  0  0
   36.3570   29.4610   36.3600 H   0  0  0  0  0  0  0  0  0  0  0  0
   33.5670   28.3560   39.2950 H   0  0  0  0  0  0  0  0  0  0  0  0
   38.1720   29.1130   41.6550 C   0  0  0  0  0  0  0  0  0  0  0  0
   37.6990   29.2860   42.9610 C   0  0  0  0  0  0  0  0  0  0  0  0
   37.5410   30.2900   43.3070 H   0  0  0  0  0  0  0  0  0  0  0  0
   37.4840   28.1280   43.6790 C   0  0  0  0  0  0  0  0  0  0  0  0
   37.1180   28.2280   44.6930 H   0  0  0  0  0  0  0  0  0  0  0  0
   37.7390   26.9070   43.0870 C   0  0  0  0  0  3  0  0  0  0  0  0
   38.2030   26.7530   41.8040 C   0  0  0  0  0  3  0  0  0  0  0  0
   38.4040   27.8940   41.1270 N   0  0  0  0  0  0  0  0  0  0  0  0
  1  6  1  0  0  0  0
  1  7  1  1  0  0  0
  2  1  1  0  0  0  0
  2  8  1  0  0  0  0
  3  2  1  0  0  0  0
  3  4  1  0  0  0  0
  4  5  1  0  0  0  0
  4 13  1  0  0  0  0
  5 14  1  0  0  0  0
  6 16  1  6  0  0  0
  6  5  1  0  0  0  0
  6 26  1  0  0  0  0
  9  2  1  0  0  0  0
 10  3  1  0  0  0  0
 11  3  1  0  0  0  0
 12  4  1  0  0  0  0
 15  5  1  0  0  0  0
 17 22  1  0  0  0  0
 17  1  1  0  0  0  0
 18 17  2  0  0  0  0
 19 20  2  0  0  0  0
 19 18  1  0  0  0  0
 20 21  1  0  0  0  0
 21 25  1  0  0  0  0
 21 22  2  0  0  0  0
 23 18  1  0  0  0  0
 24 19  1  0  0  0  0
 26 27  1  0  0  0  0
 27 28  1  0  0  0  0
 27 29  2  0  0  0  0
 29 30  1  0  0  0  0
 31 29  1  0  0  0  0
 32 31  2  0  0  0  0
 33 26  2  0  0  0  0
 33 32  1  0  0  0  0
M  END
>  <minimizedAffinity>
-4.94349575

$$$$

 OpenBabel03242511553D

 33 35  0  0  1  0  0  0  0  0999 V2000
   38.6190   30.7460   40.0890 C   0  0  2  0  0  0  0  0  0  0  0  0
   39.6800   31.7350   40.3530 C   0  0  0  0  0  0  0  0  0  0  0  0
   39.1660   33.0310   40.9070 C   0  0  0  0  0  0  0  0  0  0  0  0
   38.1300   33.6550   39.9950 C   0  0  0  0  0  0  0  0  0  0  0  0
   37.1090   32.6690   39.5000 C   0  0  0  0  0  0  0  0  0  0  0  0
   37.2180   31.3300   40.1550 C   0  0  1  0  0  0  0  0  0  0  0  0
   38.7260   30.3040   39.0530 H   0  0  0  0  0  0  0  0  0  0  0  0
   40.1500   32.0230   39.3660 H   0  0  0  0  0  0  0  0  0  0  0  0
   40.5260   31.3810   40.9540 H   0  0  0  0  0  0  0  0  0  0  0  0
   38.8350   33.0340   41.9360 H   0  0  0  0  0  0  0  0  0  0  0  0
   40.0420   33.7430   40.8580 H   0  0  0  0  0  0  0  0  0  0  0  0
   37.6010   34.4210   40.6010 H   0  0  0  0  0  0  0  0  0  0  0  0
   38.5660   34.1830   39.1300 H   0  0  0  0  0  0  0  0  0  0  0  0
   37.1570   32.5160   38.3960 H   0  0  0  0  0  0  0  0  0  0  0  0
   36.0770   33.0320   39.6870 H   0  0  0  0  0  0  0  0  0  0  0  0
   36.9150   31.3290   41.2220 H   0  0  0  0  0  0  0  0  0  0  0  0
   38.6650   29.5920   41.0090 C   0  0  0  0  0  0  0  0  0  0  0  0
   38.2640   29.8590   42.3530 C   0  0  0  0  0  0  0  0  0  0  0  0
   38.2750   28.8160   43.2750 C   0  0  0  0  0  0  0  0  0  0  0  0
   38.6760   27.5800   42.8220 N   0  0  0  0  0  0  0  0  0  0  0  0
   39.0500   27.3610   41.5390 C   0  0  0  0  0  0  0  0  0  0  0  0
   39.0430   28.3680   40.6380 N   0  0  0  0  0  0  0  0  0  0  0  0
   37.9470   30.7730   42.7770 H   0  0  0  0  0  0  0  0  0  0  0  0
   37.9900   28.9240   44.3060 H   0  0  0  0  0  0  0  0  0  0  0  0
   39.3500   26.3360   41.2930 H   0  0  0  0  0  0  0  0  0  0  0  0
   36.3500   30.4030   39.3740 C   0  0  0  0  0  0  0  0  0  0  0  0
   35.3020   29.7360   40.0190 C   0  0  0  0  0  0  0  0  0  0  0  0
   35.1620   29.9200   41.0680 H   0  0  0  0  0  0  0  0  0  0  0  0
   34.5470   28.8960   39.2250 C   0  0  0  0  0  0  0  0  0  0  0  0
   33.7290   28.3650   39.6950 H   0  0  0  0  0  0  0  0  0  0  0  0
   34.8600   28.7680   37.8870 C   0  0  0  0  0  3  0  0  0  0  0  0
   35.8920   29.4290   37.2680 C   0  0  0  0  0  3  0  0  0  0  0  0
   36.6110   30.2390   38.0610 N   0  0  0  0  0  0  0  0  0  0  0  0
  1  7  1  6  0  0  0
  1  6  1  0  0  0  0
  1  2  1  0  0  0  0
  1 17  1  0  0  0  0
  2  3  1  0  0  0  0
  2  9  1  0  0  0  0
  3 10  1  0  0  0  0
  4 12  1  0  0  0  0
  4  3  1  0  0  0  0
  5 15  1  0  0  0  0
  5  4  1  0  0  0  0
  5  6  1  0  0  0  0
  6 16  1  1  0  0  0
  8  2  1  0  0  0  0
 11  3  1  0  0  0  0
 13  4  1  0  0  0  0
 14  5  1  0  0  0  0
 17 18  1  0  0  0  0
 18 23  1  0  0  0  0
 18 19  2  0  0  0  0
 19 24  1  0  0  0  0
 20 19  1  0  0  0  0
 21 20  2  0  0  0  0
 22 17  2  0  0  0  0
 22 21  1  0  0  0  0
 25 21  1  0  0  0  0
 26 27  1  0  0  0  0
 26  6  1  0  0  0  0
 27 28  1  0  0  0  0
 29 30  1  0  0  0  0
 29 27  2  0  0  0  0
 31 29  1  0  0  0  0
 32 31  2  0  0  0  0
 32 33  1  0  0  0  0
 33 26  2  0  0  0  0
M  END
>  <minimizedAffinity>
-4.89412022

$$$$

 OpenBabel03242511553D

 33 35  0  0  1  0  0  0  0  0999 V2000
   37.8970   26.9480   42.3660 C   0  0  2  0  0  0  0  0  0  0  0  0
   38.5580   27.4100   43.6010 C   0  0  0  0  0  0  0  0  0  0  0  0
   40.0090   27.0340   43.6800 C   0  0  0  0  0  0  0  0  0  0  0  0
   40.2060   25.5380   43.5480 C   0  0  0  0  0  0  0  0  0  0  0  0
   39.4020   24.9330   42.4310 C   0  0  0  0  0  0  0  0  0  0  0  0
   38.7270   25.9530   41.5720 C   0  0  1  0  0  0  0  0  0  0  0  0
   36.9210   26.4260   42.6000 H   0  0  0  0  0  0  0  0  0  0  0  0
   38.0860   26.8740   44.4770 H   0  0  0  0  0  0  0  0  0  0  0  0
   38.4340   28.4710   43.8430 H   0  0  0  0  0  0  0  0  0  0  0  0
   40.6970   27.5760   43.0470 H   0  0  0  0  0  0  0  0  0  0  0  0
   40.3170   27.2620   44.7430 H   0  0  0  0  0  0  0  0  0  0  0  0
   41.2810   25.3840   43.3190 H   0  0  0  0  0  0  0  0  0  0  0  0
   39.9990   24.9830   44.4790 H   0  0  0  0  0  0  0  0  0  0  0  0
   38.6230   24.2230   42.7960 H   0  0  0  0  0  0  0  0  0  0  0  0
   40.0420   24.3240   41.7600 H   0  0  0  0  0  0  0  0  0  0  0  0
   39.4270   26.5420   40.9440 H   0  0  0  0  0  0  0  0  0  0  0  0
   37.5370   28.0540   41.4570 C   0  0  0  0  0  0  0  0  0  0  0  0
   36.1540   28.4040   41.4300 C   0  0  0  0  0  0  0  0  0  0  0  0
   35.7420   29.4440   40.6010 C   0  0  0  0  0  0  0  0  0  0  0  0
   36.7110   30.0750   39.8540 N   0  0  0  0  0  0  0  0  0  0  0  0
   38.0170   29.7180   39.9050 C   0  0  0  0  0  0  0  0  0  0  0  0
   38.4240   28.7090   40.7060 N   0  0  0  0  0  0  0  0  0  0  0  0
   35.3540   27.9710   41.9670 H   0  0  0  0  0  0  0  0  0  0  0  0
   34.7230   29.7760   40.5160 H   0  0  0  0  0  0  0  0  0  0  0  0
   38.6980   30.2920   39.2660 H   0  0  0  0  0  0  0  0  0  0  0  0
   37.7630   25.2120   40.7090 C   0  0  0  0  0  0  0  0  0  0  0  0
   36.8020   24.3870   41.3050 C   0  0  0  0  0  0  0  0  0  0  0  0
   36.7960   24.3180   42.3770 H   0  0  0  0  0  0  0  0  0  0  0  0
   35.9480   23.7360   40.4370 C   0  0  0  0  0  0  0  0  0  0  0  0
   35.1930   23.0910   40.8670 H   0  0  0  0  0  0  0  0  0  0  0  0
   36.0880   23.9310   39.0780 C   0  0  0  0  0  3  0  0  0  0  0  0
   37.0370   24.7440   38.5080 C   0  0  0  0  0  3  0  0  0  0  0  0
   37.8540   25.3650   39.3730 N   0  0  0  0  0  0  0  0  0  0  0  0
  1  7  1  1  0  0  0
  1  2  1  0  0  0  0
  2  3  1  0  0  0  0
  2  9  1  0  0  0  0
  2  8  1  0  0  0  0
  3 11  1  0  0  0  0
  4  3  1  0  0  0  0
  4 13  1  0  0  0  0
  5 14  1  0  0  0  0
  5  4  1  0  0  0  0
  6 16  1  6  0  0  0
  6  1  1  0  0  0  0
  6  5  1  0  0  0  0
 10  3  1  0  0  0  0
 12  4  1  0  0  0  0
 15  5  1  0  0  0  0
 17  1  1  0  0  0  0
 18 17  1  0  0  0  0
 18 23  1  0  0  0  0
 19 18  2  0  0  0  0
 20 21  2  0  0  0  0
 20 19  1  0  0  0  0
 21 22  1  0  0  0  0
 22 17  2  0  0  0  0
 24 19  1  0  0  0  0
 25 21  1  0  0  0  0
 26 27  1  0  0  0  0
 26  6  1  0  0  0  0
 27 28  1  0  0  0  0
 29 30  1  0  0  0  0
 29 27  2  0  0  0  0
 31 29  1  0  0  0  0
 32 31  2  0  0  0  0
 32 33  1  0  0  0  0
 33 26  2  0  0  0  0
M  END
>  <minimizedAffinity>
-4.8620162

$$$$

 OpenBabel03242511553D

 33 35  0  0  1  0  0  0  0  0999 V2000
   37.6680   29.7580   38.8040 C   0  0  2  0  0  0  0  0  0  0  0  0
   37.0780   29.6990   37.4540 C   0  0  0  0  0  0  0  0  0  0  0  0
   35.5970   29.4580   37.4580 C   0  0  0  0  0  0  0  0  0  0  0  0
   35.2410   28.1890   38.2040 C   0  0  0  0  0  0  0  0  0  0  0  0
   35.9590   28.0560   39.5180 C   0  0  0  0  0  0  0  0  0  0  0  0
   36.7260   29.2820   39.8960 C   0  0  1  0  0  0  0  0  0  0  0  0
   38.5870   29.1020   38.8740 H   0  0  0  0  0  0  0  0  0  0  0  0
   37.5040   28.7980   36.9200 H   0  0  0  0  0  0  0  0  0  0  0  0
   37.3180   30.5370   36.7890 H   0  0  0  0  0  0  0  0  0  0  0  0
   34.9610   30.2790   37.7560 H   0  0  0  0  0  0  0  0  0  0  0  0
   35.3310   29.2310   36.3830 H   0  0  0  0  0  0  0  0  0  0  0  0
   34.1520   28.2450   38.4140 H   0  0  0  0  0  0  0  0  0  0  0  0
   35.4010   27.2710   37.6140 H   0  0  0  0  0  0  0  0  0  0  0  0
   36.6640   27.1910   39.5390 H   0  0  0  0  0  0  0  0  0  0  0  0
   35.2490   27.8560   40.3460 H   0  0  0  0  0  0  0  0  0  0  0  0
   36.0830   30.1440   40.1700 H   0  0  0  0  0  0  0  0  0  0  0  0
   38.1300   31.1110   39.1720 C   0  0  0  0  0  0  0  0  0  0  0  0
   37.1010   32.0760   39.3880 C   0  0  0  0  0  0  0  0  0  0  0  0
   37.4620   33.3730   39.7460 C   0  0  0  0  0  0  0  0  0  0  0  0
   38.8060   33.6390   39.8700 N   0  0  0  0  0  0  0  0  0  0  0  0
   39.7580   32.6990   39.6580 C   0  0  0  0  0  0  0  0  0  0  0  0
   39.4150   31.4390   39.3100 N   0  0  0  0  0  0  0  0  0  0  0  0
   36.0540   31.9520   39.3130 H   0  0  0  0  0  0  0  0  0  0  0  0
   36.7570   34.1630   39.9290 H   0  0  0  0  0  0  0  0  0  0  0  0
   40.7960   33.0270   39.7860 H   0  0  0  0  0  0  0  0  0  0  0  0
   37.5930   28.9020   41.0490 C   0  0  0  0  0  0  0  0  0  0  0  0
   37.3680   29.4880   42.3000 C   0  0  0  0  0  0  0  0  0  0  0  0
   36.5680   30.1990   42.3840 H   0  0  0  0  0  0  0  0  0  0  0  0
   38.2140   29.0830   43.3120 C   0  0  0  0  0  0  0  0  0  0  0  0
   38.0660   29.5170   44.2930 H   0  0  0  0  0  0  0  0  0  0  0  0
   39.2000   28.1550   43.0400 C   0  0  0  0  0  3  0  0  0  0  0  0
   39.4090   27.5900   41.8060 C   0  0  0  0  0  3  0  0  0  0  0  0
   38.5730   28.0000   40.8400 N   0  0  0  0  0  0  0  0  0  0  0  0
  1  7  1  1  0  0  0
  1 17  1  0  0  0  0
  1  6  1  0  0  0  0
  2  3  1  0  0  0  0
  2  1  1  0  0  0  0
  3 10  1  0  0  0  0
  3  4  1  0  0  0  0
  4 12  1  0  0  0  0
  4  5  1  0  0  0  0
  5 14  1  0  0  0  0
  5  6  1  0  0  0  0
  5 15  1  0  0  0  0
  6 16  1  1  0  0  0
  6 26  1  0  0  0  0
  8  2  1  0  0  0  0
  9  2  1  0  0  0  0
 11  3  1  0  0  0  0
 13  4  1  0  0  0  0
 17 22  2  0  0  0  0
 17 18  1  0  0  0  0
 18 19  2  0  0  0  0
 19 20  1  0  0  0  0
 19 24  1  0  0  0  0
 21 25  1  0  0  0  0
 21 20  2  0  0  0  0
 22 21  1  0  0  0  0
 23 18  1  0  0  0  0
 26 27  1  0  0  0  0
 27 28  1  0  0  0  0
 27 29  2  0  0  0  0
 29 30  1  0  0  0  0
 31 29  1  0  0  0  0
 32 31  2  0  0  0  0
 33 26  2  0  0  0  0
 33 32  1  0  0  0  0
M  END
>  <minimizedAffinity>
-4.8145771

$$$$

 OpenBabel03242511553D

 33 35  0  0  1  0  0  0  0  0999 V2000
   37.3590   28.3620   40.7600 C   0  0  2  0  0  0  0  0  0  0  0  0
   37.1940   27.0460   41.4050 C   0  0  0  0  0  0  0  0  0  0  0  0
   36.6920   27.1300   42.8160 C   0  0  0  0  0  0  0  0  0  0  0  0
   37.5930   27.9890   43.6790 C   0  0  0  0  0  0  0  0  0  0  0  0
   37.9900   29.2790   43.0160 C   0  0  0  0  0  0  0  0  0  0  0  0
   37.2670   29.5270   41.7310 C   0  0  1  0  0  0  0  0  0  0  0  0
   38.3720   28.4460   40.2640 H   0  0  0  0  0  0  0  0  0  0  0  0
   38.2140   26.5690   41.5020 H   0  0  0  0  0  0  0  0  0  0  0  0
   36.6100   26.3080   40.8440 H   0  0  0  0  0  0  0  0  0  0  0  0
   35.6520   27.3880   42.9580 H   0  0  0  0  0  0  0  0  0  0  0  0
   36.8160   26.0890   43.2370 H   0  0  0  0  0  0  0  0  0  0  0  0
   37.0090   28.2380   44.5900 H   0  0  0  0  0  0  0  0  0  0  0  0
   38.5030   27.4680   44.0200 H   0  0  0  0  0  0  0  0  0  0  0  0
   39.0850   29.3390   42.8100 H   0  0  0  0  0  0  0  0  0  0  0  0
   37.7810   30.1480   43.6720 H   0  0  0  0  0  0  0  0  0  0  0  0
   36.1900   29.7570   41.8620 H   0  0  0  0  0  0  0  0  0  0  0  0
   36.3790   28.6020   39.6820 C   0  0  0  0  0  0  0  0  0  0  0  0
   36.9080   28.5970   38.3560 C   0  0  0  0  0  0  0  0  0  0  0  0
   36.0400   28.8100   37.2880 C   0  0  0  0  0  0  0  0  0  0  0  0
   34.7120   29.0110   37.5870 N   0  0  0  0  0  0  0  0  0  0  0  0
   34.2430   29.0080   38.8580 C   0  0  0  0  0  0  0  0  0  0  0  0
   35.0790   28.8040   39.8990 N   0  0  0  0  0  0  0  0  0  0  0  0
   37.9070   28.4530   38.0450 H   0  0  0  0  0  0  0  0  0  0  0  0
   36.3480   28.8230   36.2580 H   0  0  0  0  0  0  0  0  0  0  0  0
   33.1660   29.1790   38.9740 H   0  0  0  0  0  0  0  0  0  0  0  0
   37.9600   30.6690   41.0680 C   0  0  0  0  0  0  0  0  0  0  0  0
   39.3360   30.5910   40.8260 C   0  0  0  0  0  0  0  0  0  0  0  0
   39.8490   29.6980   41.1320 H   0  0  0  0  0  0  0  0  0  0  0  0
   39.9000   31.6890   40.2090 C   0  0  0  0  0  0  0  0  0  0  0  0
   40.9630   31.6600   40.0070 H   0  0  0  0  0  0  0  0  0  0  0  0
   39.0990   32.7640   39.8770 C   0  0  0  0  0  3  0  0  0  0  0  0
   37.7490   32.8260   40.1220 C   0  0  0  0  0  3  0  0  0  0  0  0
   37.2260   31.7460   40.7230 N   0  0  0  0  0  0  0  0  0  0  0  0
  1  7  1  6  0  0  0
  1  2  1  0  0  0  0
  1  6  1  0  0  0  0
  2  8  1  0  0  0  0
  2  3  1  0  0  0  0
  3 10  1  0  0  0  0
  3 11  1  0  0  0  0
  3  4  1  0  0  0  0
  4 13  1  0  0  0  0
  4 12  1  0  0  0  0
  5 15  1  0  0  0  0
  5  4  1  0  0  0  0
  6 16  1  1  0  0  0
  6  5  1  0  0  0  0
  9  2  1  0  0  0  0
 14  5  1  0  0  0  0
 17 22  1  0  0  0  0
 17  1  1  0  0  0  0
 18 17  2  0  0  0  0
 19 20  2  0  0  0  0
 19 18  1  0  0  0  0
 20 21  1  0  0  0  0
 21 25  1  0  0  0  0
 21 22  2  0  0  0  0
 23 18  1  0  0  0  0
 24 19  1  0  0  0  0
 26  6  1  0  0  0  0
 27 26  1  0  0  0  0
 27 28  1  0  0  0  0
 29 27  2  0  0  0  0
 30 29  1  0  0  0  0
 31 32  2  0  0  0  0
 31 29  1  0  0  0  0
 32 33  1  0  0  0  0
 33 26  2  0  0  0  0
M  END
>  <minimizedAffinity>
-4.8117671

$$$$

 OpenBabel03242511553D

 33 35  0  0  1  0  0  0  0  0999 V2000
   36.8490   29.9590   39.2410 C   0  0  2  0  0  0  0  0  0  0  0  0
   36.0060   28.9680   38.5470 C   0  0  0  0  0  0  0  0  0  0  0  0
   36.5220   28.5900   37.1890 C   0  0  0  0  0  0  0  0  0  0  0  0
   36.6870   29.8030   36.2970 C   0  0  0  0  0  0  0  0  0  0  0  0
   37.3600   30.9560   36.9890 C   0  0  0  0  0  0  0  0  0  0  0  0
   37.8900   30.6030   38.3410 C   0  0  1  0  0  0  0  0  0  0  0  0
   36.2220   30.8060   39.6520 H   0  0  0  0  0  0  0  0  0  0  0  0
   35.0010   29.4410   38.3390 H   0  0  0  0  0  0  0  0  0  0  0  0
   35.7600   28.0660   39.1170 H   0  0  0  0  0  0  0  0  0  0  0  0
   37.3940   27.9540   37.1490 H   0  0  0  0  0  0  0  0  0  0  0  0
   35.6850   28.0040   36.7070 H   0  0  0  0  0  0  0  0  0  0  0  0
   37.3340   29.4850   35.4530 H   0  0  0  0  0  0  0  0  0  0  0  0
   35.7400   30.1560   35.8540 H   0  0  0  0  0  0  0  0  0  0  0  0
   36.6910   31.8410   37.1030 H   0  0  0  0  0  0  0  0  0  0  0  0
   38.2200   31.3320   36.3980 H   0  0  0  0  0  0  0  0  0  0  0  0
   38.7640   29.9200   38.3140 H   0  0  0  0  0  0  0  0  0  0  0  0
   37.5550   29.3970   40.4090 C   0  0  0  0  0  0  0  0  0  0  0  0
   37.0230   29.7570   41.6830 C   0  0  0  0  0  0  0  0  0  0  0  0
   37.6340   29.2580   42.8300 C   0  0  0  0  0  0  0  0  0  0  0  0
   38.7250   28.4370   42.6550 N   0  0  0  0  0  0  0  0  0  0  0  0
   39.2040   28.1150   41.4300 C   0  0  0  0  0  0  0  0  0  0  0  0
   38.6170   28.5960   40.3130 N   0  0  0  0  0  0  0  0  0  0  0  0
   36.1960   30.3780   41.9010 H   0  0  0  0  0  0  0  0  0  0  0  0
   37.3030   29.4740   43.8300 H   0  0  0  0  0  0  0  0  0  0  0  0
   40.0780   27.4530   41.4140 H   0  0  0  0  0  0  0  0  0  0  0  0
   38.2620   31.8880   39.0000 C   0  0  0  0  0  0  0  0  0  0  0  0
   37.2730   32.8480   39.2440 C   0  0  0  0  0  0  0  0  0  0  0  0
   36.2680   32.6180   38.9420 H   0  0  0  0  0  0  0  0  0  0  0  0
   37.7000   34.0080   39.8570 C   0  0  0  0  0  0  0  0  0  0  0  0
   36.9580   34.7700   40.0590 H   0  0  0  0  0  0  0  0  0  0  0  0
   39.0340   34.1490   40.1820 C   0  0  0  0  0  3  0  0  0  0  0  0
   39.9940   33.1990   39.9360 C   0  0  0  0  0  3  0  0  0  0  0  0
   39.5530   32.0810   39.3400 N   0  0  0  0  0  0  0  0  0  0  0  0
  1  7  1  1  0  0  0
  1 17  1  0  0  0  0
  2  9  1  0  0  0  0
  2  1  1  0  0  0  0
  3  2  1  0  0  0  0
  4  5  1  0  0  0  0
  4  3  1  0  0  0  0
  5 14  1  0  0  0  0
  5  6  1  0  0  0  0
  6 16  1  6  0  0  0
  6 26  1  0  0  0  0
  6  1  1  0  0  0  0
  8  2  1  0  0  0  0
 10  3  1  0  0  0  0
 11  3  1  0  0  0  0
 12  4  1  0  0  0  0
 13  4  1  0  0  0  0
 15  5  1  0  0  0  0
 17 18  1  0  0  0  0
 18 23  1  0  0  0  0
 18 19  2  0  0  0  0
 19 24  1  0  0  0  0
 20 19  1  0  0  0  0
 21 20  2  0  0  0  0
 22 17  2  0  0  0  0
 22 21  1  0  0  0  0
 25 21  1  0  0  0  0
 26 27  2  0  0  0  0
 26 33  1  0  0  0  0
 27 29  1  0  0  0  0
 28 27  1  0  0  0  0
 29 30  1  0  0  0  0
 29 31  2  0  0  0  0
 32 31  1  0  0  0  0
 33 32  2  0  0  0  0
M  END
>  <minimizedAffinity>
-4.75941658

$$$$
