
 OpenBabel03252506183D

 22 23  0  0  0  0  0  0  0  0999 V2000
   44.8480   35.7390   44.0150 C   0  0  0  0  0  0  0  0  0  0  0  0
   44.3140   35.3250   42.7800 C   0  0  0  0  0  0  0  0  0  0  0  0
   44.3810   33.9680   42.4480 C   0  0  0  0  0  0  0  0  0  0  0  0
   44.9650   33.1200   43.3450 N   0  0  0  0  0  0  0  0  0  0  0  0
   45.4700   33.5500   44.5250 C   0  0  0  0  0  0  0  0  0  0  0  0
   45.4040   34.8570   44.8440 N   0  0  0  0  0  0  0  0  0  0  0  0
   43.8490   35.9980   42.0660 H   0  0  0  0  0  0  0  0  0  0  0  0
   44.0070   33.5550   41.5390 H   0  0  0  0  0  0  0  0  0  0  0  0
   46.0780   32.5860   45.4300 C   0  0  0  0  0  0  0  0  0  0  0  0
   46.5850   33.0000   46.6450 C   0  0  0  0  0  0  0  0  0  0  0  0
   46.5180   34.0600   46.9070 H   0  0  0  0  0  0  0  0  0  0  0  0
   47.1650   32.0840   47.5100 C   0  0  0  0  0  0  0  0  0  0  0  0
   47.5630   32.3800   48.4530 H   0  0  0  0  0  0  0  0  0  0  0  0
   47.1760   30.7840   47.0400 C   0  0  0  0  0  3  0  0  0  0  0  0
   46.6790   30.3640   45.8440 C   0  0  0  0  0  3  0  0  0  0  0  0
   46.1180   31.2870   45.0220 N   0  0  0  0  0  0  0  0  0  0  0  0
   44.7750   37.1560   44.3580 C   0  0  0  0  0  3  0  0  0  0  0  0
   45.4220   38.0210   43.6060 C   0  0  0  0  0  3  0  0  0  0  0  0
   45.3930   39.4860   43.8970 C   0  0  0  0  0  0  0  0  0  0  0  0
   44.3140   39.7430   44.0800 H   0  0  0  0  0  0  0  0  0  0  0  0
   45.9330   39.7550   44.8230 H   0  0  0  0  0  0  0  0  0  0  0  0
   45.7140   40.0390   43.0040 H   0  0  0  0  0  0  0  0  0  0  0  0
  1 17  1  0  0  0  0
  1  6  1  0  0  0  0
  2  1  2  0  0  0  0
  3  2  1  0  0  0  0
  3  4  2  0  0  0  0
  4  5  1  0  0  0  0
  5  6  2  0  0  0  0
  5  9  1  0  0  0  0
  7  2  1  0  0  0  0
  8  3  1  0  0  0  0
  9 10  1  0  0  0  0
 10 11  1  0  0  0  0
 10 12  2  0  0  0  0
 12 13  1  0  0  0  0
 14 12  1  0  0  0  0
 15 14  2  0  0  0  0
 16  9  2  0  0  0  0
 16 15  1  0  0  0  0
 18 19  1  0  0  0  0
 18 17  2  0  0  0  0
 19 20  1  0  0  0  0
 19 21  1  0  0  0  0
 22 19  1  0  0  0  0
M  END
>  <minimizedAffinity>
-3.65754104

>  <minimizedRMSD>
1.56108224

$$$$
