
 OpenBabel03252507433D

 30 32  0  0  0  0  0  0  0  0999 V2000
   45.8900   34.6850   41.9470 C   0  0  0  0  0  0  0  0  0  0  0  0
   45.9090   33.9080   42.7440 H   0  0  0  0  0  0  0  0  0  0  0  0
   46.1990   35.6250   42.4780 H   0  0  0  0  0  0  0  0  0  0  0  0
   44.4730   34.7490   41.4990 C   0  0  0  0  0  0  0  0  0  0  0  0
   43.6190   35.7910   41.9930 C   0  0  0  0  0  0  0  0  0  0  0  0
   42.0160   35.3960   41.1340 S   0  0  0  0  0  0  0  0  0  0  0  0
   42.8100   33.9140   40.2830 C   0  0  0  0  0  0  0  0  0  0  0  0
   43.8780   33.9290   40.6670 N   0  0  0  0  0  0  0  0  0  0  0  0
   43.8970   36.5710   42.6840 H   0  0  0  0  0  0  0  0  0  0  0  0
   42.0370   33.0390   39.3470 C   0  0  0  0  0  0  0  0  0  0  0  0
   42.7210   32.0210   38.7160 C   0  0  0  0  0  0  0  0  0  0  0  0
   43.7680   31.9200   38.9370 H   0  0  0  0  0  0  0  0  0  0  0  0
   41.9750   31.2410   37.8650 C   0  0  0  0  0  0  0  0  0  0  0  0
   42.5370   30.4370   37.3730 H   0  0  0  0  0  0  0  0  0  0  0  0
   40.6360   31.4940   37.6840 C   0  0  0  0  0  3  0  0  0  0  0  0
   39.9940   32.5250   38.3390 C   0  0  0  0  0  3  0  0  0  0  0  0
   40.7430   33.2770   39.1670 N   0  0  0  0  0  0  0  0  0  0  0  0
   46.8670   34.2790   40.9030 C   0  0  0  0  0  0  0  0  0  0  0  0
   46.9600   35.1580   40.1970 H   0  0  0  0  0  0  0  0  0  0  0  0
   46.4830   33.4010   40.3960 H   0  0  0  0  0  0  0  0  0  0  0  0
   48.2400   34.0760   41.4160 C   0  0  0  0  0  0  0  0  0  0  0  0
   48.8700   32.8640   41.0870 C   0  0  0  0  0  0  0  0  0  0  0  0
   50.1490   32.6110   41.5320 C   0  0  0  0  0  0  0  0  0  0  0  0
   50.7630   33.5650   42.2870 N   0  0  0  0  0  0  0  0  0  0  0  0
   50.1310   34.7230   42.5870 C   0  0  0  0  0  0  0  0  0  0  0  0
   48.8910   34.9660   42.1550 N   0  0  0  0  0  0  0  0  0  0  0  0
   50.6740   31.6890   41.3030 H   0  0  0  0  0  0  0  0  0  0  0  0
   50.7010   35.4170   43.1920 H   0  0  0  0  0  0  0  0  0  0  0  0
   48.0100   31.6410   40.0870 S   0  0  0  0  0  0  0  0  0  0  0  0
   47.8510   32.0740   38.7610 H   0  0  0  0  0  0  0  0  0  0  0  0
  1  3  1  0  0  0  0
  1  2  1  0  0  0  0
  4  1  1  0  0  0  0
  4  5  2  0  0  0  0
  5  9  1  0  0  0  0
  6  5  1  0  0  0  0
  7  8  2  0  0  0  0
  7  6  1  0  0  0  0
  8  4  1  0  0  0  0
 10  7  1  0  0  0  0
 11 12  1  0  0  0  0
 11 10  2  0  0  0  0
 13 11  1  0  0  0  0
 14 13  1  0  0  0  0
 15 13  2  0  0  0  0
 15 16  1  0  0  0  0
 16 17  2  0  0  0  0
 17 10  1  0  0  0  0
 18 21  1  0  0  0  0
 18  1  1  0  0  0  0
 19 18  1  0  0  0  0
 20 18  1  0  0  0  0
 21 26  1  0  0  0  0
 22 21  2  0  0  0  0
 22 23  1  0  0  0  0
 23 24  2  0  0  0  0
 24 25  1  0  0  0  0
 25 28  1  0  0  0  0
 26 25  2  0  0  0  0
 27 23  1  0  0  0  0
 29 22  1  0  0  0  0
 30 29  1  0  0  0  0
M  END
>  <minimizedAffinity>
-4.23854589

>  <minimizedRMSD>
0.982794702

$$$$
