
 OpenBabel03252507433D

 30 32  0  0  0  0  0  0  0  0999 V2000
   45.8570   34.5720   41.9470 C   0  0  0  0  0  0  0  0  0  0  0  0
   45.8820   33.7280   42.6740 H   0  0  0  0  0  0  0  0  0  0  0  0
   46.1320   35.4690   42.5640 H   0  0  0  0  0  0  0  0  0  0  0  0
   44.4470   34.6410   41.4770 C   0  0  0  0  0  0  0  0  0  0  0  0
   43.6660   35.8140   41.7470 C   0  0  0  0  0  0  0  0  0  0  0  0
   42.0400   35.3660   40.9620 S   0  0  0  0  0  0  0  0  0  0  0  0
   42.7300   33.6960   40.4280 C   0  0  0  0  0  0  0  0  0  0  0  0
   43.7970   33.7140   40.8150 N   0  0  0  0  0  0  0  0  0  0  0  0
   43.9970   36.6940   42.2740 H   0  0  0  0  0  0  0  0  0  0  0  0
   41.8980   32.7070   39.6730 C   0  0  0  0  0  0  0  0  0  0  0  0
   41.8760   31.4080   40.1360 C   0  0  0  0  0  0  0  0  0  0  0  0
   42.4590   31.1880   41.0110 H   0  0  0  0  0  0  0  0  0  0  0  0
   41.1010   30.5320   39.4140 C   0  0  0  0  0  0  0  0  0  0  0  0
   41.0970   29.5050   39.7980 H   0  0  0  0  0  0  0  0  0  0  0  0
   40.4090   30.9650   38.3080 C   0  0  0  0  0  3  0  0  0  0  0  0
   40.4620   32.2770   37.8820 C   0  0  0  0  0  3  0  0  0  0  0  0
   41.2270   33.1180   38.6030 N   0  0  0  0  0  0  0  0  0  0  0  0
   46.8620   34.2820   40.8910 C   0  0  0  0  0  0  0  0  0  0  0  0
   46.9370   35.2170   40.2590 H   0  0  0  0  0  0  0  0  0  0  0  0
   46.5160   33.4350   40.3090 H   0  0  0  0  0  0  0  0  0  0  0  0
   48.2340   34.0820   41.4110 C   0  0  0  0  0  0  0  0  0  0  0  0
   48.8680   32.8710   41.0890 C   0  0  0  0  0  0  0  0  0  0  0  0
   50.1440   32.6220   41.5400 C   0  0  0  0  0  0  0  0  0  0  0  0
   50.7540   33.5790   42.2950 N   0  0  0  0  0  0  0  0  0  0  0  0
   50.1180   34.7360   42.5890 C   0  0  0  0  0  0  0  0  0  0  0  0
   48.8800   34.9760   42.1500 N   0  0  0  0  0  0  0  0  0  0  0  0
   50.6720   31.6990   41.3150 H   0  0  0  0  0  0  0  0  0  0  0  0
   50.6840   35.4330   43.1940 H   0  0  0  0  0  0  0  0  0  0  0  0
   48.0140   31.6430   40.0880 S   0  0  0  0  0  0  0  0  0  0  0  0
   47.8610   32.0720   38.7600 H   0  0  0  0  0  0  0  0  0  0  0  0
  1  3  1  0  0  0  0
  1  2  1  0  0  0  0
  4  5  2  0  0  0  0
  4  1  1  0  0  0  0
  5  9  1  0  0  0  0
  6  5  1  0  0  0  0
  7  8  2  0  0  0  0
  7  6  1  0  0  0  0
  8  4  1  0  0  0  0
 10 11  1  0  0  0  0
 10  7  1  0  0  0  0
 11 12  1  0  0  0  0
 13 14  1  0  0  0  0
 13 11  2  0  0  0  0
 15 13  1  0  0  0  0
 16 15  2  0  0  0  0
 16 17  1  0  0  0  0
 17 10  2  0  0  0  0
 18 21  1  0  0  0  0
 18  1  1  0  0  0  0
 19 18  1  0  0  0  0
 20 18  1  0  0  0  0
 21 26  1  0  0  0  0
 22 21  2  0  0  0  0
 22 23  1  0  0  0  0
 23 24  2  0  0  0  0
 24 25  1  0  0  0  0
 25 28  1  0  0  0  0
 26 25  2  0  0  0  0
 27 23  1  0  0  0  0
 29 22  1  0  0  0  0
 30 29  1  0  0  0  0
M  END
>  <minimizedAffinity>
-4.13215733

>  <minimizedRMSD>
1.32379067

$$$$
