
 OpenBabel03252506183D

 22 23  0  0  0  0  0  0  0  0999 V2000
   45.0540   34.8140   44.4490 C   0  0  0  0  0  0  0  0  0  0  0  0
   44.9680   34.0690   43.2580 C   0  0  0  0  0  0  0  0  0  0  0  0
   45.2660   32.7030   43.3050 C   0  0  0  0  0  0  0  0  0  0  0  0
   45.6270   32.1700   44.5100 N   0  0  0  0  0  0  0  0  0  0  0  0
   45.7010   32.9150   45.6370 C   0  0  0  0  0  0  0  0  0  0  0  0
   45.4130   34.2300   45.5910 N   0  0  0  0  0  0  0  0  0  0  0  0
   44.6810   34.4910   42.3000 H   0  0  0  0  0  0  0  0  0  0  0  0
   45.2310   32.0540   42.4600 H   0  0  0  0  0  0  0  0  0  0  0  0
   46.0930   32.2760   46.8840 C   0  0  0  0  0  0  0  0  0  0  0  0
   45.2690   32.3470   47.9880 C   0  0  0  0  0  0  0  0  0  0  0  0
   44.3230   32.8910   47.9030 H   0  0  0  0  0  0  0  0  0  0  0  0
   45.6390   31.7400   49.1800 C   0  0  0  0  0  0  0  0  0  0  0  0
   45.0200   31.7810   50.0450 H   0  0  0  0  0  0  0  0  0  0  0  0
   46.8590   31.0910   49.1330 C   0  0  0  0  0  0  0  0  0  0  0  0
   47.6790   31.0130   48.0500 C   0  0  0  0  0  0  0  0  0  0  0  0
   47.2870   31.6200   46.9000 N   0  0  0  0  0  0  0  0  0  0  0  0
   44.7410   36.2390   44.3960 C   0  0  0  0  0  0  0  0  0  0  0  0
   45.3570   36.9870   43.5050 C   0  0  0  0  0  0  0  0  0  0  0  0
   45.0880   38.4520   43.3930 C   0  0  0  0  0  0  0  0  0  0  0  0
   43.9690   38.5610   43.4000 H   0  0  0  0  0  0  0  0  0  0  0  0
   45.4570   39.0290   44.2600 H   0  0  0  0  0  0  0  0  0  0  0  0
   45.4450   38.8130   42.4190 H   0  0  0  0  0  0  0  0  0  0  0  0
  1  6  1  0  0  0  0
  2  3  1  0  0  0  0
  2  1  2  0  0  0  0
  3  4  2  0  0  0  0
  4  5  1  0  0  0  0
  5  9  1  0  0  0  0
  6  5  2  0  0  0  0
  7  2  1  0  0  0  0
  8  3  1  0  0  0  0
  9 16  2  0  0  0  0
  9 10  1  0  0  0  0
 10 12  2  0  0  0  0
 11 10  1  0  0  0  0
 12 13  1  0  0  0  0
 14 12  1  0  0  0  0
 15 14  2  0  0  0  0
 16 15  1  0  0  0  0
 17  1  1  0  0  0  0
 18 17  2  0  0  0  0
 19 20  1  0  0  0  0
 19 18  1  0  0  0  0
 19 21  1  0  0  0  0
 22 19  1  0  0  0  0
M  END
>  <minimizedAffinity>
-4.11813068

>  <minimizedRMSD>
2.59520626

$$$$
