
     RDKit          3D

 35 38  0  0  0  0  0  0  0  0999 V2000
   46.0152   31.6835   45.1295 C   0  0  0  0  0  0  0  0  0  0  0  0
   45.7846   33.0006   45.5248 C   0  0  0  0  0  0  0  0  0  0  0  0
   45.5245   33.2952   46.8595 C   0  0  0  0  0  0  0  0  0  0  0  0
   45.5042   32.2530   47.7609 C   0  0  0  0  0  0  0  0  0  0  0  0
   45.2923   32.2017   49.0810 N   0  0  0  0  0  0  0  0  0  0  0  0
   45.3701   30.9555   49.5541 C   0  0  0  0  0  0  0  0  0  0  0  0
   45.6480   30.1254   48.5032 C   0  0  0  0  0  0  0  0  0  0  0  0
   45.7326   30.9337   47.3807 C   0  0  0  0  0  0  0  0  0  0  0  0
   45.9901   30.6599   46.0449 C   0  0  0  0  0  0  0  0  0  0  0  0
   46.8932   34.9303   42.6314 C   0  0  0  0  0  0  0  0  0  0  0  0
   45.9765   35.9613   42.5433 C   0  0  0  0  0  0  0  0  0  0  0  0
   44.9628   35.9944   43.4909 C   0  0  0  0  0  0  0  0  0  0  0  0
   44.9170   35.0296   44.4457 N   0  0  0  0  0  0  0  0  0  0  0  0
   45.8307   34.0426   44.4950 C   0  0  0  0  0  0  0  0  0  0  0  0
   46.8240   33.9843   43.5910 N   0  0  0  0  0  0  0  0  0  0  0  0
   47.9461   34.9224   41.6253 C   0  0  0  0  0  0  0  0  0  0  0  0
   48.8311   35.8485   41.5138 O   0  0  0  0  0  0  0  0  0  0  0  0
   46.2146   31.4960   44.0773 H   0  0  0  0  0  0  0  0  0  0  0  0
   45.3466   34.3089   47.1639 H   0  0  0  0  0  0  0  0  0  0  0  0
   45.0906   33.0644   49.6480 H   0  0  0  0  0  0  0  0  0  0  0  0
   45.2495   30.5916   50.5582 H   0  0  0  0  0  0  0  0  0  0  0  0
   45.7961   29.0407   48.4283 H   0  0  0  0  0  0  0  0  0  0  0  0
   46.1753   29.6570   45.6856 H   0  0  0  0  0  0  0  0  0  0  0  0
   45.9526   36.7503   41.8216 H   0  0  0  0  0  0  0  0  0  0  0  0
   44.2094   36.7743   43.4822 H   0  0  0  0  0  0  0  0  0  0  0  0
   48.0557   33.8286   40.6602 C   0  0  0  0  0  0  0  0  0  0  0  0
   47.9691   34.0661   39.3225 C   0  0  0  0  0  0  0  0  0  0  0  0
   47.8192   35.0618   38.9647 H   0  0  0  0  0  0  0  0  0  0  0  0
   48.0748   33.0211   38.4250 C   0  0  0  0  0  0  0  0  0  0  0  0
   48.0058   33.2097   37.3535 H   0  0  0  0  0  0  0  0  0  0  0  0
   48.2692   31.7174   38.8419 C   0  0  0  0  0  0  0  0  0  0  0  0
   48.3448   31.5687   40.2070 C   0  0  0  0  0  0  0  0  0  0  0  0
   48.2473   32.5609   41.1318 N   0  0  0  0  0  0  0  0  0  0  0  0
   48.3569   30.8758   38.1839 H   0  0  0  0  0  0  0  0  0  0  0  0
   48.4966   30.5815   40.6392 H   0  0  0  0  0  0  0  0  0  0  0  0
  1  2  2  0
  1  9  1  0
  2  3  1  0
  3  4  2  0
  4  5  1  0
  5  6  1  0
  7  6  2  0
  8  4  1  0
  8  7  1  0
  9  8  2  0
 10 15  1  0
 11 10  2  0
 11 12  1  0
 12 13  2  0
 13 14  1  0
 14  2  1  0
 15 14  2  0
 16 10  1  0
 17 16  2  0
  1 18  1  0
  3 19  1  0
  5 20  1  0
  6 21  1  0
  7 22  1  0
  9 23  1  0
 11 24  1  0
 12 25  1  0
 26 27  2  0
 27 28  1  0
 27 29  1  0
 29 30  1  0
 29 31  2  0
 31 32  1  0
 32 33  2  0
 33 26  1  0
 31 34  1  0
 32 35  1  0
 16 26  1  0
M  ISO  8  18  14  19  14  20   9  21  14  22  14  23  14  24  14  25  14
M  ISO  2  28  15  30  16
M  END
>  <DihAtoms>  (1) 
9,15,25,26

>  <DihDeg>  (1) 
-179.99694094158733

$$$$
