
 OpenBabel03252503583D

 33 36  0  0  1  0  0  0  0  0999 V2000
   46.8320   34.9340   42.6390 C   0  0  0  0  0  0  0  0  0  0  0  0
   45.9370   35.9850   42.5860 C   0  0  0  0  0  0  0  0  0  0  0  0
   44.9520   36.0320   43.5630 C   0  0  0  0  0  0  0  0  0  0  0  0
   44.9130   35.0620   44.5120 N   0  0  0  0  0  0  0  0  0  0  0  0
   45.8060   34.0550   44.5270 C   0  0  0  0  0  0  0  0  0  0  0  0
   46.7710   33.9820   43.5930 N   0  0  0  0  0  0  0  0  0  0  0  0
   45.9090   36.7800   41.8720 H   0  0  0  0  0  0  0  0  0  0  0  0
   44.2160   36.8290   43.5830 H   0  0  0  0  0  0  0  0  0  0  0  0
   46.0360   31.6960   45.1510 C   0  0  0  0  0  0  0  0  0  0  0  0
   45.7680   33.0060   45.5500 C   0  0  0  0  0  0  0  0  0  0  0  0
   45.4780   33.2850   46.8810 C   0  0  0  0  0  0  0  0  0  0  0  0
   45.4670   32.2370   47.7760 C   0  0  0  0  0  0  0  0  0  0  0  0
   45.2340   32.1730   49.0920 N   0  0  0  0  0  0  0  0  0  0  0  0
   45.3340   30.9260   49.5590 C   0  0  0  0  0  0  0  0  0  0  0  0
   45.6500   30.1090   48.5080 C   0  0  0  0  0  0  0  0  0  0  0  0
   45.7340   30.9260   47.3920 C   0  0  0  0  0  0  0  0  0  0  0  0
   46.0210   30.6670   46.0590 C   0  0  0  0  0  0  0  0  0  0  0  0
   46.2590   31.5200   44.1010 H   0  0  0  0  0  0  0  0  0  0  0  0
   45.2710   34.2930   47.1880 H   0  0  0  0  0  0  0  0  0  0  0  0
   45.0020   33.0260   49.6600 H   0  0  0  0  0  0  0  0  0  0  0  0
   45.2040   30.5530   50.5590 H   0  0  0  0  0  0  0  0  0  0  0  0
   45.8250   29.0290   48.4290 H   0  0  0  0  0  0  0  0  0  0  0  0
   46.2360   29.6710   45.6980 H   0  0  0  0  0  0  0  0  0  0  0  0
   47.8550   34.9110   41.6020 C   0  0  2  0  0  0  0  0  0  0  0  0
   49.0530   35.3470   41.7740 O   0  0  0  0  0  0  0  0  0  0  0  0
   47.5650   34.3770   40.2720 C   0  0  0  0  0  0  0  0  0  0  0  0
   48.3770   34.6550   39.2150 C   0  0  0  0  0  0  0  0  0  0  0  0
   49.2400   35.2700   39.3510 H   0  0  0  0  0  0  0  0  0  0  0  0
   48.0880   34.1420   37.9650 C   0  0  0  0  0  0  0  0  0  0  0  0
   48.7380   34.3630   37.1180 H   0  0  0  0  0  0  0  0  0  0  0  0
   46.9830   33.3410   37.7420 C   0  0  0  0  0  0  0  0  0  0  0  0
   46.2190   33.1130   38.8630 C   0  0  0  0  0  0  0  0  0  0  0  0
   46.4590   33.5920   40.1120 N   0  0  0  0  0  0  0  0  0  0  0  0
  1  6  1  0  0  0  0
  2  1  2  0  0  0  0
  2  3  1  0  0  0  0
  3  8  1  0  0  0  0
  3  4  2  0  0  0  0
  4  5  1  0  0  0  0
  5 10  1  0  0  0  0
  6  5  2  0  0  0  0
  7  2  1  0  0  0  0
  9 10  2  0  0  0  0
  9 17  1  0  0  0  0
 10 11  1  0  0  0  0
 11 19  1  0  0  0  0
 11 12  2  0  0  0  0
 12 13  1  0  0  0  0
 13 14  1  0  0  0  0
 13 20  1  0  0  0  0
 14 21  1  0  0  0  0
 15 14  2  0  0  0  0
 16 12  1  0  0  0  0
 16 15  1  0  0  0  0
 17 16  2  0  0  0  0
 18  9  1  0  0  0  0
 22 15  1  0  0  0  0
 23 17  1  0  0  0  0
 24 25  1  6  0  0  0
 24  1  1  0  0  0  0
 26 24  1  0  0  0  0
 27 28  1  0  0  0  0
 27 26  2  0  0  0  0
 29 27  1  0  0  0  0
 30 29  1  0  0  0  0
 31 29  2  0  0  0  0
 31 32  1  0  0  0  0
 32 33  2  0  0  0  0
 33 26  1  0  0  0  0
M  END
>  <minimizedAffinity>
-6.33306265

>  <minimizedRMSD>
0.894877553

$$$$
