
 OpenBabel03252507593D

 28 30  0  0  1  0  0  0  0  0999 V2000
   46.2840   34.7700   43.2320 C   0  0  0  0  0  0  0  0  0  0  0  0
   45.3430   35.8050   43.5100 C   0  0  0  0  0  0  0  0  0  0  0  0
   44.6410   35.6860   44.7080 C   0  0  0  0  0  0  0  0  0  0  0  0
   44.8880   34.6250   45.5130 N   0  0  0  0  0  0  0  0  0  0  0  0
   45.8120   33.6630   45.1780 C   0  0  0  0  0  0  0  0  0  0  0  0
   46.5060   33.7220   44.0580 N   0  0  0  0  0  0  0  0  0  0  0  0
   45.2110   36.6170   42.8090 H   0  0  0  0  0  0  0  0  0  0  0  0
   43.9180   36.4440   44.9640 H   0  0  0  0  0  0  0  0  0  0  0  0
   46.0390   32.5350   46.1290 C   0  0  1  0  0  0  0  0  0  0  0  0
   46.8250   32.7920   47.3950 C   0  0  0  0  0  0  0  0  0  0  0  0
   45.3260   32.6630   47.4160 C   0  0  1  0  0  0  0  0  0  0  0  0
   46.1300   31.5310   45.6760 H   0  0  0  0  0  0  0  0  0  0  0  0
   47.3290   33.7500   47.5290 H   0  0  0  0  0  0  0  0  0  0  0  0
   47.3430   31.9060   47.8110 H   0  0  0  0  0  0  0  0  0  0  0  0
   44.8610   31.8020   47.9170 H   0  0  0  0  0  0  0  0  0  0  0  0
   44.6910   33.9430   47.7620 N   0  0  0  0  0  0  0  0  0  0  0  0
   45.1840   34.3540   48.5730 H   0  0  0  0  0  0  0  0  0  0  0  0
   43.6610   33.8300   47.8790 H   0  0  0  0  0  0  0  0  0  0  0  0
   47.0110   34.9220   41.9870 C   0  0  0  0  0  0  0  0  0  0  0  0
   48.0640   35.6450   41.8780 O   0  0  0  0  0  0  0  0  0  0  0  0
   46.5560   34.2410   40.7750 C   0  0  0  0  0  0  0  0  0  0  0  0
   45.2250   33.9090   40.6290 C   0  0  0  0  0  0  0  0  0  0  0  0
   44.5020   34.1490   41.4090 H   0  0  0  0  0  0  0  0  0  0  0  0
   44.7000   33.2690   39.5300 C   0  0  0  0  0  0  0  0  0  0  0  0
   43.6550   33.0190   39.4380 H   0  0  0  0  0  0  0  0  0  0  0  0
   45.6200   32.9600   38.5280 C   0  0  0  0  0  3  0  0  0  0  0  0
   46.9460   33.3020   38.6970 C   0  0  0  0  0  3  0  0  0  0  0  0
   47.4210   33.9330   39.7970 N   0  0  0  0  0  0  0  0  0  0  0  0
  1  2  2  0  0  0  0
  1  6  1  0  0  0  0
  2  3  1  0  0  0  0
  3  8  1  0  0  0  0
  3  4  2  0  0  0  0
  5  4  1  0  0  0  0
  5  9  1  0  0  0  0
  6  5  2  0  0  0  0
  7  2  1  0  0  0  0
  9 12  1  6  0  0  0
  9 10  1  0  0  0  0
  9 11  1  0  0  0  0
 10 11  1  0  0  0  0
 10 13  1  0  0  0  0
 10 14  1  0  0  0  0
 11 16  1  0  0  0  0
 11 15  1  1  0  0  0
 16 18  1  0  0  0  0
 16 17  1  0  0  0  0
 19  1  1  0  0  0  0
 20 19  2  0  0  0  0
 21 19  1  0  0  0  0
 22 21  1  0  0  0  0
 22 23  1  0  0  0  0
 24 22  2  0  0  0  0
 25 24  1  0  0  0  0
 26 27  2  0  0  0  0
 26 24  1  0  0  0  0
 27 28  1  0  0  0  0
 28 21  2  0  0  0  0
M  END
>  <minimizedAffinity>
-5.55617666

>  <minimizedRMSD>
0.494892776

$$$$
