
 OpenBabel03242522523D

 25 26  0  0  0  0  0  0  0  0999 V2000
   35.5150   29.5170   39.4540 O   0  0  0  0  0  0  0  0  0  0  0  0
   36.3100   29.8040   40.7560 P   0  0  2  0  0  0  0  0  0  0  0  0
   35.5660   31.1560   41.4300 O   0  0  0  0  0  0  0  0  0  0  0  0
   34.5960   31.2140   41.1710 H   0  0  0  0  0  0  0  0  0  0  0  0
   37.8970   30.1680   40.3160 O   0  0  0  0  0  0  0  0  0  0  0  0
   40.1640   33.0040   40.5250 C   0  0  0  0  0  0  0  0  0  0  0  0
   39.6640   31.6860   40.5590 C   0  0  0  0  0  0  0  0  0  0  0  0
   38.3380   31.4740   40.2670 C   0  0  0  0  0  0  0  0  0  0  0  0
   37.5630   32.5460   39.9580 N   0  0  0  0  0  0  0  0  0  0  0  0
   38.0520   33.7930   39.9300 C   0  0  0  0  0  0  0  0  0  0  0  0
   39.3420   34.0310   40.2100 N   0  0  0  0  0  0  0  0  0  0  0  0
   41.1840   33.2780   40.7360 H   0  0  0  0  0  0  0  0  0  0  0  0
   40.4340   31.0020   40.8180 H   0  0  0  0  0  0  0  0  0  0  0  0
   37.3330   34.5750   39.6670 H   0  0  0  0  0  0  0  0  0  0  0  0
   36.2210   28.4750   41.7340 O   0  0  0  0  0  0  0  0  0  0  0  0
   37.0980   27.8700   42.5590 C   0  0  0  0  0  0  0  0  0  0  0  0
   37.2720   28.5550   43.6800 O   0  0  0  0  0  0  0  0  0  0  0  0
   38.0070   26.6690   42.7230 C   0  0  0  0  0  0  0  0  0  0  0  0
   39.0900   26.8230   43.5160 C   0  0  0  0  0  0  0  0  0  0  0  0
   39.4330   27.6650   44.0830 H   0  0  0  0  0  0  0  0  0  0  0  0
   39.9510   25.7230   43.6600 C   0  0  0  0  0  0  0  0  0  0  0  0
   40.8290   25.7680   44.2720 H   0  0  0  0  0  0  0  0  0  0  0  0
   39.6970   24.5480   43.0210 C   0  0  0  0  0  3  0  0  0  0  0  0
   38.5820   24.4630   42.2350 C   0  0  0  0  0  3  0  0  0  0  0  0
   37.7970   25.4940   42.1130 N   0  0  0  0  0  0  0  0  0  0  0  0
  2  1  2  6  0  0  0
  2  3  1  0  0  0  0
  2 15  1  0  0  0  0
  4  3  1  0  0  0  0
  5  2  1  0  0  0  0
  6  7  1  0  0  0  0
  6 12  1  0  0  0  0
  7 13  1  0  0  0  0
  8  5  1  0  0  0  0
  8  7  2  0  0  0  0
  9  8  1  0  0  0  0
 10  9  2  0  0  0  0
 10 11  1  0  0  0  0
 11  6  2  0  0  0  0
 14 10  1  0  0  0  0
 15 16  1  0  0  0  0
 16 18  1  0  0  0  0
 16 17  2  0  0  0  0
 18 19  1  0  0  0  0
 19 21  2  0  0  0  0
 19 20  1  0  0  0  0
 21 22  1  0  0  0  0
 23 21  1  0  0  0  0
 24 23  2  0  0  0  0
 25 24  1  0  0  0  0
 25 18  2  0  0  0  0
M  END
>  <minimizedAffinity>
-5.33450413

$$$$

 OpenBabel03242522523D

 25 26  0  0  0  0  0  0  0  0999 V2000
   35.7960   28.7530   40.3730 O   0  0  0  0  0  0  0  0  0  0  0  0
   36.6720   29.9190   40.9050 P   0  0  2  0  0  0  0  0  0  0  0  0
   35.5760   31.1090   41.3710 O   0  0  0  0  0  0  0  0  0  0  0  0
   34.6910   30.7130   41.6420 H   0  0  0  0  0  0  0  0  0  0  0  0
   37.6220   30.4690   39.6250 O   0  0  0  0  0  0  0  0  0  0  0  0
   40.2580   32.9020   39.0290 C   0  0  0  0  0  0  0  0  0  0  0  0
   39.4790   31.7290   38.9560 C   0  0  0  0  0  0  0  0  0  0  0  0
   38.3470   31.6370   39.7290 C   0  0  0  0  0  0  0  0  0  0  0  0
   38.0250   32.6840   40.5330 N   0  0  0  0  0  0  0  0  0  0  0  0
   38.7740   33.7930   40.5920 C   0  0  0  0  0  0  0  0  0  0  0  0
   39.8850   33.9110   39.8490 N   0  0  0  0  0  0  0  0  0  0  0  0
   41.1600   33.0750   38.4670 H   0  0  0  0  0  0  0  0  0  0  0  0
   39.9050   31.0410   38.2680 H   0  0  0  0  0  0  0  0  0  0  0  0
   38.4150   34.5690   41.2750 H   0  0  0  0  0  0  0  0  0  0  0  0
   37.5830   29.3630   42.1670 O   0  0  0  0  0  0  0  0  0  0  0  0
   38.1500   28.1730   42.4480 C   0  0  0  0  0  0  0  0  0  0  0  0
   39.1050   28.2870   43.3580 O   0  0  0  0  0  0  0  0  0  0  0  0
   38.1330   26.6940   42.1220 C   0  0  0  0  0  0  0  0  0  0  0  0
   36.9890   26.0220   42.3780 C   0  0  0  0  0  0  0  0  0  0  0  0
   36.0500   26.3550   42.7720 H   0  0  0  0  0  0  0  0  0  0  0  0
   36.9680   24.6460   42.0980 C   0  0  0  0  0  0  0  0  0  0  0  0
   36.0980   24.0460   42.2750 H   0  0  0  0  0  0  0  0  0  0  0  0
   38.0640   24.0190   41.5880 C   0  0  0  0  0  3  0  0  0  0  0  0
   39.1870   24.7610   41.3540 C   0  0  0  0  0  3  0  0  0  0  0  0
   39.1870   26.0360   41.6210 N   0  0  0  0  0  0  0  0  0  0  0  0
  2  1  2  6  0  0  0
  2  3  1  0  0  0  0
  2 15  1  0  0  0  0
  3  4  1  0  0  0  0
  5  8  1  0  0  0  0
  5  2  1  0  0  0  0
  6 11  1  0  0  0  0
  7  6  2  0  0  0  0
  7  8  1  0  0  0  0
  8  9  2  0  0  0  0
  9 10  1  0  0  0  0
 10 14  1  0  0  0  0
 11 10  2  0  0  0  0
 12  6  1  0  0  0  0
 13  7  1  0  0  0  0
 15 16  1  0  0  0  0
 16 17  2  0  0  0  0
 18 19  1  0  0  0  0
 18 16  1  0  0  0  0
 19 20  1  0  0  0  0
 21 22  1  0  0  0  0
 21 19  2  0  0  0  0
 23 21  1  0  0  0  0
 24 23  2  0  0  0  0
 24 25  1  0  0  0  0
 25 18  2  0  0  0  0
M  END
>  <minimizedAffinity>
-5.10862494

$$$$

 OpenBabel03242522523D

 25 26  0  0  0  0  0  0  0  0999 V2000
   37.3230   32.2570   38.1210 O   0  0  0  0  0  0  0  0  0  0  0  0
   37.3990   32.0750   39.6600 P   0  0  2  0  0  0  0  0  0  0  0  0
   37.2950   33.6340   40.2880 O   0  0  0  0  0  0  0  0  0  0  0  0
   36.7840   34.2480   39.6760 H   0  0  0  0  0  0  0  0  0  0  0  0
   38.9010   31.3990   40.0210 O   0  0  0  0  0  0  0  0  0  0  0  0
   42.0520   32.4650   41.4900 C   0  0  0  0  0  0  0  0  0  0  0  0
   40.9200   31.6870   41.1720 C   0  0  0  0  0  0  0  0  0  0  0  0
   39.9910   32.1970   40.2980 C   0  0  0  0  0  0  0  0  0  0  0  0
   40.2040   33.4320   39.7740 N   0  0  0  0  0  0  0  0  0  0  0  0
   41.2840   34.1610   40.0850 C   0  0  0  0  0  0  0  0  0  0  0  0
   42.2090   33.6890   40.9360 N   0  0  0  0  0  0  0  0  0  0  0  0
   42.8370   32.1600   42.1610 H   0  0  0  0  0  0  0  0  0  0  0  0
   40.9520   30.7570   41.6850 H   0  0  0  0  0  0  0  0  0  0  0  0
   41.3470   35.1410   39.6020 H   0  0  0  0  0  0  0  0  0  0  0  0
   36.1460   31.1110   40.1410 O   0  0  0  0  0  0  0  0  0  0  0  0
   36.0800   29.8830   40.6910 C   0  0  0  0  0  0  0  0  0  0  0  0
   34.9400   29.2730   40.3980 O   0  0  0  0  0  0  0  0  0  0  0  0
   36.8180   28.8770   41.5520 C   0  0  0  0  0  0  0  0  0  0  0  0
   37.5030   29.3610   42.6100 C   0  0  0  0  0  0  0  0  0  0  0  0
   37.6160   30.3610   42.9770 H   0  0  0  0  0  0  0  0  0  0  0  0
   38.2070   28.4410   43.4040 C   0  0  0  0  0  0  0  0  0  0  0  0
   38.7730   28.7490   44.2600 H   0  0  0  0  0  0  0  0  0  0  0  0
   38.1940   27.1110   43.1110 C   0  0  0  0  0  3  0  0  0  0  0  0
   37.4790   26.6920   42.0240 C   0  0  0  0  0  3  0  0  0  0  0  0
   36.8340   27.5610   41.3000 N   0  0  0  0  0  0  0  0  0  0  0  0
  2  1  2  6  0  0  0
  2  5  1  0  0  0  0
  2 15  1  0  0  0  0
  2  3  1  0  0  0  0
  4  3  1  0  0  0  0
  5  8  1  0  0  0  0
  6 12  1  0  0  0  0
  7  6  1  0  0  0  0
  7 13  1  0  0  0  0
  8  7  2  0  0  0  0
  9 10  2  0  0  0  0
  9  8  1  0  0  0  0
 10 11  1  0  0  0  0
 11  6  2  0  0  0  0
 14 10  1  0  0  0  0
 15 16  1  0  0  0  0
 16 18  1  0  0  0  0
 17 16  2  0  0  0  0
 18 19  1  0  0  0  0
 19 20  1  0  0  0  0
 19 21  2  0  0  0  0
 21 22  1  0  0  0  0
 23 21  1  0  0  0  0
 24 23  2  0  0  0  0
 25 18  2  0  0  0  0
 25 24  1  0  0  0  0
M  END
>  <minimizedAffinity>
-4.82067823

$$$$

 OpenBabel03242522523D

 25 26  0  0  0  0  0  0  0  0999 V2000
   36.8910   29.5960   39.6750 O   0  0  0  0  0  0  0  0  0  0  0  0
   36.8260   29.9410   41.1870 P   0  0  2  0  0  0  0  0  0  0  0  0
   35.6310   31.1200   41.3140 O   0  0  0  0  0  0  0  0  0  0  0  0
   34.9460   31.0340   40.5810 H   0  0  0  0  0  0  0  0  0  0  0  0
   38.3240   30.5780   41.6310 O   0  0  0  0  0  0  0  0  0  0  0  0
   39.3260   33.7020   40.0620 C   0  0  0  0  0  0  0  0  0  0  0  0
   38.6640   32.7740   40.8920 C   0  0  0  0  0  0  0  0  0  0  0  0
   39.0010   31.4450   40.8000 C   0  0  0  0  0  0  0  0  0  0  0  0
   39.9600   31.0810   39.9100 N   0  0  0  0  0  0  0  0  0  0  0  0
   40.5810   31.9730   39.1270 C   0  0  0  0  0  0  0  0  0  0  0  0
   40.2730   33.2770   39.1950 N   0  0  0  0  0  0  0  0  0  0  0  0
   39.1370   34.7620   40.0560 H   0  0  0  0  0  0  0  0  0  0  0  0
   37.9570   33.2670   41.5130 H   0  0  0  0  0  0  0  0  0  0  0  0
   41.3360   31.5610   38.4500 H   0  0  0  0  0  0  0  0  0  0  0  0
   36.4570   28.5670   42.0270 O   0  0  0  0  0  0  0  0  0  0  0  0
   37.0080   27.3390   42.0850 C   0  0  0  0  0  0  0  0  0  0  0  0
   37.6060   27.1210   43.2470 O   0  0  0  0  0  0  0  0  0  0  0  0
   37.2310   26.0520   41.3170 C   0  0  0  0  0  0  0  0  0  0  0  0
   37.1940   24.9010   42.0240 C   0  0  0  0  0  0  0  0  0  0  0  0
   37.0180   24.7200   43.0640 H   0  0  0  0  0  0  0  0  0  0  0  0
   37.4190   23.7030   41.3250 C   0  0  0  0  0  0  0  0  0  0  0  0
   37.4060   22.7510   41.8170 H   0  0  0  0  0  0  0  0  0  0  0  0
   37.6640   23.7090   39.9860 C   0  0  0  0  0  3  0  0  0  0  0  0
   37.6860   24.9100   39.3350 C   0  0  0  0  0  3  0  0  0  0  0  0
   37.4770   26.0100   40.0000 N   0  0  0  0  0  0  0  0  0  0  0  0
  2  1  2  6  0  0  0
  2  3  1  0  0  0  0
  2  5  1  0  0  0  0
  2 15  1  0  0  0  0
  4  3  1  0  0  0  0
  6  7  1  0  0  0  0
  7 13  1  0  0  0  0
  8  7  2  0  0  0  0
  8  5  1  0  0  0  0
  9  8  1  0  0  0  0
 10 11  1  0  0  0  0
 10  9  2  0  0  0  0
 11  6  2  0  0  0  0
 12  6  1  0  0  0  0
 14 10  1  0  0  0  0
 15 16  1  0  0  0  0
 16 17  2  0  0  0  0
 18 19  1  0  0  0  0
 18 16  1  0  0  0  0
 19 20  1  0  0  0  0
 21 22  1  0  0  0  0
 21 19  2  0  0  0  0
 23 21  1  0  0  0  0
 24 23  2  0  0  0  0
 24 25  1  0  0  0  0
 25 18  2  0  0  0  0
M  END
>  <minimizedAffinity>
-4.76452255

$$$$

 OpenBabel03242522523D

 25 26  0  0  0  0  0  0  0  0999 V2000
   37.9180   31.3330   39.0150 O   0  0  0  0  0  0  0  0  0  0  0  0
   37.4330   31.9530   40.3530 P   0  0  2  0  0  0  0  0  0  0  0  0
   36.7980   33.4540   39.9310 O   0  0  0  0  0  0  0  0  0  0  0  0
   36.4510   33.4590   38.9860 H   0  0  0  0  0  0  0  0  0  0  0  0
   38.7830   32.1480   41.3450 O   0  0  0  0  0  0  0  0  0  0  0  0
   40.3440   29.1210   42.6190 C   0  0  0  0  0  0  0  0  0  0  0  0
   39.4270   30.1760   42.4300 C   0  0  0  0  0  0  0  0  0  0  0  0
   39.7090   31.1370   41.4900 C   0  0  0  0  0  0  0  0  0  0  0  0
   40.8630   31.0310   40.7810 N   0  0  0  0  0  0  0  0  0  0  0  0
   41.7250   30.0240   40.9710 C   0  0  0  0  0  0  0  0  0  0  0  0
   41.4770   29.0700   41.8820 N   0  0  0  0  0  0  0  0  0  0  0  0
   40.2190   28.3190   43.3270 H   0  0  0  0  0  0  0  0  0  0  0  0
   38.5950   30.0660   43.0800 H   0  0  0  0  0  0  0  0  0  0  0  0
   42.6200   30.0440   40.3410 H   0  0  0  0  0  0  0  0  0  0  0  0
   36.3040   30.9500   41.0220 O   0  0  0  0  0  0  0  0  0  0  0  0
   35.9900   29.6520   40.8370 C   0  0  0  0  0  0  0  0  0  0  0  0
   34.9010   29.5100   40.0960 O   0  0  0  0  0  0  0  0  0  0  0  0
   36.4010   28.2290   41.1540 C   0  0  0  0  0  0  0  0  0  0  0  0
   36.5880   27.9190   42.4560 C   0  0  0  0  0  0  0  0  0  0  0  0
   36.4830   28.5120   43.3420 H   0  0  0  0  0  0  0  0  0  0  0  0
   36.9880   26.6080   42.7600 C   0  0  0  0  0  0  0  0  0  0  0  0
   37.1550   26.2880   43.7690 H   0  0  0  0  0  0  0  0  0  0  0  0
   37.1780   25.6880   41.7750 C   0  0  0  0  0  3  0  0  0  0  0  0
   36.9710   26.0700   40.4790 C   0  0  0  0  0  3  0  0  0  0  0  0
   36.6010   27.2910   40.2170 N   0  0  0  0  0  0  0  0  0  0  0  0
  2  1  2  6  0  0  0
  2 15  1  0  0  0  0
  2  5  1  0  0  0  0
  3  2  1  0  0  0  0
  4  3  1  0  0  0  0
  5  8  1  0  0  0  0
  6 12  1  0  0  0  0
  7  6  1  0  0  0  0
  7 13  1  0  0  0  0
  8  7  2  0  0  0  0
  9 10  2  0  0  0  0
  9  8  1  0  0  0  0
 10 11  1  0  0  0  0
 11  6  2  0  0  0  0
 14 10  1  0  0  0  0
 16 15  1  0  0  0  0
 16 18  1  0  0  0  0
 17 16  2  0  0  0  0
 18 19  1  0  0  0  0
 19 21  2  0  0  0  0
 19 20  1  0  0  0  0
 21 22  1  0  0  0  0
 23 21  1  0  0  0  0
 24 23  2  0  0  0  0
 25 24  1  0  0  0  0
 25 18  2  0  0  0  0
M  END
>  <minimizedAffinity>
-4.72538757

$$$$

 OpenBabel03242522523D

 25 26  0  0  0  0  0  0  0  0999 V2000
   38.0960   28.8800   37.0540 O   0  0  0  0  0  0  0  0  0  0  0  0
   37.8220   30.2010   37.8230 P   0  0  2  0  0  0  0  0  0  0  0  0
   37.7060   31.3820   36.6290 O   0  0  0  0  0  0  0  0  0  0  0  0
   37.3880   30.9980   35.7550 H   0  0  0  0  0  0  0  0  0  0  0  0
   39.1540   30.5000   38.8130 O   0  0  0  0  0  0  0  0  0  0  0  0
   40.8250   33.2320   40.5370 C   0  0  0  0  0  0  0  0  0  0  0  0
   40.5840   31.9840   39.9250 C   0  0  0  0  0  0  0  0  0  0  0  0
   39.3400   31.7350   39.3980 C   0  0  0  0  0  0  0  0  0  0  0  0
   38.3930   32.7040   39.4880 N   0  0  0  0  0  0  0  0  0  0  0  0
   38.6360   33.8850   40.0720 C   0  0  0  0  0  0  0  0  0  0  0  0
   39.8410   34.1570   40.5960 N   0  0  0  0  0  0  0  0  0  0  0  0
   41.7620   33.5270   40.9790 H   0  0  0  0  0  0  0  0  0  0  0  0
   41.4560   31.3780   39.9590 H   0  0  0  0  0  0  0  0  0  0  0  0
   37.7950   34.5860   40.0850 H   0  0  0  0  0  0  0  0  0  0  0  0
   36.4250   30.0290   38.6870 O   0  0  0  0  0  0  0  0  0  0  0  0
   36.1460   29.5470   39.9140 C   0  0  0  0  0  0  0  0  0  0  0  0
   34.8420   29.4450   40.1190 O   0  0  0  0  0  0  0  0  0  0  0  0
   36.7560   29.0560   41.2120 C   0  0  0  0  0  0  0  0  0  0  0  0
   36.4230   27.8100   41.6140 C   0  0  0  0  0  0  0  0  0  0  0  0
   35.7940   27.0700   41.1630 H   0  0  0  0  0  0  0  0  0  0  0  0
   36.9670   27.3530   42.8250 C   0  0  0  0  0  0  0  0  0  0  0  0
   36.7500   26.3760   43.2090 H   0  0  0  0  0  0  0  0  0  0  0  0
   37.7970   28.1410   43.5620 C   0  0  0  0  0  3  0  0  0  0  0  0
   38.0910   29.3910   43.0940 C   0  0  0  0  0  3  0  0  0  0  0  0
   37.5760   29.7980   41.9690 N   0  0  0  0  0  0  0  0  0  0  0  0
  2  1  2  6  0  0  0
  2 15  1  0  0  0  0
  2  5  1  0  0  0  0
  3  2  1  0  0  0  0
  4  3  1  0  0  0  0
  5  8  1  0  0  0  0
  6 11  1  0  0  0  0
  6 12  1  0  0  0  0
  7 13  1  0  0  0  0
  7  6  2  0  0  0  0
  8  9  2  0  0  0  0
  8  7  1  0  0  0  0
  9 10  1  0  0  0  0
 10 14  1  0  0  0  0
 10 11  2  0  0  0  0
 15 16  1  0  0  0  0
 16 17  2  0  0  0  0
 16 18  1  0  0  0  0
 18 19  2  0  0  0  0
 18 25  1  0  0  0  0
 19 21  1  0  0  0  0
 20 19  1  0  0  0  0
 21 22  1  0  0  0  0
 21 23  2  0  0  0  0
 24 23  1  0  0  0  0
 25 24  2  0  0  0  0
M  END
>  <minimizedAffinity>
-4.52959871

$$$$

 OpenBabel03242522523D

 25 26  0  0  0  0  0  0  0  0999 V2000
   37.3900   30.4900   36.9180 O   0  0  0  0  0  0  0  0  0  0  0  0
   37.3930   31.0980   38.3460 P   0  0  2  0  0  0  0  0  0  0  0  0
   37.3380   32.7640   38.1100 O   0  0  0  0  0  0  0  0  0  0  0  0
   36.8820   33.0020   37.2440 H   0  0  0  0  0  0  0  0  0  0  0  0
   38.8440   30.6610   39.0850 O   0  0  0  0  0  0  0  0  0  0  0  0
   42.3860   31.4870   39.1080 C   0  0  0  0  0  0  0  0  0  0  0  0
   41.1410   30.9230   39.4580 C   0  0  0  0  0  0  0  0  0  0  0  0
   40.0380   31.2350   38.7010 C   0  0  0  0  0  0  0  0  0  0  0  0
   40.1930   32.0750   37.6450 N   0  0  0  0  0  0  0  0  0  0  0  0
   41.3810   32.6030   37.3240 C   0  0  0  0  0  0  0  0  0  0  0  0
   42.4770   32.3180   38.0450 N   0  0  0  0  0  0  0  0  0  0  0  0
   43.3090   31.3080   39.6330 H   0  0  0  0  0  0  0  0  0  0  0  0
   41.2430   30.2950   40.3090 H   0  0  0  0  0  0  0  0  0  0  0  0
   41.3830   33.2660   36.4530 H   0  0  0  0  0  0  0  0  0  0  0  0
   36.0760   30.5280   39.1660 O   0  0  0  0  0  0  0  0  0  0  0  0
   35.9270   29.7150   40.2300 C   0  0  0  0  0  0  0  0  0  0  0  0
   34.6990   29.2220   40.3040 O   0  0  0  0  0  0  0  0  0  0  0  0
   36.6310   29.1150   41.4300 C   0  0  0  0  0  0  0  0  0  0  0  0
   36.3190   27.8410   41.7520 C   0  0  0  0  0  0  0  0  0  0  0  0
   35.6490   27.1430   41.2910 H   0  0  0  0  0  0  0  0  0  0  0  0
   36.9510   27.2820   42.8740 C   0  0  0  0  0  0  0  0  0  0  0  0
   36.7550   26.2770   43.1910 H   0  0  0  0  0  0  0  0  0  0  0  0
   37.8440   28.0020   43.6060 C   0  0  0  0  0  3  0  0  0  0  0  0
   38.1130   29.2860   43.2220 C   0  0  0  0  0  3  0  0  0  0  0  0
   37.5150   29.7880   42.1800 N   0  0  0  0  0  0  0  0  0  0  0  0
  2  1  2  6  0  0  0
  2  5  1  0  0  0  0
  2 15  1  0  0  0  0
  3  2  1  0  0  0  0
  4  3  1  0  0  0  0
  6  7  1  0  0  0  0
  6 12  1  0  0  0  0
  7 13  1  0  0  0  0
  8  5  1  0  0  0  0
  8  7  2  0  0  0  0
  9  8  1  0  0  0  0
 10  9  2  0  0  0  0
 10 11  1  0  0  0  0
 11  6  2  0  0  0  0
 14 10  1  0  0  0  0
 15 16  1  0  0  0  0
 16 17  2  0  0  0  0
 16 18  1  0  0  0  0
 18 19  2  0  0  0  0
 18 25  1  0  0  0  0
 19 21  1  0  0  0  0
 20 19  1  0  0  0  0
 21 22  1  0  0  0  0
 21 23  2  0  0  0  0
 24 23  1  0  0  0  0
 25 24  2  0  0  0  0
M  END
>  <minimizedAffinity>
-4.52287912

$$$$

 OpenBabel03242522523D

 25 26  0  0  0  0  0  0  0  0999 V2000
   39.6310   25.1650   41.0240 O   0  0  0  0  0  0  0  0  0  0  0  0
   38.8880   24.9590   42.3720 P   0  0  2  0  0  0  0  0  0  0  0  0
   39.7920   23.8010   43.1940 O   0  0  0  0  0  0  0  0  0  0  0  0
   40.7600   23.8230   42.9200 H   0  0  0  0  0  0  0  0  0  0  0  0
   37.3510   24.3590   42.0210 O   0  0  0  0  0  0  0  0  0  0  0  0
   35.9110   23.5630   38.7780 C   0  0  0  0  0  0  0  0  0  0  0  0
   36.1980   24.2300   39.9880 C   0  0  0  0  0  0  0  0  0  0  0  0
   37.1070   23.6710   40.8520 C   0  0  0  0  0  0  0  0  0  0  0  0
   37.6940   22.4960   40.5040 N   0  0  0  0  0  0  0  0  0  0  0  0
   37.4120   21.8730   39.3520 C   0  0  0  0  0  0  0  0  0  0  0  0
   36.5280   22.3950   38.4880 N   0  0  0  0  0  0  0  0  0  0  0  0
   35.2160   23.9150   38.0340 H   0  0  0  0  0  0  0  0  0  0  0  0
   35.6360   25.1280   40.0590 H   0  0  0  0  0  0  0  0  0  0  0  0
   37.9470   20.9340   39.1810 H   0  0  0  0  0  0  0  0  0  0  0  0
   38.8290   26.4050   43.1690 O   0  0  0  0  0  0  0  0  0  0  0  0
   38.5750   27.6700   42.7780 C   0  0  0  0  0  0  0  0  0  0  0  0
   39.5190   28.5080   43.1800 O   0  0  0  0  0  0  0  0  0  0  0  0
   37.5970   28.5560   42.0340 C   0  0  0  0  0  0  0  0  0  0  0  0
   36.4910   27.9640   41.5330 C   0  0  0  0  0  0  0  0  0  0  0  0
   36.1560   26.9470   41.5770 H   0  0  0  0  0  0  0  0  0  0  0  0
   35.5870   28.7720   40.8250 C   0  0  0  0  0  0  0  0  0  0  0  0
   34.6880   28.3740   40.3990 H   0  0  0  0  0  0  0  0  0  0  0  0
   35.8230   30.1010   40.6520 C   0  0  0  0  0  3  0  0  0  0  0  0
   36.9630   30.6340   41.1860 C   0  0  0  0  0  3  0  0  0  0  0  0
   37.7900   29.8680   41.8390 N   0  0  0  0  0  0  0  0  0  0  0  0
  2  1  2  6  0  0  0
  2 15  1  0  0  0  0
  2  3  1  0  0  0  0
  4  3  1  0  0  0  0
  5  2  1  0  0  0  0
  6  7  1  0  0  0  0
  7 13  1  0  0  0  0
  7  8  2  0  0  0  0
  8  5  1  0  0  0  0
  9  8  1  0  0  0  0
 10  9  2  0  0  0  0
 11  6  2  0  0  0  0
 11 10  1  0  0  0  0
 12  6  1  0  0  0  0
 14 10  1  0  0  0  0
 16 15  1  0  0  0  0
 16 17  2  0  0  0  0
 18 16  1  0  0  0  0
 19 20  1  0  0  0  0
 19 18  2  0  0  0  0
 21 19  1  0  0  0  0
 22 21  1  0  0  0  0
 23 21  2  0  0  0  0
 23 24  1  0  0  0  0
 24 25  2  0  0  0  0
 25 18  1  0  0  0  0
M  END
>  <minimizedAffinity>
-4.51233339

$$$$

 OpenBabel03242522523D

 25 26  0  0  0  0  0  0  0  0999 V2000
   35.1430   28.9480   40.1310 O   0  0  0  0  0  0  0  0  0  0  0  0
   36.3130   29.8240   40.6530 P   0  0  2  0  0  0  0  0  0  0  0  0
   35.5720   31.1010   41.4640 O   0  0  0  0  0  0  0  0  0  0  0  0
   34.6730   30.8360   41.8300 H   0  0  0  0  0  0  0  0  0  0  0  0
   37.1600   30.3970   39.3120 O   0  0  0  0  0  0  0  0  0  0  0  0
   36.9620   29.1310   35.9090 C   0  0  0  0  0  0  0  0  0  0  0  0
   36.7570   29.9300   37.0530 C   0  0  0  0  0  0  0  0  0  0  0  0
   37.3940   29.5870   38.2210 C   0  0  0  0  0  0  0  0  0  0  0  0
   38.1960   28.4900   38.2240 N   0  0  0  0  0  0  0  0  0  0  0  0
   38.3800   27.7410   37.1300 C   0  0  0  0  0  0  0  0  0  0  0  0
   37.7720   28.0510   35.9740 N   0  0  0  0  0  0  0  0  0  0  0  0
   36.5120   29.3130   34.9470 H   0  0  0  0  0  0  0  0  0  0  0  0
   36.1010   30.7360   36.8330 H   0  0  0  0  0  0  0  0  0  0  0  0
   39.0480   26.8820   37.2530 H   0  0  0  0  0  0  0  0  0  0  0  0
   37.2600   28.9040   41.6470 O   0  0  0  0  0  0  0  0  0  0  0  0
   37.3450   27.5800   41.8820 C   0  0  0  0  0  0  0  0  0  0  0  0
   37.8110   27.3250   43.0960 O   0  0  0  0  0  0  0  0  0  0  0  0
   37.1130   26.2060   41.2870 C   0  0  0  0  0  0  0  0  0  0  0  0
   37.4120   25.1420   42.0640 C   0  0  0  0  0  0  0  0  0  0  0  0
   37.7850   25.0860   43.0660 H   0  0  0  0  0  0  0  0  0  0  0  0
   37.2200   23.8640   41.5150 C   0  0  0  0  0  0  0  0  0  0  0  0
   37.4350   22.9720   42.0700 H   0  0  0  0  0  0  0  0  0  0  0  0
   36.7490   23.7100   40.2470 C   0  0  0  0  0  3  0  0  0  0  0  0
   36.4670   24.8310   39.5180 C   0  0  0  0  0  3  0  0  0  0  0  0
   36.6530   26.0070   40.0440 N   0  0  0  0  0  0  0  0  0  0  0  0
  2  1  2  6  0  0  0
  2  3  1  0  0  0  0
  2 15  1  0  0  0  0
  3  4  1  0  0  0  0
  5  2  1  0  0  0  0
  6 11  2  0  0  0  0
  6  7  1  0  0  0  0
  7  8  2  0  0  0  0
  8  9  1  0  0  0  0
  8  5  1  0  0  0  0
 10 14  1  0  0  0  0
 10  9  2  0  0  0  0
 11 10  1  0  0  0  0
 12  6  1  0  0  0  0
 13  7  1  0  0  0  0
 15 16  1  0  0  0  0
 16 17  2  0  0  0  0
 18 16  1  0  0  0  0
 18 19  1  0  0  0  0
 19 20  1  0  0  0  0
 21 19  2  0  0  0  0
 21 22  1  0  0  0  0
 23 21  1  0  0  0  0
 24 25  1  0  0  0  0
 24 23  2  0  0  0  0
 25 18  2  0  0  0  0
M  END
>  <minimizedAffinity>
-4.51003695

$$$$
