
 OpenBabel03252507593D

 28 30  0  0  1  0  0  0  0  0999 V2000
   46.6320   32.7320   43.9110 C   0  0  0  0  0  0  0  0  0  0  0  0
   45.2910   32.6920   43.4240 C   0  0  0  0  0  0  0  0  0  0  0  0
   44.9400   33.6910   42.5190 C   0  0  0  0  0  0  0  0  0  0  0  0
   45.8650   34.6160   42.1680 N   0  0  0  0  0  0  0  0  0  0  0  0
   47.1420   34.5920   42.6800 C   0  0  0  0  0  0  0  0  0  0  0  0
   47.5320   33.6710   43.5400 N   0  0  0  0  0  0  0  0  0  0  0  0
   44.6190   31.9150   43.7590 H   0  0  0  0  0  0  0  0  0  0  0  0
   43.9380   33.7030   42.1220 H   0  0  0  0  0  0  0  0  0  0  0  0
   48.1080   35.6360   42.2270 C   0  0  1  0  0  0  0  0  0  0  0  0
   49.5770   35.2900   42.1510 C   0  0  0  0  0  0  0  0  0  0  0  0
   48.7280   35.3710   40.9130 C   0  0  1  0  0  0  0  0  0  0  0  0
   47.8500   36.6790   42.4850 H   0  0  0  0  0  0  0  0  0  0  0  0
   49.9260   34.3390   42.5570 H   0  0  0  0  0  0  0  0  0  0  0  0
   50.2660   36.1500   42.2630 H   0  0  0  0  0  0  0  0  0  0  0  0
   48.9100   36.1690   40.1790 H   0  0  0  0  0  0  0  0  0  0  0  0
   48.5660   34.0470   40.2960 N   0  0  0  0  0  0  0  0  0  0  0  0
   49.4880   33.5780   40.2580 H   0  0  0  0  0  0  0  0  0  0  0  0
   48.0660   34.1180   39.3830 H   0  0  0  0  0  0  0  0  0  0  0  0
   46.9770   31.6750   44.8400 C   0  0  0  0  0  0  0  0  0  0  0  0
   47.9090   30.8230   44.6130 O   0  0  0  0  0  0  0  0  0  0  0  0
   46.2550   31.5340   46.1050 C   0  0  0  0  0  0  0  0  0  0  0  0
   46.1400   32.6150   46.9550 C   0  0  0  0  0  0  0  0  0  0  0  0
   46.5820   33.5780   46.6970 H   0  0  0  0  0  0  0  0  0  0  0  0
   45.4820   32.5850   48.1640 C   0  0  0  0  0  0  0  0  0  0  0  0
   45.4050   33.4430   48.8130 H   0  0  0  0  0  0  0  0  0  0  0  0
   44.9140   31.3560   48.5000 C   0  0  0  0  0  3  0  0  0  0  0  0
   45.0440   30.2910   47.6330 C   0  0  0  0  0  3  0  0  0  0  0  0
   45.7010   30.3640   46.4500 N   0  0  0  0  0  0  0  0  0  0  0  0
  1 19  1  0  0  0  0
  2  7  1  0  0  0  0
  2  1  2  0  0  0  0
  3  2  1  0  0  0  0
  4  3  2  0  0  0  0
  4  5  1  0  0  0  0
  5  6  2  0  0  0  0
  6  1  1  0  0  0  0
  8  3  1  0  0  0  0
  9 12  1  1  0  0  0
  9  5  1  0  0  0  0
 10  9  1  0  0  0  0
 10 14  1  0  0  0  0
 10 13  1  0  0  0  0
 11 15  1  6  0  0  0
 11 10  1  0  0  0  0
 11  9  1  0  0  0  0
 16 11  1  0  0  0  0
 17 16  1  0  0  0  0
 18 16  1  0  0  0  0
 19 21  1  0  0  0  0
 20 19  2  0  0  0  0
 21 28  2  0  0  0  0
 21 22  1  0  0  0  0
 22 24  2  0  0  0  0
 23 22  1  0  0  0  0
 24 26  1  0  0  0  0
 24 25  1  0  0  0  0
 27 26  2  0  0  0  0
 28 27  1  0  0  0  0
M  END
>  <minimizedAffinity>
-4.86370325

>  <minimizedRMSD>
6.34162474

$$$$
