REMARK  Name = 
REMARK  4 active torsions:
REMARK  status: ('A' for Active; 'I' for Inactive)
REMARK    1  A    between atoms: C_1  and  C_11
REMARK    2  A    between atoms: C_5  and  C_7
REMARK    3  A    between atoms: C_9  and  N_10
REMARK    4  A    between atoms: C_11  and  C_21
REMARK                            x       y       z     vdW  Elec       q    Type
REMARK                         _______ _______ _______ _____ _____    ______ ____
ROOT
ATOM      1  C   UNL     1      46.261  34.752  43.242  0.00  0.00    +0.000 A 
ATOM      2  C   UNL     1      45.296  35.744  43.590  0.00  0.00    +0.000 A 
ATOM      3  C   UNL     1      44.651  35.566  44.812  0.00  0.00    +0.000 A 
ATOM      4  N   UNL     1      44.969  34.493  45.574  0.00  0.00    +0.000 NA
ATOM      5  C   UNL     1      45.912  33.575  45.173  0.00  0.00    +0.000 A 
ATOM      6  N   UNL     1      46.555  33.691  44.027  0.00  0.00    +0.000 NA
ATOM      7  H   UNL     1      45.106  36.570  42.919  0.00  0.00    +0.000 HD
ATOM      8  H   UNL     1      43.913  36.289  45.119  0.00  0.00    +0.000 HD
ENDROOT
BRANCH   5   9
ATOM      9  C   UNL     1      46.219  32.430  46.080  0.00  0.00    +0.000 C 
ATOM     10  C   UNL     1      47.037  32.682  47.326  0.00  0.00    +0.000 C 
ATOM     11  C   UNL     1      45.547  32.489  47.394  0.00  0.00    +0.000 C 
ATOM     12  H   UNL     1      46.335  31.445  45.593  0.00  0.00    +0.000 HD
ATOM     13  H   UNL     1      47.506  33.657  47.472  0.00  0.00    +0.000 HD
ATOM     14  H   UNL     1      47.606  31.807  47.696  0.00  0.00    +0.000 HD
ATOM     15  H   UNL     1      45.136  31.595  47.883  0.00  0.00    +0.000 HD
BRANCH  11  16
ATOM     16  N   UNL     1      44.872  33.730  47.801  0.00  0.00    +0.000 NA
ATOM     17  H   UNL     1      45.376  34.138  48.607  0.00  0.00    +0.000 HD
ATOM     18  H   UNL     1      43.852  33.570  47.949  0.00  0.00    +0.000 HD
ENDBRANCH  11  16
ENDBRANCH   5   9
BRANCH   1  19
ATOM     19  C   UNL     1      46.928  34.966  41.973  0.00  0.00    +0.000 C 
ATOM     20  O   UNL     1      48.090  35.500  41.877  0.00  0.00    +0.000 OA
BRANCH  19  21
ATOM     21  C   UNL     1      46.283  34.572  40.721  0.00  0.00    +0.000 A 
ATOM     22  C   UNL     1      47.054  34.188  39.642  0.00  0.00    +0.000 A 
ATOM     23  H   UNL     1      48.142  34.174  39.709  0.00  0.00    +0.000 HD
ATOM     24  C   UNL     1      46.544  33.800  38.423  0.00  0.00    +0.000 A 
ATOM     25  H   UNL     1      47.166  33.504  37.593  0.00  0.00    +0.000 HD
ATOM     26  C   UNL     1      45.153  33.816  38.329  0.00  0.00    +0.000 A 
ATOM     27  C   UNL     1      44.405  34.204  39.422  0.00  0.00    +0.000 A 
ATOM     28  N   UNL     1      44.948  34.579  40.605  0.00  0.00    +0.000 NA
ENDBRANCH  19  21
ENDBRANCH   1  19
TORSDOF 4
