
 OpenBabel03242519433D

 28 29  0  0  0  0  0  0  0  0999 V2000
   37.0970   28.6670   39.7150 O   0  0  0  0  0  0  0  0  0  0  0  0
   35.9840   29.1560   40.6800 P   0  0  2  0  0  0  0  0  0  0  0  0
   36.1880   30.8370   40.9500 O   0  0  0  0  0  0  0  0  0  0  0  0
   38.7230   32.8070   39.2320 C   0  0  0  0  0  0  0  0  0  0  0  0
   37.4750   32.2200   39.5460 C   0  0  0  0  0  0  0  0  0  0  0  0
   37.4180   31.3960   40.6760 C   0  0  0  0  0  0  0  0  0  0  0  0
   38.5410   31.2110   41.3940 N   0  0  0  0  0  0  0  0  0  0  0  0
   39.7180   31.7860   41.0680 C   0  0  0  0  0  0  0  0  0  0  0  0
   39.8190   32.5810   39.9950 N   0  0  0  0  0  0  0  0  0  0  0  0
   38.7700   33.4450   38.3570 H   0  0  0  0  0  0  0  0  0  0  0  0
   36.6540   32.4450   38.8960 H   0  0  0  0  0  0  0  0  0  0  0  0
   40.5850   31.5980   41.6860 H   0  0  0  0  0  0  0  0  0  0  0  0
   36.1300   28.3620   42.1270 O   0  0  0  0  0  0  0  0  0  0  0  0
   37.2360   27.8410   42.7260 C   0  0  0  0  0  0  0  0  0  0  0  0
   37.8990   28.6540   43.6040 O   0  0  0  0  0  0  0  0  0  0  0  0
   38.1340   26.6240   42.8680 C   0  0  0  0  0  0  0  0  0  0  0  0
   37.7400   25.5320   42.1620 C   0  0  0  0  0  0  0  0  0  0  0  0
   36.9020   25.3100   41.5270 H   0  0  0  0  0  0  0  0  0  0  0  0
   38.5810   24.4100   42.2560 C   0  0  0  0  0  0  0  0  0  0  0  0
   38.3520   23.5090   41.7350 H   0  0  0  0  0  0  0  0  0  0  0  0
   39.7210   24.4130   43.0060 C   0  0  0  0  0  3  0  0  0  0  0  0
   40.0340   25.5560   43.6790 C   0  0  0  0  0  3  0  0  0  0  0  0
   39.2410   26.5880   43.5800 N   0  0  0  0  0  0  0  0  0  0  0  0
   34.5430   28.9120   39.9000 O   0  0  0  0  0  0  0  0  0  0  0  0
   34.6730   28.9100   38.5210 C   0  0  0  0  0  0  0  0  0  0  0  0
   35.4500   29.9590   38.0580 F   0  0  0  0  0  0  0  0  0  0  0  0
   35.1160   27.7010   38.0890 F   0  0  0  0  0  0  0  0  0  0  0  0
   33.3960   29.1150   38.0110 F   0  0  0  0  0  0  0  0  0  0  0  0
  2  1  2  6  0  0  0
  2  3  1  0  0  0  0
  2 13  1  0  0  0  0
  4  5  2  0  0  0  0
  4  9  1  0  0  0  0
  5  6  1  0  0  0  0
  6  3  1  0  0  0  0
  6  7  2  0  0  0  0
  8  7  1  0  0  0  0
  8 12  1  0  0  0  0
  9  8  2  0  0  0  0
 10  4  1  0  0  0  0
 11  5  1  0  0  0  0
 13 14  1  0  0  0  0
 14 16  1  0  0  0  0
 14 15  2  0  0  0  0
 16 23  1  0  0  0  0
 17 19  1  0  0  0  0
 17 16  2  0  0  0  0
 18 17  1  0  0  0  0
 19 21  2  0  0  0  0
 20 19  1  0  0  0  0
 21 22  1  0  0  0  0
 23 22  2  0  0  0  0
 24  2  1  0  0  0  0
 25 24  1  0  0  0  0
 26 25  1  0  0  0  0
 27 25  1  0  0  0  0
 28 25  1  0  0  0  0
M  END
>  <minimizedAffinity>
-5.09859276

$$$$

 OpenBabel03242519433D

 28 29  0  0  0  0  0  0  0  0999 V2000
   38.5790   28.5380   38.6910 O   0  0  0  0  0  0  0  0  0  0  0  0
   37.6000   29.5010   39.4130 P   0  0  2  0  0  0  0  0  0  0  0  0
   37.5690   30.9930   38.5670 O   0  0  0  0  0  0  0  0  0  0  0  0
   38.4540   34.0960   40.2530 C   0  0  0  0  0  0  0  0  0  0  0  0
   37.6820   33.0200   39.7570 C   0  0  0  0  0  0  0  0  0  0  0  0
   38.3530   32.0240   39.0380 C   0  0  0  0  0  0  0  0  0  0  0  0
   39.6810   32.1450   38.8590 N   0  0  0  0  0  0  0  0  0  0  0  0
   40.3910   33.1850   39.3450 C   0  0  0  0  0  0  0  0  0  0  0  0
   39.7910   34.1610   40.0390 N   0  0  0  0  0  0  0  0  0  0  0  0
   37.9370   34.8690   40.8100 H   0  0  0  0  0  0  0  0  0  0  0  0
   36.6320   33.0390   39.9660 H   0  0  0  0  0  0  0  0  0  0  0  0
   41.4570   33.2240   39.1680 H   0  0  0  0  0  0  0  0  0  0  0  0
   38.1410   29.7740   40.9550 O   0  0  0  0  0  0  0  0  0  0  0  0
   38.4860   28.8850   41.9260 C   0  0  0  0  0  0  0  0  0  0  0  0
   38.6010   29.3760   43.1980 O   0  0  0  0  0  0  0  0  0  0  0  0
   38.8170   27.4360   42.2450 C   0  0  0  0  0  0  0  0  0  0  0  0
   39.6660   27.2560   43.2910 C   0  0  0  0  0  0  0  0  0  0  0  0
   40.1960   27.9170   43.9510 H   0  0  0  0  0  0  0  0  0  0  0  0
   39.9520   25.9200   43.6180 C   0  0  0  0  0  0  0  0  0  0  0  0
   40.6070   25.6830   44.4250 H   0  0  0  0  0  0  0  0  0  0  0  0
   39.4140   24.8680   42.9350 C   0  0  0  0  0  3  0  0  0  0  0  0
   38.5730   25.1500   41.9000 C   0  0  0  0  0  3  0  0  0  0  0  0
   38.3180   26.3970   41.6100 N   0  0  0  0  0  0  0  0  0  0  0  0
   36.0990   28.8050   39.3200 O   0  0  0  0  0  0  0  0  0  0  0  0
   35.2160   29.3070   40.2630 C   0  0  0  0  0  0  0  0  0  0  0  0
   35.5070   30.6130   40.6220 F   0  0  0  0  0  0  0  0  0  0  0  0
   33.9350   29.1520   39.8400 F   0  0  0  0  0  0  0  0  0  0  0  0
   35.3950   28.5380   41.4080 F   0  0  0  0  0  0  0  0  0  0  0  0
  2  1  2  6  0  0  0
  2 13  1  0  0  0  0
  3  6  1  0  0  0  0
  3  2  1  0  0  0  0
  4 10  1  0  0  0  0
  5 11  1  0  0  0  0
  5  4  2  0  0  0  0
  6  5  1  0  0  0  0
  7  6  2  0  0  0  0
  7  8  1  0  0  0  0
  8  9  2  0  0  0  0
  9  4  1  0  0  0  0
 12  8  1  0  0  0  0
 13 14  1  0  0  0  0
 14 16  1  0  0  0  0
 14 15  2  0  0  0  0
 16 17  1  0  0  0  0
 17 19  2  0  0  0  0
 17 18  1  0  0  0  0
 19 20  1  0  0  0  0
 21 19  1  0  0  0  0
 22 21  2  0  0  0  0
 23 22  1  0  0  0  0
 23 16  2  0  0  0  0
 24  2  1  0  0  0  0
 24 25  1  0  0  0  0
 25 26  1  0  0  0  0
 25 28  1  0  0  0  0
 27 25  1  0  0  0  0
M  END
>  <minimizedAffinity>
-5.03948259

$$$$

 OpenBabel03242519433D

 28 29  0  0  0  0  0  0  0  0999 V2000
   38.2730   28.7610   39.9600 O   0  0  0  0  0  0  0  0  0  0  0  0
   37.0340   29.5180   40.5080 P   0  0  2  0  0  0  0  0  0  0  0  0
   37.5540   30.9990   41.2000 O   0  0  0  0  0  0  0  0  0  0  0  0
   40.8780   30.7990   42.6710 C   0  0  0  0  0  0  0  0  0  0  0  0
   39.4900   30.6060   42.4780 C   0  0  0  0  0  0  0  0  0  0  0  0
   38.9070   31.2050   41.3560 C   0  0  0  0  0  0  0  0  0  0  0  0
   39.6910   31.9240   40.5310 N   0  0  0  0  0  0  0  0  0  0  0  0
   41.0140   32.0910   40.7420 C   0  0  0  0  0  0  0  0  0  0  0  0
   41.6140   31.5360   41.8040 N   0  0  0  0  0  0  0  0  0  0  0  0
   41.3320   30.3370   43.5390 H   0  0  0  0  0  0  0  0  0  0  0  0
   38.9770   30.0110   43.2050 H   0  0  0  0  0  0  0  0  0  0  0  0
   41.5890   32.6800   40.0420 H   0  0  0  0  0  0  0  0  0  0  0  0
   36.3120   28.6020   41.6850 O   0  0  0  0  0  0  0  0  0  0  0  0
   36.8450   27.6400   42.4870 C   0  0  0  0  0  0  0  0  0  0  0  0
   36.1750   27.3670   43.6480 O   0  0  0  0  0  0  0  0  0  0  0  0
   37.9640   26.6260   42.6630 C   0  0  0  0  0  0  0  0  0  0  0  0
   38.9800   27.0250   43.4710 C   0  0  0  0  0  0  0  0  0  0  0  0
   39.2000   27.9260   44.0130 H   0  0  0  0  0  0  0  0  0  0  0  0
   40.0040   26.0840   43.6700 C   0  0  0  0  0  0  0  0  0  0  0  0
   40.8410   26.3080   44.2910 H   0  0  0  0  0  0  0  0  0  0  0  0
   39.9830   24.8480   43.0920 C   0  0  0  0  0  3  0  0  0  0  0  0
   38.9200   24.5390   42.2970 C   0  0  0  0  0  3  0  0  0  0  0  0
   37.9790   25.4260   42.1230 N   0  0  0  0  0  0  0  0  0  0  0  0
   36.0690   29.8500   39.2020 O   0  0  0  0  0  0  0  0  0  0  0  0
   35.0390   28.9360   39.0510 C   0  0  0  0  0  0  0  0  0  0  0  0
   35.4840   27.6250   39.0670 F   0  0  0  0  0  0  0  0  0  0  0  0
   34.0620   29.1690   39.9660 F   0  0  0  0  0  0  0  0  0  0  0  0
   34.5110   29.1540   37.7830 F   0  0  0  0  0  0  0  0  0  0  0  0
  2  1  2  6  0  0  0
  2  3  1  0  0  0  0
  2 13  1  0  0  0  0
  3  6  1  0  0  0  0
  4 10  1  0  0  0  0
  5  4  1  0  0  0  0
  5 11  1  0  0  0  0
  6  5  2  0  0  0  0
  7  8  2  0  0  0  0
  7  6  1  0  0  0  0
  8  9  1  0  0  0  0
  9  4  2  0  0  0  0
 12  8  1  0  0  0  0
 13 14  1  0  0  0  0
 14 16  1  0  0  0  0
 14 15  2  0  0  0  0
 16 17  1  0  0  0  0
 17 19  2  0  0  0  0
 17 18  1  0  0  0  0
 19 20  1  0  0  0  0
 21 19  1  0  0  0  0
 22 21  2  0  0  0  0
 23 22  1  0  0  0  0
 23 16  2  0  0  0  0
 24  2  1  0  0  0  0
 25 26  1  0  0  0  0
 25 24  1  0  0  0  0
 25 27  1  0  0  0  0
 28 25  1  0  0  0  0
M  END
>  <minimizedAffinity>
-4.91806746

$$$$

 OpenBabel03242519433D

 28 29  0  0  0  0  0  0  0  0999 V2000
   37.3020   30.6070   37.0990 O   0  0  0  0  0  0  0  0  0  0  0  0
   36.4300   29.7410   38.0470 P   0  0  2  0  0  0  0  0  0  0  0  0
   36.1520   30.6180   39.4950 O   0  0  0  0  0  0  0  0  0  0  0  0
   39.0950   32.0950   41.0460 C   0  0  0  0  0  0  0  0  0  0  0  0
   38.1360   31.1340   40.6490 C   0  0  0  0  0  0  0  0  0  0  0  0
   37.0690   31.5790   39.8600 C   0  0  0  0  0  0  0  0  0  0  0  0
   37.0150   32.8820   39.5270 N   0  0  0  0  0  0  0  0  0  0  0  0
   37.9480   33.7750   39.9220 C   0  0  0  0  0  0  0  0  0  0  0  0
   38.9860   33.3940   40.6780 N   0  0  0  0  0  0  0  0  0  0  0  0
   39.9230   31.7540   41.6570 H   0  0  0  0  0  0  0  0  0  0  0  0
   38.2910   30.1280   40.9790 H   0  0  0  0  0  0  0  0  0  0  0  0
   37.8480   34.8080   39.6200 H   0  0  0  0  0  0  0  0  0  0  0  0
   37.2470   28.3470   38.4170 O   0  0  0  0  0  0  0  0  0  0  0  0
   37.2400   27.6130   39.5630 C   0  0  0  0  0  0  0  0  0  0  0  0
   36.6710   26.3710   39.4930 O   0  0  0  0  0  0  0  0  0  0  0  0
   37.6420   27.5630   41.0270 C   0  0  0  0  0  0  0  0  0  0  0  0
   36.6380   27.8110   41.9090 C   0  0  0  0  0  0  0  0  0  0  0  0
   35.6000   28.0670   41.8120 H   0  0  0  0  0  0  0  0  0  0  0  0
   36.9890   27.7330   43.2670 C   0  0  0  0  0  0  0  0  0  0  0  0
   36.2660   27.9110   44.0300 H   0  0  0  0  0  0  0  0  0  0  0  0
   38.2530   27.4270   43.6790 C   0  0  0  0  0  3  0  0  0  0  0  0
   39.1930   27.1940   42.7200 C   0  0  0  0  0  3  0  0  0  0  0  0
   38.8490   27.2710   41.4630 N   0  0  0  0  0  0  0  0  0  0  0  0
   34.9820   29.5100   37.2770 O   0  0  0  0  0  0  0  0  0  0  0  0
   34.0570   28.8430   38.0640 C   0  0  0  0  0  0  0  0  0  0  0  0
   34.3550   28.9170   39.4140 F   0  0  0  0  0  0  0  0  0  0  0  0
   32.7990   29.2720   37.7810 F   0  0  0  0  0  0  0  0  0  0  0  0
   34.1490   27.5000   37.7160 F   0  0  0  0  0  0  0  0  0  0  0  0
  2  1  2  6  0  0  0
  2 13  1  0  0  0  0
  2  3  1  0  0  0  0
  3  6  1  0  0  0  0
  4 10  1  0  0  0  0
  5 11  1  0  0  0  0
  5  4  2  0  0  0  0
  6  5  1  0  0  0  0
  7  6  2  0  0  0  0
  7  8  1  0  0  0  0
  8  9  2  0  0  0  0
  9  4  1  0  0  0  0
 12  8  1  0  0  0  0
 13 14  1  0  0  0  0
 14 16  1  0  0  0  0
 15 14  2  0  0  0  0
 16 23  2  0  0  0  0
 16 17  1  0  0  0  0
 17 19  2  0  0  0  0
 18 17  1  0  0  0  0
 19 21  1  0  0  0  0
 19 20  1  0  0  0  0
 22 21  2  0  0  0  0
 23 22  1  0  0  0  0
 24  2  1  0  0  0  0
 24 25  1  0  0  0  0
 25 26  1  0  0  0  0
 27 25  1  0  0  0  0
 28 25  1  0  0  0  0
M  END
>  <minimizedAffinity>
-4.83519888

$$$$

 OpenBabel03242519433D

 28 29  0  0  0  0  0  0  0  0999 V2000
   38.2830   29.7850   39.5580 O   0  0  0  0  0  0  0  0  0  0  0  0
   37.3030   30.3970   40.5950 P   0  0  2  0  0  0  0  0  0  0  0  0
   37.7050   32.0480   40.8250 O   0  0  0  0  0  0  0  0  0  0  0  0
   40.6360   33.8170   39.5860 C   0  0  0  0  0  0  0  0  0  0  0  0
   39.2900   33.4130   39.7460 C   0  0  0  0  0  0  0  0  0  0  0  0
   39.0260   32.4210   40.6970 C   0  0  0  0  0  0  0  0  0  0  0  0
   40.0550   31.9120   41.3990 N   0  0  0  0  0  0  0  0  0  0  0  0
   41.3300   32.3200   41.2230 C   0  0  0  0  0  0  0  0  0  0  0  0
   41.6300   33.2660   40.3230 N   0  0  0  0  0  0  0  0  0  0  0  0
   40.8440   34.5850   38.8490 H   0  0  0  0  0  0  0  0  0  0  0  0
   38.5610   33.8940   39.1270 H   0  0  0  0  0  0  0  0  0  0  0  0
   42.1140   31.8730   41.8190 H   0  0  0  0  0  0  0  0  0  0  0  0
   37.4710   29.6010   42.0390 O   0  0  0  0  0  0  0  0  0  0  0  0
   38.1280   28.4430   42.3230 C   0  0  0  0  0  0  0  0  0  0  0  0
   39.2300   28.5430   43.1270 O   0  0  0  0  0  0  0  0  0  0  0  0
   38.1640   26.9360   42.1270 C   0  0  0  0  0  0  0  0  0  0  0  0
   36.9860   26.2980   42.3560 C   0  0  0  0  0  0  0  0  0  0  0  0
   36.0110   26.6140   42.6780 H   0  0  0  0  0  0  0  0  0  0  0  0
   36.9960   24.9100   42.1440 C   0  0  0  0  0  0  0  0  0  0  0  0
   36.1170   24.3260   42.2970 H   0  0  0  0  0  0  0  0  0  0  0  0
   38.1130   24.2410   41.7340 C   0  0  0  0  0  3  0  0  0  0  0  0
   39.2470   24.9680   41.5310 C   0  0  0  0  0  3  0  0  0  0  0  0
   39.2190   26.2570   41.7330 N   0  0  0  0  0  0  0  0  0  0  0  0
   35.7900   30.3040   39.9260 O   0  0  0  0  0  0  0  0  0  0  0  0
   35.2580   29.0260   39.9810 C   0  0  0  0  0  0  0  0  0  0  0  0
   36.0930   28.0770   39.4150 F   0  0  0  0  0  0  0  0  0  0  0  0
   34.9000   28.7160   41.2550 F   0  0  0  0  0  0  0  0  0  0  0  0
   34.1080   29.0520   39.1990 F   0  0  0  0  0  0  0  0  0  0  0  0
  2  1  2  6  0  0  0
  2  3  1  0  0  0  0
  2 13  1  0  0  0  0
  4  5  2  0  0  0  0
  4  9  1  0  0  0  0
  5  6  1  0  0  0  0
  6  3  1  0  0  0  0
  6  7  2  0  0  0  0
  8  7  1  0  0  0  0
  8 12  1  0  0  0  0
  9  8  2  0  0  0  0
 10  4  1  0  0  0  0
 11  5  1  0  0  0  0
 13 14  1  0  0  0  0
 14 15  2  0  0  0  0
 16 14  1  0  0  0  0
 16 17  1  0  0  0  0
 17 18  1  0  0  0  0
 19 20  1  0  0  0  0
 19 17  2  0  0  0  0
 21 19  1  0  0  0  0
 22 23  1  0  0  0  0
 22 21  2  0  0  0  0
 23 16  2  0  0  0  0
 24 25  1  0  0  0  0
 24  2  1  0  0  0  0
 25 27  1  0  0  0  0
 26 25  1  0  0  0  0
 28 25  1  0  0  0  0
M  END
>  <minimizedAffinity>
-4.79601049

$$$$

 OpenBabel03242519433D

 28 29  0  0  0  0  0  0  0  0999 V2000
   36.4190   30.8540   41.6340 O   0  0  0  0  0  0  0  0  0  0  0  0
   37.6700   29.9350   41.6270 P   0  0  2  0  0  0  0  0  0  0  0  0
   39.0500   30.8800   42.0070 O   0  0  0  0  0  0  0  0  0  0  0  0
   41.0110   32.4580   39.3770 C   0  0  0  0  0  0  0  0  0  0  0  0
   40.5650   31.5000   40.3170 C   0  0  0  0  0  0  0  0  0  0  0  0
   39.4550   31.8350   41.0990 C   0  0  0  0  0  0  0  0  0  0  0  0
   38.8780   33.0370   40.9150 N   0  0  0  0  0  0  0  0  0  0  0  0
   39.3270   33.9310   40.0090 C   0  0  0  0  0  0  0  0  0  0  0  0
   40.3880   33.6530   39.2390 N   0  0  0  0  0  0  0  0  0  0  0  0
   41.8720   32.2020   38.7690 H   0  0  0  0  0  0  0  0  0  0  0  0
   41.1090   30.5790   40.3670 H   0  0  0  0  0  0  0  0  0  0  0  0
   38.8200   34.8800   39.9090 H   0  0  0  0  0  0  0  0  0  0  0  0
   37.8650   29.2910   40.1120 O   0  0  0  0  0  0  0  0  0  0  0  0
   37.2240   29.5940   38.9490 C   0  0  0  0  0  0  0  0  0  0  0  0
   37.8510   30.4770   38.1140 O   0  0  0  0  0  0  0  0  0  0  0  0
   36.0010   29.3390   38.0840 C   0  0  0  0  0  0  0  0  0  0  0  0
   36.2250   29.3820   36.7450 C   0  0  0  0  0  0  0  0  0  0  0  0
   37.0830   29.5870   36.1320 H   0  0  0  0  0  0  0  0  0  0  0  0
   35.1100   29.1140   35.9330 C   0  0  0  0  0  0  0  0  0  0  0  0
   35.1910   29.1240   34.8700 H   0  0  0  0  0  0  0  0  0  0  0  0
   33.8810   28.8250   36.4520 C   0  0  0  0  0  3  0  0  0  0  0  0
   33.7550   28.8040   37.8080 C   0  0  0  0  0  3  0  0  0  0  0  0
   34.8020   29.0570   38.5470 N   0  0  0  0  0  0  0  0  0  0  0  0
   37.4410   28.8180   42.8280 O   0  0  0  0  0  0  0  0  0  0  0  0
   36.5460   27.8220   42.4710 C   0  0  0  0  0  0  0  0  0  0  0  0
   35.9780   27.1990   43.5700 F   0  0  0  0  0  0  0  0  0  0  0  0
   35.6170   28.3080   41.6070 F   0  0  0  0  0  0  0  0  0  0  0  0
   37.2900   26.8510   41.8120 F   0  0  0  0  0  0  0  0  0  0  0  0
  2  1  2  6  0  0  0
  2  3  1  0  0  0  0
  2 24  1  0  0  0  0
  4  5  1  0  0  0  0
  5 11  1  0  0  0  0
  5  6  2  0  0  0  0
  6  3  1  0  0  0  0
  7  6  1  0  0  0  0
  8  7  2  0  0  0  0
  9  4  2  0  0  0  0
  9  8  1  0  0  0  0
 10  4  1  0  0  0  0
 12  8  1  0  0  0  0
 13  2  1  0  0  0  0
 14 13  1  0  0  0  0
 15 14  2  0  0  0  0
 16 23  1  0  0  0  0
 16 14  1  0  0  0  0
 17 16  2  0  0  0  0
 18 17  1  0  0  0  0
 19 21  2  0  0  0  0
 19 17  1  0  0  0  0
 20 19  1  0  0  0  0
 21 22  1  0  0  0  0
 22 23  2  0  0  0  0
 25 24  1  0  0  0  0
 25 26  1  0  0  0  0
 27 25  1  0  0  0  0
 28 25  1  0  0  0  0
M  END
>  <minimizedAffinity>
-4.76371479

$$$$

 OpenBabel03242519433D

 28 29  0  0  0  0  0  0  0  0999 V2000
   37.7820   28.9910   38.2650 O   0  0  0  0  0  0  0  0  0  0  0  0
   36.7300   30.0500   38.6870 P   0  0  2  0  0  0  0  0  0  0  0  0
   37.2040   31.5770   38.0650 O   0  0  0  0  0  0  0  0  0  0  0  0
   38.3770   34.1610   40.3460 C   0  0  0  0  0  0  0  0  0  0  0  0
   37.5060   33.3570   39.5740 C   0  0  0  0  0  0  0  0  0  0  0  0
   38.0810   32.3380   38.8070 C   0  0  0  0  0  0  0  0  0  0  0  0
   39.4170   32.1790   38.8460 N   0  0  0  0  0  0  0  0  0  0  0  0
   40.2230   32.9640   39.5940 C   0  0  0  0  0  0  0  0  0  0  0  0
   39.7160   33.9520   40.3420 N   0  0  0  0  0  0  0  0  0  0  0  0
   37.9350   34.9520   40.9400 H   0  0  0  0  0  0  0  0  0  0  0  0
   36.4610   33.5830   39.6290 H   0  0  0  0  0  0  0  0  0  0  0  0
   41.2890   32.7860   39.5830 H   0  0  0  0  0  0  0  0  0  0  0  0
   36.6810   30.1400   40.3420 O   0  0  0  0  0  0  0  0  0  0  0  0
   37.5590   29.6620   41.2650 C   0  0  0  0  0  0  0  0  0  0  0  0
   38.3550   30.5820   41.8900 O   0  0  0  0  0  0  0  0  0  0  0  0
   38.0810   28.4290   41.9850 C   0  0  0  0  0  0  0  0  0  0  0  0
   37.3260   27.3100   41.8310 C   0  0  0  0  0  0  0  0  0  0  0  0
   36.4040   27.0890   41.3260 H   0  0  0  0  0  0  0  0  0  0  0  0
   37.8160   26.1550   42.4620 C   0  0  0  0  0  0  0  0  0  0  0  0
   37.2900   25.2300   42.3950 H   0  0  0  0  0  0  0  0  0  0  0  0
   38.9750   26.1510   43.1830 C   0  0  0  0  0  3  0  0  0  0  0  0
   39.6630   27.3230   43.2800 C   0  0  0  0  0  3  0  0  0  0  0  0
   39.1930   28.3860   42.6870 N   0  0  0  0  0  0  0  0  0  0  0  0
   35.3010   29.6050   37.9770 O   0  0  0  0  0  0  0  0  0  0  0  0
   34.6100   28.6560   38.7120 C   0  0  0  0  0  0  0  0  0  0  0  0
   35.3890   27.5550   39.0270 F   0  0  0  0  0  0  0  0  0  0  0  0
   34.0430   29.2260   39.8070 F   0  0  0  0  0  0  0  0  0  0  0  0
   33.5920   28.1920   37.8860 F   0  0  0  0  0  0  0  0  0  0  0  0
  2  1  2  6  0  0  0
  2 13  1  0  0  0  0
  3  2  1  0  0  0  0
  3  6  1  0  0  0  0
  4 10  1  0  0  0  0
  5 11  1  0  0  0  0
  5  4  2  0  0  0  0
  6  7  2  0  0  0  0
  6  5  1  0  0  0  0
  7  8  1  0  0  0  0
  8  9  2  0  0  0  0
  9  4  1  0  0  0  0
 12  8  1  0  0  0  0
 13 14  1  0  0  0  0
 14 15  2  0  0  0  0
 14 16  1  0  0  0  0
 16 23  1  0  0  0  0
 17 16  2  0  0  0  0
 17 19  1  0  0  0  0
 18 17  1  0  0  0  0
 19 21  2  0  0  0  0
 20 19  1  0  0  0  0
 21 22  1  0  0  0  0
 23 22  2  0  0  0  0
 24  2  1  0  0  0  0
 24 25  1  0  0  0  0
 25 26  1  0  0  0  0
 25 27  1  0  0  0  0
 28 25  1  0  0  0  0
M  END
>  <minimizedAffinity>
-4.75500679

$$$$

 OpenBabel03242519433D

 28 29  0  0  0  0  0  0  0  0999 V2000
   39.7940   28.8390   40.9280 O   0  0  0  0  0  0  0  0  0  0  0  0
   38.6460   29.8500   41.1900 P   0  0  2  0  0  0  0  0  0  0  0  0
   39.2940   31.2270   41.9810 O   0  0  0  0  0  0  0  0  0  0  0  0
   41.9660   32.9740   40.2310 C   0  0  0  0  0  0  0  0  0  0  0  0
   41.2920   32.0080   41.0130 C   0  0  0  0  0  0  0  0  0  0  0  0
   39.9180   32.1850   41.2120 C   0  0  0  0  0  0  0  0  0  0  0  0
   39.3200   33.2540   40.6540 N   0  0  0  0  0  0  0  0  0  0  0  0
   39.9920   34.1610   39.9120 C   0  0  0  0  0  0  0  0  0  0  0  0
   41.3080   34.0310   39.6960 N   0  0  0  0  0  0  0  0  0  0  0  0
   43.0300   32.8400   40.0760 H   0  0  0  0  0  0  0  0  0  0  0  0
   41.8790   31.2010   41.4020 H   0  0  0  0  0  0  0  0  0  0  0  0
   39.4550   34.9990   39.4900 H   0  0  0  0  0  0  0  0  0  0  0  0
   37.5180   29.1480   42.1810 O   0  0  0  0  0  0  0  0  0  0  0  0
   37.0840   27.8580   42.2280 C   0  0  0  0  0  0  0  0  0  0  0  0
   36.5370   27.4370   43.4090 O   0  0  0  0  0  0  0  0  0  0  0  0
   36.9150   26.5590   41.4580 C   0  0  0  0  0  0  0  0  0  0  0  0
   36.9900   25.4300   42.2100 C   0  0  0  0  0  0  0  0  0  0  0  0
   37.1730   25.2300   43.2500 H   0  0  0  0  0  0  0  0  0  0  0  0
   36.8000   24.2230   41.5160 C   0  0  0  0  0  0  0  0  0  0  0  0
   36.8400   23.2870   42.0250 H   0  0  0  0  0  0  0  0  0  0  0  0
   36.5530   24.1830   40.1740 C   0  0  0  0  0  3  0  0  0  0  0  0
   36.4960   25.3680   39.5050 C   0  0  0  0  0  3  0  0  0  0  0  0
   36.6750   26.4790   40.1660 N   0  0  0  0  0  0  0  0  0  0  0  0
   38.0720   30.3080   39.7050 O   0  0  0  0  0  0  0  0  0  0  0  0
   36.7620   30.7560   39.7520 C   0  0  0  0  0  0  0  0  0  0  0  0
   35.8430   29.7220   39.6930 F   0  0  0  0  0  0  0  0  0  0  0  0
   36.5760   31.5620   40.8290 F   0  0  0  0  0  0  0  0  0  0  0  0
   36.5720   31.5140   38.6020 F   0  0  0  0  0  0  0  0  0  0  0  0
  2  1  2  6  0  0  0
  2  3  1  0  0  0  0
  2 13  1  0  0  0  0
  4  5  1  0  0  0  0
  5  6  2  0  0  0  0
  5 11  1  0  0  0  0
  6  3  1  0  0  0  0
  7  6  1  0  0  0  0
  8  7  2  0  0  0  0
  9  8  1  0  0  0  0
  9  4  2  0  0  0  0
 10  4  1  0  0  0  0
 12  8  1  0  0  0  0
 13 14  1  0  0  0  0
 14 15  2  0  0  0  0
 16 17  1  0  0  0  0
 16 14  1  0  0  0  0
 17 18  1  0  0  0  0
 19 20  1  0  0  0  0
 19 17  2  0  0  0  0
 21 19  1  0  0  0  0
 22 23  1  0  0  0  0
 22 21  2  0  0  0  0
 23 16  2  0  0  0  0
 24 25  1  0  0  0  0
 24  2  1  0  0  0  0
 25 27  1  0  0  0  0
 26 25  1  0  0  0  0
 28 25  1  0  0  0  0
M  END
>  <minimizedAffinity>
-4.74396372

$$$$

 OpenBabel03242519433D

 28 29  0  0  0  0  0  0  0  0999 V2000
   38.6930   27.4290   43.6160 O   0  0  0  0  0  0  0  0  0  0  0  0
   38.2730   27.3260   42.1260 P   0  0  2  0  0  0  0  0  0  0  0  0
   39.4060   28.1920   41.1720 O   0  0  0  0  0  0  0  0  0  0  0  0
   42.3520   29.6430   42.7440 C   0  0  0  0  0  0  0  0  0  0  0  0
   41.5060   28.7110   42.0980 C   0  0  0  0  0  0  0  0  0  0  0  0
   40.2030   29.1260   41.7970 C   0  0  0  0  0  0  0  0  0  0  0  0
   39.8320   30.3750   42.1350 N   0  0  0  0  0  0  0  0  0  0  0  0
   40.6640   31.2420   42.7510 C   0  0  0  0  0  0  0  0  0  0  0  0
   41.9180   30.8880   43.0590 N   0  0  0  0  0  0  0  0  0  0  0  0
   43.3610   29.3250   42.9790 H   0  0  0  0  0  0  0  0  0  0  0  0
   41.9200   27.7480   41.8820 H   0  0  0  0  0  0  0  0  0  0  0  0
   40.3050   32.2320   42.9960 H   0  0  0  0  0  0  0  0  0  0  0  0
   36.7770   28.0140   41.9320 O   0  0  0  0  0  0  0  0  0  0  0  0
   36.3420   28.8990   40.9950 C   0  0  0  0  0  0  0  0  0  0  0  0
   35.0180   28.8350   40.6560 O   0  0  0  0  0  0  0  0  0  0  0  0
   36.7220   30.0530   40.0810 C   0  0  0  0  0  0  0  0  0  0  0  0
   36.7350   31.2760   40.6740 C   0  0  0  0  0  0  0  0  0  0  0  0
   36.5070   31.6360   41.6600 H   0  0  0  0  0  0  0  0  0  0  0  0
   37.1190   32.3470   39.8490 C   0  0  0  0  0  0  0  0  0  0  0  0
   37.1590   33.3420   40.2280 H   0  0  0  0  0  0  0  0  0  0  0  0
   37.4600   32.1750   38.5390 C   0  0  0  0  0  3  0  0  0  0  0  0
   37.4180   30.9100   38.0350 C   0  0  0  0  0  3  0  0  0  0  0  0
   37.0580   29.9270   38.8150 N   0  0  0  0  0  0  0  0  0  0  0  0
   38.3530   25.7210   41.7220 O   0  0  0  0  0  0  0  0  0  0  0  0
   37.1140   25.1000   41.7440 C   0  0  0  0  0  0  0  0  0  0  0  0
   36.3850   25.4100   42.8800 F   0  0  0  0  0  0  0  0  0  0  0  0
   36.4340   25.3610   40.5980 F   0  0  0  0  0  0  0  0  0  0  0  0
   37.3670   23.7350   41.8020 F   0  0  0  0  0  0  0  0  0  0  0  0
  2  1  2  1  0  0  0
  3  6  1  0  0  0  0
  3  2  1  0  0  0  0
  4 10  1  0  0  0  0
  4  9  1  0  0  0  0
  5  4  2  0  0  0  0
  6  5  1  0  0  0  0
  6  7  2  0  0  0  0
  7  8  1  0  0  0  0
  8 12  1  0  0  0  0
  8  9  2  0  0  0  0
 11  5  1  0  0  0  0
 13  2  1  0  0  0  0
 14 13  1  0  0  0  0
 15 14  2  0  0  0  0
 16 17  1  0  0  0  0
 16 14  1  0  0  0  0
 17 18  1  0  0  0  0
 19 20  1  0  0  0  0
 19 17  2  0  0  0  0
 21 19  1  0  0  0  0
 22 21  2  0  0  0  0
 22 23  1  0  0  0  0
 23 16  2  0  0  0  0
 24 25  1  0  0  0  0
 24  2  1  0  0  0  0
 25 28  1  0  0  0  0
 25 26  1  0  0  0  0
 27 25  1  0  0  0  0
M  END
>  <minimizedAffinity>
-4.61090851

$$$$
