
 OpenBabel03252507593D

 28 30  0  0  1  0  0  0  0  0999 V2000
   46.9830   32.8050   44.6550 C   0  0  0  0  0  0  0  0  0  0  0  0
   46.0680   33.8840   44.4680 C   0  0  0  0  0  0  0  0  0  0  0  0
   45.2760   34.2100   45.5670 C   0  0  0  0  0  0  0  0  0  0  0  0
   45.4190   33.5040   46.7130 N   0  0  0  0  0  0  0  0  0  0  0  0
   46.3240   32.4730   46.8200 C   0  0  0  0  0  0  0  0  0  0  0  0
   47.1000   32.1190   45.8140 N   0  0  0  0  0  0  0  0  0  0  0  0
   46.0230   34.3930   43.5160 H   0  0  0  0  0  0  0  0  0  0  0  0
   44.5690   35.0180   45.4750 H   0  0  0  0  0  0  0  0  0  0  0  0
   46.4330   31.7570   48.1250 C   0  0  1  0  0  0  0  0  0  0  0  0
   45.2210   31.6880   49.0260 C   0  0  0  0  0  0  0  0  0  0  0  0
   45.6550   30.5040   48.2060 C   0  0  1  0  0  0  0  0  0  0  0  0
   47.4230   31.7930   48.6150 H   0  0  0  0  0  0  0  0  0  0  0  0
   44.3350   32.2760   48.7790 H   0  0  0  0  0  0  0  0  0  0  0  0
   45.4470   31.5760   50.1050 H   0  0  0  0  0  0  0  0  0  0  0  0
   46.0400   29.6060   48.7080 H   0  0  0  0  0  0  0  0  0  0  0  0
   44.6710   30.2010   47.1570 N   0  0  0  0  0  0  0  0  0  0  0  0
   43.7220   30.2220   47.5690 H   0  0  0  0  0  0  0  0  0  0  0  0
   44.9180   29.3200   46.6560 H   0  0  0  0  0  0  0  0  0  0  0  0
   47.8050   32.4940   43.5020 C   0  0  0  0  0  0  0  0  0  0  0  0
   48.3010   31.3290   43.2930 O   0  0  0  0  0  0  0  0  0  0  0  0
   48.1090   33.5230   42.5090 C   0  0  0  0  0  0  0  0  0  0  0  0
   49.0220   34.5160   42.8050 C   0  0  0  0  0  0  0  0  0  0  0  0
   49.5220   34.5440   43.7740 H   0  0  0  0  0  0  0  0  0  0  0  0
   49.3760   35.5270   41.9400 C   0  0  0  0  0  0  0  0  0  0  0  0
   50.0930   36.2930   42.1930 H   0  0  0  0  0  0  0  0  0  0  0  0
   48.7420   35.4970   40.7000 C   0  0  0  0  0  3  0  0  0  0  0  0
   47.8340   34.4940   40.4270 C   0  0  0  0  0  3  0  0  0  0  0  0
   47.5120   33.5160   41.3090 N   0  0  0  0  0  0  0  0  0  0  0  0
  1  6  1  0  0  0  0
  2  1  2  0  0  0  0
  2  3  1  0  0  0  0
  3  4  2  0  0  0  0
  4  5  1  0  0  0  0
  5  9  1  0  0  0  0
  6  5  2  0  0  0  0
  7  2  1  0  0  0  0
  8  3  1  0  0  0  0
  9 11  1  0  0  0  0
  9 12  1  1  0  0  0
  9 10  1  0  0  0  0
 10 14  1  0  0  0  0
 11 15  1  1  0  0  0
 11 10  1  0  0  0  0
 13 10  1  0  0  0  0
 16 17  1  0  0  0  0
 16 11  1  0  0  0  0
 18 16  1  0  0  0  0
 19  1  1  0  0  0  0
 20 19  2  0  0  0  0
 21 22  1  0  0  0  0
 21 19  1  0  0  0  0
 22 23  1  0  0  0  0
 24 25  1  0  0  0  0
 24 22  2  0  0  0  0
 26 24  1  0  0  0  0
 27 26  2  0  0  0  0
 27 28  1  0  0  0  0
 28 21  2  0  0  0  0
M  END
>  <minimizedAffinity>
-5.45542479

>  <minimizedRMSD>
3.08246136

$$$$
