REMARK  Name = 
REMARK  2 active torsions:
REMARK  status: ('A' for Active; 'I' for Inactive)
REMARK    1  A    between atoms: C_3  and  S_7
REMARK    2  A    between atoms: C_5  and  C_11
REMARK                            x       y       z     vdW  Elec       q    Type
REMARK                         _______ _______ _______ _____ _____    ______ ____
ROOT
ATOM      1  C   UNL     1      44.545  36.023  44.529  0.00  0.00    +0.000 A 
ATOM      2  C   UNL     1      45.260  35.894  43.319  0.00  0.00    +0.000 A 
ATOM      3  C   UNL     1      46.128  34.797  43.209  0.00  0.00    +0.000 A 
ATOM      4  N   UNL     1      46.234  33.931  44.254  0.00  0.00    +0.000 NA
ATOM      5  C   UNL     1      45.525  34.103  45.389  0.00  0.00    +0.000 A 
ATOM      6  N   UNL     1      44.685  35.142  45.529  0.00  0.00    +0.000 NA
ATOM      7  H   UNL     1      43.879  36.864  44.615  0.00  0.00    +0.000 HD
ATOM      8  H   UNL     1      45.187  36.566  42.491  0.00  0.00    +0.000 HD
ENDROOT
BRANCH   5   9
ATOM      9  C   UNL     1      45.688  33.136  46.469  0.00  0.00    +0.000 A 
ATOM     10  C   UNL     1      46.305  31.915  46.203  0.00  0.00    +0.000 A 
ATOM     11  H   UNL     1      46.650  31.713  45.195  0.00  0.00    +0.000 HD
ATOM     12  C   UNL     1      46.455  31.000  47.240  0.00  0.00    +0.000 A 
ATOM     13  H   UNL     1      46.921  30.062  47.067  0.00  0.00    +0.000 HD
ATOM     14  C   UNL     1      45.972  31.385  48.471  0.00  0.00    +0.000 A 
ATOM     15  C   UNL     1      45.354  32.601  48.750  0.00  0.00    +0.000 A 
ATOM     16  N   UNL     1      45.244  33.433  47.704  0.00  0.00    +0.000 NA
ENDBRANCH   5   9
BRANCH   3  17
ATOM     17  S   UNL     1      47.074  34.563  41.700  0.00  0.00    +0.000 S 
ATOM     18  H   UNL     1      48.442  34.621  42.084  0.00  0.00    +0.000 HD
ENDBRANCH   3  17
TORSDOF 2
