REMARK  Name = 
REMARK  5 active torsions:
REMARK  status: ('A' for Active; 'I' for Inactive)
REMARK    1  A    between atoms: C_1  and  N_2
REMARK    2  A    between atoms: C_1  and  C_9
REMARK    3  A    between atoms: C_7  and  S_8
REMARK    4  A    between atoms: C_9  and  C_10
REMARK    5  A    between atoms: C_14  and  C_30
REMARK                            x       y       z     vdW  Elec       q    Type
REMARK                         _______ _______ _______ _____ _____    ______ ____
ROOT
ATOM      1  C   UNL     1      43.640  33.542  40.776  0.00  0.00    +0.000 C 
ATOM      2  H   UNL     1      43.706  32.606  40.204  0.00  0.00    +0.000 HD
ATOM      3  H   UNL     1      43.700  33.304  41.860  0.00  0.00    +0.000 HD
ENDROOT
BRANCH   1   4
ATOM      4  C   UNL     1      42.375  34.290  40.539  0.00  0.00    +0.000 A 
ATOM      5  C   UNL     1      41.632  34.143  39.379  0.00  0.00    +0.000 A 
ATOM      6  C   UNL     1      40.477  34.901  39.254  0.00  0.00    +0.000 A 
ATOM      7  N   UNL     1      40.126  35.745  40.261  0.00  0.00    +0.000 NA
ATOM      8  C   UNL     1      40.865  35.858  41.360  0.00  0.00    +0.000 A 
ATOM      9  N   UNL     1      41.981  35.130  41.487  0.00  0.00    +0.000 NA
ATOM     10  H   UNL     1      41.969  33.456  38.622  0.00  0.00    +0.000 HD
ATOM     11  H   UNL     1      39.878  34.808  38.361  0.00  0.00    +0.000 HD
BRANCH   8  12
ATOM     12  C   UNL     1      40.421  36.787  42.398  0.00  0.00    +0.000 A 
ATOM     13  C   UNL     1      41.140  36.954  43.565  0.00  0.00    +0.000 A 
ATOM     14  H   UNL     1      42.059  36.404  43.752  0.00  0.00    +0.000 HD
ATOM     15  C   UNL     1      40.701  37.837  44.531  0.00  0.00    +0.000 A 
ATOM     16  H   UNL     1      41.196  38.033  45.470  0.00  0.00    +0.000 HD
ATOM     17  C   UNL     1      39.534  38.494  44.220  0.00  0.00    +0.000 A 
ATOM     18  C   UNL     1      38.772  38.365  43.067  0.00  0.00    +0.000 A 
ATOM     19  N   UNL     1      39.281  37.478  42.179  0.00  0.00    +0.000 NA
ENDBRANCH   8  12
ENDBRANCH   1   4
BRANCH   1  20
ATOM     20  C   UNL     1      44.764  34.484  40.462  0.00  0.00    +0.000 C 
ATOM     21  H   UNL     1      44.866  34.553  39.342  0.00  0.00    +0.000 HD
ATOM     22  H   UNL     1      44.354  35.523  40.690  0.00  0.00    +0.000 HD
BRANCH  20  23
ATOM     23  N   UNL     1      45.919  34.121  41.008  0.00  0.00    +0.000 N 
ATOM     24  C   UNL     1      46.834  33.131  40.570  0.00  0.00    +0.000 C 
ATOM     25  C   UNL     1      47.901  34.052  39.938  0.00  0.00    +0.000 C 
ATOM     26  C   UNL     1      48.503  34.986  40.893  0.00  0.00    +0.000 C 
ATOM     27  C   UNL     1      47.759  35.321  42.108  0.00  0.00    +0.000 C 
ATOM     28  C   UNL     1      46.323  34.878  42.200  0.00  0.00    +0.000 C 
ATOM     29  H   UNL     1      47.232  32.412  41.258  0.00  0.00    +0.000 HD
ATOM     30  H   UNL     1      46.396  32.591  39.679  0.00  0.00    +0.000 HD
ATOM     31  H   UNL     1      47.350  34.590  39.139  0.00  0.00    +0.000 HD
ATOM     32  H   UNL     1      48.679  33.433  39.428  0.00  0.00    +0.000 HD
ATOM     33  H   UNL     1      49.489  34.563  41.241  0.00  0.00    +0.000 HD
ATOM     34  H   UNL     1      48.808  35.911  40.319  0.00  0.00    +0.000 HD
ATOM     35  H   UNL     1      48.106  35.870  42.943  0.00  0.00    +0.000 HD
BRANCH  28  36
ATOM     36  S   UNL     1      45.305  35.297  43.574  0.00  0.00    +0.000 S 
ATOM     37  H   UNL     1      45.020  36.658  43.682  0.00  0.00    +0.000 HD
ENDBRANCH  28  36
ENDBRANCH  20  23
ENDBRANCH   1  20
TORSDOF 5
