
 OpenBabel03242523393D

 18 19  0  0  0  0  0  0  0  0999 V2000
   37.6050   33.1530   39.9130 C   0  0  0  0  0  0  0  0  0  0  0  0
   38.9510   33.5780   39.9340 C   0  0  0  0  0  0  0  0  0  0  0  0
   39.8700   32.7420   40.5880 C   0  0  0  0  0  0  0  0  0  0  0  0
   39.4250   31.5880   41.1560 N   0  0  0  0  0  0  0  0  0  0  0  0
   38.1250   31.2310   41.1050 C   0  0  0  0  0  0  0  0  0  0  0  0
   37.2180   32.0070   40.4890 N   0  0  0  0  0  0  0  0  0  0  0  0
   36.9000   33.7930   39.4130 H   0  0  0  0  0  0  0  0  0  0  0  0
   39.3150   34.4810   39.4930 H   0  0  0  0  0  0  0  0  0  0  0  0
   37.7180   29.9800   41.7360 C   0  0  0  0  0  0  0  0  0  0  0  0
   38.3810   29.5460   42.8810 C   0  0  0  0  0  0  0  0  0  0  0  0
   39.1880   30.1520   43.2790 H   0  0  0  0  0  0  0  0  0  0  0  0
   37.9850   28.3510   43.4750 C   0  0  0  0  0  0  0  0  0  0  0  0
   38.4720   27.9960   44.3490 H   0  0  0  0  0  0  0  0  0  0  0  0
   36.9460   27.6820   42.8680 C   0  0  0  0  0  3  0  0  0  0  0  0
   36.2740   28.1040   41.7230 C   0  0  0  0  0  3  0  0  0  0  0  0
   36.7100   29.2620   41.2070 N   0  0  0  0  0  0  0  0  0  0  0  0
   41.6020   33.2120   40.6580 S   0  0  0  0  0  0  0  0  0  0  0  0
   41.9150   33.3420   42.0390 H   0  0  0  0  0  0  0  0  0  0  0  0
  1  2  2  0  0  0  0
  1  6  1  0  0  0  0
  2  3  1  0  0  0  0
  3 17  1  0  0  0  0
  3  4  2  0  0  0  0
  5  4  1  0  0  0  0
  5  9  1  0  0  0  0
  6  5  2  0  0  0  0
  7  1  1  0  0  0  0
  8  2  1  0  0  0  0
  9 10  1  0  0  0  0
 10 11  1  0  0  0  0
 10 12  2  0  0  0  0
 12 13  1  0  0  0  0
 14 12  1  0  0  0  0
 15 14  2  0  0  0  0
 16 15  1  0  0  0  0
 16  9  2  0  0  0  0
 17 18  1  0  0  0  0
M  END
>  <minimizedAffinity>
-4.19593287

$$$$

 OpenBabel03242523393D

 18 19  0  0  0  0  0  0  0  0999 V2000
   36.9610   31.0880   38.5170 C   0  0  0  0  0  0  0  0  0  0  0  0
   37.5100   32.3640   38.7670 C   0  0  0  0  0  0  0  0  0  0  0  0
   38.1040   32.5640   40.0230 C   0  0  0  0  0  0  0  0  0  0  0  0
   38.1200   31.5380   40.9170 N   0  0  0  0  0  0  0  0  0  0  0  0
   37.5800   30.3370   40.6240 C   0  0  0  0  0  0  0  0  0  0  0  0
   37.0020   30.1100   39.4320 N   0  0  0  0  0  0  0  0  0  0  0  0
   36.5040   30.9340   37.5550 H   0  0  0  0  0  0  0  0  0  0  0  0
   37.5040   33.1790   38.0750 H   0  0  0  0  0  0  0  0  0  0  0  0
   37.6330   29.2820   41.6300 C   0  0  0  0  0  0  0  0  0  0  0  0
   36.5200   28.4660   41.8220 C   0  0  0  0  0  0  0  0  0  0  0  0
   35.6370   28.6360   41.2160 H   0  0  0  0  0  0  0  0  0  0  0  0
   36.5820   27.4630   42.7850 C   0  0  0  0  0  0  0  0  0  0  0  0
   35.7480   26.8260   42.9520 H   0  0  0  0  0  0  0  0  0  0  0  0
   37.7630   27.3570   43.4830 C   0  0  0  0  0  3  0  0  0  0  0  0
   38.8820   28.1650   43.3010 C   0  0  0  0  0  3  0  0  0  0  0  0
   38.7510   29.1090   42.3590 N   0  0  0  0  0  0  0  0  0  0  0  0
   38.8250   34.1610   40.4180 S   0  0  0  0  0  0  0  0  0  0  0  0
   38.1050   34.6470   41.5430 H   0  0  0  0  0  0  0  0  0  0  0  0
  1  2  2  0  0  0  0
  1  6  1  0  0  0  0
  2  3  1  0  0  0  0
  3 17  1  0  0  0  0
  3  4  2  0  0  0  0
  5  4  1  0  0  0  0
  5  9  1  0  0  0  0
  6  5  2  0  0  0  0
  7  1  1  0  0  0  0
  8  2  1  0  0  0  0
  9 10  2  0  0  0  0
  9 16  1  0  0  0  0
 10 12  1  0  0  0  0
 11 10  1  0  0  0  0
 12 13  1  0  0  0  0
 12 14  2  0  0  0  0
 15 14  1  0  0  0  0
 16 15  2  0  0  0  0
 17 18  1  0  0  0  0
M  END
>  <minimizedAffinity>
-4.14331484

$$$$

 OpenBabel03242523393D

 18 19  0  0  0  0  0  0  0  0999 V2000
   37.5010   28.0750   43.5620 C   0  0  0  0  0  0  0  0  0  0  0  0
   37.2720   26.9360   42.7620 C   0  0  0  0  0  0  0  0  0  0  0  0
   37.2290   27.1340   41.3730 C   0  0  0  0  0  0  0  0  0  0  0  0
   37.4070   28.3900   40.8800 N   0  0  0  0  0  0  0  0  0  0  0  0
   37.6240   29.4450   41.6930 C   0  0  0  0  0  0  0  0  0  0  0  0
   37.6700   29.2920   43.0270 N   0  0  0  0  0  0  0  0  0  0  0  0
   37.5340   27.9250   44.6280 H   0  0  0  0  0  0  0  0  0  0  0  0
   37.1300   25.9450   43.1360 H   0  0  0  0  0  0  0  0  0  0  0  0
   37.8060   30.7630   41.0950 C   0  0  0  0  0  0  0  0  0  0  0  0
   36.8780   31.2250   40.1660 C   0  0  0  0  0  0  0  0  0  0  0  0
   36.0360   30.5910   39.9080 H   0  0  0  0  0  0  0  0  0  0  0  0
   37.0620   32.4840   39.6020 C   0  0  0  0  0  0  0  0  0  0  0  0
   36.3690   32.8620   38.8910 H   0  0  0  0  0  0  0  0  0  0  0  0
   38.1720   33.1840   40.0180 C   0  0  0  0  0  3  0  0  0  0  0  0
   39.1080   32.7340   40.9450 C   0  0  0  0  0  3  0  0  0  0  0  0
   38.8670   31.5140   41.4460 N   0  0  0  0  0  0  0  0  0  0  0  0
   36.9420   25.7330   40.2860 S   0  0  0  0  0  0  0  0  0  0  0  0
   35.7390   26.0230   39.5860 H   0  0  0  0  0  0  0  0  0  0  0  0
  1  7  1  0  0  0  0
  2  8  1  0  0  0  0
  2  1  2  0  0  0  0
  3  2  1  0  0  0  0
  4  3  2  0  0  0  0
  4  5  1  0  0  0  0
  5  6  2  0  0  0  0
  6  1  1  0  0  0  0
  9 16  1  0  0  0  0
  9  5  1  0  0  0  0
 10  9  2  0  0  0  0
 11 10  1  0  0  0  0
 12 14  2  0  0  0  0
 12 10  1  0  0  0  0
 13 12  1  0  0  0  0
 14 15  1  0  0  0  0
 15 16  2  0  0  0  0
 17  3  1  0  0  0  0
 18 17  1  0  0  0  0
M  END
>  <minimizedAffinity>
-4.1209631

$$$$

 OpenBabel03242523393D

 18 19  0  0  0  0  0  0  0  0999 V2000
   37.3180   28.2140   43.0730 C   0  0  0  0  0  0  0  0  0  0  0  0
   38.5710   27.6430   43.3830 C   0  0  0  0  0  0  0  0  0  0  0  0
   39.7100   28.3260   42.9290 C   0  0  0  0  0  0  0  0  0  0  0  0
   39.5510   29.4810   42.2260 N   0  0  0  0  0  0  0  0  0  0  0  0
   38.3270   29.9820   41.9580 C   0  0  0  0  0  0  0  0  0  0  0  0
   37.2160   29.3550   42.3780 N   0  0  0  0  0  0  0  0  0  0  0  0
   36.4440   27.6920   43.4210 H   0  0  0  0  0  0  0  0  0  0  0  0
   38.7110   26.7370   43.9330 H   0  0  0  0  0  0  0  0  0  0  0  0
   38.2310   31.2250   41.2000 C   0  0  0  0  0  0  0  0  0  0  0  0
   37.1650   31.4070   40.3220 C   0  0  0  0  0  0  0  0  0  0  0  0
   36.4280   30.6180   40.2240 H   0  0  0  0  0  0  0  0  0  0  0  0
   37.0840   32.5960   39.6040 C   0  0  0  0  0  0  0  0  0  0  0  0
   36.2810   32.7630   38.9280 H   0  0  0  0  0  0  0  0  0  0  0  0
   38.0860   33.5140   39.8240 C   0  0  0  0  0  3  0  0  0  0  0  0
   39.1560   33.3450   40.6980 C   0  0  0  0  0  3  0  0  0  0  0  0
   39.1700   32.1760   41.3560 N   0  0  0  0  0  0  0  0  0  0  0  0
   41.3410   27.6620   43.2830 S   0  0  0  0  0  0  0  0  0  0  0  0
   41.9410   27.4060   42.0190 H   0  0  0  0  0  0  0  0  0  0  0  0
  1  2  1  0  0  0  0
  1  7  1  0  0  0  0
  2  8  1  0  0  0  0
  3 17  1  0  0  0  0
  3  2  2  0  0  0  0
  4  3  1  0  0  0  0
  5  4  2  0  0  0  0
  5  6  1  0  0  0  0
  6  1  2  0  0  0  0
  9 16  1  0  0  0  0
  9  5  1  0  0  0  0
 10  9  2  0  0  0  0
 11 10  1  0  0  0  0
 12 14  2  0  0  0  0
 12 10  1  0  0  0  0
 13 12  1  0  0  0  0
 14 15  1  0  0  0  0
 15 16  2  0  0  0  0
 18 17  1  0  0  0  0
M  END
>  <minimizedAffinity>
-4.08151007

$$$$

 OpenBabel03242523393D

 18 19  0  0  0  0  0  0  0  0999 V2000
   35.6310   29.4900   40.6980 C   0  0  0  0  0  0  0  0  0  0  0  0
   36.2290   30.7520   40.4940 C   0  0  0  0  0  0  0  0  0  0  0  0
   37.5650   30.8940   40.8970 C   0  0  0  0  0  0  0  0  0  0  0  0
   38.2040   29.8290   41.4540 N   0  0  0  0  0  0  0  0  0  0  0  0
   37.5830   28.6430   41.6250 C   0  0  0  0  0  0  0  0  0  0  0  0
   36.3040   28.4720   41.2510 N   0  0  0  0  0  0  0  0  0  0  0  0
   34.6060   29.3800   40.3890 H   0  0  0  0  0  0  0  0  0  0  0  0
   35.7390   31.5970   40.0580 H   0  0  0  0  0  0  0  0  0  0  0  0
   38.3280   27.5440   42.2290 C   0  0  0  0  0  0  0  0  0  0  0  0
   37.9850   26.2320   41.9130 C   0  0  0  0  0  0  0  0  0  0  0  0
   37.1680   26.0580   41.2210 H   0  0  0  0  0  0  0  0  0  0  0  0
   38.7020   25.1920   42.4950 C   0  0  0  0  0  0  0  0  0  0  0  0
   38.4630   24.1810   42.2710 H   0  0  0  0  0  0  0  0  0  0  0  0
   39.7150   25.5530   43.3550 C   0  0  0  0  0  3  0  0  0  0  0  0
   40.0680   26.8600   43.6800 C   0  0  0  0  0  3  0  0  0  0  0  0
   39.3350   27.8090   43.0830 N   0  0  0  0  0  0  0  0  0  0  0  0
   38.3970   32.4700   40.6710 S   0  0  0  0  0  0  0  0  0  0  0  0
   38.7670   32.9070   41.9720 H   0  0  0  0  0  0  0  0  0  0  0  0
  1  6  1  0  0  0  0
  2  1  2  0  0  0  0
  2  3  1  0  0  0  0
  3  4  2  0  0  0  0
  4  5  1  0  0  0  0
  5  9  1  0  0  0  0
  6  5  2  0  0  0  0
  7  1  1  0  0  0  0
  8  2  1  0  0  0  0
  9 16  1  0  0  0  0
 10  9  2  0  0  0  0
 10 12  1  0  0  0  0
 11 10  1  0  0  0  0
 12 14  2  0  0  0  0
 13 12  1  0  0  0  0
 14 15  1  0  0  0  0
 16 15  2  0  0  0  0
 17  3  1  0  0  0  0
 17 18  1  0  0  0  0
M  END
>  <minimizedAffinity>
-3.90238404

$$$$

 OpenBabel03242523393D

 18 19  0  0  0  0  0  0  0  0999 V2000
   37.5790   30.0130   37.8380 C   0  0  0  0  0  0  0  0  0  0  0  0
   37.5370   31.4170   37.9710 C   0  0  0  0  0  0  0  0  0  0  0  0
   37.4380   31.9280   39.2740 C   0  0  0  0  0  0  0  0  0  0  0  0
   37.3880   31.0600   40.3220 N   0  0  0  0  0  0  0  0  0  0  0  0
   37.4320   29.7250   40.1360 C   0  0  0  0  0  0  0  0  0  0  0  0
   37.5270   29.2010   38.9020 N   0  0  0  0  0  0  0  0  0  0  0  0
   37.6540   29.6200   36.8390 H   0  0  0  0  0  0  0  0  0  0  0  0
   37.5740   32.1100   37.1580 H   0  0  0  0  0  0  0  0  0  0  0  0
   37.3750   28.8530   41.3040 C   0  0  0  0  0  0  0  0  0  0  0  0
   37.5880   29.3940   42.5700 C   0  0  0  0  0  0  0  0  0  0  0  0
   37.7910   30.4560   42.6570 H   0  0  0  0  0  0  0  0  0  0  0  0
   37.5300   28.5540   43.6770 C   0  0  0  0  0  0  0  0  0  0  0  0
   37.6880   28.9390   44.6550 H   0  0  0  0  0  0  0  0  0  0  0  0
   37.2620   27.2270   43.4250 C   0  0  0  0  0  3  0  0  0  0  0  0
   37.0480   26.6730   42.1660 C   0  0  0  0  0  3  0  0  0  0  0  0
   37.1180   27.5410   41.1470 N   0  0  0  0  0  0  0  0  0  0  0  0
   37.3790   33.7060   39.5270 S   0  0  0  0  0  0  0  0  0  0  0  0
   36.1320   33.9680   40.1600 H   0  0  0  0  0  0  0  0  0  0  0  0
  1  2  2  0  0  0  0
  1  6  1  0  0  0  0
  2  3  1  0  0  0  0
  3 17  1  0  0  0  0
  3  4  2  0  0  0  0
  5  4  1  0  0  0  0
  5  9  1  0  0  0  0
  6  5  2  0  0  0  0
  7  1  1  0  0  0  0
  8  2  1  0  0  0  0
  9 10  1  0  0  0  0
 10 11  1  0  0  0  0
 10 12  2  0  0  0  0
 12 13  1  0  0  0  0
 14 12  1  0  0  0  0
 15 14  2  0  0  0  0
 16  9  2  0  0  0  0
 16 15  1  0  0  0  0
 17 18  1  0  0  0  0
M  END
>  <minimizedAffinity>
-3.84405422

$$$$

 OpenBabel03242523393D

 18 19  0  0  0  0  0  0  0  0999 V2000
   39.8090   30.6720   38.7080 C   0  0  0  0  0  0  0  0  0  0  0  0
   39.7150   32.0470   39.0090 C   0  0  0  0  0  0  0  0  0  0  0  0
   39.0260   32.3940   40.1820 C   0  0  0  0  0  0  0  0  0  0  0  0
   38.4950   31.4050   40.9530 N   0  0  0  0  0  0  0  0  0  0  0  0
   38.6160   30.1040   40.6160 C   0  0  0  0  0  0  0  0  0  0  0  0
   39.2680   29.7370   39.5000 N   0  0  0  0  0  0  0  0  0  0  0  0
   40.3370   30.4050   37.8080 H   0  0  0  0  0  0  0  0  0  0  0  0
   40.1260   32.8340   38.4140 H   0  0  0  0  0  0  0  0  0  0  0  0
   38.0220   29.0980   41.4880 C   0  0  0  0  0  0  0  0  0  0  0  0
   37.9400   29.3430   42.8570 C   0  0  0  0  0  0  0  0  0  0  0  0
   38.3220   30.2820   43.2420 H   0  0  0  0  0  0  0  0  0  0  0  0
   37.3720   28.3760   43.6800 C   0  0  0  0  0  0  0  0  0  0  0  0
   37.2960   28.5370   44.7270 H   0  0  0  0  0  0  0  0  0  0  0  0
   36.9270   27.2300   43.0600 C   0  0  0  0  0  3  0  0  0  0  0  0
   37.0030   26.9710   41.6930 C   0  0  0  0  0  3  0  0  0  0  0  0
   37.5620   27.9470   40.9630 N   0  0  0  0  0  0  0  0  0  0  0  0
   38.8630   34.1240   40.6360 S   0  0  0  0  0  0  0  0  0  0  0  0
   37.4660   34.3910   40.6590 H   0  0  0  0  0  0  0  0  0  0  0  0
  1  2  2  0  0  0  0
  1  6  1  0  0  0  0
  2  3  1  0  0  0  0
  3 17  1  0  0  0  0
  3  4  2  0  0  0  0
  5  4  1  0  0  0  0
  5  9  1  0  0  0  0
  6  5  2  0  0  0  0
  7  1  1  0  0  0  0
  8  2  1  0  0  0  0
  9 10  1  0  0  0  0
 10 11  1  0  0  0  0
 10 12  2  0  0  0  0
 12 13  1  0  0  0  0
 14 12  1  0  0  0  0
 15 14  2  0  0  0  0
 16  9  2  0  0  0  0
 16 15  1  0  0  0  0
 17 18  1  0  0  0  0
M  END
>  <minimizedAffinity>
-3.79509425

$$$$

 OpenBabel03242523393D

 18 19  0  0  0  0  0  0  0  0999 V2000
   38.3310   27.9940   43.4360 C   0  0  0  0  0  0  0  0  0  0  0  0
   37.8020   29.2010   42.9310 C   0  0  0  0  0  0  0  0  0  0  0  0
   37.0610   29.1210   41.7420 C   0  0  0  0  0  0  0  0  0  0  0  0
   36.8920   27.9070   41.1490 N   0  0  0  0  0  0  0  0  0  0  0  0
   37.4200   26.7830   41.6780 C   0  0  0  0  0  0  0  0  0  0  0  0
   38.1360   26.8230   42.8140 N   0  0  0  0  0  0  0  0  0  0  0  0
   38.9000   28.0540   44.3470 H   0  0  0  0  0  0  0  0  0  0  0  0
   37.9270   30.1610   43.3850 H   0  0  0  0  0  0  0  0  0  0  0  0
   37.2000   25.5160   40.9890 C   0  0  0  0  0  0  0  0  0  0  0  0
   37.7570   24.3510   41.5100 C   0  0  0  0  0  0  0  0  0  0  0  0
   38.3430   24.4140   42.4200 H   0  0  0  0  0  0  0  0  0  0  0  0
   37.5410   23.1480   40.8450 C   0  0  0  0  0  0  0  0  0  0  0  0
   37.9520   22.2430   41.2200 H   0  0  0  0  0  0  0  0  0  0  0  0
   36.7770   23.2100   39.7000 C   0  0  0  0  0  3  0  0  0  0  0  0
   36.2150   24.3680   39.1690 C   0  0  0  0  0  3  0  0  0  0  0  0
   36.4650   25.4880   39.8620 N   0  0  0  0  0  0  0  0  0  0  0  0
   36.3560   30.6140   41.0350 S   0  0  0  0  0  0  0  0  0  0  0  0
   36.9450   30.7520   39.7480 H   0  0  0  0  0  0  0  0  0  0  0  0
  1  7  1  0  0  0  0
  2  8  1  0  0  0  0
  2  1  1  0  0  0  0
  3  2  2  0  0  0  0
  4  5  2  0  0  0  0
  4  3  1  0  0  0  0
  5  6  1  0  0  0  0
  6  1  2  0  0  0  0
  9 10  1  0  0  0  0
  9  5  1  0  0  0  0
 10 11  1  0  0  0  0
 12 13  1  0  0  0  0
 12 10  2  0  0  0  0
 14 12  1  0  0  0  0
 15 14  2  0  0  0  0
 15 16  1  0  0  0  0
 16  9  2  0  0  0  0
 17  3  1  0  0  0  0
 18 17  1  0  0  0  0
M  END
>  <minimizedAffinity>
-3.79121542

$$$$

 OpenBabel03242523393D

 18 19  0  0  0  0  0  0  0  0999 V2000
   36.9960   27.8040   39.9060 C   0  0  0  0  0  0  0  0  0  0  0  0
   37.4340   27.1810   41.0940 C   0  0  0  0  0  0  0  0  0  0  0  0
   38.0420   28.0040   42.0540 C   0  0  0  0  0  0  0  0  0  0  0  0
   38.1750   29.3340   41.7970 N   0  0  0  0  0  0  0  0  0  0  0  0
   37.7360   29.8770   40.6420 C   0  0  0  0  0  0  0  0  0  0  0  0
   37.1500   29.1190   39.7000 N   0  0  0  0  0  0  0  0  0  0  0  0
   36.5290   27.1750   39.1680 H   0  0  0  0  0  0  0  0  0  0  0  0
   37.3370   26.1390   41.3090 H   0  0  0  0  0  0  0  0  0  0  0  0
   37.9120   31.3100   40.4320 C   0  0  0  0  0  0  0  0  0  0  0  0
   37.0290   31.9900   39.5960 C   0  0  0  0  0  0  0  0  0  0  0  0
   36.2280   31.4350   39.1200 H   0  0  0  0  0  0  0  0  0  0  0  0
   37.2060   33.3570   39.4030 C   0  0  0  0  0  0  0  0  0  0  0  0
   36.5470   33.9010   38.7720 H   0  0  0  0  0  0  0  0  0  0  0  0
   38.2630   33.9370   40.0680 C   0  0  0  0  0  3  0  0  0  0  0  0
   39.1520   33.2690   40.9060 C   0  0  0  0  0  3  0  0  0  0  0  0
   38.9210   31.9560   41.0450 N   0  0  0  0  0  0  0  0  0  0  0  0
   38.6270   27.2860   43.5940 S   0  0  0  0  0  0  0  0  0  0  0  0
   40.0280   27.5250   43.6280 H   0  0  0  0  0  0  0  0  0  0  0  0
  1  2  1  0  0  0  0
  2  8  1  0  0  0  0
  2  3  2  0  0  0  0
  3 17  1  0  0  0  0
  4  3  1  0  0  0  0
  5  4  2  0  0  0  0
  6  1  2  0  0  0  0
  6  5  1  0  0  0  0
  7  1  1  0  0  0  0
  9  5  1  0  0  0  0
  9 16  1  0  0  0  0
 10  9  2  0  0  0  0
 11 10  1  0  0  0  0
 12 10  1  0  0  0  0
 12 14  2  0  0  0  0
 13 12  1  0  0  0  0
 14 15  1  0  0  0  0
 15 16  2  0  0  0  0
 17 18  1  0  0  0  0
M  END
>  <minimizedAffinity>
-3.78380823

$$$$
