
 OpenBabel03242523383D

 18 19  0  0  0  0  0  0  0  0999 V2000
   44.5230   35.5750   45.0010 C   0  0  0  0  0  0  0  0  0  0  0  0
   45.2160   35.4620   43.7760 C   0  0  0  0  0  0  0  0  0  0  0  0
   46.1580   34.4270   43.6730 C   0  0  0  0  0  0  0  0  0  0  0  0
   46.3510   33.6010   44.7380 N   0  0  0  0  0  0  0  0  0  0  0  0
   45.6590   33.7550   45.8860 C   0  0  0  0  0  0  0  0  0  0  0  0
   44.7510   34.7360   46.0200 N   0  0  0  0  0  0  0  0  0  0  0  0
   43.8010   36.3690   45.0810 H   0  0  0  0  0  0  0  0  0  0  0  0
   45.0750   36.1030   42.9320 H   0  0  0  0  0  0  0  0  0  0  0  0
   45.9180   32.8340   46.9880 C   0  0  0  0  0  0  0  0  0  0  0  0
   47.2140   32.3710   47.1990 C   0  0  0  0  0  0  0  0  0  0  0  0
   48.0040   32.7080   46.5360 H   0  0  0  0  0  0  0  0  0  0  0  0
   47.4500   31.4920   48.2520 C   0  0  0  0  0  0  0  0  0  0  0  0
   48.4280   31.1230   48.4370 H   0  0  0  0  0  0  0  0  0  0  0  0
   46.3570   31.1450   49.0150 C   0  0  0  0  0  3  0  0  0  0  0  0
   45.0570   31.6000   48.8150 C   0  0  0  0  0  3  0  0  0  0  0  0
   44.9050   32.4440   47.7830 N   0  0  0  0  0  0  0  0  0  0  0  0
   47.0810   34.2160   42.1460 S   0  0  0  0  0  0  0  0  0  0  0  0
   48.4500   34.3830   42.4920 H   0  0  0  0  0  0  0  0  0  0  0  0
  1  7  1  0  0  0  0
  1  6  1  0  0  0  0
  2  1  2  0  0  0  0
  3  2  1  0  0  0  0
  3  4  2  0  0  0  0
  4  5  1  0  0  0  0
  5  6  2  0  0  0  0
  5  9  1  0  0  0  0
  8  2  1  0  0  0  0
  9 10  2  0  0  0  0
  9 16  1  0  0  0  0
 10 12  1  0  0  0  0
 11 10  1  0  0  0  0
 12 13  1  0  0  0  0
 12 14  2  0  0  0  0
 15 14  1  0  0  0  0
 16 15  2  0  0  0  0
 17 18  1  0  0  0  0
 17  3  1  0  0  0  0
M  END
>  <minimizedAffinity>
-4.58904934

>  <minimizedRMSD>
0.777483642

$$$$
