
     RDKit          3D

 20 21  0  0  0  0  0  0  0  0999 V2000
   44.5452   36.0232   44.5286 C   0  0  0  0  0  0  0  0  0  0  0  0
   45.2596   35.8942   43.3191 C   0  0  0  0  0  0  0  0  0  0  0  0
   46.1279   34.7971   43.2089 C   0  0  0  0  0  0  0  0  0  0  0  0
   46.2339   33.9306   44.2544 N   0  0  0  0  0  0  0  0  0  0  0  0
   45.5253   34.1033   45.3893 C   0  0  0  0  0  0  0  0  0  0  0  0
   44.6854   35.1418   45.5290 N   0  0  0  0  0  0  0  0  0  0  0  0
   47.0737   34.5627   41.6997 S   0  0  0  0  0  0  0  0  0  0  0  0
   43.8791   36.8639   44.6147 H   0  0  0  0  0  0  0  0  0  0  0  0
   45.1865   36.5660   42.4909 H   0  0  0  0  0  0  0  0  0  0  0  0
   48.4423   34.6213   42.0845 H   0  0  0  0  0  0  0  0  0  0  0  0
   45.6885   33.1358   46.4692 C   0  0  0  0  0  0  0  0  0  0  0  0
   44.7571   33.1069   47.5045 C   0  0  0  0  0  0  0  0  0  0  0  0
   43.9298   33.8073   47.4827 H   0  0  0  0  0  0  0  0  0  0  0  0
   44.9227   32.1802   48.5292 C   0  0  0  0  0  0  0  0  0  0  0  0
   44.2284   32.1352   49.3316 H   0  0  0  0  0  0  0  0  0  0  0  0
   46.0172   31.3503   48.4329 C   0  0  0  0  0  0  0  0  0  0  0  0
   46.9548   31.3687   47.4046 C   0  0  0  0  0  0  0  0  0  0  0  0
   46.7323   32.2868   46.4522 N   0  0  0  0  0  0  0  0  0  0  0  0
   46.1175   30.6393   49.2476 H   0  0  0  0  0  0  0  0  0  0  0  0
   47.7820   30.6726   47.4210 H   0  0  0  0  0  0  0  0  0  0  0  0
  1  6  2  0
  2  1  1  0
  3  2  2  0
  3  4  1  0
  4  5  2  0
  5  6  1  0
  7  3  1  0
  1  8  1  0
  2  9  1  0
  7 10  1  0
 11 12  2  0
 12 13  1  0
 12 14  1  0
 14 15  1  0
 14 16  2  0
 16 17  1  0
 17 18  2  0
 18 11  1  0
 16 19  1  0
 17 20  1  0
  5 11  1  0
M  ISO  5   8  14   9  14  10  11  13  15  15  16
M  END
>  <DihAtoms>  (1) 
3,4,10,11

>  <DihDeg>  (1) 
179.99609234449255

$$$$
