REMARK  Name = 
REMARK  2 active torsions:
REMARK  status: ('A' for Active; 'I' for Inactive)
REMARK    1  A    between atoms: C_3  and  S_7
REMARK    2  A    between atoms: C_5  and  C_11
REMARK                            x       y       z     vdW  Elec       q    Type
REMARK                         _______ _______ _______ _____ _____    ______ ____
ROOT
ATOM      1  C   UNL     1      44.545  36.023  44.529  0.00  0.00    +0.000 A 
ATOM      2  C   UNL     1      45.260  35.894  43.319  0.00  0.00    +0.000 A 
ATOM      3  C   UNL     1      46.128  34.797  43.209  0.00  0.00    +0.000 A 
ATOM      4  N   UNL     1      46.234  33.931  44.254  0.00  0.00    +0.000 NA
ATOM      5  C   UNL     1      45.525  34.103  45.389  0.00  0.00    +0.000 A 
ATOM      6  N   UNL     1      44.685  35.142  45.529  0.00  0.00    +0.000 NA
ATOM      7  H   UNL     1      43.879  36.864  44.615  0.00  0.00    +0.000 HD
ATOM      8  H   UNL     1      45.187  36.566  42.491  0.00  0.00    +0.000 HD
ENDROOT
BRANCH   5   9
ATOM      9  C   UNL     1      45.688  33.136  46.469  0.00  0.00    +0.000 A 
ATOM     10  C   UNL     1      45.225  33.453  47.744  0.00  0.00    +0.000 A 
ATOM     11  H   UNL     1      44.752  34.415  47.903  0.00  0.00    +0.000 HD
ATOM     12  C   UNL     1      45.386  32.523  48.766  0.00  0.00    +0.000 A 
ATOM     13  H   UNL     1      45.042  32.737  49.748  0.00  0.00    +0.000 HD
ATOM     14  C   UNL     1      46.004  31.340  48.426  0.00  0.00    +0.000 A 
ATOM     15  C   UNL     1      46.471  31.011  47.157  0.00  0.00    +0.000 A 
ATOM     16  N   UNL     1      46.283  31.954  46.222  0.00  0.00    +0.000 NA
ENDBRANCH   5   9
BRANCH   3  17
ATOM     17  S   UNL     1      47.074  34.563  41.700  0.00  0.00    +0.000 S 
ATOM     18  H   UNL     1      48.442  34.621  42.084  0.00  0.00    +0.000 HD
ENDBRANCH   3  17
TORSDOF 2
