
 OpenBabel03242510093D

 27 29  0  0  0  0  0  0  0  0999 V2000
   44.8180   32.9920   41.1800 Br  0  0  0  0  0  0  0  0  0  0  0  0
   46.4640   33.9640   40.9390 C   0  0  0  0  0  0  0  0  0  0  0  0
   46.9290   34.7700   41.9480 C   0  0  0  0  0  0  0  0  0  0  0  0
   48.1190   35.4820   41.7930 C   0  0  0  0  0  0  0  0  0  0  0  0
   48.8000   35.3490   40.6090 C   0  0  0  0  0  0  0  0  0  0  0  0
   48.2910   34.5300   39.6330 C   0  0  0  0  0  0  0  0  0  0  0  0
   47.1460   33.8280   39.7460 C   0  0  0  0  0  0  0  0  0  0  0  0
   48.4900   36.1160   42.5800 H   0  0  0  0  0  0  0  0  0  0  0  0
   49.7310   35.8940   40.4640 H   0  0  0  0  0  0  0  0  0  0  0  0
   48.8710   34.4650   38.7220 H   0  0  0  0  0  0  0  0  0  0  0  0
   45.6500   34.0290   45.2910 C   0  0  0  0  0  0  0  0  0  0  0  0
   44.7090   35.0690   45.5150 C   0  0  0  0  0  0  0  0  0  0  0  0
   44.5370   36.0110   44.4970 C   0  0  0  0  0  0  0  0  0  0  0  0
   45.2670   35.8860   43.3630 N   0  0  0  0  0  0  0  0  0  0  0  0
   46.1630   34.8720   43.1810 C   0  0  0  0  0  0  0  0  0  0  0  0
   46.3430   33.9530   44.1530 N   0  0  0  0  0  0  0  0  0  0  0  0
   45.8060   33.2840   46.0580 H   0  0  0  0  0  0  0  0  0  0  0  0
   44.1440   35.1340   46.4390 H   0  0  0  0  0  0  0  0  0  0  0  0
   43.8430   36.8270   44.5980 H   0  0  0  0  0  0  0  0  0  0  0  0
   46.5940   32.9600   38.7300 C   0  0  0  0  0  0  0  0  0  0  0  0
   46.9580   31.6400   38.5930 C   0  0  0  0  0  0  0  0  0  0  0  0
   47.6850   31.1970   39.2550 H   0  0  0  0  0  0  0  0  0  0  0  0
   46.4290   30.7970   37.6150 C   0  0  0  0  0  0  0  0  0  0  0  0
   46.6910   29.7680   37.4820 H   0  0  0  0  0  0  0  0  0  0  0  0
   45.4920   31.3040   36.7360 C   0  0  0  0  0  3  0  0  0  0  0  0
   45.1340   32.6260   36.8820 C   0  0  0  0  0  3  0  0  0  0  0  0
   45.6870   33.3800   37.8480 N   0  0  0  0  0  0  0  0  0  0  0  0
  2  1  1  0  0  0  0
  2  3  1  0  0  0  0
  3 15  1  0  0  0  0
  4  3  2  0  0  0  0
  4  8  1  0  0  0  0
  5  4  1  0  0  0  0
  6  7  1  0  0  0  0
  6  5  2  0  0  0  0
  7  2  2  0  0  0  0
  9  5  1  0  0  0  0
 10  6  1  0  0  0  0
 11 12  1  0  0  0  0
 11 17  1  0  0  0  0
 12 18  1  0  0  0  0
 13 19  1  0  0  0  0
 13 12  2  0  0  0  0
 14 13  1  0  0  0  0
 15 14  2  0  0  0  0
 15 16  1  0  0  0  0
 16 11  2  0  0  0  0
 20  7  1  0  0  0  0
 21 20  1  0  0  0  0
 21 22  1  0  0  0  0
 23 21  2  0  0  0  0
 24 23  1  0  0  0  0
 25 26  2  0  0  0  0
 25 23  1  0  0  0  0
 26 27  1  0  0  0  0
 27 20  2  0  0  0  0
M  END
>  <minimizedAffinity>
-5.40434694

>  <minimizedRMSD>
0.658856332

$$$$
