REMARK  Name = 
REMARK  2 active torsions:
REMARK  status: ('A' for Active; 'I' for Inactive)
REMARK    1  A    between atoms: C_5  and  C_9
REMARK    2  A    between atoms: C_13  and  C_20
REMARK                            x       y       z     vdW  Elec       q    Type
REMARK                         _______ _______ _______ _____ _____    ______ ____
ROOT
ATOM      1 BR   UNL     1      44.579  33.139  41.194  0.00  0.00    +0.000 Br
ATOM      2  C   UNL     1      46.286  33.997  40.946  0.00  0.00    +0.000 A 
ATOM      3  C   UNL     1      46.826  34.740  41.966  0.00  0.00    +0.000 A 
ATOM      4  C   UNL     1      48.061  35.369  41.805  0.00  0.00    +0.000 A 
ATOM      5  C   UNL     1      48.709  35.220  40.605  0.00  0.00    +0.000 A 
ATOM      6  C   UNL     1      48.125  34.467  39.618  0.00  0.00    +0.000 A 
ATOM      7  C   UNL     1      46.935  33.845  39.736  0.00  0.00    +0.000 A 
ATOM      8  H   UNL     1      48.491  35.953  42.601  0.00  0.00    +0.000 HD
ATOM      9  H   UNL     1      49.674  35.701  40.455  0.00  0.00    +0.000 HD
ATOM     10  H   UNL     1      48.682  34.385  38.694  0.00  0.00    +0.000 HD
ENDROOT
BRANCH   3  15
ATOM     11  C   UNL     1      45.605  34.033  45.338  0.00  0.00    +0.000 A 
ATOM     12  C   UNL     1      44.698  35.099  45.583  0.00  0.00    +0.000 A 
ATOM     13  C   UNL     1      44.528  36.045  44.569  0.00  0.00    +0.000 A 
ATOM     14  N   UNL     1      45.228  35.900  43.418  0.00  0.00    +0.000 NA
ATOM     15  C   UNL     1      46.092  34.862  43.216  0.00  0.00    +0.000 A 
ATOM     16  N   UNL     1      46.269  33.939  44.184  0.00  0.00    +0.000 NA
ATOM     17  H   UNL     1      45.759  33.284  46.102  0.00  0.00    +0.000 HD
ATOM     18  H   UNL     1      44.157  35.179  46.520  0.00  0.00    +0.000 HD
ATOM     19  H   UNL     1      43.859  36.879  44.685  0.00  0.00    +0.000 HD
ENDBRANCH   3  15
BRANCH   7  20
ATOM     20  C   UNL     1      46.303  33.047  38.709  0.00  0.00    +0.000 A 
ATOM     21  C   UNL     1      45.470  31.990  38.988  0.00  0.00    +0.000 A 
ATOM     22  H   UNL     1      45.254  31.713  40.008  0.00  0.00    +0.000 HD
ATOM     23  C   UNL     1      44.857  31.216  38.002  0.00  0.00    +0.000 A 
ATOM     24  H   UNL     1      44.204  30.387  38.186  0.00  0.00    +0.000 HD
ATOM     25  C   UNL     1      45.093  31.520  36.676  0.00  0.00    +0.000 A 
ATOM     26  C   UNL     1      45.929  32.580  36.406  0.00  0.00    +0.000 A 
ATOM     27  N   UNL     1      46.486  33.283  37.409  0.00  0.00    +0.000 NA
ENDBRANCH   7  20
TORSDOF 2
