
 OpenBabel03242519093D

 46 49  0  0  1  0  0  0  0  0999 V2000
   48.5700   33.5630   39.2270 N   0  0  0  0  0  0  0  0  0  0  0  0
   49.4740   34.0470   39.0090 H   0  0  0  0  0  0  0  0  0  0  0  0
   47.4780   34.5620   42.4540 N   0  0  0  0  0  0  0  0  0  0  0  0
   47.4310   34.7870   41.0140 C   0  0  0  0  0  0  0  0  0  0  0  0
   48.0990   33.5290   40.5720 C   0  0  2  0  0  0  0  0  0  0  0  0
   49.3180   33.4780   41.4790 C   0  0  0  0  0  0  0  0  0  0  0  0
   48.7880   34.0730   42.7620 C   0  0  0  0  0  0  0  0  0  0  0  0
   48.0580   35.6610   40.7470 H   0  0  0  0  0  0  0  0  0  0  0  0
   46.4020   34.9200   40.6380 H   0  0  0  0  0  0  0  0  0  0  0  0
   47.4350   32.6580   40.7230 H   0  0  0  0  0  0  0  0  0  0  0  0
   50.1600   34.0430   41.0470 H   0  0  0  0  0  0  0  0  0  0  0  0
   49.5880   32.4010   41.6070 H   0  0  0  0  0  0  0  0  0  0  0  0
   49.4630   34.8800   43.1420 H   0  0  0  0  0  0  0  0  0  0  0  0
   48.6940   33.2710   43.5160 H   0  0  0  0  0  0  0  0  0  0  0  0
   44.5690   35.8450   44.4010 C   0  0  0  0  0  0  0  0  0  0  0  0
   45.4980   35.7470   43.3770 C   0  0  0  0  0  0  0  0  0  0  0  0
   46.4840   34.7550   43.4360 C   0  0  0  0  0  0  0  0  0  0  0  0
   46.4610   33.9380   44.5200 N   0  0  0  0  0  0  0  0  0  0  0  0
   45.5730   34.0210   45.5150 C   0  0  0  0  0  0  0  0  0  0  0  0
   44.6200   34.9890   45.4440 N   0  0  0  0  0  0  0  0  0  0  0  0
   43.8140   36.6330   44.3190 H   0  0  0  0  0  0  0  0  0  0  0  0
   45.5280   36.3900   42.5080 H   0  0  0  0  0  0  0  0  0  0  0  0
   45.5820   33.3630   46.3540 H   0  0  0  0  0  0  0  0  0  0  0  0
   48.7770   32.2570   37.1190 C   0  0  0  0  0  0  0  0  0  0  0  0
   48.0560   33.0540   38.0230 C   0  0  0  0  0  0  0  0  0  0  0  0
   46.7660   33.2990   37.6140 C   0  0  0  0  0  0  0  0  0  0  0  0
   46.1870   32.8440   36.4620 C   0  0  0  0  0  0  0  0  0  0  0  0
   46.9330   32.0680   35.6090 C   0  0  0  0  0  0  0  0  0  0  0  0
   48.2340   31.7870   35.9640 C   0  0  0  0  0  0  0  0  0  0  0  0
   46.1240   33.9100   38.2500 H   0  0  0  0  0  0  0  0  0  0  0  0
   45.1540   33.0870   36.2130 H   0  0  0  0  0  0  0  0  0  0  0  0
   46.4740   31.7110   34.7030 H   0  0  0  0  0  0  0  0  0  0  0  0
   49.5360   31.5640   33.8930 C   0  0  0  0  0  0  0  0  0  0  0  0
   49.3300   32.7930   33.6520 O   0  0  0  0  0  0  0  0  0  0  0  0
   48.9850   30.9740   35.0530 N   0  0  0  0  0  0  0  0  0  0  0  0
   49.1330   29.9390   35.2340 H   0  0  0  0  0  0  0  0  0  0  0  0
   50.3510   30.7550   32.9600 C   0  0  0  0  0  0  0  0  0  0  0  0
   51.7230   30.7580   33.1030 C   0  0  0  0  0  0  0  0  0  0  0  0
   52.2340   31.3150   33.8560 H   0  0  0  0  0  0  0  0  0  0  0  0
   52.4360   30.0020   32.2260 C   0  0  0  0  0  0  0  0  0  0  0  0
   53.5290   29.9320   32.2480 H   0  0  0  0  0  0  0  0  0  0  0  0
   51.7670   29.2860   31.2550 C   0  0  0  0  0  0  0  0  0  0  0  0
   50.3770   29.2790   31.1050 C   0  0  0  0  0  0  0  0  0  0  0  0
   49.7280   30.0440   32.0020 N   0  0  0  0  0  0  0  0  0  0  0  0
   51.2470   31.6970   37.7690 N   0  0  0  0  0  0  0  0  0  0  0  0
   50.1590   31.9520   37.4840 C   0  0  0  0  0  0  0  0  0  0  0  0
  1  5  1  0  0  0  0
  2  1  1  0  0  0  0
  3  7  1  0  0  0  0
  3 17  1  0  0  0  0
  4  3  1  0  0  0  0
  5 10  1  1  0  0  0
  5  4  1  0  0  0  0
  5  6  1  0  0  0  0
  6 12  1  0  0  0  0
  6  7  1  0  0  0  0
  7 13  1  0  0  0  0
  7 14  1  0  0  0  0
  8  4  1  0  0  0  0
  9  4  1  0  0  0  0
 11  6  1  0  0  0  0
 15 20  1  0  0  0  0
 16 17  1  0  0  0  0
 16 15  2  0  0  0  0
 17 18  2  0  0  0  0
 18 19  1  0  0  0  0
 19 23  1  0  0  0  0
 20 19  2  0  0  0  0
 21 15  1  0  0  0  0
 22 16  1  0  0  0  0
 24 46  1  0  0  0  0
 24 25  1  0  0  0  0
 25  1  1  0  0  0  0
 26 25  2  0  0  0  0
 26 30  1  0  0  0  0
 27 26  1  0  0  0  0
 28 29  1  0  0  0  0
 28 27  2  0  0  0  0
 29 24  2  0  0  0  0
 31 27  1  0  0  0  0
 32 28  1  0  0  0  0
 33 35  1  0  0  0  0
 34 33  2  0  0  0  0
 35 36  1  0  0  0  0
 35 29  1  0  0  0  0
 37 38  1  0  0  0  0
 37 33  1  0  0  0  0
 38 39  1  0  0  0  0
 40 41  1  0  0  0  0
 40 38  2  0  0  0  0
 42 40  1  0  0  0  0
 43 42  2  0  0  0  0
 43 44  1  0  0  0  0
 44 37  2  0  0  0  0
 46 45  3  0  0  0  0
M  END
>  <minimizedAffinity>
-5.58535767

>  <minimizedRMSD>
0.290725082

$$$$
