
 OpenBabel03252508503D

 27 29  0  0  0  0  0  0  0  0999 V2000
   45.7720   34.2420   41.0500 C   0  0  0  0  0  0  0  0  0  0  0  0
   46.4170   34.7690   42.1640 C   0  0  0  0  0  0  0  0  0  0  0  0
   47.7890   35.0020   42.0300 C   0  0  0  0  0  0  0  0  0  0  0  0
   48.4070   34.7140   40.8580 N   0  0  0  0  0  0  0  0  0  0  0  0
   47.7290   34.2030   39.8100 C   0  0  0  0  0  0  0  0  0  0  0  0
   46.4080   33.9660   39.9030 N   0  0  0  0  0  0  0  0  0  0  0  0
   48.3110   35.4100   42.8780 H   0  0  0  0  0  0  0  0  0  0  0  0
   48.2960   34.0010   38.9110 H   0  0  0  0  0  0  0  0  0  0  0  0
   45.6720   35.0490   43.3740 C   0  0  0  0  0  0  0  0  0  0  0  0
   45.1220   36.3020   43.6410 C   0  0  0  0  0  0  0  0  0  0  0  0
   44.5170   36.1300   44.8650 C   0  0  0  0  0  0  0  0  0  0  0  0
   44.6870   34.8570   45.3150 N   0  0  0  0  0  0  0  0  0  0  0  0
   45.3880   34.2420   44.3850 N   0  0  0  0  0  0  0  0  0  0  0  0
   45.1160   37.2360   43.0930 H   0  0  0  0  0  0  0  0  0  0  0  0
   43.9580   36.8410   45.4760 H   0  0  0  0  0  0  0  0  0  0  0  0
   44.3640   34.3930   46.1910 H   0  0  0  0  0  0  0  0  0  0  0  0
   44.4130   33.9950   41.1400 O   0  0  0  0  0  0  0  0  0  0  0  0
   43.3940   34.8070   40.7400 C   0  0  0  0  0  0  0  0  0  0  0  0
   43.1870   36.0250   41.0780 O   0  0  0  0  0  0  0  0  0  0  0  0
   42.3180   34.3640   39.8040 C   0  0  0  0  0  0  0  0  0  0  0  0
   41.1750   35.1090   39.6250 C   0  0  0  0  0  0  0  0  0  0  0  0
   41.0010   36.0400   40.1430 H   0  0  0  0  0  0  0  0  0  0  0  0
   40.1380   34.7470   38.7710 C   0  0  0  0  0  0  0  0  0  0  0  0
   39.2540   35.3510   38.6510 H   0  0  0  0  0  0  0  0  0  0  0  0
   40.2580   33.5740   38.0600 C   0  0  0  0  0  3  0  0  0  0  0  0
   41.4120   32.8530   38.2620 C   0  0  0  0  0  3  0  0  0  0  0  0
   42.3670   33.2520   39.0930 N   0  0  0  0  0  0  0  0  0  0  0  0
  1 17  1  0  0  0  0
  1  2  1  0  0  0  0
  2  9  1  0  0  0  0
  3  2  2  0  0  0  0
  3  7  1  0  0  0  0
  4  3  1  0  0  0  0
  5  6  1  0  0  0  0
  5  4  2  0  0  0  0
  6  1  2  0  0  0  0
  8  5  1  0  0  0  0
  9 10  1  0  0  0  0
  9 13  2  0  0  0  0
 10 11  2  0  0  0  0
 11 12  1  0  0  0  0
 11 15  1  0  0  0  0
 12 16  1  0  0  0  0
 13 12  1  0  0  0  0
 14 10  1  0  0  0  0
 18 19  2  0  0  0  0
 18 17  1  0  0  0  0
 20 18  1  0  0  0  0
 21 20  1  0  0  0  0
 21 22  1  0  0  0  0
 23 21  2  0  0  0  0
 24 23  1  0  0  0  0
 25 26  2  0  0  0  0
 25 23  1  0  0  0  0
 26 27  1  0  0  0  0
 27 20  2  0  0  0  0
M  END
>  <minimizedAffinity>
-5.47524452

>  <minimizedRMSD>
1.03568709

$$$$
