
 OpenBabel03252508493D

 27 29  0  0  0  0  0  0  0  0999 V2000
   45.8520   34.2400   41.0370 C   0  0  0  0  0  0  0  0  0  0  0  0
   46.4720   34.7860   42.1570 C   0  0  0  0  0  0  0  0  0  0  0  0
   47.8390   35.0520   42.0350 C   0  0  0  0  0  0  0  0  0  0  0  0
   48.4760   34.7760   40.8710 N   0  0  0  0  0  0  0  0  0  0  0  0
   47.8220   34.2470   39.8170 C   0  0  0  0  0  0  0  0  0  0  0  0
   46.5060   33.9780   39.8970 N   0  0  0  0  0  0  0  0  0  0  0  0
   48.3430   35.4750   42.8880 H   0  0  0  0  0  0  0  0  0  0  0  0
   48.4030   34.0570   38.9240 H   0  0  0  0  0  0  0  0  0  0  0  0
   45.7090   35.0500   43.3580 C   0  0  0  0  0  0  0  0  0  0  0  0
   45.1180   36.2870   43.6130 C   0  0  0  0  0  0  0  0  0  0  0  0
   44.5080   36.1040   44.8320 C   0  0  0  0  0  0  0  0  0  0  0  0
   44.7120   34.8400   45.2910 N   0  0  0  0  0  0  0  0  0  0  0  0
   45.4400   34.2400   44.3710 N   0  0  0  0  0  0  0  0  0  0  0  0
   45.0890   37.2180   43.0580 H   0  0  0  0  0  0  0  0  0  0  0  0
   43.9220   36.8010   45.4340 H   0  0  0  0  0  0  0  0  0  0  0  0
   44.3960   34.3710   46.1670 H   0  0  0  0  0  0  0  0  0  0  0  0
   44.4990   33.9600   41.1140 O   0  0  0  0  0  0  0  0  0  0  0  0
   43.4650   34.7320   40.6740 C   0  0  0  0  0  0  0  0  0  0  0  0
   43.2410   35.9640   40.9430 O   0  0  0  0  0  0  0  0  0  0  0  0
   42.3920   34.2200   39.7700 C   0  0  0  0  0  0  0  0  0  0  0  0
   41.2460   34.9450   39.5380 C   0  0  0  0  0  0  0  0  0  0  0  0
   41.0670   35.9110   39.9880 H   0  0  0  0  0  0  0  0  0  0  0  0
   40.2110   34.5200   38.7100 C   0  0  0  0  0  0  0  0  0  0  0  0
   39.3250   35.1100   38.5470 H   0  0  0  0  0  0  0  0  0  0  0  0
   40.3370   33.3000   38.0850 C   0  0  0  0  0  3  0  0  0  0  0  0
   41.4940   32.6000   38.3390 C   0  0  0  0  0  3  0  0  0  0  0  0
   42.4470   33.0600   39.1390 N   0  0  0  0  0  0  0  0  0  0  0  0
  1 17  1  0  0  0  0
  1  2  1  0  0  0  0
  2  9  1  0  0  0  0
  3  2  2  0  0  0  0
  3  7  1  0  0  0  0
  4  3  1  0  0  0  0
  5  6  1  0  0  0  0
  5  4  2  0  0  0  0
  6  1  2  0  0  0  0
  8  5  1  0  0  0  0
  9 10  1  0  0  0  0
  9 13  2  0  0  0  0
 10 11  2  0  0  0  0
 11 12  1  0  0  0  0
 11 15  1  0  0  0  0
 12 16  1  0  0  0  0
 13 12  1  0  0  0  0
 14 10  1  0  0  0  0
 18 19  2  0  0  0  0
 18 17  1  0  0  0  0
 20 18  1  0  0  0  0
 21 20  1  0  0  0  0
 21 22  1  0  0  0  0
 23 21  2  0  0  0  0
 24 23  1  0  0  0  0
 25 26  2  0  0  0  0
 25 23  1  0  0  0  0
 26 27  1  0  0  0  0
 27 20  2  0  0  0  0
M  END
>  <minimizedAffinity>
-5.42933273

>  <minimizedRMSD>
0.867728591

$$$$
