
 OpenBabel03252508493D

 27 29  0  0  0  0  0  0  0  0999 V2000
   45.9470   34.2240   41.0300 C   0  0  0  0  0  0  0  0  0  0  0  0
   46.5400   34.7980   42.1500 C   0  0  0  0  0  0  0  0  0  0  0  0
   47.8970   35.1160   42.0340 C   0  0  0  0  0  0  0  0  0  0  0  0
   48.5490   34.8590   40.8750 N   0  0  0  0  0  0  0  0  0  0  0  0
   47.9210   34.3010   39.8200 C   0  0  0  0  0  0  0  0  0  0  0  0
   46.6170   33.9820   39.8950 N   0  0  0  0  0  0  0  0  0  0  0  0
   48.3800   35.5610   42.8880 H   0  0  0  0  0  0  0  0  0  0  0  0
   48.5140   34.1290   38.9310 H   0  0  0  0  0  0  0  0  0  0  0  0
   45.7610   35.0380   43.3460 C   0  0  0  0  0  0  0  0  0  0  0  0
   45.1070   36.2470   43.5830 C   0  0  0  0  0  0  0  0  0  0  0  0
   44.5040   36.0480   44.8040 C   0  0  0  0  0  0  0  0  0  0  0  0
   44.7710   34.8020   45.2800 N   0  0  0  0  0  0  0  0  0  0  0  0
   45.5320   34.2290   44.3700 N   0  0  0  0  0  0  0  0  0  0  0  0
   45.0310   37.1670   43.0170 H   0  0  0  0  0  0  0  0  0  0  0  0
   43.8810   36.7220   45.3950 H   0  0  0  0  0  0  0  0  0  0  0  0
   44.4770   34.3300   46.1620 H   0  0  0  0  0  0  0  0  0  0  0  0
   44.6050   33.8930   41.1020 O   0  0  0  0  0  0  0  0  0  0  0  0
   43.5490   34.6000   40.6100 C   0  0  0  0  0  0  0  0  0  0  0  0
   43.2720   35.8340   40.8150 O   0  0  0  0  0  0  0  0  0  0  0  0
   42.5100   34.0020   39.7200 C   0  0  0  0  0  0  0  0  0  0  0  0
   41.5950   34.7880   39.0590 C   0  0  0  0  0  0  0  0  0  0  0  0
   41.5830   35.8650   39.1460 H   0  0  0  0  0  0  0  0  0  0  0  0
   40.6040   34.2900   38.2200 C   0  0  0  0  0  0  0  0  0  0  0  0
   39.9010   34.9300   37.7150 H   0  0  0  0  0  0  0  0  0  0  0  0
   40.5300   32.9270   38.0380 C   0  0  0  0  0  3  0  0  0  0  0  0
   41.4570   32.1690   38.7130 C   0  0  0  0  0  3  0  0  0  0  0  0
   42.3820   32.7050   39.5010 N   0  0  0  0  0  0  0  0  0  0  0  0
  1 17  1  0  0  0  0
  1  2  1  0  0  0  0
  2  9  1  0  0  0  0
  3  2  2  0  0  0  0
  3  7  1  0  0  0  0
  4  3  1  0  0  0  0
  5  6  1  0  0  0  0
  5  4  2  0  0  0  0
  6  1  2  0  0  0  0
  8  5  1  0  0  0  0
  9 10  1  0  0  0  0
  9 13  2  0  0  0  0
 10 11  2  0  0  0  0
 11 12  1  0  0  0  0
 11 15  1  0  0  0  0
 12 16  1  0  0  0  0
 13 12  1  0  0  0  0
 14 10  1  0  0  0  0
 18 19  2  0  0  0  0
 18 17  1  0  0  0  0
 20 18  1  0  0  0  0
 21 22  1  0  0  0  0
 21 20  2  0  0  0  0
 23 21  1  0  0  0  0
 24 23  1  0  0  0  0
 25 23  2  0  0  0  0
 25 26  1  0  0  0  0
 26 27  2  0  0  0  0
 27 20  1  0  0  0  0
M  END
>  <minimizedAffinity>
-5.40259123

>  <minimizedRMSD>
0.652303815

$$$$
