
 OpenBabel03242510493D

 21 22  0  0  0  0  0  0  0  0999 V2000
   44.7670   36.6540   43.7620 C   0  0  0  0  0  0  0  0  0  0  0  0
   45.6470   36.3320   42.7170 C   0  0  0  0  0  0  0  0  0  0  0  0
   46.3010   35.0960   42.7770 C   0  0  0  0  0  0  0  0  0  0  0  0
   46.0520   34.2710   43.8410 N   0  0  0  0  0  0  0  0  0  0  0  0
   45.1940   34.6280   44.8230 C   0  0  0  0  0  0  0  0  0  0  0  0
   44.5430   35.8220   44.7960 N   0  0  0  0  0  0  0  0  0  0  0  0
   45.9180   32.6650   46.0540 C   0  0  0  0  0  0  0  0  0  0  0  0
   46.9150   32.4690   45.3060 O   0  0  0  0  0  0  0  0  0  0  0  0
   44.9760   33.7330   45.9010 N   0  0  0  0  0  0  0  0  0  0  0  0
   44.2540   37.5990   43.7360 H   0  0  0  0  0  0  0  0  0  0  0  0
   45.8410   36.9850   41.8790 H   0  0  0  0  0  0  0  0  0  0  0  0
   46.9790   34.8290   41.9870 H   0  0  0  0  0  0  0  0  0  0  0  0
   44.1490   33.8740   46.5430 H   0  0  0  0  0  0  0  0  0  0  0  0
   45.6840   31.7500   47.1670 C   0  0  0  0  0  0  0  0  0  0  0  0
   45.5630   32.2340   48.4710 C   0  0  0  0  0  0  0  0  0  0  0  0
   45.6560   33.3170   48.5850 H   0  0  0  0  0  0  0  0  0  0  0  0
   45.3420   31.4310   49.5710 C   0  0  0  0  0  0  0  0  0  0  0  0
   45.2580   31.8630   50.5490 H   0  0  0  0  0  0  0  0  0  0  0  0
   45.2350   30.0750   49.3450 C   0  0  0  0  0  0  0  0  0  0  0  0
   45.3530   29.5730   48.0460 C   0  0  0  0  0  0  0  0  0  0  0  0
   45.5700   30.4190   47.0220 N   0  0  0  0  0  0  0  0  0  0  0  0
  1  6  1  0  0  0  0
  2  3  1  0  0  0  0
  2  1  2  0  0  0  0
  3  4  2  0  0  0  0
  4  5  1  0  0  0  0
  5  9  1  0  0  0  0
  6  5  2  0  0  0  0
  7 14  1  0  0  0  0
  8  7  2  0  0  0  0
  9  7  1  0  0  0  0
  9 13  1  0  0  0  0
 10  1  1  0  0  0  0
 11  2  1  0  0  0  0
 12  3  1  0  0  0  0
 14 15  1  0  0  0  0
 15 16  1  0  0  0  0
 15 17  2  0  0  0  0
 17 18  1  0  0  0  0
 19 17  1  0  0  0  0
 20 19  2  0  0  0  0
 21 14  2  0  0  0  0
 21 20  1  0  0  0  0
M  END
>  <minimizedAffinity>
-4.7385745

>  <minimizedRMSD>
1.22179782

$$$$
