
 OpenBabel03252501333D

 23 24  0  0  0  0  0  0  0  0999 V2000
   37.3630   28.1150   40.4330 C   0  0  0  0  0  0  0  0  0  0  0  0
   38.2620   28.7870   41.0070 O   0  0  0  0  0  0  0  0  0  0  0  0
   36.6190   28.8760   39.4840 N   0  0  0  0  0  0  0  0  0  0  0  0
   35.8640   28.4680   38.9300 H   0  0  0  0  0  0  0  0  0  0  0  0
   37.1340   30.2370   39.4880 C   0  0  0  0  0  0  0  0  0  0  0  0
   36.7300   31.2460   40.3390 C   0  0  0  0  0  0  0  0  0  0  0  0
   37.3360   32.4800   40.1930 C   0  0  0  0  0  0  0  0  0  0  0  0
   38.2700   32.6140   39.2390 N   0  0  0  0  0  0  0  0  0  0  0  0
   38.6480   31.6100   38.4200 C   0  0  0  0  0  0  0  0  0  0  0  0
   38.0780   30.4040   38.5390 N   0  0  0  0  0  0  0  0  0  0  0  0
   37.0070   33.2460   40.8620 H   0  0  0  0  0  0  0  0  0  0  0  0
   39.4140   31.8050   37.6730 H   0  0  0  0  0  0  0  0  0  0  0  0
   35.7180   30.9030   41.2900 N   0  0  0  0  0  0  0  0  0  0  0  0
   34.8140   31.4520   41.3660 H   0  0  0  0  0  0  0  0  0  0  0  0
   35.9470   30.0860   41.8860 H   0  0  0  0  0  0  0  0  0  0  0  0
   37.0730   26.7010   40.6780 C   0  0  0  0  0  0  0  0  0  0  0  0
   37.2560   26.2170   41.9570 C   0  0  0  0  0  0  0  0  0  0  0  0
   37.6050   26.8710   42.7460 H   0  0  0  0  0  0  0  0  0  0  0  0
   36.9630   24.8640   42.1300 C   0  0  0  0  0  0  0  0  0  0  0  0
   37.1050   24.4720   43.1320 H   0  0  0  0  0  0  0  0  0  0  0  0
   36.5210   24.0920   41.0670 C   0  0  0  0  0  3  0  0  0  0  0  0
   36.3530   24.6350   39.7920 C   0  0  0  0  0  3  0  0  0  0  0  0
   36.6460   25.9420   39.6670 N   0  0  0  0  0  0  0  0  0  0  0  0
  1 16  1  0  0  0  0
  1  2  2  0  0  0  0
  3  5  1  0  0  0  0
  3  1  1  0  0  0  0
  4  3  1  0  0  0  0
  5  6  1  0  0  0  0
  6 13  1  0  0  0  0
  7  6  2  0  0  0  0
  7 11  1  0  0  0  0
  8  7  1  0  0  0  0
  9 10  1  0  0  0  0
  9  8  2  0  0  0  0
 10  5  2  0  0  0  0
 12  9  1  0  0  0  0
 13 14  1  0  0  0  0
 13 15  1  0  0  0  0
 16 17  1  0  0  0  0
 17 19  2  0  0  0  0
 17 18  1  0  0  0  0
 19 20  1  0  0  0  0
 21 19  1  0  0  0  0
 22 21  2  0  0  0  0
 23 22  1  0  0  0  0
 23 16  2  0  0  0  0
M  END
>  <minimizedAffinity>
-4.8696332

$$$$

 OpenBabel03252501333D

 23 24  0  0  0  0  0  0  0  0999 V2000
   38.5070   30.0480   41.3970 C   0  0  0  0  0  0  0  0  0  0  0  0
   39.0220   30.9010   42.1690 O   0  0  0  0  0  0  0  0  0  0  0  0
   38.4870   30.4700   40.0350 N   0  0  0  0  0  0  0  0  0  0  0  0
   38.1110   29.8830   39.2890 H   0  0  0  0  0  0  0  0  0  0  0  0
   39.0680   31.8020   39.9630 C   0  0  0  0  0  0  0  0  0  0  0  0
   38.3820   32.9880   40.1290 C   0  0  0  0  0  0  0  0  0  0  0  0
   39.1060   34.1610   40.0240 C   0  0  0  0  0  0  0  0  0  0  0  0
   40.4200   34.0690   39.7690 N   0  0  0  0  0  0  0  0  0  0  0  0
   41.0680   32.8950   39.6110 C   0  0  0  0  0  0  0  0  0  0  0  0
   40.3920   31.7430   39.7070 N   0  0  0  0  0  0  0  0  0  0  0  0
   38.5540   35.0660   40.1570 H   0  0  0  0  0  0  0  0  0  0  0  0
   42.1350   32.9110   39.4060 H   0  0  0  0  0  0  0  0  0  0  0  0
   36.9810   32.8750   40.3950 N   0  0  0  0  0  0  0  0  0  0  0  0
   36.2570   33.3700   39.7980 H   0  0  0  0  0  0  0  0  0  0  0  0
   36.7440   32.2780   41.2100 H   0  0  0  0  0  0  0  0  0  0  0  0
   37.9730   28.7480   41.8040 C   0  0  0  0  0  0  0  0  0  0  0  0
   37.3970   28.6490   43.0550 C   0  0  0  0  0  0  0  0  0  0  0  0
   37.3510   29.5130   43.7060 H   0  0  0  0  0  0  0  0  0  0  0  0
   36.9060   27.3870   43.3880 C   0  0  0  0  0  0  0  0  0  0  0  0
   36.4530   27.2970   44.3700 H   0  0  0  0  0  0  0  0  0  0  0  0
   37.0060   26.3290   42.4980 C   0  0  0  0  0  3  0  0  0  0  0  0
   37.5980   26.4860   41.2430 C   0  0  0  0  0  3  0  0  0  0  0  0
   38.0590   27.7180   40.9610 N   0  0  0  0  0  0  0  0  0  0  0  0
  1 16  1  0  0  0  0
  1  2  2  0  0  0  0
  3  1  1  0  0  0  0
  4  3  1  0  0  0  0
  5  3  1  0  0  0  0
  5  6  1  0  0  0  0
  6 13  1  0  0  0  0
  7  6  2  0  0  0  0
  7 11  1  0  0  0  0
  8  7  1  0  0  0  0
  9 10  1  0  0  0  0
  9  8  2  0  0  0  0
 10  5  2  0  0  0  0
 12  9  1  0  0  0  0
 13 15  1  0  0  0  0
 14 13  1  0  0  0  0
 16 17  1  0  0  0  0
 17 19  2  0  0  0  0
 17 18  1  0  0  0  0
 19 20  1  0  0  0  0
 21 19  1  0  0  0  0
 22 21  2  0  0  0  0
 23 22  1  0  0  0  0
 23 16  2  0  0  0  0
M  END
>  <minimizedAffinity>
-4.79165602

$$$$

 OpenBabel03252501333D

 23 24  0  0  0  0  0  0  0  0999 V2000
   37.8050   30.0810   40.9280 C   0  0  0  0  0  0  0  0  0  0  0  0
   38.7500   29.3080   41.2390 O   0  0  0  0  0  0  0  0  0  0  0  0
   36.5290   29.4460   40.9680 N   0  0  0  0  0  0  0  0  0  0  0  0
   35.6650   29.9460   40.7530 H   0  0  0  0  0  0  0  0  0  0  0  0
   36.7250   28.0550   41.3490 C   0  0  0  0  0  0  0  0  0  0  0  0
   36.8710   27.5900   42.6400 C   0  0  0  0  0  0  0  0  0  0  0  0
   37.0480   26.2290   42.8080 C   0  0  0  0  0  0  0  0  0  0  0  0
   37.0660   25.4560   41.7110 N   0  0  0  0  0  0  0  0  0  0  0  0
   36.9200   25.9370   40.4580 C   0  0  0  0  0  0  0  0  0  0  0  0
   36.7470   27.2520   40.2660 N   0  0  0  0  0  0  0  0  0  0  0  0
   37.1590   25.8910   43.8160 H   0  0  0  0  0  0  0  0  0  0  0  0
   36.9470   25.2400   39.6250 H   0  0  0  0  0  0  0  0  0  0  0  0
   36.8230   28.5750   43.6760 N   0  0  0  0  0  0  0  0  0  0  0  0
   37.6040   28.6770   44.3870 H   0  0  0  0  0  0  0  0  0  0  0  0
   35.9710   29.1670   43.6690 H   0  0  0  0  0  0  0  0  0  0  0  0
   37.9480   31.4910   40.5590 C   0  0  0  0  0  0  0  0  0  0  0  0
   37.0060   32.0340   39.7080 C   0  0  0  0  0  0  0  0  0  0  0  0
   36.1930   31.4260   39.3310 H   0  0  0  0  0  0  0  0  0  0  0  0
   37.1940   33.3790   39.3910 C   0  0  0  0  0  0  0  0  0  0  0  0
   36.4600   33.8160   38.7220 H   0  0  0  0  0  0  0  0  0  0  0  0
   38.2630   34.0890   39.9150 C   0  0  0  0  0  3  0  0  0  0  0  0
   39.1860   33.4890   40.7730 C   0  0  0  0  0  3  0  0  0  0  0  0
   38.9700   32.1910   41.0530 N   0  0  0  0  0  0  0  0  0  0  0  0
  1  3  1  0  0  0  0
  1  2  2  0  0  0  0
  3  5  1  0  0  0  0
  4  3  1  0  0  0  0
  5  6  1  0  0  0  0
  6  7  2  0  0  0  0
  6 13  1  0  0  0  0
  7 11  1  0  0  0  0
  8  7  1  0  0  0  0
  9  8  2  0  0  0  0
 10  9  1  0  0  0  0
 10  5  2  0  0  0  0
 12  9  1  0  0  0  0
 13 14  1  0  0  0  0
 15 13  1  0  0  0  0
 16  1  1  0  0  0  0
 16 23  1  0  0  0  0
 17 16  2  0  0  0  0
 18 17  1  0  0  0  0
 19 17  1  0  0  0  0
 19 21  2  0  0  0  0
 20 19  1  0  0  0  0
 21 22  1  0  0  0  0
 22 23  2  0  0  0  0
M  END
>  <minimizedAffinity>
-4.710711

$$$$

 OpenBabel03252501333D

 23 24  0  0  0  0  0  0  0  0999 V2000
   37.9960   28.3620   40.9160 C   0  0  0  0  0  0  0  0  0  0  0  0
   37.8530   28.7200   39.7150 O   0  0  0  0  0  0  0  0  0  0  0  0
   38.1580   29.4610   41.8090 N   0  0  0  0  0  0  0  0  0  0  0  0
   38.2730   29.3320   42.8160 H   0  0  0  0  0  0  0  0  0  0  0  0
   38.1240   30.6900   41.0300 C   0  0  0  0  0  0  0  0  0  0  0  0
   36.9900   31.4150   40.7240 C   0  0  0  0  0  0  0  0  0  0  0  0
   37.1540   32.5620   39.9700 C   0  0  0  0  0  0  0  0  0  0  0  0
   38.3980   32.8920   39.5880 N   0  0  0  0  0  0  0  0  0  0  0  0
   39.4910   32.1650   39.9020 C   0  0  0  0  0  0  0  0  0  0  0  0
   39.3620   31.0490   40.6320 N   0  0  0  0  0  0  0  0  0  0  0  0
   36.2630   33.1070   39.7450 H   0  0  0  0  0  0  0  0  0  0  0  0
   40.4620   32.5040   39.5520 H   0  0  0  0  0  0  0  0  0  0  0  0
   35.7540   30.8970   41.2250 N   0  0  0  0  0  0  0  0  0  0  0  0
   34.9320   30.6970   40.5850 H   0  0  0  0  0  0  0  0  0  0  0  0
   35.7380   30.7380   42.2500 H   0  0  0  0  0  0  0  0  0  0  0  0
   38.0030   26.9780   41.3940 C   0  0  0  0  0  0  0  0  0  0  0  0
   36.9650   26.1560   41.0040 C   0  0  0  0  0  0  0  0  0  0  0  0
   36.1760   26.5330   40.3660 H   0  0  0  0  0  0  0  0  0  0  0  0
   37.0250   24.8500   41.4900 C   0  0  0  0  0  0  0  0  0  0  0  0
   36.2130   24.1940   41.1920 H   0  0  0  0  0  0  0  0  0  0  0  0
   38.0700   24.4420   42.3050 C   0  0  0  0  0  3  0  0  0  0  0  0
   39.0950   25.3180   42.6680 C   0  0  0  0  0  3  0  0  0  0  0  0
   39.0000   26.5680   42.1790 N   0  0  0  0  0  0  0  0  0  0  0  0
  1 16  1  0  0  0  0
  1  3  1  0  0  0  0
  2  1  2  0  0  0  0
  3  4  1  0  0  0  0
  5  3  1  0  0  0  0
  6  5  1  0  0  0  0
  6 13  1  0  0  0  0
  7  6  2  0  0  0  0
  8  9  2  0  0  0  0
  8  7  1  0  0  0  0
  9 10  1  0  0  0  0
 10  5  2  0  0  0  0
 11  7  1  0  0  0  0
 12  9  1  0  0  0  0
 13 15  1  0  0  0  0
 14 13  1  0  0  0  0
 16 23  1  0  0  0  0
 17 16  2  0  0  0  0
 17 19  1  0  0  0  0
 18 17  1  0  0  0  0
 19 21  2  0  0  0  0
 20 19  1  0  0  0  0
 21 22  1  0  0  0  0
 23 22  2  0  0  0  0
M  END
>  <minimizedAffinity>
-4.70461369

$$$$

 OpenBabel03252501333D

 23 24  0  0  0  0  0  0  0  0999 V2000
   37.3640   28.0270   40.2440 C   0  0  0  0  0  0  0  0  0  0  0  0
   37.3850   28.5690   39.1060 O   0  0  0  0  0  0  0  0  0  0  0  0
   37.6450   28.9410   41.3020 N   0  0  0  0  0  0  0  0  0  0  0  0
   37.6530   28.6540   42.2820 H   0  0  0  0  0  0  0  0  0  0  0  0
   37.8950   30.2500   40.7180 C   0  0  0  0  0  0  0  0  0  0  0  0
   36.9840   31.2850   40.6500 C   0  0  0  0  0  0  0  0  0  0  0  0
   37.4030   32.4620   40.0570 C   0  0  0  0  0  0  0  0  0  0  0  0
   38.6600   32.5180   39.5890 N   0  0  0  0  0  0  0  0  0  0  0  0
   39.5310   31.4900   39.6690 C   0  0  0  0  0  0  0  0  0  0  0  0
   39.1530   30.3390   40.2390 N   0  0  0  0  0  0  0  0  0  0  0  0
   36.6820   33.2490   40.0150 H   0  0  0  0  0  0  0  0  0  0  0  0
   40.5320   31.6210   39.2640 H   0  0  0  0  0  0  0  0  0  0  0  0
   35.6920   31.0280   41.2070 N   0  0  0  0  0  0  0  0  0  0  0  0
   34.8040   31.1610   40.6420 H   0  0  0  0  0  0  0  0  0  0  0  0
   35.7040   30.7070   42.1930 H   0  0  0  0  0  0  0  0  0  0  0  0
   37.0840   26.6140   40.5060 C   0  0  0  0  0  0  0  0  0  0  0  0
   36.4940   25.8760   39.5000 C   0  0  0  0  0  0  0  0  0  0  0  0
   36.2500   26.3380   38.5520 H   0  0  0  0  0  0  0  0  0  0  0  0
   36.2530   24.5370   39.8070 C   0  0  0  0  0  0  0  0  0  0  0  0
   35.7880   23.9460   39.0240 H   0  0  0  0  0  0  0  0  0  0  0  0
   36.5950   24.0190   41.0460 C   0  0  0  0  0  3  0  0  0  0  0  0
   37.1900   24.8130   42.0280 C   0  0  0  0  0  3  0  0  0  0  0  0
   37.4070   26.0980   41.6930 N   0  0  0  0  0  0  0  0  0  0  0  0
  1 16  1  0  0  0  0
  1  3  1  0  0  0  0
  2  1  2  0  0  0  0
  3  4  1  0  0  0  0
  5  3  1  0  0  0  0
  6  5  1  0  0  0  0
  6 13  1  0  0  0  0
  7  6  2  0  0  0  0
  8  9  2  0  0  0  0
  8  7  1  0  0  0  0
  9 10  1  0  0  0  0
 10  5  2  0  0  0  0
 11  7  1  0  0  0  0
 12  9  1  0  0  0  0
 13 15  1  0  0  0  0
 14 13  1  0  0  0  0
 16 23  1  0  0  0  0
 17 19  1  0  0  0  0
 17 16  2  0  0  0  0
 18 17  1  0  0  0  0
 19 21  2  0  0  0  0
 20 19  1  0  0  0  0
 21 22  1  0  0  0  0
 23 22  2  0  0  0  0
M  END
>  <minimizedAffinity>
-4.68455744

$$$$

 OpenBabel03252501333D

 23 24  0  0  0  0  0  0  0  0999 V2000
   38.1780   28.4510   41.0120 C   0  0  0  0  0  0  0  0  0  0  0  0
   38.8430   29.3500   41.5950 O   0  0  0  0  0  0  0  0  0  0  0  0
   37.4310   28.9430   39.9020 N   0  0  0  0  0  0  0  0  0  0  0  0
   36.8520   28.3330   39.3230 H   0  0  0  0  0  0  0  0  0  0  0  0
   37.6620   30.3750   39.7960 C   0  0  0  0  0  0  0  0  0  0  0  0
   36.9210   31.3560   40.4230 C   0  0  0  0  0  0  0  0  0  0  0  0
   37.2910   32.6700   40.2020 C   0  0  0  0  0  0  0  0  0  0  0  0
   38.3400   32.9020   39.3990 N   0  0  0  0  0  0  0  0  0  0  0  0
   39.0500   31.9230   38.7980 C   0  0  0  0  0  0  0  0  0  0  0  0
   38.7140   30.6410   38.9940 N   0  0  0  0  0  0  0  0  0  0  0  0
   36.7030   33.4130   40.6980 H   0  0  0  0  0  0  0  0  0  0  0  0
   39.8870   32.1990   38.1620 H   0  0  0  0  0  0  0  0  0  0  0  0
   35.8380   30.9050   41.2410 N   0  0  0  0  0  0  0  0  0  0  0  0
   34.8450   31.2510   41.0960 H   0  0  0  0  0  0  0  0  0  0  0  0
   36.1080   30.2230   41.9740 H   0  0  0  0  0  0  0  0  0  0  0  0
   38.1430   27.0380   41.3950 C   0  0  0  0  0  0  0  0  0  0  0  0
   36.9760   26.5480   41.9460 C   0  0  0  0  0  0  0  0  0  0  0  0
   36.1220   27.1970   42.0870 H   0  0  0  0  0  0  0  0  0  0  0  0
   37.0020   25.1960   42.2900 C   0  0  0  0  0  0  0  0  0  0  0  0
   36.0900   24.7990   42.7250 H   0  0  0  0  0  0  0  0  0  0  0  0
   38.1380   24.4310   42.0780 C   0  0  0  0  0  3  0  0  0  0  0  0
   39.2920   24.9800   41.5160 C   0  0  0  0  0  3  0  0  0  0  0  0
   39.2270   26.2850   41.1980 N   0  0  0  0  0  0  0  0  0  0  0  0
  1 16  1  0  0  0  0
  1  2  2  0  0  0  0
  3  1  1  0  0  0  0
  4  3  1  0  0  0  0
  5  3  1  0  0  0  0
  5  6  1  0  0  0  0
  6 13  1  0  0  0  0
  7  6  2  0  0  0  0
  7 11  1  0  0  0  0
  8  7  1  0  0  0  0
  9 10  1  0  0  0  0
  9  8  2  0  0  0  0
 10  5  2  0  0  0  0
 12  9  1  0  0  0  0
 13 15  1  0  0  0  0
 14 13  1  0  0  0  0
 16 17  1  0  0  0  0
 17 18  1  0  0  0  0
 17 19  2  0  0  0  0
 19 20  1  0  0  0  0
 21 19  1  0  0  0  0
 22 21  2  0  0  0  0
 23 16  2  0  0  0  0
 23 22  1  0  0  0  0
M  END
>  <minimizedAffinity>
-4.61240005

$$$$

 OpenBabel03252501333D

 23 24  0  0  0  0  0  0  0  0999 V2000
   38.9890   30.4300   40.7930 C   0  0  0  0  0  0  0  0  0  0  0  0
   40.2480   30.4920   40.7900 O   0  0  0  0  0  0  0  0  0  0  0  0
   38.3820   31.3720   39.9110 N   0  0  0  0  0  0  0  0  0  0  0  0
   37.3690   31.4350   39.7950 H   0  0  0  0  0  0  0  0  0  0  0  0
   39.4370   32.1470   39.2770 C   0  0  0  0  0  0  0  0  0  0  0  0
   40.0910   31.8080   38.1090 C   0  0  0  0  0  0  0  0  0  0  0  0
   41.0710   32.6710   37.6560 C   0  0  0  0  0  0  0  0  0  0  0  0
   41.3200   33.7750   38.3780 N   0  0  0  0  0  0  0  0  0  0  0  0
   40.6650   34.0830   39.5170 C   0  0  0  0  0  0  0  0  0  0  0  0
   39.7110   33.2650   39.9790 N   0  0  0  0  0  0  0  0  0  0  0  0
   41.5630   32.3880   36.7510 H   0  0  0  0  0  0  0  0  0  0  0  0
   40.9300   34.9990   40.0400 H   0  0  0  0  0  0  0  0  0  0  0  0
   39.6800   30.5870   37.4870 N   0  0  0  0  0  0  0  0  0  0  0  0
   40.3720   29.8170   37.2540 H   0  0  0  0  0  0  0  0  0  0  0  0
   38.6640   30.5260   37.2870 H   0  0  0  0  0  0  0  0  0  0  0  0
   38.1860   29.5070   41.5980 C   0  0  0  0  0  0  0  0  0  0  0  0
   38.5500   29.3170   42.9160 C   0  0  0  0  0  0  0  0  0  0  0  0
   39.4030   29.8380   43.3300 H   0  0  0  0  0  0  0  0  0  0  0  0
   37.7490   28.4270   43.6320 C   0  0  0  0  0  0  0  0  0  0  0  0
   38.0260   28.2690   44.6700 H   0  0  0  0  0  0  0  0  0  0  0  0
   36.6720   27.7970   43.0290 C   0  0  0  0  0  3  0  0  0  0  0  0
   36.3500   28.0270   41.6900 C   0  0  0  0  0  3  0  0  0  0  0  0
   37.1460   28.8910   41.0350 N   0  0  0  0  0  0  0  0  0  0  0  0
  1 16  1  0  0  0  0
  2  1  2  0  0  0  0
  3  1  1  0  0  0  0
  4  3  1  0  0  0  0
  5  3  1  0  0  0  0
  5 10  1  0  0  0  0
  6  5  2  0  0  0  0
  7  6  1  0  0  0  0
  7  8  2  0  0  0  0
  8  9  1  0  0  0  0
  9 10  2  0  0  0  0
  9 12  1  0  0  0  0
 11  7  1  0  0  0  0
 13  6  1  0  0  0  0
 14 13  1  0  0  0  0
 15 13  1  0  0  0  0
 16 17  1  0  0  0  0
 17 18  1  0  0  0  0
 17 19  2  0  0  0  0
 19 20  1  0  0  0  0
 21 19  1  0  0  0  0
 22 21  2  0  0  0  0
 23 16  2  0  0  0  0
 23 22  1  0  0  0  0
M  END
>  <minimizedAffinity>
-4.3592205

$$$$

 OpenBabel03252501333D

 23 24  0  0  0  0  0  0  0  0999 V2000
   38.1070   29.2110   40.7970 C   0  0  0  0  0  0  0  0  0  0  0  0
   38.8220   29.6320   39.8470 O   0  0  0  0  0  0  0  0  0  0  0  0
   37.5100   30.2620   41.5520 N   0  0  0  0  0  0  0  0  0  0  0  0
   36.8940   30.0800   42.3460 H   0  0  0  0  0  0  0  0  0  0  0  0
   37.9380   31.5320   40.9840 C   0  0  0  0  0  0  0  0  0  0  0  0
   39.1000   32.2030   41.3050 C   0  0  0  0  0  0  0  0  0  0  0  0
   39.3400   33.4020   40.6600 C   0  0  0  0  0  0  0  0  0  0  0  0
   38.4330   33.8300   39.7690 N   0  0  0  0  0  0  0  0  0  0  0  0
   37.3030   33.1530   39.4720 C   0  0  0  0  0  0  0  0  0  0  0  0
   37.0450   31.9890   40.0820 N   0  0  0  0  0  0  0  0  0  0  0  0
   40.2460   33.9040   40.9250 H   0  0  0  0  0  0  0  0  0  0  0  0
   36.6210   33.5720   38.7370 H   0  0  0  0  0  0  0  0  0  0  0  0
   39.9400   31.5810   42.2820 N   0  0  0  0  0  0  0  0  0  0  0  0
   40.2500   32.0900   43.1590 H   0  0  0  0  0  0  0  0  0  0  0  0
   40.2130   30.6060   42.0560 H   0  0  0  0  0  0  0  0  0  0  0  0
   37.8820   27.8040   41.1310 C   0  0  0  0  0  0  0  0  0  0  0  0
   37.1170   27.5190   42.2440 C   0  0  0  0  0  0  0  0  0  0  0  0
   36.7020   28.3190   42.8430 H   0  0  0  0  0  0  0  0  0  0  0  0
   36.9370   26.1620   42.5120 C   0  0  0  0  0  0  0  0  0  0  0  0
   36.3380   25.9260   43.3860 H   0  0  0  0  0  0  0  0  0  0  0  0
   37.5030   25.1960   41.6960 C   0  0  0  0  0  3  0  0  0  0  0  0
   38.2690   25.5410   40.5810 C   0  0  0  0  0  3  0  0  0  0  0  0
   38.4190   26.8590   40.3560 N   0  0  0  0  0  0  0  0  0  0  0  0
  1 16  1  0  0  0  0
  1  3  1  0  0  0  0
  2  1  2  0  0  0  0
  3  4  1  0  0  0  0
  5  6  1  0  0  0  0
  5  3  1  0  0  0  0
  6 13  1  0  0  0  0
  7 11  1  0  0  0  0
  7  6  2  0  0  0  0
  8  7  1  0  0  0  0
  9  8  2  0  0  0  0
  9 10  1  0  0  0  0
 10  5  2  0  0  0  0
 12  9  1  0  0  0  0
 13 14  1  0  0  0  0
 15 13  1  0  0  0  0
 16 17  1  0  0  0  0
 17 19  2  0  0  0  0
 17 18  1  0  0  0  0
 19 20  1  0  0  0  0
 21 19  1  0  0  0  0
 22 21  2  0  0  0  0
 23 22  1  0  0  0  0
 23 16  2  0  0  0  0
M  END
>  <minimizedAffinity>
-4.35674667

$$$$

 OpenBabel03252501333D

 23 24  0  0  0  0  0  0  0  0999 V2000
   39.8070   30.9630   41.0240 C   0  0  0  0  0  0  0  0  0  0  0  0
   40.6630   30.6670   40.1480 O   0  0  0  0  0  0  0  0  0  0  0  0
   39.8880   32.3220   41.4460 N   0  0  0  0  0  0  0  0  0  0  0  0
   39.2520   32.7150   42.1430 H   0  0  0  0  0  0  0  0  0  0  0  0
   40.9780   32.9590   40.7230 C   0  0  0  0  0  0  0  0  0  0  0  0
   42.2610   33.1370   41.1990 C   0  0  0  0  0  0  0  0  0  0  0  0
   43.1670   33.7660   40.3660 C   0  0  0  0  0  0  0  0  0  0  0  0
   42.7400   34.1600   39.1560 N   0  0  0  0  0  0  0  0  0  0  0  0
   41.4790   33.9740   38.7140 C   0  0  0  0  0  0  0  0  0  0  0  0
   40.5800   33.3670   39.5000 N   0  0  0  0  0  0  0  0  0  0  0  0
   44.1540   33.8920   40.7560 H   0  0  0  0  0  0  0  0  0  0  0  0
   41.2170   34.3240   37.7180 H   0  0  0  0  0  0  0  0  0  0  0  0
   42.5190   32.6450   42.5180 N   0  0  0  0  0  0  0  0  0  0  0  0
   42.9180   33.2680   43.2780 H   0  0  0  0  0  0  0  0  0  0  0  0
   42.2860   31.6440   42.6570 H   0  0  0  0  0  0  0  0  0  0  0  0
   38.8130   30.0450   41.5840 C   0  0  0  0  0  0  0  0  0  0  0  0
   38.9260   29.7060   42.9180 C   0  0  0  0  0  0  0  0  0  0  0  0
   39.7290   30.1110   43.5200 H   0  0  0  0  0  0  0  0  0  0  0  0
   37.9520   28.8290   43.3940 C   0  0  0  0  0  0  0  0  0  0  0  0
   38.0310   28.5540   44.4410 H   0  0  0  0  0  0  0  0  0  0  0  0
   36.9550   28.3520   42.5570 C   0  0  0  0  0  3  0  0  0  0  0  0
   36.8880   28.7300   41.2140 C   0  0  0  0  0  3  0  0  0  0  0  0
   37.8460   29.5760   40.7940 N   0  0  0  0  0  0  0  0  0  0  0  0
  1  3  1  0  0  0  0
  1 16  1  0  0  0  0
  2  1  2  0  0  0  0
  3  4  1  0  0  0  0
  5  6  1  0  0  0  0
  5  3  1  0  0  0  0
  6 13  1  0  0  0  0
  7 11  1  0  0  0  0
  7  6  2  0  0  0  0
  8  7  1  0  0  0  0
  9  8  2  0  0  0  0
  9 10  1  0  0  0  0
 10  5  2  0  0  0  0
 12  9  1  0  0  0  0
 13 15  1  0  0  0  0
 13 14  1  0  0  0  0
 16 17  1  0  0  0  0
 17 19  2  0  0  0  0
 17 18  1  0  0  0  0
 19 20  1  0  0  0  0
 21 19  1  0  0  0  0
 22 21  2  0  0  0  0
 23 22  1  0  0  0  0
 23 16  2  0  0  0  0
M  END
>  <minimizedAffinity>
-4.35229492

$$$$
