
 OpenBabel03252508493D

 27 29  0  0  0  0  0  0  0  0999 V2000
   45.9370   34.2230   41.0300 C   0  0  0  0  0  0  0  0  0  0  0  0
   46.5320   34.7970   42.1480 C   0  0  0  0  0  0  0  0  0  0  0  0
   47.8890   35.1130   42.0300 C   0  0  0  0  0  0  0  0  0  0  0  0
   48.5400   34.8550   40.8700 N   0  0  0  0  0  0  0  0  0  0  0  0
   47.9090   34.2960   39.8170 C   0  0  0  0  0  0  0  0  0  0  0  0
   46.6040   33.9790   39.8940 N   0  0  0  0  0  0  0  0  0  0  0  0
   48.3740   35.5580   42.8820 H   0  0  0  0  0  0  0  0  0  0  0  0
   48.5000   34.1230   38.9260 H   0  0  0  0  0  0  0  0  0  0  0  0
   45.7550   35.0390   43.3460 C   0  0  0  0  0  0  0  0  0  0  0  0
   45.1050   36.2500   43.5840 C   0  0  0  0  0  0  0  0  0  0  0  0
   44.5030   36.0530   44.8050 C   0  0  0  0  0  0  0  0  0  0  0  0
   44.7670   34.8050   45.2810 N   0  0  0  0  0  0  0  0  0  0  0  0
   45.5250   34.2300   44.3690 N   0  0  0  0  0  0  0  0  0  0  0  0
   45.0320   37.1700   43.0180 H   0  0  0  0  0  0  0  0  0  0  0  0
   43.8830   36.7280   45.3970 H   0  0  0  0  0  0  0  0  0  0  0  0
   44.4730   34.3330   46.1620 H   0  0  0  0  0  0  0  0  0  0  0  0
   44.5950   33.8940   41.1030 O   0  0  0  0  0  0  0  0  0  0  0  0
   43.5380   34.6050   40.6180 C   0  0  0  0  0  0  0  0  0  0  0  0
   43.2820   35.8470   40.8020 O   0  0  0  0  0  0  0  0  0  0  0  0
   42.4740   34.0030   39.7610 C   0  0  0  0  0  0  0  0  0  0  0  0
   41.6530   34.7850   38.9820 C   0  0  0  0  0  0  0  0  0  0  0  0
   41.7380   35.8620   38.9480 H   0  0  0  0  0  0  0  0  0  0  0  0
   40.6450   34.2840   38.1670 C   0  0  0  0  0  0  0  0  0  0  0  0
   40.0170   34.9210   37.5670 H   0  0  0  0  0  0  0  0  0  0  0  0
   40.4510   32.9200   38.1360 C   0  0  0  0  0  3  0  0  0  0  0  0
   41.2870   32.1660   38.9250 C   0  0  0  0  0  3  0  0  0  0  0  0
   42.2330   32.7050   39.6830 N   0  0  0  0  0  0  0  0  0  0  0  0
  1 17  1  0  0  0  0
  1  2  1  0  0  0  0
  2  9  1  0  0  0  0
  3  2  2  0  0  0  0
  3  7  1  0  0  0  0
  4  3  1  0  0  0  0
  5  6  1  0  0  0  0
  5  4  2  0  0  0  0
  6  1  2  0  0  0  0
  8  5  1  0  0  0  0
  9 10  1  0  0  0  0
  9 13  2  0  0  0  0
 10 11  2  0  0  0  0
 11 12  1  0  0  0  0
 11 15  1  0  0  0  0
 12 16  1  0  0  0  0
 13 12  1  0  0  0  0
 14 10  1  0  0  0  0
 18 19  2  0  0  0  0
 18 17  1  0  0  0  0
 20 18  1  0  0  0  0
 21 20  2  0  0  0  0
 22 21  1  0  0  0  0
 23 21  1  0  0  0  0
 24 23  1  0  0  0  0
 25 23  2  0  0  0  0
 25 26  1  0  0  0  0
 26 27  2  0  0  0  0
 27 20  1  0  0  0  0
M  END
>  <minimizedAffinity>
-5.40685034

>  <minimizedRMSD>
0.652367473

$$$$
