
     RDKit          3D

 29 31  0  0  0  0  0  0  0  0999 V2000
   46.0830   34.1603   41.0123 C   0  0  0  0  0  0  0  0  0  0  0  0
   46.6151   34.8261   42.1111 C   0  0  0  0  0  0  0  0  0  0  0  0
   47.9360   35.2664   41.9840 C   0  0  0  0  0  0  0  0  0  0  0  0
   48.6145   35.0322   40.8339 N   0  0  0  0  0  0  0  0  0  0  0  0
   48.0452   34.3803   39.7995 C   0  0  0  0  0  0  0  0  0  0  0  0
   46.7762   33.9419   39.8860 N   0  0  0  0  0  0  0  0  0  0  0  0
   45.8132   35.0329   43.2976 C   0  0  0  0  0  0  0  0  0  0  0  0
   45.0500   36.1843   43.4938 C   0  0  0  0  0  0  0  0  0  0  0  0
   44.4631   35.9722   44.7199 C   0  0  0  0  0  0  0  0  0  0  0  0
   44.8423   34.7723   45.2376 N   0  0  0  0  0  0  0  0  0  0  0  0
   45.6548   34.2412   44.3480 N   0  0  0  0  0  0  0  0  0  0  0  0
   44.7781   33.7056   41.0951 O   0  0  0  0  0  0  0  0  0  0  0  0
   43.6888   34.1852   40.4291 C   0  0  0  0  0  0  0  0  0  0  0  0
   43.2495   35.3880   40.4152 O   0  0  0  0  0  0  0  0  0  0  0  0
   48.3719   35.7848   42.8211 H   0  0  0  0  0  0  0  0  0  0  0  0
   48.6535   34.2337   38.9169 H   0  0  0  0  0  0  0  0  0  0  0  0
   44.8918   37.0740   42.8965 H   0  0  0  0  0  0  0  0  0  0  0  0
   43.7788   36.6047   45.2878 H   0  0  0  0  0  0  0  0  0  0  0  0
   44.5892   34.3044   46.1352 H   0  0  0  0  0  0  0  0  0  0  0  0
   42.8089   33.3267   39.5813 C   0  0  0  0  0  0  0  0  0  0  0  0
   41.9169   33.8767   38.6904 C   0  0  0  0  0  0  0  0  0  0  0  0
   41.8098   34.9435   38.5581 H   0  0  0  0  0  0  0  0  0  0  0  0
   41.0701   33.1306   37.8771 C   0  0  0  0  0  0  0  0  0  0  0  0
   40.3809   33.5887   37.1880 H   0  0  0  0  0  0  0  0  0  0  0  0
   41.1250   31.7573   37.9660 C   0  0  0  0  0  0  0  0  0  0  0  0
   42.0268   31.2389   38.8655 C   0  0  0  0  0  0  0  0  0  0  0  0
   42.8093   32.0056   39.6153 N   0  0  0  0  0  0  0  0  0  0  0  0
   40.5161   31.0790   37.3847 H   0  0  0  0  0  0  0  0  0  0  0  0
   42.1665   30.1840   39.0298 H   0  0  0  0  0  0  0  0  0  0  0  0
  1 12  1  0
  1  2  1  0
  2  7  1  0
  3  2  2  0
  4  3  1  0
  5  6  1  0
  5  4  2  0
  6  1  2  0
  7  8  1  0
  7 11  2  0
  8  9  2  0
  9 10  1  0
 11 10  1  0
 13 14  2  0
 13 12  1  0
  3 15  1  0
  5 16  1  0
  8 17  1  0
  9 18  1  0
 10 19  1  0
 20 21  2  0
 21 22  1  0
 21 23  1  0
 23 24  1  0
 23 25  2  0
 25 26  1  0
 26 27  2  0
 27 20  1  0
 25 28  1  0
 26 29  1  0
 13 20  1  0
M  ISO  7  15  14  16  14  17  14  18  14  19   9  22  15  24  16
M  END
>  <DihAtoms>  (1) 
13,12,19,20

>  <DihDeg>  (1) 
0.22491054559361703

$$$$
