
 OpenBabel03252508493D

 27 29  0  0  0  0  0  0  0  0999 V2000
   45.9670   34.1600   41.0460 C   0  0  0  0  0  0  0  0  0  0  0  0
   46.5400   34.8000   42.1400 C   0  0  0  0  0  0  0  0  0  0  0  0
   47.8760   35.1880   41.9960 C   0  0  0  0  0  0  0  0  0  0  0  0
   48.5280   34.9340   40.8360 N   0  0  0  0  0  0  0  0  0  0  0  0
   47.9190   34.3090   39.8070 C   0  0  0  0  0  0  0  0  0  0  0  0
   46.6350   33.9210   39.9100 N   0  0  0  0  0  0  0  0  0  0  0  0
   48.3440   35.6860   42.8290 H   0  0  0  0  0  0  0  0  0  0  0  0
   48.5090   34.1440   38.9150 H   0  0  0  0  0  0  0  0  0  0  0  0
   45.7640   35.0320   43.3400 C   0  0  0  0  0  0  0  0  0  0  0  0
   45.0590   36.2160   43.5570 C   0  0  0  0  0  0  0  0  0  0  0  0
   44.4780   36.0200   44.7880 C   0  0  0  0  0  0  0  0  0  0  0  0
   44.8060   34.7970   45.2890 N   0  0  0  0  0  0  0  0  0  0  0  0
   45.5820   34.2380   44.3840 N   0  0  0  0  0  0  0  0  0  0  0  0
   44.9370   37.1190   42.9710 H   0  0  0  0  0  0  0  0  0  0  0  0
   43.8320   36.6780   45.3710 H   0  0  0  0  0  0  0  0  0  0  0  0
   44.5420   34.3330   46.1850 H   0  0  0  0  0  0  0  0  0  0  0  0
   44.6470   33.7570   41.1460 O   0  0  0  0  0  0  0  0  0  0  0  0
   43.5490   34.3740   40.6230 C   0  0  0  0  0  0  0  0  0  0  0  0
   43.3210   35.6330   40.5500 O   0  0  0  0  0  0  0  0  0  0  0  0
   42.3970   33.6280   40.0350 C   0  0  0  0  0  0  0  0  0  0  0  0
   41.5400   32.8980   40.8240 C   0  0  0  0  0  0  0  0  0  0  0  0
   41.6530   32.8290   41.8970 H   0  0  0  0  0  0  0  0  0  0  0  0
   40.4530   32.1800   40.3360 C   0  0  0  0  0  0  0  0  0  0  0  0
   39.7980   31.6170   40.9780 H   0  0  0  0  0  0  0  0  0  0  0  0
   40.2160   32.2000   38.9790 C   0  0  0  0  0  3  0  0  0  0  0  0
   41.0920   32.9390   38.2180 C   0  0  0  0  0  3  0  0  0  0  0  0
   42.1120   33.6030   38.7450 N   0  0  0  0  0  0  0  0  0  0  0  0
  1 17  1  0  0  0  0
  1  2  1  0  0  0  0
  2  9  1  0  0  0  0
  3  2  2  0  0  0  0
  3  7  1  0  0  0  0
  4  3  1  0  0  0  0
  5  6  1  0  0  0  0
  5  4  2  0  0  0  0
  6  1  2  0  0  0  0
  8  5  1  0  0  0  0
  9 10  1  0  0  0  0
  9 13  2  0  0  0  0
 10 11  2  0  0  0  0
 11 12  1  0  0  0  0
 11 15  1  0  0  0  0
 12 16  1  0  0  0  0
 13 12  1  0  0  0  0
 14 10  1  0  0  0  0
 18 17  1  0  0  0  0
 19 18  2  0  0  0  0
 20 18  1  0  0  0  0
 20 21  1  0  0  0  0
 21 22  1  0  0  0  0
 23 21  2  0  0  0  0
 23 24  1  0  0  0  0
 25 23  1  0  0  0  0
 26 27  1  0  0  0  0
 26 25  2  0  0  0  0
 27 20  2  0  0  0  0
M  END
>  <minimizedAffinity>
-5.17376089

>  <minimizedRMSD>
0.612438738

$$$$
