
 OpenBabel03252508493D

 27 29  0  0  0  0  0  0  0  0999 V2000
   45.9730   34.1940   41.0380 C   0  0  0  0  0  0  0  0  0  0  0  0
   46.5520   34.8020   42.1460 C   0  0  0  0  0  0  0  0  0  0  0  0
   47.8970   35.1610   42.0200 C   0  0  0  0  0  0  0  0  0  0  0  0
   48.5530   34.9080   40.8610 N   0  0  0  0  0  0  0  0  0  0  0  0
   47.9390   34.3140   39.8180 C   0  0  0  0  0  0  0  0  0  0  0  0
   46.6450   33.9550   39.9030 N   0  0  0  0  0  0  0  0  0  0  0  0
   48.3690   35.6340   42.8640 H   0  0  0  0  0  0  0  0  0  0  0  0
   48.5330   34.1480   38.9280 H   0  0  0  0  0  0  0  0  0  0  0  0
   45.7710   35.0350   43.3420 C   0  0  0  0  0  0  0  0  0  0  0  0
   45.0770   36.2250   43.5630 C   0  0  0  0  0  0  0  0  0  0  0  0
   44.4860   36.0260   44.7900 C   0  0  0  0  0  0  0  0  0  0  0  0
   44.7980   34.7980   45.2850 N   0  0  0  0  0  0  0  0  0  0  0  0
   45.5730   34.2360   44.3800 N   0  0  0  0  0  0  0  0  0  0  0  0
   44.9680   37.1330   42.9820 H   0  0  0  0  0  0  0  0  0  0  0  0
   43.8440   36.6880   45.3730 H   0  0  0  0  0  0  0  0  0  0  0  0
   44.5240   34.3300   46.1750 H   0  0  0  0  0  0  0  0  0  0  0  0
   44.6430   33.8210   41.1200 O   0  0  0  0  0  0  0  0  0  0  0  0
   43.5670   34.4620   40.5810 C   0  0  0  0  0  0  0  0  0  0  0  0
   43.2650   35.7030   40.6830 O   0  0  0  0  0  0  0  0  0  0  0  0
   42.5340   33.7690   39.7550 C   0  0  0  0  0  0  0  0  0  0  0  0
   42.8860   32.8710   38.7750 C   0  0  0  0  0  0  0  0  0  0  0  0
   43.9150   32.6220   38.5560 H   0  0  0  0  0  0  0  0  0  0  0  0
   41.9710   32.1960   37.9730 C   0  0  0  0  0  0  0  0  0  0  0  0
   42.2760   31.4980   37.2120 H   0  0  0  0  0  0  0  0  0  0  0  0
   40.6300   32.4400   38.1690 C   0  0  0  0  0  3  0  0  0  0  0  0
   40.3110   33.3420   39.1570 C   0  0  0  0  0  3  0  0  0  0  0  0
   41.2320   33.9540   39.8890 N   0  0  0  0  0  0  0  0  0  0  0  0
  1 17  1  0  0  0  0
  1  2  1  0  0  0  0
  2  9  1  0  0  0  0
  3  2  2  0  0  0  0
  3  7  1  0  0  0  0
  4  3  1  0  0  0  0
  5  6  1  0  0  0  0
  5  4  2  0  0  0  0
  6  1  2  0  0  0  0
  8  5  1  0  0  0  0
  9 10  1  0  0  0  0
  9 13  2  0  0  0  0
 10 11  2  0  0  0  0
 11 12  1  0  0  0  0
 11 15  1  0  0  0  0
 12 16  1  0  0  0  0
 13 12  1  0  0  0  0
 14 10  1  0  0  0  0
 18 19  2  0  0  0  0
 18 17  1  0  0  0  0
 20 27  1  0  0  0  0
 20 18  1  0  0  0  0
 21 20  2  0  0  0  0
 22 21  1  0  0  0  0
 23 25  2  0  0  0  0
 23 21  1  0  0  0  0
 24 23  1  0  0  0  0
 25 26  1  0  0  0  0
 26 27  2  0  0  0  0
M  END
>  <minimizedAffinity>
-5.22364378

>  <minimizedRMSD>
0.452110231

$$$$
