
 OpenBabel03252508493D

 27 29  0  0  0  0  0  0  0  0999 V2000
   45.8430   34.2380   41.0400 C   0  0  0  0  0  0  0  0  0  0  0  0
   46.4660   34.7840   42.1570 C   0  0  0  0  0  0  0  0  0  0  0  0
   47.8330   35.0500   42.0320 C   0  0  0  0  0  0  0  0  0  0  0  0
   48.4660   34.7720   40.8670 N   0  0  0  0  0  0  0  0  0  0  0  0
   47.8090   34.2420   39.8150 C   0  0  0  0  0  0  0  0  0  0  0  0
   46.4940   33.9730   39.8990 N   0  0  0  0  0  0  0  0  0  0  0  0
   48.3390   35.4730   42.8830 H   0  0  0  0  0  0  0  0  0  0  0  0
   48.3880   34.0510   38.9210 H   0  0  0  0  0  0  0  0  0  0  0  0
   45.7050   35.0500   43.3600 C   0  0  0  0  0  0  0  0  0  0  0  0
   45.1160   36.2880   43.6150 C   0  0  0  0  0  0  0  0  0  0  0  0
   44.5090   36.1070   44.8360 C   0  0  0  0  0  0  0  0  0  0  0  0
   44.7130   34.8420   45.2960 N   0  0  0  0  0  0  0  0  0  0  0  0
   45.4390   34.2410   44.3750 N   0  0  0  0  0  0  0  0  0  0  0  0
   45.0860   37.2180   43.0600 H   0  0  0  0  0  0  0  0  0  0  0  0
   43.9250   36.8050   45.4380 H   0  0  0  0  0  0  0  0  0  0  0  0
   44.3980   34.3750   46.1730 H   0  0  0  0  0  0  0  0  0  0  0  0
   44.4900   33.9580   41.1210 O   0  0  0  0  0  0  0  0  0  0  0  0
   43.4560   34.7290   40.6800 C   0  0  0  0  0  0  0  0  0  0  0  0
   43.2280   35.9600   40.9530 O   0  0  0  0  0  0  0  0  0  0  0  0
   42.3860   34.2180   39.7720 C   0  0  0  0  0  0  0  0  0  0  0  0
   41.2390   34.9420   39.5400 C   0  0  0  0  0  0  0  0  0  0  0  0
   41.0560   35.9050   39.9940 H   0  0  0  0  0  0  0  0  0  0  0  0
   40.2070   34.5180   38.7080 C   0  0  0  0  0  0  0  0  0  0  0  0
   39.3200   35.1050   38.5450 H   0  0  0  0  0  0  0  0  0  0  0  0
   40.3370   33.3000   38.0790 C   0  0  0  0  0  3  0  0  0  0  0  0
   41.4940   32.6020   38.3310 C   0  0  0  0  0  3  0  0  0  0  0  0
   42.4450   33.0620   39.1370 N   0  0  0  0  0  0  0  0  0  0  0  0
  1 17  1  0  0  0  0
  1  2  1  0  0  0  0
  2  9  1  0  0  0  0
  3  2  2  0  0  0  0
  3  7  1  0  0  0  0
  4  3  1  0  0  0  0
  5  6  1  0  0  0  0
  5  4  2  0  0  0  0
  6  1  2  0  0  0  0
  8  5  1  0  0  0  0
  9 10  1  0  0  0  0
  9 13  2  0  0  0  0
 10 11  2  0  0  0  0
 11 12  1  0  0  0  0
 11 15  1  0  0  0  0
 12 16  1  0  0  0  0
 13 12  1  0  0  0  0
 14 10  1  0  0  0  0
 18 19  2  0  0  0  0
 18 17  1  0  0  0  0
 20 18  1  0  0  0  0
 21 20  1  0  0  0  0
 21 22  1  0  0  0  0
 23 21  2  0  0  0  0
 24 23  1  0  0  0  0
 25 26  2  0  0  0  0
 25 23  1  0  0  0  0
 26 27  1  0  0  0  0
 27 20  2  0  0  0  0
M  END
>  <minimizedAffinity>
-5.42993546

>  <minimizedRMSD>
0.976259887

$$$$
