
 OpenBabel03242510213D

 37 40  0  0  1  0  0  0  0  0999 V2000
   48.0670   33.2130   43.2050 N   0  0  0  0  0  0  0  0  0  0  0  0
   49.2230   33.2450   42.4260 C   0  0  0  0  0  0  0  0  0  0  0  0
   50.3670   32.7690   42.6390 O   0  0  0  0  0  0  0  0  0  0  0  0
   47.5690   34.1290   43.2080 H   0  0  0  0  0  0  0  0  0  0  0  0
   46.2580   32.0650   44.4320 C   0  0  1  0  0  0  0  0  0  0  0  0
   46.4200   31.3540   43.2370 C   0  0  0  0  0  0  0  0  0  0  0  0
   47.6420   32.0520   43.9070 C   0  0  1  0  0  0  0  0  0  0  0  0
   46.0530   31.5710   45.4090 H   0  0  0  0  0  0  0  0  0  0  0  0
   46.2050   31.6580   42.1930 H   0  0  0  0  0  0  0  0  0  0  0  0
   46.4030   30.2220   43.2940 H   0  0  0  0  0  0  0  0  0  0  0  0
   48.3960   31.2860   44.1800 H   0  0  0  0  0  0  0  0  0  0  0  0
   45.0470   33.9790   43.1450 C   0  0  0  0  0  0  0  0  0  0  0  0
   45.5350   33.4180   44.3720 C   0  0  0  0  0  0  0  0  0  0  0  0
   45.3540   34.1550   45.5230 C   0  0  0  0  0  0  0  0  0  0  0  0
   44.7350   35.3530   45.4470 N   0  0  0  0  0  0  0  0  0  0  0  0
   44.2790   35.8720   44.2770 C   0  0  0  0  0  0  0  0  0  0  0  0
   44.4460   35.1510   43.0900 N   0  0  0  0  0  0  0  0  0  0  0  0
   45.1790   33.3820   42.2640 H   0  0  0  0  0  0  0  0  0  0  0  0
   45.7000   33.7810   46.4790 H   0  0  0  0  0  0  0  0  0  0  0  0
   43.8130   36.8350   44.3970 H   0  0  0  0  0  0  0  0  0  0  0  0
   49.1890   33.9460   41.0810 C   0  0  2  0  0  0  0  0  0  0  0  0
   48.6420   35.4190   41.0730 C   0  0  0  0  0  0  0  0  0  0  0  0
   47.9200   34.2920   40.4290 C   0  0  1  0  0  0  0  0  0  0  0  0
   50.1080   33.9030   40.4620 H   0  0  0  0  0  0  0  0  0  0  0  0
   48.2650   35.7190   42.0830 H   0  0  0  0  0  0  0  0  0  0  0  0
   49.1270   36.1470   40.4320 H   0  0  0  0  0  0  0  0  0  0  0  0
   47.0050   33.8390   40.8640 H   0  0  0  0  0  0  0  0  0  0  0  0
   47.8860   34.2290   38.9200 C   0  0  0  0  0  0  0  0  0  0  0  0
   48.7080   34.8630   38.2710 O   0  0  0  0  0  0  0  0  0  0  0  0
   46.8820   33.4210   38.2290 C   0  0  0  0  0  0  0  0  0  0  0  0
   47.0720   33.0590   36.9130 C   0  0  0  0  0  0  0  0  0  0  0  0
   47.9830   33.3970   36.4270 H   0  0  0  0  0  0  0  0  0  0  0  0
   46.1710   32.2970   36.1940 C   0  0  0  0  0  0  0  0  0  0  0  0
   46.3160   32.0120   35.1600 H   0  0  0  0  0  0  0  0  0  0  0  0
   45.0320   31.9150   36.9140 C   0  0  0  0  0  0  0  0  0  0  0  0
   44.8040   32.2560   38.2290 C   0  0  0  0  0  0  0  0  0  0  0  0
   45.7530   32.9990   38.8230 N   0  0  0  0  0  0  0  0  0  0  0  0
  1  4  1  0  0  0  0
  1  7  1  0  0  0  0
  2  3  2  0  0  0  0
  2  1  1  0  0  0  0
  5  8  1  1  0  0  0
  6 10  1  0  0  0  0
  6  7  1  0  0  0  0
  6  5  1  0  0  0  0
  7 11  1  1  0  0  0
  7  5  1  0  0  0  0
  9  6  1  0  0  0  0
 12 13  1  0  0  0  0
 13  5  1  0  0  0  0
 13 14  2  0  0  0  0
 14 19  1  0  0  0  0
 15 14  1  0  0  0  0
 16 20  1  0  0  0  0
 16 15  2  0  0  0  0
 17 12  2  0  0  0  0
 17 16  1  0  0  0  0
 18 12  1  0  0  0  0
 21 24  1  6  0  0  0
 21  2  1  0  0  0  0
 22 21  1  0  0  0  0
 22 25  1  0  0  0  0
 23 27  1  1  0  0  0
 23 22  1  0  0  0  0
 23 21  1  0  0  0  0
 26 22  1  0  0  0  0
 28 23  1  0  0  0  0
 29 28  2  0  0  0  0
 30 37  1  0  0  0  0
 30 28  1  0  0  0  0
 31 30  2  0  0  0  0
 32 31  1  0  0  0  0
 33 31  1  0  0  0  0
 33 35  2  0  0  0  0
 34 33  1  0  0  0  0
 35 36  1  0  0  0  0
 36 37  2  0  0  0  0
M  END
>  <minimizedAffinity>
-4.88149214

>  <minimizedRMSD>
0.286703467

$$$$
