
 OpenBabel03252508493D

 27 29  0  0  0  0  0  0  0  0999 V2000
   45.9520   34.1900   41.0410 C   0  0  0  0  0  0  0  0  0  0  0  0
   46.5370   34.7990   42.1450 C   0  0  0  0  0  0  0  0  0  0  0  0
   47.8830   35.1530   42.0120 C   0  0  0  0  0  0  0  0  0  0  0  0
   48.5330   34.8970   40.8500 N   0  0  0  0  0  0  0  0  0  0  0  0
   47.9120   34.3030   39.8110 C   0  0  0  0  0  0  0  0  0  0  0  0
   46.6180   33.9480   39.9030 N   0  0  0  0  0  0  0  0  0  0  0  0
   48.3600   35.6270   42.8530 H   0  0  0  0  0  0  0  0  0  0  0  0
   48.5010   34.1340   38.9190 H   0  0  0  0  0  0  0  0  0  0  0  0
   45.7620   35.0360   43.3450 C   0  0  0  0  0  0  0  0  0  0  0  0
   45.0870   36.2340   43.5740 C   0  0  0  0  0  0  0  0  0  0  0  0
   44.4960   36.0370   44.8010 C   0  0  0  0  0  0  0  0  0  0  0  0
   44.7910   34.8010   45.2880 N   0  0  0  0  0  0  0  0  0  0  0  0
   45.5550   34.2330   44.3780 N   0  0  0  0  0  0  0  0  0  0  0  0
   44.9900   37.1470   42.9990 H   0  0  0  0  0  0  0  0  0  0  0  0
   43.8650   36.7050   45.3900 H   0  0  0  0  0  0  0  0  0  0  0  0
   44.5110   34.3320   46.1760 H   0  0  0  0  0  0  0  0  0  0  0  0
   44.6210   33.8210   41.1300 O   0  0  0  0  0  0  0  0  0  0  0  0
   43.5400   34.4860   40.6310 C   0  0  0  0  0  0  0  0  0  0  0  0
   43.3180   35.7470   40.6590 O   0  0  0  0  0  0  0  0  0  0  0  0
   42.4030   33.7990   39.9490 C   0  0  0  0  0  0  0  0  0  0  0  0
   41.1670   33.6990   40.5450 C   0  0  0  0  0  0  0  0  0  0  0  0
   40.9580   34.1080   41.5230 H   0  0  0  0  0  0  0  0  0  0  0  0
   40.0720   33.0690   39.9630 C   0  0  0  0  0  0  0  0  0  0  0  0
   39.1150   33.0060   40.4530 H   0  0  0  0  0  0  0  0  0  0  0  0
   40.2290   32.5110   38.7140 C   0  0  0  0  0  3  0  0  0  0  0  0
   41.4760   32.6280   38.1460 C   0  0  0  0  0  3  0  0  0  0  0  0
   42.4840   33.2430   38.7540 N   0  0  0  0  0  0  0  0  0  0  0  0
  1 17  1  0  0  0  0
  1  2  1  0  0  0  0
  2  9  1  0  0  0  0
  3  2  2  0  0  0  0
  3  7  1  0  0  0  0
  4  3  1  0  0  0  0
  5  6  1  0  0  0  0
  5  4  2  0  0  0  0
  6  1  2  0  0  0  0
  8  5  1  0  0  0  0
  9 10  1  0  0  0  0
  9 13  2  0  0  0  0
 10 11  2  0  0  0  0
 11 12  1  0  0  0  0
 11 15  1  0  0  0  0
 12 16  1  0  0  0  0
 13 12  1  0  0  0  0
 14 10  1  0  0  0  0
 18 19  2  0  0  0  0
 18 17  1  0  0  0  0
 20 21  1  0  0  0  0
 20 18  1  0  0  0  0
 21 22  1  0  0  0  0
 23 24  1  0  0  0  0
 23 21  2  0  0  0  0
 25 23  1  0  0  0  0
 26 25  2  0  0  0  0
 26 27  1  0  0  0  0
 27 20  2  0  0  0  0
M  END
>  <minimizedAffinity>
-5.20625353

>  <minimizedRMSD>
0.649406612

$$$$
