
 OpenBabel03252508023D

 41 44  0  0  1  0  0  0  0  0999 V2000
   42.0140   33.3080   41.1100 C   0  0  0  0  0  0  0  0  0  0  0  0
   42.7720   34.4220   41.3140 C   0  0  0  0  0  0  0  0  0  0  0  0
   42.1340   35.6730   41.2920 C   0  0  0  0  0  0  0  0  0  0  0  0
   40.7890   35.8280   41.0790 C   0  0  0  0  0  0  0  0  0  0  0  0
   40.0300   34.7070   40.8760 C   0  0  0  0  0  0  0  0  0  0  0  0
   40.6420   33.4890   40.8940 C   0  0  0  0  0  0  0  0  0  0  0  0
   42.6600   36.6070   41.4350 H   0  0  0  0  0  0  0  0  0  0  0  0
   40.3060   36.7700   41.0630 H   0  0  0  0  0  0  0  0  0  0  0  0
   38.9680   34.7370   40.7020 H   0  0  0  0  0  0  0  0  0  0  0  0
   40.0380   32.6030   40.7320 H   0  0  0  0  0  0  0  0  0  0  0  0
   42.6450   31.7440   41.1720 S   0  0  0  0  0  0  0  0  0  0  0  0
   41.4990   30.9200   40.5400 O   0  0  0  0  0  0  0  0  0  0  0  0
   42.8180   31.2560   42.5730 O   0  0  0  0  0  0  0  0  0  0  0  0
   43.7280   30.9760   40.1320 C   0  0  0  0  0  0  0  0  0  0  0  0
   44.0960   29.6630   40.5330 C   0  0  0  0  0  0  0  0  0  0  0  0
   43.7480   29.2110   41.4800 H   0  0  0  0  0  0  0  0  0  0  0  0
   44.9080   28.8360   39.7980 C   0  0  0  0  0  0  0  0  0  0  0  0
   45.1720   27.8420   40.1240 H   0  0  0  0  0  0  0  0  0  0  0  0
   45.3630   29.3490   38.6240 C   0  0  0  0  0  3  0  0  0  0  0  0
   45.0570   30.5980   38.1680 C   0  0  0  0  0  3  0  0  0  0  0  0
   44.2660   31.3250   38.9460 N   0  0  0  0  0  0  0  0  0  0  0  0
   44.2150   34.3570   41.5350 C   0  0  0  0  0  0  0  0  0  0  0  0
   45.0880   34.2330   40.6040 O   0  0  0  0  0  0  0  0  0  0  0  0
   44.5750   34.4500   42.9200 C   0  0  0  0  0  0  0  0  0  0  0  0
   44.3030   35.7040   43.5490 C   0  0  0  0  0  0  0  0  0  0  0  0
   44.6340   35.8120   44.8950 C   0  0  0  0  0  0  0  0  0  0  0  0
   45.1850   34.7370   45.5150 N   0  0  0  0  0  0  0  0  0  0  0  0
   45.4250   33.5520   44.8670 C   0  0  0  0  0  0  0  0  0  0  0  0
   45.1180   33.4570   43.6210 N   0  0  0  0  0  0  0  0  0  0  0  0
   43.8770   36.5980   43.1410 H   0  0  0  0  0  0  0  0  0  0  0  0
   44.4720   36.7250   45.4820 H   0  0  0  0  0  0  0  0  0  0  0  0
   46.0180   32.4400   45.6300 C   0  0  1  0  0  0  0  0  0  0  0  0
   46.9630   32.7520   46.7700 C   0  0  0  0  0  0  0  0  0  0  0  0
   45.5480   32.3350   47.0370 C   0  0  1  0  0  0  0  0  0  0  0  0
   46.2470   31.5160   45.1030 H   0  0  0  0  0  0  0  0  0  0  0  0
   47.2840   33.8000   46.8770 H   0  0  0  0  0  0  0  0  0  0  0  0
   47.7220   31.9950   47.0470 H   0  0  0  0  0  0  0  0  0  0  0  0
   45.3660   31.3390   47.5150 H   0  0  0  0  0  0  0  0  0  0  0  0
   44.7670   33.4030   47.6260 N   0  0  0  0  0  0  0  0  0  0  0  0
   43.7870   33.1630   47.7940 H   0  0  0  0  0  0  0  0  0  0  0  0
   45.2490   33.9310   48.3600 H   0  0  0  0  0  0  0  0  0  0  0  0
  1 11  1  0  0  0  0
  1  2  1  0  0  0  0
  2 22  1  0  0  0  0
  3  2  2  0  0  0  0
  3  7  1  0  0  0  0
  4  3  1  0  0  0  0
  5  6  1  0  0  0  0
  5  4  2  0  0  0  0
  6  1  2  0  0  0  0
  8  4  1  0  0  0  0
  9  5  1  0  0  0  0
 10  6  1  0  0  0  0
 11 13  2  0  0  0  0
 12 11  2  0  0  0  0
 14 15  1  0  0  0  0
 14 11  1  0  0  0  0
 15 16  1  0  0  0  0
 17 18  1  0  0  0  0
 17 15  2  0  0  0  0
 19 17  1  0  0  0  0
 20 19  2  0  0  0  0
 20 21  1  0  0  0  0
 21 14  2  0  0  0  0
 22 24  1  0  0  0  0
 23 22  2  0  0  0  0
 24 25  2  0  0  0  0
 24 29  1  0  0  0  0
 25 26  1  0  0  0  0
 26 31  1  0  0  0  0
 26 27  2  0  0  0  0
 28 27  1  0  0  0  0
 28 32  1  0  0  0  0
 29 28  2  0  0  0  0
 30 25  1  0  0  0  0
 32 35  1  6  0  0  0
 32 33  1  0  0  0  0
 32 34  1  0  0  0  0
 33 36  1  0  0  0  0
 33 34  1  0  0  0  0
 33 37  1  0  0  0  0
 34 38  1  1  0  0  0
 34 39  1  0  0  0  0
 39 40  1  0  0  0  0
 39 41  1  0  0  0  0
M  END
>  <minimizedAffinity>
-5.71412086

>  <minimizedRMSD>
1.31800842

$$$$
