
 OpenBabel03252508023D

 41 44  0  0  1  0  0  0  0  0999 V2000
   42.0700   33.2630   41.1430 C   0  0  0  0  0  0  0  0  0  0  0  0
   42.7940   34.4030   41.3290 C   0  0  0  0  0  0  0  0  0  0  0  0
   42.1190   35.6340   41.2820 C   0  0  0  0  0  0  0  0  0  0  0  0
   40.7710   35.7440   41.0600 C   0  0  0  0  0  0  0  0  0  0  0  0
   40.0470   34.5980   40.8750 C   0  0  0  0  0  0  0  0  0  0  0  0
   40.6950   33.4000   40.9180 C   0  0  0  0  0  0  0  0  0  0  0  0
   42.6170   36.5860   41.4090 H   0  0  0  0  0  0  0  0  0  0  0  0
   40.2610   36.6710   41.0250 H   0  0  0  0  0  0  0  0  0  0  0  0
   38.9860   34.5930   40.6960 H   0  0  0  0  0  0  0  0  0  0  0  0
   40.1180   32.4930   40.7700 H   0  0  0  0  0  0  0  0  0  0  0  0
   42.7480   31.7200   41.2350 S   0  0  0  0  0  0  0  0  0  0  0  0
   41.7110   30.8780   40.4570 O   0  0  0  0  0  0  0  0  0  0  0  0
   42.7800   31.1970   42.6340 O   0  0  0  0  0  0  0  0  0  0  0  0
   43.9680   31.0200   40.3050 C   0  0  0  0  0  0  0  0  0  0  0  0
   43.5840   30.7100   38.9730 C   0  0  0  0  0  0  0  0  0  0  0  0
   42.5530   30.8600   38.6000 H   0  0  0  0  0  0  0  0  0  0  0  0
   44.4390   30.2020   38.0270 C   0  0  0  0  0  0  0  0  0  0  0  0
   44.1230   29.9750   37.0200 H   0  0  0  0  0  0  0  0  0  0  0  0
   45.7180   29.9980   38.4390 C   0  0  0  0  0  3  0  0  0  0  0  0
   46.1670   30.2680   39.6990 C   0  0  0  0  0  3  0  0  0  0  0  0
   45.2690   30.7570   40.5430 N   0  0  0  0  0  0  0  0  0  0  0  0
   44.2370   34.3850   41.5570 C   0  0  0  0  0  0  0  0  0  0  0  0
   45.1180   34.3070   40.6290 O   0  0  0  0  0  0  0  0  0  0  0  0
   44.5870   34.4680   42.9450 C   0  0  0  0  0  0  0  0  0  0  0  0
   44.3080   35.7160   43.5820 C   0  0  0  0  0  0  0  0  0  0  0  0
   44.6280   35.8150   44.9310 C   0  0  0  0  0  0  0  0  0  0  0  0
   45.1770   34.7360   45.5460 N   0  0  0  0  0  0  0  0  0  0  0  0
   45.4260   33.5570   44.8910 C   0  0  0  0  0  0  0  0  0  0  0  0
   45.1280   33.4710   43.6420 N   0  0  0  0  0  0  0  0  0  0  0  0
   43.8820   36.6130   43.1780 H   0  0  0  0  0  0  0  0  0  0  0  0
   44.4600   36.7230   45.5230 H   0  0  0  0  0  0  0  0  0  0  0  0
   46.0150   32.4410   45.6500 C   0  0  1  0  0  0  0  0  0  0  0  0
   46.9630   32.7460   46.7880 C   0  0  0  0  0  0  0  0  0  0  0  0
   45.5470   32.3330   47.0580 C   0  0  1  0  0  0  0  0  0  0  0  0
   46.2390   31.5170   45.1200 H   0  0  0  0  0  0  0  0  0  0  0  0
   47.2890   33.7920   46.8980 H   0  0  0  0  0  0  0  0  0  0  0  0
   47.7200   31.9850   47.0620 H   0  0  0  0  0  0  0  0  0  0  0  0
   45.3630   31.3370   47.5330 H   0  0  0  0  0  0  0  0  0  0  0  0
   44.7720   33.4020   47.6510 N   0  0  0  0  0  0  0  0  0  0  0  0
   43.7910   33.1660   47.8200 H   0  0  0  0  0  0  0  0  0  0  0  0
   45.2580   33.9260   48.3850 H   0  0  0  0  0  0  0  0  0  0  0  0
  1 11  1  0  0  0  0
  1  2  1  0  0  0  0
  2 22  1  0  0  0  0
  3  2  2  0  0  0  0
  3  7  1  0  0  0  0
  4  3  1  0  0  0  0
  5  6  1  0  0  0  0
  5  4  2  0  0  0  0
  6  1  2  0  0  0  0
  8  4  1  0  0  0  0
  9  5  1  0  0  0  0
 10  6  1  0  0  0  0
 11 13  2  0  0  0  0
 12 11  2  0  0  0  0
 14 21  1  0  0  0  0
 14 11  1  0  0  0  0
 15 14  2  0  0  0  0
 16 15  1  0  0  0  0
 17 19  2  0  0  0  0
 17 15  1  0  0  0  0
 18 17  1  0  0  0  0
 19 20  1  0  0  0  0
 20 21  2  0  0  0  0
 22 24  1  0  0  0  0
 23 22  2  0  0  0  0
 24 25  2  0  0  0  0
 24 29  1  0  0  0  0
 25 26  1  0  0  0  0
 26 31  1  0  0  0  0
 26 27  2  0  0  0  0
 28 27  1  0  0  0  0
 28 32  1  0  0  0  0
 29 28  2  0  0  0  0
 30 25  1  0  0  0  0
 32 35  1  6  0  0  0
 32 33  1  0  0  0  0
 32 34  1  0  0  0  0
 33 36  1  0  0  0  0
 33 34  1  0  0  0  0
 33 37  1  0  0  0  0
 34 38  1  1  0  0  0
 34 39  1  0  0  0  0
 39 40  1  0  0  0  0
 39 41  1  0  0  0  0
M  END
>  <minimizedAffinity>
-5.72254848

>  <minimizedRMSD>
1.21141279

$$$$
