
 OpenBabel03252508023D

 41 44  0  0  1  0  0  0  0  0999 V2000
   42.0670   33.2590   41.1350 C   0  0  0  0  0  0  0  0  0  0  0  0
   42.7940   34.3960   41.3270 C   0  0  0  0  0  0  0  0  0  0  0  0
   42.1210   35.6280   41.2880 C   0  0  0  0  0  0  0  0  0  0  0  0
   40.7730   35.7430   41.0670 C   0  0  0  0  0  0  0  0  0  0  0  0
   40.0470   34.5990   40.8750 C   0  0  0  0  0  0  0  0  0  0  0  0
   40.6920   33.3990   40.9110 C   0  0  0  0  0  0  0  0  0  0  0  0
   42.6210   36.5780   41.4210 H   0  0  0  0  0  0  0  0  0  0  0  0
   40.2650   36.6710   41.0380 H   0  0  0  0  0  0  0  0  0  0  0  0
   38.9850   34.5970   40.6970 H   0  0  0  0  0  0  0  0  0  0  0  0
   40.1140   32.4940   40.7580 H   0  0  0  0  0  0  0  0  0  0  0  0
   42.7420   31.7140   41.2180 S   0  0  0  0  0  0  0  0  0  0  0  0
   41.6710   30.8670   40.4900 O   0  0  0  0  0  0  0  0  0  0  0  0
   42.8270   31.2060   42.6200 O   0  0  0  0  0  0  0  0  0  0  0  0
   43.9210   30.9970   40.2480 C   0  0  0  0  0  0  0  0  0  0  0  0
   43.9010   31.4210   38.8920 C   0  0  0  0  0  0  0  0  0  0  0  0
   43.1360   32.1150   38.4960 H   0  0  0  0  0  0  0  0  0  0  0  0
   44.8140   31.0200   37.9490 C   0  0  0  0  0  0  0  0  0  0  0  0
   44.7790   31.3560   36.9240 H   0  0  0  0  0  0  0  0  0  0  0  0
   45.7750   30.1630   38.3880 C   0  0  0  0  0  3  0  0  0  0  0  0
   45.8640   29.7090   39.6710 C   0  0  0  0  0  3  0  0  0  0  0  0
   44.9370   30.1530   40.5110 N   0  0  0  0  0  0  0  0  0  0  0  0
   44.2370   34.3740   41.5550 C   0  0  0  0  0  0  0  0  0  0  0  0
   45.1170   34.2880   40.6260 O   0  0  0  0  0  0  0  0  0  0  0  0
   44.5870   34.4610   42.9420 C   0  0  0  0  0  0  0  0  0  0  0  0
   44.3090   35.7110   43.5750 C   0  0  0  0  0  0  0  0  0  0  0  0
   44.6300   35.8140   44.9230 C   0  0  0  0  0  0  0  0  0  0  0  0
   45.1790   34.7380   45.5420 N   0  0  0  0  0  0  0  0  0  0  0  0
   45.4270   33.5570   44.8910 C   0  0  0  0  0  0  0  0  0  0  0  0
   45.1280   33.4660   43.6430 N   0  0  0  0  0  0  0  0  0  0  0  0
   43.8830   36.6070   43.1680 H   0  0  0  0  0  0  0  0  0  0  0  0
   44.4620   36.7240   45.5130 H   0  0  0  0  0  0  0  0  0  0  0  0
   46.0170   32.4430   45.6530 C   0  0  1  0  0  0  0  0  0  0  0  0
   46.9630   32.7510   46.7920 C   0  0  0  0  0  0  0  0  0  0  0  0
   45.5470   32.3380   47.0610 C   0  0  1  0  0  0  0  0  0  0  0  0
   46.2430   31.5180   45.1260 H   0  0  0  0  0  0  0  0  0  0  0  0
   47.2880   33.7980   46.9000 H   0  0  0  0  0  0  0  0  0  0  0  0
   47.7210   31.9930   47.0690 H   0  0  0  0  0  0  0  0  0  0  0  0
   45.3640   31.3430   47.5380 H   0  0  0  0  0  0  0  0  0  0  0  0
   44.7710   33.4080   47.6510 N   0  0  0  0  0  0  0  0  0  0  0  0
   43.7890   33.1710   47.8190 H   0  0  0  0  0  0  0  0  0  0  0  0
   45.2550   33.9340   48.3840 H   0  0  0  0  0  0  0  0  0  0  0  0
  1 11  1  0  0  0  0
  1  2  1  0  0  0  0
  2 22  1  0  0  0  0
  3  2  2  0  0  0  0
  3  7  1  0  0  0  0
  4  3  1  0  0  0  0
  5  6  1  0  0  0  0
  5  4  2  0  0  0  0
  6  1  2  0  0  0  0
  8  4  1  0  0  0  0
  9  5  1  0  0  0  0
 10  6  1  0  0  0  0
 11 13  2  0  0  0  0
 12 11  2  0  0  0  0
 14 21  1  0  0  0  0
 14 11  1  0  0  0  0
 15 14  2  0  0  0  0
 16 15  1  0  0  0  0
 17 19  2  0  0  0  0
 17 15  1  0  0  0  0
 18 17  1  0  0  0  0
 19 20  1  0  0  0  0
 20 21  2  0  0  0  0
 22 24  1  0  0  0  0
 23 22  2  0  0  0  0
 24 25  2  0  0  0  0
 24 29  1  0  0  0  0
 25 26  1  0  0  0  0
 26 31  1  0  0  0  0
 26 27  2  0  0  0  0
 28 27  1  0  0  0  0
 28 32  1  0  0  0  0
 29 28  2  0  0  0  0
 30 25  1  0  0  0  0
 32 35  1  6  0  0  0
 32 33  1  0  0  0  0
 32 34  1  0  0  0  0
 33 36  1  0  0  0  0
 33 34  1  0  0  0  0
 33 37  1  0  0  0  0
 34 38  1  1  0  0  0
 34 39  1  0  0  0  0
 39 40  1  0  0  0  0
 39 41  1  0  0  0  0
M  END
>  <minimizedAffinity>
-5.7504406

>  <minimizedRMSD>
1.44228995

$$$$
