
 OpenBabel03252508023D

 41 44  0  0  1  0  0  0  0  0999 V2000
   42.2150   33.2820   41.1590 C   0  0  0  0  0  0  0  0  0  0  0  0
   42.8840   34.4510   41.3670 C   0  0  0  0  0  0  0  0  0  0  0  0
   42.1580   35.6520   41.3070 C   0  0  0  0  0  0  0  0  0  0  0  0
   40.8130   35.7060   41.0500 C   0  0  0  0  0  0  0  0  0  0  0  0
   40.1440   34.5310   40.8420 C   0  0  0  0  0  0  0  0  0  0  0  0
   40.8410   33.3610   40.8980 C   0  0  0  0  0  0  0  0  0  0  0  0
   42.6120   36.6240   41.4500 H   0  0  0  0  0  0  0  0  0  0  0  0
   40.2650   36.6100   41.0040 H   0  0  0  0  0  0  0  0  0  0  0  0
   39.0890   34.4810   40.6350 H   0  0  0  0  0  0  0  0  0  0  0  0
   40.3080   32.4310   40.7320 H   0  0  0  0  0  0  0  0  0  0  0  0
   42.9550   31.7690   41.2640 S   0  0  0  0  0  0  0  0  0  0  0  0
   42.1060   30.9380   40.2740 O   0  0  0  0  0  0  0  0  0  0  0  0
   42.7910   31.1500   42.6140 O   0  0  0  0  0  0  0  0  0  0  0  0
   44.3470   31.1930   40.5050 C   0  0  0  0  0  0  0  0  0  0  0  0
   45.3980   30.8440   41.3950 C   0  0  0  0  0  0  0  0  0  0  0  0
   45.3290   30.9980   42.4880 H   0  0  0  0  0  0  0  0  0  0  0  0
   46.5880   30.2900   40.9950 C   0  0  0  0  0  0  0  0  0  0  0  0
   47.3730   30.0330   41.6900 H   0  0  0  0  0  0  0  0  0  0  0  0
   46.7230   30.0850   39.6570 C   0  0  0  0  0  3  0  0  0  0  0  0
   45.7630   30.3920   38.7390 C   0  0  0  0  0  3  0  0  0  0  0  0
   44.6450   30.9220   39.2190 N   0  0  0  0  0  0  0  0  0  0  0  0
   44.3200   34.4940   41.6340 C   0  0  0  0  0  0  0  0  0  0  0  0
   45.2270   34.4990   40.7270 O   0  0  0  0  0  0  0  0  0  0  0  0
   44.6310   34.5340   43.0320 C   0  0  0  0  0  0  0  0  0  0  0  0
   44.3080   35.7530   43.7050 C   0  0  0  0  0  0  0  0  0  0  0  0
   44.5900   35.8100   45.0650 C   0  0  0  0  0  0  0  0  0  0  0  0
   45.1450   34.7210   45.6570 N   0  0  0  0  0  0  0  0  0  0  0  0
   45.4360   33.5720   44.9680 C   0  0  0  0  0  0  0  0  0  0  0  0
   45.1740   33.5240   43.7090 N   0  0  0  0  0  0  0  0  0  0  0  0
   43.8750   36.6550   43.3210 H   0  0  0  0  0  0  0  0  0  0  0  0
   44.3870   36.6920   45.6840 H   0  0  0  0  0  0  0  0  0  0  0  0
   46.0290   32.4410   45.7030 C   0  0  1  0  0  0  0  0  0  0  0  0
   46.9730   32.7240   46.8500 C   0  0  0  0  0  0  0  0  0  0  0  0
   45.5580   32.3000   47.1070 C   0  0  1  0  0  0  0  0  0  0  0  0
   46.2580   31.5300   45.1530 H   0  0  0  0  0  0  0  0  0  0  0  0
   47.2930   33.7690   46.9850 H   0  0  0  0  0  0  0  0  0  0  0  0
   47.7320   31.9610   47.1090 H   0  0  0  0  0  0  0  0  0  0  0  0
   45.3770   31.2930   47.5590 H   0  0  0  0  0  0  0  0  0  0  0  0
   44.7770   33.3520   47.7220 N   0  0  0  0  0  0  0  0  0  0  0  0
   43.7960   33.1080   47.8830 H   0  0  0  0  0  0  0  0  0  0  0  0
   45.2580   33.8620   48.4690 H   0  0  0  0  0  0  0  0  0  0  0  0
  1 11  1  0  0  0  0
  1  2  1  0  0  0  0
  2 22  1  0  0  0  0
  3  2  2  0  0  0  0
  3  7  1  0  0  0  0
  4  3  1  0  0  0  0
  5  6  1  0  0  0  0
  5  4  2  0  0  0  0
  6  1  2  0  0  0  0
  8  4  1  0  0  0  0
  9  5  1  0  0  0  0
 10  6  1  0  0  0  0
 11 13  2  0  0  0  0
 12 11  2  0  0  0  0
 14 11  1  0  0  0  0
 14 15  1  0  0  0  0
 15 16  1  0  0  0  0
 17 15  2  0  0  0  0
 17 18  1  0  0  0  0
 19 17  1  0  0  0  0
 20 21  1  0  0  0  0
 20 19  2  0  0  0  0
 21 14  2  0  0  0  0
 22 24  1  0  0  0  0
 23 22  2  0  0  0  0
 24 25  2  0  0  0  0
 24 29  1  0  0  0  0
 25 26  1  0  0  0  0
 26 27  2  0  0  0  0
 26 31  1  0  0  0  0
 28 27  1  0  0  0  0
 28 32  1  0  0  0  0
 29 28  2  0  0  0  0
 30 25  1  0  0  0  0
 32 35  1  6  0  0  0
 32 33  1  0  0  0  0
 32 34  1  0  0  0  0
 33 36  1  0  0  0  0
 33 34  1  0  0  0  0
 33 37  1  0  0  0  0
 34 38  1  1  0  0  0
 34 39  1  0  0  0  0
 39 40  1  0  0  0  0
 39 41  1  0  0  0  0
M  END
>  <minimizedAffinity>
-5.7031498

>  <minimizedRMSD>
1.03473723

$$$$
