
 OpenBabel03252508023D

 41 44  0  0  1  0  0  0  0  0999 V2000
   42.2150   33.2830   41.1590 C   0  0  0  0  0  0  0  0  0  0  0  0
   42.8850   34.4510   41.3670 C   0  0  0  0  0  0  0  0  0  0  0  0
   42.1590   35.6530   41.3060 C   0  0  0  0  0  0  0  0  0  0  0  0
   40.8140   35.7070   41.0490 C   0  0  0  0  0  0  0  0  0  0  0  0
   40.1450   34.5310   40.8410 C   0  0  0  0  0  0  0  0  0  0  0  0
   40.8420   33.3610   40.8980 C   0  0  0  0  0  0  0  0  0  0  0  0
   42.6130   36.6240   41.4500 H   0  0  0  0  0  0  0  0  0  0  0  0
   40.2660   36.6110   41.0040 H   0  0  0  0  0  0  0  0  0  0  0  0
   39.0900   34.4810   40.6350 H   0  0  0  0  0  0  0  0  0  0  0  0
   40.3090   32.4310   40.7320 H   0  0  0  0  0  0  0  0  0  0  0  0
   42.9560   31.7690   41.2640 S   0  0  0  0  0  0  0  0  0  0  0  0
   42.1070   30.9380   40.2750 O   0  0  0  0  0  0  0  0  0  0  0  0
   42.7920   31.1500   42.6140 O   0  0  0  0  0  0  0  0  0  0  0  0
   44.3470   31.1930   40.5050 C   0  0  0  0  0  0  0  0  0  0  0  0
   45.3990   30.8440   41.3940 C   0  0  0  0  0  0  0  0  0  0  0  0
   45.3290   30.9970   42.4880 H   0  0  0  0  0  0  0  0  0  0  0  0
   46.5890   30.2900   40.9940 C   0  0  0  0  0  0  0  0  0  0  0  0
   47.3730   30.0330   41.6900 H   0  0  0  0  0  0  0  0  0  0  0  0
   46.7230   30.0850   39.6580 C   0  0  0  0  0  3  0  0  0  0  0  0
   45.7620   30.3920   38.7380 C   0  0  0  0  0  3  0  0  0  0  0  0
   44.6460   30.9220   39.2190 N   0  0  0  0  0  0  0  0  0  0  0  0
   44.3210   34.4940   41.6340 C   0  0  0  0  0  0  0  0  0  0  0  0
   45.2280   34.4980   40.7270 O   0  0  0  0  0  0  0  0  0  0  0  0
   44.6310   34.5340   43.0330 C   0  0  0  0  0  0  0  0  0  0  0  0
   44.3090   35.7530   43.7050 C   0  0  0  0  0  0  0  0  0  0  0  0
   44.5910   35.8090   45.0650 C   0  0  0  0  0  0  0  0  0  0  0  0
   45.1460   34.7210   45.6570 N   0  0  0  0  0  0  0  0  0  0  0  0
   45.4360   33.5720   44.9680 C   0  0  0  0  0  0  0  0  0  0  0  0
   45.1740   33.5240   43.7090 N   0  0  0  0  0  0  0  0  0  0  0  0
   43.8750   36.6550   43.3210 H   0  0  0  0  0  0  0  0  0  0  0  0
   44.3870   36.6920   45.6840 H   0  0  0  0  0  0  0  0  0  0  0  0
   46.0290   32.4410   45.7030 C   0  0  1  0  0  0  0  0  0  0  0  0
   46.9730   32.7240   46.8510 C   0  0  0  0  0  0  0  0  0  0  0  0
   45.5580   32.2990   47.1070 C   0  0  1  0  0  0  0  0  0  0  0  0
   46.2580   31.5300   45.1530 H   0  0  0  0  0  0  0  0  0  0  0  0
   47.2940   33.7690   46.9850 H   0  0  0  0  0  0  0  0  0  0  0  0
   47.7320   31.9610   47.1100 H   0  0  0  0  0  0  0  0  0  0  0  0
   45.3770   31.2920   47.5590 H   0  0  0  0  0  0  0  0  0  0  0  0
   44.7770   33.3520   47.7220 N   0  0  0  0  0  0  0  0  0  0  0  0
   43.7960   33.1080   47.8830 H   0  0  0  0  0  0  0  0  0  0  0  0
   45.2580   33.8620   48.4690 H   0  0  0  0  0  0  0  0  0  0  0  0
  1 11  1  0  0  0  0
  1  2  1  0  0  0  0
  2 22  1  0  0  0  0
  3  2  2  0  0  0  0
  3  7  1  0  0  0  0
  4  3  1  0  0  0  0
  5  6  1  0  0  0  0
  5  4  2  0  0  0  0
  6  1  2  0  0  0  0
  8  4  1  0  0  0  0
  9  5  1  0  0  0  0
 10  6  1  0  0  0  0
 11 13  2  0  0  0  0
 12 11  2  0  0  0  0
 14 11  1  0  0  0  0
 14 15  1  0  0  0  0
 15 16  1  0  0  0  0
 17 15  2  0  0  0  0
 17 18  1  0  0  0  0
 19 17  1  0  0  0  0
 20 21  1  0  0  0  0
 20 19  2  0  0  0  0
 21 14  2  0  0  0  0
 22 24  1  0  0  0  0
 23 22  2  0  0  0  0
 24 25  2  0  0  0  0
 24 29  1  0  0  0  0
 25 26  1  0  0  0  0
 26 27  2  0  0  0  0
 26 31  1  0  0  0  0
 28 27  1  0  0  0  0
 28 32  1  0  0  0  0
 29 28  2  0  0  0  0
 30 25  1  0  0  0  0
 32 35  1  6  0  0  0
 32 33  1  0  0  0  0
 32 34  1  0  0  0  0
 33 36  1  0  0  0  0
 33 34  1  0  0  0  0
 33 37  1  0  0  0  0
 34 38  1  1  0  0  0
 34 39  1  0  0  0  0
 39 40  1  0  0  0  0
 39 41  1  0  0  0  0
M  END
>  <minimizedAffinity>
-5.70328903

>  <minimizedRMSD>
1.03114212

$$$$
