
 OpenBabel03242523293D

 21 22  0  0  0  0  0  0  0  0999 V2000
   47.2910   32.3300   44.3960 C   0  0  0  0  0  0  0  0  0  0  0  0
   46.6290   31.5770   43.8980 H   0  0  0  0  0  0  0  0  0  0  0  0
   48.1490   31.7540   44.8030 H   0  0  0  0  0  0  0  0  0  0  0  0
   49.3310   34.4570   42.1410 C   0  0  0  0  0  0  0  0  0  0  0  0
   48.3510   35.3610   41.7150 C   0  0  0  0  0  0  0  0  0  0  0  0
   47.0470   35.2560   42.1740 C   0  0  0  0  0  0  0  0  0  0  0  0
   46.7620   34.2470   43.0480 N   0  0  0  0  0  0  0  0  0  0  0  0
   47.7340   33.3730   43.4520 C   0  0  0  0  0  0  0  0  0  0  0  0
   49.0000   33.4850   42.9980 N   0  0  0  0  0  0  0  0  0  0  0  0
   50.3670   34.5050   41.8040 H   0  0  0  0  0  0  0  0  0  0  0  0
   48.6190   36.1450   41.0220 H   0  0  0  0  0  0  0  0  0  0  0  0
   46.3170   35.9510   41.8400 H   0  0  0  0  0  0  0  0  0  0  0  0
   46.3560   33.1350   45.7230 S   0  0  0  0  0  0  0  0  0  0  0  0
   45.8850   31.9920   46.9930 C   0  0  0  0  0  0  0  0  0  0  0  0
   45.6320   30.6810   46.7380 C   0  0  0  0  0  0  0  0  0  0  0  0
   45.7270   30.3360   45.7130 H   0  0  0  0  0  0  0  0  0  0  0  0
   45.2670   29.8730   47.8160 C   0  0  0  0  0  0  0  0  0  0  0  0
   45.0750   28.8360   47.5620 H   0  0  0  0  0  0  0  0  0  0  0  0
   45.1620   30.3710   49.0960 C   0  0  0  0  0  0  0  0  0  0  0  0
   45.4280   31.6940   49.2900 C   0  0  0  0  0  0  0  0  0  0  0  0
   45.7790   32.4650   48.2480 N   0  0  0  0  0  0  0  0  0  0  0  0
  1  3  1  0  0  0  0
  1 13  1  0  0  0  0
  2  1  1  0  0  0  0
  4  9  1  0  0  0  0
  5  4  2  0  0  0  0
  5  6  1  0  0  0  0
  6  7  2  0  0  0  0
  7  8  1  0  0  0  0
  8  1  1  0  0  0  0
  9  8  2  0  0  0  0
 10  4  1  0  0  0  0
 11  5  1  0  0  0  0
 12  6  1  0  0  0  0
 13 14  1  0  0  0  0
 14 21  1  0  0  0  0
 15 14  2  0  0  0  0
 15 17  1  0  0  0  0
 16 15  1  0  0  0  0
 17 19  2  0  0  0  0
 18 17  1  0  0  0  0
 19 20  1  0  0  0  0
 21 20  2  0  0  0  0
M  END
>  <minimizedAffinity>
-4.19057178

>  <minimizedRMSD>
4.18032074

$$$$
