
 OpenBabel03242514003D

 40 44  0  0  0  0  0  0  0  0999 V2000
   36.9490   31.9610   40.0700 C   0  0  0  0  0  0  0  0  0  0  0  0
   37.1850   31.0870   39.0040 C   0  0  0  0  0  0  0  0  0  0  0  0
   38.4250   31.1890   38.3270 C   0  0  0  0  0  0  0  0  0  0  0  0
   39.3030   32.1140   38.7410 N   0  0  0  0  0  0  0  0  0  0  0  0
   39.0600   32.9480   39.7670 C   0  0  0  0  0  0  0  0  0  0  0  0
   37.8560   32.8550   40.4310 N   0  0  0  0  0  0  0  0  0  0  0  0
   35.9930   31.8560   40.5640 H   0  0  0  0  0  0  0  0  0  0  0  0
   38.6690   30.5400   37.4940 H   0  0  0  0  0  0  0  0  0  0  0  0
   39.9680   33.9690   40.2620 C   0  0  0  0  0  0  0  0  0  0  0  0
   39.6170   35.3080   40.3050 C   0  0  0  0  0  0  0  0  0  0  0  0
   40.6980   36.0110   40.8260 C   0  0  0  0  0  0  0  0  0  0  0  0
   41.6630   35.0850   41.0790 N   0  0  0  0  0  0  0  0  0  0  0  0
   41.2060   33.8830   40.7370 N   0  0  0  0  0  0  0  0  0  0  0  0
   38.6890   35.7610   40.0020 H   0  0  0  0  0  0  0  0  0  0  0  0
   40.7800   37.0750   41.0020 H   0  0  0  0  0  0  0  0  0  0  0  0
   42.9640   35.2850   41.6170 C   0  0  0  0  0  0  0  0  0  0  0  0
   43.0500   36.1620   42.6860 C   0  0  0  0  0  0  0  0  0  0  0  0
   42.2030   36.6850   43.1170 H   0  0  0  0  0  0  0  0  0  0  0  0
   44.2980   36.4110   43.2700 C   0  0  0  0  0  0  0  0  0  0  0  0
   44.4890   37.0720   44.1050 H   0  0  0  0  0  0  0  0  0  0  0  0
   45.3390   35.7210   42.6850 C   0  0  0  0  0  3  0  0  0  0  0  0
   45.2810   34.8450   41.6220 C   0  0  0  0  0  3  0  0  0  0  0  0
   44.0410   34.6540   41.1100 N   0  0  0  0  0  0  0  0  0  0  0  0
   36.3050   30.1190   38.5490 O   0  0  0  0  0  0  0  0  0  0  0  0
   36.3730   28.7770   38.8720 C   0  0  0  0  0  0  0  0  0  0  0  0
   36.1740   27.7170   38.0180 C   0  0  0  0  0  0  0  0  0  0  0  0
   36.2760   26.4330   38.4860 C   0  0  0  0  0  0  0  0  0  0  0  0
   36.5760   26.1420   39.8110 C   0  0  0  0  0  0  0  0  0  0  0  0
   36.6610   24.8700   40.2100 N   0  0  0  0  0  0  0  0  0  0  0  0
   36.9490   24.5550   41.4810 C   0  0  0  0  0  0  0  0  0  0  0  0
   37.1550   25.5900   42.3670 C   0  0  0  0  0  0  0  0  0  0  0  0
   37.0690   26.9410   41.9660 C   0  0  0  0  0  0  0  0  0  0  0  0
   36.7720   27.2140   40.6540 C   0  0  0  0  0  0  0  0  0  0  0  0
   36.6770   28.5320   40.2130 C   0  0  0  0  0  0  0  0  0  0  0  0
   35.9430   27.9550   36.9970 H   0  0  0  0  0  0  0  0  0  0  0  0
   36.1100   25.6320   37.7760 H   0  0  0  0  0  0  0  0  0  0  0  0
   37.0290   23.5600   41.8540 H   0  0  0  0  0  0  0  0  0  0  0  0
   37.3900   25.4040   43.4030 H   0  0  0  0  0  0  0  0  0  0  0  0
   37.2370   27.7160   42.6880 H   0  0  0  0  0  0  0  0  0  0  0  0
   36.8460   29.2980   40.9410 H   0  0  0  0  0  0  0  0  0  0  0  0
  1  6  1  0  0  0  0
  1  7  1  0  0  0  0
  2  1  2  0  0  0  0
  3  4  2  0  0  0  0
  3  2  1  0  0  0  0
  4  5  1  0  0  0  0
  5  9  1  0  0  0  0
  5  6  2  0  0  0  0
  8  3  1  0  0  0  0
  9 10  1  0  0  0  0
  9 13  2  0  0  0  0
 10 11  2  0  0  0  0
 11 15  1  0  0  0  0
 11 12  1  0  0  0  0
 12 16  1  0  0  0  0
 13 12  1  0  0  0  0
 14 10  1  0  0  0  0
 16 17  1  0  0  0  0
 17 18  1  0  0  0  0
 17 19  2  0  0  0  0
 19 20  1  0  0  0  0
 21 19  1  0  0  0  0
 22 21  2  0  0  0  0
 23 16  2  0  0  0  0
 23 22  1  0  0  0  0
 24 25  1  0  0  0  0
 24  2  1  0  0  0  0
 25 34  1  0  0  0  0
 26 27  1  0  0  0  0
 26 25  2  0  0  0  0
 27 28  2  0  0  0  0
 28 29  1  0  0  0  0
 28 33  1  0  0  0  0
 29 30  2  0  0  0  0
 30 37  1  0  0  0  0
 30 31  1  0  0  0  0
 31 38  1  0  0  0  0
 32 31  2  0  0  0  0
 32 39  1  0  0  0  0
 33 32  1  0  0  0  0
 34 33  2  0  0  0  0
 34 40  1  0  0  0  0
 35 26  1  0  0  0  0
 36 27  1  0  0  0  0
M  END
>  <minimizedAffinity>
-7.06976938

$$$$

 OpenBabel03242514003D

 40 44  0  0  0  0  0  0  0  0999 V2000
   38.5310   30.3020   41.7060 C   0  0  0  0  0  0  0  0  0  0  0  0
   37.2400   30.3770   41.1730 C   0  0  0  0  0  0  0  0  0  0  0  0
   36.8910   31.5420   40.4460 C   0  0  0  0  0  0  0  0  0  0  0  0
   37.8130   32.5070   40.3090 N   0  0  0  0  0  0  0  0  0  0  0  0
   39.0500   32.4200   40.8300 C   0  0  0  0  0  0  0  0  0  0  0  0
   39.3960   31.2890   41.5380 N   0  0  0  0  0  0  0  0  0  0  0  0
   38.7630   29.3990   42.2550 H   0  0  0  0  0  0  0  0  0  0  0  0
   35.9080   31.6610   40.0070 H   0  0  0  0  0  0  0  0  0  0  0  0
   40.0900   33.4270   40.7170 C   0  0  0  0  0  0  0  0  0  0  0  0
   39.9310   34.5660   39.9450 C   0  0  0  0  0  0  0  0  0  0  0  0
   41.1000   35.3140   40.0530 C   0  0  0  0  0  0  0  0  0  0  0  0
   41.9230   34.6110   40.8770 N   0  0  0  0  0  0  0  0  0  0  0  0
   41.3020   33.4970   41.2570 N   0  0  0  0  0  0  0  0  0  0  0  0
   39.0780   34.8560   39.3570 H   0  0  0  0  0  0  0  0  0  0  0  0
   41.3300   36.2620   39.5850 H   0  0  0  0  0  0  0  0  0  0  0  0
   43.2370   34.9410   41.3090 C   0  0  0  0  0  0  0  0  0  0  0  0
   43.3220   35.7980   42.3930 C   0  0  0  0  0  0  0  0  0  0  0  0
   42.4650   36.2150   42.9110 H   0  0  0  0  0  0  0  0  0  0  0  0
   44.5820   36.1700   42.8770 C   0  0  0  0  0  0  0  0  0  0  0  0
   44.7750   36.8300   43.7120 H   0  0  0  0  0  0  0  0  0  0  0  0
   45.6360   35.6130   42.1820 C   0  0  0  0  0  3  0  0  0  0  0  0
   45.5800   34.7590   41.1010 C   0  0  0  0  0  3  0  0  0  0  0  0
   44.3270   34.4440   40.6920 N   0  0  0  0  0  0  0  0  0  0  0  0
   36.2630   29.4020   41.2920 O   0  0  0  0  0  0  0  0  0  0  0  0
   36.5120   28.0520   41.4470 C   0  0  0  0  0  0  0  0  0  0  0  0
   36.7050   27.3850   42.6360 C   0  0  0  0  0  0  0  0  0  0  0  0
   36.9430   26.0360   42.6310 C   0  0  0  0  0  0  0  0  0  0  0  0
   37.0010   25.2910   41.4610 C   0  0  0  0  0  0  0  0  0  0  0  0
   37.2380   23.9760   41.5190 N   0  0  0  0  0  0  0  0  0  0  0  0
   37.2990   23.2280   40.4080 C   0  0  0  0  0  0  0  0  0  0  0  0
   37.1120   23.8600   39.1980 C   0  0  0  0  0  0  0  0  0  0  0  0
   36.8610   25.2470   39.1150 C   0  0  0  0  0  0  0  0  0  0  0  0
   36.8060   25.9710   40.2800 C   0  0  0  0  0  0  0  0  0  0  0  0
   36.5620   27.3420   40.2450 C   0  0  0  0  0  0  0  0  0  0  0  0
   36.6570   27.9730   43.5330 H   0  0  0  0  0  0  0  0  0  0  0  0
   37.0890   25.5550   43.5910 H   0  0  0  0  0  0  0  0  0  0  0  0
   37.4850   22.1790   40.3960 H   0  0  0  0  0  0  0  0  0  0  0  0
   37.1490   23.3150   38.2680 H   0  0  0  0  0  0  0  0  0  0  0  0
   36.7200   25.6990   38.1530 H   0  0  0  0  0  0  0  0  0  0  0  0
   36.4220   27.7850   39.2800 H   0  0  0  0  0  0  0  0  0  0  0  0
  1  7  1  0  0  0  0
  2 24  1  0  0  0  0
  2  1  2  0  0  0  0
  3  2  1  0  0  0  0
  4  3  2  0  0  0  0
  4  5  1  0  0  0  0
  5  6  2  0  0  0  0
  6  1  1  0  0  0  0
  8  3  1  0  0  0  0
  9  5  1  0  0  0  0
  9 13  2  0  0  0  0
 10 11  2  0  0  0  0
 10  9  1  0  0  0  0
 11 12  1  0  0  0  0
 12 13  1  0  0  0  0
 12 16  1  0  0  0  0
 14 10  1  0  0  0  0
 15 11  1  0  0  0  0
 16 17  1  0  0  0  0
 17 19  2  0  0  0  0
 17 18  1  0  0  0  0
 19 20  1  0  0  0  0
 21 19  1  0  0  0  0
 22 21  2  0  0  0  0
 23 22  1  0  0  0  0
 23 16  2  0  0  0  0
 24 25  1  0  0  0  0
 25 26  1  0  0  0  0
 26 35  1  0  0  0  0
 27 26  2  0  0  0  0
 27 36  1  0  0  0  0
 28 29  1  0  0  0  0
 28 27  1  0  0  0  0
 30 29  2  0  0  0  0
 31 30  1  0  0  0  0
 32 31  2  0  0  0  0
 32 33  1  0  0  0  0
 33 28  2  0  0  0  0
 34 33  1  0  0  0  0
 34 25  2  0  0  0  0
 37 30  1  0  0  0  0
 38 31  1  0  0  0  0
 39 32  1  0  0  0  0
 40 34  1  0  0  0  0
M  END
>  <minimizedAffinity>
-6.91189575

$$$$

 OpenBabel03242514003D

 40 44  0  0  0  0  0  0  0  0999 V2000
   38.4570   27.2960   40.8640 C   0  0  0  0  0  0  0  0  0  0  0  0
   37.6360   26.8340   41.8980 C   0  0  0  0  0  0  0  0  0  0  0  0
   36.8490   27.7860   42.5940 C   0  0  0  0  0  0  0  0  0  0  0  0
   36.9350   29.0730   42.2260 N   0  0  0  0  0  0  0  0  0  0  0  0
   37.7310   29.5010   41.2310 C   0  0  0  0  0  0  0  0  0  0  0  0
   38.4980   28.5800   40.5490 N   0  0  0  0  0  0  0  0  0  0  0  0
   39.0430   26.5430   40.3560 H   0  0  0  0  0  0  0  0  0  0  0  0
   36.1930   27.4920   43.4040 H   0  0  0  0  0  0  0  0  0  0  0  0
   37.8670   30.8770   40.7860 C   0  0  0  0  0  0  0  0  0  0  0  0
   36.8710   31.5230   40.0730 C   0  0  0  0  0  0  0  0  0  0  0  0
   37.3140   32.8140   39.8050 C   0  0  0  0  0  0  0  0  0  0  0  0
   38.5530   32.9100   40.3590 N   0  0  0  0  0  0  0  0  0  0  0  0
   38.8590   31.7500   40.9340 N   0  0  0  0  0  0  0  0  0  0  0  0
   35.9160   31.1320   39.7640 H   0  0  0  0  0  0  0  0  0  0  0  0
   36.7970   33.5980   39.2690 H   0  0  0  0  0  0  0  0  0  0  0  0
   39.4360   34.0240   40.3660 C   0  0  0  0  0  0  0  0  0  0  0  0
   38.8490   35.2650   40.1830 C   0  0  0  0  0  0  0  0  0  0  0  0
   37.7850   35.4220   40.0390 H   0  0  0  0  0  0  0  0  0  0  0  0
   39.6540   36.4110   40.1770 C   0  0  0  0  0  0  0  0  0  0  0  0
   39.3120   37.4290   40.0430 H   0  0  0  0  0  0  0  0  0  0  0  0
   40.9960   36.1540   40.3630 C   0  0  0  0  0  3  0  0  0  0  0  0
   41.6060   34.9320   40.5470 C   0  0  0  0  0  3  0  0  0  0  0  0
   40.7640   33.8710   40.5410 N   0  0  0  0  0  0  0  0  0  0  0  0
   37.5200   25.5150   42.3050 O   0  0  0  0  0  0  0  0  0  0  0  0
   37.4550   24.4300   41.4520 C   0  0  0  0  0  0  0  0  0  0  0  0
   38.4670   23.5350   41.1860 C   0  0  0  0  0  0  0  0  0  0  0  0
   38.2520   22.5020   40.3120 C   0  0  0  0  0  0  0  0  0  0  0  0
   37.0380   22.3090   39.6650 C   0  0  0  0  0  0  0  0  0  0  0  0
   36.8870   21.2830   38.8220 N   0  0  0  0  0  0  0  0  0  0  0  0
   35.7290   21.0690   38.1830 C   0  0  0  0  0  0  0  0  0  0  0  0
   34.6920   21.9440   38.4230 C   0  0  0  0  0  0  0  0  0  0  0  0
   34.8300   23.0340   39.3100 C   0  0  0  0  0  0  0  0  0  0  0  0
   36.0360   23.2130   39.9420 C   0  0  0  0  0  0  0  0  0  0  0  0
   36.2180   24.2750   40.8250 C   0  0  0  0  0  0  0  0  0  0  0  0
   39.4000   23.6950   41.6920 H   0  0  0  0  0  0  0  0  0  0  0  0
   39.0770   21.8230   40.1330 H   0  0  0  0  0  0  0  0  0  0  0  0
   35.5540   20.2690   37.5010 H   0  0  0  0  0  0  0  0  0  0  0  0
   33.7350   21.8270   37.9410 H   0  0  0  0  0  0  0  0  0  0  0  0
   33.9980   23.6920   39.4690 H   0  0  0  0  0  0  0  0  0  0  0  0
   35.3810   24.9260   40.9770 H   0  0  0  0  0  0  0  0  0  0  0  0
  1  2  1  0  0  0  0
  2 24  1  0  0  0  0
  2  3  2  0  0  0  0
  3  8  1  0  0  0  0
  4  3  1  0  0  0  0
  5  4  2  0  0  0  0
  6  1  2  0  0  0  0
  6  5  1  0  0  0  0
  7  1  1  0  0  0  0
  9 13  2  0  0  0  0
  9  5  1  0  0  0  0
 10  9  1  0  0  0  0
 11 10  2  0  0  0  0
 11 12  1  0  0  0  0
 12 16  1  0  0  0  0
 12 13  1  0  0  0  0
 14 10  1  0  0  0  0
 15 11  1  0  0  0  0
 16 23  1  0  0  0  0
 17 16  2  0  0  0  0
 18 17  1  0  0  0  0
 19 17  1  0  0  0  0
 19 21  2  0  0  0  0
 20 19  1  0  0  0  0
 21 22  1  0  0  0  0
 23 22  2  0  0  0  0
 25 24  1  0  0  0  0
 26 25  1  0  0  0  0
 26 35  1  0  0  0  0
 27 26  2  0  0  0  0
 28 33  1  0  0  0  0
 28 27  1  0  0  0  0
 29 28  2  0  0  0  0
 30 31  2  0  0  0  0
 30 29  1  0  0  0  0
 31 32  1  0  0  0  0
 32 39  1  0  0  0  0
 32 33  2  0  0  0  0
 33 34  1  0  0  0  0
 34 40  1  0  0  0  0
 34 25  2  0  0  0  0
 36 27  1  0  0  0  0
 37 30  1  0  0  0  0
 38 31  1  0  0  0  0
M  END
>  <minimizedAffinity>
-6.76417542

$$$$

 OpenBabel03242514003D

 40 44  0  0  0  0  0  0  0  0999 V2000
   40.3320   31.8160   38.6360 C   0  0  0  0  0  0  0  0  0  0  0  0
   40.0810   33.0150   39.3100 C   0  0  0  0  0  0  0  0  0  0  0  0
   38.9780   33.0570   40.1990 C   0  0  0  0  0  0  0  0  0  0  0  0
   38.2370   31.9490   40.3460 N   0  0  0  0  0  0  0  0  0  0  0  0
   38.4910   30.8040   39.6890 C   0  0  0  0  0  0  0  0  0  0  0  0
   39.5620   30.7550   38.8230 N   0  0  0  0  0  0  0  0  0  0  0  0
   41.1800   31.8200   37.9660 H   0  0  0  0  0  0  0  0  0  0  0  0
   38.7320   33.9560   40.7510 H   0  0  0  0  0  0  0  0  0  0  0  0
   37.7270   29.5730   39.8050 C   0  0  0  0  0  0  0  0  0  0  0  0
   36.3640   29.5270   39.5640 C   0  0  0  0  0  0  0  0  0  0  0  0
   35.9460   28.2150   39.7610 C   0  0  0  0  0  0  0  0  0  0  0  0
   37.0580   27.5130   40.1130 N   0  0  0  0  0  0  0  0  0  0  0  0
   38.1000   28.3400   40.1320 N   0  0  0  0  0  0  0  0  0  0  0  0
   35.7140   30.3340   39.2750 H   0  0  0  0  0  0  0  0  0  0  0  0
   34.9480   27.8110   39.6610 H   0  0  0  0  0  0  0  0  0  0  0  0
   37.1720   26.1300   40.4230 C   0  0  0  0  0  0  0  0  0  0  0  0
   36.9900   25.7890   41.7520 C   0  0  0  0  0  0  0  0  0  0  0  0
   36.7730   26.5010   42.5420 H   0  0  0  0  0  0  0  0  0  0  0  0
   37.0870   24.4460   42.1360 C   0  0  0  0  0  0  0  0  0  0  0  0
   36.9660   24.0600   43.1390 H   0  0  0  0  0  0  0  0  0  0  0  0
   37.3640   23.5840   41.0950 C   0  0  0  0  0  3  0  0  0  0  0  0
   37.5500   23.8970   39.7650 C   0  0  0  0  0  3  0  0  0  0  0  0
   37.4410   25.2140   39.4710 N   0  0  0  0  0  0  0  0  0  0  0  0
   40.8240   34.1780   39.1850 O   0  0  0  0  0  0  0  0  0  0  0  0
   41.4930   34.8000   40.2210 C   0  0  0  0  0  0  0  0  0  0  0  0
   41.0670   35.9020   40.9280 C   0  0  0  0  0  0  0  0  0  0  0  0
   41.8440   36.4090   41.9360 C   0  0  0  0  0  0  0  0  0  0  0  0
   43.0680   35.8550   42.2880 C   0  0  0  0  0  0  0  0  0  0  0  0
   43.7840   36.3950   43.2800 N   0  0  0  0  0  0  0  0  0  0  0  0
   44.9680   35.8840   43.6440 C   0  0  0  0  0  0  0  0  0  0  0  0
   45.4290   34.7810   42.9590 C   0  0  0  0  0  0  0  0  0  0  0  0
   44.6900   34.1960   41.9080 C   0  0  0  0  0  0  0  0  0  0  0  0
   43.4810   34.7540   41.5710 C   0  0  0  0  0  0  0  0  0  0  0  0
   42.7180   34.2100   40.5410 C   0  0  0  0  0  0  0  0  0  0  0  0
   40.1190   36.3200   40.6470 H   0  0  0  0  0  0  0  0  0  0  0  0
   41.4680   37.2770   42.4640 H   0  0  0  0  0  0  0  0  0  0  0  0
   45.5790   36.2730   44.4260 H   0  0  0  0  0  0  0  0  0  0  0  0
   46.3740   34.3220   43.2030 H   0  0  0  0  0  0  0  0  0  0  0  0
   45.0850   33.3370   41.4020 H   0  0  0  0  0  0  0  0  0  0  0  0
   43.1210   33.3530   40.0410 H   0  0  0  0  0  0  0  0  0  0  0  0
  1  6  2  0  0  0  0
  1  2  1  0  0  0  0
  2  3  2  0  0  0  0
  3  4  1  0  0  0  0
  3  8  1  0  0  0  0
  5  9  1  0  0  0  0
  5  4  2  0  0  0  0
  6  5  1  0  0  0  0
  7  1  1  0  0  0  0
  9 13  2  0  0  0  0
 10 11  2  0  0  0  0
 10  9  1  0  0  0  0
 11 12  1  0  0  0  0
 12 13  1  0  0  0  0
 12 16  1  0  0  0  0
 14 10  1  0  0  0  0
 15 11  1  0  0  0  0
 16 17  1  0  0  0  0
 17 19  2  0  0  0  0
 17 18  1  0  0  0  0
 19 20  1  0  0  0  0
 21 19  1  0  0  0  0
 22 21  2  0  0  0  0
 23 22  1  0  0  0  0
 23 16  2  0  0  0  0
 24  2  1  0  0  0  0
 24 25  1  0  0  0  0
 25 34  2  0  0  0  0
 25 26  1  0  0  0  0
 26 27  2  0  0  0  0
 27 28  1  0  0  0  0
 27 36  1  0  0  0  0
 28 29  1  0  0  0  0
 29 30  2  0  0  0  0
 30 37  1  0  0  0  0
 31 38  1  0  0  0  0
 31 30  1  0  0  0  0
 32 31  2  0  0  0  0
 33 32  1  0  0  0  0
 33 28  2  0  0  0  0
 34 33  1  0  0  0  0
 35 26  1  0  0  0  0
 39 32  1  0  0  0  0
 40 34  1  0  0  0  0
M  END
>  <minimizedAffinity>
-6.41447449

$$$$

 OpenBabel03242514003D

 40 44  0  0  0  0  0  0  0  0999 V2000
   37.9940   30.2100   41.6220 C   0  0  0  0  0  0  0  0  0  0  0  0
   37.2320   30.9260   40.6930 C   0  0  0  0  0  0  0  0  0  0  0  0
   36.3410   30.1970   39.8650 C   0  0  0  0  0  0  0  0  0  0  0  0
   36.2770   28.8660   40.0160 N   0  0  0  0  0  0  0  0  0  0  0  0
   37.0180   28.1920   40.9130 C   0  0  0  0  0  0  0  0  0  0  0  0
   37.8860   28.8950   41.7220 N   0  0  0  0  0  0  0  0  0  0  0  0
   38.6620   30.7970   42.2360 H   0  0  0  0  0  0  0  0  0  0  0  0
   35.7230   30.6930   39.1270 H   0  0  0  0  0  0  0  0  0  0  0  0
   36.9940   26.7550   41.1240 C   0  0  0  0  0  0  0  0  0  0  0  0
   37.0910   26.1950   42.3870 C   0  0  0  0  0  0  0  0  0  0  0  0
   37.0370   24.8130   42.2400 C   0  0  0  0  0  0  0  0  0  0  0  0
   36.9120   24.5800   40.9050 N   0  0  0  0  0  0  0  0  0  0  0  0
   36.8890   25.7470   40.2650 N   0  0  0  0  0  0  0  0  0  0  0  0
   37.1900   26.7010   43.3320 H   0  0  0  0  0  0  0  0  0  0  0  0
   37.0840   24.0580   43.0120 H   0  0  0  0  0  0  0  0  0  0  0  0
   36.8160   23.3340   40.2280 C   0  0  0  0  0  0  0  0  0  0  0  0
   37.9000   22.4840   40.3630 C   0  0  0  0  0  0  0  0  0  0  0  0
   38.7890   22.7150   40.9400 H   0  0  0  0  0  0  0  0  0  0  0  0
   37.8800   21.2370   39.7250 C   0  0  0  0  0  0  0  0  0  0  0  0
   38.6640   20.4920   39.7570 H   0  0  0  0  0  0  0  0  0  0  0  0
   36.7280   20.9950   39.0060 C   0  0  0  0  0  3  0  0  0  0  0  0
   35.6350   21.8220   38.8540 C   0  0  0  0  0  3  0  0  0  0  0  0
   35.7280   23.0090   39.5000 N   0  0  0  0  0  0  0  0  0  0  0  0
   37.2700   32.2980   40.5090 O   0  0  0  0  0  0  0  0  0  0  0  0
   38.4000   33.0160   40.1670 C   0  0  0  0  0  0  0  0  0  0  0  0
   38.8320   34.1890   40.7430 C   0  0  0  0  0  0  0  0  0  0  0  0
   39.9790   34.7880   40.2950 C   0  0  0  0  0  0  0  0  0  0  0  0
   40.7450   34.2600   39.2640 C   0  0  0  0  0  0  0  0  0  0  0  0
   41.8550   34.8910   38.8680 N   0  0  0  0  0  0  0  0  0  0  0  0
   42.6160   34.4080   37.8760 C   0  0  0  0  0  0  0  0  0  0  0  0
   42.2160   33.2360   37.2730 C   0  0  0  0  0  0  0  0  0  0  0  0
   41.0470   32.5540   37.6760 C   0  0  0  0  0  0  0  0  0  0  0  0
   40.3000   33.0870   38.6960 C   0  0  0  0  0  0  0  0  0  0  0  0
   39.1390   32.4490   39.1260 C   0  0  0  0  0  0  0  0  0  0  0  0
   38.2310   34.5860   41.5400 H   0  0  0  0  0  0  0  0  0  0  0  0
   40.2790   35.7100   40.7790 H   0  0  0  0  0  0  0  0  0  0  0  0
   43.5100   34.8680   37.5210 H   0  0  0  0  0  0  0  0  0  0  0  0
   42.7850   32.7940   36.4700 H   0  0  0  0  0  0  0  0  0  0  0  0
   40.7720   31.6440   37.1800 H   0  0  0  0  0  0  0  0  0  0  0  0
   38.8720   31.5410   38.6250 H   0  0  0  0  0  0  0  0  0  0  0  0
  1  6  1  0  0  0  0
  1  7  1  0  0  0  0
  2  1  2  0  0  0  0
  3  4  2  0  0  0  0
  3  2  1  0  0  0  0
  4  5  1  0  0  0  0
  5  9  1  0  0  0  0
  5  6  2  0  0  0  0
  8  3  1  0  0  0  0
  9 10  1  0  0  0  0
 10 14  1  0  0  0  0
 11 10  2  0  0  0  0
 11 15  1  0  0  0  0
 12 11  1  0  0  0  0
 13 12  1  0  0  0  0
 13  9  2  0  0  0  0
 16 17  1  0  0  0  0
 16 12  1  0  0  0  0
 17 18  1  0  0  0  0
 19 20  1  0  0  0  0
 19 17  2  0  0  0  0
 21 19  1  0  0  0  0
 22 21  2  0  0  0  0
 22 23  1  0  0  0  0
 23 16  2  0  0  0  0
 24  2  1  0  0  0  0
 25 24  1  0  0  0  0
 25 26  1  0  0  0  0
 26 35  1  0  0  0  0
 27 26  2  0  0  0  0
 27 36  1  0  0  0  0
 28 27  1  0  0  0  0
 29 28  1  0  0  0  0
 30 29  2  0  0  0  0
 31 32  2  0  0  0  0
 31 30  1  0  0  0  0
 32 33  1  0  0  0  0
 33 34  1  0  0  0  0
 33 28  2  0  0  0  0
 34 25  2  0  0  0  0
 37 30  1  0  0  0  0
 38 31  1  0  0  0  0
 39 32  1  0  0  0  0
 40 34  1  0  0  0  0
M  END
>  <minimizedAffinity>
-6.39680624

$$$$

 OpenBabel03242514003D

 40 44  0  0  0  0  0  0  0  0999 V2000
   38.0400   30.5410   38.3700 C   0  0  0  0  0  0  0  0  0  0  0  0
   36.8800   30.2950   39.1130 C   0  0  0  0  0  0  0  0  0  0  0  0
   36.6440   31.1000   40.2550 C   0  0  0  0  0  0  0  0  0  0  0  0
   37.5400   32.0500   40.5620 N   0  0  0  0  0  0  0  0  0  0  0  0
   38.6500   32.2720   39.8370 C   0  0  0  0  0  0  0  0  0  0  0  0
   38.8870   31.4940   38.7250 N   0  0  0  0  0  0  0  0  0  0  0  0
   38.1890   29.9080   37.5060 H   0  0  0  0  0  0  0  0  0  0  0  0
   35.7640   30.9610   40.8720 H   0  0  0  0  0  0  0  0  0  0  0  0
   39.6560   33.2830   40.1160 C   0  0  0  0  0  0  0  0  0  0  0  0
   39.3730   34.6370   40.0650 C   0  0  0  0  0  0  0  0  0  0  0  0
   40.5420   35.3240   40.3800 C   0  0  0  0  0  0  0  0  0  0  0  0
   41.4880   34.3730   40.6090 N   0  0  0  0  0  0  0  0  0  0  0  0
   40.9390   33.1720   40.4470 N   0  0  0  0  0  0  0  0  0  0  0  0
   38.4360   35.1110   39.8290 H   0  0  0  0  0  0  0  0  0  0  0  0
   40.6920   36.3930   40.4360 H   0  0  0  0  0  0  0  0  0  0  0  0
   42.8520   34.5490   40.9670 C   0  0  0  0  0  0  0  0  0  0  0  0
   43.7840   34.1330   40.0310 C   0  0  0  0  0  0  0  0  0  0  0  0
   43.5320   33.6950   39.0710 H   0  0  0  0  0  0  0  0  0  0  0  0
   45.1490   34.2740   40.3110 C   0  0  0  0  0  0  0  0  0  0  0  0
   45.9650   33.9870   39.6620 H   0  0  0  0  0  0  0  0  0  0  0  0
   45.4130   34.8360   41.5430 C   0  0  0  0  0  3  0  0  0  0  0  0
   44.5060   35.2570   42.4930 C   0  0  0  0  0  3  0  0  0  0  0  0
   43.2070   35.0890   42.1500 N   0  0  0  0  0  0  0  0  0  0  0  0
   35.9330   29.3260   38.8280 O   0  0  0  0  0  0  0  0  0  0  0  0
   36.1240   27.9670   38.9890 C   0  0  0  0  0  0  0  0  0  0  0  0
   35.8540   26.9860   38.0620 C   0  0  0  0  0  0  0  0  0  0  0  0
   36.0980   25.6720   38.3660 C   0  0  0  0  0  0  0  0  0  0  0  0
   36.6140   25.2720   39.5910 C   0  0  0  0  0  0  0  0  0  0  0  0
   36.8300   23.9750   39.8320 N   0  0  0  0  0  0  0  0  0  0  0  0
   37.3280   23.5560   41.0030 C   0  0  0  0  0  0  0  0  0  0  0  0
   37.6110   24.5080   41.9580 C   0  0  0  0  0  0  0  0  0  0  0  0
   37.3900   25.8830   41.7240 C   0  0  0  0  0  0  0  0  0  0  0  0
   36.8790   26.2640   40.5090 C   0  0  0  0  0  0  0  0  0  0  0  0
   36.6440   27.6100   40.2350 C   0  0  0  0  0  0  0  0  0  0  0  0
   35.4550   27.3090   37.1190 H   0  0  0  0  0  0  0  0  0  0  0  0
   35.8690   24.9360   37.6050 H   0  0  0  0  0  0  0  0  0  0  0  0
   37.5190   22.5360   41.2490 H   0  0  0  0  0  0  0  0  0  0  0  0
   38.0130   24.2360   42.9210 H   0  0  0  0  0  0  0  0  0  0  0  0
   37.6250   26.5910   42.4940 H   0  0  0  0  0  0  0  0  0  0  0  0
   36.8820   28.3100   41.0090 H   0  0  0  0  0  0  0  0  0  0  0  0
  1  6  2  0  0  0  0
  1  2  1  0  0  0  0
  2  3  2  0  0  0  0
  3  4  1  0  0  0  0
  3  8  1  0  0  0  0
  5  9  1  0  0  0  0
  5  4  2  0  0  0  0
  6  5  1  0  0  0  0
  7  1  1  0  0  0  0
  9 13  2  0  0  0  0
 10  9  1  0  0  0  0
 10 11  2  0  0  0  0
 11 15  1  0  0  0  0
 11 12  1  0  0  0  0
 12 16  1  0  0  0  0
 13 12  1  0  0  0  0
 14 10  1  0  0  0  0
 16 23  1  0  0  0  0
 17 19  1  0  0  0  0
 17 16  2  0  0  0  0
 18 17  1  0  0  0  0
 19 21  2  0  0  0  0
 20 19  1  0  0  0  0
 21 22  1  0  0  0  0
 23 22  2  0  0  0  0
 24 25  1  0  0  0  0
 24  2  1  0  0  0  0
 25 34  1  0  0  0  0
 26 27  1  0  0  0  0
 26 25  2  0  0  0  0
 27 28  2  0  0  0  0
 28 29  1  0  0  0  0
 28 33  1  0  0  0  0
 29 30  2  0  0  0  0
 30 37  1  0  0  0  0
 30 31  1  0  0  0  0
 31 38  1  0  0  0  0
 32 31  2  0  0  0  0
 32 39  1  0  0  0  0
 33 32  1  0  0  0  0
 34 33  2  0  0  0  0
 34 40  1  0  0  0  0
 35 26  1  0  0  0  0
 36 27  1  0  0  0  0
M  END
>  <minimizedAffinity>
-6.31985569

$$$$

 OpenBabel03242514003D

 40 44  0  0  0  0  0  0  0  0999 V2000
   37.6360   30.1040   39.8820 C   0  0  0  0  0  0  0  0  0  0  0  0
   37.4440   29.3740   41.0600 C   0  0  0  0  0  0  0  0  0  0  0  0
   38.1940   29.7520   42.2020 C   0  0  0  0  0  0  0  0  0  0  0  0
   39.0430   30.7840   42.0930 N   0  0  0  0  0  0  0  0  0  0  0  0
   39.2170   31.4750   40.9530 C   0  0  0  0  0  0  0  0  0  0  0  0
   38.4910   31.1130   39.8380 N   0  0  0  0  0  0  0  0  0  0  0  0
   37.0480   29.7890   39.0310 H   0  0  0  0  0  0  0  0  0  0  0  0
   38.0900   29.2270   43.1440 H   0  0  0  0  0  0  0  0  0  0  0  0
   40.1190   32.5990   40.7710 C   0  0  0  0  0  0  0  0  0  0  0  0
   39.7950   33.6810   39.9700 C   0  0  0  0  0  0  0  0  0  0  0  0
   40.8630   34.5710   40.0120 C   0  0  0  0  0  0  0  0  0  0  0  0
   41.7930   34.0060   40.8290 N   0  0  0  0  0  0  0  0  0  0  0  0
   41.3290   32.8380   41.2660 N   0  0  0  0  0  0  0  0  0  0  0  0
   38.8940   33.8410   39.4030 H   0  0  0  0  0  0  0  0  0  0  0  0
   40.9580   35.5230   39.5070 H   0  0  0  0  0  0  0  0  0  0  0  0
   43.0680   34.5120   41.2030 C   0  0  0  0  0  0  0  0  0  0  0  0
   44.1440   34.0550   40.4610 C   0  0  0  0  0  0  0  0  0  0  0  0
   44.0650   33.3540   39.6370 H   0  0  0  0  0  0  0  0  0  0  0  0
   45.4330   34.5080   40.7700 C   0  0  0  0  0  0  0  0  0  0  0  0
   46.3460   34.2230   40.2650 H   0  0  0  0  0  0  0  0  0  0  0  0
   45.4770   35.3960   41.8250 C   0  0  0  0  0  3  0  0  0  0  0  0
   44.4230   35.8660   42.5800 C   0  0  0  0  0  3  0  0  0  0  0  0
   43.2090   35.3840   42.2210 N   0  0  0  0  0  0  0  0  0  0  0  0
   36.5770   28.3050   41.2110 O   0  0  0  0  0  0  0  0  0  0  0  0
   36.6310   27.1370   40.4750 C   0  0  0  0  0  0  0  0  0  0  0  0
   36.2080   26.9660   39.1760 C   0  0  0  0  0  0  0  0  0  0  0  0
   36.3280   25.7410   38.5740 C   0  0  0  0  0  0  0  0  0  0  0  0
   36.8660   24.6380   39.2240 C   0  0  0  0  0  0  0  0  0  0  0  0
   36.9560   23.4660   38.5850 N   0  0  0  0  0  0  0  0  0  0  0  0
   37.4710   22.3830   39.1840 C   0  0  0  0  0  0  0  0  0  0  0  0
   37.9050   22.5140   40.4850 C   0  0  0  0  0  0  0  0  0  0  0  0
   37.8190   23.7420   41.1770 C   0  0  0  0  0  0  0  0  0  0  0  0
   37.2850   24.8240   40.5230 C   0  0  0  0  0  0  0  0  0  0  0  0
   37.1790   26.0550   41.1670 C   0  0  0  0  0  0  0  0  0  0  0  0
   35.7950   27.8260   38.6850 H   0  0  0  0  0  0  0  0  0  0  0  0
   35.9810   25.6550   37.5510 H   0  0  0  0  0  0  0  0  0  0  0  0
   37.5660   21.4270   38.7240 H   0  0  0  0  0  0  0  0  0  0  0  0
   38.3290   21.6810   41.0220 H   0  0  0  0  0  0  0  0  0  0  0  0
   38.1690   23.8010   42.1890 H   0  0  0  0  0  0  0  0  0  0  0  0
   37.5310   26.1040   42.1760 H   0  0  0  0  0  0  0  0  0  0  0  0
  1  2  1  0  0  0  0
  2 24  1  0  0  0  0
  2  3  2  0  0  0  0
  3  8  1  0  0  0  0
  4  3  1  0  0  0  0
  5  4  2  0  0  0  0
  6  1  2  0  0  0  0
  6  5  1  0  0  0  0
  7  1  1  0  0  0  0
  9  5  1  0  0  0  0
  9 13  2  0  0  0  0
 10 11  2  0  0  0  0
 10  9  1  0  0  0  0
 11 12  1  0  0  0  0
 12 16  1  0  0  0  0
 12 13  1  0  0  0  0
 14 10  1  0  0  0  0
 15 11  1  0  0  0  0
 16 23  1  0  0  0  0
 17 19  1  0  0  0  0
 17 16  2  0  0  0  0
 18 17  1  0  0  0  0
 19 21  2  0  0  0  0
 20 19  1  0  0  0  0
 21 22  1  0  0  0  0
 23 22  2  0  0  0  0
 25 34  1  0  0  0  0
 25 24  1  0  0  0  0
 26 25  2  0  0  0  0
 27 26  1  0  0  0  0
 27 28  2  0  0  0  0
 28 33  1  0  0  0  0
 29 30  2  0  0  0  0
 29 28  1  0  0  0  0
 30 31  1  0  0  0  0
 31 38  1  0  0  0  0
 31 32  2  0  0  0  0
 32 39  1  0  0  0  0
 33 34  2  0  0  0  0
 33 32  1  0  0  0  0
 34 40  1  0  0  0  0
 35 26  1  0  0  0  0
 36 27  1  0  0  0  0
 37 30  1  0  0  0  0
M  END
>  <minimizedAffinity>
-6.10818529

$$$$

 OpenBabel03242514003D

 40 44  0  0  0  0  0  0  0  0999 V2000
   37.7100   31.2660   40.9480 C   0  0  0  0  0  0  0  0  0  0  0  0
   38.1510   31.6800   39.6870 C   0  0  0  0  0  0  0  0  0  0  0  0
   38.3930   30.6810   38.7100 C   0  0  0  0  0  0  0  0  0  0  0  0
   38.1880   29.3990   39.0460 N   0  0  0  0  0  0  0  0  0  0  0  0
   37.7650   29.0180   40.2640 C   0  0  0  0  0  0  0  0  0  0  0  0
   37.5270   29.9830   41.2190 N   0  0  0  0  0  0  0  0  0  0  0  0
   37.5360   32.0530   41.6680 H   0  0  0  0  0  0  0  0  0  0  0  0
   38.7350   30.9370   37.7150 H   0  0  0  0  0  0  0  0  0  0  0  0
   37.5250   27.6490   40.6880 C   0  0  0  0  0  0  0  0  0  0  0  0
   37.3080   27.3170   42.0150 C   0  0  0  0  0  0  0  0  0  0  0  0
   37.1140   25.9410   42.0780 C   0  0  0  0  0  0  0  0  0  0  0  0
   37.2190   25.4860   40.8000 N   0  0  0  0  0  0  0  0  0  0  0  0
   37.4620   26.5170   39.9950 N   0  0  0  0  0  0  0  0  0  0  0  0
   37.2860   27.9730   42.8680 H   0  0  0  0  0  0  0  0  0  0  0  0
   36.9190   25.3350   42.9530 H   0  0  0  0  0  0  0  0  0  0  0  0
   37.1010   24.1530   40.3220 C   0  0  0  0  0  0  0  0  0  0  0  0
   38.1380   23.2960   40.6500 C   0  0  0  0  0  0  0  0  0  0  0  0
   39.0070   23.5830   41.2340 H   0  0  0  0  0  0  0  0  0  0  0  0
   38.0940   21.9660   40.2150 C   0  0  0  0  0  0  0  0  0  0  0  0
   38.8410   21.2070   40.4080 H   0  0  0  0  0  0  0  0  0  0  0  0
   36.9700   21.6540   39.4780 C   0  0  0  0  0  3  0  0  0  0  0  0
   35.9250   22.4860   39.1370 C   0  0  0  0  0  3  0  0  0  0  0  0
   36.0380   23.7560   39.5940 N   0  0  0  0  0  0  0  0  0  0  0  0
   38.3730   32.9920   39.3030 O   0  0  0  0  0  0  0  0  0  0  0  0
   39.2500   33.8580   39.9290 C   0  0  0  0  0  0  0  0  0  0  0  0
   38.9990   35.1640   40.2840 C   0  0  0  0  0  0  0  0  0  0  0  0
   39.9720   35.9030   40.9030 C   0  0  0  0  0  0  0  0  0  0  0  0
   41.2280   35.3880   41.1960 C   0  0  0  0  0  0  0  0  0  0  0  0
   42.1390   36.1580   41.8010 N   0  0  0  0  0  0  0  0  0  0  0  0
   43.3600   35.6920   42.0990 C   0  0  0  0  0  0  0  0  0  0  0  0
   43.6490   34.3890   41.7590 C   0  0  0  0  0  0  0  0  0  0  0  0
   42.7030   33.5590   41.1190 C   0  0  0  0  0  0  0  0  0  0  0  0
   41.4650   34.0810   40.8350 C   0  0  0  0  0  0  0  0  0  0  0  0
   40.5000   33.2990   40.2050 C   0  0  0  0  0  0  0  0  0  0  0  0
   38.0240   35.5490   40.0520 H   0  0  0  0  0  0  0  0  0  0  0  0
   39.7280   36.9260   41.1630 H   0  0  0  0  0  0  0  0  0  0  0  0
   44.1230   36.2600   42.5790 H   0  0  0  0  0  0  0  0  0  0  0  0
   44.6140   33.9540   41.9700 H   0  0  0  0  0  0  0  0  0  0  0  0
   42.9690   32.5500   40.8730 H   0  0  0  0  0  0  0  0  0  0  0  0
   40.7750   32.2930   39.9620 H   0  0  0  0  0  0  0  0  0  0  0  0
  1  6  1  0  0  0  0
  1  7  1  0  0  0  0
  2  1  2  0  0  0  0
  3  4  2  0  0  0  0
  3  2  1  0  0  0  0
  4  5  1  0  0  0  0
  5  9  1  0  0  0  0
  5  6  2  0  0  0  0
  8  3  1  0  0  0  0
  9 10  1  0  0  0  0
 10 11  2  0  0  0  0
 10 14  1  0  0  0  0
 11 15  1  0  0  0  0
 12 11  1  0  0  0  0
 13  9  2  0  0  0  0
 13 12  1  0  0  0  0
 16 17  1  0  0  0  0
 16 12  1  0  0  0  0
 17 18  1  0  0  0  0
 19 20  1  0  0  0  0
 19 17  2  0  0  0  0
 21 19  1  0  0  0  0
 22 21  2  0  0  0  0
 22 23  1  0  0  0  0
 23 16  2  0  0  0  0
 24  2  1  0  0  0  0
 24 25  1  0  0  0  0
 25 34  2  0  0  0  0
 25 26  1  0  0  0  0
 26 27  2  0  0  0  0
 27 36  1  0  0  0  0
 27 28  1  0  0  0  0
 28 29  1  0  0  0  0
 29 30  2  0  0  0  0
 30 37  1  0  0  0  0
 31 38  1  0  0  0  0
 31 30  1  0  0  0  0
 32 31  2  0  0  0  0
 33 32  1  0  0  0  0
 33 28  2  0  0  0  0
 34 33  1  0  0  0  0
 35 26  1  0  0  0  0
 39 32  1  0  0  0  0
 40 34  1  0  0  0  0
M  END
>  <minimizedAffinity>
-5.98500109

$$$$

 OpenBabel03242514003D

 40 44  0  0  0  0  0  0  0  0999 V2000
   39.4130   32.9280   39.3850 C   0  0  0  0  0  0  0  0  0  0  0  0
   40.7880   32.7330   39.2150 C   0  0  0  0  0  0  0  0  0  0  0  0
   41.2870   31.4110   39.3180 C   0  0  0  0  0  0  0  0  0  0  0  0
   40.4190   30.4210   39.5720 N   0  0  0  0  0  0  0  0  0  0  0  0
   39.1000   30.6240   39.7350 C   0  0  0  0  0  0  0  0  0  0  0  0
   38.6070   31.9080   39.6360 N   0  0  0  0  0  0  0  0  0  0  0  0
   39.0670   33.9480   39.3010 H   0  0  0  0  0  0  0  0  0  0  0  0
   42.3420   31.1940   39.1950 H   0  0  0  0  0  0  0  0  0  0  0  0
   38.1110   29.5970   40.0120 C   0  0  0  0  0  0  0  0  0  0  0  0
   36.7860   29.9020   40.2730 C   0  0  0  0  0  0  0  0  0  0  0  0
   36.1140   28.7040   40.4940 C   0  0  0  0  0  0  0  0  0  0  0  0
   37.0440   27.7200   40.3620 N   0  0  0  0  0  0  0  0  0  0  0  0
   38.2190   28.2740   40.0760 N   0  0  0  0  0  0  0  0  0  0  0  0
   36.3230   30.8730   40.3080 H   0  0  0  0  0  0  0  0  0  0  0  0
   35.0680   28.5600   40.7260 H   0  0  0  0  0  0  0  0  0  0  0  0
   36.8710   26.3140   40.4910 C   0  0  0  0  0  0  0  0  0  0  0  0
   36.3010   25.6710   39.4050 C   0  0  0  0  0  0  0  0  0  0  0  0
   35.9900   26.1700   38.4930 H   0  0  0  0  0  0  0  0  0  0  0  0
   36.0970   24.2860   39.4570 C   0  0  0  0  0  0  0  0  0  0  0  0
   35.6620   23.6770   38.6760 H   0  0  0  0  0  0  0  0  0  0  0  0
   36.5090   23.7030   40.6370 C   0  0  0  0  0  3  0  0  0  0  0  0
   37.0780   24.3190   41.7310 C   0  0  0  0  0  3  0  0  0  0  0  0
   37.2430   25.6580   41.6070 N   0  0  0  0  0  0  0  0  0  0  0  0
   41.7140   33.7290   38.9510 O   0  0  0  0  0  0  0  0  0  0  0  0
   42.7810   34.0490   39.7680 C   0  0  0  0  0  0  0  0  0  0  0  0
   44.0880   33.6500   39.6040 C   0  0  0  0  0  0  0  0  0  0  0  0
   45.0430   34.0500   40.5010 C   0  0  0  0  0  0  0  0  0  0  0  0
   44.7510   34.8560   41.5940 C   0  0  0  0  0  0  0  0  0  0  0  0
   45.7240   35.2140   42.4370 N   0  0  0  0  0  0  0  0  0  0  0  0
   45.4760   35.9910   43.5000 C   0  0  0  0  0  0  0  0  0  0  0  0
   44.1790   36.4110   43.6990 C   0  0  0  0  0  0  0  0  0  0  0  0
   43.1360   36.0440   42.8210 C   0  0  0  0  0  0  0  0  0  0  0  0
   43.4390   35.2470   41.7450 C   0  0  0  0  0  0  0  0  0  0  0  0
   42.4420   34.8600   40.8530 C   0  0  0  0  0  0  0  0  0  0  0  0
   44.3000   33.0270   38.7550 H   0  0  0  0  0  0  0  0  0  0  0  0
   46.0570   33.7100   40.3310 H   0  0  0  0  0  0  0  0  0  0  0  0
   46.2120   36.3060   44.2040 H   0  0  0  0  0  0  0  0  0  0  0  0
   43.9130   37.0380   44.5360 H   0  0  0  0  0  0  0  0  0  0  0  0
   42.1400   36.3930   43.0120 H   0  0  0  0  0  0  0  0  0  0  0  0
   41.4510   35.2140   41.0520 H   0  0  0  0  0  0  0  0  0  0  0  0
  1  6  1  0  0  0  0
  2  3  1  0  0  0  0
  2  1  2  0  0  0  0
  3  4  2  0  0  0  0
  4  5  1  0  0  0  0
  5  9  1  0  0  0  0
  6  5  2  0  0  0  0
  7  1  1  0  0  0  0
  8  3  1  0  0  0  0
  9 13  2  0  0  0  0
  9 10  1  0  0  0  0
 10 14  1  0  0  0  0
 10 11  2  0  0  0  0
 11 15  1  0  0  0  0
 12 16  1  0  0  0  0
 12 11  1  0  0  0  0
 13 12  1  0  0  0  0
 16 23  1  0  0  0  0
 17 19  1  0  0  0  0
 17 16  2  0  0  0  0
 18 17  1  0  0  0  0
 19 21  2  0  0  0  0
 20 19  1  0  0  0  0
 21 22  1  0  0  0  0
 23 22  2  0  0  0  0
 24  2  1  0  0  0  0
 24 25  1  0  0  0  0
 25 34  1  0  0  0  0
 26 25  2  0  0  0  0
 26 27  1  0  0  0  0
 27 28  2  0  0  0  0
 28 33  1  0  0  0  0
 28 29  1  0  0  0  0
 29 30  2  0  0  0  0
 30 31  1  0  0  0  0
 30 37  1  0  0  0  0
 31 38  1  0  0  0  0
 32 39  1  0  0  0  0
 32 31  2  0  0  0  0
 33 32  1  0  0  0  0
 34 40  1  0  0  0  0
 34 33  2  0  0  0  0
 35 26  1  0  0  0  0
 36 27  1  0  0  0  0
M  END
>  <minimizedAffinity>
-5.97872639

$$$$
