
 OpenBabel03252507453D

 36 38  0  0  0  0  0  0  0  0999 V2000
   47.4010   34.5560   40.9020 C   0  0  0  0  0  0  0  0  0  0  0  0
   47.6910   35.4230   40.2460 H   0  0  0  0  0  0  0  0  0  0  0  0
   46.7510   33.8870   40.3320 H   0  0  0  0  0  0  0  0  0  0  0  0
   48.6330   33.9070   41.3630 C   0  0  0  0  0  0  0  0  0  0  0  0
   48.7680   32.5660   41.0500 C   0  0  0  0  0  0  0  0  0  0  0  0
   49.8790   31.8150   41.4170 C   0  0  0  0  0  0  0  0  0  0  0  0
   50.8500   32.4980   42.1220 N   0  0  0  0  0  0  0  0  0  0  0  0
   50.6910   33.8050   42.4120 C   0  0  0  0  0  0  0  0  0  0  0  0
   49.6100   34.4750   42.0370 N   0  0  0  0  0  0  0  0  0  0  0  0
   49.9920   30.7780   41.1800 H   0  0  0  0  0  0  0  0  0  0  0  0
   51.4590   34.3550   42.9730 H   0  0  0  0  0  0  0  0  0  0  0  0
   47.4770   31.7070   40.1020 S   0  0  0  0  0  0  0  0  0  0  0  0
   46.0570   31.3860   41.1090 C   0  0  0  0  0  0  0  0  0  0  0  0
   45.9660   31.4670   42.4960 C   0  0  0  0  0  0  0  0  0  0  0  0
   46.8740   31.7590   42.9670 H   0  0  0  0  0  0  0  0  0  0  0  0
   44.7660   31.1770   43.1050 C   0  0  0  0  0  0  0  0  0  0  0  0
   44.7400   31.2510   44.1720 H   0  0  0  0  0  0  0  0  0  0  0  0
   43.6380   30.8040   42.4000 C   0  0  0  0  0  3  0  0  0  0  0  0
   43.7860   30.7400   41.0280 C   0  0  0  0  0  3  0  0  0  0  0  0
   44.9610   31.0220   40.3950 N   0  0  0  0  0  0  0  0  0  0  0  0
   46.5870   35.1060   42.0340 C   0  0  0  0  0  0  0  0  0  0  0  0
   46.8360   34.6630   43.0210 H   0  0  0  0  0  0  0  0  0  0  0  0
   46.8390   36.1930   42.1390 H   0  0  0  0  0  0  0  0  0  0  0  0
   45.1180   35.0060   41.8060 C   0  0  0  0  0  0  0  0  0  0  0  0
   44.2140   35.5150   42.7960 C   0  0  0  0  0  0  0  0  0  0  0  0
   42.5680   35.1640   42.0680 S   0  0  0  0  0  0  0  0  0  0  0  0
   43.3860   34.3820   40.5370 C   0  0  0  0  0  0  0  0  0  0  0  0
   44.4950   34.4940   40.7790 N   0  0  0  0  0  0  0  0  0  0  0  0
   44.4760   35.9840   43.7320 H   0  0  0  0  0  0  0  0  0  0  0  0
   42.6580   33.8470   39.4610 O   0  0  0  0  0  0  0  0  0  0  0  0
   40.6700   34.1880   37.7420 O   0  0  0  0  0  0  0  0  0  0  0  0
   41.7200   34.9370   38.5520 P   0  0  0  0  0  0  0  0  0  0  0  0
   40.9580   36.0000   39.6210 O   0  0  0  0  0  0  0  0  0  0  0  0
   40.2450   35.5330   40.1280 H   0  0  0  0  0  0  0  0  0  0  0  0
   42.7340   35.8340   37.5280 O   0  0  0  0  0  0  0  0  0  0  0  0
   42.9970   36.7000   37.9490 H   0  0  0  0  0  0  0  0  0  0  0  0
  1  4  1  0  0  0  0
  1 21  1  0  0  0  0
  2  1  1  0  0  0  0
  3  1  1  0  0  0  0
  4  9  1  0  0  0  0
  5  4  2  0  0  0  0
  5  6  1  0  0  0  0
  6  7  2  0  0  0  0
  7  8  1  0  0  0  0
  8 11  1  0  0  0  0
  9  8  2  0  0  0  0
 10  6  1  0  0  0  0
 12  5  1  0  0  0  0
 12 13  1  0  0  0  0
 13 14  1  0  0  0  0
 14 15  1  0  0  0  0
 14 16  2  0  0  0  0
 16 17  1  0  0  0  0
 18 16  1  0  0  0  0
 19 18  2  0  0  0  0
 20 19  1  0  0  0  0
 20 13  2  0  0  0  0
 21 23  1  0  0  0  0
 21 22  1  0  0  0  0
 24 21  1  0  0  0  0
 24 25  2  0  0  0  0
 25 29  1  0  0  0  0
 26 25  1  0  0  0  0
 27 28  2  0  0  0  0
 27 26  1  0  0  0  0
 28 24  1  0  0  0  0
 30 27  1  0  0  0  0
 31 32  2  0  0  0  0
 32 30  1  0  0  0  0
 32 33  1  0  0  0  0
 33 34  1  0  0  0  0
 35 36  1  0  0  0  0
 35 32  1  0  0  0  0
M  END
>  <minimizedAffinity>
-4.39642143

>  <minimizedRMSD>
1.09775603

$$$$
