
 OpenBabel03242512593D

 34 37  0  0  0  0  0  0  0  0999 V2000
   44.8300   32.6870   42.8520 F   0  0  0  0  0  0  0  0  0  0  0  0
   45.9670   33.3910   42.5920 C   0  0  0  0  0  0  0  0  0  0  0  0
   46.9470   33.5500   43.5530 C   0  0  0  0  0  0  0  0  0  0  0  0
   48.0510   34.2710   43.2080 C   0  0  0  0  0  0  0  0  0  0  0  0
   48.2420   34.8440   41.9720 C   0  0  0  0  0  0  0  0  0  0  0  0
   47.2490   34.6610   41.0540 C   0  0  0  0  0  0  0  0  0  0  0  0
   46.1140   33.9440   41.3450 C   0  0  0  0  0  0  0  0  0  0  0  0
   48.8290   34.4030   43.9570 H   0  0  0  0  0  0  0  0  0  0  0  0
   49.1200   35.4120   41.7090 H   0  0  0  0  0  0  0  0  0  0  0  0
   47.2970   35.0650   40.0580 H   0  0  0  0  0  0  0  0  0  0  0  0
   45.7460   32.8770   47.0990 C   0  0  0  0  0  0  0  0  0  0  0  0
   45.9300   33.5040   45.8550 C   0  0  0  0  0  0  0  0  0  0  0  0
   46.7260   32.9360   44.8620 C   0  0  0  0  0  0  0  0  0  0  0  0
   47.3110   31.7330   45.1850 N   0  0  0  0  0  0  0  0  0  0  0  0
   47.1140   31.1570   46.3930 C   0  0  0  0  0  0  0  0  0  0  0  0
   46.3490   31.7150   47.3280 N   0  0  0  0  0  0  0  0  0  0  0  0
   45.0950   33.4960   47.7010 H   0  0  0  0  0  0  0  0  0  0  0  0
   45.5000   34.4500   45.5320 H   0  0  0  0  0  0  0  0  0  0  0  0
   47.5620   30.2150   46.6650 H   0  0  0  0  0  0  0  0  0  0  0  0
   45.0530   33.7550   40.3500 C   0  0  0  0  0  0  0  0  0  0  0  0
   45.1550   33.1680   39.1220 C   0  0  0  0  0  0  0  0  0  0  0  0
   43.9200   33.1960   38.5030 C   0  0  0  0  0  0  0  0  0  0  0  0
   43.1000   33.7980   39.3670 N   0  0  0  0  0  0  0  0  0  0  0  0
   43.7580   34.1430   40.4850 N   0  0  0  0  0  0  0  0  0  0  0  0
   46.0260   32.7380   38.6590 H   0  0  0  0  0  0  0  0  0  0  0  0
   43.5590   32.8490   37.5450 H   0  0  0  0  0  0  0  0  0  0  0  0
   41.7110   34.1400   39.3530 C   0  0  0  0  0  0  0  0  0  0  0  0
   41.0620   34.9290   40.2880 C   0  0  0  0  0  0  0  0  0  0  0  0
   41.6620   35.3120   41.0900 H   0  0  0  0  0  0  0  0  0  0  0  0
   39.7110   35.1430   40.0960 C   0  0  0  0  0  0  0  0  0  0  0  0
   39.1970   35.7700   40.8380 H   0  0  0  0  0  0  0  0  0  0  0  0
   39.0430   34.5890   39.0120 C   0  0  0  0  0  0  0  0  0  0  0  0
   39.7340   33.8080   38.1050 C   0  0  0  0  0  0  0  0  0  0  0  0
   41.0700   33.5890   38.2840 N   0  0  0  0  0  0  0  0  0  0  0  0
  2  1  1  0  0  0  0
  2  3  1  0  0  0  0
  3 13  1  0  0  0  0
  4  3  2  0  0  0  0
  4  8  1  0  0  0  0
  5  4  1  0  0  0  0
  6  7  1  0  0  0  0
  6  5  2  0  0  0  0
  7  2  2  0  0  0  0
  9  5  1  0  0  0  0
 10  6  1  0  0  0  0
 11 16  1  0  0  0  0
 11 17  1  0  0  0  0
 12 11  2  0  0  0  0
 13 14  2  0  0  0  0
 13 12  1  0  0  0  0
 14 15  1  0  0  0  0
 15 19  1  0  0  0  0
 15 16  2  0  0  0  0
 18 12  1  0  0  0  0
 20 24  2  0  0  0  0
 20  7  1  0  0  0  0
 21 20  1  0  0  0  0
 22 21  2  0  0  0  0
 22 23  1  0  0  0  0
 23 24  1  0  0  0  0
 25 21  1  0  0  0  0
 26 22  1  0  0  0  0
 27 23  1  0  0  0  0
 27 28  1  0  0  0  0
 28 29  1  0  0  0  0
 30 28  2  0  0  0  0
 30 31  1  0  0  0  0
 32 30  1  0  0  0  0
 33 34  1  0  0  0  0
 33 32  2  0  0  0  0
 34 27  2  0  0  0  0
M  END
>  <minimizedAffinity>
-6.13697815

>  <minimizedRMSD>
3.46331716

$$$$
