
 OpenBabel03252507453D

 36 38  0  0  0  0  0  0  0  0999 V2000
   47.2900   34.5420   40.8410 C   0  0  0  0  0  0  0  0  0  0  0  0
   47.5700   35.3930   40.1600 H   0  0  0  0  0  0  0  0  0  0  0  0
   46.6410   33.8530   40.2930 H   0  0  0  0  0  0  0  0  0  0  0  0
   48.5290   33.9140   41.3110 C   0  0  0  0  0  0  0  0  0  0  0  0
   48.7140   32.5900   40.9530 C   0  0  0  0  0  0  0  0  0  0  0  0
   49.8390   31.8600   41.3230 C   0  0  0  0  0  0  0  0  0  0  0  0
   50.7690   32.5450   42.0790 N   0  0  0  0  0  0  0  0  0  0  0  0
   50.5610   33.8350   42.4120 C   0  0  0  0  0  0  0  0  0  0  0  0
   49.4690   34.4860   42.0320 N   0  0  0  0  0  0  0  0  0  0  0  0
   49.9900   30.8370   41.0510 H   0  0  0  0  0  0  0  0  0  0  0  0
   51.2960   34.3870   43.0130 H   0  0  0  0  0  0  0  0  0  0  0  0
   47.4760   31.7280   39.9390 S   0  0  0  0  0  0  0  0  0  0  0  0
   46.0150   31.3840   40.8770 C   0  0  0  0  0  0  0  0  0  0  0  0
   44.7700   30.9930   40.3930 C   0  0  0  0  0  0  0  0  0  0  0  0
   44.7330   30.9030   39.3330 H   0  0  0  0  0  0  0  0  0  0  0  0
   43.7460   30.7690   41.2840 C   0  0  0  0  0  0  0  0  0  0  0  0
   42.8060   30.4710   40.8710 H   0  0  0  0  0  0  0  0  0  0  0  0
   43.8970   30.9150   42.6500 C   0  0  0  0  0  3  0  0  0  0  0  0
   45.1520   31.3030   43.0750 C   0  0  0  0  0  3  0  0  0  0  0  0
   46.1860   31.5320   42.2160 N   0  0  0  0  0  0  0  0  0  0  0  0
   46.4790   35.1150   41.9620 C   0  0  0  0  0  0  0  0  0  0  0  0
   46.7430   34.7070   42.9600 H   0  0  0  0  0  0  0  0  0  0  0  0
   46.7150   36.2090   42.0300 H   0  0  0  0  0  0  0  0  0  0  0  0
   45.0090   34.9860   41.7520 C   0  0  0  0  0  0  0  0  0  0  0  0
   44.1090   35.4100   42.7850 C   0  0  0  0  0  0  0  0  0  0  0  0
   42.4610   35.0550   42.0640 S   0  0  0  0  0  0  0  0  0  0  0  0
   43.2730   34.3880   40.4770 C   0  0  0  0  0  0  0  0  0  0  0  0
   44.3830   34.5180   40.7070 N   0  0  0  0  0  0  0  0  0  0  0  0
   44.3750   35.8310   43.7430 H   0  0  0  0  0  0  0  0  0  0  0  0
   42.5410   33.8960   39.3830 O   0  0  0  0  0  0  0  0  0  0  0  0
   40.5490   34.3200   37.6870 O   0  0  0  0  0  0  0  0  0  0  0  0
   41.6230   35.0270   38.5040 P   0  0  0  0  0  0  0  0  0  0  0  0
   40.8940   36.0850   39.6000 O   0  0  0  0  0  0  0  0  0  0  0  0
   40.1740   35.6240   40.1030 H   0  0  0  0  0  0  0  0  0  0  0  0
   42.6500   35.9200   37.4900 O   0  0  0  0  0  0  0  0  0  0  0  0
   42.9370   36.7710   37.9270 H   0  0  0  0  0  0  0  0  0  0  0  0
  1  4  1  0  0  0  0
  1 21  1  0  0  0  0
  2  1  1  0  0  0  0
  3  1  1  0  0  0  0
  4  9  1  0  0  0  0
  5  4  2  0  0  0  0
  5  6  1  0  0  0  0
  6  7  2  0  0  0  0
  7  8  1  0  0  0  0
  8 11  1  0  0  0  0
  9  8  2  0  0  0  0
 10  6  1  0  0  0  0
 12 13  1  0  0  0  0
 12  5  1  0  0  0  0
 13 20  1  0  0  0  0
 14 13  2  0  0  0  0
 14 16  1  0  0  0  0
 15 14  1  0  0  0  0
 16 18  2  0  0  0  0
 17 16  1  0  0  0  0
 18 19  1  0  0  0  0
 20 19  2  0  0  0  0
 21 23  1  0  0  0  0
 21 22  1  0  0  0  0
 24 21  1  0  0  0  0
 24 25  2  0  0  0  0
 25 29  1  0  0  0  0
 26 25  1  0  0  0  0
 27 28  2  0  0  0  0
 27 26  1  0  0  0  0
 28 24  1  0  0  0  0
 30 27  1  0  0  0  0
 31 32  2  0  0  0  0
 32 30  1  0  0  0  0
 32 33  1  0  0  0  0
 33 34  1  0  0  0  0
 35 36  1  0  0  0  0
 35 32  1  0  0  0  0
M  END
>  <minimizedAffinity>
-4.38477564

>  <minimizedRMSD>
1.03548265

$$$$
