
 OpenBabel03252508593D

 44 46  0  0  1  0  0  0  0  0999 V2000
   46.6730   34.5350   43.5620 N   0  0  0  0  0  0  0  0  0  0  0  0
   46.1790   35.5610   42.7220 C   0  0  0  0  0  0  0  0  0  0  0  0
   44.6740   35.7410   42.7300 C   0  0  0  0  0  0  0  0  0  0  0  0
   44.0350   35.4530   44.0610 C   0  0  0  0  0  0  0  0  0  0  0  0
   45.0480   35.1040   45.1200 C   0  0  0  0  0  0  0  0  0  0  0  0
   45.8440   33.9120   44.4800 C   0  0  2  0  0  0  0  0  0  0  0  0
   46.5970   36.5300   43.1110 H   0  0  0  0  0  0  0  0  0  0  0  0
   46.4770   35.5210   41.6740 H   0  0  0  0  0  0  0  0  0  0  0  0
   44.2760   35.0160   41.9790 H   0  0  0  0  0  0  0  0  0  0  0  0
   44.4850   36.7640   42.3510 H   0  0  0  0  0  0  0  0  0  0  0  0
   43.2820   34.6610   44.0150 H   0  0  0  0  0  0  0  0  0  0  0  0
   43.5800   36.4230   44.3950 H   0  0  0  0  0  0  0  0  0  0  0  0
   44.4990   34.6580   45.9850 H   0  0  0  0  0  0  0  0  0  0  0  0
   45.7340   35.9140   45.3860 H   0  0  0  0  0  0  0  0  0  0  0  0
   45.0500   33.2380   44.1220 H   0  0  0  0  0  0  0  0  0  0  0  0
   47.7530   33.7690   42.9940 C   0  0  0  0  0  0  0  0  0  0  0  0
   48.4450   34.4790   42.4970 H   0  0  0  0  0  0  0  0  0  0  0  0
   48.3200   33.2950   43.8430 H   0  0  0  0  0  0  0  0  0  0  0  0
   47.1970   32.7150   42.1040 C   0  0  0  0  0  0  0  0  0  0  0  0
   47.3830   31.6920   42.4770 H   0  0  0  0  0  0  0  0  0  0  0  0
   46.0810   32.8080   42.0340 H   0  0  0  0  0  0  0  0  0  0  0  0
   49.0660   32.0070   38.9200 C   0  0  0  0  0  0  0  0  0  0  0  0
   48.5380   31.8550   40.2230 C   0  0  0  0  0  0  0  0  0  0  0  0
   47.7570   32.8630   40.7380 C   0  0  0  0  0  0  0  0  0  0  0  0
   47.5320   33.9450   39.9760 N   0  0  0  0  0  0  0  0  0  0  0  0
   48.0450   34.0730   38.7350 C   0  0  0  0  0  0  0  0  0  0  0  0
   48.8080   33.1150   38.2020 N   0  0  0  0  0  0  0  0  0  0  0  0
   49.6650   31.1680   38.6040 H   0  0  0  0  0  0  0  0  0  0  0  0
   48.7260   30.9770   40.8280 H   0  0  0  0  0  0  0  0  0  0  0  0
   47.8780   34.9360   38.1030 H   0  0  0  0  0  0  0  0  0  0  0  0
   46.5540   33.4290   45.5730 O   0  0  0  0  0  0  0  0  0  0  0  0
   45.5950   31.1110   44.7020 O   0  0  0  0  0  0  0  0  0  0  0  0
   46.2050   31.8070   45.9150 P   0  0  2  0  0  0  0  0  0  0  0  0
   45.0020   31.8160   47.1180 O   0  0  0  0  0  0  0  0  0  0  0  0
   45.2450   32.5050   47.7770 H   0  0  0  0  0  0  0  0  0  0  0  0
   47.5400   31.0100   46.5160 O   0  0  0  0  0  0  0  0  0  0  0  0
   47.6640   29.6940   46.8600 C   0  0  0  0  0  0  0  0  0  0  0  0
   48.8330   28.9890   47.0130 C   0  0  0  0  0  0  0  0  0  0  0  0
   49.7570   29.5260   46.8470 H   0  0  0  0  0  0  0  0  0  0  0  0
   48.8840   27.6550   47.3630 C   0  0  0  0  0  0  0  0  0  0  0  0
   49.8140   27.1160   47.4790 H   0  0  0  0  0  0  0  0  0  0  0  0
   47.6950   26.9540   47.5800 C   0  0  0  0  0  3  0  0  0  0  0  0
   46.5620   27.7280   47.4080 C   0  0  0  0  0  3  0  0  0  0  0  0
   46.4970   29.0200   47.0700 N   0  0  0  0  0  0  0  0  0  0  0  0
  1  6  1  0  0  0  0
  2  3  1  0  0  0  0
  2  7  1  0  0  0  0
  2  1  1  0  0  0  0
  3  4  1  0  0  0  0
  4 12  1  0  0  0  0
  4  5  1  0  0  0  0
  5 14  1  0  0  0  0
  5 13  1  0  0  0  0
  6 15  1  6  0  0  0
  6  5  1  0  0  0  0
  6 31  1  0  0  0  0
  8  2  1  0  0  0  0
  9  3  1  0  0  0  0
 10  3  1  0  0  0  0
 11  4  1  0  0  0  0
 16  1  1  0  0  0  0
 16 18  1  0  0  0  0
 17 16  1  0  0  0  0
 19 20  1  0  0  0  0
 19 16  1  0  0  0  0
 21 19  1  0  0  0  0
 22 23  1  0  0  0  0
 23 24  2  0  0  0  0
 23 29  1  0  0  0  0
 24 19  1  0  0  0  0
 25 24  1  0  0  0  0
 26 25  2  0  0  0  0
 27 26  1  0  0  0  0
 27 22  2  0  0  0  0
 28 22  1  0  0  0  0
 30 26  1  0  0  0  0
 31 33  1  0  0  0  0
 33 32  2  6  0  0  0
 33 36  1  0  0  0  0
 33 34  1  0  0  0  0
 34 35  1  0  0  0  0
 36 37  1  0  0  0  0
 37 38  2  0  0  0  0
 37 44  1  0  0  0  0
 38 40  1  0  0  0  0
 39 38  1  0  0  0  0
 40 41  1  0  0  0  0
 40 42  2  0  0  0  0
 43 42  1  0  0  0  0
 44 43  2  0  0  0  0
M  END
>  <minimizedAffinity>
-4.32045269

>  <minimizedRMSD>
1.39758861

$$$$
