
 OpenBabel03252503153D

 35 38  0  0  0  0  0  0  0  0999 V2000
   45.6650   34.5570   41.6220 C   0  0  0  0  0  0  0  0  0  0  0  0
   46.8760   34.7050   41.2960 O   0  0  0  0  0  0  0  0  0  0  0  0
   44.5570   34.2030   40.6620 C   0  0  0  0  0  0  0  0  0  0  0  0
   43.2260   34.5100   40.7960 C   0  0  0  0  0  0  0  0  0  0  0  0
   42.6190   33.9980   39.7110 N   0  0  0  0  0  0  0  0  0  0  0  0
   43.5430   33.3990   38.9410 C   0  0  0  0  0  0  0  0  0  0  0  0
   44.7540   33.5210   39.5240 N   0  0  0  0  0  0  0  0  0  0  0  0
   43.4350   32.7070   37.6930 N   0  0  0  0  0  0  0  0  0  0  0  0
   42.7780   35.0470   41.6010 H   0  0  0  0  0  0  0  0  0  0  0  0
   43.4400   33.2020   36.7650 H   0  0  0  0  0  0  0  0  0  0  0  0
   43.3500   31.6790   37.7590 H   0  0  0  0  0  0  0  0  0  0  0  0
   41.2370   34.0490   39.3770 C   0  0  0  0  0  0  0  0  0  0  0  0
   40.2460   33.8840   40.3200 C   0  0  0  0  0  0  0  0  0  0  0  0
   40.6090   33.7140   41.3260 H   0  0  0  0  0  0  0  0  0  0  0  0
   38.8970   33.9380   39.9710 C   0  0  0  0  0  0  0  0  0  0  0  0
   38.1580   33.8000   40.7590 H   0  0  0  0  0  0  0  0  0  0  0  0
   38.5760   34.1650   38.6290 C   0  0  0  0  0  0  0  0  0  0  0  0
   39.5910   34.3260   37.7090 C   0  0  0  0  0  0  0  0  0  0  0  0
   40.8820   34.2640   38.1020 N   0  0  0  0  0  0  0  0  0  0  0  0
   44.8210   35.9670   43.4350 C   0  0  0  0  0  0  0  0  0  0  0  0
   45.3680   34.7470   43.0100 C   0  0  0  0  0  0  0  0  0  0  0  0
   45.5740   33.8110   44.0060 C   0  0  0  0  0  0  0  0  0  0  0  0
   45.2790   34.0420   45.2820 N   0  0  0  0  0  0  0  0  0  0  0  0
   44.7490   35.2410   45.6540 C   0  0  0  0  0  0  0  0  0  0  0  0
   44.5260   36.1890   44.7270 N   0  0  0  0  0  0  0  0  0  0  0  0
   44.6390   36.7380   42.6930 H   0  0  0  0  0  0  0  0  0  0  0  0
   44.5300   35.3690   46.7050 H   0  0  0  0  0  0  0  0  0  0  0  0
   46.1290   32.5590   43.6410 C   0  0  0  0  0  0  0  0  0  0  0  0
   47.3810   32.0320   43.5890 C   0  0  0  0  0  0  0  0  0  0  0  0
   47.6330   30.8000   43.2000 C   0  0  0  0  0  0  0  0  0  0  0  0
   46.5630   30.0570   42.8440 C   0  0  0  0  0  0  0  0  0  0  0  0
   45.1450   31.1860   43.0810 S   0  0  0  0  0  0  0  0  0  0  0  0
   48.1700   32.7460   43.9070 H   0  0  0  0  0  0  0  0  0  0  0  0
   48.6110   30.3360   43.1420 H   0  0  0  0  0  0  0  0  0  0  0  0
   46.5370   28.9580   42.4720 H   0  0  0  0  0  0  0  0  0  0  0  0
  1 21  1  0  0  0  0
  2  1  2  0  0  0  0
  3  4  2  0  0  0  0
  3  1  1  0  0  0  0
  4  9  1  0  0  0  0
  5  4  1  0  0  0  0
  6  7  2  0  0  0  0
  6  5  1  0  0  0  0
  7  3  1  0  0  0  0
  8 11  1  0  0  0  0
  8  6  1  0  0  0  0
 10  8  1  0  0  0  0
 12  5  1  0  0  0  0
 12 13  1  0  0  0  0
 13 14  1  0  0  0  0
 15 13  2  0  0  0  0
 15 16  1  0  0  0  0
 17 15  1  0  0  0  0
 18 19  1  0  0  0  0
 18 17  2  0  0  0  0
 19 12  2  0  0  0  0
 20 25  1  0  0  0  0
 21 20  2  0  0  0  0
 21 22  1  0  0  0  0
 22 23  2  0  0  0  0
 23 24  1  0  0  0  0
 24 27  1  0  0  0  0
 25 24  2  0  0  0  0
 26 20  1  0  0  0  0
 28 22  1  0  0  0  0
 29 28  2  0  0  0  0
 29 33  1  0  0  0  0
 30 29  1  0  0  0  0
 31 32  1  0  0  0  0
 31 30  2  0  0  0  0
 32 28  1  0  0  0  0
 34 30  1  0  0  0  0
 35 31  1  0  0  0  0
M  END
>  <minimizedAffinity>
-5.95929146

>  <minimizedRMSD>
1.50399792

$$$$
