
 OpenBabel03242519243D

 39 42  0  0  0  0  0  0  0  0999 V2000
   47.9260   33.7820   42.8930 C   0  0  0  0  0  0  0  0  0  0  0  0
   48.5880   35.0010   42.6590 C   0  0  0  0  0  0  0  0  0  0  0  0
   49.9560   35.0110   42.3380 C   0  0  0  0  0  0  0  0  0  0  0  0
   50.5700   33.7890   42.2730 N   0  0  0  0  0  0  0  0  0  0  0  0
   49.8910   32.6230   42.5090 C   0  0  0  0  0  0  0  0  0  0  0  0
   48.6020   32.6370   42.8090 N   0  0  0  0  0  0  0  0  0  0  0  0
   48.1940   36.0070   42.6860 H   0  0  0  0  0  0  0  0  0  0  0  0
   50.5290   35.8880   42.1470 H   0  0  0  0  0  0  0  0  0  0  0  0
   46.4970   33.9040   43.2240 C   0  0  0  0  0  0  0  0  0  0  0  0
   45.7830   34.8970   42.4210 C   0  0  0  0  0  0  0  0  0  0  0  0
   45.3220   36.0870   43.1840 C   0  0  0  0  0  0  0  0  0  0  0  0
   44.5310   35.7380   44.4310 C   0  0  0  0  0  0  0  0  0  0  0  0
   44.9790   34.4690   45.1120 C   0  0  0  0  0  0  0  0  0  0  0  0
   46.4260   34.1790   44.7380 C   0  0  0  0  0  0  0  0  0  0  0  0
   46.0680   32.8610   43.1410 H   0  0  0  0  0  0  0  0  0  0  0  0
   46.3430   35.2680   41.5470 H   0  0  0  0  0  0  0  0  0  0  0  0
   44.8590   34.4010   42.0000 H   0  0  0  0  0  0  0  0  0  0  0  0
   46.0670   36.8620   43.3880 H   0  0  0  0  0  0  0  0  0  0  0  0
   44.5660   36.6020   42.5170 H   0  0  0  0  0  0  0  0  0  0  0  0
   43.4310   35.7580   44.2690 H   0  0  0  0  0  0  0  0  0  0  0  0
   44.7190   36.5550   45.1680 H   0  0  0  0  0  0  0  0  0  0  0  0
   44.3920   33.6430   44.6240 H   0  0  0  0  0  0  0  0  0  0  0  0
   44.8810   34.5020   46.1990 H   0  0  0  0  0  0  0  0  0  0  0  0
   46.7920   33.2800   45.2350 H   0  0  0  0  0  0  0  0  0  0  0  0
   47.0040   35.0980   44.9500 H   0  0  0  0  0  0  0  0  0  0  0  0
   50.7030   31.4090   42.4060 C   0  0  0  0  0  0  0  0  0  0  0  0
   51.4650   31.2620   41.2930 N   0  0  0  0  0  0  0  0  0  0  0  0
   52.1360   30.0960   41.3830 C   0  0  0  0  0  0  0  0  0  0  0  0
   51.7830   29.5240   42.5580 N   0  0  0  0  0  0  0  0  0  0  0  0
   50.9090   30.3230   43.1850 N   0  0  0  0  0  0  0  0  0  0  0  0
   52.8330   29.6280   40.7090 H   0  0  0  0  0  0  0  0  0  0  0  0
   52.1610   28.3060   43.1890 C   0  0  0  0  0  0  0  0  0  0  0  0
   51.9120   28.0790   44.5270 C   0  0  0  0  0  0  0  0  0  0  0  0
   51.4130   28.8600   45.0980 H   0  0  0  0  0  0  0  0  0  0  0  0
   52.3230   26.8490   45.0510 C   0  0  0  0  0  0  0  0  0  0  0  0
   52.1170   26.7020   46.0860 H   0  0  0  0  0  0  0  0  0  0  0  0
   52.9470   25.9360   44.2230 C   0  0  0  0  0  0  0  0  0  0  0  0
   53.1880   26.1850   42.8760 C   0  0  0  0  0  0  0  0  0  0  0  0
   52.7770   27.3810   42.4140 N   0  0  0  0  0  0  0  0  0  0  0  0
  1  9  1  0  0  0  0
  2  7  1  0  0  0  0
  2  1  2  0  0  0  0
  3  2  1  0  0  0  0
  4  3  2  0  0  0  0
  4  5  1  0  0  0  0
  5  6  2  0  0  0  0
  6  1  1  0  0  0  0
  8  3  1  0  0  0  0
  9 14  1  0  0  0  0
 10 11  1  0  0  0  0
 10  9  1  0  0  0  0
 11 18  1  0  0  0  0
 11 12  1  0  0  0  0
 12 13  1  0  0  0  0
 12 21  1  0  0  0  0
 13 23  1  0  0  0  0
 14 25  1  0  0  0  0
 14 13  1  0  0  0  0
 14 24  1  0  0  0  0
 15  9  1  0  0  0  0
 16 10  1  0  0  0  0
 17 10  1  0  0  0  0
 19 11  1  0  0  0  0
 20 12  1  0  0  0  0
 22 13  1  0  0  0  0
 26  5  1  0  0  0  0
 26 30  2  0  0  0  0
 27 28  2  0  0  0  0
 27 26  1  0  0  0  0
 28 29  1  0  0  0  0
 29 30  1  0  0  0  0
 29 32  1  0  0  0  0
 31 28  1  0  0  0  0
 32 33  1  0  0  0  0
 33 35  2  0  0  0  0
 33 34  1  0  0  0  0
 35 36  1  0  0  0  0
 37 35  1  0  0  0  0
 38 37  2  0  0  0  0
 39 38  1  0  0  0  0
 39 32  2  0  0  0  0
M  END
>  <minimizedAffinity>
-4.19787502

>  <minimizedRMSD>
0.823792458

$$$$
