
 OpenBabel03252508593D

 44 46  0  0  1  0  0  0  0  0999 V2000
   46.6590   34.5220   43.6100 N   0  0  0  0  0  0  0  0  0  0  0  0
   46.1810   35.5400   42.7500 C   0  0  0  0  0  0  0  0  0  0  0  0
   44.6780   35.7300   42.7400 C   0  0  0  0  0  0  0  0  0  0  0  0
   44.0220   35.4650   44.0680 C   0  0  0  0  0  0  0  0  0  0  0  0
   45.0220   35.1240   45.1420 C   0  0  0  0  0  0  0  0  0  0  0  0
   45.8170   33.9180   44.5280 C   0  0  2  0  0  0  0  0  0  0  0  0
   46.6020   36.5110   43.1300 H   0  0  0  0  0  0  0  0  0  0  0  0
   46.4890   35.4830   41.7060 H   0  0  0  0  0  0  0  0  0  0  0  0
   44.2820   34.9980   41.9950 H   0  0  0  0  0  0  0  0  0  0  0  0
   44.4990   36.7490   42.3450 H   0  0  0  0  0  0  0  0  0  0  0  0
   43.2650   34.6780   44.0260 H   0  0  0  0  0  0  0  0  0  0  0  0
   43.5710   36.4430   44.3840 H   0  0  0  0  0  0  0  0  0  0  0  0
   44.4620   34.6940   46.0080 H   0  0  0  0  0  0  0  0  0  0  0  0
   45.7110   35.9330   45.4040 H   0  0  0  0  0  0  0  0  0  0  0  0
   45.0210   33.2440   44.1710 H   0  0  0  0  0  0  0  0  0  0  0  0
   47.7400   33.7410   43.0630 C   0  0  0  0  0  0  0  0  0  0  0  0
   48.4490   34.4400   42.5760 H   0  0  0  0  0  0  0  0  0  0  0  0
   48.2860   33.2630   43.9240 H   0  0  0  0  0  0  0  0  0  0  0  0
   47.1860   32.6900   42.1680 C   0  0  0  0  0  0  0  0  0  0  0  0
   47.3610   31.6660   42.5440 H   0  0  0  0  0  0  0  0  0  0  0  0
   46.0720   32.7910   42.0850 H   0  0  0  0  0  0  0  0  0  0  0  0
   49.3200   32.1340   39.1230 C   0  0  0  0  0  0  0  0  0  0  0  0
   48.7780   31.9890   40.4220 C   0  0  0  0  0  0  0  0  0  0  0  0
   47.7630   32.8320   40.8090 C   0  0  0  0  0  0  0  0  0  0  0  0
   47.3350   33.7550   39.9330 N   0  0  0  0  0  0  0  0  0  0  0  0
   47.8640   33.8780   38.6980 C   0  0  0  0  0  0  0  0  0  0  0  0
   48.8500   33.0780   38.2880 N   0  0  0  0  0  0  0  0  0  0  0  0
   50.1090   31.4300   38.9110 H   0  0  0  0  0  0  0  0  0  0  0  0
   49.1320   31.2410   41.1190 H   0  0  0  0  0  0  0  0  0  0  0  0
   47.5360   34.6150   37.9750 H   0  0  0  0  0  0  0  0  0  0  0  0
   46.5120   33.4450   45.6340 O   0  0  0  0  0  0  0  0  0  0  0  0
   45.5940   31.1200   44.7390 O   0  0  0  0  0  0  0  0  0  0  0  0
   46.1950   31.8130   45.9580 P   0  0  2  0  0  0  0  0  0  0  0  0
   44.9970   31.7840   47.1650 O   0  0  0  0  0  0  0  0  0  0  0  0
   45.2290   32.4690   47.8310 H   0  0  0  0  0  0  0  0  0  0  0  0
   47.5480   31.0340   46.5450 O   0  0  0  0  0  0  0  0  0  0  0  0
   47.6970   29.7190   46.8780 C   0  0  0  0  0  0  0  0  0  0  0  0
   48.8780   29.0340   47.0270 C   0  0  0  0  0  0  0  0  0  0  0  0
   49.7920   29.5910   46.8640 H   0  0  0  0  0  0  0  0  0  0  0  0
   48.9560   27.7000   47.3660 C   0  0  0  0  0  0  0  0  0  0  0  0
   49.8950   27.1780   47.4790 H   0  0  0  0  0  0  0  0  0  0  0  0
   47.7800   26.9740   47.5770 C   0  0  0  0  0  3  0  0  0  0  0  0
   46.6320   27.7270   47.4100 C   0  0  0  0  0  3  0  0  0  0  0  0
   46.5430   29.0210   47.0820 N   0  0  0  0  0  0  0  0  0  0  0  0
  1  6  1  0  0  0  0
  2  7  1  0  0  0  0
  2  1  1  0  0  0  0
  3  2  1  0  0  0  0
  3  4  1  0  0  0  0
  4 12  1  0  0  0  0
  4  5  1  0  0  0  0
  5 14  1  0  0  0  0
  5 13  1  0  0  0  0
  6 15  1  6  0  0  0
  6  5  1  0  0  0  0
  6 31  1  0  0  0  0
  8  2  1  0  0  0  0
  9  3  1  0  0  0  0
 10  3  1  0  0  0  0
 11  4  1  0  0  0  0
 16  1  1  0  0  0  0
 16 18  1  0  0  0  0
 17 16  1  0  0  0  0
 19 20  1  0  0  0  0
 19 16  1  0  0  0  0
 21 19  1  0  0  0  0
 22 23  1  0  0  0  0
 23 24  2  0  0  0  0
 23 29  1  0  0  0  0
 24 19  1  0  0  0  0
 25 24  1  0  0  0  0
 26 25  2  0  0  0  0
 27 26  1  0  0  0  0
 27 22  2  0  0  0  0
 28 22  1  0  0  0  0
 30 26  1  0  0  0  0
 31 33  1  0  0  0  0
 33 32  2  6  0  0  0
 33 36  1  0  0  0  0
 33 34  1  0  0  0  0
 34 35  1  0  0  0  0
 36 37  1  0  0  0  0
 37 38  2  0  0  0  0
 37 44  1  0  0  0  0
 38 40  1  0  0  0  0
 39 38  1  0  0  0  0
 40 41  1  0  0  0  0
 40 42  2  0  0  0  0
 43 42  1  0  0  0  0
 44 43  2  0  0  0  0
M  END
>  <minimizedAffinity>
-4.31640768

>  <minimizedRMSD>
1.28959596

$$$$
