REMARK  Name = 
REMARK  7 active torsions:
REMARK  status: ('A' for Active; 'I' for Inactive)
REMARK    1  A    between atoms: C_1  and  C_8
REMARK    2  A    between atoms: C_4  and  C_12
REMARK    3  A    between atoms: C_14  and  O_15
REMARK    4  A    between atoms: O_15  and  P_17
REMARK    5  A    between atoms: P_17  and  O_18
REMARK    6  A    between atoms: P_17  and  O_19
REMARK    7  A    between atoms: O_19  and  C_36
REMARK                            x       y       z     vdW  Elec       q    Type
REMARK                         _______ _______ _______ _____ _____    ______ ____
ROOT
ATOM      1  C   UNL     1      47.048  34.796  41.955  0.00  0.00    +0.000 C 
ATOM      2  C   UNL     1      46.292  34.177  40.781  0.00  0.00    +0.000 C 
ATOM      3  C   UNL     1      47.494  33.992  39.829  0.00  0.00    +0.000 C 
ATOM      4  C   UNL     1      48.638  33.625  40.723  0.00  0.00    +0.000 C 
ATOM      5  C   UNL     1      48.131  33.769  42.126  0.00  0.00    +0.000 C 
ATOM      6  H   UNL     1      47.483  35.751  41.603  0.00  0.00    +0.000 HD
ATOM      7  H   UNL     1      45.859  33.217  41.058  0.00  0.00    +0.000 HD
ATOM      8  H   UNL     1      45.571  34.895  40.339  0.00  0.00    +0.000 HD
ATOM      9  H   UNL     1      47.261  33.254  39.041  0.00  0.00    +0.000 HD
ATOM     10  H   UNL     1      47.670  35.011  39.418  0.00  0.00    +0.000 HD
ATOM     11  H   UNL     1      49.516  34.284  40.535  0.00  0.00    +0.000 HD
ATOM     12  H   UNL     1      48.948  34.235  42.718  0.00  0.00    +0.000 HD
ATOM     13  H   UNL     1      47.769  32.837  42.558  0.00  0.00    +0.000 HD
ENDROOT
BRANCH   1  16
ATOM     14  C   UNL     1      44.550  35.993  44.504  0.00  0.00    +0.000 A 
ATOM     15  C   UNL     1      45.279  35.970  43.304  0.00  0.00    +0.000 A 
ATOM     16  C   UNL     1      46.187  34.931  43.154  0.00  0.00    +0.000 A 
ATOM     17  N   UNL     1      46.351  33.969  44.160  0.00  0.00    +0.000 NA
ATOM     18  C   UNL     1      45.614  34.051  45.297  0.00  0.00    +0.000 A 
ATOM     19  N   UNL     1      44.723  35.053  45.466  0.00  0.00    +0.000 NA
ATOM     20  H   UNL     1      43.831  36.789  44.657  0.00  0.00    +0.000 HD
ATOM     21  H   UNL     1      45.161  36.703  42.524  0.00  0.00    +0.000 HD
ATOM     22  H   UNL     1      45.833  33.253  45.992  0.00  0.00    +0.000 HD
ENDBRANCH   1  16
BRANCH   4  23
ATOM     23  C   UNL     1      49.122  32.203  40.562  0.00  0.00    +0.000 C 
ATOM     24  C   UNL     1      49.759  31.609  41.733  0.00  0.00    +0.000 C 
ATOM     25  C   UNL     1      50.548  31.876  40.494  0.00  0.00    +0.000 C 
ATOM     26  H   UNL     1      48.433  31.576  39.971  0.00  0.00    +0.000 HD
ATOM     27  H   UNL     1      49.505  30.554  41.984  0.00  0.00    +0.000 HD
ATOM     28  H   UNL     1      50.006  32.196  42.639  0.00  0.00    +0.000 HD
ATOM     29  H   UNL     1      51.254  32.713  40.425  0.00  0.00    +0.000 HD
BRANCH  25  30
ATOM     30  O   UNL     1      50.920  30.762  39.702  0.00  0.00    +0.000 OA
BRANCH  30  32
ATOM     31  O   UNL     1      52.038  30.224  37.409  0.00  0.00    +0.000 OA
ATOM     32  P   UNL     1      51.882  31.316  38.438  0.00  0.00    +0.000 P 
BRANCH  32  33
ATOM     33  O   UNL     1      51.127  32.645  37.664  0.00  0.00    +0.000 OA
ATOM     34  H   UNL     1      51.755  33.362  37.447  0.00  0.00    +0.000 HD
ENDBRANCH  32  33
BRANCH  32  35
ATOM     35  O   UNL     1      53.396  31.817  38.899  0.00  0.00    +0.000 OA
BRANCH  35  36
ATOM     36  C   UNL     1      54.135  31.107  39.835  0.00  0.00    +0.000 A 
ATOM     37  C   UNL     1      54.629  31.505  41.059  0.00  0.00    +0.000 A 
ATOM     38  H   UNL     1      54.389  32.521  41.295  0.00  0.00    +0.000 HD
ATOM     39  C   UNL     1      55.343  30.603  41.816  0.00  0.00    +0.000 A 
ATOM     40  H   UNL     1      55.711  30.967  42.774  0.00  0.00    +0.000 HD
ATOM     41  C   UNL     1      55.573  29.313  41.373  0.00  0.00    +0.000 A 
ATOM     42  C   UNL     1      55.063  28.951  40.143  0.00  0.00    +0.000 A 
ATOM     43  N   UNL     1      54.358  29.848  39.400  0.00  0.00    +0.000 NA
ENDBRANCH  35  36
ENDBRANCH  32  35
ENDBRANCH  30  32
ENDBRANCH  25  30
ENDBRANCH   4  23
TORSDOF 7
