
 OpenBabel03252509073D

 40 43  0  0  0  0  0  0  0  0999 V2000
   46.9920   31.6560   39.4190 C   0  0  0  0  0  0  0  0  0  0  0  0
   46.6550   32.9620   39.2170 C   0  0  0  0  0  0  0  0  0  0  0  0
   47.3240   33.7110   38.2640 C   0  0  0  0  0  0  0  0  0  0  0  0
   48.3280   33.1410   37.5180 C   0  0  0  0  0  0  0  0  0  0  0  0
   48.7050   31.8090   37.6910 C   0  0  0  0  0  0  0  0  0  0  0  0
   48.0110   31.0760   38.6630 C   0  0  0  0  0  0  0  0  0  0  0  0
   47.0890   34.7480   38.0720 H   0  0  0  0  0  0  0  0  0  0  0  0
   48.9160   33.6210   36.7540 H   0  0  0  0  0  0  0  0  0  0  0  0
   49.4690   31.2820   37.1620 H   0  0  0  0  0  0  0  0  0  0  0  0
   48.2760   30.0320   38.8290 H   0  0  0  0  0  0  0  0  0  0  0  0
   45.2030   35.8320   43.2550 Cl  0  0  0  0  0  0  0  0  0  0  0  0
   44.9170   34.9650   41.7650 C   0  0  0  0  0  0  0  0  0  0  0  0
   45.9290   34.3370   41.1140 C   0  0  0  0  0  0  0  0  0  0  0  0
   45.5990   33.6630   39.9480 C   0  0  0  0  0  0  0  0  0  0  0  0
   44.3140   33.6300   39.4650 C   0  0  0  0  0  0  0  0  0  0  0  0
   43.3170   34.2640   40.1310 C   0  0  0  0  0  0  0  0  0  0  0  0
   43.6290   34.9330   41.2870 C   0  0  0  0  0  0  0  0  0  0  0  0
   44.1130   33.0850   38.5420 H   0  0  0  0  0  0  0  0  0  0  0  0
   42.3240   34.2080   39.7130 H   0  0  0  0  0  0  0  0  0  0  0  0
   42.8100   35.4330   41.8020 H   0  0  0  0  0  0  0  0  0  0  0  0
   49.4590   35.4270   41.8870 C   0  0  0  0  0  0  0  0  0  0  0  0
   48.1700   35.3840   41.3490 C   0  0  0  0  0  0  0  0  0  0  0  0
   47.2680   34.3920   41.6680 C   0  0  0  0  0  0  0  0  0  0  0  0
   47.7420   33.4700   42.5450 N   0  0  0  0  0  0  0  0  0  0  0  0
   48.9680   33.4990   43.0650 C   0  0  0  0  0  0  0  0  0  0  0  0
   49.8170   34.4750   42.7350 N   0  0  0  0  0  0  0  0  0  0  0  0
   50.1090   36.2340   41.5900 H   0  0  0  0  0  0  0  0  0  0  0  0
   47.8340   36.1440   40.6510 H   0  0  0  0  0  0  0  0  0  0  0  0
   49.1630   32.6750   43.7470 H   0  0  0  0  0  0  0  0  0  0  0  0
   46.1660   30.7040   40.5350 S   0  0  0  0  0  0  0  0  0  0  0  0
   46.3350   29.2270   40.2490 O   0  0  0  0  0  0  0  0  0  0  0  0
   46.9790   30.8920   41.8660 O   0  0  0  0  0  0  0  0  0  0  0  0
   44.5200   30.8820   40.9850 C   0  0  0  0  0  0  0  0  0  0  0  0
   43.5510   30.4890   40.0220 C   0  0  0  0  0  0  0  0  0  0  0  0
   43.9080   30.0950   39.0450 H   0  0  0  0  0  0  0  0  0  0  0  0
   42.1510   30.5050   40.0710 C   0  0  0  0  0  0  0  0  0  0  0  0
   41.5470   30.1720   39.2560 H   0  0  0  0  0  0  0  0  0  0  0  0
   41.6910   30.9900   41.2690 C   0  0  0  0  0  3  0  0  0  0  0  0
   42.5690   31.3840   42.2320 C   0  0  0  0  0  3  0  0  0  0  0  0
   43.8790   31.3230   42.0740 N   0  0  0  0  0  0  0  0  0  0  0  0
  1 30  1  0  0  0  0
  2  1  1  0  0  0  0
  2 14  1  0  0  0  0
  3  2  2  0  0  0  0
  4  5  2  0  0  0  0
  4  3  1  0  0  0  0
  5  6  1  0  0  0  0
  6 10  1  0  0  0  0
  6  1  2  0  0  0  0
  7  3  1  0  0  0  0
  8  4  1  0  0  0  0
  9  5  1  0  0  0  0
 12 11  1  0  0  0  0
 13 23  1  0  0  0  0
 13 12  2  0  0  0  0
 14 13  1  0  0  0  0
 15 14  2  0  0  0  0
 15 16  1  0  0  0  0
 16 17  2  0  0  0  0
 17 12  1  0  0  0  0
 17 20  1  0  0  0  0
 18 15  1  0  0  0  0
 19 16  1  0  0  0  0
 21 26  1  0  0  0  0
 22 23  1  0  0  0  0
 22 21  2  0  0  0  0
 23 24  2  0  0  0  0
 24 25  1  0  0  0  0
 25 29  1  0  0  0  0
 26 25  2  0  0  0  0
 27 21  1  0  0  0  0
 28 22  1  0  0  0  0
 30 33  1  0  0  0  0
 30 32  2  0  0  0  0
 31 30  2  0  0  0  0
 33 40  1  0  0  0  0
 34 36  1  0  0  0  0
 34 33  2  0  0  0  0
 35 34  1  0  0  0  0
 36 38  2  0  0  0  0
 37 36  1  0  0  0  0
 38 39  1  0  0  0  0
 40 39  2  0  0  0  0
M  END
>  <minimizedAffinity>
-4.7484684

>  <minimizedRMSD>
1.11888778

$$$$
