
 OpenBabel03252507543D

 43 46  0  0  1  0  0  0  0  0999 V2000
   47.1070   34.8030   42.1070 C   0  0  2  0  0  0  0  0  0  0  0  0
   46.3390   34.3310   40.8740 C   0  0  0  0  0  0  0  0  0  0  0  0
   47.5440   34.1790   39.9200 C   0  0  0  0  0  0  0  0  0  0  0  0
   48.6580   33.6770   40.7870 C   0  0  1  0  0  0  0  0  0  0  0  0
   48.1390   33.7140   42.1920 C   0  0  0  0  0  0  0  0  0  0  0  0
   47.5900   35.7650   41.8500 H   0  0  0  0  0  0  0  0  0  0  0  0
   45.8580   33.3710   41.0570 H   0  0  0  0  0  0  0  0  0  0  0  0
   45.6580   35.1200   40.4940 H   0  0  0  0  0  0  0  0  0  0  0  0
   47.2880   33.5280   39.0650 H   0  0  0  0  0  0  0  0  0  0  0  0
   47.7730   35.2220   39.6070 H   0  0  0  0  0  0  0  0  0  0  0  0
   49.5680   34.3080   40.6690 H   0  0  0  0  0  0  0  0  0  0  0  0
   48.9680   34.0840   42.8330 H   0  0  0  0  0  0  0  0  0  0  0  0
   47.7280   32.7640   42.5320 H   0  0  0  0  0  0  0  0  0  0  0  0
   44.5350   35.8060   44.6660 C   0  0  0  0  0  0  0  0  0  0  0  0
   45.2660   35.8460   43.4680 C   0  0  0  0  0  0  0  0  0  0  0  0
   46.2370   34.8670   43.3060 C   0  0  0  0  0  0  0  0  0  0  0  0
   46.4580   33.9020   44.2980 N   0  0  0  0  0  0  0  0  0  0  0  0
   45.7150   33.9220   45.4340 C   0  0  0  0  0  0  0  0  0  0  0  0
   44.7630   34.8640   45.6150 N   0  0  0  0  0  0  0  0  0  0  0  0
   43.7680   36.5540   44.8290 H   0  0  0  0  0  0  0  0  0  0  0  0
   45.1050   36.5810   42.6990 H   0  0  0  0  0  0  0  0  0  0  0  0
   45.9810   33.1290   46.1180 H   0  0  0  0  0  0  0  0  0  0  0  0
   49.0780   32.2550   40.4990 C   0  0  2  0  0  0  0  0  0  0  0  0
   49.8860   31.6070   41.5270 C   0  0  0  0  0  0  0  0  0  0  0  0
   50.4650   31.9080   40.1840 C   0  0  1  0  0  0  0  0  0  0  0  0
   48.2870   31.6610   40.0090 H   0  0  0  0  0  0  0  0  0  0  0  0
   49.6540   30.5470   41.7800 H   0  0  0  0  0  0  0  0  0  0  0  0
   50.2920   32.1550   42.3990 H   0  0  0  0  0  0  0  0  0  0  0  0
   51.1680   32.7360   40.0280 H   0  0  0  0  0  0  0  0  0  0  0  0
   50.6770   30.8190   39.3030 O   0  0  0  0  0  0  0  0  0  0  0  0
   51.2380   30.3660   36.7980 O   0  0  0  0  0  0  0  0  0  0  0  0
   51.3250   31.4210   37.8720 P   0  0  1  0  0  0  0  0  0  0  0  0
   50.4160   32.7720   37.3390 O   0  0  0  0  0  0  0  0  0  0  0  0
   50.9790   33.4990   37.0080 H   0  0  0  0  0  0  0  0  0  0  0  0
   52.9060   31.9150   37.9910 O   0  0  0  0  0  0  0  0  0  0  0  0
   53.9200   31.0150   38.2900 C   0  0  0  0  0  0  0  0  0  0  0  0
   54.0740   30.1870   39.3810 C   0  0  0  0  0  0  0  0  0  0  0  0
   53.2750   30.2740   40.0870 H   0  0  0  0  0  0  0  0  0  0  0  0
   55.1830   29.3740   39.4490 C   0  0  0  0  0  0  0  0  0  0  0  0
   55.2580   28.7390   40.3310 H   0  0  0  0  0  0  0  0  0  0  0  0
   56.1390   29.3730   38.4500 C   0  0  0  0  0  3  0  0  0  0  0  0
   55.9500   30.2140   37.3740 C   0  0  0  0  0  3  0  0  0  0  0  0
   54.8520   31.0160   37.3120 N   0  0  0  0  0  0  0  0  0  0  0  0
  1  6  1  6  0  0  0
  1  5  1  0  0  0  0
  1 16  1  0  0  0  0
  2  7  1  0  0  0  0
  2  1  1  0  0  0  0
  3  4  1  0  0  0  0
  3  2  1  0  0  0  0
  4 11  1  6  0  0  0
  4  5  1  0  0  0  0
  5 13  1  0  0  0  0
  5 12  1  0  0  0  0
  8  2  1  0  0  0  0
  9  3  1  0  0  0  0
 10  3  1  0  0  0  0
 14 20  1  0  0  0  0
 14 19  1  0  0  0  0
 15 14  2  0  0  0  0
 16 15  1  0  0  0  0
 16 17  2  0  0  0  0
 17 18  1  0  0  0  0
 18 19  2  0  0  0  0
 18 22  1  0  0  0  0
 21 15  1  0  0  0  0
 23 26  1  6  0  0  0
 23  4  1  0  0  0  0
 23 24  1  0  0  0  0
 24 27  1  0  0  0  0
 24 28  1  0  0  0  0
 25 29  1  6  0  0  0
 25 23  1  0  0  0  0
 25 24  1  0  0  0  0
 30 25  1  0  0  0  0
 32 31  2  6  0  0  0
 32 35  1  0  0  0  0
 32 30  1  0  0  0  0
 33 32  1  0  0  0  0
 34 33  1  0  0  0  0
 35 36  1  0  0  0  0
 36 37  1  0  0  0  0
 37 39  2  0  0  0  0
 37 38  1  0  0  0  0
 39 40  1  0  0  0  0
 41 39  1  0  0  0  0
 42 41  2  0  0  0  0
 43 42  1  0  0  0  0
 43 36  2  0  0  0  0
M  END
>  <minimizedAffinity>
-5.57465792

>  <minimizedRMSD>
1.23671174

$$$$
