
 OpenBabel03252507553D

 43 46  0  0  1  0  0  0  0  0999 V2000
   47.1050   34.8040   42.1080 C   0  0  2  0  0  0  0  0  0  0  0  0
   46.3380   34.3310   40.8750 C   0  0  0  0  0  0  0  0  0  0  0  0
   47.5430   34.1780   39.9210 C   0  0  0  0  0  0  0  0  0  0  0  0
   48.6570   33.6780   40.7880 C   0  0  1  0  0  0  0  0  0  0  0  0
   48.1380   33.7160   42.1940 C   0  0  0  0  0  0  0  0  0  0  0  0
   47.5880   35.7660   41.8500 H   0  0  0  0  0  0  0  0  0  0  0  0
   45.8580   33.3710   41.0580 H   0  0  0  0  0  0  0  0  0  0  0  0
   45.6560   35.1190   40.4950 H   0  0  0  0  0  0  0  0  0  0  0  0
   47.2870   33.5280   39.0660 H   0  0  0  0  0  0  0  0  0  0  0  0
   47.7700   35.2220   39.6080 H   0  0  0  0  0  0  0  0  0  0  0  0
   49.5660   34.3100   40.6700 H   0  0  0  0  0  0  0  0  0  0  0  0
   48.9670   34.0870   42.8340 H   0  0  0  0  0  0  0  0  0  0  0  0
   47.7280   32.7660   42.5340 H   0  0  0  0  0  0  0  0  0  0  0  0
   44.5340   35.8080   44.6680 C   0  0  0  0  0  0  0  0  0  0  0  0
   45.2650   35.8470   43.4690 C   0  0  0  0  0  0  0  0  0  0  0  0
   46.2350   34.8680   43.3070 C   0  0  0  0  0  0  0  0  0  0  0  0
   46.4560   33.9030   44.2990 N   0  0  0  0  0  0  0  0  0  0  0  0
   45.7130   33.9230   45.4350 C   0  0  0  0  0  0  0  0  0  0  0  0
   44.7620   34.8660   45.6160 N   0  0  0  0  0  0  0  0  0  0  0  0
   43.7670   36.5560   44.8300 H   0  0  0  0  0  0  0  0  0  0  0  0
   45.1040   36.5830   42.7000 H   0  0  0  0  0  0  0  0  0  0  0  0
   45.9790   33.1290   46.1180 H   0  0  0  0  0  0  0  0  0  0  0  0
   49.0780   32.2560   40.5010 C   0  0  2  0  0  0  0  0  0  0  0  0
   49.8890   31.6100   41.5280 C   0  0  0  0  0  0  0  0  0  0  0  0
   50.4650   31.9100   40.1840 C   0  0  1  0  0  0  0  0  0  0  0  0
   48.2870   31.6610   40.0130 H   0  0  0  0  0  0  0  0  0  0  0  0
   49.6590   30.5510   41.7830 H   0  0  0  0  0  0  0  0  0  0  0  0
   50.2960   32.1600   42.3990 H   0  0  0  0  0  0  0  0  0  0  0  0
   51.1670   32.7390   40.0250 H   0  0  0  0  0  0  0  0  0  0  0  0
   50.6760   30.8210   39.3040 O   0  0  0  0  0  0  0  0  0  0  0  0
   51.2380   30.3650   36.7990 O   0  0  0  0  0  0  0  0  0  0  0  0
   51.3250   31.4210   37.8730 P   0  0  1  0  0  0  0  0  0  0  0  0
   50.4160   32.7710   37.3370 O   0  0  0  0  0  0  0  0  0  0  0  0
   50.9800   33.4980   37.0060 H   0  0  0  0  0  0  0  0  0  0  0  0
   52.9060   31.9140   37.9910 O   0  0  0  0  0  0  0  0  0  0  0  0
   53.9190   31.0150   38.2900 C   0  0  0  0  0  0  0  0  0  0  0  0
   54.0740   30.1870   39.3810 C   0  0  0  0  0  0  0  0  0  0  0  0
   53.2740   30.2730   40.0870 H   0  0  0  0  0  0  0  0  0  0  0  0
   55.1830   29.3730   39.4500 C   0  0  0  0  0  0  0  0  0  0  0  0
   55.2580   28.7390   40.3320 H   0  0  0  0  0  0  0  0  0  0  0  0
   56.1390   29.3720   38.4500 C   0  0  0  0  0  3  0  0  0  0  0  0
   55.9500   30.2140   37.3740 C   0  0  0  0  0  3  0  0  0  0  0  0
   54.8510   31.0160   37.3130 N   0  0  0  0  0  0  0  0  0  0  0  0
  1  6  1  6  0  0  0
  1  5  1  0  0  0  0
  1 16  1  0  0  0  0
  2  7  1  0  0  0  0
  2  1  1  0  0  0  0
  3  4  1  0  0  0  0
  3  2  1  0  0  0  0
  4 11  1  6  0  0  0
  4  5  1  0  0  0  0
  5 13  1  0  0  0  0
  5 12  1  0  0  0  0
  8  2  1  0  0  0  0
  9  3  1  0  0  0  0
 10  3  1  0  0  0  0
 14 20  1  0  0  0  0
 14 19  1  0  0  0  0
 15 14  2  0  0  0  0
 16 15  1  0  0  0  0
 16 17  2  0  0  0  0
 17 18  1  0  0  0  0
 18 19  2  0  0  0  0
 18 22  1  0  0  0  0
 21 15  1  0  0  0  0
 23 26  1  6  0  0  0
 23  4  1  0  0  0  0
 23 24  1  0  0  0  0
 24 27  1  0  0  0  0
 24 28  1  0  0  0  0
 25 29  1  6  0  0  0
 25 23  1  0  0  0  0
 25 24  1  0  0  0  0
 30 25  1  0  0  0  0
 32 31  2  6  0  0  0
 32 35  1  0  0  0  0
 32 30  1  0  0  0  0
 33 32  1  0  0  0  0
 34 33  1  0  0  0  0
 35 36  1  0  0  0  0
 36 37  1  0  0  0  0
 37 39  2  0  0  0  0
 37 38  1  0  0  0  0
 39 40  1  0  0  0  0
 41 39  1  0  0  0  0
 42 41  2  0  0  0  0
 43 42  1  0  0  0  0
 43 36  2  0  0  0  0
M  END
>  <minimizedAffinity>
-5.57394314

>  <minimizedRMSD>
1.31879663

$$$$
