
 OpenBabel03252509073D

 40 43  0  0  0  0  0  0  0  0999 V2000
   47.6260   31.8040   38.8910 C   0  0  0  0  0  0  0  0  0  0  0  0
   47.1900   33.0960   38.9260 C   0  0  0  0  0  0  0  0  0  0  0  0
   47.8310   34.0640   38.1710 C   0  0  0  0  0  0  0  0  0  0  0  0
   48.9050   33.7270   37.3830 C   0  0  0  0  0  0  0  0  0  0  0  0
   49.3840   32.4180   37.3170 C   0  0  0  0  0  0  0  0  0  0  0  0
   48.7170   31.4600   38.0920 C   0  0  0  0  0  0  0  0  0  0  0  0
   47.5180   35.0990   38.1690 H   0  0  0  0  0  0  0  0  0  0  0  0
   49.4800   34.3880   36.7570 H   0  0  0  0  0  0  0  0  0  0  0  0
   50.2080   32.0620   36.7370 H   0  0  0  0  0  0  0  0  0  0  0  0
   49.0610   30.4260   38.0680 H   0  0  0  0  0  0  0  0  0  0  0  0
   45.3940   35.3390   43.2140 Cl  0  0  0  0  0  0  0  0  0  0  0  0
   45.2150   34.5760   41.6510 C   0  0  0  0  0  0  0  0  0  0  0  0
   46.2990   34.1700   40.9420 C   0  0  0  0  0  0  0  0  0  0  0  0
   46.0540   33.5610   39.7210 C   0  0  0  0  0  0  0  0  0  0  0  0
   44.7810   33.3780   39.2420 C   0  0  0  0  0  0  0  0  0  0  0  0
   43.7110   33.7910   39.9660 C   0  0  0  0  0  0  0  0  0  0  0  0
   43.9390   34.3940   41.1780 C   0  0  0  0  0  0  0  0  0  0  0  0
   44.6480   32.8940   38.2730 H   0  0  0  0  0  0  0  0  0  0  0  0
   42.7310   33.6240   39.5490 H   0  0  0  0  0  0  0  0  0  0  0  0
   43.0630   34.7160   41.7390 H   0  0  0  0  0  0  0  0  0  0  0  0
   49.5810   35.7590   41.9160 C   0  0  0  0  0  0  0  0  0  0  0  0
   48.3040   35.5700   41.3810 C   0  0  0  0  0  0  0  0  0  0  0  0
   47.6230   34.3770   41.4950 C   0  0  0  0  0  0  0  0  0  0  0  0
   48.3020   33.4110   42.1670 N   0  0  0  0  0  0  0  0  0  0  0  0
   49.5190   33.5770   42.6810 C   0  0  0  0  0  0  0  0  0  0  0  0
   50.1510   34.7470   42.5540 N   0  0  0  0  0  0  0  0  0  0  0  0
   50.0510   36.7200   41.7870 H   0  0  0  0  0  0  0  0  0  0  0  0
   47.8000   36.3710   40.8520 H   0  0  0  0  0  0  0  0  0  0  0  0
   49.8970   32.6900   43.1830 H   0  0  0  0  0  0  0  0  0  0  0  0
   46.8400   30.5950   39.7580 S   0  0  0  0  0  0  0  0  0  0  0  0
   45.4990   30.2440   39.1470 O   0  0  0  0  0  0  0  0  0  0  0  0
   47.6950   29.3080   39.4700 O   0  0  0  0  0  0  0  0  0  0  0  0
   46.5710   30.5850   41.4520 C   0  0  0  0  0  0  0  0  0  0  0  0
   45.2470   30.8700   41.8880 C   0  0  0  0  0  0  0  0  0  0  0  0
   44.4740   31.0800   41.1170 H   0  0  0  0  0  0  0  0  0  0  0  0
   44.7010   30.9410   43.1760 C   0  0  0  0  0  0  0  0  0  0  0  0
   43.6730   31.1690   43.3480 H   0  0  0  0  0  0  0  0  0  0  0  0
   45.6430   30.6860   44.1410 C   0  0  0  0  0  3  0  0  0  0  0  0
   46.9290   30.4060   43.7880 C   0  0  0  0  0  3  0  0  0  0  0  0
   47.3330   30.3670   42.5300 N   0  0  0  0  0  0  0  0  0  0  0  0
  1  2  1  0  0  0  0
  1 30  1  0  0  0  0
  2 14  1  0  0  0  0
  3  2  2  0  0  0  0
  4  3  1  0  0  0  0
  5  4  2  0  0  0  0
  5  6  1  0  0  0  0
  6  1  2  0  0  0  0
  7  3  1  0  0  0  0
  8  4  1  0  0  0  0
  9  5  1  0  0  0  0
 10  6  1  0  0  0  0
 12 11  1  0  0  0  0
 13 23  1  0  0  0  0
 13 12  2  0  0  0  0
 14 13  1  0  0  0  0
 15 14  2  0  0  0  0
 15 16  1  0  0  0  0
 16 17  2  0  0  0  0
 17 12  1  0  0  0  0
 17 20  1  0  0  0  0
 18 15  1  0  0  0  0
 19 16  1  0  0  0  0
 21 26  1  0  0  0  0
 22 23  1  0  0  0  0
 22 21  2  0  0  0  0
 23 24  2  0  0  0  0
 24 25  1  0  0  0  0
 25 29  1  0  0  0  0
 26 25  2  0  0  0  0
 27 21  1  0  0  0  0
 28 22  1  0  0  0  0
 30 33  1  0  0  0  0
 31 30  2  0  0  0  0
 32 30  2  0  0  0  0
 33 34  2  0  0  0  0
 33 40  1  0  0  0  0
 34 36  1  0  0  0  0
 35 34  1  0  0  0  0
 36 37  1  0  0  0  0
 36 38  2  0  0  0  0
 39 38  1  0  0  0  0
 40 39  2  0  0  0  0
M  END
>  <minimizedAffinity>
-4.75612831

>  <minimizedRMSD>
1.08921123

$$$$
