
 OpenBabel03252507563D

 43 46  0  0  1  0  0  0  0  0999 V2000
   38.7800   31.3320   38.4520 C   0  0  2  0  0  0  0  0  0  0  0  0
   37.3630   31.4980   37.9070 C   0  0  0  0  0  0  0  0  0  0  0  0
   37.0940   30.0160   37.5630 C   0  0  0  0  0  0  0  0  0  0  0  0
   37.7770   29.2410   38.6480 C   0  0  1  0  0  0  0  0  0  0  0  0
   38.5360   30.2460   39.4610 C   0  0  0  0  0  0  0  0  0  0  0  0
   39.4110   30.9490   37.6270 H   0  0  0  0  0  0  0  0  0  0  0  0
   36.6850   31.8500   38.6820 H   0  0  0  0  0  0  0  0  0  0  0  0
   37.3540   32.1050   36.9780 H   0  0  0  0  0  0  0  0  0  0  0  0
   36.0110   29.8260   37.4640 H   0  0  0  0  0  0  0  0  0  0  0  0
   37.6420   29.8580   36.6080 H   0  0  0  0  0  0  0  0  0  0  0  0
   38.4530   28.4680   38.2180 H   0  0  0  0  0  0  0  0  0  0  0  0
   39.5180   29.7870   39.7060 H   0  0  0  0  0  0  0  0  0  0  0  0
   37.9960   30.5950   40.3400 H   0  0  0  0  0  0  0  0  0  0  0  0
   40.9350   34.2210   39.5400 C   0  0  0  0  0  0  0  0  0  0  0  0
   40.5830   33.0350   38.8750 C   0  0  0  0  0  0  0  0  0  0  0  0
   39.2840   32.5850   39.0640 C   0  0  0  0  0  0  0  0  0  0  0  0
   38.3900   33.2920   39.8790 N   0  0  0  0  0  0  0  0  0  0  0  0
   38.7960   34.4330   40.4940 C   0  0  0  0  0  0  0  0  0  0  0  0
   40.0560   34.8910   40.3250 N   0  0  0  0  0  0  0  0  0  0  0  0
   41.9410   34.6040   39.4160 H   0  0  0  0  0  0  0  0  0  0  0  0
   41.2610   32.4840   38.2460 H   0  0  0  0  0  0  0  0  0  0  0  0
   38.0160   34.8820   41.0920 H   0  0  0  0  0  0  0  0  0  0  0  0
   36.8360   28.5210   39.5850 C   0  0  2  0  0  0  0  0  0  0  0  0
   35.4710   29.0350   39.6380 C   0  0  0  0  0  0  0  0  0  0  0  0
   36.3660   29.1350   40.8290 C   0  0  1  0  0  0  0  0  0  0  0  0
   36.9810   27.4270   39.5860 H   0  0  0  0  0  0  0  0  0  0  0  0
   34.6380   28.2960   39.6610 H   0  0  0  0  0  0  0  0  0  0  0  0
   35.1690   29.9760   39.1390 H   0  0  0  0  0  0  0  0  0  0  0  0
   36.8290   30.0840   41.1290 H   0  0  0  0  0  0  0  0  0  0  0  0
   36.1040   28.2700   41.9200 O   0  0  0  0  0  0  0  0  0  0  0  0
   38.1150   29.7050   42.7520 O   0  0  0  0  0  0  0  0  0  0  0  0
   37.3600   28.4290   43.0280 P   0  0  1  0  0  0  0  0  0  0  0  0
   36.7300   28.5400   44.6170 O   0  0  0  0  0  0  0  0  0  0  0  0
   37.2420   28.0140   45.2640 H   0  0  0  0  0  0  0  0  0  0  0  0
   38.4430   27.1710   43.0200 O   0  0  0  0  0  0  0  0  0  0  0  0
   38.1660   25.9860   42.3520 C   0  0  0  0  0  0  0  0  0  0  0  0
   37.0130   25.2300   42.3380 C   0  0  0  0  0  0  0  0  0  0  0  0
   36.2320   25.6460   42.9410 H   0  0  0  0  0  0  0  0  0  0  0  0
   36.9820   24.0750   41.5860 C   0  0  0  0  0  0  0  0  0  0  0  0
   36.0490   23.5140   41.6080 H   0  0  0  0  0  0  0  0  0  0  0  0
   38.0800   23.6640   40.8530 C   0  0  0  0  0  3  0  0  0  0  0  0
   39.2150   24.4470   40.8920 C   0  0  0  0  0  3  0  0  0  0  0  0
   39.2380   25.5860   41.6360 N   0  0  0  0  0  0  0  0  0  0  0  0
  1  6  1  6  0  0  0
  1 16  1  0  0  0  0
  1  5  1  0  0  0  0
  2  1  1  0  0  0  0
  2  7  1  0  0  0  0
  3  2  1  0  0  0  0
  3  4  1  0  0  0  0
  4 11  1  6  0  0  0
  4  5  1  0  0  0  0
  4 23  1  0  0  0  0
  5 12  1  0  0  0  0
  5 13  1  0  0  0  0
  8  2  1  0  0  0  0
  9  3  1  0  0  0  0
 10  3  1  0  0  0  0
 14 19  1  0  0  0  0
 15 16  1  0  0  0  0
 15 14  2  0  0  0  0
 16 17  2  0  0  0  0
 17 18  1  0  0  0  0
 18 22  1  0  0  0  0
 19 18  2  0  0  0  0
 20 14  1  0  0  0  0
 21 15  1  0  0  0  0
 23 26  1  1  0  0  0
 23 24  1  0  0  0  0
 23 25  1  0  0  0  0
 24 27  1  0  0  0  0
 24 25  1  0  0  0  0
 25 29  1  1  0  0  0
 25 30  1  0  0  0  0
 28 24  1  0  0  0  0
 30 32  1  0  0  0  0
 32 31  2  6  0  0  0
 32 33  1  0  0  0  0
 33 34  1  0  0  0  0
 35 32  1  0  0  0  0
 36 35  1  0  0  0  0
 37 36  1  0  0  0  0
 37 38  1  0  0  0  0
 39 40  1  0  0  0  0
 39 37  2  0  0  0  0
 41 42  2  0  0  0  0
 41 39  1  0  0  0  0
 42 43  1  0  0  0  0
 43 36  2  0  0  0  0
M  END
>  <minimizedAffinity>
-6.02095413

$$$$

 OpenBabel03252507563D

 43 46  0  0  1  0  0  0  0  0999 V2000
   36.5820   27.0560   40.5590 C   0  0  2  0  0  0  0  0  0  0  0  0
   37.0380   26.5770   39.1820 C   0  0  0  0  0  0  0  0  0  0  0  0
   35.8540   27.1340   38.3620 C   0  0  0  0  0  0  0  0  0  0  0  0
   35.5080   28.4330   39.0210 C   0  0  1  0  0  0  0  0  0  0  0  0
   36.3520   28.5100   40.2560 C   0  0  0  0  0  0  0  0  0  0  0  0
   35.6190   26.5580   40.7810 H   0  0  0  0  0  0  0  0  0  0  0  0
   37.9740   27.0540   38.8930 H   0  0  0  0  0  0  0  0  0  0  0  0
   37.0490   25.4700   39.1210 H   0  0  0  0  0  0  0  0  0  0  0  0
   36.1180   27.2080   37.2920 H   0  0  0  0  0  0  0  0  0  0  0  0
   35.0330   26.4050   38.5470 H   0  0  0  0  0  0  0  0  0  0  0  0
   34.4220   28.4780   39.2630 H   0  0  0  0  0  0  0  0  0  0  0  0
   35.7090   28.9250   41.0620 H   0  0  0  0  0  0  0  0  0  0  0  0
   37.2780   29.0670   40.1190 H   0  0  0  0  0  0  0  0  0  0  0  0
   39.1580   25.5300   42.8410 C   0  0  0  0  0  0  0  0  0  0  0  0
   38.2050   25.5990   41.8120 C   0  0  0  0  0  0  0  0  0  0  0  0
   37.6250   26.8400   41.5900 C   0  0  0  0  0  0  0  0  0  0  0  0
   37.9860   27.9510   42.3650 N   0  0  0  0  0  0  0  0  0  0  0  0
   38.9140   27.8150   43.3460 C   0  0  0  0  0  0  0  0  0  0  0  0
   39.4940   26.6170   43.5800 N   0  0  0  0  0  0  0  0  0  0  0  0
   39.6330   24.5780   43.0430 H   0  0  0  0  0  0  0  0  0  0  0  0
   37.9210   24.7530   41.2090 H   0  0  0  0  0  0  0  0  0  0  0  0
   39.1030   28.7410   43.8700 H   0  0  0  0  0  0  0  0  0  0  0  0
   35.8160   29.6550   38.1870 C   0  0  2  0  0  0  0  0  0  0  0  0
   36.8450   29.4870   37.1650 C   0  0  0  0  0  0  0  0  0  0  0  0
   37.0740   30.3900   38.3320 C   0  0  1  0  0  0  0  0  0  0  0  0
   34.9170   30.2400   37.9290 H   0  0  0  0  0  0  0  0  0  0  0  0
   36.6640   29.9460   36.1660 H   0  0  0  0  0  0  0  0  0  0  0  0
   37.4660   28.5740   37.0890 H   0  0  0  0  0  0  0  0  0  0  0  0
   37.7300   30.1070   39.1640 H   0  0  0  0  0  0  0  0  0  0  0  0
   37.0390   31.7870   38.0960 O   0  0  0  0  0  0  0  0  0  0  0  0
   37.1400   34.0470   39.3910 O   0  0  0  0  0  0  0  0  0  0  0  0
   37.4180   32.5710   39.5350 P   0  0  1  0  0  0  0  0  0  0  0  0
   36.4270   31.9840   40.8030 O   0  0  0  0  0  0  0  0  0  0  0  0
   36.9210   31.8450   41.6350 H   0  0  0  0  0  0  0  0  0  0  0  0
   38.9940   32.3830   40.0220 O   0  0  0  0  0  0  0  0  0  0  0  0
   40.0230   33.0960   39.4220 C   0  0  0  0  0  0  0  0  0  0  0  0
   40.5960   34.2940   39.7880 C   0  0  0  0  0  0  0  0  0  0  0  0
   40.1630   34.7130   40.6720 H   0  0  0  0  0  0  0  0  0  0  0  0
   41.6190   34.8060   39.0180 C   0  0  0  0  0  0  0  0  0  0  0  0
   42.0390   35.7560   39.3500 H   0  0  0  0  0  0  0  0  0  0  0  0
   42.0750   34.1450   37.8940 C   0  0  0  0  0  3  0  0  0  0  0  0
   41.4760   32.9470   37.5600 C   0  0  0  0  0  3  0  0  0  0  0  0
   40.4670   32.4470   38.3240 N   0  0  0  0  0  0  0  0  0  0  0  0
  1  6  1  1  0  0  0
  1 16  1  0  0  0  0
  2  1  1  0  0  0  0
  3 10  1  0  0  0  0
  3  4  1  0  0  0  0
  3  2  1  0  0  0  0
  4 11  1  1  0  0  0
  4  5  1  0  0  0  0
  5  1  1  0  0  0  0
  5 12  1  0  0  0  0
  7  2  1  0  0  0  0
  8  2  1  0  0  0  0
  9  3  1  0  0  0  0
 13  5  1  0  0  0  0
 14 20  1  0  0  0  0
 14 19  1  0  0  0  0
 15 14  2  0  0  0  0
 16 15  1  0  0  0  0
 16 17  2  0  0  0  0
 17 18  1  0  0  0  0
 18 19  2  0  0  0  0
 18 22  1  0  0  0  0
 21 15  1  0  0  0  0
 23 26  1  6  0  0  0
 23 25  1  0  0  0  0
 23  4  1  0  0  0  0
 24 23  1  0  0  0  0
 24 25  1  0  0  0  0
 25 29  1  1  0  0  0
 27 24  1  0  0  0  0
 28 24  1  0  0  0  0
 30 25  1  0  0  0  0
 30 32  1  0  0  0  0
 32 31  2  6  0  0  0
 32 35  1  0  0  0  0
 32 33  1  0  0  0  0
 33 34  1  0  0  0  0
 36 37  1  0  0  0  0
 36 35  1  0  0  0  0
 37 38  1  0  0  0  0
 39 40  1  0  0  0  0
 39 37  2  0  0  0  0
 41 39  1  0  0  0  0
 42 41  2  0  0  0  0
 42 43  1  0  0  0  0
 43 36  2  0  0  0  0
M  END
>  <minimizedAffinity>
-5.84589052

$$$$

 OpenBabel03252507563D

 43 46  0  0  1  0  0  0  0  0999 V2000
   38.2920   27.6670   42.6490 C   0  0  2  0  0  0  0  0  0  0  0  0
   38.1730   26.9770   41.2920 C   0  0  0  0  0  0  0  0  0  0  0  0
   36.6590   27.1910   41.0770 C   0  0  0  0  0  0  0  0  0  0  0  0
   36.3770   28.5420   41.6570 C   0  0  1  0  0  0  0  0  0  0  0  0
   37.6480   28.9830   42.3180 C   0  0  0  0  0  0  0  0  0  0  0  0
   37.6610   27.1050   43.3640 H   0  0  0  0  0  0  0  0  0  0  0  0
   38.7550   27.5000   40.5350 H   0  0  0  0  0  0  0  0  0  0  0  0
   38.3910   25.8910   41.3680 H   0  0  0  0  0  0  0  0  0  0  0  0
   36.3930   27.0750   40.0110 H   0  0  0  0  0  0  0  0  0  0  0  0
   36.1850   26.4160   41.7200 H   0  0  0  0  0  0  0  0  0  0  0  0
   35.5330   28.4950   42.3820 H   0  0  0  0  0  0  0  0  0  0  0  0
   37.3610   29.4690   43.2760 H   0  0  0  0  0  0  0  0  0  0  0  0
   38.2720   29.6160   41.6890 H   0  0  0  0  0  0  0  0  0  0  0  0
   41.8320   28.8610   43.1170 C   0  0  0  0  0  0  0  0  0  0  0  0
   40.5020   28.8690   42.6660 C   0  0  0  0  0  0  0  0  0  0  0  0
   39.7060   27.8080   43.0730 C   0  0  0  0  0  0  0  0  0  0  0  0
   40.2230   26.7930   43.8890 N   0  0  0  0  0  0  0  0  0  0  0  0
   41.5190   26.8460   44.2890 C   0  0  0  0  0  0  0  0  0  0  0  0
   42.3140   27.8700   43.9070 N   0  0  0  0  0  0  0  0  0  0  0  0
   42.4830   29.6740   42.8200 H   0  0  0  0  0  0  0  0  0  0  0  0
   40.0930   29.6440   42.0390 H   0  0  0  0  0  0  0  0  0  0  0  0
   41.7960   26.0070   44.9130 H   0  0  0  0  0  0  0  0  0  0  0  0
   36.0120   29.5940   40.6360 C   0  0  2  0  0  0  0  0  0  0  0  0
   34.9380   29.2410   39.7130 C   0  0  0  0  0  0  0  0  0  0  0  0
   36.3320   29.4350   39.2160 C   0  0  1  0  0  0  0  0  0  0  0  0
   36.0300   30.6180   41.0450 H   0  0  0  0  0  0  0  0  0  0  0  0
   34.1770   30.0200   39.4780 H   0  0  0  0  0  0  0  0  0  0  0  0
   34.5080   28.2220   39.6600 H   0  0  0  0  0  0  0  0  0  0  0  0
   36.9710   28.5880   38.9350 H   0  0  0  0  0  0  0  0  0  0  0  0
   36.6070   30.6130   38.4780 O   0  0  0  0  0  0  0  0  0  0  0  0
   39.0080   29.5990   38.4160 O   0  0  0  0  0  0  0  0  0  0  0  0
   38.2620   30.9030   38.5520 P   0  0  1  0  0  0  0  0  0  0  0  0
   38.7410   31.9050   37.2470 O   0  0  0  0  0  0  0  0  0  0  0  0
   39.3790   32.5960   37.5150 H   0  0  0  0  0  0  0  0  0  0  0  0
   38.7650   31.6480   39.9470 O   0  0  0  0  0  0  0  0  0  0  0  0
   39.2890   32.9330   39.9290 C   0  0  0  0  0  0  0  0  0  0  0  0
   38.7600   34.1090   40.4160 C   0  0  0  0  0  0  0  0  0  0  0  0
   37.8010   33.9790   40.8740 H   0  0  0  0  0  0  0  0  0  0  0  0
   39.4820   35.2750   40.2750 C   0  0  0  0  0  0  0  0  0  0  0  0
   39.0210   36.1760   40.6770 H   0  0  0  0  0  0  0  0  0  0  0  0
   40.7180   35.2850   39.6560 C   0  0  0  0  0  3  0  0  0  0  0  0
   41.2140   34.0890   39.1800 C   0  0  0  0  0  3  0  0  0  0  0  0
   40.4960   32.9420   39.3240 N   0  0  0  0  0  0  0  0  0  0  0  0
  1 16  1  0  0  0  0
  1  6  1  1  0  0  0
  2  8  1  0  0  0  0
  2  1  1  0  0  0  0
  3  2  1  0  0  0  0
  3  4  1  0  0  0  0
  3 10  1  0  0  0  0
  4  5  1  0  0  0  0
  4 11  1  1  0  0  0
  5  1  1  0  0  0  0
  5 12  1  0  0  0  0
  7  2  1  0  0  0  0
  9  3  1  0  0  0  0
 13  5  1  0  0  0  0
 14 19  1  0  0  0  0
 15 16  1  0  0  0  0
 15 14  2  0  0  0  0
 16 17  2  0  0  0  0
 17 18  1  0  0  0  0
 18 22  1  0  0  0  0
 19 18  2  0  0  0  0
 20 14  1  0  0  0  0
 21 15  1  0  0  0  0
 23 26  1  1  0  0  0
 23  4  1  0  0  0  0
 24 23  1  0  0  0  0
 25 29  1  6  0  0  0
 25 24  1  0  0  0  0
 25 23  1  0  0  0  0
 27 24  1  0  0  0  0
 28 24  1  0  0  0  0
 30 32  1  0  0  0  0
 30 25  1  0  0  0  0
 32 31  2  6  0  0  0
 32 35  1  0  0  0  0
 33 34  1  0  0  0  0
 33 32  1  0  0  0  0
 36 35  1  0  0  0  0
 36 37  1  0  0  0  0
 37 38  1  0  0  0  0
 39 37  2  0  0  0  0
 39 40  1  0  0  0  0
 41 39  1  0  0  0  0
 42 43  1  0  0  0  0
 42 41  2  0  0  0  0
 43 36  2  0  0  0  0
M  END
>  <minimizedAffinity>
-5.80972147

$$$$

 OpenBabel03252507563D

 43 46  0  0  1  0  0  0  0  0999 V2000
   36.8110   28.2060   42.1630 C   0  0  2  0  0  0  0  0  0  0  0  0
   36.3410   27.8800   40.7470 C   0  0  0  0  0  0  0  0  0  0  0  0
   35.4730   29.1360   40.5170 C   0  0  0  0  0  0  0  0  0  0  0  0
   36.2080   30.2420   41.2100 C   0  0  1  0  0  0  0  0  0  0  0  0
   37.3460   29.5920   41.9380 C   0  0  0  0  0  0  0  0  0  0  0  0
   35.9140   28.2460   42.8090 H   0  0  0  0  0  0  0  0  0  0  0  0
   37.1810   27.8510   40.0540 H   0  0  0  0  0  0  0  0  0  0  0  0
   35.7010   26.9740   40.7300 H   0  0  0  0  0  0  0  0  0  0  0  0
   35.2930   29.2980   39.4390 H   0  0  0  0  0  0  0  0  0  0  0  0
   34.5360   28.9200   41.0770 H   0  0  0  0  0  0  0  0  0  0  0  0
   35.5350   30.7900   41.9080 H   0  0  0  0  0  0  0  0  0  0  0  0
   37.4220   30.0900   42.9280 H   0  0  0  0  0  0  0  0  0  0  0  0
   38.2830   29.6010   41.3820 H   0  0  0  0  0  0  0  0  0  0  0  0
   39.7730   26.6300   43.8710 C   0  0  0  0  0  0  0  0  0  0  0  0
   38.8340   27.6200   43.5390 C   0  0  0  0  0  0  0  0  0  0  0  0
   37.8490   27.2570   42.6310 C   0  0  0  0  0  0  0  0  0  0  0  0
   37.8150   25.9660   42.0860 N   0  0  0  0  0  0  0  0  0  0  0  0
   38.7540   25.0560   42.4500 C   0  0  0  0  0  0  0  0  0  0  0  0
   39.7220   25.3860   43.3340 N   0  0  0  0  0  0  0  0  0  0  0  0
   40.5560   26.8760   44.5780 H   0  0  0  0  0  0  0  0  0  0  0  0
   38.8500   28.6150   43.9510 H   0  0  0  0  0  0  0  0  0  0  0  0
   38.6190   24.1010   41.9620 H   0  0  0  0  0  0  0  0  0  0  0  0
   36.7990   31.2750   40.2790 C   0  0  2  0  0  0  0  0  0  0  0  0
   36.5820   31.0480   38.8540 C   0  0  0  0  0  0  0  0  0  0  0  0
   37.9570   30.9780   39.4320 C   0  0  1  0  0  0  0  0  0  0  0  0
   36.7060   32.3050   40.6620 H   0  0  0  0  0  0  0  0  0  0  0  0
   36.3160   31.9260   38.2230 H   0  0  0  0  0  0  0  0  0  0  0  0
   36.1390   30.1130   38.4600 H   0  0  0  0  0  0  0  0  0  0  0  0
   38.4690   30.0220   39.5960 H   0  0  0  0  0  0  0  0  0  0  0  0
   38.8420   32.0470   39.1480 O   0  0  0  0  0  0  0  0  0  0  0  0
   39.7650   30.0540   37.7430 O   0  0  0  0  0  0  0  0  0  0  0  0
   40.1070   31.4450   38.2160 P   0  0  1  0  0  0  0  0  0  0  0  0
   40.3260   32.4200   36.8240 O   0  0  0  0  0  0  0  0  0  0  0  0
   41.2680   32.5880   36.6250 H   0  0  0  0  0  0  0  0  0  0  0  0
   41.5670   31.3840   39.0020 O   0  0  0  0  0  0  0  0  0  0  0  0
   41.6390   31.1850   40.3740 C   0  0  0  0  0  0  0  0  0  0  0  0
   41.0580   30.2100   41.1560 C   0  0  0  0  0  0  0  0  0  0  0  0
   40.4720   29.5140   40.5920 H   0  0  0  0  0  0  0  0  0  0  0  0
   41.2810   30.2250   42.5160 C   0  0  0  0  0  0  0  0  0  0  0  0
   40.8000   29.4330   43.0890 H   0  0  0  0  0  0  0  0  0  0  0  0
   42.0690   31.1960   43.1060 C   0  0  0  0  0  3  0  0  0  0  0  0
   42.6330   32.1560   42.2900 C   0  0  0  0  0  3  0  0  0  0  0  0
   42.4100   32.1340   40.9480 N   0  0  0  0  0  0  0  0  0  0  0  0
  1 16  1  0  0  0  0
  1  6  1  1  0  0  0
  2  1  1  0  0  0  0
  3  2  1  0  0  0  0
  3 10  1  0  0  0  0
  3  4  1  0  0  0  0
  4 11  1  1  0  0  0
  4  5  1  0  0  0  0
  5  1  1  0  0  0  0
  5 12  1  0  0  0  0
  7  2  1  0  0  0  0
  8  2  1  0  0  0  0
  9  3  1  0  0  0  0
 13  5  1  0  0  0  0
 14 20  1  0  0  0  0
 15 14  1  0  0  0  0
 15 21  1  0  0  0  0
 16 15  2  0  0  0  0
 17 18  2  0  0  0  0
 17 16  1  0  0  0  0
 18 19  1  0  0  0  0
 19 14  2  0  0  0  0
 22 18  1  0  0  0  0
 23 26  1  1  0  0  0
 23  4  1  0  0  0  0
 24 25  1  0  0  0  0
 24 23  1  0  0  0  0
 25 29  1  1  0  0  0
 25 23  1  0  0  0  0
 27 24  1  0  0  0  0
 28 24  1  0  0  0  0
 30 25  1  0  0  0  0
 32 31  2  6  0  0  0
 32 35  1  0  0  0  0
 32 30  1  0  0  0  0
 33 32  1  0  0  0  0
 34 33  1  0  0  0  0
 35 36  1  0  0  0  0
 36 43  2  0  0  0  0
 36 37  1  0  0  0  0
 37 39  2  0  0  0  0
 38 37  1  0  0  0  0
 39 40  1  0  0  0  0
 39 41  1  0  0  0  0
 42 41  2  0  0  0  0
 43 42  1  0  0  0  0
M  END
>  <minimizedAffinity>
-5.78948689

$$$$

 OpenBabel03252507563D

 43 46  0  0  1  0  0  0  0  0999 V2000
   39.0350   26.8910   43.5010 C   0  0  2  0  0  0  0  0  0  0  0  0
   38.7180   25.7250   42.5660 C   0  0  0  0  0  0  0  0  0  0  0  0
   37.1840   25.8970   42.5250 C   0  0  0  0  0  0  0  0  0  0  0  0
   36.9640   27.3780   42.5570 C   0  0  1  0  0  0  0  0  0  0  0  0
   38.3120   27.9940   42.7810 C   0  0  0  0  0  0  0  0  0  0  0  0
   38.5410   26.6830   44.4690 H   0  0  0  0  0  0  0  0  0  0  0  0
   39.1580   25.8830   41.5820 H   0  0  0  0  0  0  0  0  0  0  0  0
   38.9740   24.7510   43.0320 H   0  0  0  0  0  0  0  0  0  0  0  0
   36.7540   25.3800   41.6490 H   0  0  0  0  0  0  0  0  0  0  0  0
   36.8390   25.4600   43.4880 H   0  0  0  0  0  0  0  0  0  0  0  0
   36.2480   27.6550   43.3640 H   0  0  0  0  0  0  0  0  0  0  0  0
   38.1700   28.8300   43.4990 H   0  0  0  0  0  0  0  0  0  0  0  0
   38.8100   28.3000   41.8620 H   0  0  0  0  0  0  0  0  0  0  0  0
   42.7140   26.5750   44.2310 C   0  0  0  0  0  0  0  0  0  0  0  0
   41.3610   26.2040   44.1660 C   0  0  0  0  0  0  0  0  0  0  0  0
   40.4940   27.1310   43.6060 C   0  0  0  0  0  0  0  0  0  0  0  0
   40.9660   28.3650   43.1370 N   0  0  0  0  0  0  0  0  0  0  0  0
   42.2870   28.6600   43.2310 C   0  0  0  0  0  0  0  0  0  0  0  0
   43.1520   27.7730   43.7720 N   0  0  0  0  0  0  0  0  0  0  0  0
   43.4220   25.8760   44.6610 H   0  0  0  0  0  0  0  0  0  0  0  0
   40.9870   25.2590   44.5230 H   0  0  0  0  0  0  0  0  0  0  0  0
   42.5230   29.6380   42.8360 H   0  0  0  0  0  0  0  0  0  0  0  0
   36.4120   27.9530   41.2740 C   0  0  2  0  0  0  0  0  0  0  0  0
   36.6710   27.1790   40.0640 C   0  0  0  0  0  0  0  0  0  0  0  0
   37.2850   28.5280   40.2480 C   0  0  1  0  0  0  0  0  0  0  0  0
   35.4140   28.4070   41.3970 H   0  0  0  0  0  0  0  0  0  0  0  0
   35.8410   27.0690   39.3300 H   0  0  0  0  0  0  0  0  0  0  0  0
   37.3470   26.3020   40.0510 H   0  0  0  0  0  0  0  0  0  0  0  0
   38.3450   28.6530   40.5010 H   0  0  0  0  0  0  0  0  0  0  0  0
   36.7630   29.5950   39.4770 O   0  0  0  0  0  0  0  0  0  0  0  0
   36.8660   32.2000   39.4530 O   0  0  0  0  0  0  0  0  0  0  0  0
   36.9020   31.0090   40.3780 P   0  0  1  0  0  0  0  0  0  0  0  0
   35.5750   31.1540   41.4510 O   0  0  0  0  0  0  0  0  0  0  0  0
   35.8400   31.4640   42.3400 H   0  0  0  0  0  0  0  0  0  0  0  0
   38.2820   31.1030   41.2940 O   0  0  0  0  0  0  0  0  0  0  0  0
   39.5190   31.3430   40.7110 C   0  0  0  0  0  0  0  0  0  0  0  0
   40.3550   30.4850   40.0300 C   0  0  0  0  0  0  0  0  0  0  0  0
   39.9640   29.4910   39.9550 H   0  0  0  0  0  0  0  0  0  0  0  0
   41.5490   30.9670   39.5370 C   0  0  0  0  0  0  0  0  0  0  0  0
   42.1730   30.2490   39.0070 H   0  0  0  0  0  0  0  0  0  0  0  0
   41.9200   32.2870   39.7150 C   0  0  0  0  0  3  0  0  0  0  0  0
   41.0570   33.1150   40.4020 C   0  0  0  0  0  3  0  0  0  0  0  0
   39.8800   32.6330   40.8850 N   0  0  0  0  0  0  0  0  0  0  0  0
  1 16  1  0  0  0  0
  1  6  1  1  0  0  0
  2  8  1  0  0  0  0
  2  1  1  0  0  0  0
  3  4  1  0  0  0  0
  3  2  1  0  0  0  0
  3 10  1  0  0  0  0
  4  5  1  0  0  0  0
  4 11  1  1  0  0  0
  5 12  1  0  0  0  0
  5  1  1  0  0  0  0
  7  2  1  0  0  0  0
  9  3  1  0  0  0  0
 13  5  1  0  0  0  0
 14 20  1  0  0  0  0
 15 14  1  0  0  0  0
 15 21  1  0  0  0  0
 16 15  2  0  0  0  0
 17 18  2  0  0  0  0
 17 16  1  0  0  0  0
 18 19  1  0  0  0  0
 19 14  2  0  0  0  0
 22 18  1  0  0  0  0
 23 26  1  1  0  0  0
 23  4  1  0  0  0  0
 24 25  1  0  0  0  0
 24 23  1  0  0  0  0
 25 29  1  1  0  0  0
 25 23  1  0  0  0  0
 27 24  1  0  0  0  0
 28 24  1  0  0  0  0
 30 25  1  0  0  0  0
 30 32  1  0  0  0  0
 32 31  2  6  0  0  0
 32 35  1  0  0  0  0
 32 33  1  0  0  0  0
 33 34  1  0  0  0  0
 36 43  1  0  0  0  0
 36 35  1  0  0  0  0
 37 36  2  0  0  0  0
 38 37  1  0  0  0  0
 39 41  2  0  0  0  0
 39 37  1  0  0  0  0
 40 39  1  0  0  0  0
 41 42  1  0  0  0  0
 42 43  2  0  0  0  0
M  END
>  <minimizedAffinity>
-5.77145624

$$$$

 OpenBabel03252507563D

 43 46  0  0  1  0  0  0  0  0999 V2000
   35.4360   29.2850   38.7050 C   0  0  2  0  0  0  0  0  0  0  0  0
   36.7330   29.8520   38.1300 C   0  0  0  0  0  0  0  0  0  0  0  0
   36.7760   31.1580   38.9520 C   0  0  0  0  0  0  0  0  0  0  0  0
   36.2350   30.7830   40.2970 C   0  0  1  0  0  0  0  0  0  0  0  0
   35.7530   29.3690   40.1710 C   0  0  0  0  0  0  0  0  0  0  0  0
   34.6240   29.9930   38.4510 H   0  0  0  0  0  0  0  0  0  0  0  0
   37.5790   29.2090   38.3690 H   0  0  0  0  0  0  0  0  0  0  0  0
   36.6280   30.0910   37.0520 H   0  0  0  0  0  0  0  0  0  0  0  0
   37.7950   31.5840   38.9600 H   0  0  0  0  0  0  0  0  0  0  0  0
   36.0430   31.8210   38.4410 H   0  0  0  0  0  0  0  0  0  0  0  0
   35.4130   31.4710   40.6010 H   0  0  0  0  0  0  0  0  0  0  0  0
   34.7940   29.3050   40.7280 H   0  0  0  0  0  0  0  0  0  0  0  0
   36.4830   28.6280   40.4910 H   0  0  0  0  0  0  0  0  0  0  0  0
   35.7210   25.5960   38.0150 C   0  0  0  0  0  0  0  0  0  0  0  0
   36.0590   26.8540   38.5380 C   0  0  0  0  0  0  0  0  0  0  0  0
   35.1910   27.8970   38.2470 C   0  0  0  0  0  0  0  0  0  0  0  0
   34.0450   27.6820   37.4690 N   0  0  0  0  0  0  0  0  0  0  0  0
   33.7770   26.4390   36.9930 C   0  0  0  0  0  0  0  0  0  0  0  0
   34.6070   25.4080   37.2640 N   0  0  0  0  0  0  0  0  0  0  0  0
   36.3740   24.7570   38.2220 H   0  0  0  0  0  0  0  0  0  0  0  0
   36.9360   27.0310   39.1370 H   0  0  0  0  0  0  0  0  0  0  0  0
   32.8690   26.4050   36.4090 H   0  0  0  0  0  0  0  0  0  0  0  0
   37.2570   30.8130   41.4090 C   0  0  2  0  0  0  0  0  0  0  0  0
   38.6350   31.0680   41.0030 C   0  0  0  0  0  0  0  0  0  0  0  0
   38.2460   29.7460   41.5780 C   0  0  1  0  0  0  0  0  0  0  0  0
   36.8860   31.3050   42.3250 H   0  0  0  0  0  0  0  0  0  0  0  0
   39.2420   31.7620   41.6290 H   0  0  0  0  0  0  0  0  0  0  0  0
   38.9480   31.0970   39.9410 H   0  0  0  0  0  0  0  0  0  0  0  0
   38.1340   28.8520   40.9530 H   0  0  0  0  0  0  0  0  0  0  0  0
   38.6680   29.4570   42.8990 O   0  0  0  0  0  0  0  0  0  0  0  0
   38.7440   27.1540   44.1190 O   0  0  0  0  0  0  0  0  0  0  0  0
   37.8030   28.1210   43.4450 P   0  0  1  0  0  0  0  0  0  0  0  0
   36.6460   28.6070   44.6110 O   0  0  0  0  0  0  0  0  0  0  0  0
   35.7830   28.1630   44.4940 H   0  0  0  0  0  0  0  0  0  0  0  0
   36.9820   27.3050   42.2550 O   0  0  0  0  0  0  0  0  0  0  0  0
   37.4240   26.0740   41.7900 C   0  0  0  0  0  0  0  0  0  0  0  0
   36.9290   24.8100   42.0300 C   0  0  0  0  0  0  0  0  0  0  0  0
   36.0740   24.8110   42.6740 H   0  0  0  0  0  0  0  0  0  0  0  0
   37.5510   23.7280   41.4460 C   0  0  0  0  0  0  0  0  0  0  0  0
   37.1210   22.7520   41.6660 H   0  0  0  0  0  0  0  0  0  0  0  0
   38.6560   23.8860   40.6310 C   0  0  0  0  0  3  0  0  0  0  0  0
   39.1230   25.1670   40.4140 C   0  0  0  0  0  3  0  0  0  0  0  0
   38.5030   26.2310   40.9930 N   0  0  0  0  0  0  0  0  0  0  0  0
  1  6  1  6  0  0  0
  1  5  1  0  0  0  0
  2  7  1  0  0  0  0
  2  1  1  0  0  0  0
  2  3  1  0  0  0  0
  3  9  1  0  0  0  0
  3  4  1  0  0  0  0
  4 11  1  1  0  0  0
  4 23  1  0  0  0  0
  5  4  1  0  0  0  0
  5 13  1  0  0  0  0
  5 12  1  0  0  0  0
  8  2  1  0  0  0  0
 10  3  1  0  0  0  0
 14 20  1  0  0  0  0
 14 15  1  0  0  0  0
 15 21  1  0  0  0  0
 16 15  2  0  0  0  0
 16  1  1  0  0  0  0
 17 16  1  0  0  0  0
 18 19  1  0  0  0  0
 18 17  2  0  0  0  0
 19 14  2  0  0  0  0
 22 18  1  0  0  0  0
 23 25  1  0  0  0  0
 23 26  1  1  0  0  0
 24 23  1  0  0  0  0
 24 25  1  0  0  0  0
 24 27  1  0  0  0  0
 25 29  1  6  0  0  0
 25 30  1  0  0  0  0
 28 24  1  0  0  0  0
 30 32  1  0  0  0  0
 32 31  2  1  0  0  0
 32 33  1  0  0  0  0
 34 33  1  0  0  0  0
 35 32  1  0  0  0  0
 36 37  1  0  0  0  0
 36 35  1  0  0  0  0
 37 38  1  0  0  0  0
 39 40  1  0  0  0  0
 39 37  2  0  0  0  0
 41 39  1  0  0  0  0
 42 41  2  0  0  0  0
 42 43  1  0  0  0  0
 43 36  2  0  0  0  0
M  END
>  <minimizedAffinity>
-5.76667452

$$$$

 OpenBabel03252507563D

 43 46  0  0  1  0  0  0  0  0999 V2000
   38.9000   31.6790   38.5340 C   0  0  2  0  0  0  0  0  0  0  0  0
   37.5980   31.8910   37.7640 C   0  0  0  0  0  0  0  0  0  0  0  0
   37.3950   30.4360   37.2870 C   0  0  0  0  0  0  0  0  0  0  0  0
   37.8820   29.5890   38.4210 C   0  0  1  0  0  0  0  0  0  0  0  0
   38.4880   30.5330   39.4150 C   0  0  0  0  0  0  0  0  0  0  0  0
   39.6640   31.3420   37.8070 H   0  0  0  0  0  0  0  0  0  0  0  0
   36.7950   32.2000   38.4320 H   0  0  0  0  0  0  0  0  0  0  0  0
   37.7480   32.5550   36.8890 H   0  0  0  0  0  0  0  0  0  0  0  0
   36.3450   30.2630   36.9910 H   0  0  0  0  0  0  0  0  0  0  0  0
   38.0990   30.3340   36.4320 H   0  0  0  0  0  0  0  0  0  0  0  0
   38.6230   28.8370   38.0660 H   0  0  0  0  0  0  0  0  0  0  0  0
   39.4130   30.0510   39.7960 H   0  0  0  0  0  0  0  0  0  0  0  0
   37.8040   30.8320   40.2080 H   0  0  0  0  0  0  0  0  0  0  0  0
   38.8660   34.7850   40.6600 C   0  0  0  0  0  0  0  0  0  0  0  0
   38.3650   33.6500   40.0020 C   0  0  0  0  0  0  0  0  0  0  0  0
   39.2880   32.8860   39.3020 C   0  0  0  0  0  0  0  0  0  0  0  0
   40.6420   33.2470   39.2670 N   0  0  0  0  0  0  0  0  0  0  0  0
   41.0590   34.3590   39.9250 C   0  0  0  0  0  0  0  0  0  0  0  0
   40.1790   35.1190   40.6140 N   0  0  0  0  0  0  0  0  0  0  0  0
   38.1750   35.4060   41.2180 H   0  0  0  0  0  0  0  0  0  0  0  0
   37.3280   33.3620   40.0220 H   0  0  0  0  0  0  0  0  0  0  0  0
   42.1210   34.5280   39.8210 H   0  0  0  0  0  0  0  0  0  0  0  0
   36.7950   28.8200   39.1350 C   0  0  2  0  0  0  0  0  0  0  0  0
   35.4380   29.3340   38.9740 C   0  0  0  0  0  0  0  0  0  0  0  0
   36.1070   29.3640   40.3080 C   0  0  1  0  0  0  0  0  0  0  0  0
   36.9440   27.7270   39.1010 H   0  0  0  0  0  0  0  0  0  0  0  0
   34.6200   28.5970   38.8070 H   0  0  0  0  0  0  0  0  0  0  0  0
   35.2220   30.3020   38.4820 H   0  0  0  0  0  0  0  0  0  0  0  0
   36.5020   30.2930   40.7380 H   0  0  0  0  0  0  0  0  0  0  0  0
   35.6620   28.4400   41.2850 O   0  0  0  0  0  0  0  0  0  0  0  0
   37.5520   29.5690   42.6820 O   0  0  0  0  0  0  0  0  0  0  0  0
   36.8920   28.2390   42.4150 P   0  0  1  0  0  0  0  0  0  0  0  0
   36.2420   27.6820   43.8990 O   0  0  0  0  0  0  0  0  0  0  0  0
   36.7860   26.9820   44.3100 H   0  0  0  0  0  0  0  0  0  0  0  0
   38.0670   27.1570   41.9610 O   0  0  0  0  0  0  0  0  0  0  0  0
   39.3200   27.1630   42.5590 C   0  0  0  0  0  0  0  0  0  0  0  0
   39.7080   26.7040   43.8000 C   0  0  0  0  0  0  0  0  0  0  0  0
   38.9000   26.2850   44.3630 H   0  0  0  0  0  0  0  0  0  0  0  0
   41.0300   26.8240   44.1720 C   0  0  0  0  0  0  0  0  0  0  0  0
   41.2850   26.4460   45.1610 H   0  0  0  0  0  0  0  0  0  0  0  0
   41.9660   27.3930   43.3290 C   0  0  0  0  0  3  0  0  0  0  0  0
   41.5400   27.8400   42.0950 C   0  0  0  0  0  3  0  0  0  0  0  0
   40.2330   27.7180   41.7340 N   0  0  0  0  0  0  0  0  0  0  0  0
  1  6  1  6  0  0  0
  1 16  1  0  0  0  0
  1  5  1  0  0  0  0
  2  7  1  0  0  0  0
  2  1  1  0  0  0  0
  3  2  1  0  0  0  0
  3  4  1  0  0  0  0
  4 11  1  6  0  0  0
  4 23  1  0  0  0  0
  4  5  1  0  0  0  0
  5 12  1  0  0  0  0
  5 13  1  0  0  0  0
  8  2  1  0  0  0  0
  9  3  1  0  0  0  0
 10  3  1  0  0  0  0
 14 20  1  0  0  0  0
 15 21  1  0  0  0  0
 15 14  2  0  0  0  0
 16 15  1  0  0  0  0
 17 16  2  0  0  0  0
 17 18  1  0  0  0  0
 18 19  2  0  0  0  0
 19 14  1  0  0  0  0
 22 18  1  0  0  0  0
 23 26  1  6  0  0  0
 23 25  1  0  0  0  0
 24 23  1  0  0  0  0
 24 25  1  0  0  0  0
 25 29  1  1  0  0  0
 25 30  1  0  0  0  0
 27 24  1  0  0  0  0
 28 24  1  0  0  0  0
 30 32  1  0  0  0  0
 32 31  2  1  0  0  0
 32 33  1  0  0  0  0
 33 34  1  0  0  0  0
 35 32  1  0  0  0  0
 35 36  1  0  0  0  0
 36 37  1  0  0  0  0
 37 39  2  0  0  0  0
 37 38  1  0  0  0  0
 39 40  1  0  0  0  0
 41 39  1  0  0  0  0
 42 41  2  0  0  0  0
 43 42  1  0  0  0  0
 43 36  2  0  0  0  0
M  END
>  <minimizedAffinity>
-5.73227406

$$$$

 OpenBabel03252507563D

 43 46  0  0  1  0  0  0  0  0999 V2000
   36.5500   27.2140   40.3570 C   0  0  2  0  0  0  0  0  0  0  0  0
   37.4140   26.8600   39.1480 C   0  0  0  0  0  0  0  0  0  0  0  0
   36.3670   27.1460   38.0490 C   0  0  0  0  0  0  0  0  0  0  0  0
   35.6000   28.3310   38.5490 C   0  0  1  0  0  0  0  0  0  0  0  0
   36.0890   28.5830   39.9430 C   0  0  0  0  0  0  0  0  0  0  0  0
   35.6930   26.5130   40.3690 H   0  0  0  0  0  0  0  0  0  0  0  0
   38.2650   27.5340   39.0650 H   0  0  0  0  0  0  0  0  0  0  0  0
   37.6790   25.7830   39.1410 H   0  0  0  0  0  0  0  0  0  0  0  0
   36.8560   27.2860   37.0680 H   0  0  0  0  0  0  0  0  0  0  0  0
   35.7040   26.2530   38.0700 H   0  0  0  0  0  0  0  0  0  0  0  0
   34.5050   28.1330   38.5280 H   0  0  0  0  0  0  0  0  0  0  0  0
   35.1970   28.8380   40.5560 H   0  0  0  0  0  0  0  0  0  0  0  0
   36.8760   29.3330   40.0020 H   0  0  0  0  0  0  0  0  0  0  0  0
   37.6870   27.6770   43.9150 C   0  0  0  0  0  0  0  0  0  0  0  0
   36.8200   27.6950   42.8110 C   0  0  0  0  0  0  0  0  0  0  0  0
   37.3380   27.2260   41.6120 C   0  0  0  0  0  0  0  0  0  0  0  0
   38.6600   26.7660   41.5310 N   0  0  0  0  0  0  0  0  0  0  0  0
   39.4460   26.7780   42.6380 C   0  0  0  0  0  0  0  0  0  0  0  0
   38.9630   27.2290   43.8170 N   0  0  0  0  0  0  0  0  0  0  0  0
   37.3180   28.0350   44.8690 H   0  0  0  0  0  0  0  0  0  0  0  0
   35.8030   28.0450   42.8610 H   0  0  0  0  0  0  0  0  0  0  0  0
   40.4390   26.4000   42.4450 H   0  0  0  0  0  0  0  0  0  0  0  0
   35.8250   29.5980   37.7570 C   0  0  2  0  0  0  0  0  0  0  0  0
   36.0460   29.4240   36.3250 C   0  0  0  0  0  0  0  0  0  0  0  0
   37.1380   29.9390   37.2040 C   0  0  1  0  0  0  0  0  0  0  0  0
   35.1850   30.4330   38.0860 H   0  0  0  0  0  0  0  0  0  0  0  0
   35.5430   30.1350   35.6310 H   0  0  0  0  0  0  0  0  0  0  0  0
   36.1850   28.4290   35.8590 H   0  0  0  0  0  0  0  0  0  0  0  0
   37.9880   29.3120   37.5000 H   0  0  0  0  0  0  0  0  0  0  0  0
   37.4620   31.3150   37.1070 O   0  0  0  0  0  0  0  0  0  0  0  0
   39.6280   30.2100   38.0480 O   0  0  0  0  0  0  0  0  0  0  0  0
   38.9720   31.5470   37.8100 P   0  0  1  0  0  0  0  0  0  0  0  0
   39.9850   32.4310   36.7480 O   0  0  0  0  0  0  0  0  0  0  0  0
   40.5100   33.1160   37.2080 H   0  0  0  0  0  0  0  0  0  0  0  0
   38.9370   32.3740   39.2490 O   0  0  0  0  0  0  0  0  0  0  0  0
   39.3970   31.7940   40.4230 C   0  0  0  0  0  0  0  0  0  0  0  0
   38.7430   30.9730   41.3180 C   0  0  0  0  0  0  0  0  0  0  0  0
   37.7310   30.7700   41.0360 H   0  0  0  0  0  0  0  0  0  0  0  0
   39.4240   30.5190   42.4270 C   0  0  0  0  0  0  0  0  0  0  0  0
   38.8630   29.8740   43.1020 H   0  0  0  0  0  0  0  0  0  0  0  0
   40.7410   30.8710   42.6570 C   0  0  0  0  0  3  0  0  0  0  0  0
   41.3610   31.6940   41.7400 C   0  0  0  0  0  3  0  0  0  0  0  0
   40.6840   32.1380   40.6470 N   0  0  0  0  0  0  0  0  0  0  0  0
  1  6  1  1  0  0  0
  1 16  1  0  0  0  0
  2  1  1  0  0  0  0
  3 10  1  0  0  0  0
  3  4  1  0  0  0  0
  3  2  1  0  0  0  0
  4 11  1  1  0  0  0
  4  5  1  0  0  0  0
  5 13  1  0  0  0  0
  5  1  1  0  0  0  0
  5 12  1  0  0  0  0
  7  2  1  0  0  0  0
  8  2  1  0  0  0  0
  9  3  1  0  0  0  0
 14 20  1  0  0  0  0
 15 21  1  0  0  0  0
 15 14  2  0  0  0  0
 16 15  1  0  0  0  0
 17 16  2  0  0  0  0
 17 18  1  0  0  0  0
 18 19  2  0  0  0  0
 19 14  1  0  0  0  0
 22 18  1  0  0  0  0
 23 26  1  1  0  0  0
 23  4  1  0  0  0  0
 24 25  1  0  0  0  0
 24 23  1  0  0  0  0
 25 29  1  1  0  0  0
 25 23  1  0  0  0  0
 27 24  1  0  0  0  0
 28 24  1  0  0  0  0
 30 25  1  0  0  0  0
 30 32  1  0  0  0  0
 32 31  2  1  0  0  0
 32 35  1  0  0  0  0
 33 34  1  0  0  0  0
 33 32  1  0  0  0  0
 35 36  1  0  0  0  0
 36 43  2  0  0  0  0
 36 37  1  0  0  0  0
 37 39  2  0  0  0  0
 38 37  1  0  0  0  0
 39 41  1  0  0  0  0
 39 40  1  0  0  0  0
 42 41  2  0  0  0  0
 43 42  1  0  0  0  0
M  END
>  <minimizedAffinity>
-5.62241936

$$$$

 OpenBabel03252507563D

 43 46  0  0  1  0  0  0  0  0999 V2000
   37.5410   30.8600   40.1300 C   0  0  2  0  0  0  0  0  0  0  0  0
   36.2570   30.9350   40.9530 C   0  0  0  0  0  0  0  0  0  0  0  0
   35.8820   29.4380   40.8980 C   0  0  0  0  0  0  0  0  0  0  0  0
   37.1900   28.7120   40.9560 C   0  0  1  0  0  0  0  0  0  0  0  0
   38.2530   29.7660   40.8740 C   0  0  0  0  0  0  0  0  0  0  0  0
   37.2660   30.5110   39.1160 H   0  0  0  0  0  0  0  0  0  0  0  0
   36.4660   31.2500   41.9740 H   0  0  0  0  0  0  0  0  0  0  0  0
   35.4800   31.5360   40.4380 H   0  0  0  0  0  0  0  0  0  0  0  0
   35.1690   29.1820   41.7010 H   0  0  0  0  0  0  0  0  0  0  0  0
   35.4430   29.3090   39.8830 H   0  0  0  0  0  0  0  0  0  0  0  0
   37.2750   27.9790   40.1220 H   0  0  0  0  0  0  0  0  0  0  0  0
   39.0510   29.3690   40.2100 H   0  0  0  0  0  0  0  0  0  0  0  0
   38.6270   30.0860   41.8450 H   0  0  0  0  0  0  0  0  0  0  0  0
   40.2060   33.5010   40.4370 C   0  0  0  0  0  0  0  0  0  0  0  0
   39.6390   32.2160   40.4250 C   0  0  0  0  0  0  0  0  0  0  0  0
   38.2810   32.1440   40.1460 C   0  0  0  0  0  0  0  0  0  0  0  0
   37.5370   33.3040   39.8930 N   0  0  0  0  0  0  0  0  0  0  0  0
   38.1480   34.5160   39.9210 C   0  0  0  0  0  0  0  0  0  0  0  0
   39.4680   34.6120   40.1900 N   0  0  0  0  0  0  0  0  0  0  0  0
   41.2640   33.5970   40.6510 H   0  0  0  0  0  0  0  0  0  0  0  0
   40.2010   31.3180   40.6170 H   0  0  0  0  0  0  0  0  0  0  0  0
   37.4670   35.3290   39.7110 H   0  0  0  0  0  0  0  0  0  0  0  0
   37.4180   27.9410   42.2350 C   0  0  2  0  0  0  0  0  0  0  0  0
   38.1740   28.6350   43.2730 C   0  0  0  0  0  0  0  0  0  0  0  0
   38.7390   27.4260   42.6020 C   0  0  1  0  0  0  0  0  0  0  0  0
   36.5420   27.3450   42.5420 H   0  0  0  0  0  0  0  0  0  0  0  0
   37.8200   28.5420   44.3250 H   0  0  0  0  0  0  0  0  0  0  0  0
   38.6770   29.6060   43.0960 H   0  0  0  0  0  0  0  0  0  0  0  0
   39.5340   27.4990   41.8500 H   0  0  0  0  0  0  0  0  0  0  0  0
   38.7810   26.2230   43.3480 O   0  0  0  0  0  0  0  0  0  0  0  0
   41.2450   25.6060   42.7610 O   0  0  0  0  0  0  0  0  0  0  0  0
   39.8190   25.1560   42.5640 P   0  0  1  0  0  0  0  0  0  0  0  0
   39.6770   23.5910   43.2450 O   0  0  0  0  0  0  0  0  0  0  0  0
   39.6690   22.8840   42.5690 H   0  0  0  0  0  0  0  0  0  0  0  0
   39.5410   25.0060   40.9340 O   0  0  0  0  0  0  0  0  0  0  0  0
   38.3780   24.4220   40.4530 C   0  0  0  0  0  0  0  0  0  0  0  0
   37.1970   25.0090   40.0490 C   0  0  0  0  0  0  0  0  0  0  0  0
   37.2120   26.0760   40.1290 H   0  0  0  0  0  0  0  0  0  0  0  0
   36.1700   24.2040   39.6050 C   0  0  0  0  0  0  0  0  0  0  0  0
   35.2600   24.7170   39.2970 H   0  0  0  0  0  0  0  0  0  0  0  0
   36.3010   22.8290   39.5580 C   0  0  0  0  0  3  0  0  0  0  0  0
   37.4980   22.2780   39.9710 C   0  0  0  0  0  3  0  0  0  0  0  0
   38.5080   23.0790   40.4080 N   0  0  0  0  0  0  0  0  0  0  0  0
  1  6  1  6  0  0  0
  1 16  1  0  0  0  0
  1  5  1  0  0  0  0
  1  2  1  0  0  0  0
  2  7  1  0  0  0  0
  3  2  1  0  0  0  0
  3  4  1  0  0  0  0
  3  9  1  0  0  0  0
  4 11  1  6  0  0  0
  4 23  1  0  0  0  0
  5  4  1  0  0  0  0
  5 13  1  0  0  0  0
  8  2  1  0  0  0  0
 10  3  1  0  0  0  0
 12  5  1  0  0  0  0
 14 20  1  0  0  0  0
 15 14  1  0  0  0  0
 15 21  1  0  0  0  0
 16 15  2  0  0  0  0
 17 18  2  0  0  0  0
 17 16  1  0  0  0  0
 18 19  1  0  0  0  0
 19 14  2  0  0  0  0
 22 18  1  0  0  0  0
 23 26  1  1  0  0  0
 23 25  1  0  0  0  0
 23 24  1  0  0  0  0
 24 27  1  0  0  0  0
 25 29  1  6  0  0  0
 25 24  1  0  0  0  0
 25 30  1  0  0  0  0
 28 24  1  0  0  0  0
 32 31  2  1  0  0  0
 32 33  1  0  0  0  0
 32 30  1  0  0  0  0
 34 33  1  0  0  0  0
 35 32  1  0  0  0  0
 36 35  1  0  0  0  0
 37 38  1  0  0  0  0
 37 36  2  0  0  0  0
 39 37  1  0  0  0  0
 40 39  1  0  0  0  0
 41 39  2  0  0  0  0
 41 42  1  0  0  0  0
 42 43  2  0  0  0  0
 43 36  1  0  0  0  0
M  END
>  <minimizedAffinity>
-5.58183527

$$$$
