
 OpenBabel03252506123D

 35 37  0  0  0  0  0  0  0  0999 V2000
   45.1580   33.5120   41.1400 F   0  0  0  0  0  0  0  0  0  0  0  0
   46.3430   34.0990   41.0310 C   0  0  0  0  0  0  0  0  0  0  0  0
   46.8380   34.8000   42.1050 C   0  0  0  0  0  0  0  0  0  0  0  0
   48.0820   35.4440   42.0800 C   0  0  0  0  0  0  0  0  0  0  0  0
   48.8620   35.3790   40.9260 C   0  0  0  0  0  0  0  0  0  0  0  0
   48.3300   34.6690   39.8770 C   0  0  0  0  0  0  0  0  0  0  0  0
   47.1260   34.0390   39.8830 C   0  0  0  0  0  0  0  0  0  0  0  0
   48.4050   35.9790   42.9700 H   0  0  0  0  0  0  0  0  0  0  0  0
   49.8130   35.8910   40.9560 H   0  0  0  0  0  0  0  0  0  0  0  0
   49.0330   34.6870   39.0500 H   0  0  0  0  0  0  0  0  0  0  0  0
   45.4710   33.9950   45.4150 C   0  0  0  0  0  0  0  0  0  0  0  0
   44.6170   35.1130   45.6440 C   0  0  0  0  0  0  0  0  0  0  0  0
   44.5210   36.1350   44.6560 C   0  0  0  0  0  0  0  0  0  0  0  0
   45.2740   35.9630   43.5320 N   0  0  0  0  0  0  0  0  0  0  0  0
   46.0640   34.9020   43.3480 C   0  0  0  0  0  0  0  0  0  0  0  0
   46.1590   33.9340   44.2770 N   0  0  0  0  0  0  0  0  0  0  0  0
   44.0500   35.1790   46.5660 H   0  0  0  0  0  0  0  0  0  0  0  0
   43.8830   36.9770   44.8220 H   0  0  0  0  0  0  0  0  0  0  0  0
   45.5500   32.9970   46.4070 N   0  0  0  0  0  0  0  0  0  0  0  0
   45.4650   31.9740   46.1510 H   0  0  0  0  0  0  0  0  0  0  0  0
   45.6960   33.3090   47.4050 H   0  0  0  0  0  0  0  0  0  0  0  0
   46.6820   33.3560   38.7810 O   0  0  0  0  0  0  0  0  0  0  0  0
   48.0590   34.7150   36.9790 O   0  0  0  0  0  0  0  0  0  0  0  0
   47.3480   33.4030   37.2400 P   0  0  2  0  0  0  0  0  0  0  0  0
   46.0720   33.1980   36.1160 O   0  0  0  0  0  0  0  0  0  0  0  0
   46.4290   33.2210   35.1910 H   0  0  0  0  0  0  0  0  0  0  0  0
   48.4140   32.1400   36.9160 O   0  0  0  0  0  0  0  0  0  0  0  0
   48.1670   30.7990   36.9400 C   0  0  0  0  0  0  0  0  0  0  0  0
   49.0330   29.7460   37.1880 C   0  0  0  0  0  0  0  0  0  0  0  0
   50.0340   30.0470   37.3850 H   0  0  0  0  0  0  0  0  0  0  0  0
   48.5770   28.4450   37.1630 C   0  0  0  0  0  0  0  0  0  0  0  0
   49.3070   27.6550   37.3660 H   0  0  0  0  0  0  0  0  0  0  0  0
   47.2530   28.1300   36.8970 C   0  0  0  0  0  3  0  0  0  0  0  0
   46.4410   29.2090   36.6610 C   0  0  0  0  0  3  0  0  0  0  0  0
   46.8640   30.4880   36.6780 N   0  0  0  0  0  0  0  0  0  0  0  0
  2  1  1  0  0  0  0
  2  3  1  0  0  0  0
  3 15  1  0  0  0  0
  4  3  2  0  0  0  0
  4  8  1  0  0  0  0
  5  9  1  0  0  0  0
  5  4  1  0  0  0  0
  6  7  1  0  0  0  0
  6  5  2  0  0  0  0
  7  2  2  0  0  0  0
 10  6  1  0  0  0  0
 11 12  1  0  0  0  0
 11 19  1  0  0  0  0
 12 17  1  0  0  0  0
 13 18  1  0  0  0  0
 13 12  2  0  0  0  0
 14 13  1  0  0  0  0
 15 14  2  0  0  0  0
 15 16  1  0  0  0  0
 16 11  2  0  0  0  0
 19 21  1  0  0  0  0
 20 19  1  0  0  0  0
 22  7  1  0  0  0  0
 24 23  2  6  0  0  0
 24 22  1  0  0  0  0
 25 24  1  0  0  0  0
 26 25  1  0  0  0  0
 27 28  1  0  0  0  0
 27 24  1  0  0  0  0
 28 29  1  0  0  0  0
 29 30  1  0  0  0  0
 31 29  2  0  0  0  0
 31 32  1  0  0  0  0
 33 31  1  0  0  0  0
 34 35  1  0  0  0  0
 34 33  2  0  0  0  0
 35 28  2  0  0  0  0
M  END
>  <minimizedAffinity>
-5.74776793

>  <minimizedRMSD>
0.840281546

$$$$
