
 OpenBabel03252506123D

 35 37  0  0  0  0  0  0  0  0999 V2000
   45.0690   33.5950   41.1430 F   0  0  0  0  0  0  0  0  0  0  0  0
   46.2760   34.1360   41.0400 C   0  0  0  0  0  0  0  0  0  0  0  0
   46.8020   34.7940   42.1260 C   0  0  0  0  0  0  0  0  0  0  0  0
   48.0700   35.3880   42.1100 C   0  0  0  0  0  0  0  0  0  0  0  0
   48.8440   35.3160   40.9520 C   0  0  0  0  0  0  0  0  0  0  0  0
   48.2800   34.6480   39.8910 C   0  0  0  0  0  0  0  0  0  0  0  0
   47.0520   34.0670   39.8880 C   0  0  0  0  0  0  0  0  0  0  0  0
   48.4180   35.8920   43.0090 H   0  0  0  0  0  0  0  0  0  0  0  0
   49.8140   35.7890   40.9880 H   0  0  0  0  0  0  0  0  0  0  0  0
   48.9810   34.6560   39.0620 H   0  0  0  0  0  0  0  0  0  0  0  0
   45.4520   34.0010   45.4470 C   0  0  0  0  0  0  0  0  0  0  0  0
   44.6060   35.1240   45.6790 C   0  0  0  0  0  0  0  0  0  0  0  0
   44.5080   36.1440   44.6900 C   0  0  0  0  0  0  0  0  0  0  0  0
   45.2520   35.9670   43.5610 N   0  0  0  0  0  0  0  0  0  0  0  0
   46.0360   34.9020   43.3740 C   0  0  0  0  0  0  0  0  0  0  0  0
   46.1320   33.9350   44.3040 N   0  0  0  0  0  0  0  0  0  0  0  0
   44.0440   35.1940   46.6040 H   0  0  0  0  0  0  0  0  0  0  0  0
   43.8750   36.9900   44.8590 H   0  0  0  0  0  0  0  0  0  0  0  0
   45.5330   33.0050   46.4400 N   0  0  0  0  0  0  0  0  0  0  0  0
   45.4420   31.9820   46.1860 H   0  0  0  0  0  0  0  0  0  0  0  0
   45.6870   33.3170   47.4360 H   0  0  0  0  0  0  0  0  0  0  0  0
   46.5770   33.4250   38.7750 O   0  0  0  0  0  0  0  0  0  0  0  0
   48.0720   34.6280   36.9550 O   0  0  0  0  0  0  0  0  0  0  0  0
   47.3210   33.3510   37.2710 P   0  0  2  0  0  0  0  0  0  0  0  0
   46.0990   33.0890   36.1000 O   0  0  0  0  0  0  0  0  0  0  0  0
   46.5030   33.0400   35.1950 H   0  0  0  0  0  0  0  0  0  0  0  0
   48.3750   32.0500   37.0920 O   0  0  0  0  0  0  0  0  0  0  0  0
   49.0450   31.3660   38.0630 C   0  0  0  0  0  0  0  0  0  0  0  0
   48.6670   30.2360   38.7700 C   0  0  0  0  0  0  0  0  0  0  0  0
   47.7080   29.8610   38.5030 H   0  0  0  0  0  0  0  0  0  0  0  0
   49.5030   29.6940   39.7230 C   0  0  0  0  0  0  0  0  0  0  0  0
   49.1520   28.8010   40.2490 H   0  0  0  0  0  0  0  0  0  0  0  0
   50.7430   30.2420   40.0150 C   0  0  0  0  0  3  0  0  0  0  0  0
   51.0670   31.3570   39.2870 C   0  0  0  0  0  3  0  0  0  0  0  0
   50.2670   31.9040   38.3520 N   0  0  0  0  0  0  0  0  0  0  0  0
  2  1  1  0  0  0  0
  2  3  1  0  0  0  0
  3 15  1  0  0  0  0
  4  3  2  0  0  0  0
  4  8  1  0  0  0  0
  5  9  1  0  0  0  0
  5  4  1  0  0  0  0
  6  5  2  0  0  0  0
  7  6  1  0  0  0  0
  7  2  2  0  0  0  0
 10  6  1  0  0  0  0
 11 12  1  0  0  0  0
 11 19  1  0  0  0  0
 12 17  1  0  0  0  0
 13 18  1  0  0  0  0
 13 12  2  0  0  0  0
 14 13  1  0  0  0  0
 15 14  2  0  0  0  0
 15 16  1  0  0  0  0
 16 11  2  0  0  0  0
 19 21  1  0  0  0  0
 20 19  1  0  0  0  0
 22  7  1  0  0  0  0
 24 23  2  6  0  0  0
 24 22  1  0  0  0  0
 25 24  1  0  0  0  0
 26 25  1  0  0  0  0
 27 24  1  0  0  0  0
 27 28  1  0  0  0  0
 28 35  2  0  0  0  0
 28 29  1  0  0  0  0
 29 31  2  0  0  0  0
 30 29  1  0  0  0  0
 31 33  1  0  0  0  0
 31 32  1  0  0  0  0
 34 33  2  0  0  0  0
 35 34  1  0  0  0  0
M  END
>  <minimizedAffinity>
-5.97157478

>  <minimizedRMSD>
1.0558846

$$$$
