
 OpenBabel03252506123D

 35 37  0  0  0  0  0  0  0  0999 V2000
   45.4250   33.4630   41.1970 F   0  0  0  0  0  0  0  0  0  0  0  0
   46.5590   34.1460   41.1290 C   0  0  0  0  0  0  0  0  0  0  0  0
   46.9600   34.8780   42.2210 C   0  0  0  0  0  0  0  0  0  0  0  0
   48.1460   35.6230   42.2400 C   0  0  0  0  0  0  0  0  0  0  0  0
   48.9660   35.6310   41.1120 C   0  0  0  0  0  0  0  0  0  0  0  0
   48.5290   34.8860   40.0440 C   0  0  0  0  0  0  0  0  0  0  0  0
   47.3810   34.1590   40.0070 C   0  0  0  0  0  0  0  0  0  0  0  0
   48.3950   36.1780   43.1430 H   0  0  0  0  0  0  0  0  0  0  0  0
   49.8690   36.2200   41.1760 H   0  0  0  0  0  0  0  0  0  0  0  0
   49.2540   34.9680   39.2400 H   0  0  0  0  0  0  0  0  0  0  0  0
   45.5260   33.9190   45.4620 C   0  0  0  0  0  0  0  0  0  0  0  0
   44.6070   34.9840   45.6870 C   0  0  0  0  0  0  0  0  0  0  0  0
   44.4910   36.0250   44.7210 C   0  0  0  0  0  0  0  0  0  0  0  0
   45.2890   35.9220   43.6200 N   0  0  0  0  0  0  0  0  0  0  0  0
   46.1390   34.9080   43.4380 C   0  0  0  0  0  0  0  0  0  0  0  0
   46.2540   33.9230   44.3470 N   0  0  0  0  0  0  0  0  0  0  0  0
   44.0060   34.9970   46.5890 H   0  0  0  0  0  0  0  0  0  0  0  0
   43.8040   36.8280   44.8850 H   0  0  0  0  0  0  0  0  0  0  0  0
   45.6250   32.9010   46.4320 N   0  0  0  0  0  0  0  0  0  0  0  0
   45.6030   31.8820   46.1480 H   0  0  0  0  0  0  0  0  0  0  0  0
   45.7200   33.1940   47.4410 H   0  0  0  0  0  0  0  0  0  0  0  0
   47.0310   33.4480   38.8890 O   0  0  0  0  0  0  0  0  0  0  0  0
   48.0720   34.6640   36.7830 O   0  0  0  0  0  0  0  0  0  0  0  0
   47.9170   33.3210   37.4680 P   0  0  2  0  0  0  0  0  0  0  0  0
   47.0910   32.2330   36.4360 O   0  0  0  0  0  0  0  0  0  0  0  0
   47.5870   32.1320   35.5830 H   0  0  0  0  0  0  0  0  0  0  0  0
   49.4460   32.6440   37.6730 O   0  0  0  0  0  0  0  0  0  0  0  0
   49.8090   31.6070   38.4810 C   0  0  0  0  0  0  0  0  0  0  0  0
   50.8430   31.5230   39.4000 C   0  0  0  0  0  0  0  0  0  0  0  0
   51.4280   32.4080   39.4710 H   0  0  0  0  0  0  0  0  0  0  0  0
   51.0420   30.3670   40.1250 C   0  0  0  0  0  0  0  0  0  0  0  0
   51.8740   30.3600   40.8370 H   0  0  0  0  0  0  0  0  0  0  0  0
   50.2340   29.2510   39.9750 C   0  0  0  0  0  3  0  0  0  0  0  0
   49.2270   29.3890   39.0530 C   0  0  0  0  0  3  0  0  0  0  0  0
   49.0130   30.5080   38.3330 N   0  0  0  0  0  0  0  0  0  0  0  0
  2  1  1  0  0  0  0
  2  3  1  0  0  0  0
  3  4  2  0  0  0  0
  3 15  1  0  0  0  0
  4  8  1  0  0  0  0
  5  9  1  0  0  0  0
  5  4  1  0  0  0  0
  6  5  2  0  0  0  0
  7  6  1  0  0  0  0
  7  2  2  0  0  0  0
 10  6  1  0  0  0  0
 11 12  1  0  0  0  0
 11 19  1  0  0  0  0
 12 17  1  0  0  0  0
 13 18  1  0  0  0  0
 13 12  2  0  0  0  0
 14 13  1  0  0  0  0
 15 14  2  0  0  0  0
 15 16  1  0  0  0  0
 16 11  2  0  0  0  0
 19 21  1  0  0  0  0
 20 19  1  0  0  0  0
 22  7  1  0  0  0  0
 24 23  2  6  0  0  0
 24 27  1  0  0  0  0
 24 22  1  0  0  0  0
 25 24  1  0  0  0  0
 26 25  1  0  0  0  0
 27 28  1  0  0  0  0
 28 29  1  0  0  0  0
 29 30  1  0  0  0  0
 29 31  2  0  0  0  0
 31 32  1  0  0  0  0
 33 31  1  0  0  0  0
 34 33  2  0  0  0  0
 35 28  2  0  0  0  0
 35 34  1  0  0  0  0
M  END
>  <minimizedAffinity>
-5.57710886

>  <minimizedRMSD>
1.29828358

$$$$
