
 OpenBabel03252505283D

 23 24  0  0  0  0  0  0  0  0999 V2000
   35.4420   28.6750   41.0190 O   0  0  0  0  0  0  0  0  0  0  0  0
   36.8850   28.6530   41.5460 P   0  0  1  0  0  0  0  0  0  0  0  0
   37.0010   29.4390   43.0290 O   0  0  0  0  0  0  0  0  0  0  0  0
   36.3450   29.0930   43.6870 H   0  0  0  0  0  0  0  0  0  0  0  0
   37.3400   27.0330   41.6590 O   0  0  0  0  0  0  0  0  0  0  0  0
   40.2800   27.0650   43.6630 C   0  0  0  0  0  0  0  0  0  0  0  0
   40.7170   25.7210   43.6780 C   0  0  0  0  0  0  0  0  0  0  0  0
   39.9390   24.8100   42.9570 C   0  0  0  0  0  0  0  0  0  0  0  0
   38.8350   25.2570   42.3020 N   0  0  0  0  0  0  0  0  0  0  0  0
   38.4640   26.5520   42.3210 C   0  0  0  0  0  0  0  0  0  0  0  0
   39.1850   27.4480   43.0000 N   0  0  0  0  0  0  0  0  0  0  0  0
   40.8780   27.7580   44.2160 H   0  0  0  0  0  0  0  0  0  0  0  0
   41.5870   25.4130   44.2050 H   0  0  0  0  0  0  0  0  0  0  0  0
   40.2220   23.7550   42.9280 H   0  0  0  0  0  0  0  0  0  0  0  0
   37.8050   29.5080   40.4220 O   0  0  0  0  0  0  0  0  0  0  0  0
   37.9210   30.8770   40.3180 C   0  0  0  0  0  0  0  0  0  0  0  0
   37.1740   31.4950   39.3360 C   0  0  0  0  0  0  0  0  0  0  0  0
   36.5000   30.9960   38.6340 H   0  0  0  0  0  0  0  0  0  0  0  0
   37.2170   32.8700   39.1470 C   0  0  0  0  0  0  0  0  0  0  0  0
   36.6540   33.4120   38.3930 H   0  0  0  0  0  0  0  0  0  0  0  0
   38.0450   33.5890   39.9900 C   0  0  0  0  0  3  0  0  0  0  0  0
   38.7810   32.9470   40.9630 C   0  0  0  0  0  3  0  0  0  0  0  0
   38.7090   31.6070   41.1130 N   0  0  0  0  0  0  0  0  0  0  0  0
  2  1  2  6  0  0  0
  2  5  1  0  0  0  0
  2  3  1  0  0  0  0
  3  4  1  0  0  0  0
  5 10  1  0  0  0  0
  6  7  1  0  0  0  0
  6 12  1  0  0  0  0
  7 13  1  0  0  0  0
  8  7  2  0  0  0  0
  9 10  2  0  0  0  0
  9  8  1  0  0  0  0
 10 11  1  0  0  0  0
 11  6  2  0  0  0  0
 14  8  1  0  0  0  0
 15  2  1  0  0  0  0
 16 15  1  0  0  0  0
 16 23  1  0  0  0  0
 17 16  2  0  0  0  0
 18 17  1  0  0  0  0
 19 17  1  0  0  0  0
 19 21  2  0  0  0  0
 20 19  1  0  0  0  0
 21 22  1  0  0  0  0
 22 23  2  0  0  0  0
M  END
>  <minimizedAffinity>
-4.7482543

$$$$

 OpenBabel03252505283D

 23 24  0  0  0  0  0  0  0  0999 V2000
   37.4910   29.7840   39.8470 O   0  0  0  0  0  0  0  0  0  0  0  0
   37.3380   30.9830   40.7960 P   0  0  1  0  0  0  0  0  0  0  0  0
   35.7560   31.1140   41.3560 O   0  0  0  0  0  0  0  0  0  0  0  0
   35.4300   30.2660   41.7500 H   0  0  0  0  0  0  0  0  0  0  0  0
   38.4320   30.7510   42.0570 O   0  0  0  0  0  0  0  0  0  0  0  0
   38.1180   27.6000   43.6790 C   0  0  0  0  0  0  0  0  0  0  0  0
   39.4250   27.0630   43.6750 C   0  0  0  0  0  0  0  0  0  0  0  0
   40.4160   27.8530   43.0820 C   0  0  0  0  0  0  0  0  0  0  0  0
   40.0720   29.0580   42.5560 N   0  0  0  0  0  0  0  0  0  0  0  0
   38.8070   29.5210   42.5880 C   0  0  0  0  0  0  0  0  0  0  0  0
   37.8380   28.7920   43.1470 N   0  0  0  0  0  0  0  0  0  0  0  0
   37.3640   26.9920   44.1330 H   0  0  0  0  0  0  0  0  0  0  0  0
   39.6520   26.1140   44.0970 H   0  0  0  0  0  0  0  0  0  0  0  0
   41.4470   27.4970   43.0460 H   0  0  0  0  0  0  0  0  0  0  0  0
   37.6880   32.3530   39.8770 O   0  0  0  0  0  0  0  0  0  0  0  0
   38.9020   32.6870   39.3200 C   0  0  0  0  0  0  0  0  0  0  0  0
   39.6070   33.7090   39.9230 C   0  0  0  0  0  0  0  0  0  0  0  0
   39.2880   34.2770   40.8010 H   0  0  0  0  0  0  0  0  0  0  0  0
   40.8420   34.1240   39.4410 C   0  0  0  0  0  0  0  0  0  0  0  0
   41.4420   34.9200   39.8710 H   0  0  0  0  0  0  0  0  0  0  0  0
   41.3300   33.4630   38.3280 C   0  0  0  0  0  3  0  0  0  0  0  0
   40.6060   32.4450   37.7450 C   0  0  0  0  0  3  0  0  0  0  0  0
   39.4090   32.0730   38.2470 N   0  0  0  0  0  0  0  0  0  0  0  0
  2  1  2  6  0  0  0
  2  3  1  0  0  0  0
  2  5  1  0  0  0  0
  3  4  1  0  0  0  0
  5 10  1  0  0  0  0
  6 12  1  0  0  0  0
  7  6  1  0  0  0  0
  7 13  1  0  0  0  0
  8  7  2  0  0  0  0
  9 10  2  0  0  0  0
  9  8  1  0  0  0  0
 10 11  1  0  0  0  0
 11  6  2  0  0  0  0
 14  8  1  0  0  0  0
 15  2  1  0  0  0  0
 16 15  1  0  0  0  0
 16 17  1  0  0  0  0
 17 18  1  0  0  0  0
 19 20  1  0  0  0  0
 19 17  2  0  0  0  0
 21 19  1  0  0  0  0
 22 23  1  0  0  0  0
 22 21  2  0  0  0  0
 23 16  2  0  0  0  0
M  END
>  <minimizedAffinity>
-4.69071245

$$$$

 OpenBabel03252505283D

 23 24  0  0  0  0  0  0  0  0999 V2000
   36.5520   31.0650   38.7960 O   0  0  0  0  0  0  0  0  0  0  0  0
   37.2210   31.6200   40.0620 P   0  0  1  0  0  0  0  0  0  0  0  0
   36.9750   33.2790   40.2000 O   0  0  0  0  0  0  0  0  0  0  0  0
   36.0150   33.5200   40.1330 H   0  0  0  0  0  0  0  0  0  0  0  0
   36.5680   30.7790   41.3690 O   0  0  0  0  0  0  0  0  0  0  0  0
   36.9770   27.2460   41.4910 C   0  0  0  0  0  0  0  0  0  0  0  0
   37.7770   27.0170   42.6320 C   0  0  0  0  0  0  0  0  0  0  0  0
   38.1630   28.1520   43.3540 C   0  0  0  0  0  0  0  0  0  0  0  0
   37.7580   29.3760   42.9250 N   0  0  0  0  0  0  0  0  0  0  0  0
   36.9940   29.5360   41.8270 C   0  0  0  0  0  0  0  0  0  0  0  0
   36.6080   28.4740   41.1160 N   0  0  0  0  0  0  0  0  0  0  0  0
   36.6850   26.3760   40.9420 H   0  0  0  0  0  0  0  0  0  0  0  0
   38.0720   26.0420   42.9330 H   0  0  0  0  0  0  0  0  0  0  0  0
   38.7820   28.0450   44.2470 H   0  0  0  0  0  0  0  0  0  0  0  0
   38.8740   31.3460   39.8750 O   0  0  0  0  0  0  0  0  0  0  0  0
   39.8130   32.2390   39.4080 C   0  0  0  0  0  0  0  0  0  0  0  0
   40.3550   31.9840   38.1640 C   0  0  0  0  0  0  0  0  0  0  0  0
   40.1060   31.1370   37.5190 H   0  0  0  0  0  0  0  0  0  0  0  0
   41.3080   32.8220   37.6010 C   0  0  0  0  0  0  0  0  0  0  0  0
   41.7700   32.6740   36.6290 H   0  0  0  0  0  0  0  0  0  0  0  0
   41.6870   33.9240   38.3470 C   0  0  0  0  0  3  0  0  0  0  0  0
   41.1300   34.1570   39.5860 C   0  0  0  0  0  3  0  0  0  0  0  0
   40.2050   33.3150   40.0960 N   0  0  0  0  0  0  0  0  0  0  0  0
  2  1  2  6  0  0  0
  2  3  1  0  0  0  0
  2  5  1  0  0  0  0
  4  3  1  0  0  0  0
  5 10  1  0  0  0  0
  6  7  1  0  0  0  0
  7 13  1  0  0  0  0
  7  8  2  0  0  0  0
  8 14  1  0  0  0  0
  9  8  1  0  0  0  0
 10  9  2  0  0  0  0
 11  6  2  0  0  0  0
 11 10  1  0  0  0  0
 12  6  1  0  0  0  0
 15  2  1  0  0  0  0
 16 15  1  0  0  0  0
 16 23  1  0  0  0  0
 17 16  2  0  0  0  0
 18 17  1  0  0  0  0
 19 17  1  0  0  0  0
 19 21  2  0  0  0  0
 20 19  1  0  0  0  0
 21 22  1  0  0  0  0
 22 23  2  0  0  0  0
M  END
>  <minimizedAffinity>
-4.67783689

$$$$

 OpenBabel03252505283D

 23 24  0  0  0  0  0  0  0  0999 V2000
   37.0850   28.8830   39.8260 O   0  0  0  0  0  0  0  0  0  0  0  0
   36.8240   29.4720   41.2210 P   0  0  1  0  0  0  0  0  0  0  0  0
   35.4660   30.4660   41.2150 O   0  0  0  0  0  0  0  0  0  0  0  0
   34.6720   30.0090   40.8350 H   0  0  0  0  0  0  0  0  0  0  0  0
   36.6440   28.1700   42.2770 O   0  0  0  0  0  0  0  0  0  0  0  0
   38.3970   25.0740   42.2570 C   0  0  0  0  0  0  0  0  0  0  0  0
   39.5080   25.2860   43.1040 C   0  0  0  0  0  0  0  0  0  0  0  0
   39.6130   26.5570   43.6800 C   0  0  0  0  0  0  0  0  0  0  0  0
   38.6650   27.4900   43.3970 N   0  0  0  0  0  0  0  0  0  0  0  0
   37.6250   27.2320   42.5800 C   0  0  0  0  0  0  0  0  0  0  0  0
   37.4960   26.0290   42.0150 N   0  0  0  0  0  0  0  0  0  0  0  0
   38.3220   24.1010   41.8200 H   0  0  0  0  0  0  0  0  0  0  0  0
   40.2270   24.5290   43.2990 H   0  0  0  0  0  0  0  0  0  0  0  0
   40.4480   26.7870   44.3440 H   0  0  0  0  0  0  0  0  0  0  0  0
   38.1700   30.4210   41.5850 O   0  0  0  0  0  0  0  0  0  0  0  0
   38.5000   31.6370   41.0280 C   0  0  0  0  0  0  0  0  0  0  0  0
   39.8300   32.0030   41.0670 C   0  0  0  0  0  0  0  0  0  0  0  0
   40.6440   31.4150   41.5020 H   0  0  0  0  0  0  0  0  0  0  0  0
   40.2680   33.2070   40.5340 C   0  0  0  0  0  0  0  0  0  0  0  0
   41.3000   33.5490   40.5350 H   0  0  0  0  0  0  0  0  0  0  0  0
   39.3080   34.0210   39.9610 C   0  0  0  0  0  3  0  0  0  0  0  0
   37.9860   33.6330   39.9340 C   0  0  0  0  0  3  0  0  0  0  0  0
   37.6020   32.4510   40.4650 N   0  0  0  0  0  0  0  0  0  0  0  0
  2  1  2  6  0  0  0
  2 15  1  0  0  0  0
  2  5  1  0  0  0  0
  3  2  1  0  0  0  0
  4  3  1  0  0  0  0
  5 10  1  0  0  0  0
  6  7  1  0  0  0  0
  7 13  1  0  0  0  0
  7  8  2  0  0  0  0
  8 14  1  0  0  0  0
  9  8  1  0  0  0  0
 10  9  2  0  0  0  0
 11  6  2  0  0  0  0
 11 10  1  0  0  0  0
 12  6  1  0  0  0  0
 16 17  1  0  0  0  0
 16 15  1  0  0  0  0
 17 18  1  0  0  0  0
 19 20  1  0  0  0  0
 19 17  2  0  0  0  0
 21 19  1  0  0  0  0
 22 21  2  0  0  0  0
 22 23  1  0  0  0  0
 23 16  2  0  0  0  0
M  END
>  <minimizedAffinity>
-4.62780476

$$$$

 OpenBabel03252505283D

 23 24  0  0  0  0  0  0  0  0999 V2000
   39.5050   29.5850   42.9040 O   0  0  0  0  0  0  0  0  0  0  0  0
   38.2580   28.7220   42.6590 P   0  0  1  0  0  0  0  0  0  0  0  0
   36.9540   29.2670   43.5730 O   0  0  0  0  0  0  0  0  0  0  0  0
   36.7860   30.2350   43.4410 H   0  0  0  0  0  0  0  0  0  0  0  0
   37.9340   28.7880   41.0050 O   0  0  0  0  0  0  0  0  0  0  0  0
   36.9780   32.1300   40.2420 C   0  0  0  0  0  0  0  0  0  0  0  0
   37.3510   32.3090   38.8910 C   0  0  0  0  0  0  0  0  0  0  0  0
   37.9490   31.2100   38.2640 C   0  0  0  0  0  0  0  0  0  0  0  0
   38.1320   30.0650   38.9720 N   0  0  0  0  0  0  0  0  0  0  0  0
   37.7570   29.9500   40.2610 C   0  0  0  0  0  0  0  0  0  0  0  0
   37.1840   30.9790   40.8890 N   0  0  0  0  0  0  0  0  0  0  0  0
   36.5220   32.9720   40.7170 H   0  0  0  0  0  0  0  0  0  0  0  0
   37.1900   33.2230   38.3730 H   0  0  0  0  0  0  0  0  0  0  0  0
   38.2600   31.2820   37.2200 H   0  0  0  0  0  0  0  0  0  0  0  0
   38.6560   27.1690   43.1810 O   0  0  0  0  0  0  0  0  0  0  0  0
   38.4210   25.9870   42.5130 C   0  0  0  0  0  0  0  0  0  0  0  0
   37.1020   25.6260   42.3240 C   0  0  0  0  0  0  0  0  0  0  0  0
   36.2290   26.1940   42.6580 H   0  0  0  0  0  0  0  0  0  0  0  0
   36.7570   24.4550   41.6640 C   0  0  0  0  0  0  0  0  0  0  0  0
   35.7390   24.1180   41.4860 H   0  0  0  0  0  0  0  0  0  0  0  0
   37.7980   23.6680   41.2050 C   0  0  0  0  0  3  0  0  0  0  0  0
   39.1070   24.0510   41.4060 C   0  0  0  0  0  3  0  0  0  0  0  0
   39.3980   25.2000   42.0540 N   0  0  0  0  0  0  0  0  0  0  0  0
  2  1  2  1  0  0  0
  2 15  1  0  0  0  0
  2  3  1  0  0  0  0
  4  3  1  0  0  0  0
  5  2  1  0  0  0  0
  6 12  1  0  0  0  0
  6 11  1  0  0  0  0
  7  6  2  0  0  0  0
  8  7  1  0  0  0  0
  8  9  2  0  0  0  0
  9 10  1  0  0  0  0
 10 11  2  0  0  0  0
 10  5  1  0  0  0  0
 13  7  1  0  0  0  0
 14  8  1  0  0  0  0
 16 15  1  0  0  0  0
 17 16  1  0  0  0  0
 17 18  1  0  0  0  0
 19 17  2  0  0  0  0
 20 19  1  0  0  0  0
 21 22  2  0  0  0  0
 21 19  1  0  0  0  0
 22 23  1  0  0  0  0
 23 16  2  0  0  0  0
M  END
>  <minimizedAffinity>
-4.62225485

$$$$

 OpenBabel03252505283D

 23 24  0  0  0  0  0  0  0  0999 V2000
   34.4100   29.3770   39.6090 O   0  0  0  0  0  0  0  0  0  0  0  0
   35.7230   29.6230   40.3680 P   0  0  1  0  0  0  0  0  0  0  0  0
   35.5390   30.8360   41.5210 O   0  0  0  0  0  0  0  0  0  0  0  0
   34.7720   30.6620   42.1240 H   0  0  0  0  0  0  0  0  0  0  0  0
   36.1670   28.1550   41.0670 O   0  0  0  0  0  0  0  0  0  0  0  0
   38.6590   26.3750   42.8790 C   0  0  0  0  0  0  0  0  0  0  0  0
   39.5320   27.3740   43.3630 C   0  0  0  0  0  0  0  0  0  0  0  0
   39.2090   28.6930   43.0280 C   0  0  0  0  0  0  0  0  0  0  0  0
   38.1030   28.9300   42.2740 N   0  0  0  0  0  0  0  0  0  0  0  0
   37.3030   27.9370   41.8390 C   0  0  0  0  0  0  0  0  0  0  0  0
   37.5840   26.6670   42.1420 N   0  0  0  0  0  0  0  0  0  0  0  0
   38.9100   25.3680   43.1380 H   0  0  0  0  0  0  0  0  0  0  0  0
   40.3880   27.1460   43.9500 H   0  0  0  0  0  0  0  0  0  0  0  0
   39.8430   29.5130   43.3700 H   0  0  0  0  0  0  0  0  0  0  0  0
   36.8340   30.1550   39.2160 O   0  0  0  0  0  0  0  0  0  0  0  0
   37.7020   31.2180   39.3330 C   0  0  0  0  0  0  0  0  0  0  0  0
   39.0110   31.0030   38.9510 C   0  0  0  0  0  0  0  0  0  0  0  0
   39.4190   30.0640   38.5650 H   0  0  0  0  0  0  0  0  0  0  0  0
   39.9660   32.0070   39.0290 C   0  0  0  0  0  0  0  0  0  0  0  0
   41.0090   31.8980   38.7440 H   0  0  0  0  0  0  0  0  0  0  0  0
   39.5420   33.2340   39.5080 C   0  0  0  0  0  3  0  0  0  0  0  0
   38.2290   33.4240   39.8820 C   0  0  0  0  0  3  0  0  0  0  0  0
   37.3320   32.4180   39.7900 N   0  0  0  0  0  0  0  0  0  0  0  0
  2  1  2  6  0  0  0
  2  5  1  0  0  0  0
  2  3  1  0  0  0  0
  3  4  1  0  0  0  0
  5 10  1  0  0  0  0
  6 12  1  0  0  0  0
  6  7  1  0  0  0  0
  7 13  1  0  0  0  0
  8  7  2  0  0  0  0
  8 14  1  0  0  0  0
  9  8  1  0  0  0  0
 10 11  1  0  0  0  0
 10  9  2  0  0  0  0
 11  6  2  0  0  0  0
 15 16  1  0  0  0  0
 15  2  1  0  0  0  0
 16 23  1  0  0  0  0
 17 19  1  0  0  0  0
 17 16  2  0  0  0  0
 18 17  1  0  0  0  0
 19 21  2  0  0  0  0
 20 19  1  0  0  0  0
 21 22  1  0  0  0  0
 23 22  2  0  0  0  0
M  END
>  <minimizedAffinity>
-4.54430199

$$$$

 OpenBabel03252505283D

 23 24  0  0  0  0  0  0  0  0999 V2000
   39.5040   32.4180   39.8610 O   0  0  0  0  0  0  0  0  0  0  0  0
   38.3190   31.6360   40.4470 P   0  0  1  0  0  0  0  0  0  0  0  0
   36.9570   32.6150   40.5910 O   0  0  0  0  0  0  0  0  0  0  0  0
   36.7350   33.0700   39.7380 H   0  0  0  0  0  0  0  0  0  0  0  0
   38.0430   30.3250   39.4230 O   0  0  0  0  0  0  0  0  0  0  0  0
   34.6830   29.2170   39.8010 C   0  0  0  0  0  0  0  0  0  0  0  0
   34.2850   28.8310   38.5020 C   0  0  0  0  0  0  0  0  0  0  0  0
   35.2430   28.9760   37.4930 C   0  0  0  0  0  0  0  0  0  0  0  0
   36.4690   29.4680   37.8130 N   0  0  0  0  0  0  0  0  0  0  0  0
   36.7960   29.8200   39.0720 C   0  0  0  0  0  0  0  0  0  0  0  0
   35.9040   29.6940   40.0580 N   0  0  0  0  0  0  0  0  0  0  0  0
   33.9470   29.1050   40.5680 H   0  0  0  0  0  0  0  0  0  0  0  0
   33.3140   28.4520   38.2930 H   0  0  0  0  0  0  0  0  0  0  0  0
   35.0000   28.6970   36.4660 H   0  0  0  0  0  0  0  0  0  0  0  0
   38.7920   31.1610   41.9950 O   0  0  0  0  0  0  0  0  0  0  0  0
   38.7960   29.8810   42.5030 C   0  0  0  0  0  0  0  0  0  0  0  0
   39.9990   29.2060   42.4880 C   0  0  0  0  0  0  0  0  0  0  0  0
   40.9480   29.5960   42.1090 H   0  0  0  0  0  0  0  0  0  0  0  0
   40.1120   27.9110   42.9760 C   0  0  0  0  0  0  0  0  0  0  0  0
   41.0300   27.3300   42.9910 H   0  0  0  0  0  0  0  0  0  0  0  0
   38.9610   27.3320   43.4780 C   0  0  0  0  0  3  0  0  0  0  0  0
   37.7710   28.0280   43.4820 C   0  0  0  0  0  3  0  0  0  0  0  0
   37.7060   29.2870   42.9970 N   0  0  0  0  0  0  0  0  0  0  0  0
  2  1  2  6  0  0  0
  2  3  1  0  0  0  0
  2 15  1  0  0  0  0
  4  3  1  0  0  0  0
  5  2  1  0  0  0  0
  6 11  1  0  0  0  0
  6 12  1  0  0  0  0
  7  6  2  0  0  0  0
  8  9  2  0  0  0  0
  8  7  1  0  0  0  0
  9 10  1  0  0  0  0
 10  5  1  0  0  0  0
 10 11  2  0  0  0  0
 13  7  1  0  0  0  0
 14  8  1  0  0  0  0
 15 16  1  0  0  0  0
 16 23  1  0  0  0  0
 17 16  2  0  0  0  0
 17 19  1  0  0  0  0
 18 17  1  0  0  0  0
 19 20  1  0  0  0  0
 19 21  2  0  0  0  0
 21 22  1  0  0  0  0
 23 22  2  0  0  0  0
M  END
>  <minimizedAffinity>
-4.46358633

$$$$

 OpenBabel03252505283D

 23 24  0  0  0  0  0  0  0  0999 V2000
   38.6380   29.8860   42.9160 O   0  0  0  0  0  0  0  0  0  0  0  0
   37.4530   29.0530   42.4020 P   0  0  1  0  0  0  0  0  0  0  0  0
   36.5780   28.3920   43.6790 O   0  0  0  0  0  0  0  0  0  0  0  0
   36.3090   29.0800   44.3410 H   0  0  0  0  0  0  0  0  0  0  0  0
   36.5060   30.0810   41.4590 O   0  0  0  0  0  0  0  0  0  0  0  0
   34.3760   28.9030   38.8630 C   0  0  0  0  0  0  0  0  0  0  0  0
   35.0560   29.2250   37.6680 C   0  0  0  0  0  0  0  0  0  0  0  0
   36.2890   29.8700   37.8130 C   0  0  0  0  0  0  0  0  0  0  0  0
   36.7480   30.1430   39.0630 N   0  0  0  0  0  0  0  0  0  0  0  0
   36.0560   29.8120   40.1710 C   0  0  0  0  0  0  0  0  0  0  0  0
   34.8760   29.1960   40.0670 N   0  0  0  0  0  0  0  0  0  0  0  0
   33.4330   28.4110   38.7470 H   0  0  0  0  0  0  0  0  0  0  0  0
   34.6610   28.9940   36.7090 H   0  0  0  0  0  0  0  0  0  0  0  0
   36.8670   30.1460   36.9290 H   0  0  0  0  0  0  0  0  0  0  0  0
   38.1220   27.7880   41.5110 O   0  0  0  0  0  0  0  0  0  0  0  0
   37.5720   26.5440   41.2990 C   0  0  0  0  0  0  0  0  0  0  0  0
   37.1210   26.2680   40.0240 C   0  0  0  0  0  0  0  0  0  0  0  0
   37.1600   26.9490   39.1690 H   0  0  0  0  0  0  0  0  0  0  0  0
   36.5490   25.0440   39.7050 C   0  0  0  0  0  0  0  0  0  0  0  0
   36.1760   24.7690   38.7220 H   0  0  0  0  0  0  0  0  0  0  0  0
   36.4550   24.1140   40.7250 C   0  0  0  0  0  3  0  0  0  0  0  0
   36.9140   24.4140   41.9900 C   0  0  0  0  0  3  0  0  0  0  0  0
   37.4640   25.6190   42.2580 N   0  0  0  0  0  0  0  0  0  0  0  0
  2  1  2  1  0  0  0
  2  3  1  0  0  0  0
  3  4  1  0  0  0  0
  5  2  1  0  0  0  0
  6 11  1  0  0  0  0
  7  8  1  0  0  0  0
  7  6  2  0  0  0  0
  8  9  2  0  0  0  0
  9 10  1  0  0  0  0
 10  5  1  0  0  0  0
 11 10  2  0  0  0  0
 12  6  1  0  0  0  0
 13  7  1  0  0  0  0
 14  8  1  0  0  0  0
 15  2  1  0  0  0  0
 16 15  1  0  0  0  0
 16 23  1  0  0  0  0
 17 16  2  0  0  0  0
 18 17  1  0  0  0  0
 19 17  1  0  0  0  0
 19 21  2  0  0  0  0
 20 19  1  0  0  0  0
 21 22  1  0  0  0  0
 22 23  2  0  0  0  0
M  END
>  <minimizedAffinity>
-4.44055557

$$$$

 OpenBabel03252505283D

 23 24  0  0  0  0  0  0  0  0999 V2000
   38.0450   28.2780   41.4320 O   0  0  0  0  0  0  0  0  0  0  0  0
   37.6150   29.5770   42.1310 P   0  0  1  0  0  0  0  0  0  0  0  0
   37.0330   29.2690   43.6800 O   0  0  0  0  0  0  0  0  0  0  0  0
   37.6720   28.7350   44.2180 H   0  0  0  0  0  0  0  0  0  0  0  0
   38.9640   30.5870   42.1580 O   0  0  0  0  0  0  0  0  0  0  0  0
   39.1850   33.4880   40.1090 C   0  0  0  0  0  0  0  0  0  0  0  0
   40.1180   33.1470   39.1040 C   0  0  0  0  0  0  0  0  0  0  0  0
   40.6620   31.8610   39.1780 C   0  0  0  0  0  0  0  0  0  0  0  0
   40.2730   31.0360   40.1850 N   0  0  0  0  0  0  0  0  0  0  0  0
   39.3780   31.4140   41.1180 C   0  0  0  0  0  0  0  0  0  0  0  0
   38.8390   32.6350   41.0770 N   0  0  0  0  0  0  0  0  0  0  0  0
   38.7720   34.4730   40.0490 H   0  0  0  0  0  0  0  0  0  0  0  0
   40.3960   33.8230   38.3330 H   0  0  0  0  0  0  0  0  0  0  0  0
   41.3890   31.5340   38.4320 H   0  0  0  0  0  0  0  0  0  0  0  0
   36.3520   30.2060   41.2080 O   0  0  0  0  0  0  0  0  0  0  0  0
   36.0450   29.8930   39.9030 C   0  0  0  0  0  0  0  0  0  0  0  0
   34.8820   29.1810   39.6870 C   0  0  0  0  0  0  0  0  0  0  0  0
   34.1840   28.8440   40.4590 H   0  0  0  0  0  0  0  0  0  0  0  0
   34.4810   28.8150   38.4090 C   0  0  0  0  0  0  0  0  0  0  0  0
   33.5780   28.2560   38.1770 H   0  0  0  0  0  0  0  0  0  0  0  0
   35.3020   29.1980   37.3640 C   0  0  0  0  0  3  0  0  0  0  0  0
   36.4580   29.9080   37.6060 C   0  0  0  0  0  3  0  0  0  0  0  0
   36.8110   30.2450   38.8660 N   0  0  0  0  0  0  0  0  0  0  0  0
  2  1  2  6  0  0  0
  2  5  1  0  0  0  0
  2  3  1  0  0  0  0
  3  4  1  0  0  0  0
  6 11  1  0  0  0  0
  7  8  1  0  0  0  0
  7  6  2  0  0  0  0
  8  9  2  0  0  0  0
  9 10  1  0  0  0  0
 10  5  1  0  0  0  0
 11 10  2  0  0  0  0
 12  6  1  0  0  0  0
 13  7  1  0  0  0  0
 14  8  1  0  0  0  0
 15  2  1  0  0  0  0
 16 15  1  0  0  0  0
 17 16  1  0  0  0  0
 17 18  1  0  0  0  0
 19 17  2  0  0  0  0
 20 19  1  0  0  0  0
 21 22  2  0  0  0  0
 21 19  1  0  0  0  0
 22 23  1  0  0  0  0
 23 16  2  0  0  0  0
M  END
>  <minimizedAffinity>
-4.38413668

$$$$
