
 OpenBabel03252500273D

 42 44  0  0  1  0  0  0  0  0999 V2000
   47.4200   32.8720   47.4020 O   0  0  0  0  0  0  0  0  0  0  0  0
   46.1350   32.3310   46.8860 P   0  0  1  0  0  0  0  0  0  0  0  0
   46.4200   31.4210   45.4830 O   0  0  0  0  0  0  0  0  0  0  0  0
   45.7010   31.5570   44.8110 H   0  0  0  0  0  0  0  0  0  0  0  0
   45.5120   31.3550   48.0690 O   0  0  0  0  0  0  0  0  0  0  0  0
   47.6790   30.3650   48.2220 C   0  0  2  0  0  0  0  0  0  0  0  0
   46.2150   30.1780   48.1250 C   0  0  2  0  0  0  0  0  0  0  0  0
   45.9900   29.3150   46.9870 C   0  0  0  0  0  0  0  0  0  0  0  0
   47.1650   28.5940   46.7260 O   0  0  0  0  0  0  0  0  0  0  0  0
   48.0330   28.9090   47.7160 C   0  0  0  0  0  0  0  0  0  0  0  0
   48.2010   30.8700   47.3920 H   0  0  0  0  0  0  0  0  0  0  0  0
   45.9500   29.7770   49.1470 H   0  0  0  0  0  0  0  0  0  0  0  0
   45.3210   29.4980   46.1750 H   0  0  0  0  0  0  0  0  0  0  0  0
   45.4040   28.4370   47.4430 H   0  0  0  0  0  0  0  0  0  0  0  0
   49.0970   28.8240   47.5160 H   0  0  0  0  0  0  0  0  0  0  0  0
   47.8240   28.3030   48.6450 H   0  0  0  0  0  0  0  0  0  0  0  0
   48.2120   30.5040   49.4430 O   0  0  0  0  0  0  0  0  0  0  0  0
   49.3850   30.9900   49.7300 C   0  0  0  0  0  0  0  0  0  0  0  0
   49.5410   32.0190   49.8350 H   0  0  0  0  0  0  0  0  0  0  0  0
   50.0930   30.8140   48.7550 H   0  0  0  0  0  0  0  0  0  0  0  0
   50.0630   30.0790   50.7320 C   0  0  0  0  0  0  0  0  0  0  0  0
   49.5560   30.0510   51.6930 H   0  0  0  0  0  0  0  0  0  0  0  0
   51.1260   30.4080   50.7860 H   0  0  0  0  0  0  0  0  0  0  0  0
   50.1040   29.0780   50.2290 H   0  0  0  0  0  0  0  0  0  0  0  0
   45.1450   33.6860   46.5710 O   0  0  0  0  0  0  0  0  0  0  0  0
   46.4380   34.6770   43.3730 C   0  0  0  0  0  0  0  0  0  0  0  0
   45.6160   35.7970   43.0040 C   0  0  0  0  0  0  0  0  0  0  0  0
   44.6060   36.1700   43.9300 C   0  0  0  0  0  0  0  0  0  0  0  0
   44.4780   35.4680   45.0750 N   0  0  0  0  0  0  0  0  0  0  0  0
   45.2700   34.4280   45.3770 C   0  0  0  0  0  0  0  0  0  0  0  0
   46.2210   34.0690   44.5180 N   0  0  0  0  0  0  0  0  0  0  0  0
   45.7200   36.3550   42.0910 H   0  0  0  0  0  0  0  0  0  0  0  0
   43.9480   37.0000   43.7270 H   0  0  0  0  0  0  0  0  0  0  0  0
   47.3850   34.3280   42.4960 O   0  0  0  0  0  0  0  0  0  0  0  0
   47.4350   33.1660   41.7780 C   0  0  0  0  0  0  0  0  0  0  0  0
   46.5610   32.1520   41.4910 C   0  0  0  0  0  0  0  0  0  0  0  0
   45.5970   32.3160   41.9450 H   0  0  0  0  0  0  0  0  0  0  0  0
   46.8830   31.0630   40.7150 C   0  0  0  0  0  0  0  0  0  0  0  0
   46.0950   30.3430   40.5720 H   0  0  0  0  0  0  0  0  0  0  0  0
   48.1520   30.9600   40.1820 C   0  0  0  0  0  0  0  0  0  0  0  0
   49.0150   31.9860   40.4810 C   0  0  0  0  0  0  0  0  0  0  0  0
   48.6880   33.0570   41.2470 N   0  0  0  0  0  0  0  0  0  0  0  0
  2  1  2  1  0  0  0
  2  5  1  0  0  0  0
  3  2  1  0  0  0  0
  4  3  1  0  0  0  0
  5  7  1  0  0  0  0
  6 11  1  6  0  0  0
  6 17  1  0  0  0  0
  7  6  1  0  0  0  0
  7 12  1  1  0  0  0
  8 14  1  0  0  0  0
  8  7  1  0  0  0  0
  9  8  1  0  0  0  0
  9 10  1  0  0  0  0
 10  6  1  0  0  0  0
 10 16  1  0  0  0  0
 13  8  1  0  0  0  0
 15 10  1  0  0  0  0
 17 18  1  0  0  0  0
 18 19  1  0  0  0  0
 18 21  1  0  0  0  0
 20 18  1  0  0  0  0
 21 23  1  0  0  0  0
 21 22  1  0  0  0  0
 24 21  1  0  0  0  0
 25  2  1  0  0  0  0
 26 31  1  0  0  0  0
 27 26  2  0  0  0  0
 27 28  1  0  0  0  0
 28 29  2  0  0  0  0
 29 30  1  0  0  0  0
 30 25  1  0  0  0  0
 31 30  2  0  0  0  0
 32 27  1  0  0  0  0
 33 28  1  0  0  0  0
 34 26  1  0  0  0  0
 35 34  1  0  0  0  0
 36 35  1  0  0  0  0
 36 37  1  0  0  0  0
 38 36  2  0  0  0  0
 39 38  1  0  0  0  0
 40 41  2  0  0  0  0
 40 38  1  0  0  0  0
 41 42  1  0  0  0  0
 42 35  2  0  0  0  0
M  END
>  <minimizedAffinity>
-4.74488878

>  <minimizedRMSD>
4.8480649

$$$$
