
 OpenBabel03252509263D

 29 31  0  0  1  0  0  0  0  0999 V2000
   49.2090   33.2730   42.7010 C   0  0  1  0  0  0  0  0  0  0  0  0
   50.4320   34.2160   42.5230 C   0  0  0  0  0  0  0  0  0  0  0  0
   49.1400   34.1950   41.6470 C   0  0  2  0  0  0  0  0  0  0  0  0
   48.6880   33.4110   43.6720 H   0  0  0  0  0  0  0  0  0  0  0  0
   50.4590   35.0450   43.2410 H   0  0  0  0  0  0  0  0  0  0  0  0
   51.3510   33.8160   42.0900 H   0  0  0  0  0  0  0  0  0  0  0  0
   49.3730   33.8450   40.5960 H   0  0  0  0  0  0  0  0  0  0  0  0
   49.1080   29.5930   41.9840 C   0  0  0  0  0  0  0  0  0  0  0  0
   48.6420   30.8940   42.3090 C   0  0  0  0  0  0  0  0  0  0  0  0
   49.6040   31.8400   42.4350 C   0  0  0  0  0  0  0  0  0  0  0  0
   50.9480   31.5490   42.2620 N   0  0  0  0  0  0  0  0  0  0  0  0
   51.3450   30.2960   41.9550 C   0  0  0  0  0  0  0  0  0  0  0  0
   50.4200   29.3150   41.8160 N   0  0  0  0  0  0  0  0  0  0  0  0
   48.3810   28.7950   41.8690 H   0  0  0  0  0  0  0  0  0  0  0  0
   52.4180   30.2080   41.8490 H   0  0  0  0  0  0  0  0  0  0  0  0
   47.2840   31.1760   42.5210 N   0  0  0  0  0  0  0  0  0  0  0  0
   46.7550   30.4830   43.1070 H   0  0  0  0  0  0  0  0  0  0  0  0
   46.7640   31.9810   42.1660 H   0  0  0  0  0  0  0  0  0  0  0  0
   48.2220   35.3920   41.6930 C   0  0  0  0  0  0  0  0  0  0  0  0
   48.4850   36.1210   42.4870 H   0  0  0  0  0  0  0  0  0  0  0  0
   48.3740   35.9450   40.7340 H   0  0  0  0  0  0  0  0  0  0  0  0
   46.7930   34.9970   41.7490 C   0  0  0  0  0  0  0  0  0  0  0  0
   46.1090   34.2100   40.8530 C   0  0  0  0  0  0  0  0  0  0  0  0
   46.6910   33.8450   40.0200 H   0  0  0  0  0  0  0  0  0  0  0  0
   44.7880   33.9800   41.1130 C   0  0  0  0  0  0  0  0  0  0  0  0
   44.2480   33.3610   40.4090 H   0  0  0  0  0  0  0  0  0  0  0  0
   44.1440   34.4950   42.2060 C   0  0  0  0  0  3  0  0  0  0  0  0
   44.8580   35.2910   43.1020 C   0  0  0  0  0  3  0  0  0  0  0  0
   46.1480   35.5000   42.8230 N   0  0  0  0  0  0  0  0  0  0  0  0
  1  4  1  1  0  0  0
  2  1  1  0  0  0  0
  2  5  1  0  0  0  0
  3  7  1  6  0  0  0
  3 19  1  0  0  0  0
  3  2  1  0  0  0  0
  3  1  1  0  0  0  0
  6  2  1  0  0  0  0
  8  9  1  0  0  0  0
  9 10  2  0  0  0  0
  9 16  1  0  0  0  0
 10  1  1  0  0  0  0
 11 10  1  0  0  0  0
 12 11  2  0  0  0  0
 13 12  1  0  0  0  0
 13  8  2  0  0  0  0
 14  8  1  0  0  0  0
 15 12  1  0  0  0  0
 16 17  1  0  0  0  0
 18 16  1  0  0  0  0
 19 22  1  0  0  0  0
 19 20  1  0  0  0  0
 21 19  1  0  0  0  0
 22 29  1  0  0  0  0
 23 25  1  0  0  0  0
 23 22  2  0  0  0  0
 24 23  1  0  0  0  0
 25 27  2  0  0  0  0
 26 25  1  0  0  0  0
 27 28  1  0  0  0  0
 29 28  2  0  0  0  0
M  END
>  <minimizedAffinity>
-3.75315857

>  <minimizedRMSD>
5.33536911

$$$$
