
 OpenBabel03252506343D

 32 34  0  0  1  0  0  0  0  0999 V2000
   44.4630   35.7480   44.9860 C   0  0  0  0  0  0  0  0  0  0  0  0
   45.1390   35.7320   43.7430 C   0  0  0  0  0  0  0  0  0  0  0  0
   46.0580   34.7580   43.5130 C   0  0  0  0  0  0  0  0  0  0  0  0
   46.2810   33.8540   44.4850 N   0  0  0  0  0  0  0  0  0  0  0  0
   45.6360   33.8750   45.6590 C   0  0  0  0  0  0  0  0  0  0  0  0
   44.7210   34.8140   45.9350 N   0  0  0  0  0  0  0  0  0  0  0  0
   45.9470   32.8720   46.6230 N   0  0  0  0  0  0  0  0  0  0  0  0
   45.1520   32.5620   47.8020 C   0  0  0  0  0  0  0  0  0  0  0  0
   46.2370   32.2830   48.8290 C   0  0  0  0  0  0  0  0  0  0  0  0
   47.5410   32.1580   48.0770 C   0  0  0  0  0  0  0  0  0  0  0  0
   47.0850   31.9730   46.6440 C   0  0  1  0  0  0  0  0  0  0  0  0
   43.7170   36.4760   45.2640 H   0  0  0  0  0  0  0  0  0  0  0  0
   46.5450   34.7760   42.5750 H   0  0  0  0  0  0  0  0  0  0  0  0
   44.4760   31.7030   47.6440 H   0  0  0  0  0  0  0  0  0  0  0  0
   44.5050   33.4100   48.0960 H   0  0  0  0  0  0  0  0  0  0  0  0
   46.2780   33.1750   49.4950 H   0  0  0  0  0  0  0  0  0  0  0  0
   45.9920   31.4160   49.4530 H   0  0  0  0  0  0  0  0  0  0  0  0
   48.2220   32.9970   48.2240 H   0  0  0  0  0  0  0  0  0  0  0  0
   47.9850   31.1840   48.3970 H   0  0  0  0  0  0  0  0  0  0  0  0
   47.8820   32.2920   45.9410 H   0  0  0  0  0  0  0  0  0  0  0  0
   44.7510   36.7860   42.8580 N   0  0  0  0  0  0  0  0  0  0  0  0
   45.5160   37.2880   42.3650 H   0  0  0  0  0  0  0  0  0  0  0  0
   43.7600   37.0470   42.7070 H   0  0  0  0  0  0  0  0  0  0  0  0
   46.6040   30.2500   46.4340 S   0  0  0  0  0  0  0  0  0  0  0  0
   46.3700   29.8170   44.7190 C   0  0  0  0  0  0  0  0  0  0  0  0
   45.2630   30.3750   44.0940 C   0  0  0  0  0  0  0  0  0  0  0  0
   44.5650   31.0450   44.6100 H   0  0  0  0  0  0  0  0  0  0  0  0
   45.0320   30.0730   42.7620 C   0  0  0  0  0  0  0  0  0  0  0  0
   44.1840   30.4970   42.2660 H   0  0  0  0  0  0  0  0  0  0  0  0
   45.8840   29.2310   42.0530 C   0  0  0  0  0  3  0  0  0  0  0  0
   46.9730   28.7010   42.7270 C   0  0  0  0  0  3  0  0  0  0  0  0
   47.2070   28.9940   44.0400 N   0  0  0  0  0  0  0  0  0  0  0  0
  1 12  1  0  0  0  0
  1  6  1  0  0  0  0
  2  1  2  0  0  0  0
  3  2  1  0  0  0  0
  3  4  2  0  0  0  0
  4  5  1  0  0  0  0
  5  6  2  0  0  0  0
  5  7  1  0  0  0  0
  7 11  1  0  0  0  0
  7  8  1  0  0  0  0
  8 15  1  0  0  0  0
  8  9  1  0  0  0  0
  9 17  1  0  0  0  0
  9 16  1  0  0  0  0
 10 18  1  0  0  0  0
 10 19  1  0  0  0  0
 10  9  1  0  0  0  0
 11 20  1  6  0  0  0
 11 10  1  0  0  0  0
 13  3  1  0  0  0  0
 14  8  1  0  0  0  0
 21  2  1  0  0  0  0
 22 21  1  0  0  0  0
 23 21  1  0  0  0  0
 24 11  1  0  0  0  0
 25 24  1  0  0  0  0
 26 27  1  0  0  0  0
 26 25  1  0  0  0  0
 28 26  2  0  0  0  0
 29 28  1  0  0  0  0
 30 31  2  0  0  0  0
 30 28  1  0  0  0  0
 31 32  1  0  0  0  0
 32 25  2  0  0  0  0
M  END
>  <minimizedAffinity>
-4.77674389

>  <minimizedRMSD>
0.626794755

$$$$
