
 OpenBabel03252502553D

 36 38  0  0  0  0  0  0  0  0999 V2000
   45.6740   29.9190   44.6870 Br  0  0  0  0  0  0  0  0  0  0  0  0
   45.7250   30.5350   46.5190 C   0  0  0  0  0  0  0  0  0  0  0  0
   46.3500   31.7340   46.7180 C   0  0  0  0  0  0  0  0  0  0  0  0
   46.3720   32.1560   48.0560 C   0  0  0  0  0  0  0  0  0  0  0  0
   45.8160   31.4370   49.0840 C   0  0  0  0  0  0  0  0  0  0  0  0
   45.2070   30.2410   48.7940 C   0  0  0  0  0  0  0  0  0  0  0  0
   45.1490   29.7650   47.4980 C   0  0  0  0  0  0  0  0  0  0  0  0
   46.8500   33.1000   48.2980 H   0  0  0  0  0  0  0  0  0  0  0  0
   45.8740   31.8330   50.1000 H   0  0  0  0  0  0  0  0  0  0  0  0
   44.7790   29.6960   49.6270 H   0  0  0  0  0  0  0  0  0  0  0  0
   46.9770   32.5910   45.7130 C   0  0  0  0  0  0  0  0  0  0  0  0
   47.8950   33.0440   46.1460 H   0  0  0  0  0  0  0  0  0  0  0  0
   47.2480   31.9610   44.8210 H   0  0  0  0  0  0  0  0  0  0  0  0
   44.4580   35.3480   45.5830 C   0  0  0  0  0  0  0  0  0  0  0  0
   44.5910   35.7750   44.2510 C   0  0  0  0  0  0  0  0  0  0  0  0
   45.5140   35.1300   43.4470 C   0  0  0  0  0  0  0  0  0  0  0  0
   46.2500   34.1220   43.9560 N   0  0  0  0  0  0  0  0  0  0  0  0
   46.1150   33.7110   45.2540 C   0  0  0  0  0  0  0  0  0  0  0  0
   45.2150   34.3480   46.0230 N   0  0  0  0  0  0  0  0  0  0  0  0
   43.7610   35.8110   46.2490 H   0  0  0  0  0  0  0  0  0  0  0  0
   43.9500   36.5860   43.9640 H   0  0  0  0  0  0  0  0  0  0  0  0
   45.5920   35.4770   42.4380 H   0  0  0  0  0  0  0  0  0  0  0  0
   44.5360   28.5600   47.2050 O   0  0  0  0  0  0  0  0  0  0  0  0
   44.5480   25.9650   46.9480 O   0  0  0  0  0  0  0  0  0  0  0  0
   45.0320   27.0820   47.8640 P   0  0  2  0  0  0  0  0  0  0  0  0
   44.3580   26.9230   49.3930 O   0  0  0  0  0  0  0  0  0  0  0  0
   43.5300   27.4650   49.4350 H   0  0  0  0  0  0  0  0  0  0  0  0
   46.7130   26.9540   47.9390 O   0  0  0  0  0  0  0  0  0  0  0  0
   47.5640   27.4240   46.9480 C   0  0  0  0  0  0  0  0  0  0  0  0
   48.4270   28.4610   47.2390 C   0  0  0  0  0  0  0  0  0  0  0  0
   48.4930   28.9490   48.2040 H   0  0  0  0  0  0  0  0  0  0  0  0
   49.2850   28.9530   46.2810 C   0  0  0  0  0  0  0  0  0  0  0  0
   49.9790   29.7620   46.4580 H   0  0  0  0  0  0  0  0  0  0  0  0
   49.3150   28.4310   44.9970 C   0  0  0  0  0  0  0  0  0  0  0  0
   48.4240   27.3810   44.7460 C   0  0  0  0  0  0  0  0  0  0  0  0
   47.5870   26.9060   45.6950 N   0  0  0  0  0  0  0  0  0  0  0  0
  1  2  1  0  0  0  0
  2  3  2  0  0  0  0
  2  7  1  0  0  0  0
  3  4  1  0  0  0  0
  4  8  1  0  0  0  0
  4  5  2  0  0  0  0
  5  9  1  0  0  0  0
  6  5  1  0  0  0  0
  6 10  1  0  0  0  0
  7  6  2  0  0  0  0
 11 12  1  0  0  0  0
 11  3  1  0  0  0  0
 13 11  1  0  0  0  0
 14 19  1  0  0  0  0
 14 20  1  0  0  0  0
 15 14  2  0  0  0  0
 16 17  2  0  0  0  0
 16 15  1  0  0  0  0
 17 18  1  0  0  0  0
 18 11  1  0  0  0  0
 18 19  2  0  0  0  0
 21 15  1  0  0  0  0
 22 16  1  0  0  0  0
 23  7  1  0  0  0  0
 23 25  1  0  0  0  0
 25 24  2  6  0  0  0
 25 28  1  0  0  0  0
 25 26  1  0  0  0  0
 26 27  1  0  0  0  0
 29 30  1  0  0  0  0
 29 28  1  0  0  0  0
 30 31  1  0  0  0  0
 32 33  1  0  0  0  0
 32 30  2  0  0  0  0
 34 32  1  0  0  0  0
 35 34  2  0  0  0  0
 35 36  1  0  0  0  0
 36 29  2  0  0  0  0
M  END
>  <minimizedAffinity>
-4.90424728

>  <minimizedRMSD>
0.918376386

$$$$
