
 OpenBabel03242520343D

 27 29  0  0  1  0  0  0  0  0999 V2000
   37.4630   27.1000   40.4150 C   0  0  0  0  0  0  0  0  0  0  0  0
   37.0660   26.6470   41.7150 C   0  0  0  0  0  0  0  0  0  0  0  0
   36.9090   27.6110   42.6940 C   0  0  0  0  0  0  0  0  0  0  0  0
   37.1360   28.9160   42.3720 N   0  0  0  0  0  0  0  0  0  0  0  0
   37.5070   29.3070   41.1440 C   0  0  0  0  0  0  0  0  0  0  0  0
   37.6670   28.3840   40.1710 N   0  0  0  0  0  0  0  0  0  0  0  0
   37.5930   26.3640   39.6310 H   0  0  0  0  0  0  0  0  0  0  0  0
   36.6110   27.3510   43.6970 H   0  0  0  0  0  0  0  0  0  0  0  0
   37.7510   30.7010   40.7970 C   0  0  0  0  0  0  0  0  0  0  0  0
   36.8780   31.2960   39.8960 C   0  0  0  0  0  0  0  0  0  0  0  0
   36.0210   30.8100   39.4220 H   0  0  0  0  0  0  0  0  0  0  0  0
   37.0820   32.6030   39.5500 C   0  0  0  0  0  0  0  0  0  0  0  0
   36.4380   33.1430   38.8470 H   0  0  0  0  0  0  0  0  0  0  0  0
   38.1460   33.3200   40.0950 C   0  0  0  0  0  3  0  0  0  0  0  0
   38.9830   32.7080   40.9740 C   0  0  0  0  0  3  0  0  0  0  0  0
   38.7700   31.4110   41.3090 N   0  0  0  0  0  0  0  0  0  0  0  0
   36.8470   25.2140   42.0070 C   0  0  1  0  0  0  0  0  0  0  0  0
   37.4050   24.1900   41.1520 C   0  0  0  0  0  0  0  0  0  0  0  0
   38.0390   24.3890   42.4790 C   0  0  1  0  0  0  0  0  0  0  0  0
   35.8800   24.9920   42.5480 H   0  0  0  0  0  0  0  0  0  0  0  0
   38.0310   24.5460   40.2820 H   0  0  0  0  0  0  0  0  0  0  0  0
   36.8850   23.2470   40.8900 H   0  0  0  0  0  0  0  0  0  0  0  0
   37.8430   23.5630   43.1970 H   0  0  0  0  0  0  0  0  0  0  0  0
   39.3810   25.0140   42.6120 C   0  0  0  0  0  0  0  0  0  0  0  0
   39.3830   26.0690   43.5070 F   0  0  0  0  0  0  0  0  0  0  0  0
   39.8670   25.4610   41.3830 F   0  0  0  0  0  0  0  0  0  0  0  0
   40.2440   24.0650   43.1140 F   0  0  0  0  0  0  0  0  0  0  0  0
  1  2  1  0  0  0  0
  2 17  1  0  0  0  0
  2  3  2  0  0  0  0
  3  8  1  0  0  0  0
  4  3  1  0  0  0  0
  5  4  2  0  0  0  0
  6  1  2  0  0  0  0
  6  5  1  0  0  0  0
  7  1  1  0  0  0  0
  9  5  1  0  0  0  0
  9 16  1  0  0  0  0
 10  9  2  0  0  0  0
 11 10  1  0  0  0  0
 12 10  1  0  0  0  0
 12 14  2  0  0  0  0
 13 12  1  0  0  0  0
 14 15  1  0  0  0  0
 15 16  2  0  0  0  0
 17 19  1  0  0  0  0
 17 20  1  1  0  0  0
 18 17  1  0  0  0  0
 18 19  1  0  0  0  0
 19 24  1  0  0  0  0
 19 23  1  1  0  0  0
 21 18  1  0  0  0  0
 22 18  1  0  0  0  0
 24 27  1  0  0  0  0
 24 25  1  0  0  0  0
 26 24  1  0  0  0  0
M  END
>  <minimizedAffinity>
-5.27074623

$$$$

 OpenBabel03242520343D

 27 29  0  0  1  0  0  0  0  0999 V2000
   39.4400   28.1220   40.5560 C   0  0  0  0  0  0  0  0  0  0  0  0
   39.5010   27.7210   41.9310 C   0  0  0  0  0  0  0  0  0  0  0  0
   39.2270   28.6890   42.8780 C   0  0  0  0  0  0  0  0  0  0  0  0
   38.9180   29.9490   42.4590 N   0  0  0  0  0  0  0  0  0  0  0  0
   38.8690   30.2920   41.1630 C   0  0  0  0  0  0  0  0  0  0  0  0
   39.1330   29.3630   40.2190 N   0  0  0  0  0  0  0  0  0  0  0  0
   39.6510   27.3810   39.7950 H   0  0  0  0  0  0  0  0  0  0  0  0
   39.2510   28.4680   43.9330 H   0  0  0  0  0  0  0  0  0  0  0  0
   38.5390   31.6380   40.7110 C   0  0  0  0  0  0  0  0  0  0  0  0
   37.4850   31.7700   39.8180 C   0  0  0  0  0  0  0  0  0  0  0  0
   36.8780   30.9520   39.4220 H   0  0  0  0  0  0  0  0  0  0  0  0
   37.1530   33.0210   39.3760 C   0  0  0  0  0  0  0  0  0  0  0  0
   36.3350   33.2080   38.6720 H   0  0  0  0  0  0  0  0  0  0  0  0
   37.8620   34.1370   39.8170 C   0  0  0  0  0  3  0  0  0  0  0  0
   38.8890   33.9730   40.6910 C   0  0  0  0  0  3  0  0  0  0  0  0
   39.2090   32.7280   41.1230 N   0  0  0  0  0  0  0  0  0  0  0  0
   39.8550   26.3410   42.3240 C   0  0  1  0  0  0  0  0  0  0  0  0
   39.5270   25.8380   43.6420 C   0  0  0  0  0  0  0  0  0  0  0  0
   38.7230   25.3340   42.5000 C   0  0  1  0  0  0  0  0  0  0  0  0
   40.7710   25.9290   41.8070 H   0  0  0  0  0  0  0  0  0  0  0  0
   38.9700   26.5430   44.3250 H   0  0  0  0  0  0  0  0  0  0  0  0
   40.1840   25.1690   44.2330 H   0  0  0  0  0  0  0  0  0  0  0  0
   38.9310   24.2730   42.2410 H   0  0  0  0  0  0  0  0  0  0  0  0
   37.3090   25.7490   42.3040 C   0  0  0  0  0  0  0  0  0  0  0  0
   37.0670   26.1960   41.0170 F   0  0  0  0  0  0  0  0  0  0  0  0
   36.9320   26.7440   43.2070 F   0  0  0  0  0  0  0  0  0  0  0  0
   36.5110   24.6440   42.4980 F   0  0  0  0  0  0  0  0  0  0  0  0
  1  2  1  0  0  0  0
  2 17  1  0  0  0  0
  2  3  2  0  0  0  0
  3  8  1  0  0  0  0
  4  3  1  0  0  0  0
  5  4  2  0  0  0  0
  6  1  2  0  0  0  0
  6  5  1  0  0  0  0
  7  1  1  0  0  0  0
  9 16  1  0  0  0  0
  9  5  1  0  0  0  0
 10  9  2  0  0  0  0
 11 10  1  0  0  0  0
 12 14  2  0  0  0  0
 12 10  1  0  0  0  0
 13 12  1  0  0  0  0
 14 15  1  0  0  0  0
 15 16  2  0  0  0  0
 17 20  1  6  0  0  0
 17 19  1  0  0  0  0
 17 18  1  0  0  0  0
 18 22  1  0  0  0  0
 18 21  1  0  0  0  0
 19 23  1  6  0  0  0
 19 18  1  0  0  0  0
 24 27  1  0  0  0  0
 24 19  1  0  0  0  0
 24 26  1  0  0  0  0
 25 24  1  0  0  0  0
M  END
>  <minimizedAffinity>
-5.19606447

$$$$

 OpenBabel03242520343D

 27 29  0  0  1  0  0  0  0  0999 V2000
   39.0000   30.5670   41.0180 C   0  0  0  0  0  0  0  0  0  0  0  0
   37.6300   30.9500   40.8400 C   0  0  0  0  0  0  0  0  0  0  0  0
   36.6700   30.0070   41.1520 C   0  0  0  0  0  0  0  0  0  0  0  0
   37.0730   28.7850   41.6040 N   0  0  0  0  0  0  0  0  0  0  0  0
   38.3640   28.4570   41.7590 C   0  0  0  0  0  0  0  0  0  0  0  0
   39.3200   29.3630   41.4620 N   0  0  0  0  0  0  0  0  0  0  0  0
   39.7710   31.2900   40.7810 H   0  0  0  0  0  0  0  0  0  0  0  0
   35.6180   30.2170   41.0470 H   0  0  0  0  0  0  0  0  0  0  0  0
   38.7980   27.1530   42.2420 C   0  0  0  0  0  0  0  0  0  0  0  0
   39.7980   27.1290   43.2040 C   0  0  0  0  0  0  0  0  0  0  0  0
   40.2920   28.0050   43.6330 H   0  0  0  0  0  0  0  0  0  0  0  0
   40.2270   25.9190   43.6760 C   0  0  0  0  0  0  0  0  0  0  0  0
   41.0110   25.8170   44.4330 H   0  0  0  0  0  0  0  0  0  0  0  0
   39.6660   24.7360   43.1970 C   0  0  0  0  0  3  0  0  0  0  0  0
   38.6880   24.7940   42.2550 C   0  0  0  0  0  3  0  0  0  0  0  0
   38.2710   26.0000   41.7950 N   0  0  0  0  0  0  0  0  0  0  0  0
   37.2550   32.2880   40.3340 C   0  0  1  0  0  0  0  0  0  0  0  0
   38.2370   33.1420   39.7010 C   0  0  0  0  0  0  0  0  0  0  0  0
   37.2260   32.4990   38.8240 C   0  0  1  0  0  0  0  0  0  0  0  0
   36.4010   32.7740   40.8910 H   0  0  0  0  0  0  0  0  0  0  0  0
   39.2780   32.7200   39.5940 H   0  0  0  0  0  0  0  0  0  0  0  0
   38.2800   34.2420   39.8310 H   0  0  0  0  0  0  0  0  0  0  0  0
   36.4720   33.2070   38.4160 H   0  0  0  0  0  0  0  0  0  0  0  0
   37.5920   31.3920   37.9010 C   0  0  0  0  0  0  0  0  0  0  0  0
   36.7500   30.3010   38.0320 F   0  0  0  0  0  0  0  0  0  0  0  0
   38.9090   30.9730   38.0940 F   0  0  0  0  0  0  0  0  0  0  0  0
   37.4530   31.8500   36.6110 F   0  0  0  0  0  0  0  0  0  0  0  0
  1  6  1  0  0  0  0
  2  1  2  0  0  0  0
  2  3  1  0  0  0  0
  3  4  2  0  0  0  0
  4  5  1  0  0  0  0
  5  9  1  0  0  0  0
  6  5  2  0  0  0  0
  7  1  1  0  0  0  0
  8  3  1  0  0  0  0
  9 10  1  0  0  0  0
 10 11  1  0  0  0  0
 10 12  2  0  0  0  0
 12 13  1  0  0  0  0
 14 12  1  0  0  0  0
 15 14  2  0  0  0  0
 16  9  2  0  0  0  0
 16 15  1  0  0  0  0
 17  2  1  0  0  0  0
 17 20  1  1  0  0  0
 18 22  1  0  0  0  0
 18 17  1  0  0  0  0
 19 23  1  6  0  0  0
 19 18  1  0  0  0  0
 19 17  1  0  0  0  0
 21 18  1  0  0  0  0
 24 25  1  0  0  0  0
 24 26  1  0  0  0  0
 24 19  1  0  0  0  0
 27 24  1  0  0  0  0
M  END
>  <minimizedAffinity>
-5.03509188

$$$$

 OpenBabel03242520343D

 27 29  0  0  1  0  0  0  0  0999 V2000
   38.1190   29.9310   42.2190 C   0  0  0  0  0  0  0  0  0  0  0  0
   38.9800   30.5120   41.2310 C   0  0  0  0  0  0  0  0  0  0  0  0
   39.3060   29.7250   40.1420 C   0  0  0  0  0  0  0  0  0  0  0  0
   38.7970   28.4620   40.0700 N   0  0  0  0  0  0  0  0  0  0  0  0
   37.9930   27.9480   41.0120 C   0  0  0  0  0  0  0  0  0  0  0  0
   37.6610   28.6980   42.0850 N   0  0  0  0  0  0  0  0  0  0  0  0
   37.8500   30.5280   43.0820 H   0  0  0  0  0  0  0  0  0  0  0  0
   39.9470   30.0890   39.3560 H   0  0  0  0  0  0  0  0  0  0  0  0
   37.4480   26.5980   40.9380 C   0  0  0  0  0  0  0  0  0  0  0  0
   37.4200   25.8560   42.1100 C   0  0  0  0  0  0  0  0  0  0  0  0
   37.7710   26.1940   43.0890 H   0  0  0  0  0  0  0  0  0  0  0  0
   36.9140   24.5860   42.0710 C   0  0  0  0  0  0  0  0  0  0  0  0
   36.8570   23.9380   42.9520 H   0  0  0  0  0  0  0  0  0  0  0  0
   36.4370   24.0530   40.8750 C   0  0  0  0  0  3  0  0  0  0  0  0
   36.4800   24.8050   39.7440 C   0  0  0  0  0  3  0  0  0  0  0  0
   36.9830   26.0640   39.7960 N   0  0  0  0  0  0  0  0  0  0  0  0
   39.5110   31.8840   41.3720 C   0  0  1  0  0  0  0  0  0  0  0  0
   40.0760   32.5810   40.2360 C   0  0  0  0  0  0  0  0  0  0  0  0
   38.7400   33.0220   40.7110 C   0  0  1  0  0  0  0  0  0  0  0  0
   39.9110   32.1260   42.4010 H   0  0  0  0  0  0  0  0  0  0  0  0
   40.0580   32.0330   39.2500 H   0  0  0  0  0  0  0  0  0  0  0  0
   40.9620   33.2440   40.2910 H   0  0  0  0  0  0  0  0  0  0  0  0
   38.7500   34.0130   41.2150 H   0  0  0  0  0  0  0  0  0  0  0  0
   37.5070   32.7410   39.9300 C   0  0  0  0  0  0  0  0  0  0  0  0
   36.5670   32.0440   40.6660 F   0  0  0  0  0  0  0  0  0  0  0  0
   37.7860   32.0300   38.7620 F   0  0  0  0  0  0  0  0  0  0  0  0
   36.9350   33.9460   39.5910 F   0  0  0  0  0  0  0  0  0  0  0  0
  1  7  1  0  0  0  0
  2 17  1  0  0  0  0
  2  1  2  0  0  0  0
  3  2  1  0  0  0  0
  4  3  2  0  0  0  0
  4  5  1  0  0  0  0
  5  6  2  0  0  0  0
  6  1  1  0  0  0  0
  8  3  1  0  0  0  0
  9  5  1  0  0  0  0
  9 10  1  0  0  0  0
 10 11  1  0  0  0  0
 12 10  2  0  0  0  0
 12 13  1  0  0  0  0
 14 12  1  0  0  0  0
 15 16  1  0  0  0  0
 15 14  2  0  0  0  0
 16  9  2  0  0  0  0
 17 20  1  1  0  0  0
 18 22  1  0  0  0  0
 18 19  1  0  0  0  0
 18 17  1  0  0  0  0
 19 23  1  1  0  0  0
 19 17  1  0  0  0  0
 21 18  1  0  0  0  0
 24 25  1  0  0  0  0
 24 19  1  0  0  0  0
 26 24  1  0  0  0  0
 27 24  1  0  0  0  0
M  END
>  <minimizedAffinity>
-4.97167492

$$$$

 OpenBabel03242520343D

 27 29  0  0  1  0  0  0  0  0999 V2000
   36.4010   29.8910   40.8060 C   0  0  0  0  0  0  0  0  0  0  0  0
   37.4650   30.8450   40.6890 C   0  0  0  0  0  0  0  0  0  0  0  0
   38.7450   30.3910   40.9430 C   0  0  0  0  0  0  0  0  0  0  0  0
   38.9210   29.0820   41.2840 N   0  0  0  0  0  0  0  0  0  0  0  0
   37.9040   28.2140   41.3850 C   0  0  0  0  0  0  0  0  0  0  0  0
   36.6430   28.6360   41.1420 N   0  0  0  0  0  0  0  0  0  0  0  0
   35.3890   30.2240   40.6120 H   0  0  0  0  0  0  0  0  0  0  0  0
   39.5990   31.0450   40.8760 H   0  0  0  0  0  0  0  0  0  0  0  0
   38.0880   26.8160   41.7490 C   0  0  0  0  0  0  0  0  0  0  0  0
   36.9670   25.9980   41.7280 C   0  0  0  0  0  0  0  0  0  0  0  0
   35.9540   26.3100   41.4610 H   0  0  0  0  0  0  0  0  0  0  0  0
   37.1100   24.6800   42.0650 C   0  0  0  0  0  0  0  0  0  0  0  0
   36.2750   23.9710   42.0730 H   0  0  0  0  0  0  0  0  0  0  0  0
   38.3580   24.1740   42.4230 C   0  0  0  0  0  3  0  0  0  0  0  0
   39.4360   25.0010   42.4350 C   0  0  0  0  0  3  0  0  0  0  0  0
   39.2820   26.3070   42.0970 N   0  0  0  0  0  0  0  0  0  0  0  0
   37.2090   32.2560   40.3280 C   0  0  1  0  0  0  0  0  0  0  0  0
   38.2730   33.0960   39.8200 C   0  0  0  0  0  0  0  0  0  0  0  0
   37.2470   32.6350   38.8510 C   0  0  1  0  0  0  0  0  0  0  0  0
   36.3760   32.7430   40.9150 H   0  0  0  0  0  0  0  0  0  0  0  0
   39.2820   32.6070   39.6920 H   0  0  0  0  0  0  0  0  0  0  0  0
   38.3940   34.1670   40.0760 H   0  0  0  0  0  0  0  0  0  0  0  0
   36.5620   33.4410   38.5080 H   0  0  0  0  0  0  0  0  0  0  0  0
   37.5580   31.6120   37.8190 C   0  0  0  0  0  0  0  0  0  0  0  0
   36.6450   30.5720   37.8180 F   0  0  0  0  0  0  0  0  0  0  0  0
   38.8410   31.0870   37.9820 F   0  0  0  0  0  0  0  0  0  0  0  0
   37.4770   32.2140   36.5840 F   0  0  0  0  0  0  0  0  0  0  0  0
  1  6  1  0  0  0  0
  2  1  2  0  0  0  0
  2  3  1  0  0  0  0
  3  4  2  0  0  0  0
  4  5  1  0  0  0  0
  5  9  1  0  0  0  0
  6  5  2  0  0  0  0
  7  1  1  0  0  0  0
  8  3  1  0  0  0  0
  9 16  1  0  0  0  0
 10  9  2  0  0  0  0
 10 12  1  0  0  0  0
 11 10  1  0  0  0  0
 12 13  1  0  0  0  0
 12 14  2  0  0  0  0
 14 15  1  0  0  0  0
 16 15  2  0  0  0  0
 17  2  1  0  0  0  0
 17 20  1  1  0  0  0
 18 22  1  0  0  0  0
 18 17  1  0  0  0  0
 19 23  1  6  0  0  0
 19 18  1  0  0  0  0
 19 17  1  0  0  0  0
 21 18  1  0  0  0  0
 24 26  1  0  0  0  0
 24 19  1  0  0  0  0
 25 24  1  0  0  0  0
 27 24  1  0  0  0  0
M  END
>  <minimizedAffinity>
-4.93998718

$$$$

 OpenBabel03242520343D

 27 29  0  0  1  0  0  0  0  0999 V2000
   39.0410   27.7120   41.1240 C   0  0  0  0  0  0  0  0  0  0  0  0
   37.9240   27.0970   41.7790 C   0  0  0  0  0  0  0  0  0  0  0  0
   36.8390   27.9050   42.0590 C   0  0  0  0  0  0  0  0  0  0  0  0
   36.8910   29.2200   41.7030 N   0  0  0  0  0  0  0  0  0  0  0  0
   37.9520   29.7660   41.0920 C   0  0  0  0  0  0  0  0  0  0  0  0
   39.0250   28.9950   40.8070 N   0  0  0  0  0  0  0  0  0  0  0  0
   39.9040   27.0990   40.8940 H   0  0  0  0  0  0  0  0  0  0  0  0
   35.9600   27.5180   42.5480 H   0  0  0  0  0  0  0  0  0  0  0  0
   38.0110   31.1710   40.7090 C   0  0  0  0  0  0  0  0  0  0  0  0
   37.0850   31.6170   39.7770 C   0  0  0  0  0  0  0  0  0  0  0  0
   36.3130   31.0070   39.3010 H   0  0  0  0  0  0  0  0  0  0  0  0
   37.1160   32.9310   39.3980 C   0  0  0  0  0  0  0  0  0  0  0  0
   36.4210   33.3590   38.6680 H   0  0  0  0  0  0  0  0  0  0  0  0
   38.0610   33.8000   39.9410 C   0  0  0  0  0  3  0  0  0  0  0  0
   38.9540   33.3320   40.8520 C   0  0  0  0  0  3  0  0  0  0  0  0
   38.9130   32.0260   41.2200 N   0  0  0  0  0  0  0  0  0  0  0  0
   37.9320   25.6660   42.1520 C   0  0  1  0  0  0  0  0  0  0  0  0
   36.6930   24.9350   42.3110 C   0  0  0  0  0  0  0  0  0  0  0  0
   37.5030   24.6490   41.1000 C   0  0  1  0  0  0  0  0  0  0  0  0
   38.8230   25.3510   42.7710 H   0  0  0  0  0  0  0  0  0  0  0  0
   35.7410   25.5060   42.1070 H   0  0  0  0  0  0  0  0  0  0  0  0
   36.5210   24.1670   43.0910 H   0  0  0  0  0  0  0  0  0  0  0  0
   37.9940   23.6520   41.1150 H   0  0  0  0  0  0  0  0  0  0  0  0
   37.0670   25.0990   39.7510 C   0  0  0  0  0  0  0  0  0  0  0  0
   36.1600   26.1410   39.8140 F   0  0  0  0  0  0  0  0  0  0  0  0
   36.5070   24.0550   39.0140 F   0  0  0  0  0  0  0  0  0  0  0  0
   38.1730   25.5730   39.0830 F   0  0  0  0  0  0  0  0  0  0  0  0
  1  2  1  0  0  0  0
  2  3  2  0  0  0  0
  2 17  1  0  0  0  0
  3  8  1  0  0  0  0
  4  3  1  0  0  0  0
  5  4  2  0  0  0  0
  6  5  1  0  0  0  0
  6  1  2  0  0  0  0
  7  1  1  0  0  0  0
  9  5  1  0  0  0  0
  9 16  1  0  0  0  0
 10  9  2  0  0  0  0
 11 10  1  0  0  0  0
 12 10  1  0  0  0  0
 12 14  2  0  0  0  0
 13 12  1  0  0  0  0
 14 15  1  0  0  0  0
 15 16  2  0  0  0  0
 17 18  1  0  0  0  0
 17 20  1  1  0  0  0
 18 22  1  0  0  0  0
 19 23  1  1  0  0  0
 19 17  1  0  0  0  0
 19 18  1  0  0  0  0
 21 18  1  0  0  0  0
 24 25  1  0  0  0  0
 24 19  1  0  0  0  0
 26 24  1  0  0  0  0
 27 24  1  0  0  0  0
M  END
>  <minimizedAffinity>
-4.83216906

$$$$

 OpenBabel03242520343D

 27 29  0  0  1  0  0  0  0  0999 V2000
   39.8380   28.7190   42.0700 C   0  0  0  0  0  0  0  0  0  0  0  0
   38.4720   28.7020   42.5050 C   0  0  0  0  0  0  0  0  0  0  0  0
   37.6810   29.7720   42.1320 C   0  0  0  0  0  0  0  0  0  0  0  0
   38.2360   30.7680   41.3830 N   0  0  0  0  0  0  0  0  0  0  0  0
   39.5190   30.7540   40.9930 C   0  0  0  0  0  0  0  0  0  0  0  0
   40.3110   29.7180   41.3450 N   0  0  0  0  0  0  0  0  0  0  0  0
   40.4770   27.8910   42.3510 H   0  0  0  0  0  0  0  0  0  0  0  0
   36.6440   29.8330   42.4180 H   0  0  0  0  0  0  0  0  0  0  0  0
   40.1150   31.8170   40.1920 C   0  0  0  0  0  0  0  0  0  0  0  0
   40.4370   31.5180   38.8760 C   0  0  0  0  0  0  0  0  0  0  0  0
   40.2830   30.5550   38.3830 H   0  0  0  0  0  0  0  0  0  0  0  0
   40.9980   32.4950   38.1000 C   0  0  0  0  0  0  0  0  0  0  0  0
   41.2800   32.3390   37.0530 H   0  0  0  0  0  0  0  0  0  0  0  0
   41.2400   33.7630   38.6260 C   0  0  0  0  0  3  0  0  0  0  0  0
   40.9130   34.0220   39.9200 C   0  0  0  0  0  3  0  0  0  0  0  0
   40.3560   33.0450   40.6790 N   0  0  0  0  0  0  0  0  0  0  0  0
   37.9310   27.5990   43.3270 C   0  0  1  0  0  0  0  0  0  0  0  0
   36.5030   27.4060   43.4630 C   0  0  0  0  0  0  0  0  0  0  0  0
   37.2430   26.4420   42.6110 C   0  0  1  0  0  0  0  0  0  0  0  0
   38.5970   27.2880   44.1850 H   0  0  0  0  0  0  0  0  0  0  0  0
   35.8420   28.1190   42.8890 H   0  0  0  0  0  0  0  0  0  0  0  0
   36.0040   27.0920   44.4010 H   0  0  0  0  0  0  0  0  0  0  0  0
   37.3350   25.4280   43.0590 H   0  0  0  0  0  0  0  0  0  0  0  0
   37.1040   26.4490   41.1300 C   0  0  0  0  0  0  0  0  0  0  0  0
   36.5370   25.2820   40.6510 F   0  0  0  0  0  0  0  0  0  0  0  0
   38.3320   26.6490   40.4980 F   0  0  0  0  0  0  0  0  0  0  0  0
   36.2540   27.4750   40.7880 F   0  0  0  0  0  0  0  0  0  0  0  0
  1  7  1  0  0  0  0
  1  2  1  0  0  0  0
  2 17  1  0  0  0  0
  3  8  1  0  0  0  0
  3  2  2  0  0  0  0
  4  3  1  0  0  0  0
  5  6  1  0  0  0  0
  5  4  2  0  0  0  0
  6  1  2  0  0  0  0
  9 16  1  0  0  0  0
  9  5  1  0  0  0  0
 10  9  2  0  0  0  0
 11 10  1  0  0  0  0
 12 14  2  0  0  0  0
 12 10  1  0  0  0  0
 13 12  1  0  0  0  0
 14 15  1  0  0  0  0
 15 16  2  0  0  0  0
 17 18  1  0  0  0  0
 17 20  1  1  0  0  0
 18 22  1  0  0  0  0
 19 23  1  1  0  0  0
 19 17  1  0  0  0  0
 19 18  1  0  0  0  0
 21 18  1  0  0  0  0
 24 19  1  0  0  0  0
 25 24  1  0  0  0  0
 26 24  1  0  0  0  0
 27 24  1  0  0  0  0
M  END
>  <minimizedAffinity>
-4.79603243

$$$$

 OpenBabel03242520343D

 27 29  0  0  1  0  0  0  0  0999 V2000
   38.0300   30.0030   38.6070 C   0  0  0  0  0  0  0  0  0  0  0  0
   36.8880   30.5210   39.3030 C   0  0  0  0  0  0  0  0  0  0  0  0
   36.9830   31.8110   39.7900 C   0  0  0  0  0  0  0  0  0  0  0  0
   38.1370   32.5070   39.5840 N   0  0  0  0  0  0  0  0  0  0  0  0
   39.1880   31.9930   38.9290 C   0  0  0  0  0  0  0  0  0  0  0  0
   39.1190   30.7340   38.4430 N   0  0  0  0  0  0  0  0  0  0  0  0
   37.9800   28.9940   38.2160 H   0  0  0  0  0  0  0  0  0  0  0  0
   36.1680   32.2730   40.3230 H   0  0  0  0  0  0  0  0  0  0  0  0
   40.4230   32.7350   38.7070 C   0  0  0  0  0  0  0  0  0  0  0  0
   40.9420   33.4440   39.7810 C   0  0  0  0  0  0  0  0  0  0  0  0
   40.5070   33.4970   40.7820 H   0  0  0  0  0  0  0  0  0  0  0  0
   42.1000   34.1510   39.6030 C   0  0  0  0  0  0  0  0  0  0  0  0
   42.5720   34.7350   40.3990 H   0  0  0  0  0  0  0  0  0  0  0  0
   42.7410   34.1540   38.3650 C   0  0  0  0  0  3  0  0  0  0  0  0
   42.2060   33.4490   37.3340 C   0  0  0  0  0  3  0  0  0  0  0  0
   41.0580   32.7520   37.5230 N   0  0  0  0  0  0  0  0  0  0  0  0
   35.6680   29.7110   39.5060 C   0  0  1  0  0  0  0  0  0  0  0  0
   35.7000   28.2720   39.3620 C   0  0  0  0  0  0  0  0  0  0  0  0
   35.5980   28.8170   40.7390 C   0  0  1  0  0  0  0  0  0  0  0  0
   34.7050   30.2520   39.2650 H   0  0  0  0  0  0  0  0  0  0  0  0
   36.7030   27.8130   39.1190 H   0  0  0  0  0  0  0  0  0  0  0  0
   34.8840   27.6740   38.9100 H   0  0  0  0  0  0  0  0  0  0  0  0
   34.6030   28.6620   41.2090 H   0  0  0  0  0  0  0  0  0  0  0  0
   36.7420   28.7510   41.6860 C   0  0  0  0  0  0  0  0  0  0  0  0
   37.0040   29.9730   42.2790 F   0  0  0  0  0  0  0  0  0  0  0  0
   37.9040   28.2930   41.0630 F   0  0  0  0  0  0  0  0  0  0  0  0
   36.4070   27.8810   42.6980 F   0  0  0  0  0  0  0  0  0  0  0  0
  1  2  1  0  0  0  0
  2 17  1  0  0  0  0
  2  3  2  0  0  0  0
  3  8  1  0  0  0  0
  4  3  1  0  0  0  0
  5  4  2  0  0  0  0
  6  1  2  0  0  0  0
  6  5  1  0  0  0  0
  7  1  1  0  0  0  0
  9  5  1  0  0  0  0
  9 10  1  0  0  0  0
 10 11  1  0  0  0  0
 12 10  2  0  0  0  0
 12 13  1  0  0  0  0
 14 12  1  0  0  0  0
 15 16  1  0  0  0  0
 15 14  2  0  0  0  0
 16  9  2  0  0  0  0
 17 20  1  6  0  0  0
 17 19  1  0  0  0  0
 18 17  1  0  0  0  0
 18 19  1  0  0  0  0
 19 23  1  1  0  0  0
 19 24  1  0  0  0  0
 21 18  1  0  0  0  0
 22 18  1  0  0  0  0
 24 25  1  0  0  0  0
 24 27  1  0  0  0  0
 26 24  1  0  0  0  0
M  END
>  <minimizedAffinity>
-4.74142551

$$$$

 OpenBabel03242520343D

 27 29  0  0  1  0  0  0  0  0999 V2000
   38.1650   29.8630   38.7180 C   0  0  0  0  0  0  0  0  0  0  0  0
   37.4290   30.9550   39.2840 C   0  0  0  0  0  0  0  0  0  0  0  0
   36.5360   30.6520   40.2940 C   0  0  0  0  0  0  0  0  0  0  0  0
   36.4080   29.3540   40.6890 N   0  0  0  0  0  0  0  0  0  0  0  0
   37.1120   28.3540   40.1380 C   0  0  0  0  0  0  0  0  0  0  0  0
   37.9920   28.6260   39.1500 N   0  0  0  0  0  0  0  0  0  0  0  0
   38.8720   30.0750   37.9250 H   0  0  0  0  0  0  0  0  0  0  0  0
   35.9450   31.4170   40.7710 H   0  0  0  0  0  0  0  0  0  0  0  0
   36.9780   26.9650   40.5580 C   0  0  0  0  0  0  0  0  0  0  0  0
   37.1440   26.6880   41.9080 C   0  0  0  0  0  0  0  0  0  0  0  0
   37.3680   27.4210   42.6880 H   0  0  0  0  0  0  0  0  0  0  0  0
   37.0250   25.3930   42.3320 C   0  0  0  0  0  0  0  0  0  0  0  0
   37.1420   25.0940   43.3790 H   0  0  0  0  0  0  0  0  0  0  0  0
   36.7410   24.3760   41.4230 C   0  0  0  0  0  3  0  0  0  0  0  0
   36.5840   24.6800   40.1080 C   0  0  0  0  0  3  0  0  0  0  0  0
   36.7050   25.9690   39.6990 N   0  0  0  0  0  0  0  0  0  0  0  0
   37.6020   32.3430   38.8040 C   0  0  1  0  0  0  0  0  0  0  0  0
   37.2950   33.4680   39.6600 C   0  0  0  0  0  0  0  0  0  0  0  0
   38.7280   33.1750   39.4090 C   0  0  1  0  0  0  0  0  0  0  0  0
   37.4750   32.4690   37.6880 H   0  0  0  0  0  0  0  0  0  0  0  0
   36.9490   33.2240   40.7070 H   0  0  0  0  0  0  0  0  0  0  0  0
   36.8210   34.4060   39.3080 H   0  0  0  0  0  0  0  0  0  0  0  0
   39.2290   33.9200   38.7530 H   0  0  0  0  0  0  0  0  0  0  0  0
   39.6010   32.6030   40.4680 C   0  0  0  0  0  0  0  0  0  0  0  0
   40.3460   31.5310   40.0120 F   0  0  0  0  0  0  0  0  0  0  0  0
   38.8640   32.2010   41.5830 F   0  0  0  0  0  0  0  0  0  0  0  0
   40.4960   33.5760   40.8520 F   0  0  0  0  0  0  0  0  0  0  0  0
  1  6  2  0  0  0  0
  1  2  1  0  0  0  0
  2  3  2  0  0  0  0
  3  4  1  0  0  0  0
  3  8  1  0  0  0  0
  5  9  1  0  0  0  0
  5  4  2  0  0  0  0
  6  5  1  0  0  0  0
  7  1  1  0  0  0  0
  9 10  1  0  0  0  0
 10 12  2  0  0  0  0
 10 11  1  0  0  0  0
 12 13  1  0  0  0  0
 14 12  1  0  0  0  0
 15 14  2  0  0  0  0
 16 15  1  0  0  0  0
 16  9  2  0  0  0  0
 17 20  1  6  0  0  0
 17  2  1  0  0  0  0
 17 19  1  0  0  0  0
 17 18  1  0  0  0  0
 18 21  1  0  0  0  0
 19 23  1  6  0  0  0
 19 18  1  0  0  0  0
 19 24  1  0  0  0  0
 22 18  1  0  0  0  0
 24 27  1  0  0  0  0
 24 26  1  0  0  0  0
 25 24  1  0  0  0  0
M  END
>  <minimizedAffinity>
-4.73276186

$$$$
