
 OpenBabel03252504263D

 21 22  0  0  0  0  0  0  0  0999 V2000
   43.6150   35.5700   41.4220 C   0  0  0  0  0  0  0  0  0  0  0  0
   44.0220   36.5850   41.2210 H   0  0  0  0  0  0  0  0  0  0  0  0
   43.8900   34.9810   40.5060 H   0  0  0  0  0  0  0  0  0  0  0  0
   44.2820   35.8520   43.7230 C   0  0  0  0  0  0  0  0  0  0  0  0
   44.2170   34.9950   42.6290 C   0  0  0  0  0  0  0  0  0  0  0  0
   44.7180   33.7190   42.7920 C   0  0  0  0  0  0  0  0  0  0  0  0
   45.2290   33.3870   43.9780 N   0  0  0  0  0  0  0  0  0  0  0  0
   45.2880   34.2220   45.0340 C   0  0  0  0  0  0  0  0  0  0  0  0
   44.8100   35.4980   44.9370 N   0  0  0  0  0  0  0  0  0  0  0  0
   43.9160   36.8800   43.7050 H   0  0  0  0  0  0  0  0  0  0  0  0
   44.6560   33.0830   41.9380 H   0  0  0  0  0  0  0  0  0  0  0  0
   45.7450   33.7440   45.9040 H   0  0  0  0  0  0  0  0  0  0  0  0
   42.2320   35.6370   41.4640 O   0  0  0  0  0  0  0  0  0  0  0  0
   41.4850   35.2790   40.3570 C   0  0  0  0  0  0  0  0  0  0  0  0
   40.1400   35.1340   40.7030 C   0  0  0  0  0  0  0  0  0  0  0  0
   39.6960   35.2720   41.6970 H   0  0  0  0  0  0  0  0  0  0  0  0
   39.1940   34.7740   39.7420 C   0  0  0  0  0  0  0  0  0  0  0  0
   38.1400   34.6480   39.9570 H   0  0  0  0  0  0  0  0  0  0  0  0
   39.6250   34.5700   38.4520 C   0  0  0  0  0  0  0  0  0  0  0  0
   40.9820   34.7280   38.1500 C   0  0  0  0  0  0  0  0  0  0  0  0
   41.8640   35.0730   39.0970 N   0  0  0  0  0  0  0  0  0  0  0  0
  1 13  1  0  0  0  0
  1  5  1  0  0  0  0
  2  1  1  0  0  0  0
  3  1  1  0  0  0  0
  4  9  1  0  0  0  0
  5  6  1  0  0  0  0
  5  4  2  0  0  0  0
  6  7  2  0  0  0  0
  7  8  1  0  0  0  0
  8 12  1  0  0  0  0
  9  8  2  0  0  0  0
 10  4  1  0  0  0  0
 11  6  1  0  0  0  0
 14 15  1  0  0  0  0
 14 13  1  0  0  0  0
 15 16  1  0  0  0  0
 17 18  1  0  0  0  0
 17 15  2  0  0  0  0
 19 17  1  0  0  0  0
 20 19  2  0  0  0  0
 20 21  1  0  0  0  0
 21 14  2  0  0  0  0
M  END
>  <minimizedAffinity>
-4.50276518

>  <minimizedRMSD>
1.6311413

$$$$
