
 OpenBabel03252509123D

 31 34  0  0  0  0  0  0  0  0999 V2000
   47.5060   31.2400   44.9830 C   0  0  0  0  0  0  0  0  0  0  0  0
   47.2530   32.2990   44.1030 C   0  0  0  0  0  0  0  0  0  0  0  0
   46.4390   33.3510   44.4320 C   0  0  0  0  0  0  0  0  0  0  0  0
   45.8240   33.3940   45.6950 C   0  0  0  0  0  0  0  0  0  0  0  0
   44.9930   34.2360   46.3450 N   0  0  0  0  0  0  0  0  0  0  0  0
   44.7260   33.7500   47.5710 C   0  0  0  0  0  0  0  0  0  0  0  0
   45.4160   32.5860   47.6600 N   0  0  0  0  0  0  0  0  0  0  0  0
   46.0900   32.3460   46.5330 C   0  0  0  0  0  0  0  0  0  0  0  0
   46.9030   31.2680   46.2390 C   0  0  0  0  0  0  0  0  0  0  0  0
   48.1520   30.4270   44.6900 H   0  0  0  0  0  0  0  0  0  0  0  0
   44.6280   35.1180   45.9390 H   0  0  0  0  0  0  0  0  0  0  0  0
   44.0830   34.2280   48.3100 H   0  0  0  0  0  0  0  0  0  0  0  0
   47.0650   30.4760   46.9580 H   0  0  0  0  0  0  0  0  0  0  0  0
   47.8130   31.6970   40.5290 C   0  0  0  0  0  0  0  0  0  0  0  0
   49.0810   32.2580   40.3250 C   0  0  0  0  0  0  0  0  0  0  0  0
   49.7280   32.8350   41.4130 C   0  0  0  0  0  0  0  0  0  0  0  0
   49.0970   32.8270   42.6310 N   0  0  0  0  0  0  0  0  0  0  0  0
   47.8780   32.2790   42.7850 C   0  0  0  0  0  0  0  0  0  0  0  0
   47.2120   31.7050   41.7470 N   0  0  0  0  0  0  0  0  0  0  0  0
   47.2040   31.2200   39.7710 H   0  0  0  0  0  0  0  0  0  0  0  0
   49.4810   32.2080   39.3310 H   0  0  0  0  0  0  0  0  0  0  0  0
   50.7070   33.2690   41.2620 H   0  0  0  0  0  0  0  0  0  0  0  0
   46.1240   34.6960   43.3160 S   0  0  0  0  0  0  0  0  0  0  0  0
   44.6020   34.5040   42.4000 C   0  0  0  0  0  0  0  0  0  0  0  0
   43.8980   35.5840   41.8850 C   0  0  0  0  0  0  0  0  0  0  0  0
   44.2830   36.5860   42.0410 H   0  0  0  0  0  0  0  0  0  0  0  0
   42.7220   35.4120   41.1800 C   0  0  0  0  0  0  0  0  0  0  0  0
   42.1530   36.2300   40.7670 H   0  0  0  0  0  0  0  0  0  0  0  0
   42.2010   34.1390   40.9620 C   0  0  0  0  0  3  0  0  0  0  0  0
   42.9260   33.0930   41.4880 C   0  0  0  0  0  3  0  0  0  0  0  0
   44.0550   33.2820   42.1630 N   0  0  0  0  0  0  0  0  0  0  0  0
  1  9  1  0  0  0  0
  2  3  1  0  0  0  0
  2  1  2  0  0  0  0
  3  4  2  0  0  0  0
  4  5  1  0  0  0  0
  4  8  1  0  0  0  0
  5  6  1  0  0  0  0
  6  7  2  0  0  0  0
  6 12  1  0  0  0  0
  8  7  1  0  0  0  0
  9  8  2  0  0  0  0
  9 13  1  0  0  0  0
 10  1  1  0  0  0  0
 11  5  1  0  0  0  0
 14 19  1  0  0  0  0
 15 14  2  0  0  0  0
 15 16  1  0  0  0  0
 16 17  2  0  0  0  0
 17 18  1  0  0  0  0
 18  2  1  0  0  0  0
 19 18  2  0  0  0  0
 20 14  1  0  0  0  0
 21 15  1  0  0  0  0
 22 16  1  0  0  0  0
 23  3  1  0  0  0  0
 24 23  1  0  0  0  0
 25 26  1  0  0  0  0
 25 24  2  0  0  0  0
 27 25  1  0  0  0  0
 28 27  1  0  0  0  0
 29 27  2  0  0  0  0
 29 30  1  0  0  0  0
 30 31  2  0  0  0  0
 31 24  1  0  0  0  0
M  END
>  <minimizedAffinity>
-4.95677662

>  <minimizedRMSD>
1.97087502

$$$$
