
 OpenBabel03252509123D

 31 34  0  0  0  0  0  0  0  0999 V2000
   47.5060   31.2400   44.9820 C   0  0  0  0  0  0  0  0  0  0  0  0
   47.2530   32.2990   44.1020 C   0  0  0  0  0  0  0  0  0  0  0  0
   46.4380   33.3520   44.4310 C   0  0  0  0  0  0  0  0  0  0  0  0
   45.8240   33.3940   45.6940 C   0  0  0  0  0  0  0  0  0  0  0  0
   44.9920   34.2360   46.3430 N   0  0  0  0  0  0  0  0  0  0  0  0
   44.7250   33.7510   47.5700 C   0  0  0  0  0  0  0  0  0  0  0  0
   45.4160   32.5860   47.6590 N   0  0  0  0  0  0  0  0  0  0  0  0
   46.0900   32.3470   46.5320 C   0  0  0  0  0  0  0  0  0  0  0  0
   46.9020   31.2680   46.2380 C   0  0  0  0  0  0  0  0  0  0  0  0
   48.1520   30.4270   44.6890 H   0  0  0  0  0  0  0  0  0  0  0  0
   44.6280   35.1180   45.9380 H   0  0  0  0  0  0  0  0  0  0  0  0
   44.0830   34.2280   48.3090 H   0  0  0  0  0  0  0  0  0  0  0  0
   47.0640   30.4770   46.9570 H   0  0  0  0  0  0  0  0  0  0  0  0
   47.8120   31.6980   40.5280 C   0  0  0  0  0  0  0  0  0  0  0  0
   49.0810   32.2570   40.3240 C   0  0  0  0  0  0  0  0  0  0  0  0
   49.7280   32.8330   41.4120 C   0  0  0  0  0  0  0  0  0  0  0  0
   49.0970   32.8260   42.6300 N   0  0  0  0  0  0  0  0  0  0  0  0
   47.8780   32.2790   42.7840 C   0  0  0  0  0  0  0  0  0  0  0  0
   47.2110   31.7060   41.7460 N   0  0  0  0  0  0  0  0  0  0  0  0
   47.2030   31.2210   39.7700 H   0  0  0  0  0  0  0  0  0  0  0  0
   49.4800   32.2080   39.3300 H   0  0  0  0  0  0  0  0  0  0  0  0
   50.7080   33.2670   41.2610 H   0  0  0  0  0  0  0  0  0  0  0  0
   46.1240   34.6960   43.3140 S   0  0  0  0  0  0  0  0  0  0  0  0
   44.6010   34.5050   42.3990 C   0  0  0  0  0  0  0  0  0  0  0  0
   43.8980   35.5850   41.8840 C   0  0  0  0  0  0  0  0  0  0  0  0
   44.2830   36.5860   42.0400 H   0  0  0  0  0  0  0  0  0  0  0  0
   42.7210   35.4130   41.1790 C   0  0  0  0  0  0  0  0  0  0  0  0
   42.1520   36.2310   40.7670 H   0  0  0  0  0  0  0  0  0  0  0  0
   42.2000   34.1390   40.9620 C   0  0  0  0  0  3  0  0  0  0  0  0
   42.9250   33.0930   41.4880 C   0  0  0  0  0  3  0  0  0  0  0  0
   44.0540   33.2820   42.1630 N   0  0  0  0  0  0  0  0  0  0  0  0
  1  9  1  0  0  0  0
  2  3  1  0  0  0  0
  2  1  2  0  0  0  0
  3  4  2  0  0  0  0
  4  5  1  0  0  0  0
  4  8  1  0  0  0  0
  5  6  1  0  0  0  0
  6  7  2  0  0  0  0
  6 12  1  0  0  0  0
  8  7  1  0  0  0  0
  9  8  2  0  0  0  0
  9 13  1  0  0  0  0
 10  1  1  0  0  0  0
 11  5  1  0  0  0  0
 14 19  1  0  0  0  0
 15 14  2  0  0  0  0
 15 16  1  0  0  0  0
 16 17  2  0  0  0  0
 17 18  1  0  0  0  0
 18  2  1  0  0  0  0
 19 18  2  0  0  0  0
 20 14  1  0  0  0  0
 21 15  1  0  0  0  0
 22 16  1  0  0  0  0
 23  3  1  0  0  0  0
 24 23  1  0  0  0  0
 25 26  1  0  0  0  0
 25 24  2  0  0  0  0
 27 25  1  0  0  0  0
 28 27  1  0  0  0  0
 29 27  2  0  0  0  0
 29 30  1  0  0  0  0
 30 31  2  0  0  0  0
 31 24  1  0  0  0  0
M  END
>  <minimizedAffinity>
-4.95968771

>  <minimizedRMSD>
1.94929051

$$$$
