
 OpenBabel03252501023D

 30 32  0  0  1  0  0  0  0  0999 V2000
   48.0670   35.4680   41.8140 C   0  0  1  0  0  0  0  0  0  0  0  0
   49.3270   34.6940   41.6820 C   0  0  0  0  0  0  0  0  0  0  0  0
   48.4980   35.0700   40.4630 C   0  0  1  0  0  0  0  0  0  0  0  0
   48.0830   36.5510   42.0750 H   0  0  0  0  0  0  0  0  0  0  0  0
   49.3710   33.5950   41.8100 H   0  0  0  0  0  0  0  0  0  0  0  0
   50.3130   35.1930   41.8450 H   0  0  0  0  0  0  0  0  0  0  0  0
   49.0390   35.8050   39.8350 H   0  0  0  0  0  0  0  0  0  0  0  0
   46.0490   32.9380   43.7550 C   0  0  0  0  0  0  0  0  0  0  0  0
   47.1550   33.6230   43.2310 C   0  0  0  0  0  0  0  0  0  0  0  0
   46.9180   34.7220   42.4020 C   0  0  0  0  0  0  0  0  0  0  0  0
   45.6330   35.0900   42.1290 N   0  0  0  0  0  0  0  0  0  0  0  0
   44.5860   34.4070   42.6510 C   0  0  0  0  0  0  0  0  0  0  0  0
   44.7930   33.3320   43.4630 N   0  0  0  0  0  0  0  0  0  0  0  0
   46.0910   32.0850   44.4000 H   0  0  0  0  0  0  0  0  0  0  0  0
   48.1310   33.2580   43.5080 H   0  0  0  0  0  0  0  0  0  0  0  0
   43.5880   34.7610   42.3870 H   0  0  0  0  0  0  0  0  0  0  0  0
   47.7400   34.1890   39.7950 O   0  0  0  0  0  0  0  0  0  0  0  0
   48.5140   32.3960   37.9960 O   0  0  0  0  0  0  0  0  0  0  0  0
   48.1080   33.8320   38.2380 P   0  0  2  0  0  0  0  0  0  0  0  0
   49.3330   34.8000   37.5770 O   0  0  0  0  0  0  0  0  0  0  0  0
   49.3190   34.7580   36.5920 H   0  0  0  0  0  0  0  0  0  0  0  0
   46.7380   34.0720   37.2720 O   0  0  0  0  0  0  0  0  0  0  0  0
   45.7930   33.0890   37.0220 C   0  0  0  0  0  0  0  0  0  0  0  0
   45.6570   32.2860   35.9090 C   0  0  0  0  0  0  0  0  0  0  0  0
   46.4130   32.4740   35.1350 H   0  0  0  0  0  0  0  0  0  0  0  0
   44.6600   31.3560   35.8170 C   0  0  0  0  0  0  0  0  0  0  0  0
   44.6340   30.7720   34.9040 H   0  0  0  0  0  0  0  0  0  0  0  0
   43.7560   31.1970   36.8460 C   0  0  0  0  0  0  0  0  0  0  0  0
   43.9250   32.0270   37.9570 C   0  0  0  0  0  0  0  0  0  0  0  0
   44.9190   32.9420   38.0300 N   0  0  0  0  0  0  0  0  0  0  0  0
  1  4  1  1  0  0  0
  1 10  1  0  0  0  0
  2  5  1  0  0  0  0
  2  1  1  0  0  0  0
  2  6  1  0  0  0  0
  3  7  1  6  0  0  0
  3  2  1  0  0  0  0
  3  1  1  0  0  0  0
  8 14  1  0  0  0  0
  9 15  1  0  0  0  0
  9  8  2  0  0  0  0
 10  9  1  0  0  0  0
 11 10  2  0  0  0  0
 11 12  1  0  0  0  0
 12 13  2  0  0  0  0
 13  8  1  0  0  0  0
 16 12  1  0  0  0  0
 17  3  1  0  0  0  0
 19 18  2  6  0  0  0
 19 17  1  0  0  0  0
 20 19  1  0  0  0  0
 21 20  1  0  0  0  0
 22 19  1  0  0  0  0
 23 22  1  0  0  0  0
 23 30  1  0  0  0  0
 24 23  2  0  0  0  0
 25 24  1  0  0  0  0
 26 24  1  0  0  0  0
 26 28  2  0  0  0  0
 27 26  1  0  0  0  0
 28 29  1  0  0  0  0
 29 30  2  0  0  0  0
M  END
>  <minimizedAffinity>
-4.29455519

>  <minimizedRMSD>
1.17110717

$$$$
