
 OpenBabel03242513543D

 18 19  0  0  0  0  0  0  0  0999 V2000
   44.9860   33.4390   47.3140 C   0  0  0  0  0  0  0  0  0  0  0  0
   45.6060   33.6750   46.0830 C   0  0  0  0  0  0  0  0  0  0  0  0
   46.7600   32.9170   45.7980 C   0  0  0  0  0  0  0  0  0  0  0  0
   47.1930   32.0290   46.7110 N   0  0  0  0  0  0  0  0  0  0  0  0
   46.5710   31.8270   47.8900 C   0  0  0  0  0  0  0  0  0  0  0  0
   45.4570   32.5500   48.1780 N   0  0  0  0  0  0  0  0  0  0  0  0
   44.1010   34.0460   47.4890 H   0  0  0  0  0  0  0  0  0  0  0  0
   47.3110   33.0250   44.8730 H   0  0  0  0  0  0  0  0  0  0  0  0
   46.9970   31.0970   48.5440 H   0  0  0  0  0  0  0  0  0  0  0  0
   45.1770   34.5780   45.1380 O   0  0  0  0  0  0  0  0  0  0  0  0
   45.4020   34.2350   43.8100 C   0  0  0  0  0  0  0  0  0  0  0  0
   44.7490   33.2240   43.1230 C   0  0  0  0  0  0  0  0  0  0  0  0
   44.0080   32.6650   43.6760 H   0  0  0  0  0  0  0  0  0  0  0  0
   45.0760   32.9910   41.7950 C   0  0  0  0  0  0  0  0  0  0  0  0
   44.5650   32.2020   41.2630 H   0  0  0  0  0  0  0  0  0  0  0  0
   46.0460   33.7980   41.2400 C   0  0  0  0  0  0  0  0  0  0  0  0
   46.6980   34.8050   41.9180 C   0  0  0  0  0  0  0  0  0  0  0  0
   46.3400   34.9840   43.2020 N   0  0  0  0  0  0  0  0  0  0  0  0
  1  7  1  0  0  0  0
  1  6  1  0  0  0  0
  2  1  2  0  0  0  0
  3  2  1  0  0  0  0
  3  4  2  0  0  0  0
  4  5  1  0  0  0  0
  5  6  2  0  0  0  0
  5  9  1  0  0  0  0
  8  3  1  0  0  0  0
 10  2  1  0  0  0  0
 11 10  1  0  0  0  0
 12 13  1  0  0  0  0
 12 11  2  0  0  0  0
 14 12  1  0  0  0  0
 15 14  1  0  0  0  0
 16 14  2  0  0  0  0
 16 17  1  0  0  0  0
 17 18  2  0  0  0  0
 18 11  1  0  0  0  0
M  END
>  <minimizedAffinity>
-3.31013918

>  <minimizedRMSD>
4.60008001

$$$$
