
 OpenBabel03242523193D

 50 55  0  0  0  0  0  0  0  0999 V2000
   44.7210   31.8210   42.7390 Cl  0  0  0  0  0  0  0  0  0  0  0  0
   44.6700   33.5870   42.7480 C   0  0  0  0  0  0  0  0  0  0  0  0
   45.4540   34.2060   43.7420 C   0  0  0  0  0  0  0  0  0  0  0  0
   45.3440   35.5850   43.6580 C   0  0  0  0  0  0  0  0  0  0  0  0
   44.6390   36.3440   42.8070 C   0  0  0  0  0  0  0  0  0  0  0  0
   43.9080   35.6620   41.8740 C   0  0  0  0  0  0  0  0  0  0  0  0
   43.9090   34.3100   41.8270 C   0  0  0  0  0  0  0  0  0  0  0  0
   45.8730   36.2290   44.3920 H   0  0  0  0  0  0  0  0  0  0  0  0
   44.5810   37.4010   42.7720 H   0  0  0  0  0  0  0  0  0  0  0  0
   43.2850   36.1200   41.1140 H   0  0  0  0  0  0  0  0  0  0  0  0
   43.1420   33.5290   40.8540 C   0  0  0  0  0  0  0  0  0  0  0  0
   43.6400   33.5920   39.5530 C   0  0  0  0  0  0  0  0  0  0  0  0
   44.5170   34.1710   39.2990 H   0  0  0  0  0  0  0  0  0  0  0  0
   42.9830   32.8850   38.5440 C   0  0  0  0  0  0  0  0  0  0  0  0
   43.4210   32.9740   37.5400 H   0  0  0  0  0  0  0  0  0  0  0  0
   41.8590   32.1170   38.7500 C   0  0  0  0  0  0  0  0  0  0  0  0
   41.4140   32.0900   40.0460 C   0  0  0  0  0  0  0  0  0  0  0  0
   42.0170   32.7610   41.0720 C   0  0  0  0  0  0  0  0  0  0  0  0
   41.6740   32.7450   42.0770 H   0  0  0  0  0  0  0  0  0  0  0  0
   39.9660   31.1240   40.4190 S   0  0  0  0  0  0  0  0  0  0  0  0
   39.4320   30.3880   38.8880 C   0  0  0  0  0  0  0  0  0  0  0  0
   38.3280   29.5820   38.8670 C   0  0  0  0  0  0  0  0  0  0  0  0
   37.7950   29.4110   39.8100 H   0  0  0  0  0  0  0  0  0  0  0  0
   37.8680   28.9850   37.7160 C   0  0  0  0  0  0  0  0  0  0  0  0
   36.9860   28.3660   37.8060 H   0  0  0  0  0  0  0  0  0  0  0  0
   38.5690   29.2280   36.5540 C   0  0  0  0  0  0  0  0  0  0  0  0
   38.2320   28.7770   35.6530 H   0  0  0  0  0  0  0  0  0  0  0  0
   39.6760   30.0460   36.6190 C   0  0  0  0  0  0  0  0  0  0  0  0
   40.1740   30.1860   35.6470 H   0  0  0  0  0  0  0  0  0  0  0  0
   40.1600   30.6570   37.7560 C   0  0  0  0  0  0  0  0  0  0  0  0
   41.3050   31.4580   37.6290 N   0  0  0  0  0  0  0  0  0  0  0  0
   41.7520   31.5690   36.6950 H   0  0  0  0  0  0  0  0  0  0  0  0
   46.3110   33.5270   44.7560 C   0  0  0  0  0  0  0  0  0  0  0  0
   45.7280   33.8930   45.7440 O   0  0  0  0  0  0  0  0  0  0  0  0
   47.3760   32.7960   44.0540 C   0  0  0  0  0  0  0  0  0  0  0  0
   48.2120   33.2960   43.1330 C   0  0  0  0  0  0  0  0  0  0  0  0
   49.0550   32.3680   42.5580 C   0  0  0  0  0  0  0  0  0  0  0  0
   48.9680   31.0270   42.9790 N   0  0  0  0  0  0  0  0  0  0  0  0
   48.1240   30.6130   43.8910 C   0  0  0  0  0  0  0  0  0  0  0  0
   47.2640   31.5100   44.4870 N   0  0  0  0  0  0  0  0  0  0  0  0
   49.7950   32.5830   41.7950 H   0  0  0  0  0  0  0  0  0  0  0  0
   48.1750   29.5520   44.1130 H   0  0  0  0  0  0  0  0  0  0  0  0
   48.3750   34.6670   42.7980 C   0  0  0  0  0  0  0  0  0  0  0  0
   49.3670   35.2510   42.0740 C   0  0  0  0  0  0  0  0  0  0  0  0
   48.0980   35.0670   41.2870 C   0  0  0  0  0  0  0  0  0  0  0  0
   47.9440   35.3610   43.5430 H   0  0  0  0  0  0  0  0  0  0  0  0
   49.7120   36.3120   42.0710 H   0  0  0  0  0  0  0  0  0  0  0  0
   50.2150   34.6170   41.6790 H   0  0  0  0  0  0  0  0  0  0  0  0
   48.0020   34.1960   40.6260 H   0  0  0  0  0  0  0  0  0  0  0  0
   47.4180   35.9250   41.1740 H   0  0  0  0  0  0  0  0  0  0  0  0
  1  2  1  0  0  0  0
  2  3  1  0  0  0  0
  3 33  1  0  0  0  0
  4  3  2  0  0  0  0
  4  8  1  0  0  0  0
  5  4  1  0  0  0  0
  6  5  2  0  0  0  0
  7  6  1  0  0  0  0
  7  2  2  0  0  0  0
  9  5  1  0  0  0  0
 10  6  1  0  0  0  0
 11 18  1  0  0  0  0
 11  7  1  0  0  0  0
 12 11  2  0  0  0  0
 13 12  1  0  0  0  0
 14 16  2  0  0  0  0
 14 12  1  0  0  0  0
 15 14  1  0  0  0  0
 16 17  1  0  0  0  0
 17 20  1  0  0  0  0
 17 18  2  0  0  0  0
 18 19  1  0  0  0  0
 21 20  1  0  0  0  0
 22 21  1  0  0  0  0
 22 23  1  0  0  0  0
 24 25  1  0  0  0  0
 24 22  2  0  0  0  0
 26 28  2  0  0  0  0
 26 24  1  0  0  0  0
 27 26  1  0  0  0  0
 28 30  1  0  0  0  0
 29 28  1  0  0  0  0
 30 21  2  0  0  0  0
 31 30  1  0  0  0  0
 31 16  1  0  0  0  0
 32 31  1  0  0  0  0
 33 34  2  0  0  0  0
 35 40  1  0  0  0  0
 35 33  1  0  0  0  0
 36 35  2  0  0  0  0
 37 38  2  0  0  0  0
 37 36  1  0  0  0  0
 38 39  1  0  0  0  0
 39 42  1  0  0  0  0
 39 40  2  0  0  0  0
 41 37  1  0  0  0  0
 43 36  1  0  0  0  0
 43 46  1  0  0  0  0
 44 43  1  0  0  0  0
 45 44  1  0  0  0  0
 45 43  1  0  0  0  0
 47 44  1  0  0  0  0
 48 44  1  0  0  0  0
 49 45  1  0  0  0  0
 50 45  1  0  0  0  0
M  END
>  <minimizedAffinity>
-6.7132926

>  <minimizedRMSD>
1.22141671

$$$$
