
 OpenBabel03252504093D

 38 41  0  0  0  0  0  0  0  0999 V2000
   46.7200   30.3680   45.5400 C   0  0  0  0  0  0  0  0  0  0  0  0
   45.4070   30.2310   45.9390 C   0  0  0  0  0  0  0  0  0  0  0  0
   44.6850   30.9520   45.6290 H   0  0  0  0  0  0  0  0  0  0  0  0
   45.0740   29.1530   46.7330 C   0  0  0  0  0  0  0  0  0  0  0  0
   44.0090   29.1120   47.0120 H   0  0  0  0  0  0  0  0  0  0  0  0
   45.9500   28.1830   47.1720 C   0  0  0  0  0  0  0  0  0  0  0  0
   47.2390   28.3710   46.7440 C   0  0  0  0  0  0  0  0  0  0  0  0
   47.6200   29.4230   45.9560 C   0  0  0  0  0  0  0  0  0  0  0  0
   48.6640   29.5200   45.6460 H   0  0  0  0  0  0  0  0  0  0  0  0
   48.4670   27.1830   47.2450 S   0  0  0  0  0  0  0  0  0  0  0  0
   47.6320   25.9710   48.2450 C   0  0  0  0  0  0  0  0  0  0  0  0
   48.3190   24.9170   48.7830 C   0  0  0  0  0  0  0  0  0  0  0  0
   49.3980   24.8370   48.5830 H   0  0  0  0  0  0  0  0  0  0  0  0
   47.7390   23.9420   49.5680 C   0  0  0  0  0  0  0  0  0  0  0  0
   48.3500   23.1590   49.9440 H   0  0  0  0  0  0  0  0  0  0  0  0
   46.3860   24.0850   49.7910 C   0  0  0  0  0  0  0  0  0  0  0  0
   45.8900   23.3510   50.3940 H   0  0  0  0  0  0  0  0  0  0  0  0
   45.7100   25.1540   49.2400 C   0  0  0  0  0  0  0  0  0  0  0  0
   44.6350   25.1790   49.4760 H   0  0  0  0  0  0  0  0  0  0  0  0
   46.2890   26.1290   48.4560 C   0  0  0  0  0  0  0  0  0  0  0  0
   45.4330   27.1460   47.9820 N   0  0  0  0  0  0  0  0  0  0  0  0
   44.4350   27.1460   48.2170 H   0  0  0  0  0  0  0  0  0  0  0  0
   48.5740   32.3700   43.0940 C   0  0  0  0  0  0  0  0  0  0  0  0
   47.9140   33.5920   43.1490 C   0  0  0  0  0  0  0  0  0  0  0  0
   46.8310   33.7160   44.0300 C   0  0  0  0  0  0  0  0  0  0  0  0
   46.4820   32.6450   44.7840 N   0  0  0  0  0  0  0  0  0  0  0  0
   47.1490   31.4800   44.7000 C   0  0  0  0  0  0  0  0  0  0  0  0
   48.1910   31.3320   43.8640 N   0  0  0  0  0  0  0  0  0  0  0  0
   46.3060   34.6660   44.0830 H   0  0  0  0  0  0  0  0  0  0  0  0
   48.3700   34.7070   42.2830 C   0  0  0  0  0  0  0  0  0  0  0  0
   49.6350   35.1240   42.6780 F   0  0  0  0  0  0  0  0  0  0  0  0
   48.5130   34.2270   40.9940 F   0  0  0  0  0  0  0  0  0  0  0  0
   47.5710   35.7990   42.2860 F   0  0  0  0  0  0  0  0  0  0  0  0
   49.6140   32.2590   42.2440 O   0  0  0  0  0  0  0  0  0  0  0  0
   49.7450   31.3850   41.1450 C   0  0  0  0  0  0  0  0  0  0  0  0
   50.3280   30.2130   41.6280 F   0  0  0  0  0  0  0  0  0  0  0  0
   48.5190   31.1630   40.5810 F   0  0  0  0  0  0  0  0  0  0  0  0
   50.6530   31.8880   40.2440 F   0  0  0  0  0  0  0  0  0  0  0  0
  1  2  2  0  0  0  0
  1  8  1  0  0  0  0
  2  4  1  0  0  0  0
  3  2  1  0  0  0  0
  4  5  1  0  0  0  0
  4  6  2  0  0  0  0
  6 21  1  0  0  0  0
  7  6  1  0  0  0  0
  7 10  1  0  0  0  0
  8  7  2  0  0  0  0
  9  8  1  0  0  0  0
 10 11  1  0  0  0  0
 11 20  2  0  0  0  0
 11 12  1  0  0  0  0
 12 14  2  0  0  0  0
 13 12  1  0  0  0  0
 14 16  1  0  0  0  0
 14 15  1  0  0  0  0
 16 17  1  0  0  0  0
 18 19  1  0  0  0  0
 18 16  2  0  0  0  0
 20 18  1  0  0  0  0
 21 22  1  0  0  0  0
 21 20  1  0  0  0  0
 23 24  2  0  0  0  0
 23 28  1  0  0  0  0
 24 25  1  0  0  0  0
 25 29  1  0  0  0  0
 25 26  2  0  0  0  0
 27 26  1  0  0  0  0
 27  1  1  0  0  0  0
 28 27  2  0  0  0  0
 30 33  1  0  0  0  0
 30 31  1  0  0  0  0
 30 24  1  0  0  0  0
 32 30  1  0  0  0  0
 34 23  1  0  0  0  0
 35 36  1  0  0  0  0
 35 34  1  0  0  0  0
 37 35  1  0  0  0  0
 38 35  1  0  0  0  0
M  END
>  <minimizedAffinity>
-4.98914289

>  <minimizedRMSD>
4.60810757

$$$$
