
     RDKit          3D

 37 40  0  0  0  0  0  0  0  0999 V2000
   47.8426   34.7916   42.4149 C   0  0  0  0  0  0  0  0  0  0  0  0
   48.1090   33.5675   43.0692 C   0  0  0  0  0  0  0  0  0  0  0  0
   47.1762   33.1112   44.0139 C   0  0  0  0  0  0  0  0  0  0  0  0
   46.0794   33.8708   44.2405 N   0  0  0  0  0  0  0  0  0  0  0  0
   45.8531   35.0363   43.5990 C   0  0  0  0  0  0  0  0  0  0  0  0
   46.7269   35.4849   42.6996 N   0  0  0  0  0  0  0  0  0  0  0  0
   48.8448   35.2482   41.4229 C   0  0  0  0  0  0  0  0  0  0  0  0
   48.3785   35.1687   40.1357 F   0  0  0  0  0  0  0  0  0  0  0  0
   49.1947   36.5691   41.7318 F   0  0  0  0  0  0  0  0  0  0  0  0
   50.0231   34.5123   41.5808 F   0  0  0  0  0  0  0  0  0  0  0  0
   44.6242   35.8223   43.8972 C   0  0  0  0  0  0  0  0  0  0  0  0
   43.6368   35.5799   42.9773 F   0  0  0  0  0  0  0  0  0  0  0  0
   44.9329   37.1946   43.9199 F   0  0  0  0  0  0  0  0  0  0  0  0
   44.1198   35.5475   45.1503 F   0  0  0  0  0  0  0  0  0  0  0  0
   48.9760   32.9912   42.8736 H   0  0  0  0  0  0  0  0  0  0  0  0
   47.3307   31.8705   44.7554 C   0  0  0  0  0  0  0  0  0  0  0  0
   46.2178   31.3812   45.4047 C   0  0  0  0  0  0  0  0  0  0  0  0
   45.2686   31.8827   45.3745 H   0  0  0  0  0  0  0  0  0  0  0  0
   46.3688   30.1866   46.1181 C   0  0  0  0  0  0  0  0  0  0  0  0
   45.4676   29.8415   46.6114 H   0  0  0  0  0  0  0  0  0  0  0  0
   47.5372   29.4620   46.2234 C   0  0  0  0  0  0  0  0  0  0  0  0
   48.5974   30.0169   45.5485 C   0  0  0  0  0  0  0  0  0  0  0  0
   48.5103   31.1675   44.8437 C   0  0  0  0  0  0  0  0  0  0  0  0
   49.3900   31.5409   44.3390 H   0  0  0  0  0  0  0  0  0  0  0  0
   50.1590   29.1578   45.6199 S   0  0  0  0  0  0  0  0  0  0  0  0
   49.8983   27.7131   46.6174 C   0  0  0  0  0  0  0  0  0  0  0  0
   50.9585   26.8773   46.8265 C   0  0  0  0  0  0  0  0  0  0  0  0
   51.9335   27.1064   46.3844 H   0  0  0  0  0  0  0  0  0  0  0  0
   50.8335   25.7357   47.5902 C   0  0  0  0  0  0  0  0  0  0  0  0
   51.7121   25.1202   47.7143 H   0  0  0  0  0  0  0  0  0  0  0  0
   49.5969   25.4680   48.1362 C   0  0  0  0  0  0  0  0  0  0  0  0
   49.4738   24.5786   48.7388 H   0  0  0  0  0  0  0  0  0  0  0  0
   48.5607   26.3445   47.8939 C   0  0  0  0  0  0  0  0  0  0  0  0
   47.6245   26.0604   48.3591 H   0  0  0  0  0  0  0  0  0  0  0  0
   48.6554   27.4929   47.1351 C   0  0  0  0  0  0  0  0  0  0  0  0
   47.5154   28.2815   46.9805 N   0  0  0  0  0  0  0  0  0  0  0  0
   46.6287   27.9847   47.4386 H   0  0  0  0  0  0  0  0  0  0  0  0
  1  6  2  0
  1  2  1  0
  2  3  2  0
  3  4  1  0
  5 11  1  0
  5  4  2  0
  6  5  1  0
  7 10  1  0
  7  9  1  0
  7  1  1  0
  8  7  1  0
 11 13  1  0
 11 14  1  0
 12 11  1  0
  2 15  1  0
 16 17  2  0
 17 18  1  0
 17 19  1  0
 19 20  1  0
 19 21  2  0
 21 22  1  0
 22 23  2  0
 23 24  1  0
 22 25  1  0
 25 26  1  0
 26 27  2  0
 27 28  1  0
 27 29  1  0
 29 30  1  0
 29 31  2  0
 31 32  1  0
 31 33  1  0
 33 34  1  0
 33 35  2  0
 35 36  1  0
 36 37  1  0
 23 16  1  0
 35 26  1  0
 36 21  1  0
  3 16  1  0
M  ISO  8  15  14  18  16  20  16  24  16  28  16  30  16  32  16  34  16
M  ISO  1  37   5
M  END
>  <DihAtoms>  (1) 
1,2,15,16

>  <DihDeg>  (1) 
179.99777258675522

$$$$
