REMARK  Name = 
REMARK  3 active torsions:
REMARK  status: ('A' for Active; 'I' for Inactive)
REMARK    1  A    between atoms: C_2  and  C_12
REMARK    2  A    between atoms: C_3  and  C_7
REMARK    3  A    between atoms: C_12  and  C_19
REMARK                            x       y       z     vdW  Elec       q    Type
REMARK                         _______ _______ _______ _____ _____    ______ ____
ROOT
ATOM      1  C   UNL     1      46.271  33.642  40.871  0.00  0.00    +0.000 A 
ATOM      2  C   UNL     1      46.637  32.332  41.096  0.00  0.00    +0.000 A 
ATOM      3  H   UNL     1      47.268  32.067  41.956  0.00  0.00    +0.000 HD
ATOM      4  C   UNL     1      46.259  31.294  40.288  0.00  0.00    +0.000 A 
ATOM      5  H   UNL     1      46.573  30.293  40.507  0.00  0.00    +0.000 HD
ATOM      6  C   UNL     1      45.459  31.589  39.174  0.00  0.00    +0.000 A 
ATOM      7  C   UNL     1      45.090  32.895  38.947  0.00  0.00    +0.000 A 
ATOM      8  C   UNL     1      45.498  33.881  39.788  0.00  0.00    +0.000 A 
ATOM      9  H   UNL     1      45.249  34.930  39.676  0.00  0.00    +0.000 HD
ATOM     10  S   UNL     1      44.069  33.307  37.549  0.00  0.00    +0.000 S 
ATOM     11  C   UNL     1      43.844  31.792  36.637  0.00  0.00    +0.000 A 
ATOM     12  C   UNL     1      43.168  31.799  35.467  0.00  0.00    +0.000 A 
ATOM     13  H   UNL     1      42.770  32.762  35.115  0.00  0.00    +0.000 HD
ATOM     14  C   UNL     1      42.946  30.680  34.704  0.00  0.00    +0.000 A 
ATOM     15  H   UNL     1      42.395  30.762  33.782  0.00  0.00    +0.000 HD
ATOM     16  C   UNL     1      43.477  29.487  35.219  0.00  0.00    +0.000 A 
ATOM     17  H   UNL     1      43.320  28.590  34.644  0.00  0.00    +0.000 HD
ATOM     18  C   UNL     1      44.168  29.492  36.422  0.00  0.00    +0.000 A 
ATOM     19  H   UNL     1      44.526  28.526  36.712  0.00  0.00    +0.000 HD
ATOM     20  C   UNL     1      44.371  30.677  37.177  0.00  0.00    +0.000 A 
ATOM     21  N   UNL     1      45.122  30.513  38.338  0.00  0.00    +0.000 N 
ATOM     22  H   UNL     1      45.454  29.541  38.611  0.00  0.00    +0.000 HD
ENDROOT
BRANCH   1  23
ATOM     23  C   UNL     1      46.810  34.635  41.865  0.00  0.00    +0.000 C 
ATOM     24  O   UNL     1      47.893  35.323  41.695  0.00  0.00    +0.000 OA
BRANCH  23  26
ATOM     25  C   UNL     1      45.380  36.076  43.197  0.00  0.00    +0.000 A 
ATOM     26  C   UNL     1      46.121  34.879  43.083  0.00  0.00    +0.000 A 
ATOM     27  C   UNL     1      46.075  34.040  44.177  0.00  0.00    +0.000 A 
ATOM     28  N   UNL     1      45.366  34.346  45.279  0.00  0.00    +0.000 NA
ATOM     29  C   UNL     1      44.665  35.507  45.354  0.00  0.00    +0.000 A 
ATOM     30  N   UNL     1      44.681  36.363  44.303  0.00  0.00    +0.000 NA
ATOM     31  H   UNL     1      45.379  36.774  42.372  0.00  0.00    +0.000 HD
ATOM     32  H   UNL     1      44.125  35.658  46.291  0.00  0.00    +0.000 HD
BRANCH  27  33
ATOM     33  C   UNL     1      46.797  32.852  44.135  0.00  0.00    +0.000 A 
ATOM     34  C   UNL     1      47.742  32.328  43.279  0.00  0.00    +0.000 A 
ATOM     35  C   UNL     1      48.285  31.139  43.477  0.00  0.00    +0.000 A 
ATOM     36  C   UNL     1      47.878  30.422  44.583  0.00  0.00    +0.000 A 
ATOM     37  S   UNL     1      46.633  31.566  45.362  0.00  0.00    +0.000 S 
ATOM     38  H   UNL     1      48.203  32.749  42.419  0.00  0.00    +0.000 HD
ATOM     39  H   UNL     1      49.003  30.486  43.024  0.00  0.00    +0.000 HD
ATOM     40  H   UNL     1      48.009  29.496  45.132  0.00  0.00    +0.000 HD
ENDBRANCH  27  33
ENDBRANCH  23  26
ENDBRANCH   1  23
TORSDOF 3
