
 OpenBabel03242518503D

 36 39  0  0  0  0  0  0  0  0999 V2000
   46.3360   32.3500   46.6520 C   0  0  0  0  0  0  0  0  0  0  0  0
   46.4570   31.3540   45.7090 C   0  0  0  0  0  0  0  0  0  0  0  0
   45.9370   31.3580   44.7650 H   0  0  0  0  0  0  0  0  0  0  0  0
   47.2740   30.2490   45.8830 C   0  0  0  0  0  0  0  0  0  0  0  0
   47.3290   29.4800   45.0950 H   0  0  0  0  0  0  0  0  0  0  0  0
   48.0330   30.0740   47.0360 C   0  0  0  0  0  0  0  0  0  0  0  0
   47.8920   31.0840   47.9600 C   0  0  0  0  0  0  0  0  0  0  0  0
   47.0960   32.1560   47.7850 C   0  0  0  0  0  0  0  0  0  0  0  0
   47.0110   32.9360   48.5550 H   0  0  0  0  0  0  0  0  0  0  0  0
   48.8140   30.9780   49.4820 S   0  0  0  0  0  0  0  0  0  0  0  0
   49.7640   29.4770   49.3630 C   0  0  0  0  0  0  0  0  0  0  0  0
   50.5730   29.1950   50.4160 C   0  0  0  0  0  0  0  0  0  0  0  0
   50.6440   29.8410   51.2840 H   0  0  0  0  0  0  0  0  0  0  0  0
   51.3210   28.0230   50.3390 C   0  0  0  0  0  0  0  0  0  0  0  0
   51.9710   27.7680   51.1590 H   0  0  0  0  0  0  0  0  0  0  0  0
   51.2730   27.1580   49.2590 C   0  0  0  0  0  0  0  0  0  0  0  0
   51.8460   26.2550   49.2040 H   0  0  0  0  0  0  0  0  0  0  0  0
   50.4150   27.5290   48.2270 C   0  0  0  0  0  0  0  0  0  0  0  0
   50.3910   26.8280   47.3790 H   0  0  0  0  0  0  0  0  0  0  0  0
   49.6560   28.6790   48.2580 C   0  0  0  0  0  0  0  0  0  0  0  0
   48.8490   28.9360   47.1490 N   0  0  0  0  0  0  0  0  0  0  0  0
   48.8430   28.2600   46.3550 H   0  0  0  0  0  0  0  0  0  0  0  0
   45.4780   33.5070   46.4510 C   0  0  0  0  0  0  0  0  0  0  0  0
   44.7080   33.7720   47.4210 O   0  0  0  0  0  0  0  0  0  0  0  0
   44.5750   36.1360   44.0860 C   0  0  0  0  0  0  0  0  0  0  0  0
   45.4290   35.9400   42.9790 C   0  0  0  0  0  0  0  0  0  0  0  0
   46.3120   34.8750   43.0850 C   0  0  0  0  0  0  0  0  0  0  0  0
   46.2680   34.1480   44.2050 N   0  0  0  0  0  0  0  0  0  0  0  0
   45.4650   34.3260   45.2550 C   0  0  0  0  0  0  0  0  0  0  0  0
   44.5950   35.3570   45.1780 N   0  0  0  0  0  0  0  0  0  0  0  0
   43.8770   36.9640   44.0290 H   0  0  0  0  0  0  0  0  0  0  0  0
   45.4220   36.5580   42.1050 H   0  0  0  0  0  0  0  0  0  0  0  0
   47.2160   34.6500   41.9500 C   0  0  0  0  0  0  0  0  0  0  0  0
   48.0390   33.5680   42.2110 F   0  0  0  0  0  0  0  0  0  0  0  0
   48.0670   35.7680   41.9070 F   0  0  0  0  0  0  0  0  0  0  0  0
   46.5710   34.4550   40.7750 F   0  0  0  0  0  0  0  0  0  0  0  0
  1  8  1  0  0  0  0
  2  4  1  0  0  0  0
  2  1  2  0  0  0  0
  3  2  1  0  0  0  0
  4  6  2  0  0  0  0
  5  4  1  0  0  0  0
  6 21  1  0  0  0  0
  6  7  1  0  0  0  0
  7 10  1  0  0  0  0
  8  7  2  0  0  0  0
  8  9  1  0  0  0  0
 11 10  1  0  0  0  0
 11 12  1  0  0  0  0
 12 13  1  0  0  0  0
 14 12  2  0  0  0  0
 14 15  1  0  0  0  0
 16 14  1  0  0  0  0
 17 16  1  0  0  0  0
 18 20  1  0  0  0  0
 18 16  2  0  0  0  0
 19 18  1  0  0  0  0
 20 11  2  0  0  0  0
 21 20  1  0  0  0  0
 22 21  1  0  0  0  0
 23  1  1  0  0  0  0
 23 24  2  0  0  0  0
 25 30  1  0  0  0  0
 26 27  1  0  0  0  0
 26 25  2  0  0  0  0
 27 28  2  0  0  0  0
 28 29  1  0  0  0  0
 29 23  1  0  0  0  0
 30 29  2  0  0  0  0
 31 25  1  0  0  0  0
 32 26  1  0  0  0  0
 33 34  1  0  0  0  0
 33 27  1  0  0  0  0
 35 33  1  0  0  0  0
 36 33  1  0  0  0  0
M  END
>  <minimizedAffinity>
-6.41469669

>  <minimizedRMSD>
0.705557346

$$$$
