REMARK  Name = 
REMARK  4 active torsions:
REMARK  status: ('A' for Active; 'I' for Inactive)
REMARK    1  A    between atoms: C_1  and  C_10
REMARK    2  A    between atoms: C_2  and  C_7
REMARK    3  A    between atoms: C_10  and  C_14
REMARK    4  A    between atoms: C_18  and  C_29
REMARK                            x       y       z     vdW  Elec       q    Type
REMARK                         _______ _______ _______ _____ _____    ______ ____
ROOT
ATOM      1 CL   UNL     1      44.681  31.664  42.927  0.00  0.00    +0.000 Cl
ATOM      2  C   UNL     1      44.649  33.422  42.761  0.00  0.00    +0.000 A 
ATOM      3  C   UNL     1      45.520  34.123  43.620  0.00  0.00    +0.000 A 
ATOM      4  C   UNL     1      45.417  35.488  43.406  0.00  0.00    +0.000 A 
ATOM      5  C   UNL     1      44.651  36.171  42.543  0.00  0.00    +0.000 A 
ATOM      6  C   UNL     1      43.837  35.413  41.748  0.00  0.00    +0.000 A 
ATOM      7  C   UNL     1      43.820  34.064  41.838  0.00  0.00    +0.000 A 
ATOM      8  H   UNL     1      46.012  36.193  44.025  0.00  0.00    +0.000 HD
ATOM      9  H   UNL     1      44.601  37.221  42.406  0.00  0.00    +0.000 HD
ATOM     10  H   UNL     1      43.157  35.804  40.999  0.00  0.00    +0.000 HD
ENDROOT
BRANCH   7  11
ATOM     11  C   UNL     1      42.967  33.203  41.016  0.00  0.00    +0.000 A 
ATOM     12  C   UNL     1      42.973  33.526  39.658  0.00  0.00    +0.000 A 
ATOM     13  H   UNL     1      43.563  34.340  39.262  0.00  0.00    +0.000 HD
ATOM     14  C   UNL     1      42.191  32.771  38.782  0.00  0.00    +0.000 A 
ATOM     15  H   UNL     1      42.237  33.072  37.725  0.00  0.00    +0.000 HD
ATOM     16  C   UNL     1      41.401  31.712  39.173  0.00  0.00    +0.000 A 
ATOM     17  C   UNL     1      41.433  31.441  40.516  0.00  0.00    +0.000 A 
ATOM     18  C   UNL     1      42.179  32.146  41.417  0.00  0.00    +0.000 A 
ATOM     19  H   UNL     1      42.204  31.940  42.459  0.00  0.00    +0.000 HD
ATOM     20  S   UNL     1      40.446  30.091  41.124  0.00  0.00    +0.000 S 
ATOM     21  C   UNL     1      39.609  29.392  39.717  0.00  0.00    +0.000 A 
ATOM     22  C   UNL     1      38.769  28.325  39.882  0.00  0.00    +0.000 A 
ATOM     23  H   UNL     1      38.635  27.926  40.895  0.00  0.00    +0.000 HD
ATOM     24  C   UNL     1      38.095  27.742  38.834  0.00  0.00    +0.000 A 
ATOM     25  H   UNL     1      37.456  26.904  39.071  0.00  0.00    +0.000 HD
ATOM     26  C   UNL     1      38.295  28.276  37.579  0.00  0.00    +0.000 A 
ATOM     27  H   UNL     1      37.785  27.843  36.755  0.00  0.00    +0.000 HD
ATOM     28  C   UNL     1      39.149  29.352  37.456  0.00  0.00    +0.000 A 
ATOM     29  H   UNL     1      39.250  29.714  36.421  0.00  0.00    +0.000 HD
ATOM     30  C   UNL     1      39.837  29.955  38.487  0.00  0.00    +0.000 A 
ATOM     31  N   UNL     1      40.665  31.043  38.169  0.00  0.00    +0.000 N 
ATOM     32  H   UNL     1      40.737  31.361  37.181  0.00  0.00    +0.000 HD
ENDBRANCH   7  11
BRANCH   3  33
ATOM     33  C   UNL     1      46.452  33.533  44.623  0.00  0.00    +0.000 C 
ATOM     34  O   UNL     1      45.882  33.898  45.619  0.00  0.00    +0.000 OA
BRANCH  33  35
ATOM     35  C   UNL     1      47.534  32.843  43.907  0.00  0.00    +0.000 A 
ATOM     36  C   UNL     1      48.374  33.389  43.016  0.00  0.00    +0.000 A 
ATOM     37  C   UNL     1      49.236  32.494  42.416  0.00  0.00    +0.000 A 
ATOM     38  N   UNL     1      49.162  31.137  42.784  0.00  0.00    +0.000 NA
ATOM     39  C   UNL     1      48.313  30.678  43.670  0.00  0.00    +0.000 A 
ATOM     40  N   UNL     1      47.434  31.540  44.289  0.00  0.00    +0.000 NA
ATOM     41  H   UNL     1      49.982  32.748  41.671  0.00  0.00    +0.000 HD
ATOM     42  H   UNL     1      48.375  29.610  43.851  0.00  0.00    +0.000 HD
BRANCH  36  43
ATOM     43  C   UNL     1      48.523  34.773  42.735  0.00  0.00    +0.000 C 
ATOM     44  C   UNL     1      49.523  35.399  42.059  0.00  0.00    +0.000 C 
ATOM     45  C   UNL     1      48.278  35.225  41.233  0.00  0.00    +0.000 C 
ATOM     46  H   UNL     1      48.062  35.433  43.493  0.00  0.00    +0.000 HD
ATOM     47  H   UNL     1      49.851  36.465  42.103  0.00  0.00    +0.000 HD
ATOM     48  H   UNL     1      50.391  34.793  41.663  0.00  0.00    +0.000 HD
ATOM     49  H   UNL     1      48.213  34.377  40.538  0.00  0.00    +0.000 HD
ATOM     50  H   UNL     1      47.587  36.075  41.134  0.00  0.00    +0.000 HD
ENDBRANCH  36  43
ENDBRANCH  33  35
ENDBRANCH   3  33
TORSDOF 4
