
     RDKit          3D

 36 39  0  0  0  0  0  0  0  0999 V2000
   44.5977   35.9289   44.4246 C   0  0  0  0  0  0  0  0  0  0  0  0
   45.3323   35.8560   43.2209 C   0  0  0  0  0  0  0  0  0  0  0  0
   46.2502   34.8187   43.1423 C   0  0  0  0  0  0  0  0  0  0  0  0
   46.3490   34.0025   44.1953 N   0  0  0  0  0  0  0  0  0  0  0  0
   45.6595   34.0639   45.3346 C   0  0  0  0  0  0  0  0  0  0  0  0
   44.7578   35.0646   45.4386 N   0  0  0  0  0  0  0  0  0  0  0  0
   47.0320   34.7212   41.9032 C   0  0  0  0  0  0  0  0  0  0  0  0
   47.8453   33.6009   41.9458 F   0  0  0  0  0  0  0  0  0  0  0  0
   47.9067   35.8213   41.9105 F   0  0  0  0  0  0  0  0  0  0  0  0
   46.2685   34.6836   40.7844 F   0  0  0  0  0  0  0  0  0  0  0  0
   45.8249   33.1509   46.4486 C   0  0  0  0  0  0  0  0  0  0  0  0
   45.0299   33.1856   47.4332 O   0  0  0  0  0  0  0  0  0  0  0  0
   43.8751   36.7327   44.5126 H   0  0  0  0  0  0  0  0  0  0  0  0
   45.2126   36.5419   42.4089 H   0  0  0  0  0  0  0  0  0  0  0  0
   46.8732   32.1473   46.5470 C   0  0  0  0  0  0  0  0  0  0  0  0
   47.4471   31.5740   45.4336 C   0  0  0  0  0  0  0  0  0  0  0  0
   47.1697   31.8250   44.4231 H   0  0  0  0  0  0  0  0  0  0  0  0
   48.4487   30.6210   45.5111 C   0  0  0  0  0  0  0  0  0  0  0  0
   48.8692   30.1939   44.5851 H   0  0  0  0  0  0  0  0  0  0  0  0
   48.9452   30.1778   46.7333 C   0  0  0  0  0  0  0  0  0  0  0  0
   48.3543   30.7671   47.8261 C   0  0  0  0  0  0  0  0  0  0  0  0
   47.3798   31.6927   47.7447 C   0  0  0  0  0  0  0  0  0  0  0  0
   46.9327   32.1318   48.6490 H   0  0  0  0  0  0  0  0  0  0  0  0
   48.9034   30.2855   49.4519 S   0  0  0  0  0  0  0  0  0  0  0  0
   50.1954   29.0891   49.1862 C   0  0  0  0  0  0  0  0  0  0  0  0
   50.7881   28.5892   50.2995 C   0  0  0  0  0  0  0  0  0  0  0  0
   50.4987   28.8953   51.2996 H   0  0  0  0  0  0  0  0  0  0  0  0
   51.7989   27.6514   50.1092 C   0  0  0  0  0  0  0  0  0  0  0  0
   52.2885   27.2322   50.9719 H   0  0  0  0  0  0  0  0  0  0  0  0
   52.2115   27.2200   48.8591 C   0  0  0  0  0  0  0  0  0  0  0  0
   52.9868   26.4950   48.7150 H   0  0  0  0  0  0  0  0  0  0  0  0
   51.5462   27.7873   47.7758 C   0  0  0  0  0  0  0  0  0  0  0  0
   51.8893   27.4307   46.7926 H   0  0  0  0  0  0  0  0  0  0  0  0
   50.5409   28.7191   47.9155 C   0  0  0  0  0  0  0  0  0  0  0  0
   49.9691   29.2159   46.7436 N   0  0  0  0  0  0  0  0  0  0  0  0
   50.3097   28.8658   45.8223 H   0  0  0  0  0  0  0  0  0  0  0  0
  1  6  2  0
  2  1  1  0
  3  2  2  0
  3  4  1  0
  4  5  2  0
  5  6  1  0
  5 11  1  0
  7  8  1  0
  7  3  1  0
  9  7  1  0
 10  7  1  0
 11 12  2  0
  1 13  1  0
  2 14  1  0
 15 16  2  0
 16 17  1  0
 16 18  1  0
 18 19  1  0
 18 20  2  0
 20 21  1  0
 21 22  2  0
 22 23  1  0
 21 24  1  0
 24 25  1  0
 25 26  2  0
 26 27  1  0
 26 28  1  0
 28 29  1  0
 28 30  2  0
 30 31  1  0
 30 32  1  0
 32 33  1  0
 32 34  2  0
 34 35  1  0
 35 36  1  0
 22 15  1  0
 34 25  1  0
 35 20  1  0
 11 15  1  0
M  ISO  8  13  14  14  14  17  16  19  16  23  16  27  16  29  16  31  16
M  ISO  2  33  16  36   5
M  END
>  <DihAtoms>  (1) 
4,10,14,15

>  <DihDeg>  (1) 
16.95244225262003

$$$$
