REMARK  Name = 
REMARK  4 active torsions:
REMARK  status: ('A' for Active; 'I' for Inactive)
REMARK    1  A    between atoms: C_1  and  O_11
REMARK    2  A    between atoms: C_2  and  C_7
REMARK    3  A    between atoms: C_5  and  C_17
REMARK    4  A    between atoms: O_11  and  C_12
REMARK                            x       y       z     vdW  Elec       q    Type
REMARK                         _______ _______ _______ _____ _____    ______ ____
ROOT
ATOM      1  C   UNL     1      48.127  31.569  45.191  0.00  0.00    +0.000 A 
ATOM      2  C   UNL     1      48.900  30.728  44.419  0.00  0.00    +0.000 A 
ATOM      3  H   UNL     1      48.913  30.849  43.359  0.00  0.00    +0.000 HD
ATOM      4  C   UNL     1      49.636  29.749  45.053  0.00  0.00    +0.000 A 
ATOM      5  H   UNL     1      50.227  29.116  44.371  0.00  0.00    +0.000 HD
ATOM      6  C   UNL     1      49.670  29.530  46.413  0.00  0.00    +0.000 A 
ATOM      7  C   UNL     1      48.883  30.396  47.130  0.00  0.00    +0.000 A 
ATOM      8  C   UNL     1      48.136  31.383  46.548  0.00  0.00    +0.000 A 
ATOM      9  H   UNL     1      47.527  32.044  47.171  0.00  0.00    +0.000 HD
ATOM     10  S   UNL     1      48.842  30.217  48.901  0.00  0.00    +0.000 S 
ATOM     11  C   UNL     1      49.915  28.857  49.306  0.00  0.00    +0.000 A 
ATOM     12  C   UNL     1      50.093  28.471  50.606  0.00  0.00    +0.000 A 
ATOM     13  H   UNL     1      49.557  29.022  51.394  0.00  0.00    +0.000 HD
ATOM     14  C   UNL     1      50.907  27.428  50.994  0.00  0.00    +0.000 A 
ATOM     15  H   UNL     1      50.985  27.199  52.028  0.00  0.00    +0.000 HD
ATOM     16  C   UNL     1      51.557  26.769  49.972  0.00  0.00    +0.000 A 
ATOM     17  H   UNL     1      52.201  25.951  50.223  0.00  0.00    +0.000 HD
ATOM     18  C   UNL     1      51.365  27.172  48.666  0.00  0.00    +0.000 A 
ATOM     19  H   UNL     1      51.926  26.584  47.925  0.00  0.00    +0.000 HD
ATOM     20  C   UNL     1      50.551  28.214  48.278  0.00  0.00    +0.000 A 
ATOM     21  N   UNL     1      50.482  28.478  46.893  0.00  0.00    +0.000 N 
ATOM     22  H   UNL     1      51.016  27.914  46.223  0.00  0.00    +0.000 HD
ENDROOT
BRANCH   1  27
ATOM     23  C   UNL     1      47.090  34.388  43.092  0.00  0.00    +0.000 A 
ATOM     24  C   UNL     1      45.778  34.596  43.502  0.00  0.00    +0.000 A 
ATOM     25  C   UNL     1      45.259  33.760  44.501  0.00  0.00    +0.000 A 
ATOM     26  N   UNL     1      46.058  32.795  45.017  0.00  0.00    +0.000 NA
ATOM     27  C   UNL     1      47.323  32.628  44.592  0.00  0.00    +0.000 A 
ATOM     28  N   UNL     1      47.847  33.414  43.636  0.00  0.00    +0.000 NA
ATOM     29  H   UNL     1      44.235  33.912  44.830  0.00  0.00    +0.000 HD
BRANCH  24  30
ATOM     30  C   UNL     1      44.981  35.680  42.876  0.00  0.00    +0.000 C 
ATOM     31  F   UNL     1      45.618  36.901  43.060  0.00  0.00    +0.000 F 
ATOM     32  F   UNL     1      44.955  35.467  41.509  0.00  0.00    +0.000 F 
ATOM     33  F   UNL     1      43.721  35.812  43.349  0.00  0.00    +0.000 F 
ENDBRANCH  24  30
BRANCH  23  34
ATOM     34  O   UNL     1      47.580  35.196  42.132  0.00  0.00    +0.000 OA
BRANCH  34  35
ATOM     35  C   UNL     1      48.875  35.191  41.573  0.00  0.00    +0.000 C 
ATOM     36  F   UNL     1      49.763  35.490  42.607  0.00  0.00    +0.000 F 
ATOM     37  F   UNL     1      49.129  33.973  41.005  0.00  0.00    +0.000 F 
ATOM     38  F   UNL     1      49.010  36.225  40.678  0.00  0.00    +0.000 F 
ENDBRANCH  34  35
ENDBRANCH  23  34
ENDBRANCH   1  27
TORSDOF 4
