
 OpenBabel03252503093D

 40 44  0  0  1  0  0  0  0  0999 V2000
   47.3780   34.3270   40.1160 C   0  0  0  0  0  0  0  0  0  0  0  0
   48.2600   34.6050   39.0920 C   0  0  0  0  0  0  0  0  0  0  0  0
   49.1340   35.2480   39.2660 H   0  0  0  0  0  0  0  0  0  0  0  0
   48.1150   34.1200   37.8200 C   0  0  0  0  0  0  0  0  0  0  0  0
   48.8300   34.3680   37.0610 H   0  0  0  0  0  0  0  0  0  0  0  0
   47.0100   33.2990   37.5540 C   0  0  0  0  0  0  0  0  0  0  0  0
   46.1280   33.0190   38.5720 C   0  0  0  0  0  0  0  0  0  0  0  0
   46.3280   33.5320   39.8160 C   0  0  0  0  0  0  0  0  0  0  0  0
   45.6810   33.3560   40.6660 H   0  0  0  0  0  0  0  0  0  0  0  0
   44.7170   31.9770   38.2750 S   0  0  0  0  0  0  0  0  0  0  0  0
   44.7370   31.6040   36.5310 C   0  0  0  0  0  0  0  0  0  0  0  0
   43.7340   30.8850   35.9810 C   0  0  0  0  0  0  0  0  0  0  0  0
   42.9270   30.5450   36.6470 H   0  0  0  0  0  0  0  0  0  0  0  0
   43.6710   30.5510   34.6520 C   0  0  0  0  0  0  0  0  0  0  0  0
   42.8410   29.9720   34.2840 H   0  0  0  0  0  0  0  0  0  0  0  0
   44.7380   31.0130   33.8650 C   0  0  0  0  0  0  0  0  0  0  0  0
   44.7210   30.7680   32.8160 H   0  0  0  0  0  0  0  0  0  0  0  0
   45.7630   31.7500   34.4420 C   0  0  0  0  0  0  0  0  0  0  0  0
   46.5200   32.0470   33.7450 H   0  0  0  0  0  0  0  0  0  0  0  0
   45.7840   32.0700   35.8250 C   0  0  0  0  0  0  0  0  0  0  0  0
   46.8610   32.8520   36.2310 N   0  0  0  0  0  0  0  0  0  0  0  0
   47.6060   33.1230   35.5230 H   0  0  0  0  0  0  0  0  0  0  0  0
   47.7050   34.9780   41.4330 C   0  0  1  0  0  3  0  0  0  0  0  0
   48.6960   35.7890   41.6190 O   0  0  0  0  0  1  0  0  0  0  0  0
   45.9580   35.7090   42.9520 C   0  0  0  0  0  0  0  0  0  0  0  0
   46.9020   34.7270   42.5770 C   0  0  0  0  0  0  0  0  0  0  0  0
   46.9280   33.5920   43.3600 C   0  0  0  0  0  0  0  0  0  0  0  0
   46.1030   33.4330   44.4110 N   0  0  0  0  0  0  0  0  0  0  0  0
   45.2070   34.3980   44.7430 C   0  0  0  0  0  0  0  0  0  0  0  0
   45.1460   35.5320   44.0030 N   0  0  0  0  0  0  0  0  0  0  0  0
   45.8920   36.6210   42.3770 H   0  0  0  0  0  0  0  0  0  0  0  0
   44.5860   34.1700   45.6110 H   0  0  0  0  0  0  0  0  0  0  0  0
   47.8470   32.5940   43.0540 C   0  0  0  0  0  0  0  0  0  0  0  0
   49.2140   32.5630   42.8780 C   0  0  0  0  0  0  0  0  0  0  0  0
   49.8580   31.4470   42.5830 C   0  0  0  0  0  0  0  0  0  0  0  0
   49.1160   30.2900   42.4550 C   0  0  0  0  0  0  0  0  0  0  0  0
   47.3860   30.8900   42.7880 S   0  0  0  0  0  0  0  0  0  0  0  0
   49.9400   33.3310   42.9810 H   0  0  0  0  0  0  0  0  0  0  0  0
   50.8560   31.1080   42.3930 H   0  0  0  0  0  0  0  0  0  0  0  0
   49.1670   29.2270   42.2470 H   0  0  0  0  0  0  0  0  0  0  0  0
  1 23  1  0  0  0  0
  2  3  1  0  0  0  0
  2  1  2  0  0  0  0
  4  2  1  0  0  0  0
  5  4  1  0  0  0  0
  6  4  2  0  0  0  0
  6  7  1  0  0  0  0
  7  8  2  0  0  0  0
  8  1  1  0  0  0  0
  8  9  1  0  0  0  0
 10  7  1  0  0  0  0
 11 10  1  0  0  0  0
 12 11  1  0  0  0  0
 12 13  1  0  0  0  0
 14 12  2  0  0  0  0
 15 14  1  0  0  0  0
 16 18  2  0  0  0  0
 16 14  1  0  0  0  0
 17 16  1  0  0  0  0
 18 20  1  0  0  0  0
 19 18  1  0  0  0  0
 20 21  1  0  0  0  0
 20 11  2  0  0  0  0
 21  6  1  0  0  0  0
 22 21  1  0  0  0  0
 23 24  1  6  0  0  0
 23 26  1  0  0  0  0
 25 30  1  0  0  0  0
 26 25  2  0  0  0  0
 26 27  1  0  0  0  0
 27 28  2  0  0  0  0
 28 29  1  0  0  0  0
 29 32  1  0  0  0  0
 30 29  2  0  0  0  0
 31 25  1  0  0  0  0
 33 27  1  0  0  0  0
 34 38  1  0  0  0  0
 34 33  2  0  0  0  0
 35 34  1  0  0  0  0
 36 35  2  0  0  0  0
 36 37  1  0  0  0  0
 37 33  1  0  0  0  0
 39 35  1  0  0  0  0
 40 36  1  0  0  0  0
M  END
>  <minimizedAffinity>
-5.99838352

>  <minimizedRMSD>
2.43527651

$$$$
