
     RDKit          3D

 36 39  0  0  0  0  0  0  0  0999 V2000
   44.5977   35.9289   44.4246 C   0  0  0  0  0  0  0  0  0  0  0  0
   45.3323   35.8560   43.2209 C   0  0  0  0  0  0  0  0  0  0  0  0
   46.2502   34.8187   43.1423 C   0  0  0  0  0  0  0  0  0  0  0  0
   46.3490   34.0025   44.1953 N   0  0  0  0  0  0  0  0  0  0  0  0
   45.6595   34.0639   45.3346 C   0  0  0  0  0  0  0  0  0  0  0  0
   44.7578   35.0646   45.4386 N   0  0  0  0  0  0  0  0  0  0  0  0
   47.0320   34.7212   41.9032 C   0  0  0  0  0  0  0  0  0  0  0  0
   47.8453   33.6009   41.9458 F   0  0  0  0  0  0  0  0  0  0  0  0
   47.9067   35.8213   41.9105 F   0  0  0  0  0  0  0  0  0  0  0  0
   46.2685   34.6836   40.7844 F   0  0  0  0  0  0  0  0  0  0  0  0
   45.8249   33.1509   46.4486 C   0  0  0  0  0  0  0  0  0  0  0  0
   45.0299   33.1856   47.4332 O   0  0  0  0  0  0  0  0  0  0  0  0
   43.8751   36.7327   44.5126 H   0  0  0  0  0  0  0  0  0  0  0  0
   45.2126   36.5419   42.4089 H   0  0  0  0  0  0  0  0  0  0  0  0
   46.8732   32.1473   46.5470 C   0  0  0  0  0  0  0  0  0  0  0  0
   46.9595   31.2784   47.6125 C   0  0  0  0  0  0  0  0  0  0  0  0
   46.2660   31.2746   48.4371 H   0  0  0  0  0  0  0  0  0  0  0  0
   47.9487   30.3151   47.7180 C   0  0  0  0  0  0  0  0  0  0  0  0
   47.9702   29.6482   48.5963 H   0  0  0  0  0  0  0  0  0  0  0  0
   48.9290   30.1617   46.7422 C   0  0  0  0  0  0  0  0  0  0  0  0
   48.8176   31.0417   45.6916 C   0  0  0  0  0  0  0  0  0  0  0  0
   47.8540   31.9773   45.5948 C   0  0  0  0  0  0  0  0  0  0  0  0
   47.8095   32.6641   44.7364 H   0  0  0  0  0  0  0  0  0  0  0  0
   50.0136   30.9471   44.3735 S   0  0  0  0  0  0  0  0  0  0  0  0
   51.1006   29.6054   44.8084 C   0  0  0  0  0  0  0  0  0  0  0  0
   52.0940   29.3285   43.9269 C   0  0  0  0  0  0  0  0  0  0  0  0
   52.2265   29.8869   43.0059 H   0  0  0  0  0  0  0  0  0  0  0  0
   52.9538   28.2836   44.2530 C   0  0  0  0  0  0  0  0  0  0  0  0
   53.7552   28.0391   43.5764 H   0  0  0  0  0  0  0  0  0  0  0  0
   52.8371   27.5356   45.4131 C   0  0  0  0  0  0  0  0  0  0  0  0
   53.5024   26.7345   45.6641 H   0  0  0  0  0  0  0  0  0  0  0  0
   51.7890   27.8920   46.2572 C   0  0  0  0  0  0  0  0  0  0  0  0
   51.7146   27.2855   47.1727 H   0  0  0  0  0  0  0  0  0  0  0  0
   50.9131   28.9178   45.9758 C   0  0  0  0  0  0  0  0  0  0  0  0
   49.8991   29.1584   46.9037 N   0  0  0  0  0  0  0  0  0  0  0  0
   49.8456   28.5713   47.7639 H   0  0  0  0  0  0  0  0  0  0  0  0
  1  6  2  0
  2  1  1  0
  3  2  2  0
  3  4  1  0
  4  5  2  0
  5  6  1  0
  5 11  1  0
  7  8  1  0
  7  3  1  0
  9  7  1  0
 10  7  1  0
 11 12  2  0
  1 13  1  0
  2 14  1  0
 15 16  2  0
 16 17  1  0
 16 18  1  0
 18 19  1  0
 18 20  2  0
 20 21  1  0
 21 22  2  0
 22 23  1  0
 21 24  1  0
 24 25  1  0
 25 26  2  0
 26 27  1  0
 26 28  1  0
 28 29  1  0
 28 30  2  0
 30 31  1  0
 30 32  1  0
 32 33  1  0
 32 34  2  0
 34 35  1  0
 35 36  1  0
 22 15  1  0
 34 25  1  0
 35 20  1  0
 11 15  1  0
M  ISO  8  13  14  14  14  17  16  19  16  23  16  27  16  29  16  31  16
M  ISO  2  33  16  36   5
M  END
>  <DihAtoms>  (1) 
4,10,14,15

>  <DihDeg>  (1) 
16.95244225262003

$$$$
