
 OpenBabel03242514333D

 39 42  0  0  0  0  0  0  0  0999 V2000
   47.4430   33.6640   38.5800 C   0  0  0  0  0  0  0  0  0  0  0  0
   48.4070   34.4380   38.0490 C   0  0  0  0  0  0  0  0  0  0  0  0
   48.8790   35.2500   38.5800 H   0  0  0  0  0  0  0  0  0  0  0  0
   48.7810   34.1330   36.7340 C   0  0  0  0  0  0  0  0  0  0  0  0
   49.5660   34.7810   36.3330 H   0  0  0  0  0  0  0  0  0  0  0  0
   48.2430   33.1270   35.9790 C   0  0  0  0  0  0  0  0  0  0  0  0
   47.2630   32.3600   36.5570 C   0  0  0  0  0  0  0  0  0  0  0  0
   46.8840   32.6300   37.8180 C   0  0  0  0  0  0  0  0  0  0  0  0
   46.0960   32.0060   38.2680 H   0  0  0  0  0  0  0  0  0  0  0  0
   46.5340   31.0380   35.6080 S   0  0  0  0  0  0  0  0  0  0  0  0
   47.3410   31.0670   34.0320 C   0  0  0  0  0  0  0  0  0  0  0  0
   46.9240   30.1260   33.1500 C   0  0  0  0  0  0  0  0  0  0  0  0
   46.1570   29.3900   33.3540 H   0  0  0  0  0  0  0  0  0  0  0  0
   47.5000   30.0660   31.8780 C   0  0  0  0  0  0  0  0  0  0  0  0
   47.2010   29.3340   31.1400 H   0  0  0  0  0  0  0  0  0  0  0  0
   48.4780   30.9710   31.5570 C   0  0  0  0  0  0  0  0  0  0  0  0
   48.9290   30.9350   30.5800 H   0  0  0  0  0  0  0  0  0  0  0  0
   48.8380   31.8890   32.5120 C   0  0  0  0  0  0  0  0  0  0  0  0
   49.6280   32.5820   32.1820 H   0  0  0  0  0  0  0  0  0  0  0  0
   48.3070   31.9970   33.7820 C   0  0  0  0  0  0  0  0  0  0  0  0
   48.7540   32.9750   34.6680 N   0  0  0  0  0  0  0  0  0  0  0  0
   49.5020   33.6060   34.3110 H   0  0  0  0  0  0  0  0  0  0  0  0
   46.9330   33.8540   39.9690 C   0  0  0  0  0  0  0  0  0  0  0  0
   45.7580   33.3110   40.0350 O   0  0  0  0  0  0  0  0  0  0  0  0
   47.2880   34.4010   41.1480 O   0  0  0  0  0  0  0  0  0  0  0  0
   49.1910   34.8410   42.8320 O   0  0  0  0  0  0  0  0  0  0  0  0
   48.3120   33.7530   42.2960 P   0  0  2  0  0  0  0  0  0  0  0  0
   49.3040   32.6110   41.5680 O   0  0  0  0  0  0  0  0  0  0  0  0
   50.0580   33.0200   41.1060 H   0  0  0  0  0  0  0  0  0  0  0  0
   47.4050   33.0500   43.5650 O   0  0  0  0  0  0  0  0  0  0  0  0
   45.8380   34.8470   43.6070 C   0  0  0  0  0  0  0  0  0  0  0  0
   46.4480   33.7880   44.2580 C   0  0  0  0  0  0  0  0  0  0  0  0
   46.0750   33.5080   45.5780 C   0  0  0  0  0  0  0  0  0  0  0  0
   45.1260   34.2990   46.1570 N   0  0  0  0  0  0  0  0  0  0  0  0
   44.5590   35.3130   45.4990 C   0  0  0  0  0  0  0  0  0  0  0  0
   44.9140   35.5780   44.2420 N   0  0  0  0  0  0  0  0  0  0  0  0
   46.0890   35.1110   42.5790 H   0  0  0  0  0  0  0  0  0  0  0  0
   46.5820   32.6830   46.0150 H   0  0  0  0  0  0  0  0  0  0  0  0
   43.8220   35.8530   46.0840 H   0  0  0  0  0  0  0  0  0  0  0  0
  1 23  1  0  0  0  0
  2  3  1  0  0  0  0
  2  1  1  0  0  0  0
  4  2  2  0  0  0  0
  5  4  1  0  0  0  0
  6  7  2  0  0  0  0
  6  4  1  0  0  0  0
  7  8  1  0  0  0  0
  8  9  1  0  0  0  0
  8  1  2  0  0  0  0
 10  7  1  0  0  0  0
 11 10  1  0  0  0  0
 12 13  1  0  0  0  0
 12 11  2  0  0  0  0
 14 12  1  0  0  0  0
 15 14  1  0  0  0  0
 16 14  2  0  0  0  0
 16 18  1  0  0  0  0
 17 16  1  0  0  0  0
 18 20  2  0  0  0  0
 19 18  1  0  0  0  0
 20 11  1  0  0  0  0
 20 21  1  0  0  0  0
 21  6  1  0  0  0  0
 22 21  1  0  0  0  0
 23 24  2  0  0  0  0
 23 25  1  0  0  0  0
 25 27  1  0  0  0  0
 27 26  2  1  0  0  0
 27 30  1  0  0  0  0
 28 27  1  0  0  0  0
 29 28  1  0  0  0  0
 30 32  1  0  0  0  0
 31 36  2  0  0  0  0
 31 32  1  0  0  0  0
 32 33  2  0  0  0  0
 33 38  1  0  0  0  0
 33 34  1  0  0  0  0
 35 39  1  0  0  0  0
 35 34  2  0  0  0  0
 36 35  1  0  0  0  0
 37 31  1  0  0  0  0
M  END
>  <minimizedAffinity>
-5.95029831

>  <minimizedRMSD>
1.75349784

$$$$
