
 OpenBabel03242518513D

 36 39  0  0  0  0  0  0  0  0999 V2000
   34.7820   28.0540   38.1430 C   0  0  0  0  0  0  0  0  0  0  0  0
   34.6100   29.0500   39.0780 C   0  0  0  0  0  0  0  0  0  0  0  0
   33.9070   29.8570   38.9680 H   0  0  0  0  0  0  0  0  0  0  0  0
   35.3270   29.0990   40.2620 C   0  0  0  0  0  0  0  0  0  0  0  0
   35.1500   29.9230   40.9740 H   0  0  0  0  0  0  0  0  0  0  0  0
   36.2760   28.1340   40.5860 C   0  0  0  0  0  0  0  0  0  0  0  0
   36.4250   27.1530   39.6330 C   0  0  0  0  0  0  0  0  0  0  0  0
   35.7270   27.1110   38.4830 C   0  0  0  0  0  0  0  0  0  0  0  0
   35.8850   26.3080   37.7480 H   0  0  0  0  0  0  0  0  0  0  0  0
   37.6110   25.8560   39.9290 S   0  0  0  0  0  0  0  0  0  0  0  0
   38.3170   26.2070   41.5260 C   0  0  0  0  0  0  0  0  0  0  0  0
   39.2440   25.3260   41.9780 C   0  0  0  0  0  0  0  0  0  0  0  0
   39.5460   24.4540   41.4070 H   0  0  0  0  0  0  0  0  0  0  0  0
   39.8070   25.5860   43.2250 C   0  0  0  0  0  0  0  0  0  0  0  0
   40.5490   24.9090   43.6130 H   0  0  0  0  0  0  0  0  0  0  0  0
   39.4650   26.6820   44.0000 C   0  0  0  0  0  0  0  0  0  0  0  0
   39.9020   26.8830   44.9570 H   0  0  0  0  0  0  0  0  0  0  0  0
   38.5050   27.5300   43.4550 C   0  0  0  0  0  0  0  0  0  0  0  0
   38.2480   28.3940   44.0870 H   0  0  0  0  0  0  0  0  0  0  0  0
   37.9200   27.3130   42.2270 C   0  0  0  0  0  0  0  0  0  0  0  0
   36.9620   28.2360   41.8070 N   0  0  0  0  0  0  0  0  0  0  0  0
   36.7330   29.0470   42.4220 H   0  0  0  0  0  0  0  0  0  0  0  0
   34.0180   28.0120   36.9050 C   0  0  0  0  0  0  0  0  0  0  0  0
   34.3280   27.0680   36.1220 O   0  0  0  0  0  0  0  0  0  0  0  0
   31.9690   30.3010   34.9350 C   0  0  0  0  0  0  0  0  0  0  0  0
   30.9650   30.7480   35.8210 C   0  0  0  0  0  0  0  0  0  0  0  0
   31.0310   30.2340   37.1070 C   0  0  0  0  0  0  0  0  0  0  0  0
   32.0220   29.3800   37.3800 N   0  0  0  0  0  0  0  0  0  0  0  0
   32.9740   28.9530   36.5500 C   0  0  0  0  0  0  0  0  0  0  0  0
   32.9340   29.4390   35.2890 N   0  0  0  0  0  0  0  0  0  0  0  0
   31.9390   30.6870   33.9210 H   0  0  0  0  0  0  0  0  0  0  0  0
   30.1910   31.4330   35.5460 H   0  0  0  0  0  0  0  0  0  0  0  0
   29.9960   30.6760   38.0500 C   0  0  0  0  0  0  0  0  0  0  0  0
   28.7400   30.4680   37.5040 F   0  0  0  0  0  0  0  0  0  0  0  0
   30.1350   32.0710   38.1500 F   0  0  0  0  0  0  0  0  0  0  0  0
   30.0700   30.0690   39.2590 F   0  0  0  0  0  0  0  0  0  0  0  0
  1  8  2  0  0  0  0
  1  2  1  0  0  0  0
  2  4  2  0  0  0  0
  3  2  1  0  0  0  0
  4  6  1  0  0  0  0
  4  5  1  0  0  0  0
  6 21  1  0  0  0  0
  7 10  1  0  0  0  0
  7  6  2  0  0  0  0
  8  7  1  0  0  0  0
  9  8  1  0  0  0  0
 10 11  1  0  0  0  0
 11 12  2  0  0  0  0
 11 20  1  0  0  0  0
 12 14  1  0  0  0  0
 13 12  1  0  0  0  0
 14 15  1  0  0  0  0
 14 16  2  0  0  0  0
 16 17  1  0  0  0  0
 18 16  1  0  0  0  0
 18 19  1  0  0  0  0
 20 18  2  0  0  0  0
 21 20  1  0  0  0  0
 21 22  1  0  0  0  0
 23  1  1  0  0  0  0
 24 23  2  0  0  0  0
 25 30  2  0  0  0  0
 25 26  1  0  0  0  0
 26 27  2  0  0  0  0
 27 28  1  0  0  0  0
 27 33  1  0  0  0  0
 29 23  1  0  0  0  0
 29 28  2  0  0  0  0
 30 29  1  0  0  0  0
 31 25  1  0  0  0  0
 32 26  1  0  0  0  0
 33 35  1  0  0  0  0
 33 36  1  0  0  0  0
 34 33  1  0  0  0  0
M  END
>  <minimizedAffinity>
-6.48657131

$$$$

 OpenBabel03242518513D

 36 39  0  0  0  0  0  0  0  0999 V2000
   34.2460   28.4230   37.0660 C   0  0  0  0  0  0  0  0  0  0  0  0
   34.6840   27.1190   36.9980 C   0  0  0  0  0  0  0  0  0  0  0  0
   34.4560   26.4550   36.1810 H   0  0  0  0  0  0  0  0  0  0  0  0
   35.4710   26.5400   37.9790 C   0  0  0  0  0  0  0  0  0  0  0  0
   35.7900   25.4890   37.8730 H   0  0  0  0  0  0  0  0  0  0  0  0
   35.8760   27.2470   39.1070 C   0  0  0  0  0  0  0  0  0  0  0  0
   35.4240   28.5450   39.1470 C   0  0  0  0  0  0  0  0  0  0  0  0
   34.6570   29.1030   38.1920 C   0  0  0  0  0  0  0  0  0  0  0  0
   34.3160   30.1450   38.2710 H   0  0  0  0  0  0  0  0  0  0  0  0
   35.8750   29.5580   40.5420 S   0  0  0  0  0  0  0  0  0  0  0  0
   36.8950   28.5260   41.5750 C   0  0  0  0  0  0  0  0  0  0  0  0
   37.3820   29.1010   42.7030 C   0  0  0  0  0  0  0  0  0  0  0  0
   37.1670   30.1310   42.9710 H   0  0  0  0  0  0  0  0  0  0  0  0
   38.1800   28.3060   43.5220 C   0  0  0  0  0  0  0  0  0  0  0  0
   38.5800   28.7300   44.4280 H   0  0  0  0  0  0  0  0  0  0  0  0
   38.4870   26.9860   43.2360 C   0  0  0  0  0  0  0  0  0  0  0  0
   39.0980   26.3760   43.8700 H   0  0  0  0  0  0  0  0  0  0  0  0
   37.9440   26.4830   42.0580 C   0  0  0  0  0  0  0  0  0  0  0  0
   38.2010   25.4320   41.8500 H   0  0  0  0  0  0  0  0  0  0  0  0
   37.1500   27.2300   41.2160 C   0  0  0  0  0  0  0  0  0  0  0  0
   36.6830   26.6030   40.0610 N   0  0  0  0  0  0  0  0  0  0  0  0
   36.9390   25.6080   39.8820 H   0  0  0  0  0  0  0  0  0  0  0  0
   33.4230   29.0200   36.0260 C   0  0  0  0  0  0  0  0  0  0  0  0
   33.8830   28.9020   34.8520 O   0  0  0  0  0  0  0  0  0  0  0  0
   30.5180   31.1640   35.4940 C   0  0  0  0  0  0  0  0  0  0  0  0
   29.7420   31.0250   36.6650 C   0  0  0  0  0  0  0  0  0  0  0  0
   30.2620   30.1750   37.6300 C   0  0  0  0  0  0  0  0  0  0  0  0
   31.4290   29.5800   37.3630 N   0  0  0  0  0  0  0  0  0  0  0  0
   32.1680   29.7060   36.2600 C   0  0  0  0  0  0  0  0  0  0  0  0
   31.6850   30.5290   35.3030 N   0  0  0  0  0  0  0  0  0  0  0  0
   30.1320   31.8220   34.7220 H   0  0  0  0  0  0  0  0  0  0  0  0
   28.8100   31.5250   36.8240 H   0  0  0  0  0  0  0  0  0  0  0  0
   29.4740   30.0060   38.8570 C   0  0  0  0  0  0  0  0  0  0  0  0
   30.3120   29.7170   39.9200 F   0  0  0  0  0  0  0  0  0  0  0  0
   28.6990   28.8490   38.6630 F   0  0  0  0  0  0  0  0  0  0  0  0
   28.7110   31.0840   39.1620 F   0  0  0  0  0  0  0  0  0  0  0  0
  1  8  1  0  0  0  0
  2  1  2  0  0  0  0
  2  4  1  0  0  0  0
  3  2  1  0  0  0  0
  4  6  2  0  0  0  0
  5  4  1  0  0  0  0
  6  7  1  0  0  0  0
  6 21  1  0  0  0  0
  7 10  1  0  0  0  0
  8  9  1  0  0  0  0
  8  7  2  0  0  0  0
 10 11  1  0  0  0  0
 11 12  1  0  0  0  0
 12 13  1  0  0  0  0
 12 14  2  0  0  0  0
 14 15  1  0  0  0  0
 16 14  1  0  0  0  0
 16 17  1  0  0  0  0
 18 16  2  0  0  0  0
 19 18  1  0  0  0  0
 20 11  2  0  0  0  0
 20 18  1  0  0  0  0
 21 20  1  0  0  0  0
 22 21  1  0  0  0  0
 23 29  1  0  0  0  0
 23  1  1  0  0  0  0
 24 23  2  0  0  0  0
 25 26  1  0  0  0  0
 26 32  1  0  0  0  0
 26 27  2  0  0  0  0
 27 33  1  0  0  0  0
 28 27  1  0  0  0  0
 29 28  2  0  0  0  0
 30 25  2  0  0  0  0
 30 29  1  0  0  0  0
 31 25  1  0  0  0  0
 33 36  1  0  0  0  0
 33 34  1  0  0  0  0
 35 33  1  0  0  0  0
M  END
>  <minimizedAffinity>
-6.47509336

$$$$

 OpenBabel03242518513D

 36 39  0  0  0  0  0  0  0  0999 V2000
   37.7990   29.3860   38.2010 C   0  0  0  0  0  0  0  0  0  0  0  0
   37.3340   30.5980   37.7380 C   0  0  0  0  0  0  0  0  0  0  0  0
   36.2980   30.7970   37.5260 H   0  0  0  0  0  0  0  0  0  0  0  0
   38.1650   31.6820   37.5100 C   0  0  0  0  0  0  0  0  0  0  0  0
   37.7370   32.6270   37.1360 H   0  0  0  0  0  0  0  0  0  0  0  0
   39.5360   31.6160   37.7380 C   0  0  0  0  0  0  0  0  0  0  0  0
   39.9700   30.3960   38.1980 C   0  0  0  0  0  0  0  0  0  0  0  0
   39.1590   29.3440   38.4170 C   0  0  0  0  0  0  0  0  0  0  0  0
   39.5540   28.3840   38.7820 H   0  0  0  0  0  0  0  0  0  0  0  0
   41.7080   30.1830   38.5300 S   0  0  0  0  0  0  0  0  0  0  0  0
   42.4630   31.7540   38.1630 C   0  0  0  0  0  0  0  0  0  0  0  0
   43.8010   31.8390   38.3670 C   0  0  0  0  0  0  0  0  0  0  0  0
   44.3880   31.0020   38.7310 H   0  0  0  0  0  0  0  0  0  0  0  0
   44.4060   33.0600   38.0840 C   0  0  0  0  0  0  0  0  0  0  0  0
   45.4680   33.1610   38.2300 H   0  0  0  0  0  0  0  0  0  0  0  0
   43.7120   34.1630   37.6150 C   0  0  0  0  0  0  0  0  0  0  0  0
   44.1800   35.1010   37.3940 H   0  0  0  0  0  0  0  0  0  0  0  0
   42.3430   33.9820   37.4370 C   0  0  0  0  0  0  0  0  0  0  0  0
   41.8100   34.8710   37.0650 H   0  0  0  0  0  0  0  0  0  0  0  0
   41.7000   32.7940   37.7050 C   0  0  0  0  0  0  0  0  0  0  0  0
   40.3220   32.7560   37.4950 N   0  0  0  0  0  0  0  0  0  0  0  0
   39.8360   33.6090   37.1430 H   0  0  0  0  0  0  0  0  0  0  0  0
   36.9140   28.2570   38.4400 C   0  0  0  0  0  0  0  0  0  0  0  0
   36.0860   28.0260   37.5120 O   0  0  0  0  0  0  0  0  0  0  0  0
   36.9230   25.3010   40.5800 C   0  0  0  0  0  0  0  0  0  0  0  0
   37.0060   25.8030   41.8970 C   0  0  0  0  0  0  0  0  0  0  0  0
   37.0530   27.1850   42.0080 C   0  0  0  0  0  0  0  0  0  0  0  0
   37.0160   27.8960   40.8770 N   0  0  0  0  0  0  0  0  0  0  0  0
   36.9380   27.4290   39.6300 C   0  0  0  0  0  0  0  0  0  0  0  0
   36.8900   26.0860   39.4930 N   0  0  0  0  0  0  0  0  0  0  0  0
   36.8880   24.2220   40.4660 H   0  0  0  0  0  0  0  0  0  0  0  0
   37.0360   25.1850   42.7690 H   0  0  0  0  0  0  0  0  0  0  0  0
   37.1450   27.7370   43.3660 C   0  0  0  0  0  0  0  0  0  0  0  0
   38.2280   27.1830   44.0280 F   0  0  0  0  0  0  0  0  0  0  0  0
   36.0090   27.2710   44.0500 F   0  0  0  0  0  0  0  0  0  0  0  0
   37.2390   29.0880   43.3950 F   0  0  0  0  0  0  0  0  0  0  0  0
  1  8  1  0  0  0  0
  1 23  1  0  0  0  0
  2  1  2  0  0  0  0
  3  2  1  0  0  0  0
  4  2  1  0  0  0  0
  4  6  2  0  0  0  0
  5  4  1  0  0  0  0
  6  7  1  0  0  0  0
  7  8  2  0  0  0  0
  7 10  1  0  0  0  0
  8  9  1  0  0  0  0
 11 12  1  0  0  0  0
 11 10  1  0  0  0  0
 12 13  1  0  0  0  0
 14 15  1  0  0  0  0
 14 12  2  0  0  0  0
 16 14  1  0  0  0  0
 17 16  1  0  0  0  0
 18 16  2  0  0  0  0
 18 20  1  0  0  0  0
 19 18  1  0  0  0  0
 20 11  2  0  0  0  0
 21 20  1  0  0  0  0
 21  6  1  0  0  0  0
 22 21  1  0  0  0  0
 23 29  1  0  0  0  0
 24 23  2  0  0  0  0
 25 26  1  0  0  0  0
 26 27  2  0  0  0  0
 26 32  1  0  0  0  0
 27 33  1  0  0  0  0
 28 27  1  0  0  0  0
 29 28  2  0  0  0  0
 30 29  1  0  0  0  0
 30 25  2  0  0  0  0
 31 25  1  0  0  0  0
 33 36  1  0  0  0  0
 33 34  1  0  0  0  0
 33 35  1  0  0  0  0
M  END
>  <minimizedAffinity>
-6.3512125

$$$$

 OpenBabel03242518513D

 36 39  0  0  0  0  0  0  0  0999 V2000
   37.2630   30.0190   39.1670 C   0  0  0  0  0  0  0  0  0  0  0  0
   37.1470   30.5490   37.9010 C   0  0  0  0  0  0  0  0  0  0  0  0
   36.3050   30.3700   37.2540 H   0  0  0  0  0  0  0  0  0  0  0  0
   38.1090   31.3740   37.3420 C   0  0  0  0  0  0  0  0  0  0  0  0
   37.9640   31.7660   36.3210 H   0  0  0  0  0  0  0  0  0  0  0  0
   39.2640   31.7260   38.0320 C   0  0  0  0  0  0  0  0  0  0  0  0
   39.3520   31.1830   39.2930 C   0  0  0  0  0  0  0  0  0  0  0  0
   38.4150   30.3800   39.8310 C   0  0  0  0  0  0  0  0  0  0  0  0
   38.5320   29.9640   40.8430 H   0  0  0  0  0  0  0  0  0  0  0  0
   40.7860   31.5580   40.2810 S   0  0  0  0  0  0  0  0  0  0  0  0
   41.7830   32.6480   39.2850 C   0  0  0  0  0  0  0  0  0  0  0  0
   42.9340   33.0910   39.8500 C   0  0  0  0  0  0  0  0  0  0  0  0
   43.2400   32.8030   40.8510 H   0  0  0  0  0  0  0  0  0  0  0  0
   43.7260   33.9420   39.0840 C   0  0  0  0  0  0  0  0  0  0  0  0
   44.6490   34.3090   39.5000 H   0  0  0  0  0  0  0  0  0  0  0  0
   43.3920   34.3430   37.8010 C   0  0  0  0  0  0  0  0  0  0  0  0
   44.0040   34.9950   37.2110 H   0  0  0  0  0  0  0  0  0  0  0  0
   42.1930   33.8380   37.3050 C   0  0  0  0  0  0  0  0  0  0  0  0
   41.9460   34.1700   36.2840 H   0  0  0  0  0  0  0  0  0  0  0  0
   41.3770   32.9950   38.0260 C   0  0  0  0  0  0  0  0  0  0  0  0
   40.1960   32.5750   37.4120 N   0  0  0  0  0  0  0  0  0  0  0  0
   39.9810   32.9010   36.4450 H   0  0  0  0  0  0  0  0  0  0  0  0
   36.2420   29.1570   39.7430 C   0  0  0  0  0  0  0  0  0  0  0  0
   35.0710   29.3590   39.3090 O   0  0  0  0  0  0  0  0  0  0  0  0
   36.7000   27.5410   42.9820 C   0  0  0  0  0  0  0  0  0  0  0  0
   36.9500   26.1840   42.6820 C   0  0  0  0  0  0  0  0  0  0  0  0
   36.9560   25.8620   41.3320 C   0  0  0  0  0  0  0  0  0  0  0  0
   36.7300   26.8500   40.4620 N   0  0  0  0  0  0  0  0  0  0  0  0
   36.4940   28.1330   40.7370 C   0  0  0  0  0  0  0  0  0  0  0  0
   36.4820   28.4750   42.0450 N   0  0  0  0  0  0  0  0  0  0  0  0
   36.6870   27.8180   44.0310 H   0  0  0  0  0  0  0  0  0  0  0  0
   37.1210   25.4320   43.4230 H   0  0  0  0  0  0  0  0  0  0  0  0
   37.2080   24.4560   40.9890 C   0  0  0  0  0  0  0  0  0  0  0  0
   36.0130   23.8200   40.6980 F   0  0  0  0  0  0  0  0  0  0  0  0
   37.6800   23.8490   42.1660 F   0  0  0  0  0  0  0  0  0  0  0  0
   38.0690   24.2990   39.9540 F   0  0  0  0  0  0  0  0  0  0  0  0
  1 23  1  0  0  0  0
  1  8  1  0  0  0  0
  2  1  2  0  0  0  0
  3  2  1  0  0  0  0
  4  2  1  0  0  0  0
  4  6  2  0  0  0  0
  5  4  1  0  0  0  0
  6  7  1  0  0  0  0
  7  8  2  0  0  0  0
  7 10  1  0  0  0  0
  8  9  1  0  0  0  0
 11 12  1  0  0  0  0
 11 10  1  0  0  0  0
 12 13  1  0  0  0  0
 14 15  1  0  0  0  0
 14 12  2  0  0  0  0
 16 14  1  0  0  0  0
 17 16  1  0  0  0  0
 18 16  2  0  0  0  0
 18 20  1  0  0  0  0
 19 18  1  0  0  0  0
 20 11  2  0  0  0  0
 21 20  1  0  0  0  0
 21  6  1  0  0  0  0
 22 21  1  0  0  0  0
 23 29  1  0  0  0  0
 24 23  2  0  0  0  0
 25 31  1  0  0  0  0
 26 25  1  0  0  0  0
 26 32  1  0  0  0  0
 27 26  2  0  0  0  0
 28 29  2  0  0  0  0
 28 27  1  0  0  0  0
 29 30  1  0  0  0  0
 30 25  2  0  0  0  0
 33 27  1  0  0  0  0
 33 35  1  0  0  0  0
 34 33  1  0  0  0  0
 36 33  1  0  0  0  0
M  END
>  <minimizedAffinity>
-6.316782

$$$$

 OpenBabel03242518513D

 36 39  0  0  0  0  0  0  0  0999 V2000
   37.6360   31.5140   39.3870 C   0  0  0  0  0  0  0  0  0  0  0  0
   37.1610   30.9550   38.2210 C   0  0  0  0  0  0  0  0  0  0  0  0
   37.0150   31.5110   37.3100 H   0  0  0  0  0  0  0  0  0  0  0  0
   36.8320   29.6150   38.1110 C   0  0  0  0  0  0  0  0  0  0  0  0
   36.4520   29.2230   37.1520 H   0  0  0  0  0  0  0  0  0  0  0  0
   36.9640   28.7370   39.1820 C   0  0  0  0  0  0  0  0  0  0  0  0
   37.4410   29.3220   40.3320 C   0  0  0  0  0  0  0  0  0  0  0  0
   37.7570   30.6260   40.4340 C   0  0  0  0  0  0  0  0  0  0  0  0
   38.1310   31.0510   41.3780 H   0  0  0  0  0  0  0  0  0  0  0  0
   37.6560   28.3020   41.7780 S   0  0  0  0  0  0  0  0  0  0  0  0
   37.1760   26.6600   41.2820 C   0  0  0  0  0  0  0  0  0  0  0  0
   37.2800   25.6940   42.2280 C   0  0  0  0  0  0  0  0  0  0  0  0
   37.6340   25.9000   43.2340 H   0  0  0  0  0  0  0  0  0  0  0  0
   36.9070   24.4050   41.8570 C   0  0  0  0  0  0  0  0  0  0  0  0
   36.9740   23.6140   42.5860 H   0  0  0  0  0  0  0  0  0  0  0  0
   36.4460   24.0810   40.5920 C   0  0  0  0  0  0  0  0  0  0  0  0
   36.1550   23.0890   40.3100 H   0  0  0  0  0  0  0  0  0  0  0  0
   36.3730   25.1370   39.6880 C   0  0  0  0  0  0  0  0  0  0  0  0
   36.0040   24.8570   38.6890 H   0  0  0  0  0  0  0  0  0  0  0  0
   36.7310   26.4270   40.0090 C   0  0  0  0  0  0  0  0  0  0  0  0
   36.6220   27.3860   39.0020 N   0  0  0  0  0  0  0  0  0  0  0  0
   36.2710   27.1000   38.0620 H   0  0  0  0  0  0  0  0  0  0  0  0
   37.9830   32.9230   39.4870 C   0  0  0  0  0  0  0  0  0  0  0  0
   36.9930   33.7120   39.5170 O   0  0  0  0  0  0  0  0  0  0  0  0
   40.9340   34.7190   40.6630 C   0  0  0  0  0  0  0  0  0  0  0  0
   41.9410   34.4250   39.7190 C   0  0  0  0  0  0  0  0  0  0  0  0
   41.5580   33.5950   38.6750 C   0  0  0  0  0  0  0  0  0  0  0  0
   40.2940   33.1630   38.6630 N   0  0  0  0  0  0  0  0  0  0  0  0
   39.3370   33.4370   39.5500 C   0  0  0  0  0  0  0  0  0  0  0  0
   39.6820   34.2430   40.5780 N   0  0  0  0  0  0  0  0  0  0  0  0
   41.2080   35.3640   41.4920 H   0  0  0  0  0  0  0  0  0  0  0  0
   42.9420   34.7970   39.7810 H   0  0  0  0  0  0  0  0  0  0  0  0
   42.5870   33.2670   37.6800 C   0  0  0  0  0  0  0  0  0  0  0  0
   42.1010   32.3200   36.7940 F   0  0  0  0  0  0  0  0  0  0  0  0
   43.6190   32.6260   38.3870 F   0  0  0  0  0  0  0  0  0  0  0  0
   43.0350   34.3440   36.9900 F   0  0  0  0  0  0  0  0  0  0  0  0
  1 23  1  0  0  0  0
  1  8  1  0  0  0  0
  2  1  2  0  0  0  0
  3  2  1  0  0  0  0
  4  2  1  0  0  0  0
  4  6  2  0  0  0  0
  5  4  1  0  0  0  0
  6  7  1  0  0  0  0
  7  8  2  0  0  0  0
  7 10  1  0  0  0  0
  8  9  1  0  0  0  0
 11 10  1  0  0  0  0
 11 12  1  0  0  0  0
 12 13  1  0  0  0  0
 14 12  2  0  0  0  0
 14 15  1  0  0  0  0
 16 14  1  0  0  0  0
 17 16  1  0  0  0  0
 18 20  1  0  0  0  0
 18 16  2  0  0  0  0
 19 18  1  0  0  0  0
 20 11  2  0  0  0  0
 21  6  1  0  0  0  0
 21 20  1  0  0  0  0
 22 21  1  0  0  0  0
 23 24  2  0  0  0  0
 23 29  1  0  0  0  0
 25 31  1  0  0  0  0
 26 32  1  0  0  0  0
 26 25  2  0  0  0  0
 27 26  1  0  0  0  0
 28 27  2  0  0  0  0
 28 29  1  0  0  0  0
 29 30  2  0  0  0  0
 30 25  1  0  0  0  0
 33 35  1  0  0  0  0
 33 27  1  0  0  0  0
 34 33  1  0  0  0  0
 36 33  1  0  0  0  0
M  END
>  <minimizedAffinity>
-6.23941755

$$$$

 OpenBabel03242518513D

 36 39  0  0  0  0  0  0  0  0999 V2000
   33.8740   28.9550   37.1480 C   0  0  0  0  0  0  0  0  0  0  0  0
   34.9990   29.0780   36.3630 C   0  0  0  0  0  0  0  0  0  0  0  0
   34.9740   29.1110   35.2870 H   0  0  0  0  0  0  0  0  0  0  0  0
   36.2750   29.1810   36.8910 C   0  0  0  0  0  0  0  0  0  0  0  0
   37.1400   29.2740   36.2130 H   0  0  0  0  0  0  0  0  0  0  0  0
   36.5040   29.1680   38.2630 C   0  0  0  0  0  0  0  0  0  0  0  0
   35.3640   29.0440   39.0210 C   0  0  0  0  0  0  0  0  0  0  0  0
   34.1250   28.9420   38.5030 C   0  0  0  0  0  0  0  0  0  0  0  0
   33.2420   28.8390   39.1510 H   0  0  0  0  0  0  0  0  0  0  0  0
   35.5220   29.0140   40.7960 S   0  0  0  0  0  0  0  0  0  0  0  0
   37.2640   29.1940   41.1250 C   0  0  0  0  0  0  0  0  0  0  0  0
   37.6270   29.2230   42.4310 C   0  0  0  0  0  0  0  0  0  0  0  0
   36.9060   29.1410   43.2380 H   0  0  0  0  0  0  0  0  0  0  0  0
   38.9850   29.3620   42.7050 C   0  0  0  0  0  0  0  0  0  0  0  0
   39.3090   29.3840   43.7320 H   0  0  0  0  0  0  0  0  0  0  0  0
   39.9530   29.4690   41.7200 C   0  0  0  0  0  0  0  0  0  0  0  0
   40.9980   29.5720   41.9330 H   0  0  0  0  0  0  0  0  0  0  0  0
   39.4860   29.4300   40.4090 C   0  0  0  0  0  0  0  0  0  0  0  0
   40.2720   29.5170   39.6430 H   0  0  0  0  0  0  0  0  0  0  0  0
   38.1530   29.2950   40.0900 C   0  0  0  0  0  0  0  0  0  0  0  0
   37.8230   29.2850   38.7350 N   0  0  0  0  0  0  0  0  0  0  0  0
   38.5820   29.3700   38.0240 H   0  0  0  0  0  0  0  0  0  0  0  0
   32.5390   28.8530   36.5800 C   0  0  0  0  0  0  0  0  0  0  0  0
   32.2050   27.6880   36.2160 O   0  0  0  0  0  0  0  0  0  0  0  0
   30.0870   31.4370   37.3730 C   0  0  0  0  0  0  0  0  0  0  0  0
   29.8720   32.1220   36.1570 C   0  0  0  0  0  0  0  0  0  0  0  0
   30.5970   31.6550   35.0710 C   0  0  0  0  0  0  0  0  0  0  0  0
   31.4150   30.6180   35.2760 N   0  0  0  0  0  0  0  0  0  0  0  0
   31.6240   29.9660   36.4200 C   0  0  0  0  0  0  0  0  0  0  0  0
   30.9300   30.4000   37.4950 N   0  0  0  0  0  0  0  0  0  0  0  0
   29.5330   31.7840   38.2390 H   0  0  0  0  0  0  0  0  0  0  0  0
   29.2040   32.9510   36.0510 H   0  0  0  0  0  0  0  0  0  0  0  0
   30.3970   32.3510   33.7940 C   0  0  0  0  0  0  0  0  0  0  0  0
   30.4540   31.4450   32.7480 F   0  0  0  0  0  0  0  0  0  0  0  0
   31.5170   33.1850   33.6290 F   0  0  0  0  0  0  0  0  0  0  0  0
   29.2340   33.0420   33.7310 F   0  0  0  0  0  0  0  0  0  0  0  0
  1  8  1  0  0  0  0
  2  4  1  0  0  0  0
  2  1  2  0  0  0  0
  3  2  1  0  0  0  0
  4  6  2  0  0  0  0
  5  4  1  0  0  0  0
  6 21  1  0  0  0  0
  6  7  1  0  0  0  0
  7 10  1  0  0  0  0
  8  7  2  0  0  0  0
  8  9  1  0  0  0  0
 10 11  1  0  0  0  0
 11 12  1  0  0  0  0
 12 14  2  0  0  0  0
 12 13  1  0  0  0  0
 14 15  1  0  0  0  0
 16 17  1  0  0  0  0
 16 14  1  0  0  0  0
 18 16  2  0  0  0  0
 19 18  1  0  0  0  0
 20 18  1  0  0  0  0
 20 11  2  0  0  0  0
 21 20  1  0  0  0  0
 22 21  1  0  0  0  0
 23  1  1  0  0  0  0
 24 23  2  0  0  0  0
 25 30  1  0  0  0  0
 25 31  1  0  0  0  0
 26 25  2  0  0  0  0
 27 28  2  0  0  0  0
 27 26  1  0  0  0  0
 28 29  1  0  0  0  0
 29 23  1  0  0  0  0
 29 30  2  0  0  0  0
 32 26  1  0  0  0  0
 33 27  1  0  0  0  0
 34 33  1  0  0  0  0
 35 33  1  0  0  0  0
 36 33  1  0  0  0  0
M  END
>  <minimizedAffinity>
-6.12940073

$$$$

 OpenBabel03242518513D

 36 39  0  0  0  0  0  0  0  0999 V2000
   34.6480   29.0060   38.0890 C   0  0  0  0  0  0  0  0  0  0  0  0
   34.5440   29.0990   39.4590 C   0  0  0  0  0  0  0  0  0  0  0  0
   33.7500   28.6470   40.0290 H   0  0  0  0  0  0  0  0  0  0  0  0
   35.4650   29.7800   40.2370 C   0  0  0  0  0  0  0  0  0  0  0  0
   35.3290   29.8240   41.3310 H   0  0  0  0  0  0  0  0  0  0  0  0
   36.5670   30.4190   39.6780 C   0  0  0  0  0  0  0  0  0  0  0  0
   36.6450   30.3100   38.3090 C   0  0  0  0  0  0  0  0  0  0  0  0
   35.7450   29.6480   37.5570 C   0  0  0  0  0  0  0  0  0  0  0  0
   35.8470   29.5920   36.4630 H   0  0  0  0  0  0  0  0  0  0  0  0
   38.0120   31.0860   37.4710 S   0  0  0  0  0  0  0  0  0  0  0  0
   38.9990   31.8330   38.7530 C   0  0  0  0  0  0  0  0  0  0  0  0
   40.1240   32.4720   38.3470 C   0  0  0  0  0  0  0  0  0  0  0  0
   40.4150   32.5320   37.3030 H   0  0  0  0  0  0  0  0  0  0  0  0
   40.9050   33.0620   39.3370 C   0  0  0  0  0  0  0  0  0  0  0  0
   41.8040   33.5820   39.0490 H   0  0  0  0  0  0  0  0  0  0  0  0
   40.5860   33.0220   40.6840 C   0  0  0  0  0  0  0  0  0  0  0  0
   41.1870   33.4800   41.4430 H   0  0  0  0  0  0  0  0  0  0  0  0
   39.4140   32.3440   41.0050 C   0  0  0  0  0  0  0  0  0  0  0  0
   39.1790   32.3240   42.0810 H   0  0  0  0  0  0  0  0  0  0  0  0
   38.6090   31.7440   40.0610 C   0  0  0  0  0  0  0  0  0  0  0  0
   37.4700   31.0860   40.5240 N   0  0  0  0  0  0  0  0  0  0  0  0
   37.2660   31.0770   41.5470 H   0  0  0  0  0  0  0  0  0  0  0  0
   33.6750   28.2830   37.2850 C   0  0  0  0  0  0  0  0  0  0  0  0
   33.8010   27.0240   37.3050 O   0  0  0  0  0  0  0  0  0  0  0  0
   31.3660   28.9680   34.5430 C   0  0  0  0  0  0  0  0  0  0  0  0
   30.5930   30.0650   34.9810 C   0  0  0  0  0  0  0  0  0  0  0  0
   30.9050   30.5500   36.2430 C   0  0  0  0  0  0  0  0  0  0  0  0
   31.8910   29.9420   36.9110 N   0  0  0  0  0  0  0  0  0  0  0  0
   32.6250   28.9060   36.5040 C   0  0  0  0  0  0  0  0  0  0  0  0
   32.3430   28.4140   35.2770 N   0  0  0  0  0  0  0  0  0  0  0  0
   31.1410   28.5680   33.5600 H   0  0  0  0  0  0  0  0  0  0  0  0
   29.8110   30.5100   34.4040 H   0  0  0  0  0  0  0  0  0  0  0  0
   30.1140   31.6870   36.7280 C   0  0  0  0  0  0  0  0  0  0  0  0
   28.7740   31.4850   36.4440 F   0  0  0  0  0  0  0  0  0  0  0  0
   30.5010   32.7890   35.9470 F   0  0  0  0  0  0  0  0  0  0  0  0
   30.2640   31.9240   38.0540 F   0  0  0  0  0  0  0  0  0  0  0  0
  1  2  1  0  0  0  0
  2  3  1  0  0  0  0
  2  4  2  0  0  0  0
  4  5  1  0  0  0  0
  6  4  1  0  0  0  0
  6 21  1  0  0  0  0
  7  6  2  0  0  0  0
  8  1  2  0  0  0  0
  8  7  1  0  0  0  0
  9  8  1  0  0  0  0
 10  7  1  0  0  0  0
 10 11  1  0  0  0  0
 11 20  1  0  0  0  0
 12 11  2  0  0  0  0
 12 14  1  0  0  0  0
 13 12  1  0  0  0  0
 14 16  2  0  0  0  0
 15 14  1  0  0  0  0
 16 18  1  0  0  0  0
 16 17  1  0  0  0  0
 18 19  1  0  0  0  0
 20 21  1  0  0  0  0
 20 18  2  0  0  0  0
 21 22  1  0  0  0  0
 23 24  2  0  0  0  0
 23  1  1  0  0  0  0
 25 26  2  0  0  0  0
 25 30  1  0  0  0  0
 26 27  1  0  0  0  0
 27 33  1  0  0  0  0
 27 28  2  0  0  0  0
 29 28  1  0  0  0  0
 29 23  1  0  0  0  0
 30 29  2  0  0  0  0
 31 25  1  0  0  0  0
 32 26  1  0  0  0  0
 33 36  1  0  0  0  0
 34 33  1  0  0  0  0
 35 33  1  0  0  0  0
M  END
>  <minimizedAffinity>
-5.91924286

$$$$

 OpenBabel03242518513D

 36 39  0  0  0  0  0  0  0  0999 V2000
   34.3340   28.5030   37.6030 C   0  0  0  0  0  0  0  0  0  0  0  0
   33.8030   29.2210   38.6520 C   0  0  0  0  0  0  0  0  0  0  0  0
   32.9120   29.8200   38.5740 H   0  0  0  0  0  0  0  0  0  0  0  0
   34.3670   29.2300   39.9160 C   0  0  0  0  0  0  0  0  0  0  0  0
   33.8990   29.8260   40.7180 H   0  0  0  0  0  0  0  0  0  0  0  0
   35.5180   28.5050   40.2110 C   0  0  0  0  0  0  0  0  0  0  0  0
   36.0250   27.7990   39.1460 C   0  0  0  0  0  0  0  0  0  0  0  0
   35.4730   27.7950   37.9180 C   0  0  0  0  0  0  0  0  0  0  0  0
   35.9190   27.2180   37.0940 H   0  0  0  0  0  0  0  0  0  0  0  0
   37.4980   26.8280   39.3940 S   0  0  0  0  0  0  0  0  0  0  0  0
   37.9290   27.0400   41.1090 C   0  0  0  0  0  0  0  0  0  0  0  0
   39.0230   26.3650   41.5400 C   0  0  0  0  0  0  0  0  0  0  0  0
   39.6100   25.7290   40.8860 H   0  0  0  0  0  0  0  0  0  0  0  0
   39.3740   26.5210   42.8790 C   0  0  0  0  0  0  0  0  0  0  0  0
   40.2400   26.0020   43.2540 H   0  0  0  0  0  0  0  0  0  0  0  0
   38.6670   27.3190   43.7630 C   0  0  0  0  0  0  0  0  0  0  0  0
   38.9410   27.4410   44.7910 H   0  0  0  0  0  0  0  0  0  0  0  0
   37.5590   27.9730   43.2310 C   0  0  0  0  0  0  0  0  0  0  0  0
   37.0110   28.6010   43.9500 H   0  0  0  0  0  0  0  0  0  0  0  0
   37.1730   27.8480   41.9140 C   0  0  0  0  0  0  0  0  0  0  0  0
   36.0340   28.5490   41.5180 N   0  0  0  0  0  0  0  0  0  0  0  0
   35.5290   29.1380   42.2150 H   0  0  0  0  0  0  0  0  0  0  0  0
   33.7280   28.5000   36.2800 C   0  0  0  0  0  0  0  0  0  0  0  0
   34.4640   28.0380   35.3600 O   0  0  0  0  0  0  0  0  0  0  0  0
   30.1060   28.5360   35.8320 C   0  0  0  0  0  0  0  0  0  0  0  0
   29.7980   29.8600   35.4500 C   0  0  0  0  0  0  0  0  0  0  0  0
   30.8810   30.7210   35.3530 C   0  0  0  0  0  0  0  0  0  0  0  0
   32.0910   30.2230   35.6250 N   0  0  0  0  0  0  0  0  0  0  0  0
   32.3900   28.9750   35.9860 C   0  0  0  0  0  0  0  0  0  0  0  0
   31.3540   28.1140   36.0880 N   0  0  0  0  0  0  0  0  0  0  0  0
   29.2760   27.8420   35.9180 H   0  0  0  0  0  0  0  0  0  0  0  0
   28.8070   30.2050   35.2470 H   0  0  0  0  0  0  0  0  0  0  0  0
   30.5910   32.1070   34.9630 C   0  0  0  0  0  0  0  0  0  0  0  0
   31.7080   32.6740   34.3720 F   0  0  0  0  0  0  0  0  0  0  0  0
   30.4000   32.8150   36.1620 F   0  0  0  0  0  0  0  0  0  0  0  0
   29.5300   32.2220   34.1280 F   0  0  0  0  0  0  0  0  0  0  0  0
  1  8  2  0  0  0  0
  1  2  1  0  0  0  0
  2  4  2  0  0  0  0
  3  2  1  0  0  0  0
  4  6  1  0  0  0  0
  4  5  1  0  0  0  0
  6 21  1  0  0  0  0
  7 10  1  0  0  0  0
  7  6  2  0  0  0  0
  8  7  1  0  0  0  0
  9  8  1  0  0  0  0
 10 11  1  0  0  0  0
 11 12  2  0  0  0  0
 11 20  1  0  0  0  0
 12 14  1  0  0  0  0
 13 12  1  0  0  0  0
 14 15  1  0  0  0  0
 14 16  2  0  0  0  0
 16 17  1  0  0  0  0
 18 16  1  0  0  0  0
 18 19  1  0  0  0  0
 20 18  2  0  0  0  0
 21 20  1  0  0  0  0
 21 22  1  0  0  0  0
 23  1  1  0  0  0  0
 24 23  2  0  0  0  0
 25 31  1  0  0  0  0
 25 30  1  0  0  0  0
 26 25  2  0  0  0  0
 27 26  1  0  0  0  0
 27 28  2  0  0  0  0
 28 29  1  0  0  0  0
 29 30  2  0  0  0  0
 29 23  1  0  0  0  0
 32 26  1  0  0  0  0
 33 27  1  0  0  0  0
 33 35  1  0  0  0  0
 34 33  1  0  0  0  0
 36 33  1  0  0  0  0
M  END
>  <minimizedAffinity>
-5.91886187

$$$$

 OpenBabel03242518513D

 36 39  0  0  0  0  0  0  0  0999 V2000
   38.8560   31.6070   39.8460 C   0  0  0  0  0  0  0  0  0  0  0  0
   39.3310   32.8080   40.3240 C   0  0  0  0  0  0  0  0  0  0  0  0
   38.7910   33.4290   41.0190 H   0  0  0  0  0  0  0  0  0  0  0  0
   40.5620   33.3280   39.9580 C   0  0  0  0  0  0  0  0  0  0  0  0
   40.8890   34.2970   40.3710 H   0  0  0  0  0  0  0  0  0  0  0  0
   41.4060   32.6620   39.0760 C   0  0  0  0  0  0  0  0  0  0  0  0
   40.9060   31.4660   38.6150 C   0  0  0  0  0  0  0  0  0  0  0  0
   39.7080   30.9670   38.9730 C   0  0  0  0  0  0  0  0  0  0  0  0
   39.3480   30.0070   38.5730 H   0  0  0  0  0  0  0  0  0  0  0  0
   41.8940   30.5150   37.4780 S   0  0  0  0  0  0  0  0  0  0  0  0
   43.3960   31.4450   37.2530 C   0  0  0  0  0  0  0  0  0  0  0  0
   44.3240   30.8940   36.4310 C   0  0  0  0  0  0  0  0  0  0  0  0
   44.1700   29.9420   35.9340 H   0  0  0  0  0  0  0  0  0  0  0  0
   45.5040   31.6090   36.2440 C   0  0  0  0  0  0  0  0  0  0  0  0
   46.2610   31.2030   35.5950 H   0  0  0  0  0  0  0  0  0  0  0  0
   45.7590   32.8300   36.8480 C   0  0  0  0  0  0  0  0  0  0  0  0
   46.6660   33.3800   36.6990 H   0  0  0  0  0  0  0  0  0  0  0  0
   44.7490   33.3150   37.6740 C   0  0  0  0  0  0  0  0  0  0  0  0
   44.9720   34.2860   38.1440 H   0  0  0  0  0  0  0  0  0  0  0  0
   43.5660   32.6430   37.8900 C   0  0  0  0  0  0  0  0  0  0  0  0
   42.6460   33.2390   38.7530 N   0  0  0  0  0  0  0  0  0  0  0  0
   42.8770   34.1580   39.1890 H   0  0  0  0  0  0  0  0  0  0  0  0
   37.5640   31.0710   40.2420 C   0  0  0  0  0  0  0  0  0  0  0  0
   36.6800   31.9440   40.4860 O   0  0  0  0  0  0  0  0  0  0  0  0
   36.7450   27.6340   39.3310 C   0  0  0  0  0  0  0  0  0  0  0  0
   36.6930   26.9330   40.5560 C   0  0  0  0  0  0  0  0  0  0  0  0
   36.9460   27.6910   41.6890 C   0  0  0  0  0  0  0  0  0  0  0  0
   37.2080   28.9900   41.5160 N   0  0  0  0  0  0  0  0  0  0  0  0
   37.2590   29.6590   40.3640 C   0  0  0  0  0  0  0  0  0  0  0  0
   37.0160   28.9450   39.2420 N   0  0  0  0  0  0  0  0  0  0  0  0
   36.5530   27.0620   38.4280 H   0  0  0  0  0  0  0  0  0  0  0  0
   36.4810   25.8880   40.6350 H   0  0  0  0  0  0  0  0  0  0  0  0
   36.9040   26.9890   42.9780 C   0  0  0  0  0  0  0  0  0  0  0  0
   38.0930   27.1840   43.6600 F   0  0  0  0  0  0  0  0  0  0  0  0
   36.8690   25.6180   42.6700 F   0  0  0  0  0  0  0  0  0  0  0  0
   35.8650   27.3610   43.7630 F   0  0  0  0  0  0  0  0  0  0  0  0
  1 23  1  0  0  0  0
  1  2  1  0  0  0  0
  2  3  1  0  0  0  0
  4  2  2  0  0  0  0
  4  5  1  0  0  0  0
  6  4  1  0  0  0  0
  7  8  1  0  0  0  0
  7  6  2  0  0  0  0
  8  1  2  0  0  0  0
  9  8  1  0  0  0  0
 10  7  1  0  0  0  0
 11 10  1  0  0  0  0
 11 20  1  0  0  0  0
 12 11  2  0  0  0  0
 13 12  1  0  0  0  0
 14 12  1  0  0  0  0
 14 16  2  0  0  0  0
 15 14  1  0  0  0  0
 16 18  1  0  0  0  0
 17 16  1  0  0  0  0
 18 20  2  0  0  0  0
 18 19  1  0  0  0  0
 20 21  1  0  0  0  0
 21  6  1  0  0  0  0
 21 22  1  0  0  0  0
 23 29  1  0  0  0  0
 23 24  2  0  0  0  0
 25 26  1  0  0  0  0
 26 32  1  0  0  0  0
 26 27  2  0  0  0  0
 27 33  1  0  0  0  0
 28 27  1  0  0  0  0
 29 28  2  0  0  0  0
 30 25  2  0  0  0  0
 30 29  1  0  0  0  0
 31 25  1  0  0  0  0
 33 34  1  0  0  0  0
 33 36  1  0  0  0  0
 35 33  1  0  0  0  0
M  END
>  <minimizedAffinity>
-5.89533901

$$$$
