REMARK  Name = 
REMARK  6 active torsions:
REMARK  status: ('A' for Active; 'I' for Inactive)
REMARK    1  A    between atoms: C_2  and  O_7
REMARK    2  A    between atoms: O_7  and  P_9
REMARK    3  A    between atoms: P_9  and  O_10
REMARK    4  A    between atoms: P_9  and  O_11
REMARK    5  A    between atoms: O_11  and  C_12
REMARK    6  A    between atoms: C_12  and  C_18
REMARK                            x       y       z     vdW  Elec       q    Type
REMARK                         _______ _______ _______ _____ _____    ______ ____
ROOT
ATOM      1  C   UNL     1      48.491  34.243  37.944  0.00  0.00    +0.000 A 
ATOM      2  C   UNL     1      49.414  35.040  37.374  0.00  0.00    +0.000 A 
ATOM      3  H   UNL     1      49.900  35.853  37.893  0.00  0.00    +0.000 HD
ATOM      4  C   UNL     1      49.726  34.760  36.039  0.00  0.00    +0.000 A 
ATOM      5  H   UNL     1      50.478  35.425  35.607  0.00  0.00    +0.000 HD
ATOM      6  C   UNL     1      49.166  33.754  35.298  0.00  0.00    +0.000 A 
ATOM      7  C   UNL     1      48.229  32.963  35.914  0.00  0.00    +0.000 A 
ATOM      8  C   UNL     1      47.911  33.210  37.197  0.00  0.00    +0.000 A 
ATOM      9  H   UNL     1      47.157  32.567  37.677  0.00  0.00    +0.000 HD
ATOM     10  S   UNL     1      47.475  31.641  34.986  0.00  0.00    +0.000 S 
ATOM     11  C   UNL     1      48.199  31.705  33.371  0.00  0.00    +0.000 A 
ATOM     12  C   UNL     1      47.753  30.768  32.498  0.00  0.00    +0.000 A 
ATOM     13  H   UNL     1      47.010  30.017  32.730  0.00  0.00    +0.000 HD
ATOM     14  C   UNL     1      48.264  30.735  31.197  0.00  0.00    +0.000 A 
ATOM     15  H   UNL     1      47.939  30.007  30.466  0.00  0.00    +0.000 HD
ATOM     16  C   UNL     1      49.209  31.660  30.840  0.00  0.00    +0.000 A 
ATOM     17  H   UNL     1      49.610  31.645  29.841  0.00  0.00    +0.000 HD
ATOM     18  C   UNL     1      49.602  32.572  31.788  0.00  0.00    +0.000 A 
ATOM     19  H   UNL     1      50.363  33.282  31.427  0.00  0.00    +0.000 HD
ATOM     20  C   UNL     1      49.136  32.654  33.085  0.00  0.00    +0.000 A 
ATOM     21  N   UNL     1      49.611  33.628  33.961  0.00  0.00    +0.000 N 
ATOM     22  H   UNL     1      50.331  34.277  33.575  0.00  0.00    +0.000 HD
ENDROOT
BRANCH   1  23
ATOM     23  C   UNL     1      48.050  34.407  39.359  0.00  0.00    +0.000 C 
ATOM     24  O   UNL     1      46.954  33.732  39.511  0.00  0.00    +0.000 OA
BRANCH  23  25
ATOM     25  O   UNL     1      48.411  35.021  40.503  0.00  0.00    +0.000 OA
BRANCH  25  27
ATOM     26  O   UNL     1      49.547  35.364  42.792  0.00  0.00    +0.000 OA
ATOM     27  P   UNL     1      48.978  34.305  41.900  0.00  0.00    +0.000 P 
BRANCH  27  28
ATOM     28  O   UNL     1      50.221  33.246  41.511  0.00  0.00    +0.000 OA
ATOM     29  H   UNL     1      51.070  33.706  41.386  0.00  0.00    +0.000 HD
ENDBRANCH  27  28
BRANCH  27  30
ATOM     30  O   UNL     1      47.707  33.483  42.699  0.00  0.00    +0.000 OA
BRANCH  30  32
ATOM     31  C   UNL     1      46.140  35.281  42.699  0.00  0.00    +0.000 A 
ATOM     32  C   UNL     1      46.691  34.186  43.343  0.00  0.00    +0.000 A 
ATOM     33  C   UNL     1      46.203  33.837  44.608  0.00  0.00    +0.000 A 
ATOM     34  N   UNL     1      45.206  34.599  45.143  0.00  0.00    +0.000 NA
ATOM     35  C   UNL     1      44.698  35.648  44.493  0.00  0.00    +0.000 A 
ATOM     36  N   UNL     1      45.162  35.980  43.289  0.00  0.00    +0.000 NA
ATOM     37  H   UNL     1      46.480  35.599  41.713  0.00  0.00    +0.000 HD
ATOM     38  H   UNL     1      46.671  32.988  45.043  0.00  0.00    +0.000 HD
ATOM     39  H   UNL     1      43.911  36.159  45.039  0.00  0.00    +0.000 HD
ENDBRANCH  30  32
ENDBRANCH  27  30
ENDBRANCH  25  27
ENDBRANCH  23  25
ENDBRANCH   1  23
TORSDOF 6
