
 OpenBabel03252500313D

 56 61  0  0  1  0  0  0  0  0999 V2000
   45.9400   31.8190   46.9540 N   0  0  0  0  0  0  0  0  0  0  0  0
   46.6600   32.5710   47.9200 C   0  0  0  0  0  0  0  0  0  0  0  0
   48.0080   31.9390   48.2730 C   0  0  0  0  0  0  0  0  0  0  0  0
   47.6680   30.6230   48.9560 C   0  0  0  0  0  0  0  0  0  0  0  0
   47.0290   29.7800   47.8700 C   0  0  0  0  0  0  0  0  0  0  0  0
   45.8160   30.4680   47.2980 C   0  0  2  0  0  0  0  0  0  0  0  0
   46.0540   32.4170   48.8690 H   0  0  0  0  0  0  0  0  0  0  0  0
   46.6700   33.6450   47.8280 H   0  0  0  0  0  0  0  0  0  0  0  0
   48.6150   31.7030   47.3910 H   0  0  0  0  0  0  0  0  0  0  0  0
   48.5130   32.5960   49.0060 H   0  0  0  0  0  0  0  0  0  0  0  0
   48.6370   30.1690   49.2440 H   0  0  0  0  0  0  0  0  0  0  0  0
   46.9760   30.7840   49.8200 H   0  0  0  0  0  0  0  0  0  0  0  0
   46.6970   28.8260   48.3290 H   0  0  0  0  0  0  0  0  0  0  0  0
   47.8310   29.5890   47.1350 H   0  0  0  0  0  0  0  0  0  0  0  0
   45.1270   30.4860   48.2080 H   0  0  0  0  0  0  0  0  0  0  0  0
   45.1250   29.5940   46.3440 C   0  0  0  0  0  0  0  0  0  0  0  0
   45.1540   29.7930   44.9780 C   0  0  0  0  0  0  0  0  0  0  0  0
   45.7000   30.6260   44.5530 H   0  0  0  0  0  0  0  0  0  0  0  0
   44.4680   28.9050   44.1380 C   0  0  0  0  0  0  0  0  0  0  0  0
   44.5460   29.1390   43.0650 H   0  0  0  0  0  0  0  0  0  0  0  0
   43.7460   27.8210   44.5910 C   0  0  0  0  0  0  0  0  0  0  0  0
   43.7220   27.6320   45.9520 C   0  0  0  0  0  0  0  0  0  0  0  0
   44.3930   28.5010   46.7620 C   0  0  0  0  0  0  0  0  0  0  0  0
   44.3420   28.3040   47.8440 H   0  0  0  0  0  0  0  0  0  0  0  0
   42.8100   26.2570   46.5820 S   0  0  0  0  0  0  0  0  0  0  0  0
   42.1150   25.4200   45.1840 C   0  0  0  0  0  0  0  0  0  0  0  0
   41.3640   24.3120   45.4750 C   0  0  0  0  0  0  0  0  0  0  0  0
   41.1860   23.9470   46.4580 H   0  0  0  0  0  0  0  0  0  0  0  0
   40.7880   23.6100   44.4130 C   0  0  0  0  0  0  0  0  0  0  0  0
   40.1920   22.7340   44.6090 H   0  0  0  0  0  0  0  0  0  0  0  0
   40.9900   24.0460   43.1200 C   0  0  0  0  0  0  0  0  0  0  0  0
   40.5560   23.5160   42.3010 H   0  0  0  0  0  0  0  0  0  0  0  0
   41.7630   25.1720   42.9340 C   0  0  0  0  0  0  0  0  0  0  0  0
   41.8870   25.4690   41.8810 H   0  0  0  0  0  0  0  0  0  0  0  0
   42.3630   25.9170   43.9330 C   0  0  0  0  0  0  0  0  0  0  0  0
   43.1200   27.0390   43.5970 N   0  0  0  0  0  0  0  0  0  0  0  0
   43.2070   27.2770   42.5860 H   0  0  0  0  0  0  0  0  0  0  0  0
   46.1480   32.1940   45.5960 C   0  0  0  0  0  0  0  0  0  0  0  0
   45.3650   31.7880   44.9530 H   0  0  0  0  0  0  0  0  0  0  0  0
   47.1520   31.7890   45.2760 H   0  0  0  0  0  0  0  0  0  0  0  0
   46.0070   34.4030   44.2100 C   0  0  1  0  0  0  0  0  0  0  0  0
   45.0450   34.4840   45.2460 C   0  0  0  0  0  0  0  0  0  0  0  0
   46.2540   33.6720   45.5450 C   0  0  1  0  0  0  0  0  0  0  0  0
   46.6710   35.2750   43.9920 H   0  0  0  0  0  0  0  0  0  0  0  0
   44.0960   33.8990   45.1500 H   0  0  0  0  0  0  0  0  0  0  0  0
   44.8600   35.4400   45.7830 H   0  0  0  0  0  0  0  0  0  0  0  0
   47.1540   34.0910   46.0260 H   0  0  0  0  0  0  0  0  0  0  0  0
   44.5910   33.0940   42.6230 C   0  0  0  0  0  0  0  0  0  0  0  0
   45.8900   33.5480   42.9930 C   0  0  0  0  0  0  0  0  0  0  0  0
   46.9710   33.1860   42.2320 C   0  0  0  0  0  0  0  0  0  0  0  0
   46.7410   32.3960   41.1410 N   0  0  0  0  0  0  0  0  0  0  0  0
   45.4890   31.9700   40.8010 C   0  0  0  0  0  0  0  0  0  0  0  0
   44.3900   32.3130   41.5400 N   0  0  0  0  0  0  0  0  0  0  0  0
   43.7030   33.3400   43.1760 H   0  0  0  0  0  0  0  0  0  0  0  0
   47.9470   33.5210   42.5010 H   0  0  0  0  0  0  0  0  0  0  0  0
   45.5460   31.3650   39.9160 H   0  0  0  0  0  0  0  0  0  0  0  0
  1  6  1  0  0  0  0
  1  2  1  0  0  0  0
  2  3  1  0  0  0  0
  2  7  1  0  0  0  0
  3  4  1  0  0  0  0
  3 10  1  0  0  0  0
  4 11  1  0  0  0  0
  4 12  1  0  0  0  0
  5 13  1  0  0  0  0
  5  4  1  0  0  0  0
  6  5  1  0  0  0  0
  6 15  1  1  0  0  0
  8  2  1  0  0  0  0
  9  3  1  0  0  0  0
 14  5  1  0  0  0  0
 16 23  1  0  0  0  0
 16  6  1  0  0  0  0
 17 16  2  0  0  0  0
 18 17  1  0  0  0  0
 19 21  2  0  0  0  0
 19 17  1  0  0  0  0
 20 19  1  0  0  0  0
 21 22  1  0  0  0  0
 22 25  1  0  0  0  0
 22 23  2  0  0  0  0
 23 24  1  0  0  0  0
 26 27  1  0  0  0  0
 26 25  1  0  0  0  0
 27 28  1  0  0  0  0
 29 30  1  0  0  0  0
 29 27  2  0  0  0  0
 31 29  1  0  0  0  0
 32 31  1  0  0  0  0
 33 31  2  0  0  0  0
 33 35  1  0  0  0  0
 34 33  1  0  0  0  0
 35 26  2  0  0  0  0
 36 35  1  0  0  0  0
 36 21  1  0  0  0  0
 37 36  1  0  0  0  0
 38  1  1  0  0  0  0
 39 38  1  0  0  0  0
 40 38  1  0  0  0  0
 41 44  1  6  0  0  0
 41 42  1  0  0  0  0
 41 43  1  0  0  0  0
 42 43  1  0  0  0  0
 42 46  1  0  0  0  0
 43 38  1  0  0  0  0
 43 47  1  1  0  0  0
 45 42  1  0  0  0  0
 48 49  1  0  0  0  0
 48 54  1  0  0  0  0
 49 41  1  0  0  0  0
 50 55  1  0  0  0  0
 50 49  2  0  0  0  0
 51 50  1  0  0  0  0
 52 51  2  0  0  0  0
 52 53  1  0  0  0  0
 53 48  2  0  0  0  0
 56 52  1  0  0  0  0
M  END
>  <minimizedAffinity>
-4.8548646

>  <minimizedRMSD>
0.390399367

$$$$
