
 OpenBabel03242512363D

 47 52  0  0  0  0  0  0  0  0999 V2000
   46.8250   34.6680   43.1720 C   0  0  0  0  0  0  0  0  0  0  0  0
   45.6340   35.3680   43.4170 C   0  0  0  0  0  0  0  0  0  0  0  0
   44.8980   34.9600   44.5430 C   0  0  0  0  0  0  0  0  0  0  0  0
   45.3760   33.9300   45.3130 N   0  0  0  0  0  0  0  0  0  0  0  0
   46.5210   33.3100   45.0150 C   0  0  0  0  0  0  0  0  0  0  0  0
   47.2490   33.6810   43.9400 N   0  0  0  0  0  0  0  0  0  0  0  0
   45.2090   36.1710   42.8630 H   0  0  0  0  0  0  0  0  0  0  0  0
   43.9660   35.4400   44.8130 H   0  0  0  0  0  0  0  0  0  0  0  0
   47.0130   32.2170   45.8460 C   0  0  0  0  0  0  0  0  0  0  0  0
   47.1190   32.3680   47.2140 C   0  0  0  0  0  0  0  0  0  0  0  0
   46.8280   33.3130   47.6500 H   0  0  0  0  0  0  0  0  0  0  0  0
   47.5850   31.3230   47.9790 C   0  0  0  0  0  0  0  0  0  0  0  0
   47.6330   31.5390   49.0490 H   0  0  0  0  0  0  0  0  0  0  0  0
   47.9670   30.1000   47.4710 C   0  0  0  0  0  0  0  0  0  0  0  0
   47.8560   29.9700   46.1220 C   0  0  0  0  0  0  0  0  0  0  0  0
   47.3950   30.9930   45.3390 C   0  0  0  0  0  0  0  0  0  0  0  0
   47.3180   30.8560   44.2560 H   0  0  0  0  0  0  0  0  0  0  0  0
   48.3320   28.4150   45.3950 S   0  0  0  0  0  0  0  0  0  0  0  0
   48.8670   27.3670   46.7340 C   0  0  0  0  0  0  0  0  0  0  0  0
   49.2850   26.1030   46.4140 C   0  0  0  0  0  0  0  0  0  0  0  0
   49.2910   25.7580   45.3930 H   0  0  0  0  0  0  0  0  0  0  0  0
   49.7080   25.2500   47.4000 C   0  0  0  0  0  0  0  0  0  0  0  0
   50.0480   24.2480   47.2150 H   0  0  0  0  0  0  0  0  0  0  0  0
   49.7020   25.6910   48.7070 C   0  0  0  0  0  0  0  0  0  0  0  0
   50.0270   25.0420   49.4820 H   0  0  0  0  0  0  0  0  0  0  0  0
   49.2670   26.9760   48.9520 C   0  0  0  0  0  0  0  0  0  0  0  0
   49.2880   27.2620   50.0130 H   0  0  0  0  0  0  0  0  0  0  0  0
   48.8310   27.8810   48.0060 C   0  0  0  0  0  0  0  0  0  0  0  0
   48.4180   29.1540   48.4140 N   0  0  0  0  0  0  0  0  0  0  0  0
   48.4570   29.3760   49.4270 H   0  0  0  0  0  0  0  0  0  0  0  0
   47.5630   35.0920   42.0270 C   0  0  0  0  0  0  0  0  0  0  0  0
   48.4390   35.9970   41.9880 O   0  0  0  0  0  0  0  0  0  0  0  0
   46.1990   33.7120   40.4110 C   0  0  0  0  0  0  0  0  0  0  0  0
   47.3420   34.4640   40.7170 C   0  0  0  0  0  0  0  0  0  0  0  0
   48.2880   34.6140   39.7380 C   0  0  0  0  0  0  0  0  0  0  0  0
   48.1960   34.0760   38.4590 C   0  0  0  0  0  0  0  0  0  0  0  0
   48.9920   34.1060   37.3770 N   0  0  0  0  0  0  0  0  0  0  0  0
   48.4070   33.4070   36.3920 C   0  0  0  0  0  0  0  0  0  0  0  0
   47.1960   32.9150   36.8720 C   0  0  0  0  0  0  0  0  0  0  0  0
   47.0570   33.3380   38.1830 C   0  0  0  0  0  0  0  0  0  0  0  0
   46.0880   33.1650   39.1400 C   0  0  0  0  0  0  0  0  0  0  0  0
   45.4820   33.6120   41.1920 H   0  0  0  0  0  0  0  0  0  0  0  0
   49.2210   35.1860   39.8770 H   0  0  0  0  0  0  0  0  0  0  0  0
   49.9060   34.5790   37.2850 H   0  0  0  0  0  0  0  0  0  0  0  0
   48.7270   33.1990   35.3790 H   0  0  0  0  0  0  0  0  0  0  0  0
   46.4350   32.3050   36.3770 H   0  0  0  0  0  0  0  0  0  0  0  0
   45.1950   32.5900   38.9300 H   0  0  0  0  0  0  0  0  0  0  0  0
  1  2  2  0  0  0  0
  1  6  1  0  0  0  0
  2  3  1  0  0  0  0
  3  8  1  0  0  0  0
  3  4  2  0  0  0  0
  5  4  1  0  0  0  0
  5  9  1  0  0  0  0
  6  5  2  0  0  0  0
  7  2  1  0  0  0  0
  9 10  1  0  0  0  0
 10 11  1  0  0  0  0
 10 12  2  0  0  0  0
 12 13  1  0  0  0  0
 14 12  1  0  0  0  0
 14 29  1  0  0  0  0
 15 14  2  0  0  0  0
 16  9  2  0  0  0  0
 16 15  1  0  0  0  0
 17 16  1  0  0  0  0
 18 15  1  0  0  0  0
 18 19  1  0  0  0  0
 19 28  1  0  0  0  0
 20 19  2  0  0  0  0
 20 22  1  0  0  0  0
 21 20  1  0  0  0  0
 22 24  2  0  0  0  0
 23 22  1  0  0  0  0
 24 26  1  0  0  0  0
 24 25  1  0  0  0  0
 26 27  1  0  0  0  0
 28 29  1  0  0  0  0
 28 26  2  0  0  0  0
 29 30  1  0  0  0  0
 31  1  1  0  0  0  0
 32 31  2  0  0  0  0
 33 34  1  0  0  0  0
 33 42  1  0  0  0  0
 34 31  1  0  0  0  0
 35 43  1  0  0  0  0
 35 34  2  0  0  0  0
 36 35  1  0  0  0  0
 37 36  1  0  0  0  0
 38 39  2  0  0  0  0
 38 37  1  0  0  0  0
 39 40  1  0  0  0  0
 40 36  2  0  0  0  0
 40 41  1  0  0  0  0
 41 33  2  0  0  0  0
 44 37  1  0  0  0  0
 45 38  1  0  0  0  0
 46 39  1  0  0  0  0
 47 41  1  0  0  0  0
M  END
>  <minimizedAffinity>
-7.09974241

>  <minimizedRMSD>
1.30565441

$$$$
