
 OpenBabel03252500313D

 56 61  0  0  1  0  0  0  0  0999 V2000
   46.1600   31.8620   46.8380 N   0  0  0  0  0  0  0  0  0  0  0  0
   46.8780   32.6050   47.8140 C   0  0  0  0  0  0  0  0  0  0  0  0
   48.1200   31.8680   48.3190 C   0  0  0  0  0  0  0  0  0  0  0  0
   47.5910   30.6430   49.0500 C   0  0  0  0  0  0  0  0  0  0  0  0
   46.9540   29.7940   47.9680 C   0  0  0  0  0  0  0  0  0  0  0  0
   45.8690   30.5580   47.2540 C   0  0  2  0  0  0  0  0  0  0  0  0
   46.1860   32.5790   48.7160 H   0  0  0  0  0  0  0  0  0  0  0  0
   47.0070   33.6640   47.6570 H   0  0  0  0  0  0  0  0  0  0  0  0
   48.7650   31.5120   47.5070 H   0  0  0  0  0  0  0  0  0  0  0  0
   48.6330   32.5210   49.0490 H   0  0  0  0  0  0  0  0  0  0  0  0
   48.4820   30.1160   49.4460 H   0  0  0  0  0  0  0  0  0  0  0  0
   46.8550   30.9320   49.8410 H   0  0  0  0  0  0  0  0  0  0  0  0
   46.4890   28.9130   48.4550 H   0  0  0  0  0  0  0  0  0  0  0  0
   47.7860   29.4730   47.3160 H   0  0  0  0  0  0  0  0  0  0  0  0
   45.1160   30.7090   48.0990 H   0  0  0  0  0  0  0  0  0  0  0  0
   45.1660   29.6930   46.3000 C   0  0  0  0  0  0  0  0  0  0  0  0
   45.1710   29.9100   44.9370 C   0  0  0  0  0  0  0  0  0  0  0  0
   45.7020   30.7520   44.5140 H   0  0  0  0  0  0  0  0  0  0  0  0
   44.4740   29.0300   44.0960 C   0  0  0  0  0  0  0  0  0  0  0  0
   44.5320   29.2800   43.0260 H   0  0  0  0  0  0  0  0  0  0  0  0
   43.7680   27.9350   44.5470 C   0  0  0  0  0  0  0  0  0  0  0  0
   43.7700   27.7260   45.9050 C   0  0  0  0  0  0  0  0  0  0  0  0
   44.4490   28.5880   46.7160 C   0  0  0  0  0  0  0  0  0  0  0  0
   44.4190   28.3770   47.7960 H   0  0  0  0  0  0  0  0  0  0  0  0
   42.8790   26.3360   46.5320 S   0  0  0  0  0  0  0  0  0  0  0  0
   42.1640   25.5140   45.1360 C   0  0  0  0  0  0  0  0  0  0  0  0
   41.4250   24.3970   45.4240 C   0  0  0  0  0  0  0  0  0  0  0  0
   41.2680   24.0180   46.4050 H   0  0  0  0  0  0  0  0  0  0  0  0
   40.8360   23.7050   44.3630 C   0  0  0  0  0  0  0  0  0  0  0  0
   40.2500   22.8230   44.5560 H   0  0  0  0  0  0  0  0  0  0  0  0
   41.0120   24.1600   43.0730 C   0  0  0  0  0  0  0  0  0  0  0  0
   40.5660   23.6390   42.2540 H   0  0  0  0  0  0  0  0  0  0  0  0
   41.7740   25.2960   42.8890 C   0  0  0  0  0  0  0  0  0  0  0  0
   41.8770   25.6080   41.8390 H   0  0  0  0  0  0  0  0  0  0  0  0
   42.3860   26.0300   43.8870 C   0  0  0  0  0  0  0  0  0  0  0  0
   43.1300   27.1620   43.5530 N   0  0  0  0  0  0  0  0  0  0  0  0
   43.1970   27.4150   42.5440 H   0  0  0  0  0  0  0  0  0  0  0  0
   46.5120   32.1190   45.4830 C   0  0  0  0  0  0  0  0  0  0  0  0
   45.8510   31.5830   44.7990 H   0  0  0  0  0  0  0  0  0  0  0  0
   47.5770   31.7770   45.3320 H   0  0  0  0  0  0  0  0  0  0  0  0
   46.0230   34.1690   43.9400 C   0  0  1  0  0  0  0  0  0  0  0  0
   45.2160   34.3000   45.0970 C   0  0  0  0  0  0  0  0  0  0  0  0
   46.5080   33.5880   45.2840 C   0  0  1  0  0  0  0  0  0  0  0  0
   46.5890   35.0500   43.5480 H   0  0  0  0  0  0  0  0  0  0  0  0
   44.3060   33.6580   45.1960 H   0  0  0  0  0  0  0  0  0  0  0  0
   45.0460   35.2930   45.5670 H   0  0  0  0  0  0  0  0  0  0  0  0
   47.4370   34.1010   45.5850 H   0  0  0  0  0  0  0  0  0  0  0  0
   44.4610   32.7270   42.6300 C   0  0  0  0  0  0  0  0  0  0  0  0
   45.7920   33.1930   42.8360 C   0  0  0  0  0  0  0  0  0  0  0  0
   46.7990   32.7320   42.0270 C   0  0  0  0  0  0  0  0  0  0  0  0
   46.4670   31.8360   41.0510 N   0  0  0  0  0  0  0  0  0  0  0  0
   45.1850   31.3990   40.8680 C   0  0  0  0  0  0  0  0  0  0  0  0
   44.1590   31.8400   41.6580 N   0  0  0  0  0  0  0  0  0  0  0  0
   43.6280   33.0470   43.2280 H   0  0  0  0  0  0  0  0  0  0  0  0
   47.7980   33.0760   42.1740 H   0  0  0  0  0  0  0  0  0  0  0  0
   45.1580   30.7040   40.0510 H   0  0  0  0  0  0  0  0  0  0  0  0
  1  6  1  0  0  0  0
  1  2  1  0  0  0  0
  2  3  1  0  0  0  0
  2  7  1  0  0  0  0
  3 10  1  0  0  0  0
  3  4  1  0  0  0  0
  4 11  1  0  0  0  0
  4 12  1  0  0  0  0
  5 13  1  0  0  0  0
  5  4  1  0  0  0  0
  6  5  1  0  0  0  0
  6 15  1  1  0  0  0
  8  2  1  0  0  0  0
  9  3  1  0  0  0  0
 14  5  1  0  0  0  0
 16 23  1  0  0  0  0
 16  6  1  0  0  0  0
 17 16  2  0  0  0  0
 18 17  1  0  0  0  0
 19 21  2  0  0  0  0
 19 17  1  0  0  0  0
 20 19  1  0  0  0  0
 21 22  1  0  0  0  0
 22 25  1  0  0  0  0
 22 23  2  0  0  0  0
 23 24  1  0  0  0  0
 26 27  1  0  0  0  0
 26 25  1  0  0  0  0
 27 28  1  0  0  0  0
 29 30  1  0  0  0  0
 29 27  2  0  0  0  0
 31 29  1  0  0  0  0
 32 31  1  0  0  0  0
 33 31  2  0  0  0  0
 33 35  1  0  0  0  0
 34 33  1  0  0  0  0
 35 26  2  0  0  0  0
 36 35  1  0  0  0  0
 36 21  1  0  0  0  0
 37 36  1  0  0  0  0
 38  1  1  0  0  0  0
 39 38  1  0  0  0  0
 40 38  1  0  0  0  0
 41 44  1  6  0  0  0
 41 42  1  0  0  0  0
 41 43  1  0  0  0  0
 42 45  1  0  0  0  0
 42 43  1  0  0  0  0
 42 46  1  0  0  0  0
 43 38  1  0  0  0  0
 43 47  1  1  0  0  0
 48 49  1  0  0  0  0
 48 54  1  0  0  0  0
 49 41  1  0  0  0  0
 50 55  1  0  0  0  0
 50 49  2  0  0  0  0
 51 50  1  0  0  0  0
 52 51  2  0  0  0  0
 52 53  1  0  0  0  0
 53 48  2  0  0  0  0
 56 52  1  0  0  0  0
M  END
>  <minimizedAffinity>
-4.71394396

>  <minimizedRMSD>
1.11292076

$$$$
