REMARK  Name = 
REMARK  4 active torsions:
REMARK  status: ('A' for Active; 'I' for Inactive)
REMARK    1  A    between atoms: C_1  and  O_11
REMARK    2  A    between atoms: C_2  and  C_7
REMARK    3  A    between atoms: C_5  and  C_17
REMARK    4  A    between atoms: O_11  and  C_12
REMARK                            x       y       z     vdW  Elec       q    Type
REMARK                         _______ _______ _______ _____ _____    ______ ____
ROOT
ATOM      1  C   UNL     1      48.127  31.569  45.191  0.00  0.00    +0.000 A 
ATOM      2  C   UNL     1      49.122  30.931  44.480  0.00  0.00    +0.000 A 
ATOM      3  H   UNL     1      49.311  31.214  43.469  0.00  0.00    +0.000 HD
ATOM      4  C   UNL     1      49.843  29.939  45.110  0.00  0.00    +0.000 A 
ATOM      5  H   UNL     1      50.619  29.476  44.480  0.00  0.00    +0.000 HD
ATOM      6  C   UNL     1      49.657  29.519  46.410  0.00  0.00    +0.000 A 
ATOM      7  C   UNL     1      48.657  30.189  47.067  0.00  0.00    +0.000 A 
ATOM      8  C   UNL     1      47.913  31.180  46.487  0.00  0.00    +0.000 A 
ATOM      9  H   UNL     1      47.128  31.678  47.060  0.00  0.00    +0.000 HD
ATOM     10  S   UNL     1      48.319  29.738  48.756  0.00  0.00    +0.000 S 
ATOM     11  C   UNL     1      49.456  28.437  49.179  0.00  0.00    +0.000 A 
ATOM     12  C   UNL     1      49.442  27.875  50.426  0.00  0.00    +0.000 A 
ATOM     13  H   UNL     1      48.711  28.247  51.160  0.00  0.00    +0.000 HD
ATOM     14  C   UNL     1      50.292  26.865  50.824  0.00  0.00    +0.000 A 
ATOM     15  H   UNL     1      50.210  26.488  51.814  0.00  0.00    +0.000 HD
ATOM     16  C   UNL     1      51.190  26.433  49.870  0.00  0.00    +0.000 A 
ATOM     17  H   UNL     1      51.872  25.649  50.132  0.00  0.00    +0.000 HD
ATOM     18  C   UNL     1      51.189  27.011  48.618  0.00  0.00    +0.000 A 
ATOM     19  H   UNL     1      51.941  26.598  47.930  0.00  0.00    +0.000 HD
ATOM     20  C   UNL     1      50.340  28.021  48.220  0.00  0.00    +0.000 A 
ATOM     21  N   UNL     1      50.491  28.485  46.895  0.00  0.00    +0.000 N 
ATOM     22  H   UNL     1      51.200  28.083  46.274  0.00  0.00    +0.000 HD
ENDROOT
BRANCH   1  27
ATOM     23  C   UNL     1      47.090  34.388  43.092  0.00  0.00    +0.000 A 
ATOM     24  C   UNL     1      45.778  34.596  43.502  0.00  0.00    +0.000 A 
ATOM     25  C   UNL     1      45.259  33.760  44.501  0.00  0.00    +0.000 A 
ATOM     26  N   UNL     1      46.058  32.795  45.017  0.00  0.00    +0.000 NA
ATOM     27  C   UNL     1      47.323  32.628  44.592  0.00  0.00    +0.000 A 
ATOM     28  N   UNL     1      47.847  33.414  43.636  0.00  0.00    +0.000 NA
ATOM     29  H   UNL     1      44.235  33.912  44.830  0.00  0.00    +0.000 HD
BRANCH  24  30
ATOM     30  C   UNL     1      44.981  35.680  42.876  0.00  0.00    +0.000 C 
ATOM     31  F   UNL     1      45.618  36.901  43.060  0.00  0.00    +0.000 F 
ATOM     32  F   UNL     1      44.955  35.467  41.509  0.00  0.00    +0.000 F 
ATOM     33  F   UNL     1      43.721  35.812  43.349  0.00  0.00    +0.000 F 
ENDBRANCH  24  30
BRANCH  23  34
ATOM     34  O   UNL     1      47.580  35.196  42.132  0.00  0.00    +0.000 OA
BRANCH  34  35
ATOM     35  C   UNL     1      48.875  35.191  41.573  0.00  0.00    +0.000 C 
ATOM     36  F   UNL     1      49.763  35.490  42.607  0.00  0.00    +0.000 F 
ATOM     37  F   UNL     1      49.129  33.973  41.005  0.00  0.00    +0.000 F 
ATOM     38  F   UNL     1      49.010  36.225  40.678  0.00  0.00    +0.000 F 
ENDBRANCH  34  35
ENDBRANCH  23  34
ENDBRANCH   1  27
TORSDOF 4
