
 OpenBabel03252504123D

 38 41  0  0  0  0  0  0  0  0999 V2000
   34.5880   28.0840   37.9730 C   0  0  0  0  0  0  0  0  0  0  0  0
   35.1180   26.9030   37.4960 C   0  0  0  0  0  0  0  0  0  0  0  0
   34.7820   26.5140   36.5610 H   0  0  0  0  0  0  0  0  0  0  0  0
   36.0720   26.2610   38.2570 C   0  0  0  0  0  0  0  0  0  0  0  0
   36.4470   25.3250   37.8120 H   0  0  0  0  0  0  0  0  0  0  0  0
   36.5560   26.7000   39.4700 C   0  0  0  0  0  0  0  0  0  0  0  0
   35.9930   27.8770   39.8930 C   0  0  0  0  0  0  0  0  0  0  0  0
   35.0440   28.5520   39.1770 C   0  0  0  0  0  0  0  0  0  0  0  0
   34.6310   29.4870   39.5650 H   0  0  0  0  0  0  0  0  0  0  0  0
   36.5340   28.5490   41.4510 S   0  0  0  0  0  0  0  0  0  0  0  0
   37.7560   27.4290   42.0980 C   0  0  0  0  0  0  0  0  0  0  0  0
   38.3640   27.6770   43.2980 C   0  0  0  0  0  0  0  0  0  0  0  0
   38.0810   28.5850   43.8520 H   0  0  0  0  0  0  0  0  0  0  0  0
   39.3180   26.8550   43.8600 C   0  0  0  0  0  0  0  0  0  0  0  0
   39.7380   27.1280   44.7970 H   0  0  0  0  0  0  0  0  0  0  0  0
   39.6410   25.7310   43.1300 C   0  0  0  0  0  0  0  0  0  0  0  0
   40.3780   25.0610   43.5260 H   0  0  0  0  0  0  0  0  0  0  0  0
   39.0170   25.4980   41.9220 C   0  0  0  0  0  0  0  0  0  0  0  0
   39.3420   24.5760   41.4170 H   0  0  0  0  0  0  0  0  0  0  0  0
   38.0630   26.3180   41.3590 C   0  0  0  0  0  0  0  0  0  0  0  0
   37.5370   25.9120   40.1130 N   0  0  0  0  0  0  0  0  0  0  0  0
   37.8580   25.0490   39.6640 H   0  0  0  0  0  0  0  0  0  0  0  0
   31.6110   30.0610   37.1640 C   0  0  0  0  0  0  0  0  0  0  0  0
   31.7060   30.1880   35.7820 C   0  0  0  0  0  0  0  0  0  0  0  0
   32.7990   29.5900   35.1390 C   0  0  0  0  0  0  0  0  0  0  0  0
   33.7050   28.9200   35.8910 N   0  0  0  0  0  0  0  0  0  0  0  0
   33.5750   28.8200   37.2260 C   0  0  0  0  0  0  0  0  0  0  0  0
   32.5380   29.3830   37.8690 N   0  0  0  0  0  0  0  0  0  0  0  0
   32.8850   29.6830   34.0600 H   0  0  0  0  0  0  0  0  0  0  0  0
   30.6620   30.9430   35.0460 C   0  0  0  0  0  0  0  0  0  0  0  0
   30.6390   32.2630   35.4800 F   0  0  0  0  0  0  0  0  0  0  0  0
   31.0200   30.9890   33.7100 F   0  0  0  0  0  0  0  0  0  0  0  0
   29.4060   30.4590   35.1730 F   0  0  0  0  0  0  0  0  0  0  0  0
   30.5570   30.6380   37.7730 O   0  0  0  0  0  0  0  0  0  0  0  0
   29.6140   30.0340   38.6310 C   0  0  0  0  0  0  0  0  0  0  0  0
   28.6990   31.0250   38.9890 F   0  0  0  0  0  0  0  0  0  0  0  0
   29.0180   28.9810   37.9940 F   0  0  0  0  0  0  0  0  0  0  0  0
   30.2140   29.6610   39.8090 F   0  0  0  0  0  0  0  0  0  0  0  0
  1  8  1  0  0  0  0
  2  1  2  0  0  0  0
  2  4  1  0  0  0  0
  3  2  1  0  0  0  0
  4  6  2  0  0  0  0
  5  4  1  0  0  0  0
  6  7  1  0  0  0  0
  6 21  1  0  0  0  0
  7 10  1  0  0  0  0
  8  9  1  0  0  0  0
  8  7  2  0  0  0  0
 10 11  1  0  0  0  0
 11 12  1  0  0  0  0
 12 13  1  0  0  0  0
 12 14  2  0  0  0  0
 14 15  1  0  0  0  0
 16 17  1  0  0  0  0
 16 14  1  0  0  0  0
 18 16  2  0  0  0  0
 19 18  1  0  0  0  0
 20 18  1  0  0  0  0
 20 11  2  0  0  0  0
 21 20  1  0  0  0  0
 22 21  1  0  0  0  0
 23 34  1  0  0  0  0
 23 28  1  0  0  0  0
 24 23  2  0  0  0  0
 25 24  1  0  0  0  0
 25 26  2  0  0  0  0
 26 27  1  0  0  0  0
 27 28  2  0  0  0  0
 27  1  1  0  0  0  0
 29 25  1  0  0  0  0
 30 33  1  0  0  0  0
 30 31  1  0  0  0  0
 30 24  1  0  0  0  0
 32 30  1  0  0  0  0
 34 35  1  0  0  0  0
 35 36  1  0  0  0  0
 35 38  1  0  0  0  0
 37 35  1  0  0  0  0
M  END
>  <minimizedAffinity>
-6.49606562

$$$$

 OpenBabel03252504123D

 38 41  0  0  0  0  0  0  0  0999 V2000
   35.0030   28.7770   38.4680 C   0  0  0  0  0  0  0  0  0  0  0  0
   35.5930   28.6330   37.2300 C   0  0  0  0  0  0  0  0  0  0  0  0
   36.6320   28.3960   37.1650 H   0  0  0  0  0  0  0  0  0  0  0  0
   34.8100   28.8050   36.1080 C   0  0  0  0  0  0  0  0  0  0  0  0
   35.3510   28.6760   35.1570 H   0  0  0  0  0  0  0  0  0  0  0  0
   33.4660   29.1120   36.1100 C   0  0  0  0  0  0  0  0  0  0  0  0
   32.9340   29.2430   37.3680 C   0  0  0  0  0  0  0  0  0  0  0  0
   33.6680   29.0820   38.5110 C   0  0  0  0  0  0  0  0  0  0  0  0
   33.1890   29.1980   39.4860 H   0  0  0  0  0  0  0  0  0  0  0  0
   31.2040   29.6400   37.5060 S   0  0  0  0  0  0  0  0  0  0  0  0
   30.5730   29.7730   35.8470 C   0  0  0  0  0  0  0  0  0  0  0  0
   29.2580   30.0730   35.6230 C   0  0  0  0  0  0  0  0  0  0  0  0
   28.5990   30.2280   36.4920 H   0  0  0  0  0  0  0  0  0  0  0  0
   28.6990   30.1920   34.3670 C   0  0  0  0  0  0  0  0  0  0  0  0
   27.6670   30.4270   34.2890 H   0  0  0  0  0  0  0  0  0  0  0  0
   29.5620   29.9880   33.3110 C   0  0  0  0  0  0  0  0  0  0  0  0
   29.1750   30.0690   32.3150 H   0  0  0  0  0  0  0  0  0  0  0  0
   30.8860   29.6860   33.5570 C   0  0  0  0  0  0  0  0  0  0  0  0
   31.4910   29.5420   32.6500 H   0  0  0  0  0  0  0  0  0  0  0  0
   31.4440   29.5670   34.8110 C   0  0  0  0  0  0  0  0  0  0  0  0
   32.8190   29.2520   34.8620 N   0  0  0  0  0  0  0  0  0  0  0  0
   33.3600   29.1230   34.0010 H   0  0  0  0  0  0  0  0  0  0  0  0
   37.0470   27.2920   41.1210 C   0  0  0  0  0  0  0  0  0  0  0  0
   37.1830   28.3470   42.0170 C   0  0  0  0  0  0  0  0  0  0  0  0
   36.5680   29.5660   41.6970 C   0  0  0  0  0  0  0  0  0  0  0  0
   35.8730   29.6560   40.5380 N   0  0  0  0  0  0  0  0  0  0  0  0
   35.7660   28.6100   39.6990 C   0  0  0  0  0  0  0  0  0  0  0  0
   36.3450   27.4300   39.9790 N   0  0  0  0  0  0  0  0  0  0  0  0
   36.6670   30.3980   42.3880 H   0  0  0  0  0  0  0  0  0  0  0  0
   37.9650   28.1510   43.2620 C   0  0  0  0  0  0  0  0  0  0  0  0
   38.2560   29.3820   43.8360 F   0  0  0  0  0  0  0  0  0  0  0  0
   37.1680   27.4850   44.1760 F   0  0  0  0  0  0  0  0  0  0  0  0
   39.1380   27.4960   43.1060 F   0  0  0  0  0  0  0  0  0  0  0  0
   37.6420   26.1250   41.4370 O   0  0  0  0  0  0  0  0  0  0  0  0
   37.0270   24.9190   41.8350 C   0  0  0  0  0  0  0  0  0  0  0  0
   36.1800   25.2300   42.9000 F   0  0  0  0  0  0  0  0  0  0  0  0
   36.3540   24.3710   40.7780 F   0  0  0  0  0  0  0  0  0  0  0  0
   37.9620   24.0620   42.3630 F   0  0  0  0  0  0  0  0  0  0  0  0
  1  8  1  0  0  0  0
  1 27  1  0  0  0  0
  2  1  2  0  0  0  0
  3  2  1  0  0  0  0
  4  6  2  0  0  0  0
  4  2  1  0  0  0  0
  5  4  1  0  0  0  0
  6  7  1  0  0  0  0
  7 10  1  0  0  0  0
  7  8  2  0  0  0  0
  8  9  1  0  0  0  0
 11 10  1  0  0  0  0
 12 11  1  0  0  0  0
 12 13  1  0  0  0  0
 14 12  2  0  0  0  0
 15 14  1  0  0  0  0
 16 18  2  0  0  0  0
 16 14  1  0  0  0  0
 17 16  1  0  0  0  0
 18 20  1  0  0  0  0
 19 18  1  0  0  0  0
 20 21  1  0  0  0  0
 20 11  2  0  0  0  0
 21  6  1  0  0  0  0
 22 21  1  0  0  0  0
 23 34  1  0  0  0  0
 23 24  1  0  0  0  0
 24 30  1  0  0  0  0
 25 24  2  0  0  0  0
 25 29  1  0  0  0  0
 26 25  1  0  0  0  0
 27 28  1  0  0  0  0
 27 26  2  0  0  0  0
 28 23  2  0  0  0  0
 30 31  1  0  0  0  0
 30 32  1  0  0  0  0
 33 30  1  0  0  0  0
 34 35  1  0  0  0  0
 35 38  1  0  0  0  0
 35 36  1  0  0  0  0
 37 35  1  0  0  0  0
M  END
>  <minimizedAffinity>
-6.19308329

$$$$

 OpenBabel03252504123D

 38 41  0  0  0  0  0  0  0  0999 V2000
   34.8260   28.5450   38.8030 C   0  0  0  0  0  0  0  0  0  0  0  0
   34.9400   29.5630   39.7260 C   0  0  0  0  0  0  0  0  0  0  0  0
   34.3550   30.4480   39.6090 H   0  0  0  0  0  0  0  0  0  0  0  0
   35.8180   29.3980   40.7760 C   0  0  0  0  0  0  0  0  0  0  0  0
   35.8550   30.2530   41.4710 H   0  0  0  0  0  0  0  0  0  0  0  0
   36.6060   28.2880   40.9930 C   0  0  0  0  0  0  0  0  0  0  0  0
   36.4500   27.3100   40.0450 C   0  0  0  0  0  0  0  0  0  0  0  0
   35.5940   27.4240   38.9850 C   0  0  0  0  0  0  0  0  0  0  0  0
   35.5110   26.6100   38.2610 H   0  0  0  0  0  0  0  0  0  0  0  0
   37.4150   25.8220   40.2130 S   0  0  0  0  0  0  0  0  0  0  0  0
   38.4030   26.0140   41.6810 C   0  0  0  0  0  0  0  0  0  0  0  0
   39.2590   25.0250   42.0790 C   0  0  0  0  0  0  0  0  0  0  0  0
   39.3220   24.1080   41.4720 H   0  0  0  0  0  0  0  0  0  0  0  0
   40.0550   25.1030   43.2040 C   0  0  0  0  0  0  0  0  0  0  0  0
   40.6900   24.2840   43.4360 H   0  0  0  0  0  0  0  0  0  0  0  0
   39.9420   26.2680   43.9320 C   0  0  0  0  0  0  0  0  0  0  0  0
   40.5400   26.3760   44.8150 H   0  0  0  0  0  0  0  0  0  0  0  0
   39.0720   27.2550   43.5140 C   0  0  0  0  0  0  0  0  0  0  0  0
   39.0550   28.1440   44.1620 H   0  0  0  0  0  0  0  0  0  0  0  0
   38.2780   27.1770   42.3920 C   0  0  0  0  0  0  0  0  0  0  0  0
   37.4510   28.2910   42.1260 N   0  0  0  0  0  0  0  0  0  0  0  0
   37.4540   29.1060   42.7460 H   0  0  0  0  0  0  0  0  0  0  0  0
   31.8770   29.2860   36.7580 C   0  0  0  0  0  0  0  0  0  0  0  0
   32.2570   28.8110   35.5070 C   0  0  0  0  0  0  0  0  0  0  0  0
   33.5300   28.2380   35.3780 C   0  0  0  0  0  0  0  0  0  0  0  0
   34.3250   28.1740   36.4740 N   0  0  0  0  0  0  0  0  0  0  0  0
   33.9190   28.6450   37.6660 C   0  0  0  0  0  0  0  0  0  0  0  0
   32.7040   29.2000   37.8190 N   0  0  0  0  0  0  0  0  0  0  0  0
   33.8380   27.8630   34.4070 H   0  0  0  0  0  0  0  0  0  0  0  0
   31.3150   28.9260   34.3660 C   0  0  0  0  0  0  0  0  0  0  0  0
   31.4050   30.1950   33.8060 F   0  0  0  0  0  0  0  0  0  0  0  0
   31.7180   28.0450   33.3790 F   0  0  0  0  0  0  0  0  0  0  0  0
   30.0140   28.7170   34.6730 F   0  0  0  0  0  0  0  0  0  0  0  0
   30.6530   29.8350   36.8720 O   0  0  0  0  0  0  0  0  0  0  0  0
   30.3170   31.2050   36.9110 C   0  0  0  0  0  0  0  0  0  0  0  0
   29.0910   31.3390   36.2590 F   0  0  0  0  0  0  0  0  0  0  0  0
   30.2660   31.6320   38.2090 F   0  0  0  0  0  0  0  0  0  0  0  0
   31.2040   31.9320   36.1540 F   0  0  0  0  0  0  0  0  0  0  0  0
  1  8  2  0  0  0  0
  1  2  1  0  0  0  0
  2  4  2  0  0  0  0
  3  2  1  0  0  0  0
  4  6  1  0  0  0  0
  4  5  1  0  0  0  0
  6 21  1  0  0  0  0
  7 10  1  0  0  0  0
  7  6  2  0  0  0  0
  8  7  1  0  0  0  0
  9  8  1  0  0  0  0
 10 11  1  0  0  0  0
 11 12  2  0  0  0  0
 11 20  1  0  0  0  0
 12 14  1  0  0  0  0
 13 12  1  0  0  0  0
 14 15  1  0  0  0  0
 14 16  2  0  0  0  0
 16 17  1  0  0  0  0
 18 16  1  0  0  0  0
 18 19  1  0  0  0  0
 20 18  2  0  0  0  0
 21 20  1  0  0  0  0
 21 22  1  0  0  0  0
 23 34  1  0  0  0  0
 23 28  1  0  0  0  0
 24 23  2  0  0  0  0
 25 24  1  0  0  0  0
 25 26  2  0  0  0  0
 26 27  1  0  0  0  0
 27 28  2  0  0  0  0
 27  1  1  0  0  0  0
 29 25  1  0  0  0  0
 30 33  1  0  0  0  0
 30 24  1  0  0  0  0
 31 30  1  0  0  0  0
 32 30  1  0  0  0  0
 34 35  1  0  0  0  0
 35 37  1  0  0  0  0
 36 35  1  0  0  0  0
 38 35  1  0  0  0  0
M  END
>  <minimizedAffinity>
-6.1320591

$$$$

 OpenBabel03252504123D

 38 41  0  0  0  0  0  0  0  0999 V2000
   34.7900   27.8340   37.4620 C   0  0  0  0  0  0  0  0  0  0  0  0
   35.2160   27.9630   36.1560 C   0  0  0  0  0  0  0  0  0  0  0  0
   36.1140   27.4780   35.8450 H   0  0  0  0  0  0  0  0  0  0  0  0
   34.4570   28.7250   35.2930 C   0  0  0  0  0  0  0  0  0  0  0  0
   34.8610   28.7830   34.2700 H   0  0  0  0  0  0  0  0  0  0  0  0
   33.2890   29.3790   35.6210 C   0  0  0  0  0  0  0  0  0  0  0  0
   32.9150   29.2150   36.9300 C   0  0  0  0  0  0  0  0  0  0  0  0
   33.6320   28.4710   37.8250 C   0  0  0  0  0  0  0  0  0  0  0  0
   33.2840   28.3750   38.8570 H   0  0  0  0  0  0  0  0  0  0  0  0
   31.4210   30.0130   37.4790 S   0  0  0  0  0  0  0  0  0  0  0  0
   30.7560   30.8820   36.0740 C   0  0  0  0  0  0  0  0  0  0  0  0
   29.5980   31.6000   36.1830 C   0  0  0  0  0  0  0  0  0  0  0  0
   29.0860   31.6270   37.1570 H   0  0  0  0  0  0  0  0  0  0  0  0
   29.0240   32.2970   35.1390 C   0  0  0  0  0  0  0  0  0  0  0  0
   28.1210   32.8270   35.3150 H   0  0  0  0  0  0  0  0  0  0  0  0
   29.7000   32.2320   33.9390 C   0  0  0  0  0  0  0  0  0  0  0  0
   29.2940   32.7570   33.0980 H   0  0  0  0  0  0  0  0  0  0  0  0
   30.8680   31.5020   33.8490 C   0  0  0  0  0  0  0  0  0  0  0  0
   31.3310   31.5140   32.8510 H   0  0  0  0  0  0  0  0  0  0  0  0
   31.4410   30.8060   34.8910 C   0  0  0  0  0  0  0  0  0  0  0  0
   32.6400   30.1180   34.6050 N   0  0  0  0  0  0  0  0  0  0  0  0
   33.0490   30.1440   33.6670 H   0  0  0  0  0  0  0  0  0  0  0  0
   36.9080   26.9110   40.3060 C   0  0  0  0  0  0  0  0  0  0  0  0
   36.9250   25.5230   40.2250 C   0  0  0  0  0  0  0  0  0  0  0  0
   36.2030   24.9140   39.1880 C   0  0  0  0  0  0  0  0  0  0  0  0
   35.5280   25.7040   38.3190 N   0  0  0  0  0  0  0  0  0  0  0  0
   35.5390   27.0440   38.4330 C   0  0  0  0  0  0  0  0  0  0  0  0
   36.2210   27.6550   39.4160 N   0  0  0  0  0  0  0  0  0  0  0  0
   36.2080   23.8300   39.1140 H   0  0  0  0  0  0  0  0  0  0  0  0
   37.6940   24.7430   41.2260 C   0  0  0  0  0  0  0  0  0  0  0  0
   37.7160   23.4020   40.8640 F   0  0  0  0  0  0  0  0  0  0  0  0
   39.0100   25.1680   41.1900 F   0  0  0  0  0  0  0  0  0  0  0  0
   37.2200   24.8070   42.4910 F   0  0  0  0  0  0  0  0  0  0  0  0
   37.6040   27.4870   41.3050 O   0  0  0  0  0  0  0  0  0  0  0  0
   37.0990   28.1150   42.4630 C   0  0  0  0  0  0  0  0  0  0  0  0
   38.0150   27.8730   43.4870 F   0  0  0  0  0  0  0  0  0  0  0  0
   36.9250   29.4510   42.2260 F   0  0  0  0  0  0  0  0  0  0  0  0
   35.9390   27.5000   42.8700 F   0  0  0  0  0  0  0  0  0  0  0  0
  1  8  1  0  0  0  0
  1 27  1  0  0  0  0
  2  1  2  0  0  0  0
  3  2  1  0  0  0  0
  4  6  2  0  0  0  0
  4  2  1  0  0  0  0
  5  4  1  0  0  0  0
  6  7  1  0  0  0  0
  7 10  1  0  0  0  0
  7  8  2  0  0  0  0
  8  9  1  0  0  0  0
 11 12  1  0  0  0  0
 11 10  1  0  0  0  0
 12 13  1  0  0  0  0
 14 15  1  0  0  0  0
 14 12  2  0  0  0  0
 16 14  1  0  0  0  0
 17 16  1  0  0  0  0
 18 16  2  0  0  0  0
 18 20  1  0  0  0  0
 19 18  1  0  0  0  0
 20 11  2  0  0  0  0
 21 20  1  0  0  0  0
 21  6  1  0  0  0  0
 22 21  1  0  0  0  0
 23 34  1  0  0  0  0
 24 23  1  0  0  0  0
 24 30  1  0  0  0  0
 25 24  2  0  0  0  0
 26 27  2  0  0  0  0
 26 25  1  0  0  0  0
 27 28  1  0  0  0  0
 28 23  2  0  0  0  0
 29 25  1  0  0  0  0
 30 33  1  0  0  0  0
 31 30  1  0  0  0  0
 32 30  1  0  0  0  0
 34 35  1  0  0  0  0
 35 38  1  0  0  0  0
 35 36  1  0  0  0  0
 37 35  1  0  0  0  0
M  END
>  <minimizedAffinity>
-5.9520359

$$$$

 OpenBabel03252504123D

 38 41  0  0  0  0  0  0  0  0999 V2000
   35.8210   28.4360   39.3880 C   0  0  0  0  0  0  0  0  0  0  0  0
   35.5740   28.9890   40.6280 C   0  0  0  0  0  0  0  0  0  0  0  0
   34.7300   29.6280   40.7610 H   0  0  0  0  0  0  0  0  0  0  0  0
   36.4390   28.6920   41.6600 C   0  0  0  0  0  0  0  0  0  0  0  0
   36.1780   29.1700   42.6180 H   0  0  0  0  0  0  0  0  0  0  0  0
   37.5470   27.8780   41.5650 C   0  0  0  0  0  0  0  0  0  0  0  0
   37.7420   27.3570   40.3110 C   0  0  0  0  0  0  0  0  0  0  0  0
   36.9140   27.6210   39.2560 C   0  0  0  0  0  0  0  0  0  0  0  0
   37.1190   27.1770   38.2780 H   0  0  0  0  0  0  0  0  0  0  0  0
   39.1430   26.2880   40.0590 S   0  0  0  0  0  0  0  0  0  0  0  0
   39.9860   26.1680   41.6210 C   0  0  0  0  0  0  0  0  0  0  0  0
   41.1160   25.4070   41.7480 C   0  0  0  0  0  0  0  0  0  0  0  0
   41.4900   24.8710   40.8620 H   0  0  0  0  0  0  0  0  0  0  0  0
   41.8210   25.2670   42.9260 C   0  0  0  0  0  0  0  0  0  0  0  0
   42.6880   24.6540   42.9310 H   0  0  0  0  0  0  0  0  0  0  0  0
   41.3150   25.9560   44.0070 C   0  0  0  0  0  0  0  0  0  0  0  0
   41.8280   25.8790   44.9450 H   0  0  0  0  0  0  0  0  0  0  0  0
   40.1740   26.7190   43.8600 C   0  0  0  0  0  0  0  0  0  0  0  0
   39.8510   27.2290   44.7800 H   0  0  0  0  0  0  0  0  0  0  0  0
   39.4690   26.8590   42.6840 C   0  0  0  0  0  0  0  0  0  0  0  0
   38.3240   27.6840   42.7300 N   0  0  0  0  0  0  0  0  0  0  0  0
   38.0450   28.1470   43.6000 H   0  0  0  0  0  0  0  0  0  0  0  0
   34.6470   29.0160   35.9660 C   0  0  0  0  0  0  0  0  0  0  0  0
   33.2820   29.2050   36.1490 C   0  0  0  0  0  0  0  0  0  0  0  0
   32.7750   29.1300   37.4540 C   0  0  0  0  0  0  0  0  0  0  0  0
   33.6360   28.8790   38.4700 N   0  0  0  0  0  0  0  0  0  0  0  0
   34.9510   28.7030   38.2490 C   0  0  0  0  0  0  0  0  0  0  0  0
   35.4650   28.7690   37.0090 N   0  0  0  0  0  0  0  0  0  0  0  0
   31.7100   29.2750   37.6100 H   0  0  0  0  0  0  0  0  0  0  0  0
   32.4180   29.4740   34.9730 C   0  0  0  0  0  0  0  0  0  0  0  0
   31.1250   29.7620   35.3920 F   0  0  0  0  0  0  0  0  0  0  0  0
   32.8790   30.6200   34.3480 F   0  0  0  0  0  0  0  0  0  0  0  0
   32.3330   28.4620   34.0800 F   0  0  0  0  0  0  0  0  0  0  0  0
   35.1250   29.0900   34.7090 O   0  0  0  0  0  0  0  0  0  0  0  0
   36.2780   29.7660   34.2590 C   0  0  0  0  0  0  0  0  0  0  0  0
   37.3420   28.8700   34.3740 F   0  0  0  0  0  0  0  0  0  0  0  0
   36.0930   30.1910   32.9720 F   0  0  0  0  0  0  0  0  0  0  0  0
   36.5880   30.7970   35.1120 F   0  0  0  0  0  0  0  0  0  0  0  0
  1  2  1  0  0  0  0
  2  3  1  0  0  0  0
  2  4  2  0  0  0  0
  4  5  1  0  0  0  0
  6  4  1  0  0  0  0
  6 21  1  0  0  0  0
  7  6  2  0  0  0  0
  8  1  2  0  0  0  0
  8  7  1  0  0  0  0
  9  8  1  0  0  0  0
 10  7  1  0  0  0  0
 10 11  1  0  0  0  0
 11 12  2  0  0  0  0
 11 20  1  0  0  0  0
 12 14  1  0  0  0  0
 13 12  1  0  0  0  0
 14 15  1  0  0  0  0
 14 16  2  0  0  0  0
 16 17  1  0  0  0  0
 18 16  1  0  0  0  0
 18 19  1  0  0  0  0
 20 21  1  0  0  0  0
 20 18  2  0  0  0  0
 21 22  1  0  0  0  0
 23 24  2  0  0  0  0
 23 28  1  0  0  0  0
 24 25  1  0  0  0  0
 25 29  1  0  0  0  0
 25 26  2  0  0  0  0
 27 26  1  0  0  0  0
 27  1  1  0  0  0  0
 28 27  2  0  0  0  0
 30 31  1  0  0  0  0
 30 24  1  0  0  0  0
 32 30  1  0  0  0  0
 33 30  1  0  0  0  0
 34 23  1  0  0  0  0
 35 36  1  0  0  0  0
 35 34  1  0  0  0  0
 35 38  1  0  0  0  0
 37 35  1  0  0  0  0
M  END
>  <minimizedAffinity>
-5.76482582

$$$$

 OpenBabel03252504123D

 38 41  0  0  0  0  0  0  0  0999 V2000
   36.3120   27.9550   39.2460 C   0  0  0  0  0  0  0  0  0  0  0  0
   35.2810   28.7690   39.6650 C   0  0  0  0  0  0  0  0  0  0  0  0
   34.3060   28.3570   39.8000 H   0  0  0  0  0  0  0  0  0  0  0  0
   35.5520   30.1020   39.8940 C   0  0  0  0  0  0  0  0  0  0  0  0
   34.6790   30.6880   40.2240 H   0  0  0  0  0  0  0  0  0  0  0  0
   36.7810   30.7050   39.7420 C   0  0  0  0  0  0  0  0  0  0  0  0
   37.7670   29.8470   39.3240 C   0  0  0  0  0  0  0  0  0  0  0  0
   37.5500   28.5190   39.0830 C   0  0  0  0  0  0  0  0  0  0  0  0
   38.3750   27.8830   38.7530 H   0  0  0  0  0  0  0  0  0  0  0  0
   39.4040   30.5070   39.0890 S   0  0  0  0  0  0  0  0  0  0  0  0
   39.3230   32.2400   39.4870 C   0  0  0  0  0  0  0  0  0  0  0  0
   40.4360   33.0280   39.4020 C   0  0  0  0  0  0  0  0  0  0  0  0
   41.3840   32.5660   39.0810 H   0  0  0  0  0  0  0  0  0  0  0  0
   40.4490   34.3760   39.6950 C   0  0  0  0  0  0  0  0  0  0  0  0
   41.3620   34.9100   39.6000 H   0  0  0  0  0  0  0  0  0  0  0  0
   39.2410   34.9090   40.0920 C   0  0  0  0  0  0  0  0  0  0  0  0
   39.1990   35.9530   40.3310 H   0  0  0  0  0  0  0  0  0  0  0  0
   38.1280   34.0980   40.1730 C   0  0  0  0  0  0  0  0  0  0  0  0
   37.2140   34.6170   40.4980 H   0  0  0  0  0  0  0  0  0  0  0  0
   38.1150   32.7510   39.8800 C   0  0  0  0  0  0  0  0  0  0  0  0
   36.8770   32.0870   40.0220 N   0  0  0  0  0  0  0  0  0  0  0  0
   36.0410   32.5940   40.3270 H   0  0  0  0  0  0  0  0  0  0  0  0
   36.4010   24.3050   39.5690 C   0  0  0  0  0  0  0  0  0  0  0  0
   35.6850   23.8920   38.4510 C   0  0  0  0  0  0  0  0  0  0  0  0
   35.1750   24.8760   37.5930 C   0  0  0  0  0  0  0  0  0  0  0  0
   35.4040   26.1780   37.8930 N   0  0  0  0  0  0  0  0  0  0  0  0
   36.1030   26.5350   38.9850 C   0  0  0  0  0  0  0  0  0  0  0  0
   36.6040   25.6130   39.8250 N   0  0  0  0  0  0  0  0  0  0  0  0
   34.6130   24.5660   36.7160 H   0  0  0  0  0  0  0  0  0  0  0  0
   35.4860   22.4410   38.2080 C   0  0  0  0  0  0  0  0  0  0  0  0
   34.6000   22.2570   37.1540 F   0  0  0  0  0  0  0  0  0  0  0  0
   36.6900   21.9010   37.7920 F   0  0  0  0  0  0  0  0  0  0  0  0
   35.0040   21.7440   39.2610 F   0  0  0  0  0  0  0  0  0  0  0  0
   36.8870   23.3520   40.3870 O   0  0  0  0  0  0  0  0  0  0  0  0
   38.2220   22.9100   40.5050 C   0  0  0  0  0  0  0  0  0  0  0  0
   38.7490   23.5160   41.6460 F   0  0  0  0  0  0  0  0  0  0  0  0
   38.2510   21.5450   40.5800 F   0  0  0  0  0  0  0  0  0  0  0  0
   38.9760   23.3940   39.4640 F   0  0  0  0  0  0  0  0  0  0  0  0
  1  2  1  0  0  0  0
  2  3  1  0  0  0  0
  2  4  2  0  0  0  0
  4  5  1  0  0  0  0
  6  4  1  0  0  0  0
  6 21  1  0  0  0  0
  7  6  2  0  0  0  0
  8  1  2  0  0  0  0
  8  7  1  0  0  0  0
  9  8  1  0  0  0  0
 10  7  1  0  0  0  0
 10 11  1  0  0  0  0
 11 20  1  0  0  0  0
 12 11  2  0  0  0  0
 12 14  1  0  0  0  0
 13 12  1  0  0  0  0
 14 16  2  0  0  0  0
 15 14  1  0  0  0  0
 16 18  1  0  0  0  0
 16 17  1  0  0  0  0
 18 19  1  0  0  0  0
 20 21  1  0  0  0  0
 20 18  2  0  0  0  0
 21 22  1  0  0  0  0
 23 28  1  0  0  0  0
 23 34  1  0  0  0  0
 24 23  2  0  0  0  0
 25 26  2  0  0  0  0
 25 24  1  0  0  0  0
 26 27  1  0  0  0  0
 27  1  1  0  0  0  0
 27 28  2  0  0  0  0
 29 25  1  0  0  0  0
 30 24  1  0  0  0  0
 30 33  1  0  0  0  0
 31 30  1  0  0  0  0
 32 30  1  0  0  0  0
 34 35  1  0  0  0  0
 35 37  1  0  0  0  0
 35 36  1  0  0  0  0
 38 35  1  0  0  0  0
M  END
>  <minimizedAffinity>
-5.76229477

$$$$

 OpenBabel03252504123D

 38 41  0  0  0  0  0  0  0  0999 V2000
   35.2730   28.1380   38.3700 C   0  0  0  0  0  0  0  0  0  0  0  0
   35.3150   26.9040   37.7540 C   0  0  0  0  0  0  0  0  0  0  0  0
   36.1360   26.2490   37.9410 H   0  0  0  0  0  0  0  0  0  0  0  0
   34.2820   26.5610   36.9080 C   0  0  0  0  0  0  0  0  0  0  0  0
   34.3850   25.5620   36.4530 H   0  0  0  0  0  0  0  0  0  0  0  0
   33.1900   27.3510   36.6170 C   0  0  0  0  0  0  0  0  0  0  0  0
   33.2030   28.5630   37.2570 C   0  0  0  0  0  0  0  0  0  0  0  0
   34.2030   28.9510   38.1050 C   0  0  0  0  0  0  0  0  0  0  0  0
   34.1590   29.9310   38.5880 H   0  0  0  0  0  0  0  0  0  0  0  0
   31.8450   29.6780   36.9630 S   0  0  0  0  0  0  0  0  0  0  0  0
   30.7460   28.8600   35.8270 C   0  0  0  0  0  0  0  0  0  0  0  0
   29.5980   29.4720   35.4050 C   0  0  0  0  0  0  0  0  0  0  0  0
   29.3700   30.4800   35.7850 H   0  0  0  0  0  0  0  0  0  0  0  0
   28.7000   28.9000   34.5280 C   0  0  0  0  0  0  0  0  0  0  0  0
   27.8330   29.4490   34.2560 H   0  0  0  0  0  0  0  0  0  0  0  0
   29.0270   27.6380   34.0800 C   0  0  0  0  0  0  0  0  0  0  0  0
   28.3600   27.1510   33.3970 H   0  0  0  0  0  0  0  0  0  0  0  0
   30.1900   27.0360   34.5170 C   0  0  0  0  0  0  0  0  0  0  0  0
   30.3620   26.0320   34.1030 H   0  0  0  0  0  0  0  0  0  0  0  0
   31.0870   27.6070   35.3930 C   0  0  0  0  0  0  0  0  0  0  0  0
   32.2230   26.8360   35.7240 N   0  0  0  0  0  0  0  0  0  0  0  0
   32.3580   25.9030   35.3240 H   0  0  0  0  0  0  0  0  0  0  0  0
   37.1810   28.7960   41.4290 C   0  0  0  0  0  0  0  0  0  0  0  0
   38.3320   29.4000   40.9360 C   0  0  0  0  0  0  0  0  0  0  0  0
   38.4420   29.5760   39.5490 C   0  0  0  0  0  0  0  0  0  0  0  0
   37.4260   29.1510   38.7600 N   0  0  0  0  0  0  0  0  0  0  0  0
   36.3290   28.5710   39.2780 C   0  0  0  0  0  0  0  0  0  0  0  0
   36.1950   28.3900   40.6030 N   0  0  0  0  0  0  0  0  0  0  0  0
   39.3370   30.0460   39.1520 H   0  0  0  0  0  0  0  0  0  0  0  0
   39.3910   29.8320   41.8810 C   0  0  0  0  0  0  0  0  0  0  0  0
   40.1290   28.7310   42.2990 F   0  0  0  0  0  0  0  0  0  0  0  0
   40.2770   30.6470   41.1990 F   0  0  0  0  0  0  0  0  0  0  0  0
   38.9460   30.4590   42.9940 F   0  0  0  0  0  0  0  0  0  0  0  0
   37.0830   28.6320   42.7620 O   0  0  0  0  0  0  0  0  0  0  0  0
   37.0220   27.4210   43.4840 C   0  0  0  0  0  0  0  0  0  0  0  0
   36.8760   26.3980   42.5460 F   0  0  0  0  0  0  0  0  0  0  0  0
   38.1530   27.2760   44.2400 F   0  0  0  0  0  0  0  0  0  0  0  0
   35.8760   27.3770   44.2410 F   0  0  0  0  0  0  0  0  0  0  0  0
  1 27  1  0  0  0  0
  2  3  1  0  0  0  0
  2  1  2  0  0  0  0
  4  2  1  0  0  0  0
  5  4  1  0  0  0  0
  6  4  2  0  0  0  0
  6  7  1  0  0  0  0
  7  8  2  0  0  0  0
  8  1  1  0  0  0  0
  8  9  1  0  0  0  0
 10  7  1  0  0  0  0
 11 10  1  0  0  0  0
 12 13  1  0  0  0  0
 12 11  1  0  0  0  0
 14 12  2  0  0  0  0
 15 14  1  0  0  0  0
 16 18  2  0  0  0  0
 16 14  1  0  0  0  0
 17 16  1  0  0  0  0
 18 20  1  0  0  0  0
 19 18  1  0  0  0  0
 20 21  1  0  0  0  0
 20 11  2  0  0  0  0
 21  6  1  0  0  0  0
 22 21  1  0  0  0  0
 23 34  1  0  0  0  0
 24 23  1  0  0  0  0
 24 30  1  0  0  0  0
 25 24  2  0  0  0  0
 26 27  2  0  0  0  0
 26 25  1  0  0  0  0
 27 28  1  0  0  0  0
 28 23  2  0  0  0  0
 29 25  1  0  0  0  0
 30 31  1  0  0  0  0
 30 33  1  0  0  0  0
 32 30  1  0  0  0  0
 34 35  1  0  0  0  0
 35 37  1  0  0  0  0
 35 38  1  0  0  0  0
 36 35  1  0  0  0  0
M  END
>  <minimizedAffinity>
-5.66115808

$$$$

 OpenBabel03252504123D

 38 41  0  0  0  0  0  0  0  0999 V2000
   35.3820   27.3000   38.4470 C   0  0  0  0  0  0  0  0  0  0  0  0
   35.5150   26.1490   37.6990 C   0  0  0  0  0  0  0  0  0  0  0  0
   36.2060   25.3970   38.0090 H   0  0  0  0  0  0  0  0  0  0  0  0
   34.7440   26.0140   36.5640 C   0  0  0  0  0  0  0  0  0  0  0  0
   34.9060   25.0700   36.0190 H   0  0  0  0  0  0  0  0  0  0  0  0
   33.8330   26.9400   36.1020 C   0  0  0  0  0  0  0  0  0  0  0  0
   33.7430   28.0620   36.8850 C   0  0  0  0  0  0  0  0  0  0  0  0
   34.4860   28.2440   38.0180 C   0  0  0  0  0  0  0  0  0  0  0  0
   34.3710   29.1600   38.6040 H   0  0  0  0  0  0  0  0  0  0  0  0
   32.6000   29.3350   36.3920 S   0  0  0  0  0  0  0  0  0  0  0  0
   31.8160   28.7720   34.8970 C   0  0  0  0  0  0  0  0  0  0  0  0
   30.8770   29.5420   34.2690 C   0  0  0  0  0  0  0  0  0  0  0  0
   30.6170   30.5170   34.7100 H   0  0  0  0  0  0  0  0  0  0  0  0
   30.2290   29.1710   33.1090 C   0  0  0  0  0  0  0  0  0  0  0  0
   29.5120   29.8340   32.6910 H   0  0  0  0  0  0  0  0  0  0  0  0
   30.5860   27.9430   32.5950 C   0  0  0  0  0  0  0  0  0  0  0  0
   30.1100   27.6110   31.6940 H   0  0  0  0  0  0  0  0  0  0  0  0
   31.5360   27.1800   33.2430 C   0  0  0  0  0  0  0  0  0  0  0  0
   31.7520   26.2180   32.7540 H   0  0  0  0  0  0  0  0  0  0  0  0
   32.1840   27.5500   34.4010 C   0  0  0  0  0  0  0  0  0  0  0  0
   33.1270   26.6340   34.9160 N   0  0  0  0  0  0  0  0  0  0  0  0
   33.3090   25.7450   34.4410 H   0  0  0  0  0  0  0  0  0  0  0  0
   37.6930   26.7640   41.2400 C   0  0  0  0  0  0  0  0  0  0  0  0
   37.6040   27.9660   41.9340 C   0  0  0  0  0  0  0  0  0  0  0  0
   36.7460   28.9550   41.4310 C   0  0  0  0  0  0  0  0  0  0  0  0
   36.0480   28.6930   40.3000 N   0  0  0  0  0  0  0  0  0  0  0  0
   36.1630   27.5150   39.6600 C   0  0  0  0  0  0  0  0  0  0  0  0
   36.9770   26.5490   40.1180 N   0  0  0  0  0  0  0  0  0  0  0  0
   36.6680   29.8990   41.9630 H   0  0  0  0  0  0  0  0  0  0  0  0
   38.4100   28.1600   43.1640 C   0  0  0  0  0  0  0  0  0  0  0  0
   38.2860   29.4700   43.6080 F   0  0  0  0  0  0  0  0  0  0  0  0
   37.8740   27.3680   44.1650 F   0  0  0  0  0  0  0  0  0  0  0  0
   39.7310   27.9060   43.0300 F   0  0  0  0  0  0  0  0  0  0  0  0
   38.5190   25.8200   41.7310 O   0  0  0  0  0  0  0  0  0  0  0  0
   38.1820   24.5320   42.1980 C   0  0  0  0  0  0  0  0  0  0  0  0
   39.0560   24.2420   43.2460 F   0  0  0  0  0  0  0  0  0  0  0  0
   36.8730   24.5110   42.5920 F   0  0  0  0  0  0  0  0  0  0  0  0
   38.4560   23.5910   41.2360 F   0  0  0  0  0  0  0  0  0  0  0  0
  1 27  1  0  0  0  0
  2  3  1  0  0  0  0
  2  1  2  0  0  0  0
  4  2  1  0  0  0  0
  5  4  1  0  0  0  0
  6  4  2  0  0  0  0
  6  7  1  0  0  0  0
  7  8  2  0  0  0  0
  8  1  1  0  0  0  0
  8  9  1  0  0  0  0
 10  7  1  0  0  0  0
 11 10  1  0  0  0  0
 12 13  1  0  0  0  0
 12 11  2  0  0  0  0
 14 12  1  0  0  0  0
 15 14  1  0  0  0  0
 16 14  2  0  0  0  0
 16 18  1  0  0  0  0
 17 16  1  0  0  0  0
 18 20  2  0  0  0  0
 19 18  1  0  0  0  0
 20 11  1  0  0  0  0
 20 21  1  0  0  0  0
 21  6  1  0  0  0  0
 22 21  1  0  0  0  0
 23 34  1  0  0  0  0
 23 24  1  0  0  0  0
 24 30  1  0  0  0  0
 25 24  2  0  0  0  0
 25 29  1  0  0  0  0
 26 25  1  0  0  0  0
 27 28  1  0  0  0  0
 27 26  2  0  0  0  0
 28 23  2  0  0  0  0
 30 31  1  0  0  0  0
 30 32  1  0  0  0  0
 33 30  1  0  0  0  0
 34 35  1  0  0  0  0
 35 37  1  0  0  0  0
 35 36  1  0  0  0  0
 38 35  1  0  0  0  0
M  END
>  <minimizedAffinity>
-5.66093349

$$$$

 OpenBabel03252504123D

 38 41  0  0  0  0  0  0  0  0999 V2000
   34.3960   28.9870   36.7400 C   0  0  0  0  0  0  0  0  0  0  0  0
   35.6240   28.9730   36.1110 C   0  0  0  0  0  0  0  0  0  0  0  0
   35.6690   28.9610   35.0450 H   0  0  0  0  0  0  0  0  0  0  0  0
   36.7590   28.9750   36.8930 C   0  0  0  0  0  0  0  0  0  0  0  0
   37.7010   28.9620   36.3200 H   0  0  0  0  0  0  0  0  0  0  0  0
   36.7810   28.9900   38.2710 C   0  0  0  0  0  0  0  0  0  0  0  0
   35.5340   29.0030   38.8400 C   0  0  0  0  0  0  0  0  0  0  0  0
   34.3780   29.0020   38.1100 C   0  0  0  0  0  0  0  0  0  0  0  0
   33.4110   29.0140   38.6200 H   0  0  0  0  0  0  0  0  0  0  0  0
   35.4270   29.0230   40.6180 S   0  0  0  0  0  0  0  0  0  0  0  0
   37.0980   29.0200   41.2330 C   0  0  0  0  0  0  0  0  0  0  0  0
   37.3450   29.0330   42.5780 C   0  0  0  0  0  0  0  0  0  0  0  0
   36.4890   29.0460   43.2700 H   0  0  0  0  0  0  0  0  0  0  0  0
   38.6120   29.0320   43.1260 C   0  0  0  0  0  0  0  0  0  0  0  0
   38.7090   29.0430   44.1840 H   0  0  0  0  0  0  0  0  0  0  0  0
   39.6520   29.0160   42.2220 C   0  0  0  0  0  0  0  0  0  0  0  0
   40.6540   29.0140   42.5990 H   0  0  0  0  0  0  0  0  0  0  0  0
   39.3820   29.0030   40.8680 C   0  0  0  0  0  0  0  0  0  0  0  0
   40.2770   28.9900   40.2300 H   0  0  0  0  0  0  0  0  0  0  0  0
   38.1180   29.0040   40.3200 C   0  0  0  0  0  0  0  0  0  0  0  0
   38.0420   28.9890   38.9100 N   0  0  0  0  0  0  0  0  0  0  0  0
   38.8920   28.9780   38.3390 H   0  0  0  0  0  0  0  0  0  0  0  0
   31.6750   30.0250   34.5170 C   0  0  0  0  0  0  0  0  0  0  0  0
   30.8100   28.9390   34.5800 C   0  0  0  0  0  0  0  0  0  0  0  0
   31.1730   27.8530   35.3890 C   0  0  0  0  0  0  0  0  0  0  0  0
   32.3430   27.9150   36.0690 N   0  0  0  0  0  0  0  0  0  0  0  0
   33.1510   28.9870   35.9810 C   0  0  0  0  0  0  0  0  0  0  0  0
   32.8290   30.0420   35.2130 N   0  0  0  0  0  0  0  0  0  0  0  0
   30.5060   26.9970   35.4460 H   0  0  0  0  0  0  0  0  0  0  0  0
   29.5490   28.9630   33.7970 C   0  0  0  0  0  0  0  0  0  0  0  0
   29.8370   29.0740   32.4420 F   0  0  0  0  0  0  0  0  0  0  0  0
   28.9170   27.7430   33.9530 F   0  0  0  0  0  0  0  0  0  0  0  0
   28.7000   29.9690   34.1080 F   0  0  0  0  0  0  0  0  0  0  0  0
   31.3180   31.0640   33.7370 O   0  0  0  0  0  0  0  0  0  0  0  0
   31.0430   32.3900   34.1320 C   0  0  0  0  0  0  0  0  0  0  0  0
   30.1150   32.8990   33.2230 F   0  0  0  0  0  0  0  0  0  0  0  0
   30.5740   32.4020   35.4170 F   0  0  0  0  0  0  0  0  0  0  0  0
   32.1610   33.1730   33.9750 F   0  0  0  0  0  0  0  0  0  0  0  0
  1  8  1  0  0  0  0
  2  1  2  0  0  0  0
  2  4  1  0  0  0  0
  3  2  1  0  0  0  0
  4  6  2  0  0  0  0
  5  4  1  0  0  0  0
  6  7  1  0  0  0  0
  6 21  1  0  0  0  0
  7 10  1  0  0  0  0
  8  9  1  0  0  0  0
  8  7  2  0  0  0  0
 10 11  1  0  0  0  0
 11 12  1  0  0  0  0
 12 14  2  0  0  0  0
 12 13  1  0  0  0  0
 14 15  1  0  0  0  0
 16 17  1  0  0  0  0
 16 14  1  0  0  0  0
 18 16  2  0  0  0  0
 19 18  1  0  0  0  0
 20 18  1  0  0  0  0
 20 11  2  0  0  0  0
 21 20  1  0  0  0  0
 22 21  1  0  0  0  0
 23 24  2  0  0  0  0
 23 28  1  0  0  0  0
 24 25  1  0  0  0  0
 25 29  1  0  0  0  0
 25 26  2  0  0  0  0
 27 26  1  0  0  0  0
 27  1  1  0  0  0  0
 28 27  2  0  0  0  0
 30 32  1  0  0  0  0
 30 33  1  0  0  0  0
 30 24  1  0  0  0  0
 31 30  1  0  0  0  0
 34 35  1  0  0  0  0
 34 23  1  0  0  0  0
 35 37  1  0  0  0  0
 36 35  1  0  0  0  0
 38 35  1  0  0  0  0
M  END
>  <minimizedAffinity>
-5.61916208

$$$$
