REMARK  Name = 
REMARK  4 active torsions:
REMARK  status: ('A' for Active; 'I' for Inactive)
REMARK    1  A    between atoms: C_1  and  C_5
REMARK    2  A    between atoms: C_3  and  C_10
REMARK    3  A    between atoms: C_10  and  N_11
REMARK    4  A    between atoms: C_16  and  C_35
REMARK                            x       y       z     vdW  Elec       q    Type
REMARK                         _______ _______ _______ _____ _____    ______ ____
ROOT
ATOM      1  N   UNL     1      45.773  31.793  46.748  0.00  0.00    +0.000 NA
ATOM      2  C   UNL     1      46.361  32.597  47.761  0.00  0.00    +0.000 C 
ATOM      3  C   UNL     1      47.708  32.052  48.238  0.00  0.00    +0.000 C 
ATOM      4  C   UNL     1      47.390  30.724  48.909  0.00  0.00    +0.000 C 
ATOM      5  C   UNL     1      46.899  29.833  47.785  0.00  0.00    +0.000 C 
ATOM      6  C   UNL     1      45.701  30.441  47.101  0.00  0.00    +0.000 C 
ATOM      7  H   UNL     1      45.685  32.416  48.657  0.00  0.00    +0.000 HD
ATOM      8  H   UNL     1      46.314  33.669  47.654  0.00  0.00    +0.000 HD
ATOM      9  H   UNL     1      48.402  31.845  47.415  0.00  0.00    +0.000 HD
ATOM     10  H   UNL     1      48.108  32.746  49.001  0.00  0.00    +0.000 HD
ATOM     11  H   UNL     1      48.356  30.333  49.285  0.00  0.00    +0.000 HD
ATOM     12  H   UNL     1      46.618  30.851  49.708  0.00  0.00    +0.000 HD
ATOM     13  H   UNL     1      46.586  28.866  48.228  0.00  0.00    +0.000 HD
ATOM     14  H   UNL     1      47.771  29.684  47.124  0.00  0.00    +0.000 HD
ATOM     15  H   UNL     1      44.936  30.426  47.948  0.00  0.00    +0.000 HD
ENDROOT
BRANCH   6  16
ATOM     16  C   UNL     1      45.148  29.517  46.104  0.00  0.00    +0.000 A 
ATOM     17  C   UNL     1      44.662  29.929  44.880  0.00  0.00    +0.000 A 
ATOM     18  H   UNL     1      44.666  30.976  44.608  0.00  0.00    +0.000 HD
ATOM     19  C   UNL     1      44.154  28.977  43.984  0.00  0.00    +0.000 A 
ATOM     20  H   UNL     1      43.788  29.394  43.034  0.00  0.00    +0.000 HD
ATOM     21  C   UNL     1      44.106  27.624  44.247  0.00  0.00    +0.000 A 
ATOM     22  C   UNL     1      44.593  27.224  45.468  0.00  0.00    +0.000 A 
ATOM     23  C   UNL     1      45.084  28.157  46.334  0.00  0.00    +0.000 A 
ATOM     24  H   UNL     1      45.462  27.784  47.299  0.00  0.00    +0.000 HD
ATOM     25  S   UNL     1      44.553  25.500  45.852  0.00  0.00    +0.000 S 
ATOM     26  C   UNL     1      43.841  24.680  44.453  0.00  0.00    +0.000 A 
ATOM     27  C   UNL     1      43.725  23.320  44.564  0.00  0.00    +0.000 A 
ATOM     28  H   UNL     1      44.029  22.758  45.414  0.00  0.00    +0.000 HD
ATOM     29  C   UNL     1      43.170  22.617  43.491  0.00  0.00    +0.000 A 
ATOM     30  H   UNL     1      43.066  21.547  43.547  0.00  0.00    +0.000 HD
ATOM     31  C   UNL     1      42.761  23.303  42.367  0.00  0.00    +0.000 A 
ATOM     32  H   UNL     1      42.336  22.776  41.541  0.00  0.00    +0.000 HD
ATOM     33  C   UNL     1      42.921  24.674  42.355  0.00  0.00    +0.000 A 
ATOM     34  H   UNL     1      42.576  25.163  41.432  0.00  0.00    +0.000 HD
ATOM     35  C   UNL     1      43.460  25.434  43.376  0.00  0.00    +0.000 A 
ATOM     36  N   UNL     1      43.561  26.818  43.225  0.00  0.00    +0.000 N 
ATOM     37  H   UNL     1      43.220  27.232  42.332  0.00  0.00    +0.000 HD
ENDBRANCH   6  16
BRANCH   1  38
ATOM     38  C   UNL     1      46.075  32.167  45.408  0.00  0.00    +0.000 C 
ATOM     39  H   UNL     1      45.293  31.834  44.723  0.00  0.00    +0.000 HD
ATOM     40  H   UNL     1      47.057  31.686  45.128  0.00  0.00    +0.000 HD
BRANCH  38  43
ATOM     41  C   UNL     1      46.104  34.409  44.068  0.00  0.00    +0.000 C 
ATOM     42  C   UNL     1      45.160  34.546  45.115  0.00  0.00    +0.000 C 
ATOM     43  C   UNL     1      46.301  33.632  45.386  0.00  0.00    +0.000 C 
ATOM     44  H   UNL     1      46.836  35.228  43.861  0.00  0.00    +0.000 HD
ATOM     45  H   UNL     1      44.166  34.043  45.016  0.00  0.00    +0.000 HD
ATOM     46  H   UNL     1      45.059  35.503  45.673  0.00  0.00    +0.000 HD
ATOM     47  H   UNL     1      47.236  33.966  45.866  0.00  0.00    +0.000 HD
BRANCH  41  49
ATOM     48  C   UNL     1      44.571  33.329  42.419  0.00  0.00    +0.000 A 
ATOM     49  C   UNL     1      45.908  33.592  42.835  0.00  0.00    +0.000 A 
ATOM     50  C   UNL     1      46.952  33.089  42.102  0.00  0.00    +0.000 A 
ATOM     51  N   UNL     1      46.649  32.351  40.993  0.00  0.00    +0.000 NA
ATOM     52  C   UNL     1      45.361  32.109  40.608  0.00  0.00    +0.000 A 
ATOM     53  N   UNL     1      44.298  32.596  41.318  0.00  0.00    +0.000 NA
ATOM     54  H   UNL     1      43.709  33.692  42.948  0.00  0.00    +0.000 HD
ATOM     55  H   UNL     1      47.956  33.281  42.406  0.00  0.00    +0.000 HD
ATOM     56  H   UNL     1      45.361  31.512  39.716  0.00  0.00    +0.000 HD
ENDBRANCH  41  49
ENDBRANCH  38  43
ENDBRANCH   1  38
TORSDOF 4
