REMARK  Name = 
REMARK  3 active torsions:
REMARK  status: ('A' for Active; 'I' for Inactive)
REMARK    1  A    between atoms: C_3  and  C_7
REMARK    2  A    between atoms: C_5  and  C_11
REMARK    3  A    between atoms: C_11  and  C_15
REMARK                            x       y       z     vdW  Elec       q    Type
REMARK                         _______ _______ _______ _____ _____    ______ ____
ROOT
ATOM      1  C   UNL     1      46.873  32.147  46.547  0.00  0.00    +0.000 A 
ATOM      2  C   UNL     1      46.726  30.879  46.030  0.00  0.00    +0.000 A 
ATOM      3  H   UNL     1      45.839  30.542  45.519  0.00  0.00    +0.000 HD
ATOM      4  C   UNL     1      47.716  29.915  46.112  0.00  0.00    +0.000 A 
ATOM      5  H   UNL     1      47.541  28.914  45.682  0.00  0.00    +0.000 HD
ATOM      6  C   UNL     1      48.937  30.169  46.728  0.00  0.00    +0.000 A 
ATOM      7  C   UNL     1      49.056  31.442  47.234  0.00  0.00    +0.000 A 
ATOM      8  C   UNL     1      48.089  32.376  47.153  0.00  0.00    +0.000 A 
ATOM      9  H   UNL     1      48.228  33.380  47.579  0.00  0.00    +0.000 HD
ATOM     10  S   UNL     1      50.576  31.895  48.048  0.00  0.00    +0.000 S 
ATOM     11  C   UNL     1      51.620  30.455  47.949  0.00  0.00    +0.000 A 
ATOM     12  C   UNL     1      52.857  30.573  48.492  0.00  0.00    +0.000 A 
ATOM     13  H   UNL     1      53.201  31.489  48.962  0.00  0.00    +0.000 HD
ATOM     14  C   UNL     1      53.685  29.456  48.424  0.00  0.00    +0.000 A 
ATOM     15  H   UNL     1      54.673  29.515  48.848  0.00  0.00    +0.000 HD
ATOM     16  C   UNL     1      53.303  28.260  47.839  0.00  0.00    +0.000 A 
ATOM     17  H   UNL     1      53.940  27.400  47.792  0.00  0.00    +0.000 HD
ATOM     18  C   UNL     1      52.016  28.232  47.309  0.00  0.00    +0.000 A 
ATOM     19  H   UNL     1      51.733  27.273  46.849  0.00  0.00    +0.000 HD
ATOM     20  C   UNL     1      51.162  29.313  47.352  0.00  0.00    +0.000 A 
ATOM     21  N   UNL     1      49.904  29.151  46.769  0.00  0.00    +0.000 N 
ATOM     22  H   UNL     1      49.657  28.234  46.338  0.00  0.00    +0.000 HD
ENDROOT
BRANCH   1  23
ATOM     23  C   UNL     1      45.825  33.151  46.449  0.00  0.00    +0.000 C 
ATOM     24  O   UNL     1      45.030  33.186  47.433  0.00  0.00    +0.000 OA
BRANCH  23  29
ATOM     25  C   UNL     1      44.598  35.929  44.425  0.00  0.00    +0.000 A 
ATOM     26  C   UNL     1      45.332  35.856  43.221  0.00  0.00    +0.000 A 
ATOM     27  C   UNL     1      46.250  34.819  43.142  0.00  0.00    +0.000 A 
ATOM     28  N   UNL     1      46.349  34.002  44.195  0.00  0.00    +0.000 NA
ATOM     29  C   UNL     1      45.660  34.064  45.335  0.00  0.00    +0.000 A 
ATOM     30  N   UNL     1      44.758  35.065  45.439  0.00  0.00    +0.000 NA
ATOM     31  H   UNL     1      43.875  36.733  44.513  0.00  0.00    +0.000 HD
ATOM     32  H   UNL     1      45.213  36.542  42.409  0.00  0.00    +0.000 HD
BRANCH  27  33
ATOM     33  C   UNL     1      47.032  34.721  41.903  0.00  0.00    +0.000 C 
ATOM     34  F   UNL     1      47.845  33.601  41.946  0.00  0.00    +0.000 F 
ATOM     35  F   UNL     1      47.907  35.821  41.910  0.00  0.00    +0.000 F 
ATOM     36  F   UNL     1      46.269  34.684  40.784  0.00  0.00    +0.000 F 
ENDBRANCH  27  33
ENDBRANCH  23  29
ENDBRANCH   1  23
TORSDOF 3
