REMARK  Name = 
REMARK  3 active torsions:
REMARK  status: ('A' for Active; 'I' for Inactive)
REMARK    1  A    between atoms: C_1  and  C_7
REMARK    2  A    between atoms: C_3  and  C_16
REMARK    3  A    between atoms: C_5  and  C_11
REMARK                            x       y       z     vdW  Elec       q    Type
REMARK                         _______ _______ _______ _____ _____    ______ ____
ROOT
ATOM      1  C   UNL     1      47.331  31.870  44.755  0.00  0.00    +0.000 A 
ATOM      2  C   UNL     1      46.218  31.381  45.405  0.00  0.00    +0.000 A 
ATOM      3  H   UNL     1      45.269  31.883  45.374  0.00  0.00    +0.000 HD
ATOM      4  C   UNL     1      46.369  30.187  46.118  0.00  0.00    +0.000 A 
ATOM      5  H   UNL     1      45.468  29.841  46.611  0.00  0.00    +0.000 HD
ATOM      6  C   UNL     1      47.537  29.462  46.223  0.00  0.00    +0.000 A 
ATOM      7  C   UNL     1      48.597  30.017  45.548  0.00  0.00    +0.000 A 
ATOM      8  C   UNL     1      48.510  31.168  44.844  0.00  0.00    +0.000 A 
ATOM      9  H   UNL     1      49.390  31.541  44.339  0.00  0.00    +0.000 HD
ATOM     10  S   UNL     1      50.159  29.158  45.620  0.00  0.00    +0.000 S 
ATOM     11  C   UNL     1      49.898  27.713  46.617  0.00  0.00    +0.000 A 
ATOM     12  C   UNL     1      50.959  26.877  46.827  0.00  0.00    +0.000 A 
ATOM     13  H   UNL     1      51.934  27.106  46.384  0.00  0.00    +0.000 HD
ATOM     14  C   UNL     1      50.834  25.736  47.590  0.00  0.00    +0.000 A 
ATOM     15  H   UNL     1      51.712  25.120  47.714  0.00  0.00    +0.000 HD
ATOM     16  C   UNL     1      49.597  25.468  48.136  0.00  0.00    +0.000 A 
ATOM     17  H   UNL     1      49.474  24.579  48.739  0.00  0.00    +0.000 HD
ATOM     18  C   UNL     1      48.561  26.345  47.894  0.00  0.00    +0.000 A 
ATOM     19  H   UNL     1      47.624  26.060  48.359  0.00  0.00    +0.000 HD
ATOM     20  C   UNL     1      48.655  27.493  47.135  0.00  0.00    +0.000 A 
ATOM     21  N   UNL     1      47.515  28.282  46.980  0.00  0.00    +0.000 N 
ATOM     22  H   UNL     1      46.629  27.985  47.439  0.00  0.00    +0.000 HD
ENDROOT
BRANCH   1  25
ATOM     23  C   UNL     1      47.843  34.792  42.415  0.00  0.00    +0.000 A 
ATOM     24  C   UNL     1      48.109  33.568  43.069  0.00  0.00    +0.000 A 
ATOM     25  C   UNL     1      47.176  33.111  44.014  0.00  0.00    +0.000 A 
ATOM     26  N   UNL     1      46.079  33.871  44.240  0.00  0.00    +0.000 NA
ATOM     27  C   UNL     1      45.853  35.036  43.599  0.00  0.00    +0.000 A 
ATOM     28  N   UNL     1      46.727  35.485  42.700  0.00  0.00    +0.000 NA
ATOM     29  H   UNL     1      48.976  32.991  42.874  0.00  0.00    +0.000 HD
BRANCH  23  30
ATOM     30  C   UNL     1      48.845  35.248  41.423  0.00  0.00    +0.000 C 
ATOM     31  F   UNL     1      48.379  35.169  40.136  0.00  0.00    +0.000 F 
ATOM     32  F   UNL     1      49.195  36.569  41.732  0.00  0.00    +0.000 F 
ATOM     33  F   UNL     1      50.023  34.512  41.581  0.00  0.00    +0.000 F 
ENDBRANCH  23  30
BRANCH  27  34
ATOM     34  C   UNL     1      44.624  35.822  43.897  0.00  0.00    +0.000 C 
ATOM     35  F   UNL     1      43.637  35.580  42.977  0.00  0.00    +0.000 F 
ATOM     36  F   UNL     1      44.933  37.195  43.920  0.00  0.00    +0.000 F 
ATOM     37  F   UNL     1      44.120  35.547  45.150  0.00  0.00    +0.000 F 
ENDBRANCH  27  34
ENDBRANCH   1  25
TORSDOF 3
