
     RDKit          3D

 50 55  0  0  0  0  0  0  0  0999 V2000
   47.5337   32.8435   43.9072 C   0  0  0  0  0  0  0  0  0  0  0  0
   48.3740   33.3890   43.0157 C   0  0  0  0  0  0  0  0  0  0  0  0
   49.2365   32.4940   42.4160 C   0  0  0  0  0  0  0  0  0  0  0  0
   49.1624   31.1367   42.7842 N   0  0  0  0  0  0  0  0  0  0  0  0
   48.3131   30.6780   43.6700 C   0  0  0  0  0  0  0  0  0  0  0  0
   47.4341   31.5404   44.2887 N   0  0  0  0  0  0  0  0  0  0  0  0
   48.5230   34.7729   42.7347 C   0  0  0  0  0  0  0  0  0  0  0  0
   49.5225   35.3993   42.0586 C   0  0  0  0  0  0  0  0  0  0  0  0
   48.2777   35.2247   41.2325 C   0  0  0  0  0  0  0  0  0  0  0  0
   46.4524   33.5330   44.6225 C   0  0  0  0  0  0  0  0  0  0  0  0
   45.8820   33.8978   45.6191 O   0  0  0  0  0  0  0  0  0  0  0  0
   44.6813   31.6644   42.9270 Cl  0  0  0  0  0  0  0  0  0  0  0  0
   44.6491   33.4215   42.7606 C   0  0  0  0  0  0  0  0  0  0  0  0
   45.5203   34.1228   43.6204 C   0  0  0  0  0  0  0  0  0  0  0  0
   45.4174   35.4884   43.4057 C   0  0  0  0  0  0  0  0  0  0  0  0
   44.6509   36.1707   42.5433 C   0  0  0  0  0  0  0  0  0  0  0  0
   43.8375   35.4134   41.7475 C   0  0  0  0  0  0  0  0  0  0  0  0
   43.8201   34.0637   41.8381 C   0  0  0  0  0  0  0  0  0  0  0  0
   49.9817   32.7481   41.6710 H   0  0  0  0  0  0  0  0  0  0  0  0
   48.3749   29.6101   43.8514 H   0  0  0  0  0  0  0  0  0  0  0  0
   48.0615   35.4333   43.4927 H   0  0  0  0  0  0  0  0  0  0  0  0
   49.8510   36.4648   42.1034 H   0  0  0  0  0  0  0  0  0  0  0  0
   50.3910   34.7930   41.6628 H   0  0  0  0  0  0  0  0  0  0  0  0
   48.2128   34.3775   40.5375 H   0  0  0  0  0  0  0  0  0  0  0  0
   47.5872   36.0749   41.1336 H   0  0  0  0  0  0  0  0  0  0  0  0
   46.0120   36.1925   44.0253 H   0  0  0  0  0  0  0  0  0  0  0  0
   44.6013   37.2210   42.4063 H   0  0  0  0  0  0  0  0  0  0  0  0
   43.1567   35.8038   40.9988 H   0  0  0  0  0  0  0  0  0  0  0  0
   42.9665   33.2035   41.0158 C   0  0  0  0  0  0  0  0  0  0  0  0
   41.8520   32.6976   41.6869 C   0  0  0  0  0  0  0  0  0  0  0  0
   41.6489   32.9313   42.7231 H   0  0  0  0  0  0  0  0  0  0  0  0
   40.9709   31.8627   40.9981 C   0  0  0  0  0  0  0  0  0  0  0  0
   40.1128   31.4961   41.5791 H   0  0  0  0  0  0  0  0  0  0  0  0
   41.1292   31.4982   39.6792 C   0  0  0  0  0  0  0  0  0  0  0  0
   42.2389   32.0231   39.0706 C   0  0  0  0  0  0  0  0  0  0  0  0
   43.1334   32.8441   39.6955 C   0  0  0  0  0  0  0  0  0  0  0  0
   43.9958   33.2510   39.2273 H   0  0  0  0  0  0  0  0  0  0  0  0
   42.5352   31.6125   37.3639 S   0  0  0  0  0  0  0  0  0  0  0  0
   41.2056   30.5422   36.8556 C   0  0  0  0  0  0  0  0  0  0  0  0
   41.1684   30.0608   35.5759 C   0  0  0  0  0  0  0  0  0  0  0  0
   41.9723   30.3538   34.8905 H   0  0  0  0  0  0  0  0  0  0  0  0
   40.1683   29.2311   35.1246 C   0  0  0  0  0  0  0  0  0  0  0  0
   40.2303   28.9056   34.0960 H   0  0  0  0  0  0  0  0  0  0  0  0
   39.1779   28.8886   36.0212 C   0  0  0  0  0  0  0  0  0  0  0  0
   38.3958   28.2496   35.6959 H   0  0  0  0  0  0  0  0  0  0  0  0
   39.2541   29.3961   37.3013 C   0  0  0  0  0  0  0  0  0  0  0  0
   38.4245   29.0727   37.9496 H   0  0  0  0  0  0  0  0  0  0  0  0
   40.2427   30.2281   37.7803 C   0  0  0  0  0  0  0  0  0  0  0  0
   40.1524   30.6447   39.1178 N   0  0  0  0  0  0  0  0  0  0  0  0
   39.3556   30.3207   39.7031 H   0  0  0  0  0  0  0  0  0  0  0  0
  1  6  1  0
  1 10  1  0
  2  1  2  0
  3  4  2  0
  3  2  1  0
  4  5  1  0
  5  6  2  0
  7  2  1  0
  8  7  1  0
  9  8  1  0
  9  7  1  0
 10 11  2  0
 13 12  1  0
 13 14  2  0
 14 10  1  0
 15 14  1  0
 16 15  2  0
 17 18  2  0
 17 16  1  0
 18 13  1  0
  3 19  1  0
  5 20  1  0
  7 21  1  0
  8 22  1  0
  8 23  1  0
  9 24  1  0
  9 25  1  0
 15 26  1  0
 16 27  1  0
 17 28  1  0
 29 30  2  0
 30 31  1  0
 30 32  1  0
 32 33  1  0
 32 34  2  0
 34 35  1  0
 35 36  2  0
 36 37  1  0
 35 38  1  0
 38 39  1  0
 39 40  2  0
 40 41  1  0
 40 42  1  0
 42 43  1  0
 42 44  2  0
 44 45  1  0
 44 46  1  0
 46 47  1  0
 46 48  2  0
 48 49  1  0
 49 50  1  0
 36 29  1  0
 48 39  1  0
 49 34  1  0
 18 29  1  0
M  ISO  8  19  14  20  14  21  13  22  13  23  13  24  13  25  13  26  14
M  ISO  8  27  14  28  14  31  16  33  16  37  16  41  16  43  16  45  16
M  ISO  2  47  16  50   5
M  END
>  <DihAtoms>  (1) 
16,17,28,29

>  <DihDeg>  (1) 
46.50433985907053

$$$$
