
 OpenBabel03252502453D

 44 48  0  0  1  0  0  0  0  0999 V2000
   37.6310   33.6700   39.8840 C   0  0  1  0  0  0  0  0  0  0  0  0
   37.7470   32.7230   38.7950 C   0  0  0  0  0  0  0  0  0  0  0  0
   37.0060   32.4530   40.1000 C   0  0  1  0  0  0  0  0  0  0  0  0
   37.0850   34.6100   39.5780 H   0  0  0  0  0  0  0  0  0  0  0  0
   38.6250   32.1310   38.5480 H   0  0  0  0  0  0  0  0  0  0  0  0
   37.0400   32.7670   37.9140 H   0  0  0  0  0  0  0  0  0  0  0  0
   35.8810   32.6700   40.1450 H   0  0  0  0  0  0  0  0  0  0  0  0
   36.9440   31.0680   40.3830 C   0  0  0  0  0  0  0  0  0  0  0  0
   35.8830   30.2290   40.0000 C   0  0  0  0  0  0  0  0  0  0  0  0
   35.0500   30.6740   39.4740 H   0  0  0  0  0  0  0  0  0  0  0  0
   35.9450   28.8910   40.3070 C   0  0  0  0  0  0  0  0  0  0  0  0
   35.0670   28.3270   39.9630 H   0  0  0  0  0  0  0  0  0  0  0  0
   37.0290   28.3730   40.9810 C   0  0  0  0  0  0  0  0  0  0  0  0
   38.0810   29.1210   41.3790 C   0  0  0  0  0  0  0  0  0  0  0  0
   37.9970   30.4320   41.0660 C   0  0  0  0  0  0  0  0  0  0  0  0
   38.8290   31.0780   41.3690 H   0  0  0  0  0  0  0  0  0  0  0  0
   39.4320   28.3820   42.2370 S   0  0  0  0  0  0  0  0  0  0  0  0
   39.0280   26.6460   42.3790 C   0  0  0  0  0  0  0  0  0  0  0  0
   39.9770   25.9100   43.0240 C   0  0  0  0  0  0  0  0  0  0  0  0
   40.8950   26.2890   43.4270 H   0  0  0  0  0  0  0  0  0  0  0  0
   39.7530   24.5450   43.1840 C   0  0  0  0  0  0  0  0  0  0  0  0
   40.4400   23.8790   43.6810 H   0  0  0  0  0  0  0  0  0  0  0  0
   38.5900   23.9980   42.6880 C   0  0  0  0  0  0  0  0  0  0  0  0
   38.3990   22.9400   42.8040 H   0  0  0  0  0  0  0  0  0  0  0  0
   37.7080   24.8220   42.0590 C   0  0  0  0  0  0  0  0  0  0  0  0
   36.7950   24.3310   41.6820 H   0  0  0  0  0  0  0  0  0  0  0  0
   37.8440   26.1820   41.8540 C   0  0  0  0  0  0  0  0  0  0  0  0
   36.8990   26.9840   41.1960 N   0  0  0  0  0  0  0  0  0  0  0  0
   36.0660   26.4020   40.8790 H   0  0  0  0  0  0  0  0  0  0  0  0
   38.8570   34.0980   40.6450 C   0  0  0  0  0  0  0  0  0  0  0  0
   38.7730   35.2230   40.7030 H   0  0  0  0  0  0  0  0  0  0  0  0
   38.9050   33.6950   41.6560 H   0  0  0  0  0  0  0  0  0  0  0  0
   39.9830   33.6830   39.7530 C   0  0  0  0  0  0  0  0  0  0  0  0
   40.4590   34.5910   39.3430 H   0  0  0  0  0  0  0  0  0  0  0  0
   39.7260   32.9140   39.0210 H   0  0  0  0  0  0  0  0  0  0  0  0
   42.2600   31.7730   42.0470 C   0  0  0  0  0  0  0  0  0  0  0  0
   41.1570   32.0910   41.2180 C   0  0  0  0  0  0  0  0  0  0  0  0
   41.1540   33.3070   40.5970 C   0  0  0  0  0  0  0  0  0  0  0  0
   42.2010   34.1610   40.7900 N   0  0  0  0  0  0  0  0  0  0  0  0
   43.2230   33.8490   41.5670 C   0  0  0  0  0  0  0  0  0  0  0  0
   43.2640   32.6700   42.1950 N   0  0  0  0  0  0  0  0  0  0  0  0
   42.3590   30.8410   42.5820 H   0  0  0  0  0  0  0  0  0  0  0  0
   40.4520   31.2780   41.1910 H   0  0  0  0  0  0  0  0  0  0  0  0
   44.0720   34.5000   41.7460 H   0  0  0  0  0  0  0  0  0  0  0  0
  1  4  1  6  0  0  0
  1  3  1  0  0  0  0
  1 30  1  0  0  0  0
  2  1  1  0  0  0  0
  2  3  1  0  0  0  0
  3  7  1  6  0  0  0
  3  8  1  0  0  0  0
  5  2  1  0  0  0  0
  6  2  1  0  0  0  0
  8 15  1  0  0  0  0
  9 11  1  0  0  0  0
  9  8  2  0  0  0  0
 10  9  1  0  0  0  0
 11 13  2  0  0  0  0
 12 11  1  0  0  0  0
 13 28  1  0  0  0  0
 13 14  1  0  0  0  0
 14 17  1  0  0  0  0
 15 16  1  0  0  0  0
 15 14  2  0  0  0  0
 17 18  1  0  0  0  0
 18 19  1  0  0  0  0
 19 21  2  0  0  0  0
 19 20  1  0  0  0  0
 21 22  1  0  0  0  0
 23 24  1  0  0  0  0
 23 21  1  0  0  0  0
 25 23  2  0  0  0  0
 26 25  1  0  0  0  0
 27 25  1  0  0  0  0
 27 18  2  0  0  0  0
 28 27  1  0  0  0  0
 29 28  1  0  0  0  0
 30 31  1  0  0  0  0
 30 32  1  0  0  0  0
 33 38  1  0  0  0  0
 33 30  1  0  0  0  0
 34 33  1  0  0  0  0
 35 33  1  0  0  0  0
 36 41  1  0  0  0  0
 36 42  1  0  0  0  0
 37 36  2  0  0  0  0
 38 39  2  0  0  0  0
 38 37  1  0  0  0  0
 39 40  1  0  0  0  0
 40 44  1  0  0  0  0
 40 41  2  0  0  0  0
 43 37  1  0  0  0  0
M  END
>  <minimizedAffinity>
-5.98912859

$$$$

 OpenBabel03252502453D

 44 48  0  0  1  0  0  0  0  0999 V2000
   36.8620   24.3070   42.0040 C   0  0  1  0  0  0  0  0  0  0  0  0
   38.2800   24.5520   42.1630 C   0  0  0  0  0  0  0  0  0  0  0  0
   37.1870   25.5690   42.4720 C   0  0  1  0  0  0  0  0  0  0  0  0
   36.4950   23.4680   42.6650 H   0  0  0  0  0  0  0  0  0  0  0  0
   38.9900   24.7580   41.3660 H   0  0  0  0  0  0  0  0  0  0  0  0
   38.8210   24.2230   43.1000 H   0  0  0  0  0  0  0  0  0  0  0  0
   36.7840   25.6320   43.5430 H   0  0  0  0  0  0  0  0  0  0  0  0
   37.6710   26.8960   42.3720 C   0  0  0  0  0  0  0  0  0  0  0  0
   38.7900   27.3830   43.0700 C   0  0  0  0  0  0  0  0  0  0  0  0
   39.3010   26.7080   43.7430 H   0  0  0  0  0  0  0  0  0  0  0  0
   39.1850   28.6840   42.8740 C   0  0  0  0  0  0  0  0  0  0  0  0
   40.0680   28.9620   43.4660 H   0  0  0  0  0  0  0  0  0  0  0  0
   38.4980   29.5050   42.0060 C   0  0  0  0  0  0  0  0  0  0  0  0
   37.4170   29.1030   41.3050 C   0  0  0  0  0  0  0  0  0  0  0  0
   37.0480   27.8200   41.5150 C   0  0  0  0  0  0  0  0  0  0  0  0
   36.1740   27.4500   40.9670 H   0  0  0  0  0  0  0  0  0  0  0  0
   36.5920   30.2140   40.2130 S   0  0  0  0  0  0  0  0  0  0  0  0
   37.4920   31.7560   40.3180 C   0  0  0  0  0  0  0  0  0  0  0  0
   36.9870   32.7440   39.5260 C   0  0  0  0  0  0  0  0  0  0  0  0
   36.1340   32.6550   38.8830 H   0  0  0  0  0  0  0  0  0  0  0  0
   37.6190   33.9850   39.5390 C   0  0  0  0  0  0  0  0  0  0  0  0
   37.2970   34.8290   38.9510 H   0  0  0  0  0  0  0  0  0  0  0  0
   38.7220   34.1610   40.3460 C   0  0  0  0  0  0  0  0  0  0  0  0
   39.2260   35.1180   40.3690 H   0  0  0  0  0  0  0  0  0  0  0  0
   39.1450   33.1090   41.0980 C   0  0  0  0  0  0  0  0  0  0  0  0
   40.0320   33.3070   41.7240 H   0  0  0  0  0  0  0  0  0  0  0  0
   38.5830   31.8470   41.1500 C   0  0  0  0  0  0  0  0  0  0  0  0
   39.0650   30.7960   41.9460 N   0  0  0  0  0  0  0  0  0  0  0  0
   39.9180   31.1050   42.5030 H   0  0  0  0  0  0  0  0  0  0  0  0
   36.2870   24.0730   40.6330 C   0  0  0  0  0  0  0  0  0  0  0  0
   35.9530   22.9940   40.6490 H   0  0  0  0  0  0  0  0  0  0  0  0
   35.4280   24.7050   40.4080 H   0  0  0  0  0  0  0  0  0  0  0  0
   37.4590   24.2660   39.7250 C   0  0  0  0  0  0  0  0  0  0  0  0
   37.3750   23.5500   38.8880 H   0  0  0  0  0  0  0  0  0  0  0  0
   38.4270   24.2910   40.2300 H   0  0  0  0  0  0  0  0  0  0  0  0
   38.0400   27.3440   37.6570 C   0  0  0  0  0  0  0  0  0  0  0  0
   38.2930   26.1830   38.4280 C   0  0  0  0  0  0  0  0  0  0  0  0
   37.2200   25.4680   38.8760 C   0  0  0  0  0  0  0  0  0  0  0  0
   35.9580   25.8880   38.5670 N   0  0  0  0  0  0  0  0  0  0  0  0
   35.7400   26.9740   37.8470 C   0  0  0  0  0  0  0  0  0  0  0  0
   36.7620   27.7040   37.3910 N   0  0  0  0  0  0  0  0  0  0  0  0
   38.8160   27.9790   37.2570 H   0  0  0  0  0  0  0  0  0  0  0  0
   39.3510   26.0240   38.5420 H   0  0  0  0  0  0  0  0  0  0  0  0
   34.7530   27.3390   37.5820 H   0  0  0  0  0  0  0  0  0  0  0  0
  1  2  1  0  0  0  0
  1  3  1  0  0  0  0
  1  4  1  1  0  0  0
  2  3  1  0  0  0  0
  2  6  1  0  0  0  0
  3  7  1  1  0  0  0
  5  2  1  0  0  0  0
  8  3  1  0  0  0  0
  8  9  1  0  0  0  0
  9 10  1  0  0  0  0
 11  9  2  0  0  0  0
 11 12  1  0  0  0  0
 13 11  1  0  0  0  0
 14 15  1  0  0  0  0
 14 13  2  0  0  0  0
 15  8  2  0  0  0  0
 16 15  1  0  0  0  0
 17 18  1  0  0  0  0
 17 14  1  0  0  0  0
 18 27  1  0  0  0  0
 19 21  1  0  0  0  0
 19 18  2  0  0  0  0
 20 19  1  0  0  0  0
 21 23  2  0  0  0  0
 22 21  1  0  0  0  0
 23 24  1  0  0  0  0
 23 25  1  0  0  0  0
 25 27  2  0  0  0  0
 25 26  1  0  0  0  0
 27 28  1  0  0  0  0
 28 13  1  0  0  0  0
 28 29  1  0  0  0  0
 30 31  1  0  0  0  0
 30  1  1  0  0  0  0
 32 30  1  0  0  0  0
 33 35  1  0  0  0  0
 33 30  1  0  0  0  0
 34 33  1  0  0  0  0
 36 37  1  0  0  0  0
 37 43  1  0  0  0  0
 37 38  2  0  0  0  0
 38 33  1  0  0  0  0
 39 38  1  0  0  0  0
 40 39  2  0  0  0  0
 41 36  2  0  0  0  0
 41 40  1  0  0  0  0
 42 36  1  0  0  0  0
 44 40  1  0  0  0  0
M  END
>  <minimizedAffinity>
-5.93950367

$$$$

 OpenBabel03252502453D

 44 48  0  0  1  0  0  0  0  0999 V2000
   33.8810   28.3230   37.7970 C   0  0  1  0  0  0  0  0  0  0  0  0
   35.1740   27.7280   38.0600 C   0  0  0  0  0  0  0  0  0  0  0  0
   34.6220   28.9520   38.7830 C   0  0  1  0  0  0  0  0  0  0  0  0
   33.0300   27.6110   38.0100 H   0  0  0  0  0  0  0  0  0  0  0  0
   36.0660   27.8290   37.4460 H   0  0  0  0  0  0  0  0  0  0  0  0
   35.2710   26.8410   38.7540 H   0  0  0  0  0  0  0  0  0  0  0  0
   34.0530   28.7960   39.7660 H   0  0  0  0  0  0  0  0  0  0  0  0
   35.6630   29.7650   39.2930 C   0  0  0  0  0  0  0  0  0  0  0  0
   35.8010   30.1160   40.6470 C   0  0  0  0  0  0  0  0  0  0  0  0
   35.0520   29.7600   41.3420 H   0  0  0  0  0  0  0  0  0  0  0  0
   36.8690   30.8900   41.0310 C   0  0  0  0  0  0  0  0  0  0  0  0
   36.8810   31.1060   42.1090 H   0  0  0  0  0  0  0  0  0  0  0  0
   37.7950   31.3210   40.1060 C   0  0  0  0  0  0  0  0  0  0  0  0
   37.7240   31.0210   38.7910 C   0  0  0  0  0  0  0  0  0  0  0  0
   36.6650   30.2590   38.4390 C   0  0  0  0  0  0  0  0  0  0  0  0
   36.5660   29.9910   37.3810 H   0  0  0  0  0  0  0  0  0  0  0  0
   38.9500   31.6090   37.6700 S   0  0  0  0  0  0  0  0  0  0  0  0
   40.1030   32.5510   38.6600 C   0  0  0  0  0  0  0  0  0  0  0  0
   41.1330   33.0880   37.9470 C   0  0  0  0  0  0  0  0  0  0  0  0
   41.2820   32.9830   36.8910 H   0  0  0  0  0  0  0  0  0  0  0  0
   42.0840   33.8400   38.6310 C   0  0  0  0  0  0  0  0  0  0  0  0
   42.9340   34.3060   38.1580 H   0  0  0  0  0  0  0  0  0  0  0  0
   41.9460   34.0110   39.9910 C   0  0  0  0  0  0  0  0  0  0  0  0
   42.6750   34.5940   40.5380 H   0  0  0  0  0  0  0  0  0  0  0  0
   40.8800   33.4330   40.6080 C   0  0  0  0  0  0  0  0  0  0  0  0
   40.8200   33.6030   41.6960 H   0  0  0  0  0  0  0  0  0  0  0  0
   39.8900   32.6720   40.0140 C   0  0  0  0  0  0  0  0  0  0  0  0
   38.8100   32.0980   40.7030 N   0  0  0  0  0  0  0  0  0  0  0  0
   38.8590   32.3300   41.7410 H   0  0  0  0  0  0  0  0  0  0  0  0
   33.6020   28.9600   36.4620 C   0  0  0  0  0  0  0  0  0  0  0  0
   33.7680   30.0630   36.6370 H   0  0  0  0  0  0  0  0  0  0  0  0
   34.2710   28.6230   35.6700 H   0  0  0  0  0  0  0  0  0  0  0  0
   32.1560   28.6580   36.2280 C   0  0  0  0  0  0  0  0  0  0  0  0
   31.7730   28.0880   37.0930 H   0  0  0  0  0  0  0  0  0  0  0  0
   31.9320   28.2340   35.2470 H   0  0  0  0  0  0  0  0  0  0  0  0
   30.5380   32.0290   35.9030 C   0  0  0  0  0  0  0  0  0  0  0  0
   31.2730   30.8610   35.5820 C   0  0  0  0  0  0  0  0  0  0  0  0
   31.3530   29.8780   36.5260 C   0  0  0  0  0  0  0  0  0  0  0  0
   30.7300   30.0500   37.7280 N   0  0  0  0  0  0  0  0  0  0  0  0
   30.0490   31.1460   38.0120 C   0  0  0  0  0  0  0  0  0  0  0  0
   29.9470   32.1340   37.1170 N   0  0  0  0  0  0  0  0  0  0  0  0
   30.4140   32.8640   35.2300 H   0  0  0  0  0  0  0  0  0  0  0  0
   31.6690   30.9220   34.5830 H   0  0  0  0  0  0  0  0  0  0  0  0
   29.5420   31.3200   38.9550 H   0  0  0  0  0  0  0  0  0  0  0  0
  1  4  1  1  0  0  0
  1  2  1  0  0  0  0
  1  3  1  0  0  0  0
  2  6  1  0  0  0  0
  2  3  1  0  0  0  0
  3  8  1  0  0  0  0
  3  7  1  1  0  0  0
  5  2  1  0  0  0  0
  8  9  1  0  0  0  0
  9 11  2  0  0  0  0
  9 10  1  0  0  0  0
 11 12  1  0  0  0  0
 13 28  1  0  0  0  0
 13 11  1  0  0  0  0
 14 13  2  0  0  0  0
 15 14  1  0  0  0  0
 15  8  2  0  0  0  0
 16 15  1  0  0  0  0
 17 18  1  0  0  0  0
 17 14  1  0  0  0  0
 18 27  1  0  0  0  0
 19 21  1  0  0  0  0
 19 18  2  0  0  0  0
 20 19  1  0  0  0  0
 21 23  2  0  0  0  0
 22 21  1  0  0  0  0
 23 24  1  0  0  0  0
 23 25  1  0  0  0  0
 25 26  1  0  0  0  0
 27 25  2  0  0  0  0
 27 28  1  0  0  0  0
 28 29  1  0  0  0  0
 30 31  1  0  0  0  0
 30  1  1  0  0  0  0
 32 30  1  0  0  0  0
 33 30  1  0  0  0  0
 33 38  1  0  0  0  0
 33 34  1  0  0  0  0
 35 33  1  0  0  0  0
 36 41  1  0  0  0  0
 37 36  2  0  0  0  0
 37 38  1  0  0  0  0
 38 39  2  0  0  0  0
 39 40  1  0  0  0  0
 40 44  1  0  0  0  0
 41 40  2  0  0  0  0
 42 36  1  0  0  0  0
 43 37  1  0  0  0  0
M  END
>  <minimizedAffinity>
-5.84345913

$$$$

 OpenBabel03252502453D

 44 48  0  0  1  0  0  0  0  0999 V2000
   37.5230   24.0060   39.5920 C   0  0  1  0  0  0  0  0  0  0  0  0
   36.1740   24.5280   39.5510 C   0  0  0  0  0  0  0  0  0  0  0  0
   37.3920   25.2340   38.9650 C   0  0  1  0  0  0  0  0  0  0  0  0
   37.6220   23.0260   39.0370 H   0  0  0  0  0  0  0  0  0  0  0  0
   35.6370   24.9880   40.3770 H   0  0  0  0  0  0  0  0  0  0  0  0
   35.4520   24.2000   38.7440 H   0  0  0  0  0  0  0  0  0  0  0  0
   37.6440   25.0630   37.8600 H   0  0  0  0  0  0  0  0  0  0  0  0
   37.1980   26.6340   38.9010 C   0  0  0  0  0  0  0  0  0  0  0  0
   36.1160   27.2540   38.2510 C   0  0  0  0  0  0  0  0  0  0  0  0
   35.3970   26.6210   37.7480 H   0  0  0  0  0  0  0  0  0  0  0  0
   36.0150   28.6240   38.2780 C   0  0  0  0  0  0  0  0  0  0  0  0
   35.1350   29.0040   37.7410 H   0  0  0  0  0  0  0  0  0  0  0  0
   36.9590   29.3860   38.9320 C   0  0  0  0  0  0  0  0  0  0  0  0
   38.0220   28.8570   39.5760 C   0  0  0  0  0  0  0  0  0  0  0  0
   38.0980   27.5090   39.5350 C   0  0  0  0  0  0  0  0  0  0  0  0
   38.9450   27.0350   40.0440 H   0  0  0  0  0  0  0  0  0  0  0  0
   39.1860   29.9000   40.3910 S   0  0  0  0  0  0  0  0  0  0  0  0
   38.6050   31.5720   40.1340 C   0  0  0  0  0  0  0  0  0  0  0  0
   39.3950   32.5240   40.7050 C   0  0  0  0  0  0  0  0  0  0  0  0
   40.2900   32.3400   41.2650 H   0  0  0  0  0  0  0  0  0  0  0  0
   39.0240   33.8590   40.5600 C   0  0  0  0  0  0  0  0  0  0  0  0
   39.5820   34.6840   40.9720 H   0  0  0  0  0  0  0  0  0  0  0  0
   37.8820   34.1590   39.8500 C   0  0  0  0  0  0  0  0  0  0  0  0
   37.5800   35.1910   39.7270 H   0  0  0  0  0  0  0  0  0  0  0  0
   37.1640   33.1320   39.3200 C   0  0  0  0  0  0  0  0  0  0  0  0
   36.2610   33.4320   38.7630 H   0  0  0  0  0  0  0  0  0  0  0  0
   37.4530   31.7840   39.4120 C   0  0  0  0  0  0  0  0  0  0  0  0
   36.6730   30.7650   38.8440 N   0  0  0  0  0  0  0  0  0  0  0  0
   35.8320   31.1730   38.3340 H   0  0  0  0  0  0  0  0  0  0  0  0
   38.2290   23.8400   40.9110 C   0  0  0  0  0  0  0  0  0  0  0  0
   38.3760   22.7250   41.0120 H   0  0  0  0  0  0  0  0  0  0  0  0
   39.2020   24.3290   40.9490 H   0  0  0  0  0  0  0  0  0  0  0  0
   37.2340   24.3500   41.9040 C   0  0  0  0  0  0  0  0  0  0  0  0
   37.3330   23.7600   42.8330 H   0  0  0  0  0  0  0  0  0  0  0  0
   36.2170   24.4550   41.5190 H   0  0  0  0  0  0  0  0  0  0  0  0
   37.4080   27.8300   43.2990 C   0  0  0  0  0  0  0  0  0  0  0  0
   36.8830   26.6280   42.7630 C   0  0  0  0  0  0  0  0  0  0  0  0
   37.7550   25.6090   42.5080 C   0  0  0  0  0  0  0  0  0  0  0  0
   39.0830   25.7790   42.7760 N   0  0  0  0  0  0  0  0  0  0  0  0
   39.5560   26.9070   43.2750 C   0  0  0  0  0  0  0  0  0  0  0  0
   38.7370   27.9300   43.5380 N   0  0  0  0  0  0  0  0  0  0  0  0
   36.8060   28.6950   43.5350 H   0  0  0  0  0  0  0  0  0  0  0  0
   35.8160   26.6980   42.6420 H   0  0  0  0  0  0  0  0  0  0  0  0
   40.6030   27.0800   43.5010 H   0  0  0  0  0  0  0  0  0  0  0  0
  1  4  1  6  0  0  0
  1 30  1  0  0  0  0
  2  1  1  0  0  0  0
  2  5  1  0  0  0  0
  3  7  1  6  0  0  0
  3  2  1  0  0  0  0
  3  1  1  0  0  0  0
  6  2  1  0  0  0  0
  8  3  1  0  0  0  0
  8 15  1  0  0  0  0
  9 11  1  0  0  0  0
  9  8  2  0  0  0  0
 10  9  1  0  0  0  0
 11 13  2  0  0  0  0
 12 11  1  0  0  0  0
 13 14  1  0  0  0  0
 14 17  1  0  0  0  0
 15 14  2  0  0  0  0
 15 16  1  0  0  0  0
 18 17  1  0  0  0  0
 18 19  1  0  0  0  0
 19 20  1  0  0  0  0
 21 19  2  0  0  0  0
 21 22  1  0  0  0  0
 23 21  1  0  0  0  0
 24 23  1  0  0  0  0
 25 27  1  0  0  0  0
 25 23  2  0  0  0  0
 26 25  1  0  0  0  0
 27 18  2  0  0  0  0
 28 13  1  0  0  0  0
 28 27  1  0  0  0  0
 29 28  1  0  0  0  0
 30 32  1  0  0  0  0
 30 31  1  0  0  0  0
 30 33  1  0  0  0  0
 33 38  1  0  0  0  0
 33 34  1  0  0  0  0
 35 33  1  0  0  0  0
 36 42  1  0  0  0  0
 36 41  1  0  0  0  0
 37 36  2  0  0  0  0
 38 37  1  0  0  0  0
 38 39  2  0  0  0  0
 39 40  1  0  0  0  0
 40 44  1  0  0  0  0
 40 41  2  0  0  0  0
 43 37  1  0  0  0  0
M  END
>  <minimizedAffinity>
-5.7439642

$$$$

 OpenBabel03252502453D

 44 48  0  0  1  0  0  0  0  0999 V2000
   35.8500   28.5640   40.9820 C   0  0  1  0  0  0  0  0  0  0  0  0
   35.4460   29.9170   40.6620 C   0  0  0  0  0  0  0  0  0  0  0  0
   36.5130   29.1320   39.9070 C   0  0  1  0  0  0  0  0  0  0  0  0
   35.0010   27.8260   40.8770 H   0  0  0  0  0  0  0  0  0  0  0  0
   35.7270   30.8170   41.2010 H   0  0  0  0  0  0  0  0  0  0  0  0
   34.5360   30.1100   40.0180 H   0  0  0  0  0  0  0  0  0  0  0  0
   36.2000   28.5350   38.9810 H   0  0  0  0  0  0  0  0  0  0  0  0
   37.4390   29.9950   39.2740 C   0  0  0  0  0  0  0  0  0  0  0  0
   37.1730   30.7110   38.0930 C   0  0  0  0  0  0  0  0  0  0  0  0
   36.2060   30.5770   37.6260 H   0  0  0  0  0  0  0  0  0  0  0  0
   38.1400   31.5420   37.5830 C   0  0  0  0  0  0  0  0  0  0  0  0
   37.8300   32.0520   36.6600 H   0  0  0  0  0  0  0  0  0  0  0  0
   39.3570   31.6770   38.2150 C   0  0  0  0  0  0  0  0  0  0  0  0
   39.6790   31.0200   39.3510 C   0  0  0  0  0  0  0  0  0  0  0  0
   38.7120   30.2090   39.8320 C   0  0  0  0  0  0  0  0  0  0  0  0
   38.9290   29.6560   40.7530 H   0  0  0  0  0  0  0  0  0  0  0  0
   41.2590   31.2470   40.1000 S   0  0  0  0  0  0  0  0  0  0  0  0
   42.1270   32.4140   39.0600 C   0  0  0  0  0  0  0  0  0  0  0  0
   43.3840   32.7110   39.4960 C   0  0  0  0  0  0  0  0  0  0  0  0
   43.8530   32.3110   40.3720 H   0  0  0  0  0  0  0  0  0  0  0  0
   44.1420   33.6120   38.7510 C   0  0  0  0  0  0  0  0  0  0  0  0
   45.1450   33.9110   39.0110 H   0  0  0  0  0  0  0  0  0  0  0  0
   43.5940   34.1610   37.6130 C   0  0  0  0  0  0  0  0  0  0  0  0
   44.1680   34.8620   37.0220 H   0  0  0  0  0  0  0  0  0  0  0  0
   42.3290   33.7970   37.2660 C   0  0  0  0  0  0  0  0  0  0  0  0
   41.9420   34.2670   36.3460 H   0  0  0  0  0  0  0  0  0  0  0  0
   41.5060   32.9150   37.9400 C   0  0  0  0  0  0  0  0  0  0  0  0
   40.2050   32.5760   37.5340 N   0  0  0  0  0  0  0  0  0  0  0  0
   39.9440   33.0890   36.6390 H   0  0  0  0  0  0  0  0  0  0  0  0
   36.5300   28.2710   42.2920 C   0  0  0  0  0  0  0  0  0  0  0  0
   37.3900   29.0020   42.3320 H   0  0  0  0  0  0  0  0  0  0  0  0
   35.8910   28.4310   43.1610 H   0  0  0  0  0  0  0  0  0  0  0  0
   37.0170   26.8670   42.1250 C   0  0  0  0  0  0  0  0  0  0  0  0
   37.0480   26.6330   41.0460 H   0  0  0  0  0  0  0  0  0  0  0  0
   36.5110   26.1310   42.7540 H   0  0  0  0  0  0  0  0  0  0  0  0
   40.6840   26.5520   41.3890 C   0  0  0  0  0  0  0  0  0  0  0  0
   39.2820   26.6080   41.1990 C   0  0  0  0  0  0  0  0  0  0  0  0
   38.4990   26.8460   42.2920 C   0  0  0  0  0  0  0  0  0  0  0  0
   39.0850   27.0240   43.5120 N   0  0  0  0  0  0  0  0  0  0  0  0
   40.3950   26.9680   43.6710 C   0  0  0  0  0  0  0  0  0  0  0  0
   41.1980   26.7350   42.6290 N   0  0  0  0  0  0  0  0  0  0  0  0
   41.3910   26.3680   40.5930 H   0  0  0  0  0  0  0  0  0  0  0  0
   39.0300   26.4570   40.1640 H   0  0  0  0  0  0  0  0  0  0  0  0
   40.8980   27.1030   44.6230 H   0  0  0  0  0  0  0  0  0  0  0  0
  1  4  1  6  0  0  0
  1 30  1  0  0  0  0
  2  1  1  0  0  0  0
  2  5  1  0  0  0  0
  3  7  1  6  0  0  0
  3  2  1  0  0  0  0
  3  1  1  0  0  0  0
  6  2  1  0  0  0  0
  8 15  1  0  0  0  0
  8  3  1  0  0  0  0
  9  8  2  0  0  0  0
 10  9  1  0  0  0  0
 11  9  1  0  0  0  0
 11 13  2  0  0  0  0
 12 11  1  0  0  0  0
 13 14  1  0  0  0  0
 14 15  2  0  0  0  0
 14 17  1  0  0  0  0
 15 16  1  0  0  0  0
 18 19  1  0  0  0  0
 18 17  1  0  0  0  0
 19 20  1  0  0  0  0
 21 22  1  0  0  0  0
 21 19  2  0  0  0  0
 23 21  1  0  0  0  0
 24 23  1  0  0  0  0
 25 23  2  0  0  0  0
 25 27  1  0  0  0  0
 26 25  1  0  0  0  0
 27 18  2  0  0  0  0
 28 27  1  0  0  0  0
 28 13  1  0  0  0  0
 29 28  1  0  0  0  0
 30 31  1  0  0  0  0
 30 32  1  0  0  0  0
 33 38  1  0  0  0  0
 33 30  1  0  0  0  0
 33 35  1  0  0  0  0
 34 33  1  0  0  0  0
 36 41  1  0  0  0  0
 37 36  2  0  0  0  0
 37 38  1  0  0  0  0
 38 39  2  0  0  0  0
 39 40  1  0  0  0  0
 40 44  1  0  0  0  0
 41 40  2  0  0  0  0
 42 36  1  0  0  0  0
 43 37  1  0  0  0  0
M  END
>  <minimizedAffinity>
-5.61811924

$$$$

 OpenBabel03252502453D

 44 48  0  0  1  0  0  0  0  0999 V2000
   37.4150   33.3760   39.6390 C   0  0  1  0  0  0  0  0  0  0  0  0
   37.7190   32.4130   38.6020 C   0  0  0  0  0  0  0  0  0  0  0  0
   36.9270   32.1010   39.8670 C   0  0  1  0  0  0  0  0  0  0  0  0
   36.7830   34.2310   39.2580 H   0  0  0  0  0  0  0  0  0  0  0  0
   38.6760   31.9240   38.4380 H   0  0  0  0  0  0  0  0  0  0  0  0
   37.0740   32.3380   37.6760 H   0  0  0  0  0  0  0  0  0  0  0  0
   35.7840   32.1800   39.8300 H   0  0  0  0  0  0  0  0  0  0  0  0
   37.0120   30.7290   40.2070 C   0  0  0  0  0  0  0  0  0  0  0  0
   37.4870   30.2480   41.4390 C   0  0  0  0  0  0  0  0  0  0  0  0
   37.8290   30.9710   42.1680 H   0  0  0  0  0  0  0  0  0  0  0  0
   37.4990   28.8940   41.6680 C   0  0  0  0  0  0  0  0  0  0  0  0
   37.8880   28.6260   42.6600 H   0  0  0  0  0  0  0  0  0  0  0  0
   37.0540   28.0130   40.7060 C   0  0  0  0  0  0  0  0  0  0  0  0
   36.5860   28.4060   39.5020 C   0  0  0  0  0  0  0  0  0  0  0  0
   36.5840   29.7420   39.3010 C   0  0  0  0  0  0  0  0  0  0  0  0
   36.2130   30.1070   38.3370 H   0  0  0  0  0  0  0  0  0  0  0  0
   36.0340   27.2170   38.3230 S   0  0  0  0  0  0  0  0  0  0  0  0
   36.2530   25.6230   39.1020 C   0  0  0  0  0  0  0  0  0  0  0  0
   35.8700   24.5710   38.3240 C   0  0  0  0  0  0  0  0  0  0  0  0
   35.4700   24.6420   37.3320 H   0  0  0  0  0  0  0  0  0  0  0  0
   36.0020   23.2860   38.8430 C   0  0  0  0  0  0  0  0  0  0  0  0
   35.7300   22.3910   38.3070 H   0  0  0  0  0  0  0  0  0  0  0  0
   36.5120   23.1310   40.1140 C   0  0  0  0  0  0  0  0  0  0  0  0
   36.6220   22.1390   40.5330 H   0  0  0  0  0  0  0  0  0  0  0  0
   36.8640   24.2470   40.8070 C   0  0  0  0  0  0  0  0  0  0  0  0
   37.2650   24.0630   41.8180 H   0  0  0  0  0  0  0  0  0  0  0  0
   36.7690   25.5570   40.3760 C   0  0  0  0  0  0  0  0  0  0  0  0
   37.1480   26.6730   41.1380 N   0  0  0  0  0  0  0  0  0  0  0  0
   37.5180   26.3720   42.0890 H   0  0  0  0  0  0  0  0  0  0  0  0
   38.5250   33.9780   40.4570 C   0  0  0  0  0  0  0  0  0  0  0  0
   38.2830   35.0810   40.4920 H   0  0  0  0  0  0  0  0  0  0  0  0
   38.5720   33.5960   41.4770 H   0  0  0  0  0  0  0  0  0  0  0  0
   39.7470   33.7150   39.6360 C   0  0  0  0  0  0  0  0  0  0  0  0
   40.2300   34.6810   39.4080 H   0  0  0  0  0  0  0  0  0  0  0  0
   39.5870   33.0540   38.7810 H   0  0  0  0  0  0  0  0  0  0  0  0
   41.7450   31.6260   42.0300 C   0  0  0  0  0  0  0  0  0  0  0  0
   40.7120   32.0330   41.1500 C   0  0  0  0  0  0  0  0  0  0  0  0
   40.8410   33.2450   40.5330 C   0  0  0  0  0  0  0  0  0  0  0  0
   41.9450   34.0090   40.7780 N   0  0  0  0  0  0  0  0  0  0  0  0
   42.8990   33.6140   41.6020 C   0  0  0  0  0  0  0  0  0  0  0  0
   42.8120   32.4360   42.2280 N   0  0  0  0  0  0  0  0  0  0  0  0
   41.7400   30.6900   42.5670 H   0  0  0  0  0  0  0  0  0  0  0  0
   39.9450   31.2820   41.0880 H   0  0  0  0  0  0  0  0  0  0  0  0
   43.7900   34.1920   41.8220 H   0  0  0  0  0  0  0  0  0  0  0  0
  1  4  1  6  0  0  0
  1  3  1  0  0  0  0
  1 30  1  0  0  0  0
  2  1  1  0  0  0  0
  2  3  1  0  0  0  0
  3  7  1  6  0  0  0
  3  8  1  0  0  0  0
  5  2  1  0  0  0  0
  6  2  1  0  0  0  0
  8  9  1  0  0  0  0
  9 11  2  0  0  0  0
  9 10  1  0  0  0  0
 11 12  1  0  0  0  0
 13 28  1  0  0  0  0
 13 11  1  0  0  0  0
 14 13  2  0  0  0  0
 15 14  1  0  0  0  0
 15  8  2  0  0  0  0
 16 15  1  0  0  0  0
 17 18  1  0  0  0  0
 17 14  1  0  0  0  0
 18 27  1  0  0  0  0
 19 21  1  0  0  0  0
 19 18  2  0  0  0  0
 20 19  1  0  0  0  0
 21 23  2  0  0  0  0
 22 21  1  0  0  0  0
 23 24  1  0  0  0  0
 23 25  1  0  0  0  0
 25 26  1  0  0  0  0
 27 25  2  0  0  0  0
 27 28  1  0  0  0  0
 28 29  1  0  0  0  0
 30 31  1  0  0  0  0
 30 32  1  0  0  0  0
 33 30  1  0  0  0  0
 33 38  1  0  0  0  0
 34 33  1  0  0  0  0
 35 33  1  0  0  0  0
 36 41  1  0  0  0  0
 36 42  1  0  0  0  0
 37 36  2  0  0  0  0
 38 39  2  0  0  0  0
 38 37  1  0  0  0  0
 39 40  1  0  0  0  0
 40 44  1  0  0  0  0
 40 41  2  0  0  0  0
 43 37  1  0  0  0  0
M  END
>  <minimizedAffinity>
-5.58417177

$$$$

 OpenBabel03252502453D

 44 48  0  0  1  0  0  0  0  0999 V2000
   32.9180   28.4500   36.8900 C   0  0  1  0  0  0  0  0  0  0  0  0
   34.2960   28.1960   36.5280 C   0  0  0  0  0  0  0  0  0  0  0  0
   33.8260   28.5710   37.9290 C   0  0  1  0  0  0  0  0  0  0  0  0
   32.2590   27.5460   36.7350 H   0  0  0  0  0  0  0  0  0  0  0  0
   34.9540   28.8710   35.9880 H   0  0  0  0  0  0  0  0  0  0  0  0
   34.6980   27.1390   36.4910 H   0  0  0  0  0  0  0  0  0  0  0  0
   33.5860   27.7300   38.6690 H   0  0  0  0  0  0  0  0  0  0  0  0
   34.8580   29.1910   38.6730 C   0  0  0  0  0  0  0  0  0  0  0  0
   34.9490   29.1610   40.0760 C   0  0  0  0  0  0  0  0  0  0  0  0
   34.1690   28.6500   40.6240 H   0  0  0  0  0  0  0  0  0  0  0  0
   36.0130   29.7760   40.6900 C   0  0  0  0  0  0  0  0  0  0  0  0
   35.9880   29.6930   41.7850 H   0  0  0  0  0  0  0  0  0  0  0  0
   36.9810   30.4160   39.9460 C   0  0  0  0  0  0  0  0  0  0  0  0
   36.9560   30.4830   38.5970 C   0  0  0  0  0  0  0  0  0  0  0  0
   35.9000   29.8710   38.0180 C   0  0  0  0  0  0  0  0  0  0  0  0
   35.8370   29.9000   36.9240 H   0  0  0  0  0  0  0  0  0  0  0  0
   38.2330   31.3210   37.7180 S   0  0  0  0  0  0  0  0  0  0  0  0
   39.3610   31.9320   38.9630 C   0  0  0  0  0  0  0  0  0  0  0  0
   40.4260   32.6150   38.4550 C   0  0  0  0  0  0  0  0  0  0  0  0
   40.6140   32.7940   37.4150 H   0  0  0  0  0  0  0  0  0  0  0  0
   41.3620   33.1310   39.3470 C   0  0  0  0  0  0  0  0  0  0  0  0
   42.2360   33.6860   39.0460 H   0  0  0  0  0  0  0  0  0  0  0  0
   41.1740   32.9330   40.6980 C   0  0  0  0  0  0  0  0  0  0  0  0
   41.8910   33.3280   41.4060 H   0  0  0  0  0  0  0  0  0  0  0  0
   40.0760   32.2370   41.1000 C   0  0  0  0  0  0  0  0  0  0  0  0
   39.9770   32.1090   42.1910 H   0  0  0  0  0  0  0  0  0  0  0  0
   39.0980   31.6900   40.2910 C   0  0  0  0  0  0  0  0  0  0  0  0
   37.9840   30.9780   40.7640 N   0  0  0  0  0  0  0  0  0  0  0  0
   37.9960   30.9210   41.8270 H   0  0  0  0  0  0  0  0  0  0  0  0
   32.1910   29.6320   36.3070 C   0  0  0  0  0  0  0  0  0  0  0  0
   31.1170   29.4860   36.6250 H   0  0  0  0  0  0  0  0  0  0  0  0
   32.5440   30.5910   36.6850 H   0  0  0  0  0  0  0  0  0  0  0  0
   32.3500   29.4460   34.8320 C   0  0  0  0  0  0  0  0  0  0  0  0
   31.8080   28.5320   34.5330 H   0  0  0  0  0  0  0  0  0  0  0  0
   33.3780   29.5230   34.4710 H   0  0  0  0  0  0  0  0  0  0  0  0
   30.4510   32.5320   33.8520 C   0  0  0  0  0  0  0  0  0  0  0  0
   31.3720   31.6800   34.5110 C   0  0  0  0  0  0  0  0  0  0  0  0
   31.4200   30.3710   34.1240 C   0  0  0  0  0  0  0  0  0  0  0  0
   30.5940   29.9350   33.1290 N   0  0  0  0  0  0  0  0  0  0  0  0
   29.7400   30.7420   32.5250 C   0  0  0  0  0  0  0  0  0  0  0  0
   29.6590   32.0300   32.8740 N   0  0  0  0  0  0  0  0  0  0  0  0
   30.3330   33.5800   34.0820 H   0  0  0  0  0  0  0  0  0  0  0  0
   31.9340   32.2250   35.2490 H   0  0  0  0  0  0  0  0  0  0  0  0
   29.0680   30.4330   31.7320 H   0  0  0  0  0  0  0  0  0  0  0  0
  1  4  1  1  0  0  0
  1  3  1  0  0  0  0
  2  1  1  0  0  0  0
  2  3  1  0  0  0  0
  3  7  1  1  0  0  0
  3  8  1  0  0  0  0
  5  2  1  0  0  0  0
  6  2  1  0  0  0  0
  8  9  1  0  0  0  0
  9 10  1  0  0  0  0
  9 11  2  0  0  0  0
 11 12  1  0  0  0  0
 13 11  1  0  0  0  0
 13 28  1  0  0  0  0
 14 13  2  0  0  0  0
 15 14  1  0  0  0  0
 15  8  2  0  0  0  0
 16 15  1  0  0  0  0
 17 14  1  0  0  0  0
 17 18  1  0  0  0  0
 18 27  1  0  0  0  0
 19 18  2  0  0  0  0
 19 21  1  0  0  0  0
 20 19  1  0  0  0  0
 21 23  2  0  0  0  0
 22 21  1  0  0  0  0
 23 25  1  0  0  0  0
 23 24  1  0  0  0  0
 25 26  1  0  0  0  0
 27 28  1  0  0  0  0
 27 25  2  0  0  0  0
 28 29  1  0  0  0  0
 30 31  1  0  0  0  0
 30 32  1  0  0  0  0
 30  1  1  0  0  0  0
 33 30  1  0  0  0  0
 34 33  1  0  0  0  0
 35 33  1  0  0  0  0
 36 42  1  0  0  0  0
 36 37  1  0  0  0  0
 37 43  1  0  0  0  0
 38 37  2  0  0  0  0
 38 33  1  0  0  0  0
 39 38  1  0  0  0  0
 40 41  1  0  0  0  0
 40 39  2  0  0  0  0
 41 36  2  0  0  0  0
 44 40  1  0  0  0  0
M  END
>  <minimizedAffinity>
-5.57782507

$$$$

 OpenBabel03252502453D

 44 48  0  0  1  0  0  0  0  0999 V2000
   36.6610   23.9430   41.2390 C   0  0  1  0  0  0  0  0  0  0  0  0
   38.0880   24.1850   41.2410 C   0  0  0  0  0  0  0  0  0  0  0  0
   37.0510   25.1260   41.8460 C   0  0  1  0  0  0  0  0  0  0  0  0
   36.3830   23.0080   41.8090 H   0  0  0  0  0  0  0  0  0  0  0  0
   38.6840   24.5210   40.3960 H   0  0  0  0  0  0  0  0  0  0  0  0
   38.7500   23.7270   42.0350 H   0  0  0  0  0  0  0  0  0  0  0  0
   36.7990   25.0190   42.9580 H   0  0  0  0  0  0  0  0  0  0  0  0
   37.5230   26.4590   41.8850 C   0  0  0  0  0  0  0  0  0  0  0  0
   38.5620   26.9060   42.7200 C   0  0  0  0  0  0  0  0  0  0  0  0
   39.0160   26.1900   43.3920 H   0  0  0  0  0  0  0  0  0  0  0  0
   38.9560   28.2210   42.6520 C   0  0  0  0  0  0  0  0  0  0  0  0
   39.7730   28.4640   43.3450 H   0  0  0  0  0  0  0  0  0  0  0  0
   38.3440   29.0950   41.7800 C   0  0  0  0  0  0  0  0  0  0  0  0
   37.3410   28.7330   40.9510 C   0  0  0  0  0  0  0  0  0  0  0  0
   36.9720   27.4360   41.0360 C   0  0  0  0  0  0  0  0  0  0  0  0
   36.1610   27.0980   40.3810 H   0  0  0  0  0  0  0  0  0  0  0  0
   36.6090   29.9110   39.8620 S   0  0  0  0  0  0  0  0  0  0  0  0
   37.4720   31.4490   40.1590 C   0  0  0  0  0  0  0  0  0  0  0  0
   37.0310   32.4860   39.3920 C   0  0  0  0  0  0  0  0  0  0  0  0
   36.2460   32.4350   38.6650 H   0  0  0  0  0  0  0  0  0  0  0  0
   37.6420   33.7270   39.5510 C   0  0  0  0  0  0  0  0  0  0  0  0
   37.3650   34.6080   38.9930 H   0  0  0  0  0  0  0  0  0  0  0  0
   38.6580   33.8560   40.4720 C   0  0  0  0  0  0  0  0  0  0  0  0
   39.1440   34.8140   40.6090 H   0  0  0  0  0  0  0  0  0  0  0  0
   39.0220   32.7570   41.1870 C   0  0  0  0  0  0  0  0  0  0  0  0
   39.8410   32.9190   41.9090 H   0  0  0  0  0  0  0  0  0  0  0  0
   38.4770   31.4910   41.0980 C   0  0  0  0  0  0  0  0  0  0  0  0
   38.8940   30.3910   41.8640 N   0  0  0  0  0  0  0  0  0  0  0  0
   39.6850   30.6680   42.5210 H   0  0  0  0  0  0  0  0  0  0  0  0
   35.9030   23.9100   39.9390 C   0  0  0  0  0  0  0  0  0  0  0  0
   35.5640   22.8380   39.8380 H   0  0  0  0  0  0  0  0  0  0  0  0
   35.0270   24.5590   39.9290 H   0  0  0  0  0  0  0  0  0  0  0  0
   36.9430   24.2500   38.9210 C   0  0  0  0  0  0  0  0  0  0  0  0
   37.1950   23.3340   38.3580 H   0  0  0  0  0  0  0  0  0  0  0  0
   37.7950   24.8140   39.3090 H   0  0  0  0  0  0  0  0  0  0  0  0
   35.0270   26.7300   36.8550 C   0  0  0  0  0  0  0  0  0  0  0  0
   35.6810   26.1300   37.9590 C   0  0  0  0  0  0  0  0  0  0  0  0
   36.2860   24.9220   37.7630 C   0  0  0  0  0  0  0  0  0  0  0  0
   36.2430   24.3430   36.5280 N   0  0  0  0  0  0  0  0  0  0  0  0
   35.6290   24.9160   35.5080 C   0  0  0  0  0  0  0  0  0  0  0  0
   35.0230   26.0980   35.6570 N   0  0  0  0  0  0  0  0  0  0  0  0
   34.5180   27.6810   36.9030 H   0  0  0  0  0  0  0  0  0  0  0  0
   35.6080   26.7560   38.8320 H   0  0  0  0  0  0  0  0  0  0  0  0
   35.5740   24.4880   34.5130 H   0  0  0  0  0  0  0  0  0  0  0  0
  1  2  1  0  0  0  0
  1  4  1  1  0  0  0
  1  3  1  0  0  0  0
  2  3  1  0  0  0  0
  2  6  1  0  0  0  0
  3  8  1  0  0  0  0
  3  7  1  1  0  0  0
  5  2  1  0  0  0  0
  8  9  1  0  0  0  0
  9 10  1  0  0  0  0
 11  9  2  0  0  0  0
 11 12  1  0  0  0  0
 13 28  1  0  0  0  0
 13 11  1  0  0  0  0
 14 15  1  0  0  0  0
 14 13  2  0  0  0  0
 15  8  2  0  0  0  0
 16 15  1  0  0  0  0
 17 18  1  0  0  0  0
 17 14  1  0  0  0  0
 18 27  1  0  0  0  0
 19 21  1  0  0  0  0
 19 18  2  0  0  0  0
 20 19  1  0  0  0  0
 21 23  2  0  0  0  0
 22 21  1  0  0  0  0
 23 24  1  0  0  0  0
 23 25  1  0  0  0  0
 25 26  1  0  0  0  0
 27 25  2  0  0  0  0
 27 28  1  0  0  0  0
 28 29  1  0  0  0  0
 30  1  1  0  0  0  0
 31 30  1  0  0  0  0
 32 30  1  0  0  0  0
 33 35  1  0  0  0  0
 33 30  1  0  0  0  0
 34 33  1  0  0  0  0
 36 42  1  0  0  0  0
 36 37  1  0  0  0  0
 37 43  1  0  0  0  0
 38 37  2  0  0  0  0
 38 33  1  0  0  0  0
 39 38  1  0  0  0  0
 40 41  1  0  0  0  0
 40 39  2  0  0  0  0
 41 36  2  0  0  0  0
 44 40  1  0  0  0  0
M  END
>  <minimizedAffinity>
-5.56286383

$$$$

 OpenBabel03252502453D

 44 48  0  0  1  0  0  0  0  0999 V2000
   38.0380   27.7620   43.3160 C   0  0  1  0  0  0  0  0  0  0  0  0
   36.7560   27.0900   43.3090 C   0  0  0  0  0  0  0  0  0  0  0  0
   37.7710   27.0260   42.1730 C   0  0  1  0  0  0  0  0  0  0  0  0
   38.7070   27.4030   44.1510 H   0  0  0  0  0  0  0  0  0  0  0  0
   35.7880   27.5510   43.1340 H   0  0  0  0  0  0  0  0  0  0  0  0
   36.6290   26.0850   43.8130 H   0  0  0  0  0  0  0  0  0  0  0  0
   38.5250   26.1630   42.1610 H   0  0  0  0  0  0  0  0  0  0  0  0
   37.1450   26.7500   40.9340 C   0  0  0  0  0  0  0  0  0  0  0  0
   37.1360   25.4870   40.3160 C   0  0  0  0  0  0  0  0  0  0  0  0
   37.6600   24.6790   40.8080 H   0  0  0  0  0  0  0  0  0  0  0  0
   36.4710   25.3310   39.1250 C   0  0  0  0  0  0  0  0  0  0  0  0
   36.5270   24.3080   38.7290 H   0  0  0  0  0  0  0  0  0  0  0  0
   35.8200   26.3940   38.5370 C   0  0  0  0  0  0  0  0  0  0  0  0
   35.7880   27.6330   39.0750 C   0  0  0  0  0  0  0  0  0  0  0  0
   36.4490   27.7610   40.2460 C   0  0  0  0  0  0  0  0  0  0  0  0
   36.4510   28.7490   40.7200 H   0  0  0  0  0  0  0  0  0  0  0  0
   34.9320   28.9410   38.2620 S   0  0  0  0  0  0  0  0  0  0  0  0
   34.2470   28.2240   36.7740 C   0  0  0  0  0  0  0  0  0  0  0  0
   33.5400   29.1050   36.0120 C   0  0  0  0  0  0  0  0  0  0  0  0
   33.3810   30.1400   36.2390 H   0  0  0  0  0  0  0  0  0  0  0  0
   32.9670   28.6400   34.8310 C   0  0  0  0  0  0  0  0  0  0  0  0
   32.3910   29.2570   34.1600 H   0  0  0  0  0  0  0  0  0  0  0  0
   33.1360   27.3170   34.4840 C   0  0  0  0  0  0  0  0  0  0  0  0
   32.6980   26.9390   33.5700 H   0  0  0  0  0  0  0  0  0  0  0  0
   33.8600   26.5210   35.3170 C   0  0  0  0  0  0  0  0  0  0  0  0
   33.9630   25.4730   34.9890 H   0  0  0  0  0  0  0  0  0  0  0  0
   34.4640   26.8920   36.5040 C   0  0  0  0  0  0  0  0  0  0  0  0
   35.2010   26.0240   37.3250 N   0  0  0  0  0  0  0  0  0  0  0  0
   35.2310   25.0460   36.9070 H   0  0  0  0  0  0  0  0  0  0  0  0
   38.1000   29.2660   43.3150 C   0  0  0  0  0  0  0  0  0  0  0  0
   37.0780   29.5890   42.9570 H   0  0  0  0  0  0  0  0  0  0  0  0
   38.2800   29.6950   44.3010 H   0  0  0  0  0  0  0  0  0  0  0  0
   39.1530   29.5710   42.2990 C   0  0  0  0  0  0  0  0  0  0  0  0
   39.0150   28.8940   41.4370 H   0  0  0  0  0  0  0  0  0  0  0  0
   40.1690   29.6260   42.6970 H   0  0  0  0  0  0  0  0  0  0  0  0
   39.2380   33.0050   40.7850 C   0  0  0  0  0  0  0  0  0  0  0  0
   39.6480   31.8330   41.4670 C   0  0  0  0  0  0  0  0  0  0  0  0
   38.7610   30.7980   41.5490 C   0  0  0  0  0  0  0  0  0  0  0  0
   37.5290   30.9250   40.9760 N   0  0  0  0  0  0  0  0  0  0  0  0
   37.1620   32.0250   40.3430 C   0  0  0  0  0  0  0  0  0  0  0  0
   37.9990   33.0620   40.2420 N   0  0  0  0  0  0  0  0  0  0  0  0
   39.8620   33.8780   40.6650 H   0  0  0  0  0  0  0  0  0  0  0  0
   40.6570   31.9350   41.8290 H   0  0  0  0  0  0  0  0  0  0  0  0
   36.1930   32.1640   39.8770 H   0  0  0  0  0  0  0  0  0  0  0  0
  1  4  1  1  0  0  0
  2  1  1  0  0  0  0
  2  6  1  0  0  0  0
  3  7  1  1  0  0  0
  3  2  1  0  0  0  0
  3  1  1  0  0  0  0
  5  2  1  0  0  0  0
  8  3  1  0  0  0  0
  9 10  1  0  0  0  0
  9  8  1  0  0  0  0
 11  9  2  0  0  0  0
 12 11  1  0  0  0  0
 13 14  2  0  0  0  0
 13 11  1  0  0  0  0
 14 15  1  0  0  0  0
 15 16  1  0  0  0  0
 15  8  2  0  0  0  0
 17 14  1  0  0  0  0
 18 17  1  0  0  0  0
 19 20  1  0  0  0  0
 19 18  2  0  0  0  0
 21 19  1  0  0  0  0
 22 21  1  0  0  0  0
 23 21  2  0  0  0  0
 23 25  1  0  0  0  0
 24 23  1  0  0  0  0
 25 27  2  0  0  0  0
 26 25  1  0  0  0  0
 27 18  1  0  0  0  0
 27 28  1  0  0  0  0
 28 13  1  0  0  0  0
 29 28  1  0  0  0  0
 30  1  1  0  0  0  0
 30 32  1  0  0  0  0
 31 30  1  0  0  0  0
 33 35  1  0  0  0  0
 33 30  1  0  0  0  0
 34 33  1  0  0  0  0
 36 37  1  0  0  0  0
 37 38  2  0  0  0  0
 37 43  1  0  0  0  0
 38 33  1  0  0  0  0
 39 38  1  0  0  0  0
 40 39  2  0  0  0  0
 41 40  1  0  0  0  0
 41 36  2  0  0  0  0
 42 36  1  0  0  0  0
 44 40  1  0  0  0  0
M  END
>  <minimizedAffinity>
-5.49166775

$$$$
