REMARK  Name = 
REMARK  3 active torsions:
REMARK  status: ('A' for Active; 'I' for Inactive)
REMARK    1  A    between atoms: C_3  and  C_7
REMARK    2  A    between atoms: C_5  and  C_11
REMARK    3  A    between atoms: C_11  and  C_15
REMARK                            x       y       z     vdW  Elec       q    Type
REMARK                         _______ _______ _______ _____ _____    ______ ____
ROOT
ATOM      1  C   UNL     1      46.873  32.147  46.547  0.00  0.00    +0.000 A 
ATOM      2  C   UNL     1      47.654  31.794  45.469  0.00  0.00    +0.000 A 
ATOM      3  H   UNL     1      47.552  32.230  44.489  0.00  0.00    +0.000 HD
ATOM      4  C   UNL     1      48.659  30.844  45.548  0.00  0.00    +0.000 A 
ATOM      5  H   UNL     1      49.251  30.599  44.650  0.00  0.00    +0.000 HD
ATOM      6  C   UNL     1      48.946  30.179  46.736  0.00  0.00    +0.000 A 
ATOM      7  C   UNL     1      48.151  30.552  47.794  0.00  0.00    +0.000 A 
ATOM      8  C   UNL     1      47.175  31.476  47.711  0.00  0.00    +0.000 A 
ATOM      9  H   UNL     1      46.560  31.737  48.586  0.00  0.00    +0.000 HD
ATOM     10  S   UNL     1      48.420  29.773  49.375  0.00  0.00    +0.000 S 
ATOM     11  C   UNL     1      49.779  28.649  49.130  0.00  0.00    +0.000 A 
ATOM     12  C   UNL     1      50.183  27.949  50.220  0.00  0.00    +0.000 A 
ATOM     13  H   UNL     1      49.711  28.061  51.190  0.00  0.00    +0.000 HD
ATOM     14  C   UNL     1      51.243  27.064  50.045  0.00  0.00    +0.000 A 
ATOM     15  H   UNL     1      51.586  26.491  50.889  0.00  0.00    +0.000 HD
ATOM     16  C   UNL     1      51.885  26.876  48.832  0.00  0.00    +0.000 A 
ATOM     17  H   UNL     1      52.698  26.192  48.698  0.00  0.00    +0.000 HD
ATOM     18  C   UNL     1      51.403  27.637  47.770  0.00  0.00    +0.000 A 
ATOM     19  H   UNL     1      51.926  27.471  46.816  0.00  0.00    +0.000 HD
ATOM     20  C   UNL     1      50.357  28.525  47.896  0.00  0.00    +0.000 A 
ATOM     21  N   UNL     1      49.985  29.233  46.753  0.00  0.00    +0.000 N 
ATOM     22  H   UNL     1      50.495  29.063  45.859  0.00  0.00    +0.000 HD
ENDROOT
BRANCH   1  23
ATOM     23  C   UNL     1      45.825  33.151  46.449  0.00  0.00    +0.000 C 
ATOM     24  O   UNL     1      45.030  33.186  47.433  0.00  0.00    +0.000 OA
BRANCH  23  29
ATOM     25  C   UNL     1      44.598  35.929  44.425  0.00  0.00    +0.000 A 
ATOM     26  C   UNL     1      45.332  35.856  43.221  0.00  0.00    +0.000 A 
ATOM     27  C   UNL     1      46.250  34.819  43.142  0.00  0.00    +0.000 A 
ATOM     28  N   UNL     1      46.349  34.002  44.195  0.00  0.00    +0.000 NA
ATOM     29  C   UNL     1      45.660  34.064  45.335  0.00  0.00    +0.000 A 
ATOM     30  N   UNL     1      44.758  35.065  45.439  0.00  0.00    +0.000 NA
ATOM     31  H   UNL     1      43.875  36.733  44.513  0.00  0.00    +0.000 HD
ATOM     32  H   UNL     1      45.213  36.542  42.409  0.00  0.00    +0.000 HD
BRANCH  27  33
ATOM     33  C   UNL     1      47.032  34.721  41.903  0.00  0.00    +0.000 C 
ATOM     34  F   UNL     1      47.845  33.601  41.946  0.00  0.00    +0.000 F 
ATOM     35  F   UNL     1      47.907  35.821  41.910  0.00  0.00    +0.000 F 
ATOM     36  F   UNL     1      46.269  34.684  40.784  0.00  0.00    +0.000 F 
ENDBRANCH  27  33
ENDBRANCH  23  29
ENDBRANCH   1  23
TORSDOF 3
