REMARK  Name = 
REMARK  4 active torsions:
REMARK  status: ('A' for Active; 'I' for Inactive)
REMARK    1  A    between atoms: C_3  and  C_7
REMARK    2  A    between atoms: C_7  and  C_8
REMARK    3  A    between atoms: C_8  and  C_9
REMARK    4  A    between atoms: C_11  and  C_23
REMARK                            x       y       z     vdW  Elec       q    Type
REMARK                         _______ _______ _______ _____ _____    ______ ____
ROOT
ATOM      1  C   UNL     1      48.831  34.939  41.410  0.00  0.00    +0.000 C 
ATOM      2  C   UNL     1      49.716  35.136  42.538  0.00  0.00    +0.000 C 
ATOM      3  C   UNL     1      49.551  33.818  41.789  0.00  0.00    +0.000 C 
ATOM      4  H   UNL     1      49.105  35.592  40.530  0.00  0.00    +0.000 HD
ATOM      5  H   UNL     1      49.423  35.196  43.583  0.00  0.00    +0.000 HD
ATOM      6  H   UNL     1      50.749  35.573  42.392  0.00  0.00    +0.000 HD
ATOM      7  H   UNL     1      50.268  33.586  40.926  0.00  0.00    +0.000 HD
ENDROOT
BRANCH   3   8
ATOM      8  C   UNL     1      49.876  32.712  42.610  0.00  0.00    +0.000 A 
ATOM      9  C   UNL     1      49.366  31.414  42.428  0.00  0.00    +0.000 A 
ATOM     10  H   UNL     1      48.663  31.255  41.620  0.00  0.00    +0.000 HD
ATOM     11  C   UNL     1      49.774  30.411  43.272  0.00  0.00    +0.000 A 
ATOM     12  H   UNL     1      49.316  29.439  43.042  0.00  0.00    +0.000 HD
ATOM     13  C   UNL     1      50.671  30.666  44.286  0.00  0.00    +0.000 A 
ATOM     14  C   UNL     1      51.200  31.887  44.519  0.00  0.00    +0.000 A 
ATOM     15  C   UNL     1      50.783  32.856  43.675  0.00  0.00    +0.000 A 
ATOM     16  H   UNL     1      51.187  33.864  43.826  0.00  0.00    +0.000 HD
ATOM     17  S   UNL     1      52.343  32.132  45.837  0.00  0.00    +0.000 S 
ATOM     18  C   UNL     1      52.537  30.535  46.617  0.00  0.00    +0.000 A 
ATOM     19  C   UNL     1      53.400  30.536  47.672  0.00  0.00    +0.000 A 
ATOM     20  H   UNL     1      53.936  31.388  48.039  0.00  0.00    +0.000 HD
ATOM     21  C   UNL     1      53.617  29.337  48.346  0.00  0.00    +0.000 A 
ATOM     22  H   UNL     1      54.279  29.235  49.191  0.00  0.00    +0.000 HD
ATOM     23  C   UNL     1      52.956  28.206  47.921  0.00  0.00    +0.000 A 
ATOM     24  H   UNL     1      53.113  27.265  48.433  0.00  0.00    +0.000 HD
ATOM     25  C   UNL     1      52.115  28.312  46.856  0.00  0.00    +0.000 A 
ATOM     26  H   UNL     1      51.614  27.376  46.560  0.00  0.00    +0.000 HD
ATOM     27  C   UNL     1      51.839  29.454  46.129  0.00  0.00    +0.000 A 
ATOM     28  N   UNL     1      50.959  29.505  45.035  0.00  0.00    +0.000 N 
ATOM     29  H   UNL     1      50.538  28.546  44.845  0.00  0.00    +0.000 HD
ENDBRANCH   3   8
BRANCH   1  30
ATOM     30  C   UNL     1      47.341  35.046  41.593  0.00  0.00    +0.000 C 
ATOM     31  H   UNL     1      47.192  36.039  42.110  0.00  0.00    +0.000 HD
ATOM     32  H   UNL     1      46.786  35.050  40.655  0.00  0.00    +0.000 HD
BRANCH  30  33
ATOM     33  C   UNL     1      47.019  33.905  42.504  0.00  0.00    +0.000 C 
ATOM     34  H   UNL     1      47.885  33.731  43.167  0.00  0.00    +0.000 HD
ATOM     35  H   UNL     1      46.623  33.019  42.003  0.00  0.00    +0.000 HD
BRANCH  33  38
ATOM     36  C   UNL     1      44.600  36.003  44.463  0.00  0.00    +0.000 A 
ATOM     37  C   UNL     1      45.405  35.534  43.396  0.00  0.00    +0.000 A 
ATOM     38  C   UNL     1      46.131  34.395  43.597  0.00  0.00    +0.000 A 
ATOM     39  N   UNL     1      46.055  33.755  44.800  0.00  0.00    +0.000 NA
ATOM     40  C   UNL     1      45.299  34.206  45.785  0.00  0.00    +0.000 A 
ATOM     41  N   UNL     1      44.574  35.318  45.631  0.00  0.00    +0.000 NA
ATOM     42  H   UNL     1      43.990  36.892  44.408  0.00  0.00    +0.000 HD
ATOM     43  H   UNL     1      45.310  36.174  42.536  0.00  0.00    +0.000 HD
ATOM     44  H   UNL     1      45.213  33.726  46.754  0.00  0.00    +0.000 HD
ENDBRANCH  33  38
ENDBRANCH  30  33
ENDBRANCH   1  30
TORSDOF 4
