REMARK  Name = 
REMARK  3 active torsions:
REMARK  status: ('A' for Active; 'I' for Inactive)
REMARK    1  A    between atoms: C_2  and  C_12
REMARK    2  A    between atoms: C_3  and  C_7
REMARK    3  A    between atoms: C_12  and  C_19
REMARK                            x       y       z     vdW  Elec       q    Type
REMARK                         _______ _______ _______ _____ _____    ______ ____
ROOT
ATOM      1  C   UNL     1      46.271  33.642  40.871  0.00  0.00    +0.000 A 
ATOM      2  C   UNL     1      45.056  33.978  40.310  0.00  0.00    +0.000 A 
ATOM      3  H   UNL     1      44.553  34.915  40.586  0.00  0.00    +0.000 HD
ATOM      4  C   UNL     1      44.402  33.191  39.402  0.00  0.00    +0.000 A 
ATOM      5  H   UNL     1      43.458  33.497  38.999  0.00  0.00    +0.000 HD
ATOM      6  C   UNL     1      45.006  31.981  39.029  0.00  0.00    +0.000 A 
ATOM      7  C   UNL     1      46.218  31.643  39.584  0.00  0.00    +0.000 A 
ATOM      8  C   UNL     1      46.818  32.470  40.481  0.00  0.00    +0.000 A 
ATOM      9  H   UNL     1      47.771  32.274  40.959  0.00  0.00    +0.000 HD
ATOM     10  S   UNL     1      47.019  30.120  39.129  0.00  0.00    +0.000 S 
ATOM     11  C   UNL     1      45.889  29.274  38.041  0.00  0.00    +0.000 A 
ATOM     12  C   UNL     1      46.187  28.037  37.584  0.00  0.00    +0.000 A 
ATOM     13  H   UNL     1      47.140  27.592  37.905  0.00  0.00    +0.000 HD
ATOM     14  C   UNL     1      45.377  27.316  36.742  0.00  0.00    +0.000 A 
ATOM     15  H   UNL     1      45.682  26.336  36.416  0.00  0.00    +0.000 HD
ATOM     16  C   UNL     1      44.182  27.951  36.369  0.00  0.00    +0.000 A 
ATOM     17  H   UNL     1      43.523  27.413  35.709  0.00  0.00    +0.000 HD
ATOM     18  C   UNL     1      43.888  29.221  36.844  0.00  0.00    +0.000 A 
ATOM     19  H   UNL     1      42.951  29.602  36.493  0.00  0.00    +0.000 HD
ATOM     20  C   UNL     1      44.759  29.928  37.714  0.00  0.00    +0.000 A 
ATOM     21  N   UNL     1      44.293  31.172  38.129  0.00  0.00    +0.000 N 
ATOM     22  H   UNL     1      43.366  31.533  37.756  0.00  0.00    +0.000 HD
ENDROOT
BRANCH   1  23
ATOM     23  C   UNL     1      46.810  34.635  41.865  0.00  0.00    +0.000 C 
ATOM     24  O   UNL     1      47.893  35.323  41.695  0.00  0.00    +0.000 OA
BRANCH  23  26
ATOM     25  C   UNL     1      45.380  36.076  43.197  0.00  0.00    +0.000 A 
ATOM     26  C   UNL     1      46.121  34.879  43.083  0.00  0.00    +0.000 A 
ATOM     27  C   UNL     1      46.075  34.040  44.177  0.00  0.00    +0.000 A 
ATOM     28  N   UNL     1      45.366  34.346  45.279  0.00  0.00    +0.000 NA
ATOM     29  C   UNL     1      44.665  35.507  45.354  0.00  0.00    +0.000 A 
ATOM     30  N   UNL     1      44.681  36.363  44.303  0.00  0.00    +0.000 NA
ATOM     31  H   UNL     1      45.379  36.774  42.372  0.00  0.00    +0.000 HD
ATOM     32  H   UNL     1      44.125  35.658  46.291  0.00  0.00    +0.000 HD
BRANCH  27  33
ATOM     33  C   UNL     1      46.797  32.852  44.135  0.00  0.00    +0.000 A 
ATOM     34  C   UNL     1      47.742  32.328  43.279  0.00  0.00    +0.000 A 
ATOM     35  C   UNL     1      48.285  31.139  43.477  0.00  0.00    +0.000 A 
ATOM     36  C   UNL     1      47.878  30.422  44.583  0.00  0.00    +0.000 A 
ATOM     37  S   UNL     1      46.633  31.566  45.362  0.00  0.00    +0.000 S 
ATOM     38  H   UNL     1      48.203  32.749  42.419  0.00  0.00    +0.000 HD
ATOM     39  H   UNL     1      49.003  30.486  43.024  0.00  0.00    +0.000 HD
ATOM     40  H   UNL     1      48.009  29.496  45.132  0.00  0.00    +0.000 HD
ENDBRANCH  27  33
ENDBRANCH  23  26
ENDBRANCH   1  23
TORSDOF 3
