
 OpenBabel03252502313D

 37 40  0  0  0  0  0  0  0  0999 V2000
   46.8180   31.5980   44.7230 C   0  0  0  0  0  0  0  0  0  0  0  0
   48.0120   31.1170   45.2130 C   0  0  0  0  0  0  0  0  0  0  0  0
   48.9400   31.6430   45.0830 H   0  0  0  0  0  0  0  0  0  0  0  0
   47.9760   29.8980   45.8990 C   0  0  0  0  0  0  0  0  0  0  0  0
   48.9390   29.5610   46.2650 H   0  0  0  0  0  0  0  0  0  0  0  0
   46.8460   29.1410   46.1230 C   0  0  0  0  0  0  0  0  0  0  0  0
   45.6980   29.6900   45.6040 C   0  0  0  0  0  0  0  0  0  0  0  0
   45.6730   30.8640   44.9320 C   0  0  0  0  0  0  0  0  0  0  0  0
   44.7300   31.2300   44.5530 H   0  0  0  0  0  0  0  0  0  0  0  0
   44.1760   28.7910   45.8380 S   0  0  0  0  0  0  0  0  0  0  0  0
   44.5890   27.3230   46.7460 C   0  0  0  0  0  0  0  0  0  0  0  0
   43.5810   26.4540   47.0560 C   0  0  0  0  0  0  0  0  0  0  0  0
   42.5540   26.6730   46.7460 H   0  0  0  0  0  0  0  0  0  0  0  0
   43.8230   25.2930   47.7600 C   0  0  0  0  0  0  0  0  0  0  0  0
   42.9800   24.6520   47.9700 H   0  0  0  0  0  0  0  0  0  0  0  0
   45.1240   25.0400   48.1390 C   0  0  0  0  0  0  0  0  0  0  0  0
   45.3400   24.1360   48.6920 H   0  0  0  0  0  0  0  0  0  0  0  0
   46.1030   25.9490   47.8010 C   0  0  0  0  0  0  0  0  0  0  0  0
   47.0960   25.6740   48.1370 H   0  0  0  0  0  0  0  0  0  0  0  0
   45.8910   27.1180   47.0990 C   0  0  0  0  0  0  0  0  0  0  0  0
   46.9850   27.9390   46.8310 N   0  0  0  0  0  0  0  0  0  0  0  0
   47.9290   27.6510   47.1670 H   0  0  0  0  0  0  0  0  0  0  0  0
   47.8140   34.4990   42.5170 C   0  0  0  0  0  0  0  0  0  0  0  0
   47.8980   33.2390   43.1510 C   0  0  0  0  0  0  0  0  0  0  0  0
   46.8520   32.8650   44.0100 C   0  0  0  0  0  0  0  0  0  0  0  0
   45.8280   33.7340   44.1780 N   0  0  0  0  0  0  0  0  0  0  0  0
   45.7770   34.9300   43.5580 C   0  0  0  0  0  0  0  0  0  0  0  0
   46.7600   35.3020   42.7400 N   0  0  0  0  0  0  0  0  0  0  0  0
   48.7120   32.5770   43.0030 H   0  0  0  0  0  0  0  0  0  0  0  0
   48.9320   34.8670   41.6160 C   0  0  0  0  0  0  0  0  0  0  0  0
   48.6290   34.6560   40.2960 F   0  0  0  0  0  0  0  0  0  0  0  0
   49.2430   36.2150   41.8340 F   0  0  0  0  0  0  0  0  0  0  0  0
   50.0810   34.1630   41.9910 F   0  0  0  0  0  0  0  0  0  0  0  0
   44.6180   35.8370   43.7880 C   0  0  0  0  0  0  0  0  0  0  0  0
   43.5900   35.5700   42.9220 F   0  0  0  0  0  0  0  0  0  0  0  0
   45.0290   37.1760   43.6460 F   0  0  0  0  0  0  0  0  0  0  0  0
   44.1320   35.7460   45.0740 F   0  0  0  0  0  0  0  0  0  0  0  0
  1  8  2  0  0  0  0
  1  2  1  0  0  0  0
  2  4  2  0  0  0  0
  3  2  1  0  0  0  0
  4  6  1  0  0  0  0
  4  5  1  0  0  0  0
  6 21  1  0  0  0  0
  7 10  1  0  0  0  0
  7  6  2  0  0  0  0
  8  7  1  0  0  0  0
  9  8  1  0  0  0  0
 10 11  1  0  0  0  0
 11 12  2  0  0  0  0
 11 20  1  0  0  0  0
 12 14  1  0  0  0  0
 13 12  1  0  0  0  0
 14 15  1  0  0  0  0
 14 16  2  0  0  0  0
 16 17  1  0  0  0  0
 18 19  1  0  0  0  0
 18 16  1  0  0  0  0
 20 18  2  0  0  0  0
 21 20  1  0  0  0  0
 21 22  1  0  0  0  0
 23 28  2  0  0  0  0
 23 24  1  0  0  0  0
 24 25  2  0  0  0  0
 25 26  1  0  0  0  0
 25  1  1  0  0  0  0
 27 34  1  0  0  0  0
 27 26  2  0  0  0  0
 28 27  1  0  0  0  0
 29 24  1  0  0  0  0
 30 32  1  0  0  0  0
 30 33  1  0  0  0  0
 30 23  1  0  0  0  0
 31 30  1  0  0  0  0
 34 37  1  0  0  0  0
 35 34  1  0  0  0  0
 36 34  1  0  0  0  0
M  END
>  <minimizedAffinity>
-6.40726423

>  <minimizedRMSD>
0.827525735

$$$$
