REMARK  Name = 
REMARK  3 active torsions:
REMARK  status: ('A' for Active; 'I' for Inactive)
REMARK    1  A    between atoms: C_2  and  C_12
REMARK    2  A    between atoms: C_3  and  C_7
REMARK    3  A    between atoms: C_12  and  C_19
REMARK                            x       y       z     vdW  Elec       q    Type
REMARK                         _______ _______ _______ _____ _____    ______ ____
ROOT
ATOM      1  C   UNL     1      46.271  33.642  40.871  0.00  0.00    +0.000 A 
ATOM      2  C   UNL     1      45.470  32.655  41.406  0.00  0.00    +0.000 A 
ATOM      3  H   UNL     1      45.255  32.632  42.483  0.00  0.00    +0.000 HD
ATOM      4  C   UNL     1      44.907  31.655  40.661  0.00  0.00    +0.000 A 
ATOM      5  H   UNL     1      44.294  30.910  41.127  0.00  0.00    +0.000 HD
ATOM      6  C   UNL     1      45.163  31.642  39.282  0.00  0.00    +0.000 A 
ATOM      7  C   UNL     1      45.960  32.626  38.743  0.00  0.00    +0.000 A 
ATOM      8  C   UNL     1      46.490  33.593  39.538  0.00  0.00    +0.000 A 
ATOM      9  H   UNL     1      47.124  34.399  39.189  0.00  0.00    +0.000 HD
ATOM     10  S   UNL     1      46.301  32.647  36.997  0.00  0.00    +0.000 S 
ATOM     11  C   UNL     1      45.540  31.181  36.327  0.00  0.00    +0.000 A 
ATOM     12  C   UNL     1      45.694  30.875  35.020  0.00  0.00    +0.000 A 
ATOM     13  H   UNL     1      46.293  31.561  34.404  0.00  0.00    +0.000 HD
ATOM     14  C   UNL     1      45.142  29.770  34.422  0.00  0.00    +0.000 A 
ATOM     15  H   UNL     1      45.305  29.592  33.372  0.00  0.00    +0.000 HD
ATOM     16  C   UNL     1      44.384  28.944  35.268  0.00  0.00    +0.000 A 
ATOM     17  H   UNL     1      43.936  28.068  34.831  0.00  0.00    +0.000 HD
ATOM     18  C   UNL     1      44.233  29.270  36.608  0.00  0.00    +0.000 A 
ATOM     19  H   UNL     1      43.636  28.567  37.154  0.00  0.00    +0.000 HD
ATOM     20  C   UNL     1      44.824  30.426  37.181  0.00  0.00    +0.000 A 
ATOM     21  N   UNL     1      44.608  30.581  38.548  0.00  0.00    +0.000 N 
ATOM     22  H   UNL     1      44.002  29.877  39.063  0.00  0.00    +0.000 HD
ENDROOT
BRANCH   1  23
ATOM     23  C   UNL     1      46.810  34.635  41.865  0.00  0.00    +0.000 C 
ATOM     24  O   UNL     1      47.893  35.323  41.695  0.00  0.00    +0.000 OA
BRANCH  23  26
ATOM     25  C   UNL     1      45.380  36.076  43.197  0.00  0.00    +0.000 A 
ATOM     26  C   UNL     1      46.121  34.879  43.083  0.00  0.00    +0.000 A 
ATOM     27  C   UNL     1      46.075  34.040  44.177  0.00  0.00    +0.000 A 
ATOM     28  N   UNL     1      45.366  34.346  45.279  0.00  0.00    +0.000 NA
ATOM     29  C   UNL     1      44.665  35.507  45.354  0.00  0.00    +0.000 A 
ATOM     30  N   UNL     1      44.681  36.363  44.303  0.00  0.00    +0.000 NA
ATOM     31  H   UNL     1      45.379  36.774  42.372  0.00  0.00    +0.000 HD
ATOM     32  H   UNL     1      44.125  35.658  46.291  0.00  0.00    +0.000 HD
BRANCH  27  33
ATOM     33  C   UNL     1      46.797  32.852  44.135  0.00  0.00    +0.000 A 
ATOM     34  C   UNL     1      47.742  32.328  43.279  0.00  0.00    +0.000 A 
ATOM     35  C   UNL     1      48.285  31.139  43.477  0.00  0.00    +0.000 A 
ATOM     36  C   UNL     1      47.878  30.422  44.583  0.00  0.00    +0.000 A 
ATOM     37  S   UNL     1      46.633  31.566  45.362  0.00  0.00    +0.000 S 
ATOM     38  H   UNL     1      48.203  32.749  42.419  0.00  0.00    +0.000 HD
ATOM     39  H   UNL     1      49.003  30.486  43.024  0.00  0.00    +0.000 HD
ATOM     40  H   UNL     1      48.009  29.496  45.132  0.00  0.00    +0.000 HD
ENDBRANCH  27  33
ENDBRANCH  23  26
ENDBRANCH   1  23
TORSDOF 3
