REMARK  Name = 
REMARK  3 active torsions:
REMARK  status: ('A' for Active; 'I' for Inactive)
REMARK    1  A    between atoms: C_2  and  C_12
REMARK    2  A    between atoms: C_3  and  C_7
REMARK    3  A    between atoms: C_12  and  C_19
REMARK                            x       y       z     vdW  Elec       q    Type
REMARK                         _______ _______ _______ _____ _____    ______ ____
ROOT
ATOM      1  C   UNL     1      46.271  33.642  40.871  0.00  0.00    +0.000 A 
ATOM      2  C   UNL     1      46.893  33.652  39.640  0.00  0.00    +0.000 A 
ATOM      3  H   UNL     1      47.725  34.340  39.439  0.00  0.00    +0.000 HD
ATOM      4  C   UNL     1      46.528  32.835  38.604  0.00  0.00    +0.000 A 
ATOM      5  H   UNL     1      47.043  32.885  37.666  0.00  0.00    +0.000 HD
ATOM      6  C   UNL     1      45.464  31.946  38.815  0.00  0.00    +0.000 A 
ATOM      7  C   UNL     1      44.841  31.932  40.042  0.00  0.00    +0.000 A 
ATOM      8  C   UNL     1      45.253  32.769  41.032  0.00  0.00    +0.000 A 
ATOM      9  H   UNL     1      44.815  32.815  42.022  0.00  0.00    +0.000 HD
ATOM     10  S   UNL     1      43.493  30.813  40.350  0.00  0.00    +0.000 S 
ATOM     11  C   UNL     1      43.179  29.980  38.806  0.00  0.00    +0.000 A 
ATOM     12  C   UNL     1      42.148  29.112  38.702  0.00  0.00    +0.000 A 
ATOM     13  H   UNL     1      41.530  28.947  39.595  0.00  0.00    +0.000 HD
ATOM     14  C   UNL     1      41.837  28.428  37.553  0.00  0.00    +0.000 A 
ATOM     15  H   UNL     1      41.001  27.749  37.545  0.00  0.00    +0.000 HD
ATOM     16  C   UNL     1      42.674  28.684  36.455  0.00  0.00    +0.000 A 
ATOM     17  H   UNL     1      42.458  28.162  35.539  0.00  0.00    +0.000 HD
ATOM     18  C   UNL     1      43.730  29.576  36.576  0.00  0.00    +0.000 A 
ATOM     19  H   UNL     1      44.296  29.691  35.674  0.00  0.00    +0.000 HD
ATOM     20  C   UNL     1      44.012  30.261  37.787  0.00  0.00    +0.000 A 
ATOM     21  N   UNL     1      45.081  31.151  37.723  0.00  0.00    +0.000 N 
ATOM     22  H   UNL     1      45.635  31.237  36.821  0.00  0.00    +0.000 HD
ENDROOT
BRANCH   1  23
ATOM     23  C   UNL     1      46.810  34.635  41.865  0.00  0.00    +0.000 C 
ATOM     24  O   UNL     1      47.893  35.323  41.695  0.00  0.00    +0.000 OA
BRANCH  23  26
ATOM     25  C   UNL     1      45.380  36.076  43.197  0.00  0.00    +0.000 A 
ATOM     26  C   UNL     1      46.121  34.879  43.083  0.00  0.00    +0.000 A 
ATOM     27  C   UNL     1      46.075  34.040  44.177  0.00  0.00    +0.000 A 
ATOM     28  N   UNL     1      45.366  34.346  45.279  0.00  0.00    +0.000 NA
ATOM     29  C   UNL     1      44.665  35.507  45.354  0.00  0.00    +0.000 A 
ATOM     30  N   UNL     1      44.681  36.363  44.303  0.00  0.00    +0.000 NA
ATOM     31  H   UNL     1      45.379  36.774  42.372  0.00  0.00    +0.000 HD
ATOM     32  H   UNL     1      44.125  35.658  46.291  0.00  0.00    +0.000 HD
BRANCH  27  33
ATOM     33  C   UNL     1      46.797  32.852  44.135  0.00  0.00    +0.000 A 
ATOM     34  C   UNL     1      47.742  32.328  43.279  0.00  0.00    +0.000 A 
ATOM     35  C   UNL     1      48.285  31.139  43.477  0.00  0.00    +0.000 A 
ATOM     36  C   UNL     1      47.878  30.422  44.583  0.00  0.00    +0.000 A 
ATOM     37  S   UNL     1      46.633  31.566  45.362  0.00  0.00    +0.000 S 
ATOM     38  H   UNL     1      48.203  32.749  42.419  0.00  0.00    +0.000 HD
ATOM     39  H   UNL     1      49.003  30.486  43.024  0.00  0.00    +0.000 HD
ATOM     40  H   UNL     1      48.009  29.496  45.132  0.00  0.00    +0.000 HD
ENDBRANCH  27  33
ENDBRANCH  23  26
ENDBRANCH   1  23
TORSDOF 3
