
 OpenBabel03252504103D

 38 41  0  0  0  0  0  0  0  0999 V2000
   47.7290   31.1330   44.7990 C   0  0  0  0  0  0  0  0  0  0  0  0
   47.5110   30.5770   46.0410 C   0  0  0  0  0  0  0  0  0  0  0  0
   46.8530   31.0620   46.7280 H   0  0  0  0  0  0  0  0  0  0  0  0
   48.1580   29.4000   46.3550 C   0  0  0  0  0  0  0  0  0  0  0  0
   47.9340   29.0160   47.3620 H   0  0  0  0  0  0  0  0  0  0  0  0
   49.0200   28.7170   45.5230 C   0  0  0  0  0  0  0  0  0  0  0  0
   49.1980   29.3160   44.3030 C   0  0  0  0  0  0  0  0  0  0  0  0
   48.5800   30.4820   43.9450 C   0  0  0  0  0  0  0  0  0  0  0  0
   48.7610   30.9150   42.9570 H   0  0  0  0  0  0  0  0  0  0  0  0
   50.2900   28.5300   43.1370 S   0  0  0  0  0  0  0  0  0  0  0  0
   50.9100   27.0590   43.9240 C   0  0  0  0  0  0  0  0  0  0  0  0
   51.7820   26.2330   43.2710 C   0  0  0  0  0  0  0  0  0  0  0  0
   52.0920   26.5000   42.2500 H   0  0  0  0  0  0  0  0  0  0  0  0
   52.3020   25.0780   43.8180 C   0  0  0  0  0  0  0  0  0  0  0  0
   52.9760   24.4970   43.2360 H   0  0  0  0  0  0  0  0  0  0  0  0
   51.8850   24.7860   45.0990 C   0  0  0  0  0  0  0  0  0  0  0  0
   52.2630   23.8990   45.5670 H   0  0  0  0  0  0  0  0  0  0  0  0
   51.0050   25.6320   45.7420 C   0  0  0  0  0  0  0  0  0  0  0  0
   50.7340   25.3110   46.7590 H   0  0  0  0  0  0  0  0  0  0  0  0
   50.4850   26.7850   45.1960 C   0  0  0  0  0  0  0  0  0  0  0  0
   49.5960   27.5210   46.0100 N   0  0  0  0  0  0  0  0  0  0  0  0
   49.3590   27.2010   46.9540 H   0  0  0  0  0  0  0  0  0  0  0  0
   46.9920   34.2660   43.0460 C   0  0  0  0  0  0  0  0  0  0  0  0
   45.8310   34.6940   43.6790 C   0  0  0  0  0  0  0  0  0  0  0  0
   45.3080   33.8970   44.7070 C   0  0  0  0  0  0  0  0  0  0  0  0
   45.9580   32.7540   45.0340 N   0  0  0  0  0  0  0  0  0  0  0  0
   47.0810   32.3760   44.3960 C   0  0  0  0  0  0  0  0  0  0  0  0
   47.6040   33.1200   43.4070 N   0  0  0  0  0  0  0  0  0  0  0  0
   44.4010   34.2200   45.2100 H   0  0  0  0  0  0  0  0  0  0  0  0
   45.1910   35.9620   43.2490 C   0  0  0  0  0  0  0  0  0  0  0  0
   46.1620   36.9330   43.0360 F   0  0  0  0  0  0  0  0  0  0  0  0
   44.5880   35.7510   42.0220 F   0  0  0  0  0  0  0  0  0  0  0  0
   44.2960   36.4770   44.1230 F   0  0  0  0  0  0  0  0  0  0  0  0
   47.4870   35.0380   42.0590 O   0  0  0  0  0  0  0  0  0  0  0  0
   48.8250   35.1350   41.6230 C   0  0  0  0  0  0  0  0  0  0  0  0
   49.5990   35.4050   42.7510 F   0  0  0  0  0  0  0  0  0  0  0  0
   49.1950   33.9730   41.0040 F   0  0  0  0  0  0  0  0  0  0  0  0
   48.9810   36.2340   40.8120 F   0  0  0  0  0  0  0  0  0  0  0  0
  1  2  1  0  0  0  0
  2  4  2  0  0  0  0
  2  3  1  0  0  0  0
  4  5  1  0  0  0  0
  6 21  1  0  0  0  0
  6  4  1  0  0  0  0
  7  6  2  0  0  0  0
  8  7  1  0  0  0  0
  8  1  2  0  0  0  0
  9  8  1  0  0  0  0
 10 11  1  0  0  0  0
 10  7  1  0  0  0  0
 11 20  1  0  0  0  0
 12 14  1  0  0  0  0
 12 11  2  0  0  0  0
 13 12  1  0  0  0  0
 14 16  2  0  0  0  0
 15 14  1  0  0  0  0
 16 17  1  0  0  0  0
 16 18  1  0  0  0  0
 18 19  1  0  0  0  0
 20 18  2  0  0  0  0
 20 21  1  0  0  0  0
 21 22  1  0  0  0  0
 23 28  2  0  0  0  0
 23 24  1  0  0  0  0
 24 25  2  0  0  0  0
 25 26  1  0  0  0  0
 25 29  1  0  0  0  0
 27  1  1  0  0  0  0
 27 26  2  0  0  0  0
 28 27  1  0  0  0  0
 30 24  1  0  0  0  0
 30 33  1  0  0  0  0
 31 30  1  0  0  0  0
 32 30  1  0  0  0  0
 34 23  1  0  0  0  0
 35 34  1  0  0  0  0
 35 36  1  0  0  0  0
 37 35  1  0  0  0  0
 38 35  1  0  0  0  0
M  END
>  <minimizedAffinity>
-5.14120865

>  <minimizedRMSD>
1.15524924

$$$$
