
 OpenBabel03242518503D

 36 39  0  0  0  0  0  0  0  0999 V2000
   46.0320   31.9170   46.4180 C   0  0  0  0  0  0  0  0  0  0  0  0
   47.2200   31.6520   45.7730 C   0  0  0  0  0  0  0  0  0  0  0  0
   47.8040   32.4010   45.2640 H   0  0  0  0  0  0  0  0  0  0  0  0
   47.7850   30.3870   45.7280 C   0  0  0  0  0  0  0  0  0  0  0  0
   48.7370   30.2340   45.1930 H   0  0  0  0  0  0  0  0  0  0  0  0
   47.1800   29.2930   46.3390 C   0  0  0  0  0  0  0  0  0  0  0  0
   45.9960   29.5880   46.9740 C   0  0  0  0  0  0  0  0  0  0  0  0
   45.4520   30.8190   47.0150 C   0  0  0  0  0  0  0  0  0  0  0  0
   44.4990   31.0060   47.5300 H   0  0  0  0  0  0  0  0  0  0  0  0
   45.1230   28.2710   47.7980 S   0  0  0  0  0  0  0  0  0  0  0  0
   46.1250   26.8160   47.5710 C   0  0  0  0  0  0  0  0  0  0  0  0
   45.6630   25.6750   48.1410 C   0  0  0  0  0  0  0  0  0  0  0  0
   44.7370   25.6400   48.7050 H   0  0  0  0  0  0  0  0  0  0  0  0
   46.4340   24.5290   47.9710 C   0  0  0  0  0  0  0  0  0  0  0  0
   46.0940   23.6050   48.4080 H   0  0  0  0  0  0  0  0  0  0  0  0
   47.6230   24.5090   47.2620 C   0  0  0  0  0  0  0  0  0  0  0  0
   48.2120   23.6250   47.1290 H   0  0  0  0  0  0  0  0  0  0  0  0
   48.0180   25.7260   46.7130 C   0  0  0  0  0  0  0  0  0  0  0  0
   48.9650   25.6880   46.1530 H   0  0  0  0  0  0  0  0  0  0  0  0
   47.2880   26.8860   46.8560 C   0  0  0  0  0  0  0  0  0  0  0  0
   47.8080   28.0390   46.2650 N   0  0  0  0  0  0  0  0  0  0  0  0
   48.7070   27.9820   45.7410 H   0  0  0  0  0  0  0  0  0  0  0  0
   45.4560   33.2520   46.4610 C   0  0  0  0  0  0  0  0  0  0  0  0
   44.9560   33.5780   47.5770 O   0  0  0  0  0  0  0  0  0  0  0  0
   44.6070   36.1400   44.3990 C   0  0  0  0  0  0  0  0  0  0  0  0
   45.3720   35.9870   43.2220 C   0  0  0  0  0  0  0  0  0  0  0  0
   46.1760   34.8570   43.1740 C   0  0  0  0  0  0  0  0  0  0  0  0
   46.1490   34.0370   44.2290 N   0  0  0  0  0  0  0  0  0  0  0  0
   45.4300   34.1750   45.3430 C   0  0  0  0  0  0  0  0  0  0  0  0
   44.6370   35.2670   45.4160 N   0  0  0  0  0  0  0  0  0  0  0  0
   43.9710   37.0170   44.4620 H   0  0  0  0  0  0  0  0  0  0  0  0
   45.3560   36.6790   42.4070 H   0  0  0  0  0  0  0  0  0  0  0  0
   46.9870   34.6730   41.9640 C   0  0  0  0  0  0  0  0  0  0  0  0
   47.7830   33.5480   42.0970 F   0  0  0  0  0  0  0  0  0  0  0  0
   47.8770   35.7610   41.9260 F   0  0  0  0  0  0  0  0  0  0  0  0
   46.2520   34.5770   40.8300 F   0  0  0  0  0  0  0  0  0  0  0  0
  1 23  1  0  0  0  0
  1  8  1  0  0  0  0
  2  1  2  0  0  0  0
  3  2  1  0  0  0  0
  4  2  1  0  0  0  0
  4  6  2  0  0  0  0
  5  4  1  0  0  0  0
  6  7  1  0  0  0  0
  7  8  2  0  0  0  0
  7 10  1  0  0  0  0
  8  9  1  0  0  0  0
 11 10  1  0  0  0  0
 11 12  1  0  0  0  0
 12 13  1  0  0  0  0
 14 12  2  0  0  0  0
 14 15  1  0  0  0  0
 16 14  1  0  0  0  0
 17 16  1  0  0  0  0
 18 20  1  0  0  0  0
 18 16  2  0  0  0  0
 19 18  1  0  0  0  0
 20 11  2  0  0  0  0
 21  6  1  0  0  0  0
 21 20  1  0  0  0  0
 22 21  1  0  0  0  0
 23 24  2  0  0  0  0
 25 31  1  0  0  0  0
 25 30  1  0  0  0  0
 26 25  2  0  0  0  0
 27 26  1  0  0  0  0
 27 28  2  0  0  0  0
 28 29  1  0  0  0  0
 29 30  2  0  0  0  0
 29 23  1  0  0  0  0
 32 26  1  0  0  0  0
 33 34  1  0  0  0  0
 33 27  1  0  0  0  0
 35 33  1  0  0  0  0
 36 33  1  0  0  0  0
M  END
>  <minimizedAffinity>
-5.81526518

>  <minimizedRMSD>
1.90922141

$$$$
