
 OpenBabel03252502313D

 37 40  0  0  0  0  0  0  0  0999 V2000
   47.0230   31.6850   44.5210 C   0  0  0  0  0  0  0  0  0  0  0  0
   48.1120   30.8890   44.2390 C   0  0  0  0  0  0  0  0  0  0  0  0
   48.8920   31.1990   43.5700 H   0  0  0  0  0  0  0  0  0  0  0  0
   48.1670   29.6390   44.8670 C   0  0  0  0  0  0  0  0  0  0  0  0
   49.0400   29.0490   44.6150 H   0  0  0  0  0  0  0  0  0  0  0  0
   47.2230   29.1420   45.7410 C   0  0  0  0  0  0  0  0  0  0  0  0
   46.1720   29.9960   45.9680 C   0  0  0  0  0  0  0  0  0  0  0  0
   46.0650   31.2140   45.3900 C   0  0  0  0  0  0  0  0  0  0  0  0
   45.2070   31.8300   45.6190 H   0  0  0  0  0  0  0  0  0  0  0  0
   44.8930   29.4490   47.0850 S   0  0  0  0  0  0  0  0  0  0  0  0
   45.3620   27.8300   47.6400 C   0  0  0  0  0  0  0  0  0  0  0  0
   44.5350   27.1870   48.5150 C   0  0  0  0  0  0  0  0  0  0  0  0
   43.6140   27.6700   48.8560 H   0  0  0  0  0  0  0  0  0  0  0  0
   44.8330   25.9270   48.9910 C   0  0  0  0  0  0  0  0  0  0  0  0
   44.1350   25.4760   49.6810 H   0  0  0  0  0  0  0  0  0  0  0  0
   45.9980   25.3390   48.5500 C   0  0  0  0  0  0  0  0  0  0  0  0
   46.2530   24.3520   48.9080 H   0  0  0  0  0  0  0  0  0  0  0  0
   46.7970   26.0320   47.6660 C   0  0  0  0  0  0  0  0  0  0  0  0
   47.6930   25.4990   47.3690 H   0  0  0  0  0  0  0  0  0  0  0  0
   46.5260   27.2910   47.1730 C   0  0  0  0  0  0  0  0  0  0  0  0
   47.4340   27.8650   46.2820 N   0  0  0  0  0  0  0  0  0  0  0  0
   48.2860   27.3310   46.0140 H   0  0  0  0  0  0  0  0  0  0  0  0
   47.7590   34.7230   42.3990 C   0  0  0  0  0  0  0  0  0  0  0  0
   47.9320   33.4390   42.9630 C   0  0  0  0  0  0  0  0  0  0  0  0
   46.9620   32.9840   43.8710 C   0  0  0  0  0  0  0  0  0  0  0  0
   45.9220   33.8040   44.1510 N   0  0  0  0  0  0  0  0  0  0  0  0
   45.7850   35.0250   43.5950 C   0  0  0  0  0  0  0  0  0  0  0  0
   46.6950   35.4730   42.7320 N   0  0  0  0  0  0  0  0  0  0  0  0
   48.7560   32.8160   42.7280 H   0  0  0  0  0  0  0  0  0  0  0  0
   48.7980   35.1750   41.4430 C   0  0  0  0  0  0  0  0  0  0  0  0
   48.3750   35.1040   40.1410 F   0  0  0  0  0  0  0  0  0  0  0  0
   49.1460   36.4930   41.7690 F   0  0  0  0  0  0  0  0  0  0  0  0
   49.9640   34.4300   41.6390 F   0  0  0  0  0  0  0  0  0  0  0  0
   44.6140   35.8750   43.9480 C   0  0  0  0  0  0  0  0  0  0  0  0
   43.5610   35.6590   43.0970 F   0  0  0  0  0  0  0  0  0  0  0  0
   44.9860   37.2320   43.9170 F   0  0  0  0  0  0  0  0  0  0  0  0
   44.1770   35.6520   45.2360 F   0  0  0  0  0  0  0  0  0  0  0  0
  1  8  1  0  0  0  0
  2  1  2  0  0  0  0
  2  4  1  0  0  0  0
  3  2  1  0  0  0  0
  4  6  2  0  0  0  0
  5  4  1  0  0  0  0
  6  7  1  0  0  0  0
  6 21  1  0  0  0  0
  7 10  1  0  0  0  0
  8  9  1  0  0  0  0
  8  7  2  0  0  0  0
 10 11  1  0  0  0  0
 11 12  1  0  0  0  0
 12 13  1  0  0  0  0
 12 14  2  0  0  0  0
 14 15  1  0  0  0  0
 16 17  1  0  0  0  0
 16 14  1  0  0  0  0
 18 16  2  0  0  0  0
 19 18  1  0  0  0  0
 20 11  2  0  0  0  0
 20 18  1  0  0  0  0
 21 20  1  0  0  0  0
 22 21  1  0  0  0  0
 23 28  2  0  0  0  0
 23 24  1  0  0  0  0
 24 25  2  0  0  0  0
 25 26  1  0  0  0  0
 25  1  1  0  0  0  0
 27 34  1  0  0  0  0
 27 26  2  0  0  0  0
 28 27  1  0  0  0  0
 29 24  1  0  0  0  0
 30 33  1  0  0  0  0
 30 32  1  0  0  0  0
 30 23  1  0  0  0  0
 31 30  1  0  0  0  0
 34 37  1  0  0  0  0
 35 34  1  0  0  0  0
 36 34  1  0  0  0  0
M  END
>  <minimizedAffinity>
-6.9146719

>  <minimizedRMSD>
0.47408402

$$$$
