
 OpenBabel03242523193D

 50 55  0  0  0  0  0  0  0  0999 V2000
   44.3210   31.9240   42.8090 Cl  0  0  0  0  0  0  0  0  0  0  0  0
   44.5160   33.6770   42.7260 C   0  0  0  0  0  0  0  0  0  0  0  0
   45.4550   34.2210   43.6260 C   0  0  0  0  0  0  0  0  0  0  0  0
   45.5300   35.5960   43.4760 C   0  0  0  0  0  0  0  0  0  0  0  0
   44.8720   36.4100   42.6390 C   0  0  0  0  0  0  0  0  0  0  0  0
   43.9810   35.8000   41.8000 C   0  0  0  0  0  0  0  0  0  0  0  0
   43.7910   34.4620   41.8260 C   0  0  0  0  0  0  0  0  0  0  0  0
   46.2000   36.1900   44.1340 H   0  0  0  0  0  0  0  0  0  0  0  0
   44.9580   37.4630   42.5510 H   0  0  0  0  0  0  0  0  0  0  0  0
   43.3690   36.3090   41.0640 H   0  0  0  0  0  0  0  0  0  0  0  0
   42.8490   33.7550   40.9550 C   0  0  0  0  0  0  0  0  0  0  0  0
   41.5070   34.0080   41.2450 C   0  0  0  0  0  0  0  0  0  0  0  0
   41.2050   34.6710   42.0440 H   0  0  0  0  0  0  0  0  0  0  0  0
   40.5210   33.3850   40.4780 C   0  0  0  0  0  0  0  0  0  0  0  0
   39.4840   33.6220   40.7540 H   0  0  0  0  0  0  0  0  0  0  0  0
   40.7880   32.5230   39.4370 C   0  0  0  0  0  0  0  0  0  0  0  0
   42.1200   32.3110   39.1970 C   0  0  0  0  0  0  0  0  0  0  0  0
   43.1250   32.8950   39.9150 C   0  0  0  0  0  0  0  0  0  0  0  0
   44.1580   32.7310   39.7330 H   0  0  0  0  0  0  0  0  0  0  0  0
   42.5730   31.2130   37.8710 S   0  0  0  0  0  0  0  0  0  0  0  0
   41.0530   30.6310   37.1480 C   0  0  0  0  0  0  0  0  0  0  0  0
   41.0890   29.7600   36.0930 C   0  0  0  0  0  0  0  0  0  0  0  0
   42.0700   29.4420   35.7190 H   0  0  0  0  0  0  0  0  0  0  0  0
   39.9500   29.2750   35.4920 C   0  0  0  0  0  0  0  0  0  0  0  0
   40.0870   28.5920   34.6660 H   0  0  0  0  0  0  0  0  0  0  0  0
   38.7390   29.7020   35.9960 C   0  0  0  0  0  0  0  0  0  0  0  0
   37.8460   29.3420   35.5480 H   0  0  0  0  0  0  0  0  0  0  0  0
   38.7480   30.5800   37.0590 C   0  0  0  0  0  0  0  0  0  0  0  0
   37.7400   30.8680   37.3970 H   0  0  0  0  0  0  0  0  0  0  0  0
   39.8720   31.0810   37.6800 C   0  0  0  0  0  0  0  0  0  0  0  0
   39.6830   31.9680   38.7510 N   0  0  0  0  0  0  0  0  0  0  0  0
   38.7170   32.2190   39.0450 H   0  0  0  0  0  0  0  0  0  0  0  0
   46.2880   33.4710   44.6100 C   0  0  0  0  0  0  0  0  0  0  0  0
   45.7270   33.8280   45.6140 O   0  0  0  0  0  0  0  0  0  0  0  0
   47.3150   32.7190   43.8760 C   0  0  0  0  0  0  0  0  0  0  0  0
   48.2360   33.2310   43.0470 C   0  0  0  0  0  0  0  0  0  0  0  0
   49.0190   32.2910   42.4090 C   0  0  0  0  0  0  0  0  0  0  0  0
   48.7930   30.9280   42.6800 N   0  0  0  0  0  0  0  0  0  0  0  0
   47.8720   30.5040   43.5110 C   0  0  0  0  0  0  0  0  0  0  0  0
   47.0680   31.4120   44.1650 N   0  0  0  0  0  0  0  0  0  0  0  0
   49.8120   32.5130   41.7020 H   0  0  0  0  0  0  0  0  0  0  0  0
   47.8170   29.4260   43.6190 H   0  0  0  0  0  0  0  0  0  0  0  0
   48.5370   34.6060   42.8650 C   0  0  0  0  0  0  0  0  0  0  0  0
   49.6310   35.1660   42.2840 C   0  0  0  0  0  0  0  0  0  0  0  0
   48.4240   35.1710   41.3860 C   0  0  0  0  0  0  0  0  0  0  0  0
   48.1010   35.2630   43.6410 H   0  0  0  0  0  0  0  0  0  0  0  0
   50.0600   36.1890   42.4150 H   0  0  0  0  0  0  0  0  0  0  0  0
   50.4560   34.5000   41.8940 H   0  0  0  0  0  0  0  0  0  0  0  0
   48.3160   34.3780   40.6340 H   0  0  0  0  0  0  0  0  0  0  0  0
   47.8280   36.0920   41.3080 H   0  0  0  0  0  0  0  0  0  0  0  0
  2  1  1  0  0  0  0
  2  3  1  0  0  0  0
  3 33  1  0  0  0  0
  4  3  2  0  0  0  0
  4  8  1  0  0  0  0
  5  4  1  0  0  0  0
  6  7  1  0  0  0  0
  6  5  2  0  0  0  0
  7  2  2  0  0  0  0
  9  5  1  0  0  0  0
 10  6  1  0  0  0  0
 11 12  1  0  0  0  0
 11  7  1  0  0  0  0
 12 13  1  0  0  0  0
 14 15  1  0  0  0  0
 14 12  2  0  0  0  0
 16 14  1  0  0  0  0
 17 16  2  0  0  0  0
 17 18  1  0  0  0  0
 18 11  2  0  0  0  0
 19 18  1  0  0  0  0
 20 17  1  0  0  0  0
 21 30  1  0  0  0  0
 21 20  1  0  0  0  0
 22 21  2  0  0  0  0
 23 22  1  0  0  0  0
 24 26  2  0  0  0  0
 24 22  1  0  0  0  0
 25 24  1  0  0  0  0
 26 28  1  0  0  0  0
 27 26  1  0  0  0  0
 28 29  1  0  0  0  0
 28 30  2  0  0  0  0
 30 31  1  0  0  0  0
 31 32  1  0  0  0  0
 31 16  1  0  0  0  0
 33 34  2  0  0  0  0
 35 40  1  0  0  0  0
 35 33  1  0  0  0  0
 36 35  2  0  0  0  0
 37 38  2  0  0  0  0
 37 36  1  0  0  0  0
 38 39  1  0  0  0  0
 39 42  1  0  0  0  0
 39 40  2  0  0  0  0
 41 37  1  0  0  0  0
 43 36  1  0  0  0  0
 43 46  1  0  0  0  0
 44 47  1  0  0  0  0
 44 43  1  0  0  0  0
 45 44  1  0  0  0  0
 45 43  1  0  0  0  0
 48 44  1  0  0  0  0
 49 45  1  0  0  0  0
 50 45  1  0  0  0  0
M  END
>  <minimizedAffinity>
-6.74645519

>  <minimizedRMSD>
0.95373106

$$$$
