
 OpenBabel03242514333D

 39 42  0  0  0  0  0  0  0  0999 V2000
   48.1150   33.5440   38.3280 C   0  0  0  0  0  0  0  0  0  0  0  0
   48.1080   34.2690   37.1930 C   0  0  0  0  0  0  0  0  0  0  0  0
   47.8420   35.3140   37.1570 H   0  0  0  0  0  0  0  0  0  0  0  0
   48.4720   33.5850   36.0280 C   0  0  0  0  0  0  0  0  0  0  0  0
   48.4550   34.2030   35.1250 H   0  0  0  0  0  0  0  0  0  0  0  0
   48.8240   32.2640   35.9710 C   0  0  0  0  0  0  0  0  0  0  0  0
   48.8190   31.5590   37.1490 C   0  0  0  0  0  0  0  0  0  0  0  0
   48.4740   32.1920   38.2840 C   0  0  0  0  0  0  0  0  0  0  0  0
   48.4750   31.6120   39.2200 H   0  0  0  0  0  0  0  0  0  0  0  0
   49.2720   29.8350   37.1210 S   0  0  0  0  0  0  0  0  0  0  0  0
   49.6410   29.4550   35.4300 C   0  0  0  0  0  0  0  0  0  0  0  0
   50.0120   28.1730   35.1920 C   0  0  0  0  0  0  0  0  0  0  0  0
   50.0910   27.4050   35.9500 H   0  0  0  0  0  0  0  0  0  0  0  0
   50.3240   27.7730   33.8900 C   0  0  0  0  0  0  0  0  0  0  0  0
   50.6240   26.7630   33.6500 H   0  0  0  0  0  0  0  0  0  0  0  0
   50.2440   28.6990   32.8830 C   0  0  0  0  0  0  0  0  0  0  0  0
   50.4810   28.4040   31.8750 H   0  0  0  0  0  0  0  0  0  0  0  0
   49.8590   29.9760   33.2150 C   0  0  0  0  0  0  0  0  0  0  0  0
   49.8180   30.6610   32.3540 H   0  0  0  0  0  0  0  0  0  0  0  0
   49.5400   30.4270   34.4790 C   0  0  0  0  0  0  0  0  0  0  0  0
   49.1610   31.7510   34.6960 N   0  0  0  0  0  0  0  0  0  0  0  0
   49.1370   32.3630   33.8520 H   0  0  0  0  0  0  0  0  0  0  0  0
   47.7560   34.1230   39.6540 C   0  0  0  0  0  0  0  0  0  0  0  0
   46.5160   33.8290   39.8900 O   0  0  0  0  0  0  0  0  0  0  0  0
   48.2900   34.8410   40.6610 O   0  0  0  0  0  0  0  0  0  0  0  0
   49.5730   35.4080   42.8250 O   0  0  0  0  0  0  0  0  0  0  0  0
   49.0090   34.2580   42.0500 P   0  0  2  0  0  0  0  0  0  0  0  0
   50.2870   33.2540   41.6290 O   0  0  0  0  0  0  0  0  0  0  0  0
   51.0910   33.7560   41.4070 H   0  0  0  0  0  0  0  0  0  0  0  0
   47.8610   33.4150   42.9990 O   0  0  0  0  0  0  0  0  0  0  0  0
   46.2390   35.1630   42.9460 C   0  0  0  0  0  0  0  0  0  0  0  0
   46.8030   34.0850   43.6080 C   0  0  0  0  0  0  0  0  0  0  0  0
   46.2840   33.7210   44.8570 C   0  0  0  0  0  0  0  0  0  0  0  0
   45.2470   34.4510   45.3580 N   0  0  0  0  0  0  0  0  0  0  0  0
   44.7280   35.4840   44.6900 C   0  0  0  0  0  0  0  0  0  0  0  0
   45.2210   35.8310   43.5020 N   0  0  0  0  0  0  0  0  0  0  0  0
   46.6020   35.4920   41.9710 H   0  0  0  0  0  0  0  0  0  0  0  0
   46.7640   32.8870   45.3070 H   0  0  0  0  0  0  0  0  0  0  0  0
   43.9080   35.9700   45.2100 H   0  0  0  0  0  0  0  0  0  0  0  0
  1 23  1  0  0  0  0
  2  1  2  0  0  0  0
  3  2  1  0  0  0  0
  4  2  1  0  0  0  0
  5  4  1  0  0  0  0
  6  4  2  0  0  0  0
  6  7  1  0  0  0  0
  7  8  2  0  0  0  0
  8  1  1  0  0  0  0
  8  9  1  0  0  0  0
 10  7  1  0  0  0  0
 11 10  1  0  0  0  0
 12 11  1  0  0  0  0
 12 13  1  0  0  0  0
 14 12  2  0  0  0  0
 15 14  1  0  0  0  0
 16 18  2  0  0  0  0
 16 14  1  0  0  0  0
 17 16  1  0  0  0  0
 18 20  1  0  0  0  0
 19 18  1  0  0  0  0
 20 21  1  0  0  0  0
 20 11  2  0  0  0  0
 21  6  1  0  0  0  0
 22 21  1  0  0  0  0
 23 24  2  0  0  0  0
 23 25  1  0  0  0  0
 25 27  1  0  0  0  0
 27 26  2  1  0  0  0
 27 30  1  0  0  0  0
 28 27  1  0  0  0  0
 29 28  1  0  0  0  0
 30 32  1  0  0  0  0
 31 36  2  0  0  0  0
 31 32  1  0  0  0  0
 32 33  2  0  0  0  0
 33 38  1  0  0  0  0
 33 34  1  0  0  0  0
 35 39  1  0  0  0  0
 35 34  2  0  0  0  0
 36 35  1  0  0  0  0
 37 31  1  0  0  0  0
M  END
>  <minimizedAffinity>
-5.10045719

>  <minimizedRMSD>
1.58964598

$$$$
