
 OpenBabel03252500333D

 56 61  0  0  1  0  0  0  0  0999 V2000
   36.1190   29.3050   39.4160 N   0  0  0  0  0  0  0  0  0  0  0  0
   35.1680   28.5050   38.7270 C   0  0  0  0  0  0  0  0  0  0  0  0
   35.6710   28.0390   37.3600 C   0  0  0  0  0  0  0  0  0  0  0  0
   35.8120   29.3060   36.5290 C   0  0  0  0  0  0  0  0  0  0  0  0
   36.9310   30.0810   37.1970 C   0  0  0  0  0  0  0  0  0  0  0  0
   36.6010   30.3650   38.6400 C   0  0  2  0  0  0  0  0  0  0  0  0
   34.3550   29.2510   38.4540 H   0  0  0  0  0  0  0  0  0  0  0  0
   34.6200   27.7650   39.2880 H   0  0  0  0  0  0  0  0  0  0  0  0
   36.6590   27.5660   37.4050 H   0  0  0  0  0  0  0  0  0  0  0  0
   34.8880   27.4040   36.9040 H   0  0  0  0  0  0  0  0  0  0  0  0
   36.1480   28.9780   35.5260 H   0  0  0  0  0  0  0  0  0  0  0  0
   34.8550   29.8850   36.5120 H   0  0  0  0  0  0  0  0  0  0  0  0
   37.0330   31.0520   36.6720 H   0  0  0  0  0  0  0  0  0  0  0  0
   37.8400   29.4720   37.0510 H   0  0  0  0  0  0  0  0  0  0  0  0
   35.6930   31.0470   38.5260 H   0  0  0  0  0  0  0  0  0  0  0  0
   37.6220   31.2280   39.2460 C   0  0  0  0  0  0  0  0  0  0  0  0
   37.3250   32.2330   40.1450 C   0  0  0  0  0  0  0  0  0  0  0  0
   36.3020   32.4280   40.4370 H   0  0  0  0  0  0  0  0  0  0  0  0
   38.3650   33.0080   40.6780 C   0  0  0  0  0  0  0  0  0  0  0  0
   38.0380   33.7850   41.3860 H   0  0  0  0  0  0  0  0  0  0  0  0
   39.6950   32.8330   40.3610 C   0  0  0  0  0  0  0  0  0  0  0  0
   39.9800   31.8300   39.4640 C   0  0  0  0  0  0  0  0  0  0  0  0
   38.9620   31.0810   38.9500 C   0  0  0  0  0  0  0  0  0  0  0  0
   39.2440   30.2910   38.2380 H   0  0  0  0  0  0  0  0  0  0  0  0
   41.6700   31.5670   39.0250 S   0  0  0  0  0  0  0  0  0  0  0  0
   42.6240   32.7570   39.9250 C   0  0  0  0  0  0  0  0  0  0  0  0
   43.9770   32.7080   39.7120 C   0  0  0  0  0  0  0  0  0  0  0  0
   44.4590   32.0200   39.0610 H   0  0  0  0  0  0  0  0  0  0  0  0
   44.7830   33.6230   40.3950 C   0  0  0  0  0  0  0  0  0  0  0  0
   45.8500   33.6110   40.2490 H   0  0  0  0  0  0  0  0  0  0  0  0
   44.2030   34.5360   41.2500 C   0  0  0  0  0  0  0  0  0  0  0  0
   44.8100   35.2390   41.7770 H   0  0  0  0  0  0  0  0  0  0  0  0
   42.8320   34.5020   41.3940 C   0  0  0  0  0  0  0  0  0  0  0  0
   42.4290   35.2540   42.0910 H   0  0  0  0  0  0  0  0  0  0  0  0
   41.9720   33.6290   40.7540 C   0  0  0  0  0  0  0  0  0  0  0  0
   40.6000   33.7090   40.9960 N   0  0  0  0  0  0  0  0  0  0  0  0
   40.2710   34.4380   41.6640 H   0  0  0  0  0  0  0  0  0  0  0  0
   36.9940   28.6060   40.2950 C   0  0  0  0  0  0  0  0  0  0  0  0
   38.0360   28.8660   40.0970 H   0  0  0  0  0  0  0  0  0  0  0  0
   36.8390   27.5010   40.1300 H   0  0  0  0  0  0  0  0  0  0  0  0
   37.0180   27.9570   42.8250 C   0  0  1  0  0  0  0  0  0  0  0  0
   37.5800   29.2520   42.7080 C   0  0  0  0  0  0  0  0  0  0  0  0
   36.5630   28.8910   41.6850 C   0  0  1  0  0  0  0  0  0  0  0  0
   36.2630   27.7420   43.6210 H   0  0  0  0  0  0  0  0  0  0  0  0
   38.6230   29.3560   42.3200 H   0  0  0  0  0  0  0  0  0  0  0  0
   37.3640   30.0400   43.4640 H   0  0  0  0  0  0  0  0  0  0  0  0
   35.4890   29.1100   41.8030 H   0  0  0  0  0  0  0  0  0  0  0  0
   39.1140   26.6860   42.3450 C   0  0  0  0  0  0  0  0  0  0  0  0
   37.6910   26.6880   42.4200 C   0  0  0  0  0  0  0  0  0  0  0  0
   37.0000   25.5440   42.1170 C   0  0  0  0  0  0  0  0  0  0  0  0
   37.7240   24.4440   41.7540 N   0  0  0  0  0  0  0  0  0  0  0  0
   39.0890   24.4590   41.6890 C   0  0  0  0  0  0  0  0  0  0  0  0
   39.8070   25.5850   41.9840 N   0  0  0  0  0  0  0  0  0  0  0  0
   39.7150   27.5490   42.5680 H   0  0  0  0  0  0  0  0  0  0  0  0
   35.9340   25.5360   42.1700 H   0  0  0  0  0  0  0  0  0  0  0  0
   39.4430   23.4930   41.3840 H   0  0  0  0  0  0  0  0  0  0  0  0
  1 38  1  0  0  0  0
  2  8  1  0  0  0  0
  2  1  1  0  0  0  0
  3  9  1  0  0  0  0
  3  2  1  0  0  0  0
  4  5  1  0  0  0  0
  4  3  1  0  0  0  0
  5  6  1  0  0  0  0
  6 15  1  6  0  0  0
  6 16  1  0  0  0  0
  6  1  1  0  0  0  0
  7  2  1  0  0  0  0
 10  3  1  0  0  0  0
 11  4  1  0  0  0  0
 12  4  1  0  0  0  0
 13  5  1  0  0  0  0
 14  5  1  0  0  0  0
 16 17  1  0  0  0  0
 17 18  1  0  0  0  0
 17 19  2  0  0  0  0
 19 20  1  0  0  0  0
 21 19  1  0  0  0  0
 21 36  1  0  0  0  0
 22 21  2  0  0  0  0
 23 16  2  0  0  0  0
 23 22  1  0  0  0  0
 24 23  1  0  0  0  0
 25 22  1  0  0  0  0
 25 26  1  0  0  0  0
 26 35  1  0  0  0  0
 27 26  2  0  0  0  0
 27 29  1  0  0  0  0
 28 27  1  0  0  0  0
 29 31  2  0  0  0  0
 30 29  1  0  0  0  0
 31 33  1  0  0  0  0
 31 32  1  0  0  0  0
 33 34  1  0  0  0  0
 35 36  1  0  0  0  0
 35 33  2  0  0  0  0
 36 37  1  0  0  0  0
 38 43  1  0  0  0  0
 39 38  1  0  0  0  0
 40 38  1  0  0  0  0
 41 44  1  1  0  0  0
 42 41  1  0  0  0  0
 42 46  1  0  0  0  0
 43 47  1  1  0  0  0
 43 42  1  0  0  0  0
 43 41  1  0  0  0  0
 45 42  1  0  0  0  0
 48 49  1  0  0  0  0
 48 54  1  0  0  0  0
 49 41  1  0  0  0  0
 50 55  1  0  0  0  0
 50 49  2  0  0  0  0
 51 50  1  0  0  0  0
 52 51  2  0  0  0  0
 52 53  1  0  0  0  0
 53 48  2  0  0  0  0
 56 52  1  0  0  0  0
M  END
>  <minimizedAffinity>
-6.67415667

$$$$

 OpenBabel03252500333D

 56 61  0  0  1  0  0  0  0  0999 V2000
   41.3530   33.1330   40.4940 N   0  0  0  0  0  0  0  0  0  0  0  0
   42.3520   34.0810   40.1460 C   0  0  0  0  0  0  0  0  0  0  0  0
   43.5200   33.4530   39.3830 C   0  0  0  0  0  0  0  0  0  0  0  0
   44.1850   32.5070   40.3720 C   0  0  0  0  0  0  0  0  0  0  0  0
   43.1550   31.4230   40.6200 C   0  0  0  0  0  0  0  0  0  0  0  0
   41.8720   32.0120   41.1510 C   0  0  2  0  0  0  0  0  0  0  0  0
   42.8190   34.3410   41.1490 H   0  0  0  0  0  0  0  0  0  0  0  0
   42.0370   35.0460   39.7850 H   0  0  0  0  0  0  0  0  0  0  0  0
   43.1970   32.8540   38.5230 H   0  0  0  0  0  0  0  0  0  0  0  0
   44.2350   34.2570   39.1280 H   0  0  0  0  0  0  0  0  0  0  0  0
   45.0510   32.0680   39.8380 H   0  0  0  0  0  0  0  0  0  0  0  0
   44.4650   33.0410   41.3140 H   0  0  0  0  0  0  0  0  0  0  0  0
   43.5610   30.7370   41.3910 H   0  0  0  0  0  0  0  0  0  0  0  0
   43.0460   30.8930   39.6580 H   0  0  0  0  0  0  0  0  0  0  0  0
   42.2230   32.4280   42.1540 H   0  0  0  0  0  0  0  0  0  0  0  0
   40.9260   30.9510   41.5150 C   0  0  0  0  0  0  0  0  0  0  0  0
   40.0640   31.0440   42.5900 C   0  0  0  0  0  0  0  0  0  0  0  0
   40.0600   31.9240   43.2200 H   0  0  0  0  0  0  0  0  0  0  0  0
   39.1890   29.9830   42.8640 C   0  0  0  0  0  0  0  0  0  0  0  0
   38.5380   30.1430   43.7370 H   0  0  0  0  0  0  0  0  0  0  0  0
   39.1280   28.8250   42.1180 C   0  0  0  0  0  0  0  0  0  0  0  0
   39.9910   28.7420   41.0510 C   0  0  0  0  0  0  0  0  0  0  0  0
   40.8380   29.7790   40.7920 C   0  0  0  0  0  0  0  0  0  0  0  0
   41.5080   29.6620   39.9250 H   0  0  0  0  0  0  0  0  0  0  0  0
   39.9510   27.2780   40.0650 S   0  0  0  0  0  0  0  0  0  0  0  0
   38.7140   26.2220   40.7670 C   0  0  0  0  0  0  0  0  0  0  0  0
   38.5340   25.0220   40.1300 C   0  0  0  0  0  0  0  0  0  0  0  0
   39.0790   24.7090   39.2720 H   0  0  0  0  0  0  0  0  0  0  0  0
   37.5710   24.1450   40.6370 C   0  0  0  0  0  0  0  0  0  0  0  0
   37.4060   23.1940   40.1590 H   0  0  0  0  0  0  0  0  0  0  0  0
   36.8400   24.5070   41.7490 C   0  0  0  0  0  0  0  0  0  0  0  0
   36.1010   23.8460   42.1440 H   0  0  0  0  0  0  0  0  0  0  0  0
   37.0970   25.7380   42.3150 C   0  0  0  0  0  0  0  0  0  0  0  0
   36.4810   25.9690   43.1980 H   0  0  0  0  0  0  0  0  0  0  0  0
   38.0310   26.6560   41.8710 C   0  0  0  0  0  0  0  0  0  0  0  0
   38.1850   27.8670   42.5460 N   0  0  0  0  0  0  0  0  0  0  0  0
   37.5770   28.0370   43.3750 H   0  0  0  0  0  0  0  0  0  0  0  0
   40.2890   32.9850   39.5600 C   0  0  0  0  0  0  0  0  0  0  0  0
   39.8080   32.0100   39.6650 H   0  0  0  0  0  0  0  0  0  0  0  0
   40.7230   33.0860   38.5230 H   0  0  0  0  0  0  0  0  0  0  0  0
   37.8440   33.8670   39.8220 C   0  0  1  0  0  0  0  0  0  0  0  0
   38.5590   34.2280   40.9900 C   0  0  0  0  0  0  0  0  0  0  0  0
   39.3620   34.1280   39.7430 C   0  0  1  0  0  0  0  0  0  0  0  0
   37.1850   34.6130   39.3130 H   0  0  0  0  0  0  0  0  0  0  0  0
   38.7770   33.4430   41.7560 H   0  0  0  0  0  0  0  0  0  0  0  0
   38.3970   35.2150   41.4780 H   0  0  0  0  0  0  0  0  0  0  0  0
   39.5470   34.9880   39.0770 H   0  0  0  0  0  0  0  0  0  0  0  0
   36.9400   31.6580   40.5560 C   0  0  0  0  0  0  0  0  0  0  0  0
   37.3860   32.4870   39.4870 C   0  0  0  0  0  0  0  0  0  0  0  0
   37.3830   31.9940   38.2070 C   0  0  0  0  0  0  0  0  0  0  0  0
   36.9450   30.7130   38.0230 N   0  0  0  0  0  0  0  0  0  0  0  0
   36.5200   29.9320   39.0600 C   0  0  0  0  0  0  0  0  0  0  0  0
   36.5110   30.3940   40.3480 N   0  0  0  0  0  0  0  0  0  0  0  0
   36.9180   31.9820   41.5810 H   0  0  0  0  0  0  0  0  0  0  0  0
   37.7150   32.6080   37.4010 H   0  0  0  0  0  0  0  0  0  0  0  0
   36.2240   28.9710   38.6860 H   0  0  0  0  0  0  0  0  0  0  0  0
  1  6  1  0  0  0  0
  2  1  1  0  0  0  0
  2  7  1  0  0  0  0
  3  2  1  0  0  0  0
  3  4  1  0  0  0  0
  4  5  1  0  0  0  0
  4 12  1  0  0  0  0
  5  6  1  0  0  0  0
  5 13  1  0  0  0  0
  6 16  1  0  0  0  0
  6 15  1  1  0  0  0
  8  2  1  0  0  0  0
  9  3  1  0  0  0  0
 10  3  1  0  0  0  0
 11  4  1  0  0  0  0
 14  5  1  0  0  0  0
 16 17  1  0  0  0  0
 17 19  2  0  0  0  0
 17 18  1  0  0  0  0
 19 20  1  0  0  0  0
 21 36  1  0  0  0  0
 21 19  1  0  0  0  0
 22 21  2  0  0  0  0
 23 22  1  0  0  0  0
 23 16  2  0  0  0  0
 24 23  1  0  0  0  0
 25 26  1  0  0  0  0
 25 22  1  0  0  0  0
 26 35  1  0  0  0  0
 27 29  1  0  0  0  0
 27 26  2  0  0  0  0
 28 27  1  0  0  0  0
 29 31  2  0  0  0  0
 30 29  1  0  0  0  0
 31 32  1  0  0  0  0
 31 33  1  0  0  0  0
 33 34  1  0  0  0  0
 35 33  2  0  0  0  0
 35 36  1  0  0  0  0
 36 37  1  0  0  0  0
 38 39  1  0  0  0  0
 38 43  1  0  0  0  0
 38  1  1  0  0  0  0
 40 38  1  0  0  0  0
 41 44  1  6  0  0  0
 41 42  1  0  0  0  0
 42 46  1  0  0  0  0
 42 45  1  0  0  0  0
 43 47  1  6  0  0  0
 43 41  1  0  0  0  0
 43 42  1  0  0  0  0
 48 54  1  0  0  0  0
 49 41  1  0  0  0  0
 49 48  2  0  0  0  0
 50 49  1  0  0  0  0
 51 50  2  0  0  0  0
 51 52  1  0  0  0  0
 52 53  2  0  0  0  0
 53 48  1  0  0  0  0
 55 50  1  0  0  0  0
 56 52  1  0  0  0  0
M  END
>  <minimizedAffinity>
-6.42888212

$$$$

 OpenBabel03252500333D

 56 61  0  0  1  0  0  0  0  0999 V2000
   37.6020   29.0250   41.3690 N   0  0  0  0  0  0  0  0  0  0  0  0
   36.8970   28.6390   42.5400 C   0  0  0  0  0  0  0  0  0  0  0  0
   37.8290   28.2560   43.6900 C   0  0  0  0  0  0  0  0  0  0  0  0
   38.5510   27.0010   43.2220 C   0  0  0  0  0  0  0  0  0  0  0  0
   39.4100   27.4620   42.0610 C   0  0  0  0  0  0  0  0  0  0  0  0
   38.5630   28.0850   40.9800 C   0  0  2  0  0  0  0  0  0  0  0  0
   36.4360   27.6420   42.2460 H   0  0  0  0  0  0  0  0  0  0  0  0
   36.0300   29.2140   42.8270 H   0  0  0  0  0  0  0  0  0  0  0  0
   38.5920   29.0160   43.8950 H   0  0  0  0  0  0  0  0  0  0  0  0
   37.2040   27.9970   44.5660 H   0  0  0  0  0  0  0  0  0  0  0  0
   39.2090   26.6970   44.0600 H   0  0  0  0  0  0  0  0  0  0  0  0
   37.8240   26.2090   42.9140 H   0  0  0  0  0  0  0  0  0  0  0  0
   39.9110   26.5710   41.6320 H   0  0  0  0  0  0  0  0  0  0  0  0
   40.1580   28.1460   42.5000 H   0  0  0  0  0  0  0  0  0  0  0  0
   37.9400   27.1880   40.6480 H   0  0  0  0  0  0  0  0  0  0  0  0
   39.3790   28.4080   39.8030 C   0  0  0  0  0  0  0  0  0  0  0  0
   38.9190   28.2820   38.5070 C   0  0  0  0  0  0  0  0  0  0  0  0
   37.9170   27.9250   38.3090 H   0  0  0  0  0  0  0  0  0  0  0  0
   39.7660   28.6170   37.4420 C   0  0  0  0  0  0  0  0  0  0  0  0
   39.3180   28.4870   36.4450 H   0  0  0  0  0  0  0  0  0  0  0  0
   41.0560   29.0760   37.6000 C   0  0  0  0  0  0  0  0  0  0  0  0
   41.5050   29.1970   38.8940 C   0  0  0  0  0  0  0  0  0  0  0  0
   40.6740   28.8690   39.9250 C   0  0  0  0  0  0  0  0  0  0  0  0
   41.0820   28.9850   40.9410 H   0  0  0  0  0  0  0  0  0  0  0  0
   43.1520   29.7810   39.1490 S   0  0  0  0  0  0  0  0  0  0  0  0
   43.8440   30.0770   37.5460 C   0  0  0  0  0  0  0  0  0  0  0  0
   45.1340   30.5390   37.5390 C   0  0  0  0  0  0  0  0  0  0  0  0
   45.7130   30.7210   38.4110 H   0  0  0  0  0  0  0  0  0  0  0  0
   45.7350   30.7920   36.3030 C   0  0  0  0  0  0  0  0  0  0  0  0
   46.7480   31.1560   36.2630 H   0  0  0  0  0  0  0  0  0  0  0  0
   45.0240   30.5710   35.1420 C   0  0  0  0  0  0  0  0  0  0  0  0
   45.4730   30.7620   34.1920 H   0  0  0  0  0  0  0  0  0  0  0  0
   43.7310   30.1040   35.2590 C   0  0  0  0  0  0  0  0  0  0  0  0
   43.2160   29.9490   34.2980 H   0  0  0  0  0  0  0  0  0  0  0  0
   43.0710   29.8330   36.4430 C   0  0  0  0  0  0  0  0  0  0  0  0
   41.7590   29.3630   36.4100 N   0  0  0  0  0  0  0  0  0  0  0  0
   41.3170   29.2330   35.4760 H   0  0  0  0  0  0  0  0  0  0  0  0
   37.8700   30.4170   41.2370 C   0  0  0  0  0  0  0  0  0  0  0  0
   38.8260   30.5860   40.7380 H   0  0  0  0  0  0  0  0  0  0  0  0
   37.8970   30.8630   42.2740 H   0  0  0  0  0  0  0  0  0  0  0  0
   36.9670   32.1560   39.5100 C   0  0  1  0  0  0  0  0  0  0  0  0
   36.5710   30.8680   39.0710 C   0  0  0  0  0  0  0  0  0  0  0  0
   36.7170   31.0360   40.5410 C   0  0  1  0  0  0  0  0  0  0  0  0
   36.2350   33.0000   39.5070 H   0  0  0  0  0  0  0  0  0  0  0  0
   37.3330   30.2020   38.5950 H   0  0  0  0  0  0  0  0  0  0  0  0
   35.5690   30.7010   38.6190 H   0  0  0  0  0  0  0  0  0  0  0  0
   35.8800   31.3300   41.1970 H   0  0  0  0  0  0  0  0  0  0  0  0
   38.6770   33.8060   40.2760 C   0  0  0  0  0  0  0  0  0  0  0  0
   38.3550   32.6990   39.4390 C   0  0  0  0  0  0  0  0  0  0  0  0
   39.3150   32.1830   38.6070 C   0  0  0  0  0  0  0  0  0  0  0  0
   40.5500   32.7670   38.6260 N   0  0  0  0  0  0  0  0  0  0  0  0
   40.8420   33.8280   39.4360 C   0  0  0  0  0  0  0  0  0  0  0  0
   39.9060   34.3660   40.2760 N   0  0  0  0  0  0  0  0  0  0  0  0
   37.9720   34.2580   40.9490 H   0  0  0  0  0  0  0  0  0  0  0  0
   39.0820   31.3540   37.9770 H   0  0  0  0  0  0  0  0  0  0  0  0
   41.8630   34.1210   39.2850 H   0  0  0  0  0  0  0  0  0  0  0  0
  1  2  1  0  0  0  0
  2  8  1  0  0  0  0
  2  3  1  0  0  0  0
  3  9  1  0  0  0  0
  3 10  1  0  0  0  0
  4  3  1  0  0  0  0
  4 11  1  0  0  0  0
  5 14  1  0  0  0  0
  5  4  1  0  0  0  0
  6 15  1  6  0  0  0
  6  1  1  0  0  0  0
  6  5  1  0  0  0  0
  7  2  1  0  0  0  0
 12  4  1  0  0  0  0
 13  5  1  0  0  0  0
 16 23  1  0  0  0  0
 16  6  1  0  0  0  0
 17 16  2  0  0  0  0
 18 17  1  0  0  0  0
 19 21  2  0  0  0  0
 19 17  1  0  0  0  0
 20 19  1  0  0  0  0
 21 22  1  0  0  0  0
 22 25  1  0  0  0  0
 22 23  2  0  0  0  0
 23 24  1  0  0  0  0
 26 25  1  0  0  0  0
 27 26  1  0  0  0  0
 27 28  1  0  0  0  0
 29 27  2  0  0  0  0
 30 29  1  0  0  0  0
 31 33  2  0  0  0  0
 31 29  1  0  0  0  0
 32 31  1  0  0  0  0
 33 35  1  0  0  0  0
 34 33  1  0  0  0  0
 35 26  2  0  0  0  0
 36 35  1  0  0  0  0
 36 21  1  0  0  0  0
 37 36  1  0  0  0  0
 38  1  1  0  0  0  0
 38 40  1  0  0  0  0
 39 38  1  0  0  0  0
 41 44  1  6  0  0  0
 41 43  1  0  0  0  0
 42 41  1  0  0  0  0
 42 43  1  0  0  0  0
 43 47  1  1  0  0  0
 43 38  1  0  0  0  0
 45 42  1  0  0  0  0
 46 42  1  0  0  0  0
 48 54  1  0  0  0  0
 49 41  1  0  0  0  0
 49 48  2  0  0  0  0
 50 51  2  0  0  0  0
 50 49  1  0  0  0  0
 51 52  1  0  0  0  0
 52 53  2  0  0  0  0
 53 48  1  0  0  0  0
 55 50  1  0  0  0  0
 56 52  1  0  0  0  0
M  END
>  <minimizedAffinity>
-6.39372206

$$$$

 OpenBabel03252500333D

 56 61  0  0  1  0  0  0  0  0999 V2000
   36.3510   25.3310   39.1460 N   0  0  0  0  0  0  0  0  0  0  0  0
   36.0920   24.0420   38.6080 C   0  0  0  0  0  0  0  0  0  0  0  0
   36.4820   23.9300   37.1330 C   0  0  0  0  0  0  0  0  0  0  0  0
   35.5420   24.8730   36.3960 C   0  0  0  0  0  0  0  0  0  0  0  0
   35.9320   26.2570   36.8760 C   0  0  0  0  0  0  0  0  0  0  0  0
   35.8030   26.3620   38.3740 C   0  0  2  0  0  0  0  0  0  0  0  0
   34.9560   24.0030   38.5710 H   0  0  0  0  0  0  0  0  0  0  0  0
   36.3300   23.1800   39.2100 H   0  0  0  0  0  0  0  0  0  0  0  0
   37.5060   24.2670   36.9340 H   0  0  0  0  0  0  0  0  0  0  0  0
   36.2750   22.8950   36.8010 H   0  0  0  0  0  0  0  0  0  0  0  0
   35.7960   24.7780   35.3210 H   0  0  0  0  0  0  0  0  0  0  0  0
   34.4740   24.6370   36.6250 H   0  0  0  0  0  0  0  0  0  0  0  0
   35.2310   26.9860   36.4210 H   0  0  0  0  0  0  0  0  0  0  0  0
   36.9550   26.4250   36.4960 H   0  0  0  0  0  0  0  0  0  0  0  0
   34.6780   26.2260   38.5070 H   0  0  0  0  0  0  0  0  0  0  0  0
   36.0520   27.7380   38.8220 C   0  0  0  0  0  0  0  0  0  0  0  0
   35.1140   28.4940   39.4970 C   0  0  0  0  0  0  0  0  0  0  0  0
   34.1360   28.0890   39.7210 H   0  0  0  0  0  0  0  0  0  0  0  0
   35.4370   29.8000   39.8910 C   0  0  0  0  0  0  0  0  0  0  0  0
   34.6320   30.3280   40.4230 H   0  0  0  0  0  0  0  0  0  0  0  0
   36.6550   30.3970   39.6450 C   0  0  0  0  0  0  0  0  0  0  0  0
   37.5820   29.6370   38.9720 C   0  0  0  0  0  0  0  0  0  0  0  0
   37.2590   28.3670   38.5920 C   0  0  0  0  0  0  0  0  0  0  0  0
   38.0360   27.8010   38.0570 H   0  0  0  0  0  0  0  0  0  0  0  0
   39.1580   30.3580   38.6330 S   0  0  0  0  0  0  0  0  0  0  0  0
   39.1250   31.9980   39.3020 C   0  0  0  0  0  0  0  0  0  0  0  0
   40.2740   32.7240   39.1350 C   0  0  0  0  0  0  0  0  0  0  0  0
   41.1470   32.3660   38.6450 H   0  0  0  0  0  0  0  0  0  0  0  0
   40.3090   34.0260   39.6430 C   0  0  0  0  0  0  0  0  0  0  0  0
   41.1980   34.6230   39.5280 H   0  0  0  0  0  0  0  0  0  0  0  0
   39.2010   34.5350   40.2870 C   0  0  0  0  0  0  0  0  0  0  0  0
   39.2170   35.5280   40.6790 H   0  0  0  0  0  0  0  0  0  0  0  0
   38.0940   33.7220   40.4030 C   0  0  0  0  0  0  0  0  0  0  0  0
   37.2430   34.1840   40.9270 H   0  0  0  0  0  0  0  0  0  0  0  0
   37.9860   32.4280   39.9280 C   0  0  0  0  0  0  0  0  0  0  0  0
   36.7990   31.7200   40.1170 N   0  0  0  0  0  0  0  0  0  0  0  0
   36.0240   32.2020   40.6190 H   0  0  0  0  0  0  0  0  0  0  0  0
   37.6220   25.4990   39.7650 C   0  0  0  0  0  0  0  0  0  0  0  0
   37.8090   26.5500   39.9960 H   0  0  0  0  0  0  0  0  0  0  0  0
   38.4080   25.1220   39.0480 H   0  0  0  0  0  0  0  0  0  0  0  0
   37.8660   25.2270   42.3510 C   0  0  1  0  0  0  0  0  0  0  0  0
   36.6030   24.7050   41.9810 C   0  0  0  0  0  0  0  0  0  0  0  0
   37.6700   24.6110   40.9510 C   0  0  1  0  0  0  0  0  0  0  0  0
   38.5240   24.6600   43.0550 H   0  0  0  0  0  0  0  0  0  0  0  0
   35.7740   25.4170   41.7380 H   0  0  0  0  0  0  0  0  0  0  0  0
   36.2000   23.7870   42.4620 H   0  0  0  0  0  0  0  0  0  0  0  0
   38.3280   23.7320   40.8470 H   0  0  0  0  0  0  0  0  0  0  0  0
   37.1780   27.6020   42.7040 C   0  0  0  0  0  0  0  0  0  0  0  0
   38.2180   26.6760   42.3990 C   0  0  0  0  0  0  0  0  0  0  0  0
   39.4850   27.1430   42.1590 C   0  0  0  0  0  0  0  0  0  0  0  0
   39.6850   28.4930   42.2270 N   0  0  0  0  0  0  0  0  0  0  0  0
   38.6770   29.3660   42.5220 C   0  0  0  0  0  0  0  0  0  0  0  0
   37.4030   28.9320   42.7650 N   0  0  0  0  0  0  0  0  0  0  0  0
   36.1650   27.3030   42.9010 H   0  0  0  0  0  0  0  0  0  0  0  0
   40.2690   26.4580   41.9300 H   0  0  0  0  0  0  0  0  0  0  0  0
   39.0600   30.3680   42.5200 H   0  0  0  0  0  0  0  0  0  0  0  0
  1 38  1  0  0  0  0
  2  1  1  0  0  0  0
  2  8  1  0  0  0  0
  3  2  1  0  0  0  0
  4 12  1  0  0  0  0
  4  5  1  0  0  0  0
  4  3  1  0  0  0  0
  5  6  1  0  0  0  0
  6 15  1  1  0  0  0
  6 16  1  0  0  0  0
  6  1  1  0  0  0  0
  7  2  1  0  0  0  0
  9  3  1  0  0  0  0
 10  3  1  0  0  0  0
 11  4  1  0  0  0  0
 13  5  1  0  0  0  0
 14  5  1  0  0  0  0
 16 17  1  0  0  0  0
 17 18  1  0  0  0  0
 17 19  2  0  0  0  0
 19 20  1  0  0  0  0
 21 19  1  0  0  0  0
 21 36  1  0  0  0  0
 22 21  2  0  0  0  0
 23 16  2  0  0  0  0
 23 22  1  0  0  0  0
 24 23  1  0  0  0  0
 25 22  1  0  0  0  0
 25 26  1  0  0  0  0
 26 35  1  0  0  0  0
 27 26  2  0  0  0  0
 27 29  1  0  0  0  0
 28 27  1  0  0  0  0
 29 31  2  0  0  0  0
 30 29  1  0  0  0  0
 31 33  1  0  0  0  0
 31 32  1  0  0  0  0
 33 34  1  0  0  0  0
 35 36  1  0  0  0  0
 35 33  2  0  0  0  0
 36 37  1  0  0  0  0
 38 39  1  0  0  0  0
 38 43  1  0  0  0  0
 40 38  1  0  0  0  0
 41 49  1  0  0  0  0
 41 44  1  1  0  0  0
 42 41  1  0  0  0  0
 42 46  1  0  0  0  0
 43 47  1  6  0  0  0
 43 42  1  0  0  0  0
 43 41  1  0  0  0  0
 45 42  1  0  0  0  0
 48 53  1  0  0  0  0
 48 54  1  0  0  0  0
 49 48  2  0  0  0  0
 50 51  2  0  0  0  0
 50 49  1  0  0  0  0
 51 52  1  0  0  0  0
 52 53  2  0  0  0  0
 55 50  1  0  0  0  0
 56 52  1  0  0  0  0
M  END
>  <minimizedAffinity>
-6.31328106

$$$$

 OpenBabel03252500333D

 56 61  0  0  1  0  0  0  0  0999 V2000
   39.3250   31.3010   39.2870 N   0  0  0  0  0  0  0  0  0  0  0  0
   39.6430   32.6840   39.2210 C   0  0  0  0  0  0  0  0  0  0  0  0
   38.7180   33.5430   40.0850 C   0  0  0  0  0  0  0  0  0  0  0  0
   37.3410   33.4130   39.4510 C   0  0  0  0  0  0  0  0  0  0  0  0
   36.9570   31.9620   39.6590 C   0  0  0  0  0  0  0  0  0  0  0  0
   37.9740   31.0410   39.0340 C   0  0  2  0  0  0  0  0  0  0  0  0
   39.3350   32.9680   38.1640 H   0  0  0  0  0  0  0  0  0  0  0  0
   40.6820   32.9710   39.2400 H   0  0  0  0  0  0  0  0  0  0  0  0
   38.6390   33.1830   41.1170 H   0  0  0  0  0  0  0  0  0  0  0  0
   39.0480   34.5950   39.9990 H   0  0  0  0  0  0  0  0  0  0  0  0
   36.6670   34.0560   40.0520 H   0  0  0  0  0  0  0  0  0  0  0  0
   37.3690   33.6860   38.3670 H   0  0  0  0  0  0  0  0  0  0  0  0
   35.9840   31.7900   39.1550 H   0  0  0  0  0  0  0  0  0  0  0  0
   36.8460   31.8390   40.7510 H   0  0  0  0  0  0  0  0  0  0  0  0
   37.8540   31.3020   37.9290 H   0  0  0  0  0  0  0  0  0  0  0  0
   37.5330   29.6440   39.1210 C   0  0  0  0  0  0  0  0  0  0  0  0
   36.2080   29.2760   39.2430 C   0  0  0  0  0  0  0  0  0  0  0  0
   35.4290   30.0260   39.2860 H   0  0  0  0  0  0  0  0  0  0  0  0
   35.8750   27.9170   39.3160 C   0  0  0  0  0  0  0  0  0  0  0  0
   34.7970   27.7150   39.4110 H   0  0  0  0  0  0  0  0  0  0  0  0
   36.8000   26.8950   39.2720 C   0  0  0  0  0  0  0  0  0  0  0  0
   38.1170   27.2720   39.1510 C   0  0  0  0  0  0  0  0  0  0  0  0
   38.4320   28.5970   39.0820 C   0  0  0  0  0  0  0  0  0  0  0  0
   39.5000   28.8450   38.9840 H   0  0  0  0  0  0  0  0  0  0  0  0
   39.3410   26.0000   39.0920 S   0  0  0  0  0  0  0  0  0  0  0  0
   38.4810   24.4560   39.2140 C   0  0  0  0  0  0  0  0  0  0  0  0
   39.2720   23.3380   39.1860 C   0  0  0  0  0  0  0  0  0  0  0  0
   40.3320   23.3530   39.0980 H   0  0  0  0  0  0  0  0  0  0  0  0
   38.6510   22.0900   39.2780 C   0  0  0  0  0  0  0  0  0  0  0  0
   39.2450   21.1920   39.2590 H   0  0  0  0  0  0  0  0  0  0  0  0
   37.2790   22.0200   39.3950 C   0  0  0  0  0  0  0  0  0  0  0  0
   36.7930   21.0710   39.4660 H   0  0  0  0  0  0  0  0  0  0  0  0
   36.5730   23.2050   39.4140 C   0  0  0  0  0  0  0  0  0  0  0  0
   35.4820   23.0830   39.5080 H   0  0  0  0  0  0  0  0  0  0  0  0
   37.1160   24.4730   39.3270 C   0  0  0  0  0  0  0  0  0  0  0  0
   36.2780   25.5870   39.3590 N   0  0  0  0  0  0  0  0  0  0  0  0
   35.2540   25.4180   39.4490 H   0  0  0  0  0  0  0  0  0  0  0  0
   40.0240   30.5520   40.2760 C   0  0  0  0  0  0  0  0  0  0  0  0
   40.9910   30.2140   39.8990 H   0  0  0  0  0  0  0  0  0  0  0  0
   39.3880   29.6600   40.5480 H   0  0  0  0  0  0  0  0  0  0  0  0
   39.6900   30.8010   42.8550 C   0  0  1  0  0  0  0  0  0  0  0  0
   41.0640   31.0040   42.5780 C   0  0  0  0  0  0  0  0  0  0  0  0
   40.1210   31.3900   41.4950 C   0  0  1  0  0  0  0  0  0  0  0  0
   39.1490   31.4930   43.5450 H   0  0  0  0  0  0  0  0  0  0  0  0
   41.7060   30.1170   42.3490 H   0  0  0  0  0  0  0  0  0  0  0  0
   41.6490   31.7790   43.1190 H   0  0  0  0  0  0  0  0  0  0  0  0
   39.7070   32.4070   41.3950 H   0  0  0  0  0  0  0  0  0  0  0  0
   39.7900   28.3060   42.8870 C   0  0  0  0  0  0  0  0  0  0  0  0
   38.9910   29.4830   42.8190 C   0  0  0  0  0  0  0  0  0  0  0  0
   37.6280   29.3670   42.7210 C   0  0  0  0  0  0  0  0  0  0  0  0
   37.1010   28.1070   42.6930 N   0  0  0  0  0  0  0  0  0  0  0  0
   37.8830   26.9880   42.7600 C   0  0  0  0  0  0  0  0  0  0  0  0
   39.2450   27.0710   42.8580 N   0  0  0  0  0  0  0  0  0  0  0  0
   40.8620   28.3270   42.9640 H   0  0  0  0  0  0  0  0  0  0  0  0
   37.0220   30.2430   42.6700 H   0  0  0  0  0  0  0  0  0  0  0  0
   37.2600   26.1150   42.7210 H   0  0  0  0  0  0  0  0  0  0  0  0
  1 38  1  0  0  0  0
  2  8  1  0  0  0  0
  2  1  1  0  0  0  0
  2  3  1  0  0  0  0
  3  9  1  0  0  0  0
  4  5  1  0  0  0  0
  4 11  1  0  0  0  0
  4  3  1  0  0  0  0
  5 14  1  0  0  0  0
  6 15  1  6  0  0  0
  6 16  1  0  0  0  0
  6  1  1  0  0  0  0
  6  5  1  0  0  0  0
  7  2  1  0  0  0  0
 10  3  1  0  0  0  0
 12  4  1  0  0  0  0
 13  5  1  0  0  0  0
 16 17  1  0  0  0  0
 17 18  1  0  0  0  0
 17 19  2  0  0  0  0
 19 20  1  0  0  0  0
 21 19  1  0  0  0  0
 21 36  1  0  0  0  0
 22 21  2  0  0  0  0
 23 16  2  0  0  0  0
 23 22  1  0  0  0  0
 24 23  1  0  0  0  0
 25 22  1  0  0  0  0
 25 26  1  0  0  0  0
 26 35  1  0  0  0  0
 27 26  2  0  0  0  0
 27 29  1  0  0  0  0
 28 27  1  0  0  0  0
 29 31  2  0  0  0  0
 30 29  1  0  0  0  0
 31 33  1  0  0  0  0
 31 32  1  0  0  0  0
 33 34  1  0  0  0  0
 35 36  1  0  0  0  0
 35 33  2  0  0  0  0
 36 37  1  0  0  0  0
 38 40  1  0  0  0  0
 38 43  1  0  0  0  0
 39 38  1  0  0  0  0
 41 44  1  1  0  0  0
 42 41  1  0  0  0  0
 42 46  1  0  0  0  0
 43 47  1  6  0  0  0
 43 42  1  0  0  0  0
 43 41  1  0  0  0  0
 45 42  1  0  0  0  0
 48 54  1  0  0  0  0
 49 41  1  0  0  0  0
 49 48  2  0  0  0  0
 50 49  1  0  0  0  0
 51 50  2  0  0  0  0
 51 52  1  0  0  0  0
 52 53  2  0  0  0  0
 53 48  1  0  0  0  0
 55 50  1  0  0  0  0
 56 52  1  0  0  0  0
M  END
>  <minimizedAffinity>
-6.26521778

$$$$

 OpenBabel03252500333D

 56 61  0  0  1  0  0  0  0  0999 V2000
   36.3360   28.8210   39.0570 N   0  0  0  0  0  0  0  0  0  0  0  0
   35.4190   27.9990   38.3480 C   0  0  0  0  0  0  0  0  0  0  0  0
   35.8050   27.8170   36.8790 C   0  0  0  0  0  0  0  0  0  0  0  0
   35.6760   29.1990   36.2550 C   0  0  0  0  0  0  0  0  0  0  0  0
   36.7590   30.0240   36.9220 C   0  0  0  0  0  0  0  0  0  0  0  0
   36.5770   30.0420   38.4180 C   0  0  2  0  0  0  0  0  0  0  0  0
   34.4880   28.6480   38.2850 H   0  0  0  0  0  0  0  0  0  0  0  0
   35.0460   27.1120   38.8350 H   0  0  0  0  0  0  0  0  0  0  0  0
   36.8440   27.4930   36.7460 H   0  0  0  0  0  0  0  0  0  0  0  0
   35.0600   27.1470   36.4100 H   0  0  0  0  0  0  0  0  0  0  0  0
   35.9250   29.0740   35.1830 H   0  0  0  0  0  0  0  0  0  0  0  0
   34.6580   29.6270   36.4310 H   0  0  0  0  0  0  0  0  0  0  0  0
   36.6690   31.0660   36.5540 H   0  0  0  0  0  0  0  0  0  0  0  0
   37.7140   29.5840   36.5870 H   0  0  0  0  0  0  0  0  0  0  0  0
   35.5810   30.5920   38.5100 H   0  0  0  0  0  0  0  0  0  0  0  0
   37.5440   30.9480   39.0480 C   0  0  0  0  0  0  0  0  0  0  0  0
   37.1830   31.9400   39.9380 C   0  0  0  0  0  0  0  0  0  0  0  0
   36.1450   32.0900   40.2060 H   0  0  0  0  0  0  0  0  0  0  0  0
   38.1740   32.7580   40.4960 C   0  0  0  0  0  0  0  0  0  0  0  0
   37.7970   33.5200   41.1950 H   0  0  0  0  0  0  0  0  0  0  0  0
   39.5180   32.6410   40.2120 C   0  0  0  0  0  0  0  0  0  0  0  0
   39.8680   31.6510   39.3240 C   0  0  0  0  0  0  0  0  0  0  0  0
   38.8970   30.8600   38.7850 C   0  0  0  0  0  0  0  0  0  0  0  0
   39.2300   30.0820   38.0810 H   0  0  0  0  0  0  0  0  0  0  0  0
   41.5780   31.4610   38.9260 S   0  0  0  0  0  0  0  0  0  0  0  0
   42.4580   32.6910   39.8480 C   0  0  0  0  0  0  0  0  0  0  0  0
   43.8160   32.7010   39.6690 C   0  0  0  0  0  0  0  0  0  0  0  0
   44.3440   32.0340   39.0300 H   0  0  0  0  0  0  0  0  0  0  0  0
   44.5660   33.6490   40.3700 C   0  0  0  0  0  0  0  0  0  0  0  0
   45.6360   33.6830   40.2510 H   0  0  0  0  0  0  0  0  0  0  0  0
   43.9260   34.5360   41.2100 C   0  0  0  0  0  0  0  0  0  0  0  0
   44.4890   35.2640   41.7510 H   0  0  0  0  0  0  0  0  0  0  0  0
   42.5540   34.4430   41.3200 C   0  0  0  0  0  0  0  0  0  0  0  0
   42.1030   35.1760   42.0060 H   0  0  0  0  0  0  0  0  0  0  0  0
   41.7490   33.5340   40.6610 C   0  0  0  0  0  0  0  0  0  0  0  0
   40.3700   33.5550   40.8690 N   0  0  0  0  0  0  0  0  0  0  0  0
   39.9920   34.2690   41.5270 H   0  0  0  0  0  0  0  0  0  0  0  0
   37.3970   28.1380   39.7160 C   0  0  0  0  0  0  0  0  0  0  0  0
   38.2000   28.8270   39.9840 H   0  0  0  0  0  0  0  0  0  0  0  0
   37.7910   27.3490   39.0120 H   0  0  0  0  0  0  0  0  0  0  0  0
   37.4550   27.5980   42.2710 C   0  0  1  0  0  0  0  0  0  0  0  0
   36.2010   28.1910   41.9860 C   0  0  0  0  0  0  0  0  0  0  0  0
   36.8210   27.4180   40.8770 C   0  0  1  0  0  0  0  0  0  0  0  0
   37.5110   26.6840   42.9130 H   0  0  0  0  0  0  0  0  0  0  0  0
   36.1510   29.2960   41.8200 H   0  0  0  0  0  0  0  0  0  0  0  0
   35.2710   27.8280   42.4760 H   0  0  0  0  0  0  0  0  0  0  0  0
   36.6190   26.3470   40.7070 H   0  0  0  0  0  0  0  0  0  0  0  0
   38.7350   29.7040   42.6720 C   0  0  0  0  0  0  0  0  0  0  0  0
   38.7580   28.3230   42.3230 C   0  0  0  0  0  0  0  0  0  0  0  0
   39.9570   27.7190   42.0450 C   0  0  0  0  0  0  0  0  0  0  0  0
   41.0850   28.4870   42.1210 N   0  0  0  0  0  0  0  0  0  0  0  0
   41.0450   29.8100   42.4580 C   0  0  0  0  0  0  0  0  0  0  0  0
   39.8650   30.4410   42.7400 N   0  0  0  0  0  0  0  0  0  0  0  0
   37.8310   30.2380   42.9000 H   0  0  0  0  0  0  0  0  0  0  0  0
   39.9840   26.6860   41.7830 H   0  0  0  0  0  0  0  0  0  0  0  0
   42.0410   30.2100   42.4540 H   0  0  0  0  0  0  0  0  0  0  0  0
  1 38  1  0  0  0  0
  2  8  1  0  0  0  0
  2  1  1  0  0  0  0
  3  2  1  0  0  0  0
  4 12  1  0  0  0  0
  4  3  1  0  0  0  0
  4  5  1  0  0  0  0
  5  6  1  0  0  0  0
  6 15  1  1  0  0  0
  6 16  1  0  0  0  0
  6  1  1  0  0  0  0
  7  2  1  0  0  0  0
  9  3  1  0  0  0  0
 10  3  1  0  0  0  0
 11  4  1  0  0  0  0
 13  5  1  0  0  0  0
 14  5  1  0  0  0  0
 16 17  1  0  0  0  0
 17 18  1  0  0  0  0
 17 19  2  0  0  0  0
 19 20  1  0  0  0  0
 21 19  1  0  0  0  0
 21 36  1  0  0  0  0
 22 21  2  0  0  0  0
 23 16  2  0  0  0  0
 23 22  1  0  0  0  0
 24 23  1  0  0  0  0
 25 22  1  0  0  0  0
 25 26  1  0  0  0  0
 26 35  1  0  0  0  0
 27 26  2  0  0  0  0
 27 29  1  0  0  0  0
 28 27  1  0  0  0  0
 29 31  2  0  0  0  0
 30 29  1  0  0  0  0
 31 33  1  0  0  0  0
 31 32  1  0  0  0  0
 33 34  1  0  0  0  0
 35 36  1  0  0  0  0
 35 33  2  0  0  0  0
 36 37  1  0  0  0  0
 38 39  1  0  0  0  0
 38 43  1  0  0  0  0
 40 38  1  0  0  0  0
 41 49  1  0  0  0  0
 41 44  1  1  0  0  0
 42 41  1  0  0  0  0
 42 46  1  0  0  0  0
 43 47  1  6  0  0  0
 43 42  1  0  0  0  0
 43 41  1  0  0  0  0
 45 42  1  0  0  0  0
 48 53  1  0  0  0  0
 48 54  1  0  0  0  0
 49 48  2  0  0  0  0
 50 51  2  0  0  0  0
 50 49  1  0  0  0  0
 51 52  1  0  0  0  0
 52 53  2  0  0  0  0
 55 50  1  0  0  0  0
 56 52  1  0  0  0  0
M  END
>  <minimizedAffinity>
-6.23529959

$$$$

 OpenBabel03252500333D

 56 61  0  0  1  0  0  0  0  0999 V2000
   38.3170   26.0200   40.0920 N   0  0  0  0  0  0  0  0  0  0  0  0
   37.7500   24.7180   40.0870 C   0  0  0  0  0  0  0  0  0  0  0  0
   36.4860   24.6220   40.9430 C   0  0  0  0  0  0  0  0  0  0  0  0
   36.9490   24.8560   42.3730 C   0  0  0  0  0  0  0  0  0  0  0  0
   37.4180   26.2980   42.3940 C   0  0  0  0  0  0  0  0  0  0  0  0
   38.5140   26.5220   41.3830 C   0  0  2  0  0  0  0  0  0  0  0  0
   38.5030   24.1080   40.6810 H   0  0  0  0  0  0  0  0  0  0  0  0
   37.7100   24.1810   39.1520 H   0  0  0  0  0  0  0  0  0  0  0  0
   35.7490   25.3990   40.7060 H   0  0  0  0  0  0  0  0  0  0  0  0
   36.0950   23.5900   40.8630 H   0  0  0  0  0  0  0  0  0  0  0  0
   36.0460   24.7600   43.0060 H   0  0  0  0  0  0  0  0  0  0  0  0
   37.7680   24.1470   42.6520 H   0  0  0  0  0  0  0  0  0  0  0  0
   37.8330   26.5070   43.4010 H   0  0  0  0  0  0  0  0  0  0  0  0
   36.5120   26.9050   42.2230 H   0  0  0  0  0  0  0  0  0  0  0  0
   39.3390   25.8570   41.8060 H   0  0  0  0  0  0  0  0  0  0  0  0
   39.0560   27.8810   41.4980 C   0  0  0  0  0  0  0  0  0  0  0  0
   38.9060   28.6620   42.6270 C   0  0  0  0  0  0  0  0  0  0  0  0
   38.3640   28.2900   43.4870 H   0  0  0  0  0  0  0  0  0  0  0  0
   39.4610   29.9490   42.6520 C   0  0  0  0  0  0  0  0  0  0  0  0
   39.2930   30.4990   43.5910 H   0  0  0  0  0  0  0  0  0  0  0  0
   40.1630   30.5040   41.6040 C   0  0  0  0  0  0  0  0  0  0  0  0
   40.3060   29.7190   40.4840 C   0  0  0  0  0  0  0  0  0  0  0  0
   39.7630   28.4680   40.4680 C   0  0  0  0  0  0  0  0  0  0  0  0
   39.9080   27.8810   39.5480 H   0  0  0  0  0  0  0  0  0  0  0  0
   41.1980   30.3860   39.1130 S   0  0  0  0  0  0  0  0  0  0  0  0
   41.7110   32.0160   39.5800 C   0  0  0  0  0  0  0  0  0  0  0  0
   42.4250   32.7010   38.6340 C   0  0  0  0  0  0  0  0  0  0  0  0
   42.6760   32.3180   37.6740 H   0  0  0  0  0  0  0  0  0  0  0  0
   42.8580   33.9940   38.9440 C   0  0  0  0  0  0  0  0  0  0  0  0
   43.4220   34.5590   38.2210 H   0  0  0  0  0  0  0  0  0  0  0  0
   42.5570   34.5350   40.1760 C   0  0  0  0  0  0  0  0  0  0  0  0
   42.8830   35.5210   40.4240 H   0  0  0  0  0  0  0  0  0  0  0  0
   41.8320   33.7610   41.0590 C   0  0  0  0  0  0  0  0  0  0  0  0
   41.6250   34.2480   42.0250 H   0  0  0  0  0  0  0  0  0  0  0  0
   41.3720   32.4790   40.8230 C   0  0  0  0  0  0  0  0  0  0  0  0
   40.6470   31.8130   41.8120 N   0  0  0  0  0  0  0  0  0  0  0  0
   40.4780   32.3170   42.7070 H   0  0  0  0  0  0  0  0  0  0  0  0
   37.8890   26.8860   39.0460 C   0  0  0  0  0  0  0  0  0  0  0  0
   38.5230   26.7780   38.1640 H   0  0  0  0  0  0  0  0  0  0  0  0
   37.9460   27.9460   39.4300 H   0  0  0  0  0  0  0  0  0  0  0  0
   35.4370   27.7650   38.8440 C   0  0  1  0  0  0  0  0  0  0  0  0
   35.7980   27.2060   37.5940 C   0  0  0  0  0  0  0  0  0  0  0  0
   36.4560   26.6080   38.7860 C   0  0  1  0  0  0  0  0  0  0  0  0
   34.4440   27.5290   39.3000 H   0  0  0  0  0  0  0  0  0  0  0  0
   36.4780   27.7830   36.9190 H   0  0  0  0  0  0  0  0  0  0  0  0
   35.0660   26.6160   36.9980 H   0  0  0  0  0  0  0  0  0  0  0  0
   36.0450   25.7380   39.3240 H   0  0  0  0  0  0  0  0  0  0  0  0
   36.5890   29.9500   38.4740 C   0  0  0  0  0  0  0  0  0  0  0  0
   35.9350   29.0660   39.3800 C   0  0  0  0  0  0  0  0  0  0  0  0
   35.7930   29.4330   40.6930 C   0  0  0  0  0  0  0  0  0  0  0  0
   36.2930   30.6480   41.0690 N   0  0  0  0  0  0  0  0  0  0  0  0
   36.9170   31.4830   40.1860 C   0  0  0  0  0  0  0  0  0  0  0  0
   37.0750   31.1460   38.8700 N   0  0  0  0  0  0  0  0  0  0  0  0
   36.7350   29.7230   37.4340 H   0  0  0  0  0  0  0  0  0  0  0  0
   35.3040   28.7780   41.3780 H   0  0  0  0  0  0  0  0  0  0  0  0
   37.2270   32.3750   40.6970 H   0  0  0  0  0  0  0  0  0  0  0  0
  1  6  1  0  0  0  0
  2  1  1  0  0  0  0
  2  7  1  0  0  0  0
  2  3  1  0  0  0  0
  3  4  1  0  0  0  0
  4  5  1  0  0  0  0
  4 12  1  0  0  0  0
  4 11  1  0  0  0  0
  5 13  1  0  0  0  0
  6 16  1  0  0  0  0
  6 15  1  1  0  0  0
  6  5  1  0  0  0  0
  8  2  1  0  0  0  0
  9  3  1  0  0  0  0
 10  3  1  0  0  0  0
 14  5  1  0  0  0  0
 16 17  1  0  0  0  0
 17 19  2  0  0  0  0
 17 18  1  0  0  0  0
 19 20  1  0  0  0  0
 21 36  1  0  0  0  0
 21 19  1  0  0  0  0
 22 21  2  0  0  0  0
 23 22  1  0  0  0  0
 23 16  2  0  0  0  0
 24 23  1  0  0  0  0
 25 26  1  0  0  0  0
 25 22  1  0  0  0  0
 26 35  1  0  0  0  0
 27 29  1  0  0  0  0
 27 26  2  0  0  0  0
 28 27  1  0  0  0  0
 29 31  2  0  0  0  0
 30 29  1  0  0  0  0
 31 32  1  0  0  0  0
 31 33  1  0  0  0  0
 33 34  1  0  0  0  0
 35 33  2  0  0  0  0
 35 36  1  0  0  0  0
 36 37  1  0  0  0  0
 38 40  1  0  0  0  0
 38  1  1  0  0  0  0
 39 38  1  0  0  0  0
 41 44  1  1  0  0  0
 41 49  1  0  0  0  0
 42 43  1  0  0  0  0
 42 41  1  0  0  0  0
 43 41  1  0  0  0  0
 43 38  1  0  0  0  0
 43 47  1  1  0  0  0
 45 42  1  0  0  0  0
 46 42  1  0  0  0  0
 48 53  2  0  0  0  0
 48 49  1  0  0  0  0
 49 50  2  0  0  0  0
 50 51  1  0  0  0  0
 50 55  1  0  0  0  0
 52 56  1  0  0  0  0
 52 51  2  0  0  0  0
 53 52  1  0  0  0  0
 54 48  1  0  0  0  0
M  END
>  <minimizedAffinity>
-6.1593256

$$$$

 OpenBabel03252500333D

 56 61  0  0  1  0  0  0  0  0999 V2000
   37.5590   29.6240   41.7960 N   0  0  0  0  0  0  0  0  0  0  0  0
   38.3510   29.5750   42.9750 C   0  0  0  0  0  0  0  0  0  0  0  0
   39.2080   28.3110   43.0570 C   0  0  0  0  0  0  0  0  0  0  0  0
   38.2190   27.1620   43.1870 C   0  0  0  0  0  0  0  0  0  0  0  0
   37.4810   27.1390   41.8630 C   0  0  0  0  0  0  0  0  0  0  0  0
   36.8060   28.4610   41.6000 C   0  0  2  0  0  0  0  0  0  0  0  0
   37.5810   29.4110   43.7950 H   0  0  0  0  0  0  0  0  0  0  0  0
   38.8390   30.4800   43.3000 H   0  0  0  0  0  0  0  0  0  0  0  0
   39.7980   28.1340   42.1510 H   0  0  0  0  0  0  0  0  0  0  0  0
   39.8100   28.3650   43.9840 H   0  0  0  0  0  0  0  0  0  0  0  0
   38.8300   26.2430   43.2770 H   0  0  0  0  0  0  0  0  0  0  0  0
   37.5250   27.3240   44.0480 H   0  0  0  0  0  0  0  0  0  0  0  0
   36.6950   26.3600   41.9240 H   0  0  0  0  0  0  0  0  0  0  0  0
   38.2370   26.8580   41.1080 H   0  0  0  0  0  0  0  0  0  0  0  0
   36.0440   28.4890   42.4490 H   0  0  0  0  0  0  0  0  0  0  0  0
   35.9850   28.3920   40.3850 C   0  0  0  0  0  0  0  0  0  0  0  0
   34.8600   29.1690   40.1890 C   0  0  0  0  0  0  0  0  0  0  0  0
   34.5340   29.8690   40.9460 H   0  0  0  0  0  0  0  0  0  0  0  0
   34.1360   29.0410   38.9950 C   0  0  0  0  0  0  0  0  0  0  0  0
   33.2550   29.6970   38.9230 H   0  0  0  0  0  0  0  0  0  0  0  0
   34.4750   28.1730   37.9790 C   0  0  0  0  0  0  0  0  0  0  0  0
   35.5960   27.4040   38.1850 C   0  0  0  0  0  0  0  0  0  0  0  0
   36.2950   27.5350   39.3490 C   0  0  0  0  0  0  0  0  0  0  0  0
   37.1850   26.8970   39.4630 H   0  0  0  0  0  0  0  0  0  0  0  0
   36.0730   26.2760   36.9120 S   0  0  0  0  0  0  0  0  0  0  0  0
   34.8880   26.4480   35.6060 C   0  0  0  0  0  0  0  0  0  0  0  0
   35.0930   25.6430   34.5170 C   0  0  0  0  0  0  0  0  0  0  0  0
   35.8940   24.9510   34.4220 H   0  0  0  0  0  0  0  0  0  0  0  0
   34.1910   25.7330   33.4530 C   0  0  0  0  0  0  0  0  0  0  0  0
   34.3240   25.1140   32.5820 H   0  0  0  0  0  0  0  0  0  0  0  0
   33.1340   26.6160   33.5300 C   0  0  0  0  0  0  0  0  0  0  0  0
   32.4400   26.6940   32.7230 H   0  0  0  0  0  0  0  0  0  0  0  0
   33.0170   27.3820   34.6710 C   0  0  0  0  0  0  0  0  0  0  0  0
   32.1550   28.0670   34.6720 H   0  0  0  0  0  0  0  0  0  0  0  0
   33.8680   27.3480   35.7610 C   0  0  0  0  0  0  0  0  0  0  0  0
   33.6270   28.1820   36.8520 N   0  0  0  0  0  0  0  0  0  0  0  0
   32.7980   28.8120   36.8030 H   0  0  0  0  0  0  0  0  0  0  0  0
   38.1440   30.2930   40.6840 C   0  0  0  0  0  0  0  0  0  0  0  0
   38.0400   29.7020   39.7730 H   0  0  0  0  0  0  0  0  0  0  0  0
   39.2380   30.4520   40.9130 H   0  0  0  0  0  0  0  0  0  0  0  0
   38.2310   32.7340   39.7590 C   0  0  1  0  0  0  0  0  0  0  0  0
   37.0410   32.1350   39.2800 C   0  0  0  0  0  0  0  0  0  0  0  0
   37.5330   31.6410   40.5930 C   0  0  1  0  0  0  0  0  0  0  0  0
   38.2090   33.7690   40.1800 H   0  0  0  0  0  0  0  0  0  0  0  0
   37.1060   31.3960   38.4430 H   0  0  0  0  0  0  0  0  0  0  0  0
   36.0940   32.7150   39.2140 H   0  0  0  0  0  0  0  0  0  0  0  0
   37.2090   32.0710   41.5550 H   0  0  0  0  0  0  0  0  0  0  0  0
   39.7440   31.9420   37.9380 C   0  0  0  0  0  0  0  0  0  0  0  0
   39.6070   32.4250   39.2710 C   0  0  0  0  0  0  0  0  0  0  0  0
   40.7250   32.5810   40.0490 C   0  0  0  0  0  0  0  0  0  0  0  0
   41.9320   32.2610   39.4940 N   0  0  0  0  0  0  0  0  0  0  0  0
   42.0460   31.7990   38.2140 C   0  0  0  0  0  0  0  0  0  0  0  0
   40.9490   31.6320   37.4130 N   0  0  0  0  0  0  0  0  0  0  0  0
   38.9100   31.7960   37.2770 H   0  0  0  0  0  0  0  0  0  0  0  0
   40.6310   32.9420   41.0480 H   0  0  0  0  0  0  0  0  0  0  0  0
   43.0790   31.6130   37.9920 H   0  0  0  0  0  0  0  0  0  0  0  0
  1  2  1  0  0  0  0
  2  3  1  0  0  0  0
  2  8  1  0  0  0  0
  2  7  1  0  0  0  0
  3  4  1  0  0  0  0
  3 10  1  0  0  0  0
  4 11  1  0  0  0  0
  4 12  1  0  0  0  0
  5 13  1  0  0  0  0
  5  4  1  0  0  0  0
  6  1  1  0  0  0  0
  6  5  1  0  0  0  0
  6 15  1  1  0  0  0
  9  3  1  0  0  0  0
 14  5  1  0  0  0  0
 16  6  1  0  0  0  0
 17 16  1  0  0  0  0
 17 18  1  0  0  0  0
 19 17  2  0  0  0  0
 20 19  1  0  0  0  0
 21 22  2  0  0  0  0
 21 19  1  0  0  0  0
 22 23  1  0  0  0  0
 23 24  1  0  0  0  0
 23 16  2  0  0  0  0
 25 22  1  0  0  0  0
 26 35  1  0  0  0  0
 26 25  1  0  0  0  0
 27 26  2  0  0  0  0
 28 27  1  0  0  0  0
 29 31  2  0  0  0  0
 29 27  1  0  0  0  0
 30 29  1  0  0  0  0
 31 33  1  0  0  0  0
 32 31  1  0  0  0  0
 33 34  1  0  0  0  0
 33 35  2  0  0  0  0
 35 36  1  0  0  0  0
 36 21  1  0  0  0  0
 37 36  1  0  0  0  0
 38 40  1  0  0  0  0
 38  1  1  0  0  0  0
 39 38  1  0  0  0  0
 41 44  1  1  0  0  0
 41 43  1  0  0  0  0
 42 41  1  0  0  0  0
 42 43  1  0  0  0  0
 43 38  1  0  0  0  0
 43 47  1  1  0  0  0
 45 42  1  0  0  0  0
 46 42  1  0  0  0  0
 48 49  1  0  0  0  0
 49 41  1  0  0  0  0
 49 50  2  0  0  0  0
 50 55  1  0  0  0  0
 51 50  1  0  0  0  0
 52 51  2  0  0  0  0
 53 48  2  0  0  0  0
 53 52  1  0  0  0  0
 54 48  1  0  0  0  0
 56 52  1  0  0  0  0
M  END
>  <minimizedAffinity>
-6.03992319

$$$$

 OpenBabel03252500333D

 56 61  0  0  1  0  0  0  0  0999 V2000
   39.5800   27.2760   42.8300 N   0  0  0  0  0  0  0  0  0  0  0  0
   40.4930   26.5840   43.6710 C   0  0  0  0  0  0  0  0  0  0  0  0
   40.8670   25.2050   43.1270 C   0  0  0  0  0  0  0  0  0  0  0  0
   39.5820   24.3930   43.1700 C   0  0  0  0  0  0  0  0  0  0  0  0
   38.6700   25.0600   42.1590 C   0  0  0  0  0  0  0  0  0  0  0  0
   38.4540   26.5110   42.5060 C   0  0  2  0  0  0  0  0  0  0  0  0
   39.8610   26.3320   44.5820 H   0  0  0  0  0  0  0  0  0  0  0  0
   41.3070   27.1400   44.1070 H   0  0  0  0  0  0  0  0  0  0  0  0
   41.2020   25.2330   42.0830 H   0  0  0  0  0  0  0  0  0  0  0  0
   41.5970   24.7480   43.8210 H   0  0  0  0  0  0  0  0  0  0  0  0
   39.8470   23.3810   42.8040 H   0  0  0  0  0  0  0  0  0  0  0  0
   39.1380   24.3940   44.1960 H   0  0  0  0  0  0  0  0  0  0  0  0
   37.6870   24.5490   42.1960 H   0  0  0  0  0  0  0  0  0  0  0  0
   39.1480   24.8960   41.1770 H   0  0  0  0  0  0  0  0  0  0  0  0
   37.9000   26.4170   43.5000 H   0  0  0  0  0  0  0  0  0  0  0  0
   37.4680   27.1190   41.6050 C   0  0  0  0  0  0  0  0  0  0  0  0
   36.5930   28.1110   42.0010 C   0  0  0  0  0  0  0  0  0  0  0  0
   36.6010   28.4810   43.0180 H   0  0  0  0  0  0  0  0  0  0  0  0
   35.6860   28.6390   41.0720 C   0  0  0  0  0  0  0  0  0  0  0  0
   35.0280   29.4250   41.4720 H   0  0  0  0  0  0  0  0  0  0  0  0
   35.6030   28.2280   39.7580 C   0  0  0  0  0  0  0  0  0  0  0  0
   36.4780   27.2390   39.3740 C   0  0  0  0  0  0  0  0  0  0  0  0
   37.3570   26.7310   40.2850 C   0  0  0  0  0  0  0  0  0  0  0  0
   38.0370   25.9420   39.9260 H   0  0  0  0  0  0  0  0  0  0  0  0
   36.4110   26.6770   37.7010 S   0  0  0  0  0  0  0  0  0  0  0  0
   35.1350   27.6080   36.8990 C   0  0  0  0  0  0  0  0  0  0  0  0
   34.9320   27.3090   35.5780 C   0  0  0  0  0  0  0  0  0  0  0  0
   35.4800   26.5770   35.0350 H   0  0  0  0  0  0  0  0  0  0  0  0
   33.9380   28.0110   34.8900 C   0  0  0  0  0  0  0  0  0  0  0  0
   33.7540   27.8000   33.8500 H   0  0  0  0  0  0  0  0  0  0  0  0
   33.2010   28.9700   35.5520 C   0  0  0  0  0  0  0  0  0  0  0  0
   32.4400   29.5130   35.0360 H   0  0  0  0  0  0  0  0  0  0  0  0
   33.4840   29.1950   36.8830 C   0  0  0  0  0  0  0  0  0  0  0  0
   32.8630   29.9720   37.3550 H   0  0  0  0  0  0  0  0  0  0  0  0
   34.4490   28.5430   37.6270 C   0  0  0  0  0  0  0  0  0  0  0  0
   34.6270   28.8740   38.9700 N   0  0  0  0  0  0  0  0  0  0  0  0
   34.0140   29.6160   39.3690 H   0  0  0  0  0  0  0  0  0  0  0  0
   40.1650   28.1350   41.8570 C   0  0  0  0  0  0  0  0  0  0  0  0
   39.5210   28.2280   40.9800 H   0  0  0  0  0  0  0  0  0  0  0  0
   41.1580   27.6910   41.5560 H   0  0  0  0  0  0  0  0  0  0  0  0
   40.2000   30.7450   41.7540 C   0  0  1  0  0  0  0  0  0  0  0  0
   39.3520   30.3680   42.8240 C   0  0  0  0  0  0  0  0  0  0  0  0
   40.4630   29.4290   42.5160 C   0  0  1  0  0  0  0  0  0  0  0  0
   40.9530   31.5580   41.8950 H   0  0  0  0  0  0  0  0  0  0  0  0
   38.3290   29.9800   42.5930 H   0  0  0  0  0  0  0  0  0  0  0  0
   39.3450   30.9400   43.7780 H   0  0  0  0  0  0  0  0  0  0  0  0
   41.4490   29.4860   43.0050 H   0  0  0  0  0  0  0  0  0  0  0  0
   38.4860   30.6240   39.9420 C   0  0  0  0  0  0  0  0  0  0  0  0
   39.8630   30.6210   40.3060 C   0  0  0  0  0  0  0  0  0  0  0  0
   40.8170   30.5020   39.3280 C   0  0  0  0  0  0  0  0  0  0  0  0
   40.3880   30.3920   38.0360 N   0  0  0  0  0  0  0  0  0  0  0  0
   39.0630   30.3970   37.7050 C   0  0  0  0  0  0  0  0  0  0  0  0
   38.0870   30.5130   38.6570 N   0  0  0  0  0  0  0  0  0  0  0  0
   37.6890   30.7130   40.6580 H   0  0  0  0  0  0  0  0  0  0  0  0
   41.8500   30.5000   39.5910 H   0  0  0  0  0  0  0  0  0  0  0  0
   38.9600   30.2990   36.6410 H   0  0  0  0  0  0  0  0  0  0  0  0
  1  2  1  0  0  0  0
  2  8  1  0  0  0  0
  2  7  1  0  0  0  0
  3  4  1  0  0  0  0
  3  2  1  0  0  0  0
  3 10  1  0  0  0  0
  4 12  1  0  0  0  0
  5 13  1  0  0  0  0
  5  6  1  0  0  0  0
  5  4  1  0  0  0  0
  6  1  1  0  0  0  0
  6 15  1  1  0  0  0
  9  3  1  0  0  0  0
 11  4  1  0  0  0  0
 14  5  1  0  0  0  0
 16 17  1  0  0  0  0
 16  6  1  0  0  0  0
 17 18  1  0  0  0  0
 19 20  1  0  0  0  0
 19 17  2  0  0  0  0
 21 19  1  0  0  0  0
 22 21  2  0  0  0  0
 22 23  1  0  0  0  0
 23 16  2  0  0  0  0
 24 23  1  0  0  0  0
 25 22  1  0  0  0  0
 26 35  1  0  0  0  0
 26 25  1  0  0  0  0
 27 26  2  0  0  0  0
 28 27  1  0  0  0  0
 29 31  2  0  0  0  0
 29 27  1  0  0  0  0
 30 29  1  0  0  0  0
 31 33  1  0  0  0  0
 32 31  1  0  0  0  0
 33 34  1  0  0  0  0
 33 35  2  0  0  0  0
 35 36  1  0  0  0  0
 36 37  1  0  0  0  0
 36 21  1  0  0  0  0
 38 43  1  0  0  0  0
 38  1  1  0  0  0  0
 39 38  1  0  0  0  0
 40 38  1  0  0  0  0
 41 44  1  1  0  0  0
 41 43  1  0  0  0  0
 41 42  1  0  0  0  0
 42 46  1  0  0  0  0
 43 42  1  0  0  0  0
 43 47  1  1  0  0  0
 45 42  1  0  0  0  0
 48 49  1  0  0  0  0
 48 54  1  0  0  0  0
 49 41  1  0  0  0  0
 50 55  1  0  0  0  0
 50 49  2  0  0  0  0
 51 50  1  0  0  0  0
 52 51  2  0  0  0  0
 52 53  1  0  0  0  0
 53 48  2  0  0  0  0
 56 52  1  0  0  0  0
M  END
>  <minimizedAffinity>
-5.98919344

$$$$
