
 OpenBabel03252504103D

 38 41  0  0  0  0  0  0  0  0999 V2000
   47.3360   31.4360   45.7500 C   0  0  0  0  0  0  0  0  0  0  0  0
   47.2230   31.7910   47.0780 C   0  0  0  0  0  0  0  0  0  0  0  0
   46.7070   32.6870   47.3420 H   0  0  0  0  0  0  0  0  0  0  0  0
   47.7870   30.9640   48.0270 C   0  0  0  0  0  0  0  0  0  0  0  0
   47.6550   31.3130   49.0630 H   0  0  0  0  0  0  0  0  0  0  0  0
   48.4670   29.7940   47.7640 C   0  0  0  0  0  0  0  0  0  0  0  0
   48.5480   29.4920   46.4290 C   0  0  0  0  0  0  0  0  0  0  0  0
   48.0060   30.2790   45.4500 C   0  0  0  0  0  0  0  0  0  0  0  0
   48.1020   29.9870   44.4010 H   0  0  0  0  0  0  0  0  0  0  0  0
   49.4030   28.0030   45.9600 S   0  0  0  0  0  0  0  0  0  0  0  0
   49.9710   27.2390   47.4630 C   0  0  0  0  0  0  0  0  0  0  0  0
   50.6710   26.0650   47.4290 C   0  0  0  0  0  0  0  0  0  0  0  0
   50.8740   25.6040   46.4490 H   0  0  0  0  0  0  0  0  0  0  0  0
   51.1410   25.4170   48.5520 C   0  0  0  0  0  0  0  0  0  0  0  0
   51.6750   24.5070   48.4300 H   0  0  0  0  0  0  0  0  0  0  0  0
   50.8620   26.0320   49.7540 C   0  0  0  0  0  0  0  0  0  0  0  0
   51.2070   25.5670   50.6560 H   0  0  0  0  0  0  0  0  0  0  0  0
   50.1550   27.2170   49.7690 C   0  0  0  0  0  0  0  0  0  0  0  0
   49.9850   27.6270   50.7750 H   0  0  0  0  0  0  0  0  0  0  0  0
   49.6850   27.8650   48.6470 C   0  0  0  0  0  0  0  0  0  0  0  0
   48.9810   29.0700   48.8630 N   0  0  0  0  0  0  0  0  0  0  0  0
   48.8360   29.4310   49.8120 H   0  0  0  0  0  0  0  0  0  0  0  0
   46.9320   34.0320   43.1960 C   0  0  0  0  0  0  0  0  0  0  0  0
   45.6550   33.7720   42.7090 C   0  0  0  0  0  0  0  0  0  0  0  0
   44.9420   32.7010   43.2660 C   0  0  0  0  0  0  0  0  0  0  0  0
   45.5290   31.9740   44.2480 N   0  0  0  0  0  0  0  0  0  0  0  0
   46.7660   32.2600   44.6900 C   0  0  0  0  0  0  0  0  0  0  0  0
   47.4730   33.2800   44.1750 N   0  0  0  0  0  0  0  0  0  0  0  0
   43.9440   32.4880   42.8940 H   0  0  0  0  0  0  0  0  0  0  0  0
   45.0990   34.6250   41.6300 C   0  0  0  0  0  0  0  0  0  0  0  0
   45.0770   35.9520   42.0410 F   0  0  0  0  0  0  0  0  0  0  0  0
   45.9600   34.5760   40.5480 F   0  0  0  0  0  0  0  0  0  0  0  0
   43.8440   34.3080   41.2380 F   0  0  0  0  0  0  0  0  0  0  0  0
   47.6090   35.0630   42.6540 O   0  0  0  0  0  0  0  0  0  0  0  0
   48.8540   35.0300   41.9930 C   0  0  0  0  0  0  0  0  0  0  0  0
   49.8350   35.2120   42.9680 F   0  0  0  0  0  0  0  0  0  0  0  0
   48.9940   33.8420   41.3290 F   0  0  0  0  0  0  0  0  0  0  0  0
   48.9770   36.1140   41.1570 F   0  0  0  0  0  0  0  0  0  0  0  0
  1  2  1  0  0  0  0
  2  3  1  0  0  0  0
  2  4  2  0  0  0  0
  4  5  1  0  0  0  0
  6  4  1  0  0  0  0
  6 21  1  0  0  0  0
  7  6  2  0  0  0  0
  8  1  2  0  0  0  0
  8  7  1  0  0  0  0
  9  8  1  0  0  0  0
 10  7  1  0  0  0  0
 10 11  1  0  0  0  0
 11 20  1  0  0  0  0
 12 11  2  0  0  0  0
 12 14  1  0  0  0  0
 13 12  1  0  0  0  0
 14 16  2  0  0  0  0
 15 14  1  0  0  0  0
 16 18  1  0  0  0  0
 16 17  1  0  0  0  0
 18 19  1  0  0  0  0
 20 21  1  0  0  0  0
 20 18  2  0  0  0  0
 21 22  1  0  0  0  0
 23 28  1  0  0  0  0
 24 23  2  0  0  0  0
 24 25  1  0  0  0  0
 25 26  2  0  0  0  0
 26 27  1  0  0  0  0
 27  1  1  0  0  0  0
 28 27  2  0  0  0  0
 29 25  1  0  0  0  0
 30 31  1  0  0  0  0
 30 24  1  0  0  0  0
 32 30  1  0  0  0  0
 33 30  1  0  0  0  0
 34 23  1  0  0  0  0
 35 34  1  0  0  0  0
 35 36  1  0  0  0  0
 37 35  1  0  0  0  0
 38 35  1  0  0  0  0
M  END
>  <minimizedAffinity>
-5.90894604

>  <minimizedRMSD>
1.70260906

$$$$
