
     RDKit          3D

 37 40  0  0  0  0  0  0  0  0999 V2000
   47.8426   34.7916   42.4149 C   0  0  0  0  0  0  0  0  0  0  0  0
   48.1090   33.5675   43.0692 C   0  0  0  0  0  0  0  0  0  0  0  0
   47.1762   33.1112   44.0139 C   0  0  0  0  0  0  0  0  0  0  0  0
   46.0794   33.8708   44.2405 N   0  0  0  0  0  0  0  0  0  0  0  0
   45.8531   35.0363   43.5990 C   0  0  0  0  0  0  0  0  0  0  0  0
   46.7269   35.4849   42.6996 N   0  0  0  0  0  0  0  0  0  0  0  0
   48.8448   35.2482   41.4229 C   0  0  0  0  0  0  0  0  0  0  0  0
   48.3785   35.1687   40.1357 F   0  0  0  0  0  0  0  0  0  0  0  0
   49.1947   36.5691   41.7318 F   0  0  0  0  0  0  0  0  0  0  0  0
   50.0231   34.5123   41.5808 F   0  0  0  0  0  0  0  0  0  0  0  0
   44.6242   35.8223   43.8972 C   0  0  0  0  0  0  0  0  0  0  0  0
   43.6368   35.5799   42.9773 F   0  0  0  0  0  0  0  0  0  0  0  0
   44.9329   37.1946   43.9199 F   0  0  0  0  0  0  0  0  0  0  0  0
   44.1198   35.5475   45.1503 F   0  0  0  0  0  0  0  0  0  0  0  0
   48.9760   32.9912   42.8736 H   0  0  0  0  0  0  0  0  0  0  0  0
   47.3307   31.8705   44.7554 C   0  0  0  0  0  0  0  0  0  0  0  0
   48.5776   31.2834   44.7494 C   0  0  0  0  0  0  0  0  0  0  0  0
   49.4111   31.7111   44.2242 H   0  0  0  0  0  0  0  0  0  0  0  0
   48.7241   30.0889   45.4639 C   0  0  0  0  0  0  0  0  0  0  0  0
   49.7211   29.6652   45.4300 H   0  0  0  0  0  0  0  0  0  0  0  0
   47.7251   29.4540   46.1710 C   0  0  0  0  0  0  0  0  0  0  0  0
   46.5149   30.1030   46.1265 C   0  0  0  0  0  0  0  0  0  0  0  0
   46.3148   31.2583   45.4531 C   0  0  0  0  0  0  0  0  0  0  0  0
   45.3326   31.7088   45.4654 H   0  0  0  0  0  0  0  0  0  0  0  0
   45.1522   29.3649   47.0096 S   0  0  0  0  0  0  0  0  0  0  0  0
   45.7773   27.8834   47.7609 C   0  0  0  0  0  0  0  0  0  0  0  0
   44.9154   27.1270   48.5034 C   0  0  0  0  0  0  0  0  0  0  0  0
   43.8729   27.4397   48.6217 H   0  0  0  0  0  0  0  0  0  0  0  0
   45.3275   25.9629   49.1177 C   0  0  0  0  0  0  0  0  0  0  0  0
   44.5939   25.4142   49.6893 H   0  0  0  0  0  0  0  0  0  0  0  0
   46.6439   25.5896   48.9548 C   0  0  0  0  0  0  0  0  0  0  0  0
   46.9910   24.6807   49.4269 H   0  0  0  0  0  0  0  0  0  0  0  0
   47.4714   26.3891   48.1955 C   0  0  0  0  0  0  0  0  0  0  0  0
   48.4885   26.0240   48.1183 H   0  0  0  0  0  0  0  0  0  0  0  0
   47.0883   27.5574   47.5696 C   0  0  0  0  0  0  0  0  0  0  0  0
   48.0426   28.2593   46.8335 N   0  0  0  0  0  0  0  0  0  0  0  0
   49.0129   27.8857   46.7761 H   0  0  0  0  0  0  0  0  0  0  0  0
  1  6  2  0
  1  2  1  0
  2  3  2  0
  3  4  1  0
  5 11  1  0
  5  4  2  0
  6  5  1  0
  7 10  1  0
  7  9  1  0
  7  1  1  0
  8  7  1  0
 11 13  1  0
 11 14  1  0
 12 11  1  0
  2 15  1  0
 16 17  2  0
 17 18  1  0
 17 19  1  0
 19 20  1  0
 19 21  2  0
 21 22  1  0
 22 23  2  0
 23 24  1  0
 22 25  1  0
 25 26  1  0
 26 27  2  0
 27 28  1  0
 27 29  1  0
 29 30  1  0
 29 31  2  0
 31 32  1  0
 31 33  1  0
 33 34  1  0
 33 35  2  0
 35 36  1  0
 36 37  1  0
 23 16  1  0
 35 26  1  0
 36 21  1  0
  3 16  1  0
M  ISO  8  15  14  18  16  20  16  24  16  28  16  30  16  32  16  34  16
M  ISO  1  37   5
M  END
>  <DihAtoms>  (1) 
1,2,15,16

>  <DihDeg>  (1) 
179.99777258675522

$$$$
