
 OpenBabel03242518503D

 36 39  0  0  0  0  0  0  0  0999 V2000
   46.5670   31.9680   47.2690 C   0  0  0  0  0  0  0  0  0  0  0  0
   46.3300   30.6510   46.9430 C   0  0  0  0  0  0  0  0  0  0  0  0
   45.5350   30.3320   46.2890 H   0  0  0  0  0  0  0  0  0  0  0  0
   47.1030   29.6080   47.4230 C   0  0  0  0  0  0  0  0  0  0  0  0
   46.8630   28.5710   47.1310 H   0  0  0  0  0  0  0  0  0  0  0  0
   48.1810   29.8260   48.2740 C   0  0  0  0  0  0  0  0  0  0  0  0
   48.3950   31.1490   48.5810 C   0  0  0  0  0  0  0  0  0  0  0  0
   47.6400   32.1600   48.1120 C   0  0  0  0  0  0  0  0  0  0  0  0
   47.8460   33.2040   48.3920 H   0  0  0  0  0  0  0  0  0  0  0  0
   49.7510   31.5620   49.6630 S   0  0  0  0  0  0  0  0  0  0  0  0
   50.5360   30.0140   50.0600 C   0  0  0  0  0  0  0  0  0  0  0  0
   51.6240   30.0830   50.8670 C   0  0  0  0  0  0  0  0  0  0  0  0
   52.0030   31.0240   51.2530 H   0  0  0  0  0  0  0  0  0  0  0  0
   52.2490   28.8810   51.1880 C   0  0  0  0  0  0  0  0  0  0  0  0
   53.1140   28.9000   51.8290 H   0  0  0  0  0  0  0  0  0  0  0  0
   51.8120   27.6500   50.7280 C   0  0  0  0  0  0  0  0  0  0  0  0
   52.2920   26.7260   50.9800 H   0  0  0  0  0  0  0  0  0  0  0  0
   50.6890   27.6770   49.9060 C   0  0  0  0  0  0  0  0  0  0  0  0
   50.3590   26.6880   49.5520 H   0  0  0  0  0  0  0  0  0  0  0  0
   50.0380   28.8420   49.5610 C   0  0  0  0  0  0  0  0  0  0  0  0
   48.9320   28.7250   48.7170 N   0  0  0  0  0  0  0  0  0  0  0  0
   48.6380   27.7780   48.3930 H   0  0  0  0  0  0  0  0  0  0  0  0
   45.7490   33.0550   46.7520 C   0  0  0  0  0  0  0  0  0  0  0  0
   44.8140   33.4250   47.5200 O   0  0  0  0  0  0  0  0  0  0  0  0
   45.2050   35.2130   43.8600 C   0  0  0  0  0  0  0  0  0  0  0  0
   46.3080   34.9730   43.0130 C   0  0  0  0  0  0  0  0  0  0  0  0
   47.2290   34.0450   43.4770 C   0  0  0  0  0  0  0  0  0  0  0  0
   46.9860   33.4760   44.6620 N   0  0  0  0  0  0  0  0  0  0  0  0
   45.9480   33.6970   45.4680 C   0  0  0  0  0  0  0  0  0  0  0  0
   45.0340   34.5970   45.0400 N   0  0  0  0  0  0  0  0  0  0  0  0
   44.4710   35.9370   43.5210 H   0  0  0  0  0  0  0  0  0  0  0  0
   46.4530   35.4620   42.0720 H   0  0  0  0  0  0  0  0  0  0  0  0
   48.3900   33.7790   42.6180 C   0  0  0  0  0  0  0  0  0  0  0  0
   48.8510   32.4910   42.8350 F   0  0  0  0  0  0  0  0  0  0  0  0
   49.4130   34.6260   43.0780 F   0  0  0  0  0  0  0  0  0  0  0  0
   48.1380   33.9540   41.2990 F   0  0  0  0  0  0  0  0  0  0  0  0
  1  8  1  0  0  0  0
  2  1  2  0  0  0  0
  2  4  1  0  0  0  0
  3  2  1  0  0  0  0
  4  6  2  0  0  0  0
  5  4  1  0  0  0  0
  6  7  1  0  0  0  0
  6 21  1  0  0  0  0
  7 10  1  0  0  0  0
  8  9  1  0  0  0  0
  8  7  2  0  0  0  0
 10 11  1  0  0  0  0
 11 12  1  0  0  0  0
 12 14  2  0  0  0  0
 12 13  1  0  0  0  0
 14 15  1  0  0  0  0
 16 17  1  0  0  0  0
 16 14  1  0  0  0  0
 18 16  2  0  0  0  0
 19 18  1  0  0  0  0
 20 18  1  0  0  0  0
 20 11  2  0  0  0  0
 21 20  1  0  0  0  0
 22 21  1  0  0  0  0
 23  1  1  0  0  0  0
 23 24  2  0  0  0  0
 25 30  1  0  0  0  0
 26 27  1  0  0  0  0
 26 25  2  0  0  0  0
 27 28  2  0  0  0  0
 28 29  1  0  0  0  0
 29 23  1  0  0  0  0
 30 29  2  0  0  0  0
 31 25  1  0  0  0  0
 32 26  1  0  0  0  0
 33 34  1  0  0  0  0
 33 35  1  0  0  0  0
 33 27  1  0  0  0  0
 36 33  1  0  0  0  0
M  END
>  <minimizedAffinity>
-6.42758131

>  <minimizedRMSD>
1.86298978

$$$$
