
     RDKit          3D

 38 41  0  0  0  0  0  0  0  0999 V2000
   47.0905   34.3884   43.0922 C   0  0  0  0  0  0  0  0  0  0  0  0
   45.7782   34.5960   43.5015 C   0  0  0  0  0  0  0  0  0  0  0  0
   45.2592   33.7602   44.5008 C   0  0  0  0  0  0  0  0  0  0  0  0
   46.0579   32.7950   45.0169 N   0  0  0  0  0  0  0  0  0  0  0  0
   47.3229   32.6281   44.5922 C   0  0  0  0  0  0  0  0  0  0  0  0
   47.8468   33.4145   43.6358 N   0  0  0  0  0  0  0  0  0  0  0  0
   44.9810   35.6797   42.8764 C   0  0  0  0  0  0  0  0  0  0  0  0
   45.6184   36.9015   43.0599 F   0  0  0  0  0  0  0  0  0  0  0  0
   44.9553   35.4665   41.5091 F   0  0  0  0  0  0  0  0  0  0  0  0
   43.7212   35.8125   43.3485 F   0  0  0  0  0  0  0  0  0  0  0  0
   47.5802   35.1962   42.1320 O   0  0  0  0  0  0  0  0  0  0  0  0
   48.8746   35.1915   41.5733 C   0  0  0  0  0  0  0  0  0  0  0  0
   49.7634   35.4905   42.6073 F   0  0  0  0  0  0  0  0  0  0  0  0
   49.1289   33.9726   41.0055 F   0  0  0  0  0  0  0  0  0  0  0  0
   49.0104   36.2249   40.6775 F   0  0  0  0  0  0  0  0  0  0  0  0
   44.2347   33.9120   44.8296 H   0  0  0  0  0  0  0  0  0  0  0  0
   48.1275   31.5694   45.1910 C   0  0  0  0  0  0  0  0  0  0  0  0
   49.4308   31.3467   44.7997 C   0  0  0  0  0  0  0  0  0  0  0  0
   49.8657   31.9597   44.0423 H   0  0  0  0  0  0  0  0  0  0  0  0
   50.1323   30.3277   45.4095 C   0  0  0  0  0  0  0  0  0  0  0  0
   51.1653   30.2106   45.0451 H   0  0  0  0  0  0  0  0  0  0  0  0
   49.6403   29.4962   46.3924 C   0  0  0  0  0  0  0  0  0  0  0  0
   48.3410   29.7640   46.7406 C   0  0  0  0  0  0  0  0  0  0  0  0
   47.6032   30.7626   46.1662 C   0  0  0  0  0  0  0  0  0  0  0  0
   46.5709   30.9296   46.4846 H   0  0  0  0  0  0  0  0  0  0  0  0
   47.5891   28.7571   48.0022 S   0  0  0  0  0  0  0  0  0  0  0  0
   48.8167   27.5773   48.5187 C   0  0  0  0  0  0  0  0  0  0  0  0
   48.5347   26.6553   49.4885 C   0  0  0  0  0  0  0  0  0  0  0  0
   47.5314   26.6608   49.9410 H   0  0  0  0  0  0  0  0  0  0  0  0
   49.4351   25.7124   49.9382 C   0  0  0  0  0  0  0  0  0  0  0  0
   49.1285   25.0345   50.6963 H   0  0  0  0  0  0  0  0  0  0  0  0
   50.6782   25.7448   49.3416 C   0  0  0  0  0  0  0  0  0  0  0  0
   51.4127   25.0314   49.6574 H   0  0  0  0  0  0  0  0  0  0  0  0
   50.9447   26.6822   48.3649 C   0  0  0  0  0  0  0  0  0  0  0  0
   51.9625   26.6262   47.9517 H   0  0  0  0  0  0  0  0  0  0  0  0
   50.0451   27.6247   47.9152 C   0  0  0  0  0  0  0  0  0  0  0  0
   50.5022   28.5009   46.9073 N   0  0  0  0  0  0  0  0  0  0  0  0
   51.4558   28.4275   46.5393 H   0  0  0  0  0  0  0  0  0  0  0  0
  1  2  2  0
  1  6  1  0
  2  3  1  0
  3  4  2  0
  5  4  1  0
  6  5  2  0
  7  8  1  0
  7 10  1  0
  7  2  1  0
  9  7  1  0
 11  1  1  0
 12 11  1  0
 12 13  1  0
 14 12  1  0
 15 12  1  0
  3 16  1  0
 17 18  2  0
 18 19  1  0
 18 20  1  0
 20 21  1  0
 20 22  2  0
 22 23  1  0
 23 24  2  0
 24 25  1  0
 23 26  1  0
 26 27  1  0
 27 28  2  0
 28 29  1  0
 28 30  1  0
 30 31  1  0
 30 32  2  0
 32 33  1  0
 32 34  1  0
 34 35  1  0
 34 36  2  0
 36 37  1  0
 37 38  1  0
 24 17  1  0
 36 27  1  0
 37 22  1  0
  5 17  1  0
M  ISO  8  16  14  19  16  21  16  25  16  29  16  31  16  33  16  35  16
M  ISO  1  38   5
M  END
>  <DihAtoms>  (1) 
3,4,16,17

>  <DihDeg>  (1) 
179.99917544483472

$$$$
