
     RDKit          3D

 39 42  0  0  0  0  0  0  0  0999 V2000
   46.1401   35.2814   42.6991 C   0  0  0  0  0  0  0  0  0  0  0  0
   46.6907   34.1860   43.3435 C   0  0  0  0  0  0  0  0  0  0  0  0
   46.2034   33.8369   44.6081 C   0  0  0  0  0  0  0  0  0  0  0  0
   45.2055   34.5988   45.1428 N   0  0  0  0  0  0  0  0  0  0  0  0
   44.6982   35.6484   44.4928 C   0  0  0  0  0  0  0  0  0  0  0  0
   45.1624   35.9803   43.2891 N   0  0  0  0  0  0  0  0  0  0  0  0
   47.7070   33.4826   42.6985 O   0  0  0  0  0  0  0  0  0  0  0  0
   49.5465   35.3639   42.7922 O   0  0  0  0  0  0  0  0  0  0  0  0
   48.9777   34.3051   41.9001 P   0  0  1  0  0  0  0  0  0  0  0  0
   50.2209   33.2458   41.5105 O   0  0  0  0  0  0  0  0  0  0  0  0
   48.4112   35.0206   40.5029 O   0  0  0  0  0  0  0  0  0  0  0  0
   48.0496   34.4070   39.3593 C   0  0  0  0  0  0  0  0  0  0  0  0
   46.9538   33.7322   39.5113 O   0  0  0  0  0  0  0  0  0  0  0  0
   46.4802   35.5993   41.7130 H   0  0  0  0  0  0  0  0  0  0  0  0
   46.6708   32.9878   45.0428 H   0  0  0  0  0  0  0  0  0  0  0  0
   43.9113   36.1594   45.0395 H   0  0  0  0  0  0  0  0  0  0  0  0
   51.0696   33.7056   41.3861 H   0  0  0  0  0  0  0  0  0  0  0  0
   48.4912   34.2435   37.9445 C   0  0  0  0  0  0  0  0  0  0  0  0
   48.6282   35.2836   37.1006 C   0  0  0  0  0  0  0  0  0  0  0  0
   48.4284   36.3063   37.3810 H   0  0  0  0  0  0  0  0  0  0  0  0
   49.0538   34.9695   35.8047 C   0  0  0  0  0  0  0  0  0  0  0  0
   49.1544   35.8371   35.1461 H   0  0  0  0  0  0  0  0  0  0  0  0
   49.3315   33.7069   35.3550 C   0  0  0  0  0  0  0  0  0  0  0  0
   49.1801   32.6731   36.2447 C   0  0  0  0  0  0  0  0  0  0  0  0
   48.7724   32.9461   37.4962 C   0  0  0  0  0  0  0  0  0  0  0  0
   48.6557   32.1059   38.1982 H   0  0  0  0  0  0  0  0  0  0  0  0
   49.5312   31.0124   35.7003 S   0  0  0  0  0  0  0  0  0  0  0  0
   50.0262   31.1494   34.0051 C   0  0  0  0  0  0  0  0  0  0  0  0
   50.3413   29.9790   33.3969 C   0  0  0  0  0  0  0  0  0  0  0  0
   50.3064   29.0092   33.8756 H   0  0  0  0  0  0  0  0  0  0  0  0
   50.7441   29.9809   32.0586 C   0  0  0  0  0  0  0  0  0  0  0  0
   51.0050   29.0740   31.5311 H   0  0  0  0  0  0  0  0  0  0  0  0
   50.8090   31.1777   31.3952 C   0  0  0  0  0  0  0  0  0  0  0  0
   51.1178   31.1930   30.3642 H   0  0  0  0  0  0  0  0  0  0  0  0
   50.4719   32.3141   32.0892 C   0  0  0  0  0  0  0  0  0  0  0  0
   50.5484   33.2348   31.4905 H   0  0  0  0  0  0  0  0  0  0  0  0
   50.0679   32.3746   33.4080 C   0  0  0  0  0  0  0  0  0  0  0  0
   49.7501   33.5910   34.0084 N   0  0  0  0  0  0  0  0  0  0  0  0
   49.8373   34.4353   33.4026 H   0  0  0  0  0  0  0  0  0  0  0  0
  1  6  2  0
  1  2  1  0
  2  3  2  0
  3  4  1  0
  5  4  2  0
  6  5  1  0
  7  2  1  0
  9  7  1  1
  9  8  2  0
 10  9  1  0
 11  9  1  0
 12 13  2  0
 12 11  1  0
  1 14  1  0
  3 15  1  0
  5 16  1  0
 10 17  1  0
 18 19  2  0
 19 20  1  0
 19 21  1  0
 21 22  1  0
 21 23  2  0
 23 24  1  0
 24 25  2  0
 25 26  1  0
 24 27  1  0
 27 28  1  0
 28 29  2  0
 29 30  1  0
 29 31  1  0
 31 32  1  0
 31 33  2  0
 33 34  1  0
 33 35  1  0
 35 36  1  0
 35 37  2  0
 37 38  1  0
 38 39  1  0
 25 18  1  0
 37 28  1  0
 38 23  1  0
 12 18  1  0
M  ISO  8  14  14  15  14  16  14  17   3  20  16  22  16  26  16  30  16
M  ISO  4  32  16  34  16  36  16  39   5
M  END
>  <DihAtoms>  (1) 
12,11,17,18

>  <DihDeg>  (1) 
-0.2890424809283181

$$$$
