REMARK  Name = 
REMARK  3 active torsions:
REMARK  status: ('A' for Active; 'I' for Inactive)
REMARK    1  A    between atoms: C_3  and  C_7
REMARK    2  A    between atoms: C_5  and  C_11
REMARK    3  A    between atoms: C_11  and  C_15
REMARK                            x       y       z     vdW  Elec       q    Type
REMARK                         _______ _______ _______ _____ _____    ______ ____
ROOT
ATOM      1  C   UNL     1      46.873  32.147  46.547  0.00  0.00    +0.000 A 
ATOM      2  C   UNL     1      48.170  32.471  46.881  0.00  0.00    +0.000 A 
ATOM      3  H   UNL     1      48.498  33.475  47.095  0.00  0.00    +0.000 HD
ATOM      4  C   UNL     1      49.177  31.526  46.983  0.00  0.00    +0.000 A 
ATOM      5  H   UNL     1      50.199  31.844  47.251  0.00  0.00    +0.000 HD
ATOM      6  C   UNL     1      48.940  30.175  46.753  0.00  0.00    +0.000 A 
ATOM      7  C   UNL     1      47.638  29.882  46.422  0.00  0.00    +0.000 A 
ATOM      8  C   UNL     1      46.663  30.805  46.323  0.00  0.00    +0.000 A 
ATOM      9  H   UNL     1      45.636  30.522  46.048  0.00  0.00    +0.000 HD
ATOM     10  S   UNL     1      47.205  28.183  46.103  0.00  0.00    +0.000 S 
ATOM     11  C   UNL     1      48.703  27.252  46.348  0.00  0.00    +0.000 A 
ATOM     12  C   UNL     1      48.609  25.909  46.179  0.00  0.00    +0.000 A 
ATOM     13  H   UNL     1      47.678  25.420  45.910  0.00  0.00    +0.000 HD
ATOM     14  C   UNL     1      49.771  25.166  46.365  0.00  0.00    +0.000 A 
ATOM     15  H   UNL     1      49.733  24.098  46.236  0.00  0.00    +0.000 HD
ATOM     16  C   UNL     1      50.989  25.732  46.707  0.00  0.00    +0.000 A 
ATOM     17  H   UNL     1      51.884  25.159  46.845  0.00  0.00    +0.000 HD
ATOM     18  C   UNL     1      50.989  27.116  46.858  0.00  0.00    +0.000 A 
ATOM     19  H   UNL     1      51.966  27.544  47.129  0.00  0.00    +0.000 HD
ATOM     20  C   UNL     1      49.864  27.891  46.685  0.00  0.00    +0.000 A 
ATOM     21  N   UNL     1      50.004  29.265  46.882  0.00  0.00    +0.000 N 
ATOM     22  H   UNL     1      50.938  29.651  47.140  0.00  0.00    +0.000 HD
ENDROOT
BRANCH   1  23
ATOM     23  C   UNL     1      45.825  33.151  46.449  0.00  0.00    +0.000 C 
ATOM     24  O   UNL     1      45.030  33.186  47.433  0.00  0.00    +0.000 OA
BRANCH  23  29
ATOM     25  C   UNL     1      44.598  35.929  44.425  0.00  0.00    +0.000 A 
ATOM     26  C   UNL     1      45.332  35.856  43.221  0.00  0.00    +0.000 A 
ATOM     27  C   UNL     1      46.250  34.819  43.142  0.00  0.00    +0.000 A 
ATOM     28  N   UNL     1      46.349  34.002  44.195  0.00  0.00    +0.000 NA
ATOM     29  C   UNL     1      45.660  34.064  45.335  0.00  0.00    +0.000 A 
ATOM     30  N   UNL     1      44.758  35.065  45.439  0.00  0.00    +0.000 NA
ATOM     31  H   UNL     1      43.875  36.733  44.513  0.00  0.00    +0.000 HD
ATOM     32  H   UNL     1      45.213  36.542  42.409  0.00  0.00    +0.000 HD
BRANCH  27  33
ATOM     33  C   UNL     1      47.032  34.721  41.903  0.00  0.00    +0.000 C 
ATOM     34  F   UNL     1      47.845  33.601  41.946  0.00  0.00    +0.000 F 
ATOM     35  F   UNL     1      47.907  35.821  41.910  0.00  0.00    +0.000 F 
ATOM     36  F   UNL     1      46.269  34.684  40.784  0.00  0.00    +0.000 F 
ENDBRANCH  27  33
ENDBRANCH  23  29
ENDBRANCH   1  23
TORSDOF 3
