
     RDKit          3D

 36 39  0  0  0  0  0  0  0  0999 V2000
   44.5977   35.9289   44.4246 C   0  0  0  0  0  0  0  0  0  0  0  0
   45.3323   35.8560   43.2209 C   0  0  0  0  0  0  0  0  0  0  0  0
   46.2502   34.8187   43.1423 C   0  0  0  0  0  0  0  0  0  0  0  0
   46.3490   34.0025   44.1953 N   0  0  0  0  0  0  0  0  0  0  0  0
   45.6595   34.0639   45.3346 C   0  0  0  0  0  0  0  0  0  0  0  0
   44.7578   35.0646   45.4386 N   0  0  0  0  0  0  0  0  0  0  0  0
   47.0320   34.7212   41.9032 C   0  0  0  0  0  0  0  0  0  0  0  0
   47.8453   33.6009   41.9458 F   0  0  0  0  0  0  0  0  0  0  0  0
   47.9067   35.8213   41.9105 F   0  0  0  0  0  0  0  0  0  0  0  0
   46.2685   34.6836   40.7844 F   0  0  0  0  0  0  0  0  0  0  0  0
   45.8249   33.1509   46.4486 C   0  0  0  0  0  0  0  0  0  0  0  0
   45.0299   33.1856   47.4332 O   0  0  0  0  0  0  0  0  0  0  0  0
   43.8751   36.7327   44.5126 H   0  0  0  0  0  0  0  0  0  0  0  0
   45.2126   36.5419   42.4089 H   0  0  0  0  0  0  0  0  0  0  0  0
   46.8732   32.1473   46.5470 C   0  0  0  0  0  0  0  0  0  0  0  0
   48.2090   32.4822   46.5794 C   0  0  0  0  0  0  0  0  0  0  0  0
   48.5711   33.4963   46.5391 H   0  0  0  0  0  0  0  0  0  0  0  0
   49.2179   31.5388   46.6773 C   0  0  0  0  0  0  0  0  0  0  0  0
   50.2713   31.8654   46.6959 H   0  0  0  0  0  0  0  0  0  0  0  0
   48.9425   30.1767   46.7510 C   0  0  0  0  0  0  0  0  0  0  0  0
   47.6020   29.8725   46.7167 C   0  0  0  0  0  0  0  0  0  0  0  0
   46.6252   30.7942   46.6203 C   0  0  0  0  0  0  0  0  0  0  0  0
   45.5650   30.5014   46.5901 H   0  0  0  0  0  0  0  0  0  0  0  0
   47.1168   28.1598   46.8052 S   0  0  0  0  0  0  0  0  0  0  0  0
   48.6340   27.2391   46.9520 C   0  0  0  0  0  0  0  0  0  0  0  0
   48.5103   25.8922   47.0579 C   0  0  0  0  0  0  0  0  0  0  0  0
   47.5459   25.3948   47.0551 H   0  0  0  0  0  0  0  0  0  0  0  0
   49.6871   25.1576   47.1717 C   0  0  0  0  0  0  0  0  0  0  0  0
   49.6251   24.0857   47.2547 H   0  0  0  0  0  0  0  0  0  0  0  0
   50.9467   25.7342   47.1799 C   0  0  0  0  0  0  0  0  0  0  0  0
   51.8513   25.1666   47.2633 H   0  0  0  0  0  0  0  0  0  0  0  0
   50.9753   27.1214   47.0659 C   0  0  0  0  0  0  0  0  0  0  0  0
   51.9854   27.5587   47.0745 H   0  0  0  0  0  0  0  0  0  0  0  0
   49.8372   27.8896   46.9520 C   0  0  0  0  0  0  0  0  0  0  0  0
   50.0111   29.2710   46.8591 N   0  0  0  0  0  0  0  0  0  0  0  0
   50.9765   29.6650   46.8705 H   0  0  0  0  0  0  0  0  0  0  0  0
  1  6  2  0
  2  1  1  0
  3  2  2  0
  3  4  1  0
  4  5  2  0
  5  6  1  0
  5 11  1  0
  7  8  1  0
  7  3  1  0
  9  7  1  0
 10  7  1  0
 11 12  2  0
  1 13  1  0
  2 14  1  0
 15 16  2  0
 16 17  1  0
 16 18  1  0
 18 19  1  0
 18 20  2  0
 20 21  1  0
 21 22  2  0
 22 23  1  0
 21 24  1  0
 24 25  1  0
 25 26  2  0
 26 27  1  0
 26 28  1  0
 28 29  1  0
 28 30  2  0
 30 31  1  0
 30 32  1  0
 32 33  1  0
 32 34  2  0
 34 35  1  0
 35 36  1  0
 22 15  1  0
 34 25  1  0
 35 20  1  0
 11 15  1  0
M  ISO  8  13  14  14  14  17  16  19  16  23  16  27  16  29  16  31  16
M  ISO  2  33  16  36   5
M  END
>  <DihAtoms>  (1) 
4,10,14,15

>  <DihDeg>  (1) 
16.95244225262003

$$$$
