
 OpenBabel03242519493D

 51 55  0  0  1  0  0  0  0  0999 V2000
   40.6510   35.1620   40.1030 C   0  0  0  0  0  0  0  0  0  0  0  0
   41.1230   34.7630   41.0050 H   0  0  0  0  0  0  0  0  0  0  0  0
   41.0380   36.2800   40.1640 H   0  0  0  0  0  0  0  0  0  0  0  0
   39.1960   35.3090   40.0240 C   0  0  0  0  0  0  0  0  0  0  0  0
   38.7180   35.9360   40.7920 H   0  0  0  0  0  0  0  0  0  0  0  0
   38.9490   35.7960   39.0540 H   0  0  0  0  0  0  0  0  0  0  0  0
   38.5070   33.9950   40.1320 C   0  0  0  0  0  0  0  0  0  0  0  0
   37.3590   33.4990   39.5630 C   0  0  0  0  0  0  0  0  0  0  0  0
   36.8770   34.2040   38.9120 H   0  0  0  0  0  0  0  0  0  0  0  0
   36.9200   32.2250   39.8320 C   0  0  0  0  0  0  0  0  0  0  0  0
   35.9880   31.9540   39.3100 H   0  0  0  0  0  0  0  0  0  0  0  0
   37.5830   31.3580   40.6760 C   0  0  0  0  0  0  0  0  0  0  0  0
   38.7360   31.8180   41.2630 C   0  0  0  0  0  0  0  0  0  0  0  0
   39.1530   33.0830   40.9840 C   0  0  0  0  0  0  0  0  0  0  0  0
   40.0840   33.3530   41.5040 H   0  0  0  0  0  0  0  0  0  0  0  0
   39.5950   30.7220   42.3440 S   0  0  0  0  0  0  0  0  0  0  0  0
   38.6730   29.1960   42.3940 C   0  0  0  0  0  0  0  0  0  0  0  0
   39.1800   28.2030   43.1870 C   0  0  0  0  0  0  0  0  0  0  0  0
   40.0910   28.3300   43.7580 H   0  0  0  0  0  0  0  0  0  0  0  0
   38.5250   27.0090   43.2700 C   0  0  0  0  0  0  0  0  0  0  0  0
   38.8520   26.1710   43.8700 H   0  0  0  0  0  0  0  0  0  0  0  0
   37.3670   26.8390   42.5490 C   0  0  0  0  0  0  0  0  0  0  0  0
   36.8320   25.9050   42.5980 H   0  0  0  0  0  0  0  0  0  0  0  0
   36.9140   27.8790   41.7720 C   0  0  0  0  0  0  0  0  0  0  0  0
   35.9820   27.6760   41.2210 H   0  0  0  0  0  0  0  0  0  0  0  0
   37.5280   29.1070   41.6460 C   0  0  0  0  0  0  0  0  0  0  0  0
   36.9680   30.0910   40.8180 N   0  0  0  0  0  0  0  0  0  0  0  0
   36.0870   29.8410   40.3240 H   0  0  0  0  0  0  0  0  0  0  0  0
   41.2970   34.7290   38.9690 O   0  0  0  0  0  0  0  0  0  0  0  0
   43.2390   33.9590   37.7880 C   0  0  2  0  0  0  0  0  0  0  0  0
   43.5410   32.6010   38.2880 C   0  0  1  0  0  0  0  0  0  0  0  0
   42.6030   32.4230   39.4040 O   0  0  0  0  0  0  0  0  0  0  0  0
   43.0010   33.5970   40.0870 C   0  0  0  0  0  0  0  0  0  0  0  0
   42.6580   34.6490   39.0160 C   0  0  2  0  0  0  0  0  0  0  0  0
   44.1150   34.4970   37.3800 H   0  0  0  0  0  0  0  0  0  0  0  0
   44.5250   32.5540   38.8010 H   0  0  0  0  0  0  0  0  0  0  0  0
   42.6030   33.7450   41.0500 H   0  0  0  0  0  0  0  0  0  0  0  0
   44.1250   33.5620   40.1780 H   0  0  0  0  0  0  0  0  0  0  0  0
   43.1860   35.5710   39.3240 H   0  0  0  0  0  0  0  0  0  0  0  0
   44.3300   30.4000   35.4820 C   0  0  0  0  0  0  0  0  0  0  0  0
   43.2490   29.5120   35.4360 C   0  0  0  0  0  0  0  0  0  0  0  0
   42.2180   29.6730   36.3890 C   0  0  0  0  0  0  0  0  0  0  0  0
   42.3140   30.6740   37.3020 N   0  0  0  0  0  0  0  0  0  0  0  0
   43.3690   31.5150   37.3190 C   0  0  0  0  0  0  0  0  0  0  0  0
   44.3840   31.3900   36.4150 N   0  0  0  0  0  0  0  0  0  0  0  0
   43.2170   28.7390   34.7000 H   0  0  0  0  0  0  0  0  0  0  0  0
   41.3610   28.9990   36.3830 H   0  0  0  0  0  0  0  0  0  0  0  0
   45.3810   30.2920   34.5680 O   0  0  0  0  0  0  0  0  0  0  0  0
   45.5810   29.3860   34.1590 H   0  0  0  0  0  0  0  0  0  0  0  0
   42.2010   33.8880   36.7960 O   0  0  0  0  0  0  0  0  0  0  0  0
   41.3620   33.7050   37.2750 H   0  0  0  0  0  0  0  0  0  0  0  0
  1  3  1  0  0  0  0
  1  2  1  0  0  0  0
  4  1  1  0  0  0  0
  4  7  1  0  0  0  0
  4  5  1  0  0  0  0
  6  4  1  0  0  0  0
  7 14  1  0  0  0  0
  8 10  1  0  0  0  0
  8  7  2  0  0  0  0
  9  8  1  0  0  0  0
 10 12  2  0  0  0  0
 11 10  1  0  0  0  0
 12 27  1  0  0  0  0
 12 13  1  0  0  0  0
 13 16  1  0  0  0  0
 14 13  2  0  0  0  0
 14 15  1  0  0  0  0
 16 17  1  0  0  0  0
 17 18  1  0  0  0  0
 18 20  2  0  0  0  0
 18 19  1  0  0  0  0
 20 21  1  0  0  0  0
 22 23  1  0  0  0  0
 22 20  1  0  0  0  0
 24 22  2  0  0  0  0
 25 24  1  0  0  0  0
 26 24  1  0  0  0  0
 26 17  2  0  0  0  0
 27 26  1  0  0  0  0
 28 27  1  0  0  0  0
 29 34  1  0  0  0  0
 29  1  1  0  0  0  0
 30 35  1  6  0  0  0
 30 31  1  0  0  0  0
 30 34  1  0  0  0  0
 31 36  1  1  0  0  0
 31 32  1  0  0  0  0
 32 33  1  0  0  0  0
 33 38  1  0  0  0  0
 33 37  1  0  0  0  0
 34 39  1  1  0  0  0
 34 33  1  0  0  0  0
 40 45  1  0  0  0  0
 41 40  2  0  0  0  0
 41 42  1  0  0  0  0
 42 43  2  0  0  0  0
 43 44  1  0  0  0  0
 44 31  1  0  0  0  0
 45 44  2  0  0  0  0
 46 41  1  0  0  0  0
 47 42  1  0  0  0  0
 48 40  1  0  0  0  0
 49 48  1  0  0  0  0
 50 51  1  0  0  0  0
 50 30  1  0  0  0  0
M  END
>  <minimizedAffinity>
-7.79029846

$$$$

 OpenBabel03242519493D

 51 55  0  0  1  0  0  0  0  0999 V2000
   38.8790   34.1120   40.0700 C   0  0  0  0  0  0  0  0  0  0  0  0
   39.1540   34.4720   41.0650 H   0  0  0  0  0  0  0  0  0  0  0  0
   39.0690   35.1020   39.4490 H   0  0  0  0  0  0  0  0  0  0  0  0
   37.4890   33.7740   39.7560 C   0  0  0  0  0  0  0  0  0  0  0  0
   36.7410   33.9730   40.5390 H   0  0  0  0  0  0  0  0  0  0  0  0
   37.1710   34.3890   38.8850 H   0  0  0  0  0  0  0  0  0  0  0  0
   37.3340   32.3260   39.4490 C   0  0  0  0  0  0  0  0  0  0  0  0
   37.1610   31.6410   38.2720 C   0  0  0  0  0  0  0  0  0  0  0  0
   37.1400   32.2850   37.4130 H   0  0  0  0  0  0  0  0  0  0  0  0
   37.0350   30.2720   38.2530 C   0  0  0  0  0  0  0  0  0  0  0  0
   36.9020   29.8500   37.2440 H   0  0  0  0  0  0  0  0  0  0  0  0
   37.0730   29.4920   39.3890 C   0  0  0  0  0  0  0  0  0  0  0  0
   37.2450   30.1430   40.5860 C   0  0  0  0  0  0  0  0  0  0  0  0
   37.3670   31.4980   40.5840 C   0  0  0  0  0  0  0  0  0  0  0  0
   37.5010   31.9200   41.5910 H   0  0  0  0  0  0  0  0  0  0  0  0
   37.2960   29.1600   42.0500 S   0  0  0  0  0  0  0  0  0  0  0  0
   37.0950   27.4600   41.5530 C   0  0  0  0  0  0  0  0  0  0  0  0
   37.1050   26.5260   42.5540 C   0  0  0  0  0  0  0  0  0  0  0  0
   37.2280   26.7990   43.5940 H   0  0  0  0  0  0  0  0  0  0  0  0
   36.9570   25.2060   42.2430 C   0  0  0  0  0  0  0  0  0  0  0  0
   36.9530   24.4030   42.9670 H   0  0  0  0  0  0  0  0  0  0  0  0
   36.8000   24.8500   40.9250 C   0  0  0  0  0  0  0  0  0  0  0  0
   36.6810   23.8140   40.6550 H   0  0  0  0  0  0  0  0  0  0  0  0
   36.7980   25.8400   39.9700 C   0  0  0  0  0  0  0  0  0  0  0  0
   36.6690   25.4870   38.9350 H   0  0  0  0  0  0  0  0  0  0  0  0
   36.9430   27.1890   40.2180 C   0  0  0  0  0  0  0  0  0  0  0  0
   36.9260   28.1050   39.1550 N   0  0  0  0  0  0  0  0  0  0  0  0
   36.8000   27.7110   38.2000 H   0  0  0  0  0  0  0  0  0  0  0  0
   39.8530   33.2920   39.5500 O   0  0  0  0  0  0  0  0  0  0  0  0
   41.4970   33.3790   37.8040 C   0  0  2  0  0  0  0  0  0  0  0  0
   42.5610   32.4180   38.1610 C   0  0  1  0  0  0  0  0  0  0  0  0
   42.1940   31.9780   39.5140 O   0  0  0  0  0  0  0  0  0  0  0  0
   42.1290   33.2840   40.0540 C   0  0  0  0  0  0  0  0  0  0  0  0
   41.0230   33.8780   39.1630 C   0  0  2  0  0  0  0  0  0  0  0  0
   41.8330   34.2040   37.1490 H   0  0  0  0  0  0  0  0  0  0  0  0
   43.5360   32.9190   38.3360 H   0  0  0  0  0  0  0  0  0  0  0  0
   42.0010   33.3630   41.0960 H   0  0  0  0  0  0  0  0  0  0  0  0
   43.0950   33.8030   39.7850 H   0  0  0  0  0  0  0  0  0  0  0  0
   41.0840   34.9740   39.3030 H   0  0  0  0  0  0  0  0  0  0  0  0
   43.9450   30.2740   35.5470 C   0  0  0  0  0  0  0  0  0  0  0  0
   43.1140   29.1480   35.5610 C   0  0  0  0  0  0  0  0  0  0  0  0
   42.0470   29.1220   36.4860 C   0  0  0  0  0  0  0  0  0  0  0  0
   41.8690   30.1810   37.3180 N   0  0  0  0  0  0  0  0  0  0  0  0
   42.6880   31.2540   37.2800 C   0  0  0  0  0  0  0  0  0  0  0  0
   43.7290   31.3140   36.4000 N   0  0  0  0  0  0  0  0  0  0  0  0
   43.2930   28.3380   34.8880 H   0  0  0  0  0  0  0  0  0  0  0  0
   41.3800   28.2600   36.5250 H   0  0  0  0  0  0  0  0  0  0  0  0
   45.0180   30.3590   34.6570 O   0  0  0  0  0  0  0  0  0  0  0  0
   45.4440   29.5020   34.3230 H   0  0  0  0  0  0  0  0  0  0  0  0
   40.4010   32.6790   37.1900 O   0  0  0  0  0  0  0  0  0  0  0  0
   39.9390   32.1910   37.9070 H   0  0  0  0  0  0  0  0  0  0  0  0
  1  2  1  0  0  0  0
  3  1  1  0  0  0  0
  4  1  1  0  0  0  0
  4  5  1  0  0  0  0
  6  4  1  0  0  0  0
  7  4  1  0  0  0  0
  7 14  1  0  0  0  0
  8  7  2  0  0  0  0
  9  8  1  0  0  0  0
 10  8  1  0  0  0  0
 10 12  2  0  0  0  0
 11 10  1  0  0  0  0
 12 13  1  0  0  0  0
 13 16  1  0  0  0  0
 14 13  2  0  0  0  0
 14 15  1  0  0  0  0
 17 16  1  0  0  0  0
 17 18  1  0  0  0  0
 18 19  1  0  0  0  0
 20 18  2  0  0  0  0
 20 21  1  0  0  0  0
 22 20  1  0  0  0  0
 23 22  1  0  0  0  0
 24 26  1  0  0  0  0
 24 22  2  0  0  0  0
 25 24  1  0  0  0  0
 26 17  2  0  0  0  0
 27 12  1  0  0  0  0
 27 26  1  0  0  0  0
 28 27  1  0  0  0  0
 29  1  1  0  0  0  0
 30 35  1  6  0  0  0
 30 31  1  0  0  0  0
 30 34  1  0  0  0  0
 31 36  1  1  0  0  0
 31 32  1  0  0  0  0
 32 33  1  0  0  0  0
 33 37  1  0  0  0  0
 34 39  1  1  0  0  0
 34 29  1  0  0  0  0
 34 33  1  0  0  0  0
 38 33  1  0  0  0  0
 40 41  2  0  0  0  0
 40 45  1  0  0  0  0
 41 42  1  0  0  0  0
 42 47  1  0  0  0  0
 42 43  2  0  0  0  0
 44 43  1  0  0  0  0
 44 31  1  0  0  0  0
 45 44  2  0  0  0  0
 46 41  1  0  0  0  0
 48 40  1  0  0  0  0
 49 48  1  0  0  0  0
 50 30  1  0  0  0  0
 50 51  1  0  0  0  0
M  END
>  <minimizedAffinity>
-7.35080624

$$$$

 OpenBabel03242519493D

 51 55  0  0  1  0  0  0  0  0999 V2000
   36.5840   30.4440   38.4690 C   0  0  0  0  0  0  0  0  0  0  0  0
   35.8500   29.8350   37.9340 H   0  0  0  0  0  0  0  0  0  0  0  0
   35.8470   31.1710   39.0430 H   0  0  0  0  0  0  0  0  0  0  0  0
   37.4670   31.3590   37.7410 C   0  0  0  0  0  0  0  0  0  0  0  0
   38.2770   30.9030   37.1520 H   0  0  0  0  0  0  0  0  0  0  0  0
   36.8520   31.9210   37.0040 H   0  0  0  0  0  0  0  0  0  0  0  0
   38.1590   32.3000   38.6630 C   0  0  0  0  0  0  0  0  0  0  0  0
   37.6940   33.2600   39.5280 C   0  0  0  0  0  0  0  0  0  0  0  0
   36.6220   33.3320   39.5350 H   0  0  0  0  0  0  0  0  0  0  0  0
   38.5550   34.0200   40.2830 C   0  0  0  0  0  0  0  0  0  0  0  0
   38.0510   34.7510   40.9350 H   0  0  0  0  0  0  0  0  0  0  0  0
   39.9270   33.8820   40.2360 C   0  0  0  0  0  0  0  0  0  0  0  0
   40.4290   32.9310   39.3820 C   0  0  0  0  0  0  0  0  0  0  0  0
   39.5590   32.1900   38.6420 C   0  0  0  0  0  0  0  0  0  0  0  0
   40.0620   31.4580   37.9930 H   0  0  0  0  0  0  0  0  0  0  0  0
   42.1800   32.7410   39.3100 S   0  0  0  0  0  0  0  0  0  0  0  0
   42.8880   33.9200   40.4450 C   0  0  0  0  0  0  0  0  0  0  0  0
   44.2540   33.9340   40.5380 C   0  0  0  0  0  0  0  0  0  0  0  0
   44.8770   33.2680   39.9560 H   0  0  0  0  0  0  0  0  0  0  0  0
   44.8590   34.8110   41.3890 C   0  0  0  0  0  0  0  0  0  0  0  0
   45.9290   34.8910   41.5270 H   0  0  0  0  0  0  0  0  0  0  0  0
   44.0760   35.6610   42.1330 C   0  0  0  0  0  0  0  0  0  0  0  0
   44.5320   36.3630   42.8120 H   0  0  0  0  0  0  0  0  0  0  0  0
   42.7100   35.5940   41.9890 C   0  0  0  0  0  0  0  0  0  0  0  0
   42.1410   36.3010   42.6140 H   0  0  0  0  0  0  0  0  0  0  0  0
   42.0370   34.7320   41.1500 C   0  0  0  0  0  0  0  0  0  0  0  0
   40.6350   34.7570   41.0920 N   0  0  0  0  0  0  0  0  0  0  0  0
   40.1540   35.4480   41.7050 H   0  0  0  0  0  0  0  0  0  0  0  0
   37.1340   29.7510   39.5210 O   0  0  0  0  0  0  0  0  0  0  0  0
   37.4540   29.4950   41.8860 C   0  0  2  0  0  0  0  0  0  0  0  0
   36.9910   28.1370   42.2420 C   0  0  1  0  0  0  0  0  0  0  0  0
   36.3890   27.6370   40.9990 O   0  0  0  0  0  0  0  0  0  0  0  0
   35.5060   28.7310   40.8410 C   0  0  0  0  0  0  0  0  0  0  0  0
   36.5290   29.8770   40.7380 C   0  0  2  0  0  0  0  0  0  0  0  0
   37.4110   30.2220   42.7180 H   0  0  0  0  0  0  0  0  0  0  0  0
   36.1190   28.1600   42.9300 H   0  0  0  0  0  0  0  0  0  0  0  0
   34.7890   28.6560   40.0740 H   0  0  0  0  0  0  0  0  0  0  0  0
   34.9560   28.8560   41.8180 H   0  0  0  0  0  0  0  0  0  0  0  0
   35.9510   30.8070   40.8960 H   0  0  0  0  0  0  0  0  0  0  0  0
   38.8200   24.9960   42.5910 C   0  0  0  0  0  0  0  0  0  0  0  0
   39.9050   25.3270   43.4120 C   0  0  0  0  0  0  0  0  0  0  0  0
   40.0100   26.6610   43.8640 C   0  0  0  0  0  0  0  0  0  0  0  0
   39.0660   27.5620   43.4900 N   0  0  0  0  0  0  0  0  0  0  0  0
   38.0310   27.2110   42.6970 C   0  0  0  0  0  0  0  0  0  0  0  0
   37.8960   25.9320   42.2410 N   0  0  0  0  0  0  0  0  0  0  0  0
   40.6240   24.5840   43.6810 H   0  0  0  0  0  0  0  0  0  0  0  0
   40.8430   26.9540   44.5050 H   0  0  0  0  0  0  0  0  0  0  0  0
   38.6610   23.6940   42.1100 O   0  0  0  0  0  0  0  0  0  0  0  0
   39.4830   23.1100   42.0000 H   0  0  0  0  0  0  0  0  0  0  0  0
   38.7920   29.4260   41.3630 O   0  0  0  0  0  0  0  0  0  0  0  0
   38.7250   29.0400   40.4620 H   0  0  0  0  0  0  0  0  0  0  0  0
  1  3  1  0  0  0  0
  1 29  1  0  0  0  0
  2  1  1  0  0  0  0
  4  1  1  0  0  0  0
  4  7  1  0  0  0  0
  5  4  1  0  0  0  0
  6  4  1  0  0  0  0
  7  8  1  0  0  0  0
  8  9  1  0  0  0  0
  8 10  2  0  0  0  0
 10 11  1  0  0  0  0
 12 10  1  0  0  0  0
 12 27  1  0  0  0  0
 13 12  2  0  0  0  0
 14  7  2  0  0  0  0
 14 13  1  0  0  0  0
 15 14  1  0  0  0  0
 16 13  1  0  0  0  0
 16 17  1  0  0  0  0
 17 18  2  0  0  0  0
 17 26  1  0  0  0  0
 18 20  1  0  0  0  0
 19 18  1  0  0  0  0
 20 21  1  0  0  0  0
 20 22  2  0  0  0  0
 22 23  1  0  0  0  0
 24 22  1  0  0  0  0
 24 25  1  0  0  0  0
 26 24  2  0  0  0  0
 27 26  1  0  0  0  0
 27 28  1  0  0  0  0
 29 34  1  0  0  0  0
 30 31  1  0  0  0  0
 30 35  1  1  0  0  0
 31 44  1  0  0  0  0
 31 36  1  1  0  0  0
 32 31  1  0  0  0  0
 33 32  1  0  0  0  0
 33 38  1  0  0  0  0
 34 33  1  0  0  0  0
 34 39  1  1  0  0  0
 34 30  1  0  0  0  0
 37 33  1  0  0  0  0
 40 41  1  0  0  0  0
 41 46  1  0  0  0  0
 41 42  2  0  0  0  0
 42 47  1  0  0  0  0
 43 42  1  0  0  0  0
 44 43  2  0  0  0  0
 45 40  2  0  0  0  0
 45 44  1  0  0  0  0
 48 40  1  0  0  0  0
 49 48  1  0  0  0  0
 50 30  1  0  0  0  0
 51 50  1  0  0  0  0
M  END
>  <minimizedAffinity>
-7.25524473

$$$$

 OpenBabel03242519493D

 51 55  0  0  1  0  0  0  0  0999 V2000
   37.6080   29.6120   42.2290 C   0  0  0  0  0  0  0  0  0  0  0  0
   36.5750   29.9690   42.2730 H   0  0  0  0  0  0  0  0  0  0  0  0
   37.4870   28.7780   41.3980 H   0  0  0  0  0  0  0  0  0  0  0  0
   38.1940   28.8850   43.3580 C   0  0  0  0  0  0  0  0  0  0  0  0
   39.1610   29.2510   43.7360 H   0  0  0  0  0  0  0  0  0  0  0  0
   37.4950   28.9640   44.2210 H   0  0  0  0  0  0  0  0  0  0  0  0
   38.4390   27.4570   43.0210 C   0  0  0  0  0  0  0  0  0  0  0  0
   39.2980   26.5170   43.5340 C   0  0  0  0  0  0  0  0  0  0  0  0
   39.9010   26.8970   44.3380 H   0  0  0  0  0  0  0  0  0  0  0  0
   39.3390   25.2370   43.0360 C   0  0  0  0  0  0  0  0  0  0  0  0
   40.0720   24.5850   43.5380 H   0  0  0  0  0  0  0  0  0  0  0  0
   38.5370   24.8010   42.0020 C   0  0  0  0  0  0  0  0  0  0  0  0
   37.6640   25.7140   41.4630 C   0  0  0  0  0  0  0  0  0  0  0  0
   37.6390   26.9760   41.9710 C   0  0  0  0  0  0  0  0  0  0  0  0
   36.9070   27.6260   41.4700 H   0  0  0  0  0  0  0  0  0  0  0  0
   36.6310   25.1730   40.1400 S   0  0  0  0  0  0  0  0  0  0  0  0
   37.0210   23.4610   39.8290 C   0  0  0  0  0  0  0  0  0  0  0  0
   36.3200   22.8470   38.8260 C   0  0  0  0  0  0  0  0  0  0  0  0
   35.5680   23.3680   38.2480 H   0  0  0  0  0  0  0  0  0  0  0  0
   36.5700   21.5380   38.5370 C   0  0  0  0  0  0  0  0  0  0  0  0
   36.0650   20.9750   37.7640 H   0  0  0  0  0  0  0  0  0  0  0  0
   37.5240   20.8690   39.2650 C   0  0  0  0  0  0  0  0  0  0  0  0
   37.7380   19.8340   39.0550 H   0  0  0  0  0  0  0  0  0  0  0  0
   38.1910   21.5460   40.2590 C   0  0  0  0  0  0  0  0  0  0  0  0
   38.9410   20.9530   40.8030 H   0  0  0  0  0  0  0  0  0  0  0  0
   37.9870   22.8660   40.6000 C   0  0  0  0  0  0  0  0  0  0  0  0
   38.7310   23.4480   41.6370 N   0  0  0  0  0  0  0  0  0  0  0  0
   39.4260   22.8370   42.1140 H   0  0  0  0  0  0  0  0  0  0  0  0
   38.4190   30.5100   41.5770 O   0  0  0  0  0  0  0  0  0  0  0  0
   39.2860   31.0520   39.4060 C   0  0  2  0  0  0  0  0  0  0  0  0
   39.4170   32.5230   39.3450 C   0  0  1  0  0  0  0  0  0  0  0  0
   38.7910   32.9800   40.5920 O   0  0  0  0  0  0  0  0  0  0  0  0
   37.5660   32.3110   40.3670 C   0  0  0  0  0  0  0  0  0  0  0  0
   38.0720   30.8580   40.3040 C   0  0  2  0  0  0  0  0  0  0  0  0
   39.1590   30.5670   38.4200 H   0  0  0  0  0  0  0  0  0  0  0  0
   38.7540   32.9700   38.5740 H   0  0  0  0  0  0  0  0  0  0  0  0
   36.7800   32.5170   41.0370 H   0  0  0  0  0  0  0  0  0  0  0  0
   37.2190   32.5930   39.3310 H   0  0  0  0  0  0  0  0  0  0  0  0
   37.2470   30.2750   39.8530 H   0  0  0  0  0  0  0  0  0  0  0  0
   42.4070   33.9890   37.8440 C   0  0  0  0  0  0  0  0  0  0  0  0
   43.3140   34.0670   38.9070 C   0  0  0  0  0  0  0  0  0  0  0  0
   42.8940   33.6000   40.1720 C   0  0  0  0  0  0  0  0  0  0  0  0
   41.6390   33.0980   40.3070 N   0  0  0  0  0  0  0  0  0  0  0  0
   40.7880   33.0350   39.2610 C   0  0  0  0  0  0  0  0  0  0  0  0
   41.1590   33.4770   38.0250 N   0  0  0  0  0  0  0  0  0  0  0  0
   44.2910   34.4700   38.7540 H   0  0  0  0  0  0  0  0  0  0  0  0
   43.5740   33.6460   41.0230 H   0  0  0  0  0  0  0  0  0  0  0  0
   42.7620   34.4350   36.5690 O   0  0  0  0  0  0  0  0  0  0  0  0
   43.4700   35.1570   36.4840 H   0  0  0  0  0  0  0  0  0  0  0  0
   40.4240   30.4930   40.0840 O   0  0  0  0  0  0  0  0  0  0  0  0
   40.3150   30.7020   41.0390 H   0  0  0  0  0  0  0  0  0  0  0  0
  1  2  1  0  0  0  0
  1  4  1  0  0  0  0
  3  1  1  0  0  0  0
  4  5  1  0  0  0  0
  4  6  1  0  0  0  0
  7  4  1  0  0  0  0
  7  8  1  0  0  0  0
  8  9  1  0  0  0  0
 10  8  2  0  0  0  0
 10 11  1  0  0  0  0
 12 10  1  0  0  0  0
 13 14  1  0  0  0  0
 13 12  2  0  0  0  0
 14  7  2  0  0  0  0
 15 14  1  0  0  0  0
 16 13  1  0  0  0  0
 17 16  1  0  0  0  0
 17 26  1  0  0  0  0
 18 17  2  0  0  0  0
 19 18  1  0  0  0  0
 20 18  1  0  0  0  0
 20 22  2  0  0  0  0
 21 20  1  0  0  0  0
 22 24  1  0  0  0  0
 23 22  1  0  0  0  0
 24 26  2  0  0  0  0
 24 25  1  0  0  0  0
 26 27  1  0  0  0  0
 27 12  1  0  0  0  0
 27 28  1  0  0  0  0
 29  1  1  0  0  0  0
 30 35  1  6  0  0  0
 30 50  1  0  0  0  0
 30 34  1  0  0  0  0
 31 36  1  6  0  0  0
 31 30  1  0  0  0  0
 31 32  1  0  0  0  0
 33 32  1  0  0  0  0
 33 37  1  0  0  0  0
 34 39  1  6  0  0  0
 34 33  1  0  0  0  0
 34 29  1  0  0  0  0
 38 33  1  0  0  0  0
 40 45  2  0  0  0  0
 40 41  1  0  0  0  0
 41 42  2  0  0  0  0
 42 43  1  0  0  0  0
 42 47  1  0  0  0  0
 44 31  1  0  0  0  0
 44 43  2  0  0  0  0
 45 44  1  0  0  0  0
 46 41  1  0  0  0  0
 48 40  1  0  0  0  0
 49 48  1  0  0  0  0
 50 51  1  0  0  0  0
M  END
>  <minimizedAffinity>
-7.13208485

$$$$

 OpenBabel03242519493D

 51 55  0  0  1  0  0  0  0  0999 V2000
   39.0750   34.2930   40.1730 C   0  0  0  0  0  0  0  0  0  0  0  0
   39.4840   34.2060   41.1830 H   0  0  0  0  0  0  0  0  0  0  0  0
   38.8330   35.4530   40.1640 H   0  0  0  0  0  0  0  0  0  0  0  0
   37.7920   33.6750   39.8310 C   0  0  0  0  0  0  0  0  0  0  0  0
   36.8840   34.2050   40.1550 H   0  0  0  0  0  0  0  0  0  0  0  0
   37.7180   33.6200   38.7220 H   0  0  0  0  0  0  0  0  0  0  0  0
   37.6650   32.3160   40.4240 C   0  0  0  0  0  0  0  0  0  0  0  0
   36.6000   31.4590   40.5600 C   0  0  0  0  0  0  0  0  0  0  0  0
   35.6900   31.8560   40.1500 H   0  0  0  0  0  0  0  0  0  0  0  0
   36.7420   30.2320   41.1630 C   0  0  0  0  0  0  0  0  0  0  0  0
   35.8100   29.6460   41.2060 H   0  0  0  0  0  0  0  0  0  0  0  0
   37.9390   29.7710   41.6700 C   0  0  0  0  0  0  0  0  0  0  0  0
   39.0270   30.6010   41.5510 C   0  0  0  0  0  0  0  0  0  0  0  0
   38.8650   31.8110   40.9510 C   0  0  0  0  0  0  0  0  0  0  0  0
   39.7960   32.3970   40.9070 H   0  0  0  0  0  0  0  0  0  0  0  0
   40.5650   30.0260   42.1930 S   0  0  0  0  0  0  0  0  0  0  0  0
   40.2810   28.4040   42.8760 C   0  0  0  0  0  0  0  0  0  0  0  0
   41.3640   27.7770   43.4320 C   0  0  0  0  0  0  0  0  0  0  0  0
   42.3440   28.2370   43.4590 H   0  0  0  0  0  0  0  0  0  0  0  0
   41.2160   26.5330   43.9720 C   0  0  0  0  0  0  0  0  0  0  0  0
   42.0150   25.9660   44.4300 H   0  0  0  0  0  0  0  0  0  0  0  0
   39.9760   25.9420   43.9420 C   0  0  0  0  0  0  0  0  0  0  0  0
   39.8350   24.9600   44.3620 H   0  0  0  0  0  0  0  0  0  0  0  0
   38.9310   26.6280   43.3690 C   0  0  0  0  0  0  0  0  0  0  0  0
   37.9660   26.0980   43.3780 H   0  0  0  0  0  0  0  0  0  0  0  0
   39.0140   27.8840   42.8070 C   0  0  0  0  0  0  0  0  0  0  0  0
   37.8740   28.4820   42.2500 N   0  0  0  0  0  0  0  0  0  0  0  0
   36.9910   27.9330   42.2890 H   0  0  0  0  0  0  0  0  0  0  0  0
   40.0690   34.2320   39.2250 O   0  0  0  0  0  0  0  0  0  0  0  0
   42.3170   34.5680   38.4540 C   0  0  2  0  0  0  0  0  0  0  0  0
   43.1210   33.4290   38.9470 C   0  0  1  0  0  0  0  0  0  0  0  0
   42.1950   32.7050   39.8280 O   0  0  0  0  0  0  0  0  0  0  0  0
   41.8850   33.8280   40.6300 C   0  0  0  0  0  0  0  0  0  0  0  0
   41.2850   34.7560   39.5580 C   0  0  2  0  0  0  0  0  0  0  0  0
   42.9020   35.4880   38.2670 H   0  0  0  0  0  0  0  0  0  0  0  0
   43.9120   33.7520   39.6550 H   0  0  0  0  0  0  0  0  0  0  0  0
   41.3070   33.6520   41.4920 H   0  0  0  0  0  0  0  0  0  0  0  0
   42.8660   34.2810   40.9580 H   0  0  0  0  0  0  0  0  0  0  0  0
   41.2670   35.7640   40.0120 H   0  0  0  0  0  0  0  0  0  0  0  0
   43.1010   30.7390   36.4760 C   0  0  0  0  0  0  0  0  0  0  0  0
   44.3990   30.7540   35.9520 C   0  0  0  0  0  0  0  0  0  0  0  0
   45.3090   31.7070   36.4620 C   0  0  0  0  0  0  0  0  0  0  0  0
   44.8940   32.5630   37.4310 N   0  0  0  0  0  0  0  0  0  0  0  0
   43.6350   32.5230   37.9160 C   0  0  0  0  0  0  0  0  0  0  0  0
   42.7290   31.6160   37.4480 N   0  0  0  0  0  0  0  0  0  0  0  0
   44.6800   30.0610   35.1890 H   0  0  0  0  0  0  0  0  0  0  0  0
   46.3280   31.7470   36.0760 H   0  0  0  0  0  0  0  0  0  0  0  0
   42.1550   29.8220   36.0130 O   0  0  0  0  0  0  0  0  0  0  0  0
   42.2460   29.4600   35.0700 H   0  0  0  0  0  0  0  0  0  0  0  0
   41.6140   34.1820   37.2610 O   0  0  0  0  0  0  0  0  0  0  0  0
   40.8850   33.5840   37.5410 H   0  0  0  0  0  0  0  0  0  0  0  0
  1  2  1  0  0  0  0
  3  1  1  0  0  0  0
  4  5  1  0  0  0  0
  4  1  1  0  0  0  0
  4  7  1  0  0  0  0
  6  4  1  0  0  0  0
  7  8  2  0  0  0  0
  7 14  1  0  0  0  0
  8 10  1  0  0  0  0
  9  8  1  0  0  0  0
 10 11  1  0  0  0  0
 10 12  2  0  0  0  0
 12 27  1  0  0  0  0
 13 12  1  0  0  0  0
 13 16  1  0  0  0  0
 14 13  2  0  0  0  0
 15 14  1  0  0  0  0
 16 17  1  0  0  0  0
 17 18  1  0  0  0  0
 18 19  1  0  0  0  0
 18 20  2  0  0  0  0
 20 21  1  0  0  0  0
 22 20  1  0  0  0  0
 22 23  1  0  0  0  0
 24 25  1  0  0  0  0
 24 22  2  0  0  0  0
 26 17  2  0  0  0  0
 26 24  1  0  0  0  0
 27 28  1  0  0  0  0
 27 26  1  0  0  0  0
 29 34  1  0  0  0  0
 29  1  1  0  0  0  0
 30 35  1  6  0  0  0
 30 31  1  0  0  0  0
 30 34  1  0  0  0  0
 31 36  1  1  0  0  0
 31 32  1  0  0  0  0
 32 33  1  0  0  0  0
 33 38  1  0  0  0  0
 33 37  1  0  0  0  0
 34 39  1  1  0  0  0
 34 33  1  0  0  0  0
 40 45  1  0  0  0  0
 41 42  1  0  0  0  0
 41 40  2  0  0  0  0
 42 43  2  0  0  0  0
 43 44  1  0  0  0  0
 44 31  1  0  0  0  0
 45 44  2  0  0  0  0
 46 41  1  0  0  0  0
 47 42  1  0  0  0  0
 48 40  1  0  0  0  0
 49 48  1  0  0  0  0
 50 51  1  0  0  0  0
 50 30  1  0  0  0  0
M  END
>  <minimizedAffinity>
-7.00569677

$$$$

 OpenBabel03242519493D

 51 55  0  0  1  0  0  0  0  0999 V2000
   35.9320   29.2450   40.9280 C   0  0  0  0  0  0  0  0  0  0  0  0
   35.8930   28.7300   39.9640 H   0  0  0  0  0  0  0  0  0  0  0  0
   34.8260   29.0390   41.2990 H   0  0  0  0  0  0  0  0  0  0  0  0
   36.0460   30.7040   40.9910 C   0  0  0  0  0  0  0  0  0  0  0  0
   35.1330   31.2820   40.7880 H   0  0  0  0  0  0  0  0  0  0  0  0
   36.3450   30.9830   42.0260 H   0  0  0  0  0  0  0  0  0  0  0  0
   37.0410   31.2170   40.0110 C   0  0  0  0  0  0  0  0  0  0  0  0
   36.9990   31.3860   38.6480 C   0  0  0  0  0  0  0  0  0  0  0  0
   36.0590   31.0910   38.2200 H   0  0  0  0  0  0  0  0  0  0  0  0
   38.0750   31.8860   37.9560 C   0  0  0  0  0  0  0  0  0  0  0  0
   37.9070   31.9700   36.8700 H   0  0  0  0  0  0  0  0  0  0  0  0
   39.2600   32.2520   38.5590 C   0  0  0  0  0  0  0  0  0  0  0  0
   39.3390   32.0990   39.9210 C   0  0  0  0  0  0  0  0  0  0  0  0
   38.2630   31.6010   40.5880 C   0  0  0  0  0  0  0  0  0  0  0  0
   38.4300   31.5190   41.6730 H   0  0  0  0  0  0  0  0  0  0  0  0
   40.8470   32.5630   40.7080 S   0  0  0  0  0  0  0  0  0  0  0  0
   41.9500   33.1510   39.4360 C   0  0  0  0  0  0  0  0  0  0  0  0
   43.1890   33.5640   39.8450 C   0  0  0  0  0  0  0  0  0  0  0  0
   43.4910   33.5370   40.8840 H   0  0  0  0  0  0  0  0  0  0  0  0
   44.0810   34.0260   38.9230 C   0  0  0  0  0  0  0  0  0  0  0  0
   45.0790   34.3720   39.1550 H   0  0  0  0  0  0  0  0  0  0  0  0
   43.7080   34.0630   37.6010 C   0  0  0  0  0  0  0  0  0  0  0  0
   44.3950   34.4240   36.8540 H   0  0  0  0  0  0  0  0  0  0  0  0
   42.4470   33.6320   37.2590 C   0  0  0  0  0  0  0  0  0  0  0  0
   42.2120   33.6890   36.1850 H   0  0  0  0  0  0  0  0  0  0  0  0
   41.5000   33.1550   38.1410 C   0  0  0  0  0  0  0  0  0  0  0  0
   40.2440   32.7450   37.6700 N   0  0  0  0  0  0  0  0  0  0  0  0
   40.0810   32.8210   36.6450 H   0  0  0  0  0  0  0  0  0  0  0  0
   36.6510   28.5220   41.8510 O   0  0  0  0  0  0  0  0  0  0  0  0
   37.8990   26.5860   42.5230 C   0  0  2  0  0  0  0  0  0  0  0  0
   39.1370   26.5650   41.7170 C   0  0  1  0  0  0  0  0  0  0  0  0
   38.9440   27.6570   40.7540 O   0  0  0  0  0  0  0  0  0  0  0  0
   37.7060   27.1740   40.2680 C   0  0  0  0  0  0  0  0  0  0  0  0
   36.8860   27.2070   41.5710 C   0  0  2  0  0  0  0  0  0  0  0  0
   37.5770   25.5910   42.8860 H   0  0  0  0  0  0  0  0  0  0  0  0
   39.1900   25.6760   41.0540 H   0  0  0  0  0  0  0  0  0  0  0  0
   37.2990   27.6660   39.4310 H   0  0  0  0  0  0  0  0  0  0  0  0
   37.8580   26.0900   39.9920 H   0  0  0  0  0  0  0  0  0  0  0  0
   35.9900   26.5880   41.3750 H   0  0  0  0  0  0  0  0  0  0  0  0
   42.3050   25.7360   43.3360 C   0  0  0  0  0  0  0  0  0  0  0  0
   42.7730   26.9670   43.8100 C   0  0  0  0  0  0  0  0  0  0  0  0
   41.9800   28.1130   43.5740 C   0  0  0  0  0  0  0  0  0  0  0  0
   40.8070   27.9770   42.9050 N   0  0  0  0  0  0  0  0  0  0  0  0
   40.3820   26.7750   42.4610 C   0  0  0  0  0  0  0  0  0  0  0  0
   41.1210   25.6470   42.6700 N   0  0  0  0  0  0  0  0  0  0  0  0
   43.7030   27.0260   44.3310 H   0  0  0  0  0  0  0  0  0  0  0  0
   42.3150   29.0880   43.9290 H   0  0  0  0  0  0  0  0  0  0  0  0
   43.0430   24.5670   43.5350 O   0  0  0  0  0  0  0  0  0  0  0  0
   44.0490   24.6370   43.6420 H   0  0  0  0  0  0  0  0  0  0  0  0
   38.0600   27.4840   43.6340 O   0  0  0  0  0  0  0  0  0  0  0  0
   38.0270   28.3960   43.2690 H   0  0  0  0  0  0  0  0  0  0  0  0
  1  4  1  0  0  0  0
  1  3  1  0  0  0  0
  1 29  1  0  0  0  0
  2  1  1  0  0  0  0
  4  6  1  0  0  0  0
  5  4  1  0  0  0  0
  7 14  1  0  0  0  0
  7  4  1  0  0  0  0
  8  7  2  0  0  0  0
  9  8  1  0  0  0  0
 10 12  2  0  0  0  0
 10  8  1  0  0  0  0
 11 10  1  0  0  0  0
 12 13  1  0  0  0  0
 13 14  2  0  0  0  0
 13 16  1  0  0  0  0
 14 15  1  0  0  0  0
 17 18  1  0  0  0  0
 17 16  1  0  0  0  0
 18 19  1  0  0  0  0
 20 21  1  0  0  0  0
 20 18  2  0  0  0  0
 22 20  1  0  0  0  0
 23 22  1  0  0  0  0
 24 22  2  0  0  0  0
 24 26  1  0  0  0  0
 25 24  1  0  0  0  0
 26 17  2  0  0  0  0
 27 26  1  0  0  0  0
 27 12  1  0  0  0  0
 28 27  1  0  0  0  0
 30 35  1  1  0  0  0
 30 50  1  0  0  0  0
 31 36  1  6  0  0  0
 31 44  1  0  0  0  0
 31 30  1  0  0  0  0
 32 31  1  0  0  0  0
 33 32  1  0  0  0  0
 33 34  1  0  0  0  0
 34 39  1  6  0  0  0
 34 29  1  0  0  0  0
 34 30  1  0  0  0  0
 37 33  1  0  0  0  0
 38 33  1  0  0  0  0
 40 48  1  0  0  0  0
 40 41  1  0  0  0  0
 41 46  1  0  0  0  0
 42 41  2  0  0  0  0
 42 47  1  0  0  0  0
 43 42  1  0  0  0  0
 44 45  1  0  0  0  0
 44 43  2  0  0  0  0
 45 40  2  0  0  0  0
 48 49  1  0  0  0  0
 51 50  1  0  0  0  0
M  END
>  <minimizedAffinity>
-6.73213911

$$$$

 OpenBabel03242519493D

 51 55  0  0  1  0  0  0  0  0999 V2000
   38.3490   34.3440   40.2070 C   0  0  0  0  0  0  0  0  0  0  0  0
   38.1750   34.2380   41.2810 H   0  0  0  0  0  0  0  0  0  0  0  0
   38.3370   35.5250   40.1280 H   0  0  0  0  0  0  0  0  0  0  0  0
   37.3290   33.9270   39.2420 C   0  0  0  0  0  0  0  0  0  0  0  0
   36.2840   34.1740   39.4860 H   0  0  0  0  0  0  0  0  0  0  0  0
   37.5330   34.4430   38.2780 H   0  0  0  0  0  0  0  0  0  0  0  0
   37.3290   32.4520   39.0480 C   0  0  0  0  0  0  0  0  0  0  0  0
   37.4070   31.6630   37.9260 C   0  0  0  0  0  0  0  0  0  0  0  0
   37.4870   32.2340   37.0200 H   0  0  0  0  0  0  0  0  0  0  0  0
   37.3820   30.2920   38.0130 C   0  0  0  0  0  0  0  0  0  0  0  0
   37.4520   29.7820   37.0380 H   0  0  0  0  0  0  0  0  0  0  0  0
   37.2810   29.6100   39.2070 C   0  0  0  0  0  0  0  0  0  0  0  0
   37.2020   30.3650   40.3510 C   0  0  0  0  0  0  0  0  0  0  0  0
   37.2270   31.7220   40.2440 C   0  0  0  0  0  0  0  0  0  0  0  0
   37.1590   32.2310   41.2170 H   0  0  0  0  0  0  0  0  0  0  0  0
   37.0720   29.5090   41.8870 S   0  0  0  0  0  0  0  0  0  0  0  0
   37.0770   27.7630   41.5220 C   0  0  0  0  0  0  0  0  0  0  0  0
   36.9830   26.9160   42.5930 C   0  0  0  0  0  0  0  0  0  0  0  0
   36.9090   27.2790   43.6100 H   0  0  0  0  0  0  0  0  0  0  0  0
   36.9820   25.5680   42.3840 C   0  0  0  0  0  0  0  0  0  0  0  0
   36.9120   24.8270   43.1690 H   0  0  0  0  0  0  0  0  0  0  0  0
   37.0760   25.0970   41.0970 C   0  0  0  0  0  0  0  0  0  0  0  0
   37.0780   24.0360   40.9070 H   0  0  0  0  0  0  0  0  0  0  0  0
   37.1680   26.0050   40.0670 C   0  0  0  0  0  0  0  0  0  0  0  0
   37.2400   25.5620   39.0620 H   0  0  0  0  0  0  0  0  0  0  0  0
   37.1740   27.3760   40.2110 C   0  0  0  0  0  0  0  0  0  0  0  0
   37.2730   28.2010   39.0800 N   0  0  0  0  0  0  0  0  0  0  0  0
   37.3380   27.7240   38.1580 H   0  0  0  0  0  0  0  0  0  0  0  0
   39.6580   34.0780   39.8850 O   0  0  0  0  0  0  0  0  0  0  0  0
   41.9450   34.3490   40.5610 C   0  0  2  0  0  0  0  0  0  0  0  0
   42.6350   33.0720   40.2830 C   0  0  1  0  0  0  0  0  0  0  0  0
   41.5490   32.1710   39.8740 O   0  0  0  0  0  0  0  0  0  0  0  0
   40.7710   32.3830   41.0360 C   0  0  0  0  0  0  0  0  0  0  0  0
   40.5340   33.9000   40.9170 C   0  0  2  0  0  0  0  0  0  0  0  0
   42.4090   34.9490   41.3660 H   0  0  0  0  0  0  0  0  0  0  0  0
   43.0050   32.5860   41.2100 H   0  0  0  0  0  0  0  0  0  0  0  0
   39.9220   31.7720   41.1590 H   0  0  0  0  0  0  0  0  0  0  0  0
   41.4470   32.2160   41.9240 H   0  0  0  0  0  0  0  0  0  0  0  0
   40.1780   34.2260   41.9120 H   0  0  0  0  0  0  0  0  0  0  0  0
   44.3050   32.2860   37.1310 C   0  0  0  0  0  0  0  0  0  0  0  0
   45.4500   33.0910   37.1470 C   0  0  0  0  0  0  0  0  0  0  0  0
   45.6610   33.9220   38.2690 C   0  0  0  0  0  0  0  0  0  0  0  0
   44.7540   33.9090   39.2800 N   0  0  0  0  0  0  0  0  0  0  0  0
   43.6590   33.1200   39.2360 C   0  0  0  0  0  0  0  0  0  0  0  0
   43.4230   32.3040   38.1680 N   0  0  0  0  0  0  0  0  0  0  0  0
   46.1360   33.0690   36.3280 H   0  0  0  0  0  0  0  0  0  0  0  0
   46.5420   34.5630   38.3150 H   0  0  0  0  0  0  0  0  0  0  0  0
   44.0400   31.4430   36.0490 O   0  0  0  0  0  0  0  0  0  0  0  0
   44.4110   31.6870   35.1380 H   0  0  0  0  0  0  0  0  0  0  0  0
   41.8640   35.1270   39.3550 O   0  0  0  0  0  0  0  0  0  0  0  0
   41.1840   34.7000   38.7870 H   0  0  0  0  0  0  0  0  0  0  0  0
  1  2  1  0  0  0  0
  3  1  1  0  0  0  0
  4  5  1  0  0  0  0
  4  1  1  0  0  0  0
  6  4  1  0  0  0  0
  7  4  1  0  0  0  0
  7 14  1  0  0  0  0
  8 10  1  0  0  0  0
  8  7  2  0  0  0  0
  9  8  1  0  0  0  0
 10 12  2  0  0  0  0
 11 10  1  0  0  0  0
 12 13  1  0  0  0  0
 13 16  1  0  0  0  0
 14 13  2  0  0  0  0
 14 15  1  0  0  0  0
 17 16  1  0  0  0  0
 17 18  1  0  0  0  0
 18 19  1  0  0  0  0
 20 18  2  0  0  0  0
 20 21  1  0  0  0  0
 22 20  1  0  0  0  0
 23 22  1  0  0  0  0
 24 26  1  0  0  0  0
 24 22  2  0  0  0  0
 25 24  1  0  0  0  0
 26 17  2  0  0  0  0
 27 12  1  0  0  0  0
 27 26  1  0  0  0  0
 28 27  1  0  0  0  0
 29  1  1  0  0  0  0
 29 34  1  0  0  0  0
 30 34  1  0  0  0  0
 30 35  1  1  0  0  0
 31 30  1  0  0  0  0
 31 36  1  1  0  0  0
 32 31  1  0  0  0  0
 32 33  1  0  0  0  0
 33 37  1  0  0  0  0
 33 38  1  0  0  0  0
 34 33  1  0  0  0  0
 34 39  1  1  0  0  0
 40 41  2  0  0  0  0
 40 45  1  0  0  0  0
 41 42  1  0  0  0  0
 42 47  1  0  0  0  0
 42 43  2  0  0  0  0
 44 43  1  0  0  0  0
 44 31  1  0  0  0  0
 45 44  2  0  0  0  0
 46 41  1  0  0  0  0
 48 40  1  0  0  0  0
 49 48  1  0  0  0  0
 50 30  1  0  0  0  0
 51 50  1  0  0  0  0
M  END
>  <minimizedAffinity>
-6.70351076

$$$$

 OpenBabel03242519493D

 51 55  0  0  1  0  0  0  0  0999 V2000
   39.9400   34.3420   39.9030 C   0  0  0  0  0  0  0  0  0  0  0  0
   40.4170   34.6340   40.8430 H   0  0  0  0  0  0  0  0  0  0  0  0
   39.5380   35.4000   39.5560 H   0  0  0  0  0  0  0  0  0  0  0  0
   38.7380   33.5050   39.9060 C   0  0  0  0  0  0  0  0  0  0  0  0
   37.8390   33.9290   40.3780 H   0  0  0  0  0  0  0  0  0  0  0  0
   38.4490   33.3100   38.8490 H   0  0  0  0  0  0  0  0  0  0  0  0
   38.9670   32.2210   40.6240 C   0  0  0  0  0  0  0  0  0  0  0  0
   39.7980   31.8730   41.6590 C   0  0  0  0  0  0  0  0  0  0  0  0
   40.3890   32.6970   42.0160 H   0  0  0  0  0  0  0  0  0  0  0  0
   39.8290   30.5900   42.1520 C   0  0  0  0  0  0  0  0  0  0  0  0
   40.5400   30.4480   42.9820 H   0  0  0  0  0  0  0  0  0  0  0  0
   39.0440   29.5700   41.6580 C   0  0  0  0  0  0  0  0  0  0  0  0
   38.1980   29.8810   40.6210 C   0  0  0  0  0  0  0  0  0  0  0  0
   38.1840   31.1570   40.1480 C   0  0  0  0  0  0  0  0  0  0  0  0
   37.4730   31.2990   39.3190 H   0  0  0  0  0  0  0  0  0  0  0  0
   37.1870   28.5880   39.9780 S   0  0  0  0  0  0  0  0  0  0  0  0
   37.5560   27.1130   40.9090 C   0  0  0  0  0  0  0  0  0  0  0  0
   36.8680   25.9820   40.5600 C   0  0  0  0  0  0  0  0  0  0  0  0
   36.1370   25.9760   39.7620 H   0  0  0  0  0  0  0  0  0  0  0  0
   37.1020   24.8190   41.2330 C   0  0  0  0  0  0  0  0  0  0  0  0
   36.6060   23.8810   41.0260 H   0  0  0  0  0  0  0  0  0  0  0  0
   38.0280   24.8160   42.2480 C   0  0  0  0  0  0  0  0  0  0  0  0
   38.2300   23.9100   42.7950 H   0  0  0  0  0  0  0  0  0  0  0  0
   38.6840   25.9880   42.5460 C   0  0  0  0  0  0  0  0  0  0  0  0
   39.4120   25.9170   43.3690 H   0  0  0  0  0  0  0  0  0  0  0  0
   38.4940   27.1940   41.9060 C   0  0  0  0  0  0  0  0  0  0  0  0
   39.2240   28.3240   42.3030 N   0  0  0  0  0  0  0  0  0  0  0  0
   39.8980   28.1950   43.0860 H   0  0  0  0  0  0  0  0  0  0  0  0
   40.8740   34.0890   38.9270 O   0  0  0  0  0  0  0  0  0  0  0  0
   43.0410   34.3340   37.9260 C   0  0  2  0  0  0  0  0  0  0  0  0
   43.8520   33.1760   38.3550 C   0  0  1  0  0  0  0  0  0  0  0  0
   42.9970   32.4980   39.3390 O   0  0  0  0  0  0  0  0  0  0  0  0
   42.8090   33.6440   40.1480 C   0  0  0  0  0  0  0  0  0  0  0  0
   42.1340   34.5750   39.1250 C   0  0  2  0  0  0  0  0  0  0  0  0
   43.6340   35.2300   37.6620 H   0  0  0  0  0  0  0  0  0  0  0  0
   44.7220   33.4810   38.9740 H   0  0  0  0  0  0  0  0  0  0  0  0
   42.3160   33.5020   41.0670 H   0  0  0  0  0  0  0  0  0  0  0  0
   43.8330   34.0670   40.3660 H   0  0  0  0  0  0  0  0  0  0  0  0
   42.1970   35.5910   39.5590 H   0  0  0  0  0  0  0  0  0  0  0  0
   43.4920   30.4480   35.9530 C   0  0  0  0  0  0  0  0  0  0  0  0
   44.7280   30.4110   35.2980 C   0  0  0  0  0  0  0  0  0  0  0  0
   45.7160   31.3410   35.6930 C   0  0  0  0  0  0  0  0  0  0  0  0
   45.4310   32.2260   36.6820 N   0  0  0  0  0  0  0  0  0  0  0  0
   44.2280   32.2360   37.2960 C   0  0  0  0  0  0  0  0  0  0  0  0
   43.2500   31.3530   36.9410 N   0  0  0  0  0  0  0  0  0  0  0  0
   44.9070   29.6960   34.5240 H   0  0  0  0  0  0  0  0  0  0  0  0
   46.6900   31.3400   35.2030 H   0  0  0  0  0  0  0  0  0  0  0  0
   42.4740   29.5560   35.6080 O   0  0  0  0  0  0  0  0  0  0  0  0
   42.4550   29.1760   34.6680 H   0  0  0  0  0  0  0  0  0  0  0  0
   42.2070   33.9550   36.8170 O   0  0  0  0  0  0  0  0  0  0  0  0
   41.4920   33.3870   37.1810 H   0  0  0  0  0  0  0  0  0  0  0  0
  1  4  1  0  0  0  0
  1  2  1  0  0  0  0
  3  1  1  0  0  0  0
  4  5  1  0  0  0  0
  4  7  1  0  0  0  0
  6  4  1  0  0  0  0
  7  8  1  0  0  0  0
  8  9  1  0  0  0  0
  8 10  2  0  0  0  0
 10 11  1  0  0  0  0
 12 10  1  0  0  0  0
 12 27  1  0  0  0  0
 13 12  2  0  0  0  0
 14 13  1  0  0  0  0
 14  7  2  0  0  0  0
 15 14  1  0  0  0  0
 16 13  1  0  0  0  0
 16 17  1  0  0  0  0
 17 26  1  0  0  0  0
 18 17  2  0  0  0  0
 18 20  1  0  0  0  0
 19 18  1  0  0  0  0
 20 22  2  0  0  0  0
 21 20  1  0  0  0  0
 22 24  1  0  0  0  0
 22 23  1  0  0  0  0
 24 25  1  0  0  0  0
 26 27  1  0  0  0  0
 26 24  2  0  0  0  0
 27 28  1  0  0  0  0
 29 34  1  0  0  0  0
 29  1  1  0  0  0  0
 30 35  1  6  0  0  0
 30 31  1  0  0  0  0
 30 34  1  0  0  0  0
 31 36  1  1  0  0  0
 31 32  1  0  0  0  0
 32 33  1  0  0  0  0
 33 38  1  0  0  0  0
 33 37  1  0  0  0  0
 34 39  1  1  0  0  0
 34 33  1  0  0  0  0
 40 45  1  0  0  0  0
 41 42  1  0  0  0  0
 41 40  2  0  0  0  0
 42 43  2  0  0  0  0
 43 44  1  0  0  0  0
 44 31  1  0  0  0  0
 45 44  2  0  0  0  0
 46 41  1  0  0  0  0
 47 42  1  0  0  0  0
 48 40  1  0  0  0  0
 49 48  1  0  0  0  0
 50 51  1  0  0  0  0
 50 30  1  0  0  0  0
M  END
>  <minimizedAffinity>
-6.69808292

$$$$

 OpenBabel03242519493D

 51 55  0  0  1  0  0  0  0  0999 V2000
   40.2140   27.7620   43.2630 C   0  0  0  0  0  0  0  0  0  0  0  0
   41.1210   27.2520   42.9280 H   0  0  0  0  0  0  0  0  0  0  0  0
   40.4900   27.9100   44.4060 H   0  0  0  0  0  0  0  0  0  0  0  0
   38.9330   27.0540   43.3100 C   0  0  0  0  0  0  0  0  0  0  0  0
   38.9620   25.9660   43.1440 H   0  0  0  0  0  0  0  0  0  0  0  0
   38.5030   27.1820   44.3280 H   0  0  0  0  0  0  0  0  0  0  0  0
   37.9870   27.5650   42.2820 C   0  0  0  0  0  0  0  0  0  0  0  0
   36.7450   28.1440   42.3690 C   0  0  0  0  0  0  0  0  0  0  0  0
   36.4030   28.2460   43.3830 H   0  0  0  0  0  0  0  0  0  0  0  0
   36.0570   28.5350   41.2460 C   0  0  0  0  0  0  0  0  0  0  0  0
   35.0730   28.9850   41.4590 H   0  0  0  0  0  0  0  0  0  0  0  0
   36.5470   28.3830   39.9660 C   0  0  0  0  0  0  0  0  0  0  0  0
   37.7880   27.8090   39.8380 C   0  0  0  0  0  0  0  0  0  0  0  0
   38.4520   27.4280   40.9630 C   0  0  0  0  0  0  0  0  0  0  0  0
   39.4350   26.9800   40.7510 H   0  0  0  0  0  0  0  0  0  0  0  0
   38.4290   27.6070   38.2080 S   0  0  0  0  0  0  0  0  0  0  0  0
   37.2100   28.2470   37.0760 C   0  0  0  0  0  0  0  0  0  0  0  0
   37.5210   28.1820   35.7440 C   0  0  0  0  0  0  0  0  0  0  0  0
   38.4540   27.7650   35.3900 H   0  0  0  0  0  0  0  0  0  0  0  0
   36.6320   28.6560   34.8240 C   0  0  0  0  0  0  0  0  0  0  0  0
   36.7930   28.6450   33.7550 H   0  0  0  0  0  0  0  0  0  0  0  0
   35.4430   29.1870   35.2640 C   0  0  0  0  0  0  0  0  0  0  0  0
   34.7260   29.5680   34.5550 H   0  0  0  0  0  0  0  0  0  0  0  0
   35.1960   29.2210   36.6160 C   0  0  0  0  0  0  0  0  0  0  0  0
   34.2270   29.6590   36.9010 H   0  0  0  0  0  0  0  0  0  0  0  0
   36.0500   28.7600   37.5950 C   0  0  0  0  0  0  0  0  0  0  0  0
   35.6850   28.8510   38.9470 N   0  0  0  0  0  0  0  0  0  0  0  0
   34.7560   29.2740   39.1530 H   0  0  0  0  0  0  0  0  0  0  0  0
   40.1900   29.0680   42.8340 O   0  0  0  0  0  0  0  0  0  0  0  0
   41.3270   31.1440   42.4360 C   0  0  2  0  0  0  0  0  0  0  0  0
   41.1650   31.4600   41.0010 C   0  0  1  0  0  0  0  0  0  0  0  0
   40.5220   30.2590   40.4510 O   0  0  0  0  0  0  0  0  0  0  0  0
   41.5040   29.3620   40.9320 C   0  0  0  0  0  0  0  0  0  0  0  0
   41.3740   29.6220   42.4440 C   0  0  2  0  0  0  0  0  0  0  0  0
   42.2240   31.5930   42.9010 H   0  0  0  0  0  0  0  0  0  0  0  0
   42.1370   31.4700   40.4640 H   0  0  0  0  0  0  0  0  0  0  0  0
   41.4360   28.3630   40.6080 H   0  0  0  0  0  0  0  0  0  0  0  0
   42.5080   29.7630   40.6050 H   0  0  0  0  0  0  0  0  0  0  0  0
   42.2840   29.1870   42.9000 H   0  0  0  0  0  0  0  0  0  0  0  0
   38.1690   33.4290   40.3060 C   0  0  0  0  0  0  0  0  0  0  0  0
   38.6500   34.7360   40.1650 C   0  0  0  0  0  0  0  0  0  0  0  0
   40.0390   34.9490   40.3060 C   0  0  0  0  0  0  0  0  0  0  0  0
   40.8460   33.8900   40.5700 N   0  0  0  0  0  0  0  0  0  0  0  0
   40.3520   32.6400   40.6990 C   0  0  0  0  0  0  0  0  0  0  0  0
   39.0150   32.3960   40.5690 N   0  0  0  0  0  0  0  0  0  0  0  0
   37.9760   35.5390   39.9580 H   0  0  0  0  0  0  0  0  0  0  0  0
   40.4480   35.9550   40.2030 H   0  0  0  0  0  0  0  0  0  0  0  0
   36.8050   33.1520   40.1790 O   0  0  0  0  0  0  0  0  0  0  0  0
   36.1370   33.8860   40.3890 H   0  0  0  0  0  0  0  0  0  0  0  0
   40.1480   31.5460   43.1550 O   0  0  0  0  0  0  0  0  0  0  0  0
   39.4430   30.9000   42.9280 H   0  0  0  0  0  0  0  0  0  0  0  0
  1  4  1  0  0  0  0
  1  3  1  0  0  0  0
  2  1  1  0  0  0  0
  4  6  1  0  0  0  0
  5  4  1  0  0  0  0
  7  8  1  0  0  0  0
  7  4  1  0  0  0  0
  8  9  1  0  0  0  0
 10 11  1  0  0  0  0
 10  8  2  0  0  0  0
 12 10  1  0  0  0  0
 13 12  2  0  0  0  0
 13 14  1  0  0  0  0
 14  7  2  0  0  0  0
 15 14  1  0  0  0  0
 16 13  1  0  0  0  0
 17 26  1  0  0  0  0
 17 16  1  0  0  0  0
 18 17  2  0  0  0  0
 19 18  1  0  0  0  0
 20 22  2  0  0  0  0
 20 18  1  0  0  0  0
 21 20  1  0  0  0  0
 22 24  1  0  0  0  0
 23 22  1  0  0  0  0
 24 25  1  0  0  0  0
 24 26  2  0  0  0  0
 26 27  1  0  0  0  0
 27 28  1  0  0  0  0
 27 12  1  0  0  0  0
 29  1  1  0  0  0  0
 30 34  1  0  0  0  0
 30 35  1  1  0  0  0
 30 50  1  0  0  0  0
 31 36  1  6  0  0  0
 31 30  1  0  0  0  0
 32 33  1  0  0  0  0
 32 31  1  0  0  0  0
 33 34  1  0  0  0  0
 34 29  1  0  0  0  0
 34 39  1  1  0  0  0
 37 33  1  0  0  0  0
 38 33  1  0  0  0  0
 40 45  1  0  0  0  0
 41 40  2  0  0  0  0
 41 42  1  0  0  0  0
 42 43  2  0  0  0  0
 43 44  1  0  0  0  0
 44 31  1  0  0  0  0
 45 44  2  0  0  0  0
 46 41  1  0  0  0  0
 47 42  1  0  0  0  0
 48 40  1  0  0  0  0
 48 49  1  0  0  0  0
 51 50  1  0  0  0  0
M  END
>  <minimizedAffinity>
-6.66332006

$$$$
