REMARK  Name = 
REMARK  6 active torsions:
REMARK  status: ('A' for Active; 'I' for Inactive)
REMARK    1  A    between atoms: C_2  and  O_7
REMARK    2  A    between atoms: O_7  and  P_9
REMARK    3  A    between atoms: P_9  and  O_10
REMARK    4  A    between atoms: P_9  and  O_11
REMARK    5  A    between atoms: O_11  and  C_12
REMARK    6  A    between atoms: C_12  and  C_18
REMARK                            x       y       z     vdW  Elec       q    Type
REMARK                         _______ _______ _______ _____ _____    ______ ____
ROOT
ATOM      1  C   UNL     1      48.491  34.243  37.944  0.00  0.00    +0.000 A 
ATOM      2  C   UNL     1      48.099  35.074  36.960  0.00  0.00    +0.000 A 
ATOM      3  H   UNL     1      47.439  35.912  37.118  0.00  0.00    +0.000 HD
ATOM      4  C   UNL     1      48.601  34.791  35.684  0.00  0.00    +0.000 A 
ATOM      5  H   UNL     1      48.262  35.484  34.908  0.00  0.00    +0.000 HD
ATOM      6  C   UNL     1      49.441  33.753  35.384  0.00  0.00    +0.000 A 
ATOM      7  C   UNL     1      49.819  32.929  36.414  0.00  0.00    +0.000 A 
ATOM      8  C   UNL     1      49.352  33.177  37.650  0.00  0.00    +0.000 A 
ATOM      9  H   UNL     1      49.663  32.507  38.466  0.00  0.00    +0.000 HD
ATOM     10  S   UNL     1      50.913  31.565  36.068  0.00  0.00    +0.000 S 
ATOM     11  C   UNL     1      51.252  31.642  34.331  0.00  0.00    +0.000 A 
ATOM     12  C   UNL     1      52.079  30.676  33.859  0.00  0.00    +0.000 A 
ATOM     13  H   UNL     1      52.521  29.896  34.464  0.00  0.00    +0.000 HD
ATOM     14  C   UNL     1      52.408  30.651  32.501  0.00  0.00    +0.000 A 
ATOM     15  H   UNL     1      53.063  29.901  32.078  0.00  0.00    +0.000 HD
ATOM     16  C   UNL     1      51.881  31.612  31.680  0.00  0.00    +0.000 A 
ATOM     17  H   UNL     1      52.127  31.603  30.632  0.00  0.00    +0.000 HD
ATOM     18  C   UNL     1      51.053  32.552  32.243  0.00  0.00    +0.000 A 
ATOM     19  H   UNL     1      50.669  33.290  31.522  0.00  0.00    +0.000 HD
ATOM     20  C   UNL     1      50.692  32.628  33.574  0.00  0.00    +0.000 A 
ATOM     21  N   UNL     1      49.841  33.631  34.032  0.00  0.00    +0.000 N 
ATOM     22  H   UNL     1      49.503  34.307  33.313  0.00  0.00    +0.000 HD
ENDROOT
BRANCH   1  23
ATOM     23  C   UNL     1      48.050  34.407  39.359  0.00  0.00    +0.000 C 
ATOM     24  O   UNL     1      46.954  33.732  39.511  0.00  0.00    +0.000 OA
BRANCH  23  25
ATOM     25  O   UNL     1      48.411  35.021  40.503  0.00  0.00    +0.000 OA
BRANCH  25  27
ATOM     26  O   UNL     1      49.547  35.364  42.792  0.00  0.00    +0.000 OA
ATOM     27  P   UNL     1      48.978  34.305  41.900  0.00  0.00    +0.000 P 
BRANCH  27  28
ATOM     28  O   UNL     1      50.221  33.246  41.511  0.00  0.00    +0.000 OA
ATOM     29  H   UNL     1      51.070  33.706  41.386  0.00  0.00    +0.000 HD
ENDBRANCH  27  28
BRANCH  27  30
ATOM     30  O   UNL     1      47.707  33.483  42.699  0.00  0.00    +0.000 OA
BRANCH  30  32
ATOM     31  C   UNL     1      46.140  35.281  42.699  0.00  0.00    +0.000 A 
ATOM     32  C   UNL     1      46.691  34.186  43.343  0.00  0.00    +0.000 A 
ATOM     33  C   UNL     1      46.203  33.837  44.608  0.00  0.00    +0.000 A 
ATOM     34  N   UNL     1      45.206  34.599  45.143  0.00  0.00    +0.000 NA
ATOM     35  C   UNL     1      44.698  35.648  44.493  0.00  0.00    +0.000 A 
ATOM     36  N   UNL     1      45.162  35.980  43.289  0.00  0.00    +0.000 NA
ATOM     37  H   UNL     1      46.480  35.599  41.713  0.00  0.00    +0.000 HD
ATOM     38  H   UNL     1      46.671  32.988  45.043  0.00  0.00    +0.000 HD
ATOM     39  H   UNL     1      43.911  36.159  45.039  0.00  0.00    +0.000 HD
ENDBRANCH  30  32
ENDBRANCH  27  30
ENDBRANCH  25  27
ENDBRANCH  23  25
ENDBRANCH   1  23
TORSDOF 6
