REMARK  Name = 
REMARK  3 active torsions:
REMARK  status: ('A' for Active; 'I' for Inactive)
REMARK    1  A    between atoms: C_3  and  C_7
REMARK    2  A    between atoms: C_5  and  C_11
REMARK    3  A    between atoms: C_11  and  C_15
REMARK                            x       y       z     vdW  Elec       q    Type
REMARK                         _______ _______ _______ _____ _____    ______ ____
ROOT
ATOM      1  C   UNL     1      46.873  32.147  46.547  0.00  0.00    +0.000 A 
ATOM      2  C   UNL     1      47.237  31.359  45.478  0.00  0.00    +0.000 A 
ATOM      3  H   UNL     1      46.782  31.428  44.503  0.00  0.00    +0.000 HD
ATOM      4  C   UNL     1      48.235  30.402  45.555  0.00  0.00    +0.000 A 
ATOM      5  H   UNL     1      48.482  29.797  44.666  0.00  0.00    +0.000 HD
ATOM      6  C   UNL     1      48.944  30.176  46.731  0.00  0.00    +0.000 A 
ATOM      7  C   UNL     1      48.560  30.977  47.780  0.00  0.00    +0.000 A 
ATOM      8  C   UNL     1      47.587  31.905  47.700  0.00  0.00    +0.000 A 
ATOM      9  H   UNL     1      47.310  32.519  48.570  0.00  0.00    +0.000 HD
ATOM     10  S   UNL     1      49.393  30.786  49.344  0.00  0.00    +0.000 S 
ATOM     11  C   UNL     1      50.615  29.517  49.084  0.00  0.00    +0.000 A 
ATOM     12  C   UNL     1      51.398  29.212  50.149  0.00  0.00    +0.000 A 
ATOM     13  H   UNL     1      51.294  29.707  51.109  0.00  0.00    +0.000 HD
ATOM     14  C   UNL     1      52.358  28.221  49.963  0.00  0.00    +0.000 A 
ATOM     15  H   UNL     1      52.995  27.952  50.788  0.00  0.00    +0.000 HD
ATOM     16  C   UNL     1      52.538  27.552  48.763  0.00  0.00    +0.000 A 
ATOM     17  H   UNL     1      53.274  26.786  48.623  0.00  0.00    +0.000 HD
ATOM     18  C   UNL     1      51.689  27.931  47.728  0.00  0.00    +0.000 A 
ATOM     19  H   UNL     1      51.849  27.387  46.784  0.00  0.00    +0.000 HD
ATOM     20  C   UNL     1      50.725  28.907  47.865  0.00  0.00    +0.000 A 
ATOM     21  N   UNL     1      49.952  29.198  46.741  0.00  0.00    +0.000 N 
ATOM     22  H   UNL     1      50.121  28.672  45.856  0.00  0.00    +0.000 HD
ENDROOT
BRANCH   1  23
ATOM     23  C   UNL     1      45.825  33.151  46.449  0.00  0.00    +0.000 C 
ATOM     24  O   UNL     1      45.030  33.186  47.433  0.00  0.00    +0.000 OA
BRANCH  23  29
ATOM     25  C   UNL     1      44.598  35.929  44.425  0.00  0.00    +0.000 A 
ATOM     26  C   UNL     1      45.332  35.856  43.221  0.00  0.00    +0.000 A 
ATOM     27  C   UNL     1      46.250  34.819  43.142  0.00  0.00    +0.000 A 
ATOM     28  N   UNL     1      46.349  34.002  44.195  0.00  0.00    +0.000 NA
ATOM     29  C   UNL     1      45.660  34.064  45.335  0.00  0.00    +0.000 A 
ATOM     30  N   UNL     1      44.758  35.065  45.439  0.00  0.00    +0.000 NA
ATOM     31  H   UNL     1      43.875  36.733  44.513  0.00  0.00    +0.000 HD
ATOM     32  H   UNL     1      45.213  36.542  42.409  0.00  0.00    +0.000 HD
BRANCH  27  33
ATOM     33  C   UNL     1      47.032  34.721  41.903  0.00  0.00    +0.000 C 
ATOM     34  F   UNL     1      47.845  33.601  41.946  0.00  0.00    +0.000 F 
ATOM     35  F   UNL     1      47.907  35.821  41.910  0.00  0.00    +0.000 F 
ATOM     36  F   UNL     1      46.269  34.684  40.784  0.00  0.00    +0.000 F 
ENDBRANCH  27  33
ENDBRANCH  23  29
ENDBRANCH   1  23
TORSDOF 3
