
 OpenBabel03242523093D

 58 64  0  0  1  0  0  0  0  0999 V2000
   38.1440   27.3990   38.2860 C   0  0  0  0  0  0  0  0  0  0  0  0
   37.0810   27.4060   39.2200 C   0  0  0  0  0  0  0  0  0  0  0  0
   36.5880   28.6910   39.3900 C   0  0  0  0  0  0  0  0  0  0  0  0
   37.0210   29.8260   38.7730 C   0  0  0  0  0  0  0  0  0  0  0  0
   38.0550   29.7270   37.8800 C   0  0  0  0  0  0  0  0  0  0  0  0
   38.6240   28.5100   37.6330 C   0  0  0  0  0  0  0  0  0  0  0  0
   38.2620   31.0140   37.4240 O   0  0  0  0  0  0  0  0  0  0  0  0
   37.4600   31.9120   38.1420 C   0  0  1  0  0  0  0  0  0  0  0  0
   36.5750   31.1210   38.9070 O   0  0  0  0  0  0  0  0  0  0  0  0
   38.7460   26.5590   37.9290 H   0  0  0  0  0  0  0  0  0  0  0  0
   35.8090   28.6970   40.0860 H   0  0  0  0  0  0  0  0  0  0  0  0
   39.4150   28.5430   36.9280 H   0  0  0  0  0  0  0  0  0  0  0  0
   36.9020   32.5470   37.4150 H   0  0  0  0  0  0  0  0  0  0  0  0
   38.3310   32.7800   38.9820 C   0  0  0  0  0  0  0  0  0  0  0  0
   37.8130   33.8180   39.7420 C   0  0  0  0  0  0  0  0  0  0  0  0
   36.7580   34.0250   39.7480 H   0  0  0  0  0  0  0  0  0  0  0  0
   38.7190   34.5660   40.4860 C   0  0  0  0  0  0  0  0  0  0  0  0
   38.2590   35.3720   41.0670 H   0  0  0  0  0  0  0  0  0  0  0  0
   40.0830   34.3480   40.5180 C   0  0  0  0  0  0  0  0  0  0  0  0
   40.5010   33.3040   39.7370 C   0  0  0  0  0  0  0  0  0  0  0  0
   39.7080   32.5150   38.9780 C   0  0  0  0  0  0  0  0  0  0  0  0
   40.0810   31.7040   38.3790 H   0  0  0  0  0  0  0  0  0  0  0  0
   42.2470   32.9450   39.7110 S   0  0  0  0  0  0  0  0  0  0  0  0
   43.0280   34.1330   40.7780 C   0  0  0  0  0  0  0  0  0  0  0  0
   44.3880   33.9940   40.8650 C   0  0  0  0  0  0  0  0  0  0  0  0
   44.9700   33.2640   40.3610 H   0  0  0  0  0  0  0  0  0  0  0  0
   45.0570   34.9070   41.6950 C   0  0  0  0  0  0  0  0  0  0  0  0
   46.1320   34.8370   41.7960 H   0  0  0  0  0  0  0  0  0  0  0  0
   44.3380   35.8700   42.3670 C   0  0  0  0  0  0  0  0  0  0  0  0
   44.8230   36.5920   43.0190 H   0  0  0  0  0  0  0  0  0  0  0  0
   42.9490   35.9380   42.2190 C   0  0  0  0  0  0  0  0  0  0  0  0
   42.4220   36.7270   42.7760 H   0  0  0  0  0  0  0  0  0  0  0  0
   42.2460   35.0680   41.4160 C   0  0  0  0  0  0  0  0  0  0  0  0
   40.8640   35.2030   41.3220 N   0  0  0  0  0  0  0  0  0  0  0  0
   40.3960   35.9600   41.8640 H   0  0  0  0  0  0  0  0  0  0  0  0
   36.5750   24.2160   41.1120 C   0  0  0  0  0  0  0  0  0  0  0  0
   36.9920   25.5380   40.9440 C   0  0  0  0  0  0  0  0  0  0  0  0
   36.7680   26.1290   39.7350 C   0  0  0  0  0  0  0  0  0  0  0  0
   36.1540   25.4060   38.7780 N   0  0  0  0  0  0  0  0  0  0  0  0
   35.7540   24.1370   38.9390 C   0  0  0  0  0  0  0  0  0  0  0  0
   35.9670   23.5520   40.1030 N   0  0  0  0  0  0  0  0  0  0  0  0
   36.7460   23.7370   42.0550 H   0  0  0  0  0  0  0  0  0  0  0  0
   35.2600   23.5130   38.2070 H   0  0  0  0  0  0  0  0  0  0  0  0
   37.5730   26.1890   42.0400 N   0  0  0  0  0  0  0  0  0  0  0  0
   38.8950   26.0630   42.4120 C   0  0  0  0  0  0  0  0  0  0  0  0
   39.3340   26.9800   43.5330 C   0  0  0  0  0  0  0  0  0  0  0  0
   38.8270   28.2790   43.4920 N   0  0  0  0  0  0  0  0  0  0  0  0
   37.4690   28.4160   43.1290 C   0  0  0  0  0  0  0  0  0  0  0  0
   36.8180   27.0690   42.9110 C   0  0  0  0  0  0  0  0  0  0  0  0
   39.6530   26.1910   41.5850 H   0  0  0  0  0  0  0  0  0  0  0  0
   39.0880   25.0190   42.7720 H   0  0  0  0  0  0  0  0  0  0  0  0
   40.4430   27.0220   43.5450 H   0  0  0  0  0  0  0  0  0  0  0  0
   39.0620   26.5250   44.5290 H   0  0  0  0  0  0  0  0  0  0  0  0
   39.1090   28.7980   44.3280 H   0  0  0  0  0  0  0  0  0  0  0  0
   37.2750   29.1440   42.3150 H   0  0  0  0  0  0  0  0  0  0  0  0
   36.9310   28.8540   44.0190 H   0  0  0  0  0  0  0  0  0  0  0  0
   36.7840   26.5920   43.9250 H   0  0  0  0  0  0  0  0  0  0  0  0
   35.7580   27.1830   42.6040 H   0  0  0  0  0  0  0  0  0  0  0  0
  1  2  1  0  0  0  0
  2  3  2  0  0  0  0
  2 38  1  0  0  0  0
  3 11  1  0  0  0  0
  4  9  1  0  0  0  0
  4  3  1  0  0  0  0
  5  4  2  0  0  0  0
  6  5  1  0  0  0  0
  6  1  2  0  0  0  0
  7  5  1  0  0  0  0
  7  8  1  0  0  0  0
  8 13  1  6  0  0  0
  8  9  1  0  0  0  0
  8 14  1  0  0  0  0
 10  1  1  0  0  0  0
 12  6  1  0  0  0  0
 14 15  1  0  0  0  0
 15 16  1  0  0  0  0
 15 17  2  0  0  0  0
 17 19  1  0  0  0  0
 17 18  1  0  0  0  0
 19 34  1  0  0  0  0
 20 19  2  0  0  0  0
 21 14  2  0  0  0  0
 21 20  1  0  0  0  0
 22 21  1  0  0  0  0
 23 20  1  0  0  0  0
 23 24  1  0  0  0  0
 24 25  2  0  0  0  0
 24 33  1  0  0  0  0
 25 27  1  0  0  0  0
 26 25  1  0  0  0  0
 27 28  1  0  0  0  0
 27 29  2  0  0  0  0
 29 30  1  0  0  0  0
 31 29  1  0  0  0  0
 31 32  1  0  0  0  0
 33 31  2  0  0  0  0
 34 33  1  0  0  0  0
 34 35  1  0  0  0  0
 36 42  1  0  0  0  0
 37 36  1  0  0  0  0
 37 44  1  0  0  0  0
 38 37  2  0  0  0  0
 39 40  2  0  0  0  0
 39 38  1  0  0  0  0
 40 41  1  0  0  0  0
 41 36  2  0  0  0  0
 43 40  1  0  0  0  0
 44 45  1  0  0  0  0
 44 49  1  0  0  0  0
 45 51  1  0  0  0  0
 45 46  1  0  0  0  0
 46 52  1  0  0  0  0
 46 53  1  0  0  0  0
 47 46  1  0  0  0  0
 47 54  1  0  0  0  0
 48 47  1  0  0  0  0
 48 56  1  0  0  0  0
 49 48  1  0  0  0  0
 49 57  1  0  0  0  0
 50 45  1  0  0  0  0
 55 48  1  0  0  0  0
 58 49  1  0  0  0  0
M  END
>  <minimizedAffinity>
-8.1549387

$$$$

 OpenBabel03242523093D

 58 64  0  0  1  0  0  0  0  0999 V2000
   40.6560   31.6780   41.9420 C   0  0  0  0  0  0  0  0  0  0  0  0
   39.9560   31.9160   40.7360 C   0  0  0  0  0  0  0  0  0  0  0  0
   38.8220   31.1210   40.6640 C   0  0  0  0  0  0  0  0  0  0  0  0
   38.3890   30.2210   41.5910 C   0  0  0  0  0  0  0  0  0  0  0  0
   39.1280   30.0560   42.7320 C   0  0  0  0  0  0  0  0  0  0  0  0
   40.2690   30.7850   42.9130 C   0  0  0  0  0  0  0  0  0  0  0  0
   38.4510   29.1020   43.4650 O   0  0  0  0  0  0  0  0  0  0  0  0
   37.3870   28.5840   42.7120 C   0  0  1  0  0  0  0  0  0  0  0  0
   37.2810   29.4050   41.5690 O   0  0  0  0  0  0  0  0  0  0  0  0
   41.5810   32.1340   42.3070 H   0  0  0  0  0  0  0  0  0  0  0  0
   38.3100   31.2910   39.7700 H   0  0  0  0  0  0  0  0  0  0  0  0
   40.7660   30.5810   43.8270 H   0  0  0  0  0  0  0  0  0  0  0  0
   36.4600   28.6330   43.3280 H   0  0  0  0  0  0  0  0  0  0  0  0
   37.6760   27.1610   42.3770 C   0  0  0  0  0  0  0  0  0  0  0  0
   38.6310   26.4280   43.0660 C   0  0  0  0  0  0  0  0  0  0  0  0
   39.1900   26.8690   43.8710 H   0  0  0  0  0  0  0  0  0  0  0  0
   38.8210   25.1100   42.6660 C   0  0  0  0  0  0  0  0  0  0  0  0
   39.5830   24.5760   43.2420 H   0  0  0  0  0  0  0  0  0  0  0  0
   38.1320   24.4900   41.6410 C   0  0  0  0  0  0  0  0  0  0  0  0
   37.2130   25.2920   41.0190 C   0  0  0  0  0  0  0  0  0  0  0  0
   36.9490   26.5810   41.3280 C   0  0  0  0  0  0  0  0  0  0  0  0
   36.2160   27.1750   40.8110 H   0  0  0  0  0  0  0  0  0  0  0  0
   36.2750   24.5820   39.6800 S   0  0  0  0  0  0  0  0  0  0  0  0
   36.8350   22.9050   39.4990 C   0  0  0  0  0  0  0  0  0  0  0  0
   36.2070   22.2140   38.4960 C   0  0  0  0  0  0  0  0  0  0  0  0
   35.4530   22.5970   37.8570 H   0  0  0  0  0  0  0  0  0  0  0  0
   36.6100   20.8830   38.3080 C   0  0  0  0  0  0  0  0  0  0  0  0
   36.1430   20.2950   37.5270 H   0  0  0  0  0  0  0  0  0  0  0  0
   37.5880   20.3460   39.1160 C   0  0  0  0  0  0  0  0  0  0  0  0
   37.9230   19.3190   38.9990 H   0  0  0  0  0  0  0  0  0  0  0  0
   38.1750   21.1270   40.1170 C   0  0  0  0  0  0  0  0  0  0  0  0
   38.9520   20.6510   40.7350 H   0  0  0  0  0  0  0  0  0  0  0  0
   37.8160   22.4370   40.3420 C   0  0  0  0  0  0  0  0  0  0  0  0
   38.4490   23.1460   41.3580 N   0  0  0  0  0  0  0  0  0  0  0  0
   39.1800   22.6650   41.9250 H   0  0  0  0  0  0  0  0  0  0  0  0
   41.8240   34.0170   38.2650 C   0  0  0  0  0  0  0  0  0  0  0  0
   41.3750   32.8220   38.8290 C   0  0  0  0  0  0  0  0  0  0  0  0
   40.5540   32.8980   39.9160 C   0  0  0  0  0  0  0  0  0  0  0  0
   40.2200   34.1200   40.3770 N   0  0  0  0  0  0  0  0  0  0  0  0
   40.6510   35.2680   39.8340 C   0  0  0  0  0  0  0  0  0  0  0  0
   41.4490   35.2090   38.7850 N   0  0  0  0  0  0  0  0  0  0  0  0
   42.4730   33.9740   37.4120 H   0  0  0  0  0  0  0  0  0  0  0  0
   40.4170   36.2700   40.1630 H   0  0  0  0  0  0  0  0  0  0  0  0
   41.7590   31.6210   38.2180 N   0  0  0  0  0  0  0  0  0  0  0  0
   40.8950   30.7650   37.5670 C   0  0  0  0  0  0  0  0  0  0  0  0
   41.5600   29.6090   36.8510 C   0  0  0  0  0  0  0  0  0  0  0  0
   42.7500   29.9070   36.1870 N   0  0  0  0  0  0  0  0  0  0  0  0
   43.6480   30.7690   36.8540 C   0  0  0  0  0  0  0  0  0  0  0  0
   43.1310   31.1510   38.2220 C   0  0  0  0  0  0  0  0  0  0  0  0
   40.2020   31.2440   36.8170 H   0  0  0  0  0  0  0  0  0  0  0  0
   40.1890   30.3070   38.3070 H   0  0  0  0  0  0  0  0  0  0  0  0
   40.8380   29.1760   36.1290 H   0  0  0  0  0  0  0  0  0  0  0  0
   41.7610   28.7720   37.5800 H   0  0  0  0  0  0  0  0  0  0  0  0
   43.1670   29.0540   35.8050 H   0  0  0  0  0  0  0  0  0  0  0  0
   44.0020   31.6300   36.2530 H   0  0  0  0  0  0  0  0  0  0  0  0
   44.5860   30.1760   37.0570 H   0  0  0  0  0  0  0  0  0  0  0  0
   43.1610   30.2050   38.8220 H   0  0  0  0  0  0  0  0  0  0  0  0
   43.8290   31.8450   38.7330 H   0  0  0  0  0  0  0  0  0  0  0  0
  1 10  1  0  0  0  0
  1  6  1  0  0  0  0
  2  1  2  0  0  0  0
  3  2  1  0  0  0  0
  3  4  2  0  0  0  0
  4  5  1  0  0  0  0
  5  6  2  0  0  0  0
  5  7  1  0  0  0  0
  6 12  1  0  0  0  0
  8 13  1  1  0  0  0
  8  7  1  0  0  0  0
  9  4  1  0  0  0  0
  9  8  1  0  0  0  0
 11  3  1  0  0  0  0
 14  8  1  0  0  0  0
 14 15  1  0  0  0  0
 15 16  1  0  0  0  0
 17 15  2  0  0  0  0
 17 18  1  0  0  0  0
 19 17  1  0  0  0  0
 20 21  1  0  0  0  0
 20 19  2  0  0  0  0
 21 14  2  0  0  0  0
 22 21  1  0  0  0  0
 23 20  1  0  0  0  0
 24 23  1  0  0  0  0
 24 33  1  0  0  0  0
 25 24  2  0  0  0  0
 26 25  1  0  0  0  0
 27 25  1  0  0  0  0
 27 29  2  0  0  0  0
 28 27  1  0  0  0  0
 29 31  1  0  0  0  0
 30 29  1  0  0  0  0
 31 33  2  0  0  0  0
 31 32  1  0  0  0  0
 33 34  1  0  0  0  0
 34 19  1  0  0  0  0
 34 35  1  0  0  0  0
 36 41  2  0  0  0  0
 36 37  1  0  0  0  0
 37 38  2  0  0  0  0
 38 39  1  0  0  0  0
 38  2  1  0  0  0  0
 40 43  1  0  0  0  0
 40 39  2  0  0  0  0
 41 40  1  0  0  0  0
 42 36  1  0  0  0  0
 44 49  1  0  0  0  0
 44 37  1  0  0  0  0
 45 44  1  0  0  0  0
 45 51  1  0  0  0  0
 46 45  1  0  0  0  0
 46 53  1  0  0  0  0
 47 46  1  0  0  0  0
 47 48  1  0  0  0  0
 48 56  1  0  0  0  0
 48 49  1  0  0  0  0
 49 58  1  0  0  0  0
 49 57  1  0  0  0  0
 50 45  1  0  0  0  0
 52 46  1  0  0  0  0
 54 47  1  0  0  0  0
 55 48  1  0  0  0  0
M  END
>  <minimizedAffinity>
-7.53520775

$$$$

 OpenBabel03242523093D

 58 64  0  0  1  0  0  0  0  0999 V2000
   36.3890   26.4400   38.8050 C   0  0  0  0  0  0  0  0  0  0  0  0
   36.8120   25.9510   40.0640 C   0  0  0  0  0  0  0  0  0  0  0  0
   36.8400   26.9730   41.0010 C   0  0  0  0  0  0  0  0  0  0  0  0
   36.5170   28.2810   40.8000 C   0  0  0  0  0  0  0  0  0  0  0  0
   36.1150   28.6670   39.5490 C   0  0  0  0  0  0  0  0  0  0  0  0
   36.0500   27.7460   38.5420 C   0  0  0  0  0  0  0  0  0  0  0  0
   35.8560   30.0190   39.6540 O   0  0  0  0  0  0  0  0  0  0  0  0
   36.2370   30.4830   40.9220 C   0  0  1  0  0  0  0  0  0  0  0  0
   36.5320   29.3330   41.6870 O   0  0  0  0  0  0  0  0  0  0  0  0
   36.2590   25.9010   37.8610 H   0  0  0  0  0  0  0  0  0  0  0  0
   37.1600   26.6140   41.9270 H   0  0  0  0  0  0  0  0  0  0  0  0
   35.7290   28.1480   37.6150 H   0  0  0  0  0  0  0  0  0  0  0  0
   35.3850   31.0490   41.3630 H   0  0  0  0  0  0  0  0  0  0  0  0
   37.4060   31.3950   40.7750 C   0  0  0  0  0  0  0  0  0  0  0  0
   37.3230   32.5810   40.0610 C   0  0  0  0  0  0  0  0  0  0  0  0
   36.4020   32.8790   39.5920 H   0  0  0  0  0  0  0  0  0  0  0  0
   38.4770   33.3530   39.9860 C   0  0  0  0  0  0  0  0  0  0  0  0
   38.3560   34.2770   39.4120 H   0  0  0  0  0  0  0  0  0  0  0  0
   39.6860   33.0220   40.5670 C   0  0  0  0  0  0  0  0  0  0  0  0
   39.6720   31.8350   41.2500 C   0  0  0  0  0  0  0  0  0  0  0  0
   38.6090   31.0110   41.3850 C   0  0  0  0  0  0  0  0  0  0  0  0
   38.6440   30.0860   41.9320 H   0  0  0  0  0  0  0  0  0  0  0  0
   41.1880   31.3210   42.0330 S   0  0  0  0  0  0  0  0  0  0  0  0
   42.3950   32.5780   41.6830 C   0  0  0  0  0  0  0  0  0  0  0  0
   43.6310   32.3280   42.2180 C   0  0  0  0  0  0  0  0  0  0  0  0
   43.8960   31.4770   42.7940 H   0  0  0  0  0  0  0  0  0  0  0  0
   44.6240   33.2890   41.9730 C   0  0  0  0  0  0  0  0  0  0  0  0
   45.6170   33.1350   42.3760 H   0  0  0  0  0  0  0  0  0  0  0  0
   44.3210   34.4070   41.2290 C   0  0  0  0  0  0  0  0  0  0  0  0
   45.0640   35.1720   41.0210 H   0  0  0  0  0  0  0  0  0  0  0  0
   43.0290   34.5810   40.7210 C   0  0  0  0  0  0  0  0  0  0  0  0
   42.8390   35.4910   40.1320 H   0  0  0  0  0  0  0  0  0  0  0  0
   42.0200   33.6680   40.9320 C   0  0  0  0  0  0  0  0  0  0  0  0
   40.7620   33.9140   40.3910 N   0  0  0  0  0  0  0  0  0  0  0  0
   40.6160   34.7870   39.8400 H   0  0  0  0  0  0  0  0  0  0  0  0
   38.1000   22.4470   40.3450 C   0  0  0  0  0  0  0  0  0  0  0  0
   38.1370   23.8310   40.5310 C   0  0  0  0  0  0  0  0  0  0  0  0
   37.0830   24.5650   40.0740 C   0  0  0  0  0  0  0  0  0  0  0  0
   36.0660   23.9130   39.4750 N   0  0  0  0  0  0  0  0  0  0  0  0
   36.0300   22.5850   39.2960 C   0  0  0  0  0  0  0  0  0  0  0  0
   37.0460   21.8630   39.7310 N   0  0  0  0  0  0  0  0  0  0  0  0
   38.9230   21.8570   40.6960 H   0  0  0  0  0  0  0  0  0  0  0  0
   35.2440   22.0140   38.8230 H   0  0  0  0  0  0  0  0  0  0  0  0
   39.2330   24.3730   41.2150 N   0  0  0  0  0  0  0  0  0  0  0  0
   40.3240   24.9560   40.6050 C   0  0  0  0  0  0  0  0  0  0  0  0
   41.3100   25.6100   41.5490 C   0  0  0  0  0  0  0  0  0  0  0  0
   40.7550   26.3120   42.6200 N   0  0  0  0  0  0  0  0  0  0  0  0
   39.6470   25.7150   43.2610 C   0  0  0  0  0  0  0  0  0  0  0  0
   39.3270   24.3640   42.6630 C   0  0  0  0  0  0  0  0  0  0  0  0
   40.0920   25.7220   39.8100 H   0  0  0  0  0  0  0  0  0  0  0  0
   40.9030   24.1770   40.0440 H   0  0  0  0  0  0  0  0  0  0  0  0
   41.9620   26.2920   40.9650 H   0  0  0  0  0  0  0  0  0  0  0  0
   42.0170   24.8350   41.9630 H   0  0  0  0  0  0  0  0  0  0  0  0
   41.4920   26.6480   43.2450 H   0  0  0  0  0  0  0  0  0  0  0  0
   38.7640   26.3750   43.3770 H   0  0  0  0  0  0  0  0  0  0  0  0
   39.9610   25.4920   44.3220 H   0  0  0  0  0  0  0  0  0  0  0  0
   40.1920   23.7080   42.9400 H   0  0  0  0  0  0  0  0  0  0  0  0
   38.4430   23.9090   43.1550 H   0  0  0  0  0  0  0  0  0  0  0  0
  1  2  1  0  0  0  0
  2 38  1  0  0  0  0
  2  3  2  0  0  0  0
  3 11  1  0  0  0  0
  4  3  1  0  0  0  0
  4  9  1  0  0  0  0
  5  7  1  0  0  0  0
  5  4  2  0  0  0  0
  6  1  2  0  0  0  0
  6  5  1  0  0  0  0
  7  8  1  0  0  0  0
  8 13  1  1  0  0  0
  8  9  1  0  0  0  0
 10  1  1  0  0  0  0
 12  6  1  0  0  0  0
 14  8  1  0  0  0  0
 14 21  1  0  0  0  0
 15 14  2  0  0  0  0
 16 15  1  0  0  0  0
 17 15  1  0  0  0  0
 17 19  2  0  0  0  0
 18 17  1  0  0  0  0
 19 20  1  0  0  0  0
 20 21  2  0  0  0  0
 20 23  1  0  0  0  0
 21 22  1  0  0  0  0
 24 23  1  0  0  0  0
 24 25  1  0  0  0  0
 25 26  1  0  0  0  0
 27 25  2  0  0  0  0
 27 28  1  0  0  0  0
 29 27  1  0  0  0  0
 30 29  1  0  0  0  0
 31 33  1  0  0  0  0
 31 29  2  0  0  0  0
 32 31  1  0  0  0  0
 33 24  2  0  0  0  0
 34 19  1  0  0  0  0
 34 33  1  0  0  0  0
 35 34  1  0  0  0  0
 36 37  1  0  0  0  0
 36 42  1  0  0  0  0
 37 44  1  0  0  0  0
 38 37  2  0  0  0  0
 39 38  1  0  0  0  0
 40 39  2  0  0  0  0
 40 41  1  0  0  0  0
 41 36  2  0  0  0  0
 43 40  1  0  0  0  0
 44 49  1  0  0  0  0
 45 44  1  0  0  0  0
 45 46  1  0  0  0  0
 46 53  1  0  0  0  0
 46 47  1  0  0  0  0
 47 54  1  0  0  0  0
 47 48  1  0  0  0  0
 48 55  1  0  0  0  0
 48 56  1  0  0  0  0
 49 57  1  0  0  0  0
 49 58  1  0  0  0  0
 49 48  1  0  0  0  0
 50 45  1  0  0  0  0
 51 45  1  0  0  0  0
 52 46  1  0  0  0  0
M  END
>  <minimizedAffinity>
-7.34109592

$$$$

 OpenBabel03242523093D

 58 64  0  0  1  0  0  0  0  0999 V2000
   41.5340   31.1640   40.0480 C   0  0  0  0  0  0  0  0  0  0  0  0
   40.6830   31.8220   40.9690 C   0  0  0  0  0  0  0  0  0  0  0  0
   40.2810   30.9500   41.9700 C   0  0  0  0  0  0  0  0  0  0  0  0
   40.6230   29.6390   42.1050 C   0  0  0  0  0  0  0  0  0  0  0  0
   41.4540   29.0830   41.1690 C   0  0  0  0  0  0  0  0  0  0  0  0
   41.9140   29.8460   40.1320 C   0  0  0  0  0  0  0  0  0  0  0  0
   41.6210   27.7720   41.5660 O   0  0  0  0  0  0  0  0  0  0  0  0
   40.7820   27.4900   42.6540 C   0  0  1  0  0  0  0  0  0  0  0  0
   40.2510   28.7310   43.0700 O   0  0  0  0  0  0  0  0  0  0  0  0
   42.0210   31.5590   39.1520 H   0  0  0  0  0  0  0  0  0  0  0  0
   39.6460   31.4330   42.6440 H   0  0  0  0  0  0  0  0  0  0  0  0
   42.5490   29.3210   39.4650 H   0  0  0  0  0  0  0  0  0  0  0  0
   41.3930   27.0260   43.4620 H   0  0  0  0  0  0  0  0  0  0  0  0
   39.7300   26.5280   42.2210 C   0  0  0  0  0  0  0  0  0  0  0  0
   39.4620   25.3700   42.9360 C   0  0  0  0  0  0  0  0  0  0  0  0
   40.0080   25.1340   43.8320 H   0  0  0  0  0  0  0  0  0  0  0  0
   38.4620   24.5420   42.4380 C   0  0  0  0  0  0  0  0  0  0  0  0
   38.2890   23.6430   43.0390 H   0  0  0  0  0  0  0  0  0  0  0  0
   37.7270   24.7920   41.2950 C   0  0  0  0  0  0  0  0  0  0  0  0
   38.0630   25.9560   40.6580 C   0  0  0  0  0  0  0  0  0  0  0  0
   39.0150   26.8300   41.0540 C   0  0  0  0  0  0  0  0  0  0  0  0
   39.2450   27.7350   40.5210 H   0  0  0  0  0  0  0  0  0  0  0  0
   37.1710   26.3650   39.1700 S   0  0  0  0  0  0  0  0  0  0  0  0
   36.0080   25.0490   38.8940 C   0  0  0  0  0  0  0  0  0  0  0  0
   35.2380   25.2120   37.7730 C   0  0  0  0  0  0  0  0  0  0  0  0
   35.2920   26.0270   37.0970 H   0  0  0  0  0  0  0  0  0  0  0  0
   34.3010   24.2010   37.5070 C   0  0  0  0  0  0  0  0  0  0  0  0
   33.6700   24.2850   36.6320 H   0  0  0  0  0  0  0  0  0  0  0  0
   34.2000   23.1240   38.3590 C   0  0  0  0  0  0  0  0  0  0  0  0
   33.4850   22.3250   38.1840 H   0  0  0  0  0  0  0  0  0  0  0  0
   35.0280   23.0400   39.4830 C   0  0  0  0  0  0  0  0  0  0  0  0
   34.9080   22.1590   40.1310 H   0  0  0  0  0  0  0  0  0  0  0  0
   35.9630   24.0040   39.7880 C   0  0  0  0  0  0  0  0  0  0  0  0
   36.7510   23.8450   40.9250 N   0  0  0  0  0  0  0  0  0  0  0  0
   36.6100   23.0000   41.5180 H   0  0  0  0  0  0  0  0  0  0  0  0
   40.7310   35.5030   40.2890 C   0  0  0  0  0  0  0  0  0  0  0  0
   41.2960   34.2590   40.5790 C   0  0  0  0  0  0  0  0  0  0  0  0
   40.4630   33.1830   40.6670 C   0  0  0  0  0  0  0  0  0  0  0  0
   39.1450   33.3810   40.4630 N   0  0  0  0  0  0  0  0  0  0  0  0
   38.6020   34.5750   40.1850 C   0  0  0  0  0  0  0  0  0  0  0  0
   39.3970   35.6250   40.1000 N   0  0  0  0  0  0  0  0  0  0  0  0
   41.3720   36.3580   40.2200 H   0  0  0  0  0  0  0  0  0  0  0  0
   37.5560   34.7890   40.0140 H   0  0  0  0  0  0  0  0  0  0  0  0
   42.6890   34.1860   40.7180 N   0  0  0  0  0  0  0  0  0  0  0  0
   43.5710   34.0450   39.6680 C   0  0  0  0  0  0  0  0  0  0  0  0
   45.0340   34.1460   40.0440 C   0  0  0  0  0  0  0  0  0  0  0  0
   45.3540   35.1190   40.9910 N   0  0  0  0  0  0  0  0  0  0  0  0
   44.4640   35.2600   42.0790 C   0  0  0  0  0  0  0  0  0  0  0  0
   43.3460   34.2450   42.0100 C   0  0  0  0  0  0  0  0  0  0  0  0
   43.4200   34.7500   38.8000 H   0  0  0  0  0  0  0  0  0  0  0  0
   43.4420   33.0350   39.1990 H   0  0  0  0  0  0  0  0  0  0  0  0
   45.6270   34.3250   39.1240 H   0  0  0  0  0  0  0  0  0  0  0  0
   45.4020   33.1490   40.4240 H   0  0  0  0  0  0  0  0  0  0  0  0
   46.3440   35.0600   41.2430 H   0  0  0  0  0  0  0  0  0  0  0  0
   44.1180   36.2960   42.2690 H   0  0  0  0  0  0  0  0  0  0  0  0
   45.0380   34.9910   43.0130 H   0  0  0  0  0  0  0  0  0  0  0  0
   43.8370   33.2540   42.1840 H   0  0  0  0  0  0  0  0  0  0  0  0
   42.6370   34.3740   42.8550 H   0  0  0  0  0  0  0  0  0  0  0  0
  1  6  2  0  0  0  0
  1  2  1  0  0  0  0
  2  3  2  0  0  0  0
  3  4  1  0  0  0  0
  3 11  1  0  0  0  0
  4  9  1  0  0  0  0
  5  7  1  0  0  0  0
  5  4  2  0  0  0  0
  6  5  1  0  0  0  0
  7  8  1  0  0  0  0
  8  9  1  0  0  0  0
  8 13  1  1  0  0  0
 10  1  1  0  0  0  0
 12  6  1  0  0  0  0
 14  8  1  0  0  0  0
 14 15  1  0  0  0  0
 15 16  1  0  0  0  0
 17 15  2  0  0  0  0
 17 18  1  0  0  0  0
 19 17  1  0  0  0  0
 20 21  1  0  0  0  0
 20 19  2  0  0  0  0
 21 14  2  0  0  0  0
 22 21  1  0  0  0  0
 23 20  1  0  0  0  0
 24 23  1  0  0  0  0
 24 33  1  0  0  0  0
 25 24  2  0  0  0  0
 26 25  1  0  0  0  0
 27 25  1  0  0  0  0
 27 29  2  0  0  0  0
 28 27  1  0  0  0  0
 29 31  1  0  0  0  0
 30 29  1  0  0  0  0
 31 33  2  0  0  0  0
 31 32  1  0  0  0  0
 33 34  1  0  0  0  0
 34 19  1  0  0  0  0
 34 35  1  0  0  0  0
 36 37  1  0  0  0  0
 37 38  2  0  0  0  0
 37 44  1  0  0  0  0
 38  2  1  0  0  0  0
 39 38  1  0  0  0  0
 40 39  2  0  0  0  0
 41 40  1  0  0  0  0
 41 36  2  0  0  0  0
 42 36  1  0  0  0  0
 43 40  1  0  0  0  0
 44 49  1  0  0  0  0
 45 46  1  0  0  0  0
 45 44  1  0  0  0  0
 46 53  1  0  0  0  0
 46 47  1  0  0  0  0
 47 54  1  0  0  0  0
 47 48  1  0  0  0  0
 48 55  1  0  0  0  0
 48 56  1  0  0  0  0
 49 48  1  0  0  0  0
 49 57  1  0  0  0  0
 49 58  1  0  0  0  0
 50 45  1  0  0  0  0
 51 45  1  0  0  0  0
 52 46  1  0  0  0  0
M  END
>  <minimizedAffinity>
-7.30548716

$$$$

 OpenBabel03242523093D

 58 64  0  0  1  0  0  0  0  0999 V2000
   41.5110   29.4770   42.5820 C   0  0  0  0  0  0  0  0  0  0  0  0
   40.6610   30.5300   42.1690 C   0  0  0  0  0  0  0  0  0  0  0  0
   39.3300   30.1480   42.2580 C   0  0  0  0  0  0  0  0  0  0  0  0
   38.8470   28.9460   42.6790 C   0  0  0  0  0  0  0  0  0  0  0  0
   39.7430   27.9830   43.0640 C   0  0  0  0  0  0  0  0  0  0  0  0
   41.0830   28.2450   43.0160 C   0  0  0  0  0  0  0  0  0  0  0  0
   38.9710   26.9010   43.4350 O   0  0  0  0  0  0  0  0  0  0  0  0
   37.6230   27.1490   43.1410 C   0  0  1  0  0  0  0  0  0  0  0  0
   37.5450   28.5130   42.7830 O   0  0  0  0  0  0  0  0  0  0  0  0
   42.6040   29.4490   42.6320 H   0  0  0  0  0  0  0  0  0  0  0  0
   38.7040   30.9220   41.9450 H   0  0  0  0  0  0  0  0  0  0  0  0
   41.6880   27.4350   43.3340 H   0  0  0  0  0  0  0  0  0  0  0  0
   37.0170   26.9400   44.0530 H   0  0  0  0  0  0  0  0  0  0  0  0
   37.1880   26.2380   42.0450 C   0  0  0  0  0  0  0  0  0  0  0  0
   37.0520   24.8720   42.2420 C   0  0  0  0  0  0  0  0  0  0  0  0
   37.2560   24.4290   43.2010 H   0  0  0  0  0  0  0  0  0  0  0  0
   36.6440   24.1170   41.1480 C   0  0  0  0  0  0  0  0  0  0  0  0
   36.5520   23.0460   41.3570 H   0  0  0  0  0  0  0  0  0  0  0  0
   36.3670   24.6290   39.8950 C   0  0  0  0  0  0  0  0  0  0  0  0
   36.5300   25.9850   39.7970 C   0  0  0  0  0  0  0  0  0  0  0  0
   36.9210   26.8100   40.7930 C   0  0  0  0  0  0  0  0  0  0  0  0
   37.0350   27.8720   40.6710 H   0  0  0  0  0  0  0  0  0  0  0  0
   36.2000   26.7390   38.2160 S   0  0  0  0  0  0  0  0  0  0  0  0
   35.7210   25.4280   37.1150 C   0  0  0  0  0  0  0  0  0  0  0  0
   35.4340   25.8470   35.8430 C   0  0  0  0  0  0  0  0  0  0  0  0
   35.4790   26.8470   35.4940 H   0  0  0  0  0  0  0  0  0  0  0  0
   35.0500   24.8520   34.9300 C   0  0  0  0  0  0  0  0  0  0  0  0
   34.8130   25.1340   33.9120 H   0  0  0  0  0  0  0  0  0  0  0  0
   34.9800   23.5400   35.3420 C   0  0  0  0  0  0  0  0  0  0  0  0
   34.6850   22.7440   34.6630 H   0  0  0  0  0  0  0  0  0  0  0  0
   35.2910   23.2030   36.6630 C   0  0  0  0  0  0  0  0  0  0  0  0
   35.2200   22.1410   36.9420 H   0  0  0  0  0  0  0  0  0  0  0  0
   35.6740   24.1400   37.5970 C   0  0  0  0  0  0  0  0  0  0  0  0
   35.9690   23.7230   38.8920 N   0  0  0  0  0  0  0  0  0  0  0  0
   35.8900   22.7100   39.1220 H   0  0  0  0  0  0  0  0  0  0  0  0
   42.0520   33.6710   40.6800 C   0  0  0  0  0  0  0  0  0  0  0  0
   41.1310   32.6290   40.8110 C   0  0  0  0  0  0  0  0  0  0  0  0
   41.3510   31.7010   41.7870 C   0  0  0  0  0  0  0  0  0  0  0  0
   42.4390   31.8460   42.5690 N   0  0  0  0  0  0  0  0  0  0  0  0
   43.3230   32.8460   42.4430 C   0  0  0  0  0  0  0  0  0  0  0  0
   43.1250   33.7490   41.5010 N   0  0  0  0  0  0  0  0  0  0  0  0
   41.8950   34.4060   39.9160 H   0  0  0  0  0  0  0  0  0  0  0  0
   44.2090   33.0090   43.0400 H   0  0  0  0  0  0  0  0  0  0  0  0
   40.0160   32.6270   39.9630 N   0  0  0  0  0  0  0  0  0  0  0  0
   39.8950   31.8450   38.8340 C   0  0  0  0  0  0  0  0  0  0  0  0
   38.5400   31.8960   38.1630 C   0  0  0  0  0  0  0  0  0  0  0  0
   37.4370   31.9200   39.0170 N   0  0  0  0  0  0  0  0  0  0  0  0
   37.5450   32.7320   40.1670 C   0  0  0  0  0  0  0  0  0  0  0  0
   38.8610   33.4740   40.1950 C   0  0  0  0  0  0  0  0  0  0  0  0
   40.1410   30.7510   38.9650 H   0  0  0  0  0  0  0  0  0  0  0  0
   40.6360   32.1790   38.0620 H   0  0  0  0  0  0  0  0  0  0  0  0
   38.4500   31.0290   37.4760 H   0  0  0  0  0  0  0  0  0  0  0  0
   38.4810   32.7960   37.4850 H   0  0  0  0  0  0  0  0  0  0  0  0
   36.5730   32.0370   38.4800 H   0  0  0  0  0  0  0  0  0  0  0  0
   37.2960   32.2250   41.1210 H   0  0  0  0  0  0  0  0  0  0  0  0
   36.7620   33.5390   40.0770 H   0  0  0  0  0  0  0  0  0  0  0  0
   38.8040   34.2050   39.3470 H   0  0  0  0  0  0  0  0  0  0  0  0
   38.9510   34.0940   41.1110 H   0  0  0  0  0  0  0  0  0  0  0  0
  1 10  1  0  0  0  0
  1  6  1  0  0  0  0
  2  3  1  0  0  0  0
  2  1  2  0  0  0  0
  3  4  2  0  0  0  0
  4  9  1  0  0  0  0
  4  5  1  0  0  0  0
  5  7  1  0  0  0  0
  6  5  2  0  0  0  0
  6 12  1  0  0  0  0
  8  7  1  0  0  0  0
  8 13  1  1  0  0  0
  9  8  1  0  0  0  0
 11  3  1  0  0  0  0
 14 15  1  0  0  0  0
 14  8  1  0  0  0  0
 15 16  1  0  0  0  0
 17 18  1  0  0  0  0
 17 15  2  0  0  0  0
 19 17  1  0  0  0  0
 20 19  2  0  0  0  0
 20 21  1  0  0  0  0
 21 14  2  0  0  0  0
 22 21  1  0  0  0  0
 23 20  1  0  0  0  0
 24 33  1  0  0  0  0
 24 23  1  0  0  0  0
 25 24  2  0  0  0  0
 26 25  1  0  0  0  0
 27 29  2  0  0  0  0
 27 25  1  0  0  0  0
 28 27  1  0  0  0  0
 29 31  1  0  0  0  0
 30 29  1  0  0  0  0
 31 32  1  0  0  0  0
 31 33  2  0  0  0  0
 33 34  1  0  0  0  0
 34 35  1  0  0  0  0
 34 19  1  0  0  0  0
 36 37  2  0  0  0  0
 36 41  1  0  0  0  0
 37 38  1  0  0  0  0
 38  2  1  0  0  0  0
 38 39  2  0  0  0  0
 40 39  1  0  0  0  0
 40 43  1  0  0  0  0
 41 40  2  0  0  0  0
 42 36  1  0  0  0  0
 44 49  1  0  0  0  0
 44 37  1  0  0  0  0
 45 50  1  0  0  0  0
 45 44  1  0  0  0  0
 46 45  1  0  0  0  0
 46 47  1  0  0  0  0
 47 48  1  0  0  0  0
 48 49  1  0  0  0  0
 48 55  1  0  0  0  0
 49 58  1  0  0  0  0
 51 45  1  0  0  0  0
 52 46  1  0  0  0  0
 53 46  1  0  0  0  0
 54 47  1  0  0  0  0
 56 48  1  0  0  0  0
 57 49  1  0  0  0  0
M  END
>  <minimizedAffinity>
-7.28227663

$$$$

 OpenBabel03242523093D

 58 64  0  0  1  0  0  0  0  0999 V2000
   36.0920   26.1340   38.8390 C   0  0  0  0  0  0  0  0  0  0  0  0
   36.8100   25.7430   39.9940 C   0  0  0  0  0  0  0  0  0  0  0  0
   36.9850   26.8210   40.8490 C   0  0  0  0  0  0  0  0  0  0  0  0
   36.5500   28.0980   40.6610 C   0  0  0  0  0  0  0  0  0  0  0  0
   35.8600   28.3880   39.5140 C   0  0  0  0  0  0  0  0  0  0  0  0
   35.6280   27.4050   38.5940 C   0  0  0  0  0  0  0  0  0  0  0  0
   35.5530   29.7310   39.6070 O   0  0  0  0  0  0  0  0  0  0  0  0
   36.1770   30.2890   40.7330 C   0  0  1  0  0  0  0  0  0  0  0  0
   36.6990   29.2030   41.4680 O   0  0  0  0  0  0  0  0  0  0  0  0
   35.7880   25.5340   37.9760 H   0  0  0  0  0  0  0  0  0  0  0  0
   37.5220   26.5340   41.6970 H   0  0  0  0  0  0  0  0  0  0  0  0
   35.0870   27.7340   37.7440 H   0  0  0  0  0  0  0  0  0  0  0  0
   35.4110   30.8410   41.3250 H   0  0  0  0  0  0  0  0  0  0  0  0
   37.2300   31.2420   40.2840 C   0  0  0  0  0  0  0  0  0  0  0  0
   36.9620   32.5900   40.0950 C   0  0  0  0  0  0  0  0  0  0  0  0
   35.9790   32.9880   40.2740 H   0  0  0  0  0  0  0  0  0  0  0  0
   38.0190   33.3880   39.6710 C   0  0  0  0  0  0  0  0  0  0  0  0
   37.7550   34.4420   39.5390 H   0  0  0  0  0  0  0  0  0  0  0  0
   39.3010   32.9330   39.4260 C   0  0  0  0  0  0  0  0  0  0  0  0
   39.4690   31.5910   39.6380 C   0  0  0  0  0  0  0  0  0  0  0  0
   38.5130   30.7280   40.0500 C   0  0  0  0  0  0  0  0  0  0  0  0
   38.6900   29.6790   40.2030 H   0  0  0  0  0  0  0  0  0  0  0  0
   41.0900   30.9100   39.3470 S   0  0  0  0  0  0  0  0  0  0  0  0
   42.1210   32.2570   38.8140 C   0  0  0  0  0  0  0  0  0  0  0  0
   43.4130   31.8950   38.5420 C   0  0  0  0  0  0  0  0  0  0  0  0
   43.8130   30.9160   38.6240 H   0  0  0  0  0  0  0  0  0  0  0  0
   44.2730   32.9200   38.1170 C   0  0  0  0  0  0  0  0  0  0  0  0
   45.3040   32.6830   37.8900 H   0  0  0  0  0  0  0  0  0  0  0  0
   43.7930   34.2050   37.9980 C   0  0  0  0  0  0  0  0  0  0  0  0
   44.4310   35.0230   37.6730 H   0  0  0  0  0  0  0  0  0  0  0  0
   42.4560   34.4840   38.2980 C   0  0  0  0  0  0  0  0  0  0  0  0
   42.1230   35.5270   38.1850 H   0  0  0  0  0  0  0  0  0  0  0  0
   41.5730   33.5150   38.7180 C   0  0  0  0  0  0  0  0  0  0  0  0
   40.2570   33.8750   38.9950 N   0  0  0  0  0  0  0  0  0  0  0  0
   39.9750   34.8710   38.8790 H   0  0  0  0  0  0  0  0  0  0  0  0
   38.2870   22.3170   40.2980 C   0  0  0  0  0  0  0  0  0  0  0  0
   38.2470   23.7010   40.4780 C   0  0  0  0  0  0  0  0  0  0  0  0
   37.1560   24.3740   40.0120 C   0  0  0  0  0  0  0  0  0  0  0  0
   36.1800   23.6650   39.4110 N   0  0  0  0  0  0  0  0  0  0  0  0
   36.2180   22.3360   39.2380 C   0  0  0  0  0  0  0  0  0  0  0  0
   37.2690   21.6730   39.6810 N   0  0  0  0  0  0  0  0  0  0  0  0
   39.1390   21.7740   40.6560 H   0  0  0  0  0  0  0  0  0  0  0  0
   35.4670   21.7210   38.7640 H   0  0  0  0  0  0  0  0  0  0  0  0
   39.3070   24.3060   41.1650 N   0  0  0  0  0  0  0  0  0  0  0  0
   40.3510   24.9730   40.5590 C   0  0  0  0  0  0  0  0  0  0  0  0
   41.2970   25.6780   41.5080 C   0  0  0  0  0  0  0  0  0  0  0  0
   40.7030   26.3200   42.5950 N   0  0  0  0  0  0  0  0  0  0  0  0
   39.6440   25.6360   43.2330 C   0  0  0  0  0  0  0  0  0  0  0  0
   39.4130   24.2780   42.6120 C   0  0  0  0  0  0  0  0  0  0  0  0
   40.0600   25.7360   39.7800 H   0  0  0  0  0  0  0  0  0  0  0  0
   40.9780   24.2470   39.9790 H   0  0  0  0  0  0  0  0  0  0  0  0
   41.8950   26.4130   40.9320 H   0  0  0  0  0  0  0  0  0  0  0  0
   42.0590   24.9460   41.9030 H   0  0  0  0  0  0  0  0  0  0  0  0
   41.4190   26.6950   43.2220 H   0  0  0  0  0  0  0  0  0  0  0  0
   38.7180   26.2310   43.3660 H   0  0  0  0  0  0  0  0  0  0  0  0
   39.9800   25.4160   44.2870 H   0  0  0  0  0  0  0  0  0  0  0  0
   40.3230   23.6770   42.8710 H   0  0  0  0  0  0  0  0  0  0  0  0
   38.5660   23.7530   43.1010 H   0  0  0  0  0  0  0  0  0  0  0  0
  1  2  1  0  0  0  0
  2 38  1  0  0  0  0
  2  3  2  0  0  0  0
  3 11  1  0  0  0  0
  4  3  1  0  0  0  0
  4  9  1  0  0  0  0
  5  7  1  0  0  0  0
  5  4  2  0  0  0  0
  6  1  2  0  0  0  0
  6  5  1  0  0  0  0
  7  8  1  0  0  0  0
  8 13  1  1  0  0  0
  8  9  1  0  0  0  0
 10  1  1  0  0  0  0
 12  6  1  0  0  0  0
 14  8  1  0  0  0  0
 15 16  1  0  0  0  0
 15 14  1  0  0  0  0
 17 15  2  0  0  0  0
 18 17  1  0  0  0  0
 19 20  2  0  0  0  0
 19 17  1  0  0  0  0
 20 21  1  0  0  0  0
 21 22  1  0  0  0  0
 21 14  2  0  0  0  0
 23 20  1  0  0  0  0
 24 23  1  0  0  0  0
 25 26  1  0  0  0  0
 25 24  2  0  0  0  0
 27 25  1  0  0  0  0
 28 27  1  0  0  0  0
 29 27  2  0  0  0  0
 29 31  1  0  0  0  0
 30 29  1  0  0  0  0
 31 33  2  0  0  0  0
 32 31  1  0  0  0  0
 33 24  1  0  0  0  0
 33 34  1  0  0  0  0
 34 19  1  0  0  0  0
 35 34  1  0  0  0  0
 36 37  1  0  0  0  0
 36 42  1  0  0  0  0
 37 44  1  0  0  0  0
 38 37  2  0  0  0  0
 39 38  1  0  0  0  0
 40 39  2  0  0  0  0
 40 41  1  0  0  0  0
 41 36  2  0  0  0  0
 43 40  1  0  0  0  0
 44 49  1  0  0  0  0
 45 44  1  0  0  0  0
 45 46  1  0  0  0  0
 46 53  1  0  0  0  0
 46 47  1  0  0  0  0
 47 54  1  0  0  0  0
 47 48  1  0  0  0  0
 48 55  1  0  0  0  0
 48 56  1  0  0  0  0
 49 57  1  0  0  0  0
 49 58  1  0  0  0  0
 49 48  1  0  0  0  0
 50 45  1  0  0  0  0
 51 45  1  0  0  0  0
 52 46  1  0  0  0  0
M  END
>  <minimizedAffinity>
-7.26363897

$$$$

 OpenBabel03242523093D

 58 64  0  0  1  0  0  0  0  0999 V2000
   39.6330   31.6810   41.6070 C   0  0  0  0  0  0  0  0  0  0  0  0
   39.0400   32.4200   40.5550 C   0  0  0  0  0  0  0  0  0  0  0  0
   37.8320   31.8510   40.1790 C   0  0  0  0  0  0  0  0  0  0  0  0
   37.2460   30.7420   40.7090 C   0  0  0  0  0  0  0  0  0  0  0  0
   37.8890   30.0890   41.7270 C   0  0  0  0  0  0  0  0  0  0  0  0
   39.0900   30.5560   42.1810 C   0  0  0  0  0  0  0  0  0  0  0  0
   37.0660   29.0300   42.0530 O   0  0  0  0  0  0  0  0  0  0  0  0
   36.0010   28.9520   41.1430 C   0  0  1  0  0  0  0  0  0  0  0  0
   36.0580   30.1340   40.3730 O   0  0  0  0  0  0  0  0  0  0  0  0
   40.5780   31.8570   42.1290 H   0  0  0  0  0  0  0  0  0  0  0  0
   37.4000   32.3920   39.3970 H   0  0  0  0  0  0  0  0  0  0  0  0
   39.5020   29.9790   42.9690 H   0  0  0  0  0  0  0  0  0  0  0  0
   35.0480   28.8950   41.7180 H   0  0  0  0  0  0  0  0  0  0  0  0
   36.1520   27.7190   40.3210 C   0  0  0  0  0  0  0  0  0  0  0  0
   35.6740   27.6450   39.0210 C   0  0  0  0  0  0  0  0  0  0  0  0
   35.1810   28.4850   38.5650 H   0  0  0  0  0  0  0  0  0  0  0  0
   35.8660   26.4440   38.3470 C   0  0  0  0  0  0  0  0  0  0  0  0
   35.4720   26.4390   37.3260 H   0  0  0  0  0  0  0  0  0  0  0  0
   36.4930   25.3330   38.8800 C   0  0  0  0  0  0  0  0  0  0  0  0
   36.9290   25.5000   40.1670 C   0  0  0  0  0  0  0  0  0  0  0  0
   36.7950   26.6210   40.9100 C   0  0  0  0  0  0  0  0  0  0  0  0
   37.1540   26.7080   41.9200 H   0  0  0  0  0  0  0  0  0  0  0  0
   37.7480   24.1190   40.9420 S   0  0  0  0  0  0  0  0  0  0  0  0
   37.7700   22.8030   39.7480 C   0  0  0  0  0  0  0  0  0  0  0  0
   38.3690   21.6550   40.1950 C   0  0  0  0  0  0  0  0  0  0  0  0
   38.7940   21.5120   41.1560 H   0  0  0  0  0  0  0  0  0  0  0  0
   38.4150   20.5820   39.2920 C   0  0  0  0  0  0  0  0  0  0  0  0
   38.8790   19.6530   39.5990 H   0  0  0  0  0  0  0  0  0  0  0  0
   37.8740   20.7270   38.0330 C   0  0  0  0  0  0  0  0  0  0  0  0
   37.8930   19.9170   37.3090 H   0  0  0  0  0  0  0  0  0  0  0  0
   37.2810   21.9380   37.6620 C   0  0  0  0  0  0  0  0  0  0  0  0
   36.8620   22.0010   36.6460 H   0  0  0  0  0  0  0  0  0  0  0  0
   37.2090   23.0200   38.5100 C   0  0  0  0  0  0  0  0  0  0  0  0
   36.6010   24.1890   38.0640 N   0  0  0  0  0  0  0  0  0  0  0  0
   36.2170   24.2160   37.0960 H   0  0  0  0  0  0  0  0  0  0  0  0
   41.4200   34.9750   39.2050 C   0  0  0  0  0  0  0  0  0  0  0  0
   40.8940   33.6910   39.3650 C   0  0  0  0  0  0  0  0  0  0  0  0
   39.7930   33.5460   40.1570 C   0  0  0  0  0  0  0  0  0  0  0  0
   39.2750   34.6490   40.7330 N   0  0  0  0  0  0  0  0  0  0  0  0
   39.7790   35.8810   40.5800 C   0  0  0  0  0  0  0  0  0  0  0  0
   40.8470   36.0360   39.8190 N   0  0  0  0  0  0  0  0  0  0  0  0
   42.2870   35.1050   38.5880 H   0  0  0  0  0  0  0  0  0  0  0  0
   39.4050   36.7960   41.0180 H   0  0  0  0  0  0  0  0  0  0  0  0
   41.5030   32.6400   38.6670 N   0  0  0  0  0  0  0  0  0  0  0  0
   42.7300   32.0980   38.9860 C   0  0  0  0  0  0  0  0  0  0  0  0
   43.1130   30.8700   38.1890 C   0  0  0  0  0  0  0  0  0  0  0  0
   42.0850   29.9610   37.9370 N   0  0  0  0  0  0  0  0  0  0  0  0
   40.8290   30.5060   37.5940 C   0  0  0  0  0  0  0  0  0  0  0  0
   40.8870   32.0140   37.5120 C   0  0  0  0  0  0  0  0  0  0  0  0
   42.8820   31.8290   40.0720 H   0  0  0  0  0  0  0  0  0  0  0  0
   43.5360   32.8530   38.7980 H   0  0  0  0  0  0  0  0  0  0  0  0
   43.9400   30.3490   38.7140 H   0  0  0  0  0  0  0  0  0  0  0  0
   43.5620   31.1790   37.2010 H   0  0  0  0  0  0  0  0  0  0  0  0
   42.4160   29.2090   37.3270 H   0  0  0  0  0  0  0  0  0  0  0  0
   39.9750   30.1230   38.1880 H   0  0  0  0  0  0  0  0  0  0  0  0
   40.5990   30.1700   36.5410 H   0  0  0  0  0  0  0  0  0  0  0  0
   41.5350   32.2360   36.6240 H   0  0  0  0  0  0  0  0  0  0  0  0
   39.8930   32.4400   37.2630 H   0  0  0  0  0  0  0  0  0  0  0  0
  1 10  1  0  0  0  0
  1  6  1  0  0  0  0
  2  1  2  0  0  0  0
  3  2  1  0  0  0  0
  3  4  2  0  0  0  0
  4  5  1  0  0  0  0
  5  7  1  0  0  0  0
  5  6  2  0  0  0  0
  6 12  1  0  0  0  0
  8 13  1  1  0  0  0
  8  7  1  0  0  0  0
  9  4  1  0  0  0  0
  9  8  1  0  0  0  0
 11  3  1  0  0  0  0
 14 21  1  0  0  0  0
 14  8  1  0  0  0  0
 15 14  2  0  0  0  0
 16 15  1  0  0  0  0
 17 19  2  0  0  0  0
 17 15  1  0  0  0  0
 18 17  1  0  0  0  0
 19 20  1  0  0  0  0
 20 21  2  0  0  0  0
 20 23  1  0  0  0  0
 21 22  1  0  0  0  0
 24 25  1  0  0  0  0
 24 23  1  0  0  0  0
 25 26  1  0  0  0  0
 27 28  1  0  0  0  0
 27 25  2  0  0  0  0
 29 27  1  0  0  0  0
 30 29  1  0  0  0  0
 31 29  2  0  0  0  0
 31 33  1  0  0  0  0
 32 31  1  0  0  0  0
 33 24  2  0  0  0  0
 34 33  1  0  0  0  0
 34 19  1  0  0  0  0
 35 34  1  0  0  0  0
 36 37  2  0  0  0  0
 36 41  1  0  0  0  0
 37 38  1  0  0  0  0
 38  2  1  0  0  0  0
 38 39  2  0  0  0  0
 40 39  1  0  0  0  0
 40 43  1  0  0  0  0
 41 40  2  0  0  0  0
 42 36  1  0  0  0  0
 44 45  1  0  0  0  0
 44 37  1  0  0  0  0
 45 50  1  0  0  0  0
 46 52  1  0  0  0  0
 46 45  1  0  0  0  0
 47 46  1  0  0  0  0
 48 47  1  0  0  0  0
 48 55  1  0  0  0  0
 49 48  1  0  0  0  0
 49 44  1  0  0  0  0
 51 45  1  0  0  0  0
 53 46  1  0  0  0  0
 54 47  1  0  0  0  0
 56 48  1  0  0  0  0
 57 49  1  0  0  0  0
 58 49  1  0  0  0  0
M  END
>  <minimizedAffinity>
-7.25319386

$$$$

 OpenBabel03242523093D

 58 64  0  0  1  0  0  0  0  0999 V2000
   41.7680   30.8750   41.3610 C   0  0  0  0  0  0  0  0  0  0  0  0
   41.1630   31.1130   40.1040 C   0  0  0  0  0  0  0  0  0  0  0  0
   39.9300   30.4820   40.0270 C   0  0  0  0  0  0  0  0  0  0  0  0
   39.3310   29.7290   40.9920 C   0  0  0  0  0  0  0  0  0  0  0  0
   39.9880   29.5520   42.1810 C   0  0  0  0  0  0  0  0  0  0  0  0
   41.2130   30.1250   42.3710 C   0  0  0  0  0  0  0  0  0  0  0  0
   39.1480   28.7650   42.9430 O   0  0  0  0  0  0  0  0  0  0  0  0
   38.0550   28.3440   42.1720 C   0  0  1  0  0  0  0  0  0  0  0  0
   38.1190   29.0790   40.9680 O   0  0  0  0  0  0  0  0  0  0  0  0
   42.7330   31.2230   41.7420 H   0  0  0  0  0  0  0  0  0  0  0  0
   39.4880   30.6510   39.0970 H   0  0  0  0  0  0  0  0  0  0  0  0
   41.6350   29.9270   43.3230 H   0  0  0  0  0  0  0  0  0  0  0  0
   37.1180   28.5730   42.7310 H   0  0  0  0  0  0  0  0  0  0  0  0
   38.1490   26.8730   41.9570 C   0  0  0  0  0  0  0  0  0  0  0  0
   38.9250   26.0630   42.7730 C   0  0  0  0  0  0  0  0  0  0  0  0
   39.4820   26.4790   43.5940 H   0  0  0  0  0  0  0  0  0  0  0  0
   38.9420   24.7050   42.4790 C   0  0  0  0  0  0  0  0  0  0  0  0
   39.5680   24.1120   43.1530 H   0  0  0  0  0  0  0  0  0  0  0  0
   38.2470   24.1150   41.4400 C   0  0  0  0  0  0  0  0  0  0  0  0
   37.5120   24.9920   40.6890 C   0  0  0  0  0  0  0  0  0  0  0  0
   37.4240   26.3260   40.8890 C   0  0  0  0  0  0  0  0  0  0  0  0
   36.8320   26.9780   40.2720 H   0  0  0  0  0  0  0  0  0  0  0  0
   36.5820   24.3240   39.3230 S   0  0  0  0  0  0  0  0  0  0  0  0
   36.8920   22.5740   39.3010 C   0  0  0  0  0  0  0  0  0  0  0  0
   36.2460   21.9070   38.2950 C   0  0  0  0  0  0  0  0  0  0  0  0
   35.6090   22.3460   37.5690 H   0  0  0  0  0  0  0  0  0  0  0  0
   36.4550   20.5200   38.2300 C   0  0  0  0  0  0  0  0  0  0  0  0
   35.9650   19.9490   37.4520 H   0  0  0  0  0  0  0  0  0  0  0  0
   37.2750   19.9110   39.1540 C   0  0  0  0  0  0  0  0  0  0  0  0
   37.4580   18.8400   39.1340 H   0  0  0  0  0  0  0  0  0  0  0  0
   37.8950   20.6730   40.1490 C   0  0  0  0  0  0  0  0  0  0  0  0
   38.5410   20.1380   40.8620 H   0  0  0  0  0  0  0  0  0  0  0  0
   37.7230   22.0350   40.2560 C   0  0  0  0  0  0  0  0  0  0  0  0
   38.3780   22.7210   41.2750 N   0  0  0  0  0  0  0  0  0  0  0  0
   38.9810   22.1840   41.9330 H   0  0  0  0  0  0  0  0  0  0  0  0
   42.7620   33.7380   37.9670 C   0  0  0  0  0  0  0  0  0  0  0  0
   41.8330   33.2420   38.8840 C   0  0  0  0  0  0  0  0  0  0  0  0
   41.9330   31.9310   39.2480 C   0  0  0  0  0  0  0  0  0  0  0  0
   42.9230   31.1940   38.7060 N   0  0  0  0  0  0  0  0  0  0  0  0
   43.8140   31.6700   37.8260 C   0  0  0  0  0  0  0  0  0  0  0  0
   43.7270   32.9360   37.4620 N   0  0  0  0  0  0  0  0  0  0  0  0
   42.6940   34.7650   37.6690 H   0  0  0  0  0  0  0  0  0  0  0  0
   44.6240   31.1250   37.3610 H   0  0  0  0  0  0  0  0  0  0  0  0
   40.8850   34.1320   39.4070 N   0  0  0  0  0  0  0  0  0  0  0  0
   39.5840   33.7950   39.7130 C   0  0  0  0  0  0  0  0  0  0  0  0
   38.7900   34.8790   40.4110 C   0  0  0  0  0  0  0  0  0  0  0  0
   39.4790   35.6140   41.3760 N   0  0  0  0  0  0  0  0  0  0  0  0
   40.8080   35.9780   41.0640 C   0  0  0  0  0  0  0  0  0  0  0  0
   41.1910   35.5250   39.6740 C   0  0  0  0  0  0  0  0  0  0  0  0
   39.4500   32.8600   40.3300 H   0  0  0  0  0  0  0  0  0  0  0  0
   39.0230   33.5580   38.7720 H   0  0  0  0  0  0  0  0  0  0  0  0
   37.8930   34.4200   40.8750 H   0  0  0  0  0  0  0  0  0  0  0  0
   38.3730   35.5990   39.6490 H   0  0  0  0  0  0  0  0  0  0  0  0
   38.8920   36.3730   41.7330 H   0  0  0  0  0  0  0  0  0  0  0  0
   41.5570   35.7220   41.8400 H   0  0  0  0  0  0  0  0  0  0  0  0
   40.8400   37.1050   41.0170 H   0  0  0  0  0  0  0  0  0  0  0  0
   40.5660   36.1450   38.9800 H   0  0  0  0  0  0  0  0  0  0  0  0
   42.2420   35.7930   39.4410 H   0  0  0  0  0  0  0  0  0  0  0  0
  1 10  1  0  0  0  0
  1  6  1  0  0  0  0
  2  1  2  0  0  0  0
  3  2  1  0  0  0  0
  3  4  2  0  0  0  0
  4  5  1  0  0  0  0
  5  6  2  0  0  0  0
  5  7  1  0  0  0  0
  6 12  1  0  0  0  0
  8 13  1  1  0  0  0
  8  7  1  0  0  0  0
  9  4  1  0  0  0  0
  9  8  1  0  0  0  0
 11  3  1  0  0  0  0
 14  8  1  0  0  0  0
 14 15  1  0  0  0  0
 15 16  1  0  0  0  0
 17 15  2  0  0  0  0
 17 18  1  0  0  0  0
 19 17  1  0  0  0  0
 20 21  1  0  0  0  0
 20 19  2  0  0  0  0
 21 14  2  0  0  0  0
 22 21  1  0  0  0  0
 23 20  1  0  0  0  0
 24 23  1  0  0  0  0
 24 33  1  0  0  0  0
 25 24  2  0  0  0  0
 26 25  1  0  0  0  0
 27 25  1  0  0  0  0
 27 29  2  0  0  0  0
 28 27  1  0  0  0  0
 29 31  1  0  0  0  0
 30 29  1  0  0  0  0
 31 33  2  0  0  0  0
 31 32  1  0  0  0  0
 33 34  1  0  0  0  0
 34 19  1  0  0  0  0
 34 35  1  0  0  0  0
 36 37  1  0  0  0  0
 37 38  2  0  0  0  0
 37 44  1  0  0  0  0
 38  2  1  0  0  0  0
 39 38  1  0  0  0  0
 40 39  2  0  0  0  0
 41 40  1  0  0  0  0
 41 36  2  0  0  0  0
 42 36  1  0  0  0  0
 43 40  1  0  0  0  0
 44 49  1  0  0  0  0
 44 45  1  0  0  0  0
 45 50  1  0  0  0  0
 45 46  1  0  0  0  0
 46 52  1  0  0  0  0
 46 47  1  0  0  0  0
 47 54  1  0  0  0  0
 48 47  1  0  0  0  0
 48 55  1  0  0  0  0
 49 48  1  0  0  0  0
 51 45  1  0  0  0  0
 53 46  1  0  0  0  0
 56 48  1  0  0  0  0
 57 49  1  0  0  0  0
 58 49  1  0  0  0  0
M  END
>  <minimizedAffinity>
-7.2303853

$$$$

 OpenBabel03242523093D

 58 64  0  0  1  0  0  0  0  0999 V2000
   36.8990   24.0310   41.3110 C   0  0  0  0  0  0  0  0  0  0  0  0
   37.8720   23.8600   40.2980 C   0  0  0  0  0  0  0  0  0  0  0  0
   38.9000   24.7790   40.4470 C   0  0  0  0  0  0  0  0  0  0  0  0
   39.0150   25.7340   41.4130 C   0  0  0  0  0  0  0  0  0  0  0  0
   38.0280   25.8270   42.3570 C   0  0  0  0  0  0  0  0  0  0  0  0
   36.9610   24.9750   42.3090 C   0  0  0  0  0  0  0  0  0  0  0  0
   38.4170   26.8600   43.1850 O   0  0  0  0  0  0  0  0  0  0  0  0
   39.5590   27.4870   42.6660 C   0  0  1  0  0  0  0  0  0  0  0  0
   40.0060   26.6700   41.6050 O   0  0  0  0  0  0  0  0  0  0  0  0
   35.9710   23.4770   41.4800 H   0  0  0  0  0  0  0  0  0  0  0  0
   39.6140   24.6580   39.6950 H   0  0  0  0  0  0  0  0  0  0  0  0
   36.2540   25.1310   43.0840 H   0  0  0  0  0  0  0  0  0  0  0  0
   40.3260   27.5510   43.4720 H   0  0  0  0  0  0  0  0  0  0  0  0
   39.1990   28.8630   42.2230 C   0  0  0  0  0  0  0  0  0  0  0  0
   37.8780   29.2640   42.0830 C   0  0  0  0  0  0  0  0  0  0  0  0
   37.0710   28.5870   42.2970 H   0  0  0  0  0  0  0  0  0  0  0  0
   37.6590   30.5700   41.6600 C   0  0  0  0  0  0  0  0  0  0  0  0
   36.6010   30.8350   41.5670 H   0  0  0  0  0  0  0  0  0  0  0  0
   38.6550   31.4830   41.3720 C   0  0  0  0  0  0  0  0  0  0  0  0
   39.9240   30.9980   41.5370 C   0  0  0  0  0  0  0  0  0  0  0  0
   40.2490   29.7500   41.9430 C   0  0  0  0  0  0  0  0  0  0  0  0
   41.2620   29.4110   42.0600 H   0  0  0  0  0  0  0  0  0  0  0  0
   41.2780   32.1020   41.1870 S   0  0  0  0  0  0  0  0  0  0  0  0
   40.5590   33.6450   40.6730 C   0  0  0  0  0  0  0  0  0  0  0  0
   41.4780   34.6110   40.3600 C   0  0  0  0  0  0  0  0  0  0  0  0
   42.5320   34.5010   40.4010 H   0  0  0  0  0  0  0  0  0  0  0  0
   40.9650   35.8510   39.9480 C   0  0  0  0  0  0  0  0  0  0  0  0
   41.6520   36.6460   39.6900 H   0  0  0  0  0  0  0  0  0  0  0  0
   39.6020   36.0350   39.8810 C   0  0  0  0  0  0  0  0  0  0  0  0
   39.1700   36.9820   39.5670 H   0  0  0  0  0  0  0  0  0  0  0  0
   38.7360   34.9910   40.2200 C   0  0  0  0  0  0  0  0  0  0  0  0
   37.6560   35.1900   40.1480 H   0  0  0  0  0  0  0  0  0  0  0  0
   39.1880   33.7560   40.6290 C   0  0  0  0  0  0  0  0  0  0  0  0
   38.2610   32.7690   40.9480 N   0  0  0  0  0  0  0  0  0  0  0  0
   37.2460   32.9910   40.8700 H   0  0  0  0  0  0  0  0  0  0  0  0
   36.7080   21.4950   37.6400 C   0  0  0  0  0  0  0  0  0  0  0  0
   36.8070   22.7310   38.2830 C   0  0  0  0  0  0  0  0  0  0  0  0
   37.5820   22.8080   39.4030 C   0  0  0  0  0  0  0  0  0  0  0  0
   38.2090   21.6890   39.8200 N   0  0  0  0  0  0  0  0  0  0  0  0
   38.1140   20.5030   39.2020 C   0  0  0  0  0  0  0  0  0  0  0  0
   37.3650   20.4140   38.1190 N   0  0  0  0  0  0  0  0  0  0  0  0
   36.1000   21.4190   36.7600 H   0  0  0  0  0  0  0  0  0  0  0  0
   38.5920   19.5790   39.4930 H   0  0  0  0  0  0  0  0  0  0  0  0
   36.1420   23.8240   37.7130 N   0  0  0  0  0  0  0  0  0  0  0  0
   34.7780   24.0210   37.7620 C   0  0  0  0  0  0  0  0  0  0  0  0
   34.3030   25.3490   37.2130 C   0  0  0  0  0  0  0  0  0  0  0  0
   35.0960   26.4550   37.5220 N   0  0  0  0  0  0  0  0  0  0  0  0
   36.4940   26.2680   37.4580 C   0  0  0  0  0  0  0  0  0  0  0  0
   36.8420   24.8720   36.9930 C   0  0  0  0  0  0  0  0  0  0  0  0
   34.3020   23.9120   38.7790 H   0  0  0  0  0  0  0  0  0  0  0  0
   34.2610   23.2320   37.1550 H   0  0  0  0  0  0  0  0  0  0  0  0
   33.2680   25.5320   37.5700 H   0  0  0  0  0  0  0  0  0  0  0  0
   34.2040   25.2870   36.0910 H   0  0  0  0  0  0  0  0  0  0  0  0
   34.7460   27.2890   37.0430 H   0  0  0  0  0  0  0  0  0  0  0  0
   37.0500   26.5910   38.3600 H   0  0  0  0  0  0  0  0  0  0  0  0
   36.8820   26.9460   36.6430 H   0  0  0  0  0  0  0  0  0  0  0  0
   36.5100   24.8260   35.9240 H   0  0  0  0  0  0  0  0  0  0  0  0
   37.9420   24.7220   36.9660 H   0  0  0  0  0  0  0  0  0  0  0  0
  1 10  1  0  0  0  0
  1  6  1  0  0  0  0
  2  3  1  0  0  0  0
  2  1  2  0  0  0  0
  3  4  2  0  0  0  0
  4  9  1  0  0  0  0
  4  5  1  0  0  0  0
  5  7  1  0  0  0  0
  6  5  2  0  0  0  0
  6 12  1  0  0  0  0
  8  7  1  0  0  0  0
  8 13  1  1  0  0  0
  9  8  1  0  0  0  0
 11  3  1  0  0  0  0
 14  8  1  0  0  0  0
 15 14  1  0  0  0  0
 15 16  1  0  0  0  0
 17 15  2  0  0  0  0
 18 17  1  0  0  0  0
 19 20  2  0  0  0  0
 19 17  1  0  0  0  0
 20 21  1  0  0  0  0
 21 22  1  0  0  0  0
 21 14  2  0  0  0  0
 23 20  1  0  0  0  0
 24 23  1  0  0  0  0
 25 26  1  0  0  0  0
 25 24  2  0  0  0  0
 27 25  1  0  0  0  0
 28 27  1  0  0  0  0
 29 27  2  0  0  0  0
 29 31  1  0  0  0  0
 30 29  1  0  0  0  0
 31 33  2  0  0  0  0
 32 31  1  0  0  0  0
 33 24  1  0  0  0  0
 33 34  1  0  0  0  0
 34 19  1  0  0  0  0
 35 34  1  0  0  0  0
 36 41  2  0  0  0  0
 36 37  1  0  0  0  0
 37 38  2  0  0  0  0
 38 39  1  0  0  0  0
 38  2  1  0  0  0  0
 40 43  1  0  0  0  0
 40 39  2  0  0  0  0
 41 40  1  0  0  0  0
 42 36  1  0  0  0  0
 44 45  1  0  0  0  0
 44 37  1  0  0  0  0
 45 50  1  0  0  0  0
 46 47  1  0  0  0  0
 46 52  1  0  0  0  0
 46 45  1  0  0  0  0
 48 47  1  0  0  0  0
 48 55  1  0  0  0  0
 49 48  1  0  0  0  0
 49 44  1  0  0  0  0
 51 45  1  0  0  0  0
 53 46  1  0  0  0  0
 54 47  1  0  0  0  0
 56 48  1  0  0  0  0
 57 49  1  0  0  0  0
 58 49  1  0  0  0  0
M  END
>  <minimizedAffinity>
-7.19401312

$$$$
