
     RDKit          3D

 36 39  0  0  0  0  0  0  0  0999 V2000
   44.5977   35.9289   44.4246 C   0  0  0  0  0  0  0  0  0  0  0  0
   45.3323   35.8560   43.2209 C   0  0  0  0  0  0  0  0  0  0  0  0
   46.2502   34.8187   43.1423 C   0  0  0  0  0  0  0  0  0  0  0  0
   46.3490   34.0025   44.1953 N   0  0  0  0  0  0  0  0  0  0  0  0
   45.6595   34.0639   45.3346 C   0  0  0  0  0  0  0  0  0  0  0  0
   44.7578   35.0646   45.4386 N   0  0  0  0  0  0  0  0  0  0  0  0
   47.0320   34.7212   41.9032 C   0  0  0  0  0  0  0  0  0  0  0  0
   47.8453   33.6009   41.9458 F   0  0  0  0  0  0  0  0  0  0  0  0
   47.9067   35.8213   41.9105 F   0  0  0  0  0  0  0  0  0  0  0  0
   46.2685   34.6836   40.7844 F   0  0  0  0  0  0  0  0  0  0  0  0
   45.8249   33.1509   46.4486 C   0  0  0  0  0  0  0  0  0  0  0  0
   45.0299   33.1856   47.4332 O   0  0  0  0  0  0  0  0  0  0  0  0
   43.8751   36.7327   44.5126 H   0  0  0  0  0  0  0  0  0  0  0  0
   45.2126   36.5419   42.4089 H   0  0  0  0  0  0  0  0  0  0  0  0
   46.8732   32.1473   46.5470 C   0  0  0  0  0  0  0  0  0  0  0  0
   48.0045   32.1885   45.7621 C   0  0  0  0  0  0  0  0  0  0  0  0
   48.1962   32.9569   45.0314 H   0  0  0  0  0  0  0  0  0  0  0  0
   49.0128   31.2432   45.8473 C   0  0  0  0  0  0  0  0  0  0  0  0
   49.8953   31.3251   45.1907 H   0  0  0  0  0  0  0  0  0  0  0  0
   48.9464   30.1799   46.7427 C   0  0  0  0  0  0  0  0  0  0  0  0
   47.8071   30.1647   47.5124 C   0  0  0  0  0  0  0  0  0  0  0  0
   46.8292   31.0862   47.4244 C   0  0  0  0  0  0  0  0  0  0  0  0
   45.9318   31.0285   48.0583 H   0  0  0  0  0  0  0  0  0  0  0  0
   47.6021   28.8526   48.7011 S   0  0  0  0  0  0  0  0  0  0  0  0
   49.0695   27.8525   48.5683 C   0  0  0  0  0  0  0  0  0  0  0  0
   49.1482   26.7888   49.4067 C   0  0  0  0  0  0  0  0  0  0  0  0
   48.3667   26.5529   50.1217 H   0  0  0  0  0  0  0  0  0  0  0  0
   50.2883   25.9956   49.3144 C   0  0  0  0  0  0  0  0  0  0  0  0
   50.3815   25.1414   49.9635 H   0  0  0  0  0  0  0  0  0  0  0  0
   51.3183   26.2442   48.4220 C   0  0  0  0  0  0  0  0  0  0  0  0
   52.1930   25.6300   48.3497 H   0  0  0  0  0  0  0  0  0  0  0  0
   51.1500   27.3564   47.6018 C   0  0  0  0  0  0  0  0  0  0  0  0
   51.9794   27.5354   46.9007 H   0  0  0  0  0  0  0  0  0  0  0  0
   50.0397   28.1704   47.6581 C   0  0  0  0  0  0  0  0  0  0  0  0
   50.0074   29.2601   46.7871 N   0  0  0  0  0  0  0  0  0  0  0  0
   50.8041   29.4125   46.1318 H   0  0  0  0  0  0  0  0  0  0  0  0
  1  6  2  0
  2  1  1  0
  3  2  2  0
  3  4  1  0
  4  5  2  0
  5  6  1  0
  5 11  1  0
  7  8  1  0
  7  3  1  0
  9  7  1  0
 10  7  1  0
 11 12  2  0
  1 13  1  0
  2 14  1  0
 15 16  2  0
 16 17  1  0
 16 18  1  0
 18 19  1  0
 18 20  2  0
 20 21  1  0
 21 22  2  0
 22 23  1  0
 21 24  1  0
 24 25  1  0
 25 26  2  0
 26 27  1  0
 26 28  1  0
 28 29  1  0
 28 30  2  0
 30 31  1  0
 30 32  1  0
 32 33  1  0
 32 34  2  0
 34 35  1  0
 35 36  1  0
 22 15  1  0
 34 25  1  0
 35 20  1  0
 11 15  1  0
M  ISO  8  13  14  14  14  17  16  19  16  23  16  27  16  29  16  31  16
M  ISO  2  33  16  36   5
M  END
>  <DihAtoms>  (1) 
4,10,14,15

>  <DihDeg>  (1) 
16.95244225262003

$$$$
