REMARK  Name = 
REMARK  6 active torsions:
REMARK  status: ('A' for Active; 'I' for Inactive)
REMARK    1  A    between atoms: C_2  and  O_7
REMARK    2  A    between atoms: O_7  and  P_9
REMARK    3  A    between atoms: P_9  and  O_10
REMARK    4  A    between atoms: P_9  and  O_11
REMARK    5  A    between atoms: O_11  and  C_12
REMARK    6  A    between atoms: C_12  and  C_18
REMARK                            x       y       z     vdW  Elec       q    Type
REMARK                         _______ _______ _______ _____ _____    ______ ____
ROOT
ATOM      1  C   UNL     1      48.491  34.243  37.944  0.00  0.00    +0.000 A 
ATOM      2  C   UNL     1      49.729  34.569  37.527  0.00  0.00    +0.000 A 
ATOM      3  H   UNL     1      50.489  34.973  38.178  0.00  0.00    +0.000 HD
ATOM      4  C   UNL     1      49.993  34.356  36.169  0.00  0.00    +0.000 A 
ATOM      5  H   UNL     1      51.007  34.631  35.864  0.00  0.00    +0.000 HD
ATOM      6  C   UNL     1      49.098  33.851  35.266  0.00  0.00    +0.000 A 
ATOM      7  C   UNL     1      47.847  33.530  35.730  0.00  0.00    +0.000 A 
ATOM      8  C   UNL     1      47.565  33.725  37.029  0.00  0.00    +0.000 A 
ATOM      9  H   UNL     1      46.557  33.464  37.386  0.00  0.00    +0.000 HD
ATOM     10  S   UNL     1      46.650  32.869  34.586  0.00  0.00    +0.000 S 
ATOM     11  C   UNL     1      47.465  32.794  33.015  0.00  0.00    +0.000 A 
ATOM     12  C   UNL     1      46.713  32.312  31.995  0.00  0.00    +0.000 A 
ATOM     13  H   UNL     1      45.686  31.985  32.090  0.00  0.00    +0.000 HD
ATOM     14  C   UNL     1      47.266  32.213  30.715  0.00  0.00    +0.000 A 
ATOM     15  H   UNL     1      46.707  31.835  29.870  0.00  0.00    +0.000 HD
ATOM     16  C   UNL     1      48.563  32.611  30.529  0.00  0.00    +0.000 A 
ATOM     17  H   UNL     1      49.001  32.540  29.548  0.00  0.00    +0.000 HD
ATOM     18  C   UNL     1      49.250  33.087  31.619  0.00  0.00    +0.000 A 
ATOM     19  H   UNL     1      50.285  33.387  31.391  0.00  0.00    +0.000 HD
ATOM     20  C   UNL     1      48.759  33.208  32.903  0.00  0.00    +0.000 A 
ATOM     21  N   UNL     1      49.553  33.707  33.934  0.00  0.00    +0.000 N 
ATOM     22  H   UNL     1      50.525  33.978  33.670  0.00  0.00    +0.000 HD
ENDROOT
BRANCH   1  23
ATOM     23  C   UNL     1      48.050  34.407  39.359  0.00  0.00    +0.000 C 
ATOM     24  O   UNL     1      46.954  33.732  39.511  0.00  0.00    +0.000 OA
BRANCH  23  25
ATOM     25  O   UNL     1      48.411  35.021  40.503  0.00  0.00    +0.000 OA
BRANCH  25  27
ATOM     26  O   UNL     1      49.547  35.364  42.792  0.00  0.00    +0.000 OA
ATOM     27  P   UNL     1      48.978  34.305  41.900  0.00  0.00    +0.000 P 
BRANCH  27  28
ATOM     28  O   UNL     1      50.221  33.246  41.511  0.00  0.00    +0.000 OA
ATOM     29  H   UNL     1      51.070  33.706  41.386  0.00  0.00    +0.000 HD
ENDBRANCH  27  28
BRANCH  27  30
ATOM     30  O   UNL     1      47.707  33.483  42.699  0.00  0.00    +0.000 OA
BRANCH  30  32
ATOM     31  C   UNL     1      46.140  35.281  42.699  0.00  0.00    +0.000 A 
ATOM     32  C   UNL     1      46.691  34.186  43.343  0.00  0.00    +0.000 A 
ATOM     33  C   UNL     1      46.203  33.837  44.608  0.00  0.00    +0.000 A 
ATOM     34  N   UNL     1      45.206  34.599  45.143  0.00  0.00    +0.000 NA
ATOM     35  C   UNL     1      44.698  35.648  44.493  0.00  0.00    +0.000 A 
ATOM     36  N   UNL     1      45.162  35.980  43.289  0.00  0.00    +0.000 NA
ATOM     37  H   UNL     1      46.480  35.599  41.713  0.00  0.00    +0.000 HD
ATOM     38  H   UNL     1      46.671  32.988  45.043  0.00  0.00    +0.000 HD
ATOM     39  H   UNL     1      43.911  36.159  45.039  0.00  0.00    +0.000 HD
ENDBRANCH  30  32
ENDBRANCH  27  30
ENDBRANCH  25  27
ENDBRANCH  23  25
ENDBRANCH   1  23
TORSDOF 6
