
 OpenBabel03252502433D

 44 48  0  0  1  0  0  0  0  0999 V2000
   48.5920   34.9960   41.3470 C   0  0  1  0  0  0  0  0  0  0  0  0
   49.5200   34.9090   42.4540 C   0  0  0  0  0  0  0  0  0  0  0  0
   49.3760   33.8540   41.3620 C   0  0  1  0  0  0  0  0  0  0  0  0
   48.7970   35.8880   40.6840 H   0  0  0  0  0  0  0  0  0  0  0  0
   49.2740   34.6510   43.4810 H   0  0  0  0  0  0  0  0  0  0  0  0
   50.5260   35.4250   42.4070 H   0  0  0  0  0  0  0  0  0  0  0  0
   50.0610   33.9190   40.4460 H   0  0  0  0  0  0  0  0  0  0  0  0
   49.7860   32.5790   41.8180 C   0  0  0  0  0  0  0  0  0  0  0  0
   51.1180   32.2300   42.1020 C   0  0  0  0  0  0  0  0  0  0  0  0
   51.8830   32.9800   41.9430 H   0  0  0  0  0  0  0  0  0  0  0  0
   51.3950   30.9670   42.5660 C   0  0  0  0  0  0  0  0  0  0  0  0
   52.4640   30.8010   42.7560 H   0  0  0  0  0  0  0  0  0  0  0  0
   50.3850   30.0490   42.7520 C   0  0  0  0  0  0  0  0  0  0  0  0
   49.0840   30.3150   42.4980 C   0  0  0  0  0  0  0  0  0  0  0  0
   48.8380   31.5640   42.0440 C   0  0  0  0  0  0  0  0  0  0  0  0
   47.7980   31.8250   41.8240 H   0  0  0  0  0  0  0  0  0  0  0  0
   47.8500   29.0860   42.7620 S   0  0  0  0  0  0  0  0  0  0  0  0
   48.7190   27.6440   43.3640 C   0  0  0  0  0  0  0  0  0  0  0  0
   47.9090   26.5790   43.6260 C   0  0  0  0  0  0  0  0  0  0  0  0
   46.8460   26.5590   43.5000 H   0  0  0  0  0  0  0  0  0  0  0  0
   48.4950   25.4090   44.0990 C   0  0  0  0  0  0  0  0  0  0  0  0
   47.9410   24.5140   44.3350 H   0  0  0  0  0  0  0  0  0  0  0  0
   49.8600   25.3730   44.2820 C   0  0  0  0  0  0  0  0  0  0  0  0
   50.3320   24.4710   44.6490 H   0  0  0  0  0  0  0  0  0  0  0  0
   50.5780   26.4910   43.9900 C   0  0  0  0  0  0  0  0  0  0  0  0
   51.6650   26.4060   44.1560 H   0  0  0  0  0  0  0  0  0  0  0  0
   50.0860   27.6940   43.5180 C   0  0  0  0  0  0  0  0  0  0  0  0
   50.8780   28.8180   43.2330 N   0  0  0  0  0  0  0  0  0  0  0  0
   51.9040   28.6160   43.4310 H   0  0  0  0  0  0  0  0  0  0  0  0
   47.1090   34.9660   41.6010 C   0  0  0  0  0  0  0  0  0  0  0  0
   46.8750   35.9890   42.0190 H   0  0  0  0  0  0  0  0  0  0  0  0
   46.5160   34.8080   40.7010 H   0  0  0  0  0  0  0  0  0  0  0  0
   46.9570   33.9050   42.6440 C   0  0  0  0  0  0  0  0  0  0  0  0
   47.8630   33.9010   43.2750 H   0  0  0  0  0  0  0  0  0  0  0  0
   46.6450   32.9310   42.2610 H   0  0  0  0  0  0  0  0  0  0  0  0
   44.5370   36.0420   44.5590 C   0  0  0  0  0  0  0  0  0  0  0  0
   45.3470   35.5560   43.5040 C   0  0  0  0  0  0  0  0  0  0  0  0
   46.0630   34.4130   43.7240 C   0  0  0  0  0  0  0  0  0  0  0  0
   45.9710   33.7870   44.9330 N   0  0  0  0  0  0  0  0  0  0  0  0
   45.2100   34.2540   45.9060 C   0  0  0  0  0  0  0  0  0  0  0  0
   44.4950   35.3700   45.7330 N   0  0  0  0  0  0  0  0  0  0  0  0
   43.9340   36.9350   44.4890 H   0  0  0  0  0  0  0  0  0  0  0  0
   45.2650   36.1870   42.6360 H   0  0  0  0  0  0  0  0  0  0  0  0
   45.1110   33.7850   46.8790 H   0  0  0  0  0  0  0  0  0  0  0  0
  1  4  1  6  0  0  0
  1  3  1  0  0  0  0
  1 30  1  0  0  0  0
  1  2  1  0  0  0  0
  2  5  1  0  0  0  0
  3  7  1  6  0  0  0
  3  8  1  0  0  0  0
  3  2  1  0  0  0  0
  6  2  1  0  0  0  0
  8 15  2  0  0  0  0
  8  9  1  0  0  0  0
  9 11  2  0  0  0  0
 10  9  1  0  0  0  0
 11 13  1  0  0  0  0
 11 12  1  0  0  0  0
 13 28  1  0  0  0  0
 14 13  2  0  0  0  0
 14 17  1  0  0  0  0
 15 14  1  0  0  0  0
 16 15  1  0  0  0  0
 17 18  1  0  0  0  0
 18 27  2  0  0  0  0
 18 19  1  0  0  0  0
 19 21  2  0  0  0  0
 20 19  1  0  0  0  0
 21 23  1  0  0  0  0
 21 22  1  0  0  0  0
 23 24  1  0  0  0  0
 25 26  1  0  0  0  0
 25 23  2  0  0  0  0
 27 25  1  0  0  0  0
 28 29  1  0  0  0  0
 28 27  1  0  0  0  0
 30 31  1  0  0  0  0
 30 33  1  0  0  0  0
 32 30  1  0  0  0  0
 33 34  1  0  0  0  0
 33 38  1  0  0  0  0
 35 33  1  0  0  0  0
 36 41  1  0  0  0  0
 37 38  1  0  0  0  0
 37 36  2  0  0  0  0
 38 39  2  0  0  0  0
 39 40  1  0  0  0  0
 40 44  1  0  0  0  0
 41 40  2  0  0  0  0
 42 36  1  0  0  0  0
 43 37  1  0  0  0  0
M  END
>  <minimizedAffinity>
-4.7761426

>  <minimizedRMSD>
1.28080571

$$$$
