
 OpenBabel03252502433D

 44 48  0  0  1  0  0  0  0  0999 V2000
   48.8100   34.9680   41.4300 C   0  0  1  0  0  0  0  0  0  0  0  0
   49.6890   34.8970   42.5770 C   0  0  0  0  0  0  0  0  0  0  0  0
   49.4370   33.7460   41.6080 C   0  0  1  0  0  0  0  0  0  0  0  0
   49.1460   35.7420   40.6780 H   0  0  0  0  0  0  0  0  0  0  0  0
   49.3850   34.7960   43.6150 H   0  0  0  0  0  0  0  0  0  0  0  0
   50.7540   35.2720   42.5120 H   0  0  0  0  0  0  0  0  0  0  0  0
   50.1480   33.6140   40.7200 H   0  0  0  0  0  0  0  0  0  0  0  0
   49.6650   32.4930   42.2240 C   0  0  0  0  0  0  0  0  0  0  0  0
   50.8930   31.8080   42.1940 C   0  0  0  0  0  0  0  0  0  0  0  0
   51.7110   32.2590   41.6480 H   0  0  0  0  0  0  0  0  0  0  0  0
   51.0050   30.6080   42.8520 C   0  0  0  0  0  0  0  0  0  0  0  0
   52.0040   30.1590   42.7650 H   0  0  0  0  0  0  0  0  0  0  0  0
   49.9330   30.0750   43.5330 C   0  0  0  0  0  0  0  0  0  0  0  0
   48.7250   30.6780   43.6020 C   0  0  0  0  0  0  0  0  0  0  0  0
   48.6400   31.8570   42.9480 C   0  0  0  0  0  0  0  0  0  0  0  0
   47.6780   32.3820   42.9760 H   0  0  0  0  0  0  0  0  0  0  0  0
   47.4010   29.9320   44.4940 S   0  0  0  0  0  0  0  0  0  0  0  0
   48.0580   28.4070   45.1550 C   0  0  0  0  0  0  0  0  0  0  0  0
   47.1580   27.6880   45.8870 C   0  0  0  0  0  0  0  0  0  0  0  0
   46.1430   27.9700   46.0760 H   0  0  0  0  0  0  0  0  0  0  0  0
   47.5770   26.4830   46.4440 C   0  0  0  0  0  0  0  0  0  0  0  0
   46.9430   25.8440   47.0360 H   0  0  0  0  0  0  0  0  0  0  0  0
   48.8730   26.0680   46.2340 C   0  0  0  0  0  0  0  0  0  0  0  0
   49.2150   25.1330   46.6600 H   0  0  0  0  0  0  0  0  0  0  0  0
   49.6920   26.8590   45.4890 C   0  0  0  0  0  0  0  0  0  0  0  0
   50.7170   26.4770   45.3540 H   0  0  0  0  0  0  0  0  0  0  0  0
   49.3670   28.0660   44.8990 C   0  0  0  0  0  0  0  0  0  0  0  0
   50.2550   28.8430   44.1380 N   0  0  0  0  0  0  0  0  0  0  0  0
   51.2100   28.3740   44.0780 H   0  0  0  0  0  0  0  0  0  0  0  0
   47.3290   35.1560   41.6250 C   0  0  0  0  0  0  0  0  0  0  0  0
   47.2430   36.1170   42.2130 H   0  0  0  0  0  0  0  0  0  0  0  0
   46.7770   35.2640   40.6920 H   0  0  0  0  0  0  0  0  0  0  0  0
   46.9340   33.9750   42.4520 C   0  0  0  0  0  0  0  0  0  0  0  0
   47.7850   33.7010   43.1010 H   0  0  0  0  0  0  0  0  0  0  0  0
   46.4870   33.1530   41.8890 H   0  0  0  0  0  0  0  0  0  0  0  0
   44.5720   36.0310   44.5220 C   0  0  0  0  0  0  0  0  0  0  0  0
   45.3500   35.5880   43.4250 C   0  0  0  0  0  0  0  0  0  0  0  0
   46.0740   34.4400   43.5780 C   0  0  0  0  0  0  0  0  0  0  0  0
   46.0200   33.7670   44.7640 N   0  0  0  0  0  0  0  0  0  0  0  0
   45.2890   34.1950   45.7780 C   0  0  0  0  0  0  0  0  0  0  0  0
   44.5680   35.3140   45.6710 N   0  0  0  0  0  0  0  0  0  0  0  0
   43.9670   36.9250   44.5050 H   0  0  0  0  0  0  0  0  0  0  0  0
   45.2400   36.2520   42.5850 H   0  0  0  0  0  0  0  0  0  0  0  0
   45.2210   33.6880   46.7350 H   0  0  0  0  0  0  0  0  0  0  0  0
  1  4  1  6  0  0  0
  1  3  1  0  0  0  0
  1 30  1  0  0  0  0
  1  2  1  0  0  0  0
  2  5  1  0  0  0  0
  3  7  1  6  0  0  0
  3  8  1  0  0  0  0
  3  2  1  0  0  0  0
  6  2  1  0  0  0  0
  8 15  1  0  0  0  0
  9  8  2  0  0  0  0
  9 11  1  0  0  0  0
 10  9  1  0  0  0  0
 11 13  2  0  0  0  0
 12 11  1  0  0  0  0
 13 14  1  0  0  0  0
 13 28  1  0  0  0  0
 14 17  1  0  0  0  0
 15 16  1  0  0  0  0
 15 14  2  0  0  0  0
 17 18  1  0  0  0  0
 18 19  1  0  0  0  0
 19 20  1  0  0  0  0
 19 21  2  0  0  0  0
 21 22  1  0  0  0  0
 23 21  1  0  0  0  0
 23 24  1  0  0  0  0
 25 23  2  0  0  0  0
 26 25  1  0  0  0  0
 27 18  2  0  0  0  0
 27 25  1  0  0  0  0
 28 27  1  0  0  0  0
 29 28  1  0  0  0  0
 30 31  1  0  0  0  0
 30 33  1  0  0  0  0
 32 30  1  0  0  0  0
 33 34  1  0  0  0  0
 33 38  1  0  0  0  0
 35 33  1  0  0  0  0
 36 41  1  0  0  0  0
 37 38  1  0  0  0  0
 37 36  2  0  0  0  0
 38 39  2  0  0  0  0
 39 40  1  0  0  0  0
 40 44  1  0  0  0  0
 41 40  2  0  0  0  0
 42 36  1  0  0  0  0
 43 37  1  0  0  0  0
M  END
>  <minimizedAffinity>
-5.12719822

>  <minimizedRMSD>
1.12260914

$$$$
