
 OpenBabel03242523183D

 50 55  0  0  0  0  0  0  0  0999 V2000
   44.4970   31.8460   42.7930 Cl  0  0  0  0  0  0  0  0  0  0  0  0
   44.5830   33.6090   42.7260 C   0  0  0  0  0  0  0  0  0  0  0  0
   45.4460   34.2050   43.6680 C   0  0  0  0  0  0  0  0  0  0  0  0
   45.4390   35.5830   43.5270 C   0  0  0  0  0  0  0  0  0  0  0  0
   44.7660   36.3600   42.6660 C   0  0  0  0  0  0  0  0  0  0  0  0
   43.9520   35.7000   41.7870 C   0  0  0  0  0  0  0  0  0  0  0  0
   43.8470   34.3520   41.7990 C   0  0  0  0  0  0  0  0  0  0  0  0
   46.0410   36.2140   44.2150 H   0  0  0  0  0  0  0  0  0  0  0  0
   44.7880   37.4170   42.5860 H   0  0  0  0  0  0  0  0  0  0  0  0
   43.3400   36.1730   41.0280 H   0  0  0  0  0  0  0  0  0  0  0  0
   42.9900   33.5930   40.8860 C   0  0  0  0  0  0  0  0  0  0  0  0
   41.6320   33.6420   41.2060 C   0  0  0  0  0  0  0  0  0  0  0  0
   41.2610   34.1970   42.0560 H   0  0  0  0  0  0  0  0  0  0  0  0
   40.7240   32.9510   40.4010 C   0  0  0  0  0  0  0  0  0  0  0  0
   39.6700   33.0270   40.7030 H   0  0  0  0  0  0  0  0  0  0  0  0
   41.0830   32.2120   39.2950 C   0  0  0  0  0  0  0  0  0  0  0  0
   42.4270   32.2000   39.0290 C   0  0  0  0  0  0  0  0  0  0  0  0
   43.3590   32.8570   39.7800 C   0  0  0  0  0  0  0  0  0  0  0  0
   44.4020   32.8460   39.5780 H   0  0  0  0  0  0  0  0  0  0  0  0
   42.9950   31.2730   37.6190 S   0  0  0  0  0  0  0  0  0  0  0  0
   41.5530   30.5480   36.8660 C   0  0  0  0  0  0  0  0  0  0  0  0
   41.6850   29.7710   35.7480 C   0  0  0  0  0  0  0  0  0  0  0  0
   42.6920   29.6160   35.3430 H   0  0  0  0  0  0  0  0  0  0  0  0
   40.6090   29.1850   35.1220 C   0  0  0  0  0  0  0  0  0  0  0  0
   40.8200   28.5900   34.2450 H   0  0  0  0  0  0  0  0  0  0  0  0
   39.3630   29.4080   35.6670 C   0  0  0  0  0  0  0  0  0  0  0  0
   38.5180   28.9660   35.2010 H   0  0  0  0  0  0  0  0  0  0  0  0
   39.2750   30.1970   36.7940 C   0  0  0  0  0  0  0  0  0  0  0  0
   38.2450   30.3220   37.1610 H   0  0  0  0  0  0  0  0  0  0  0  0
   40.3330   30.7960   37.4410 C   0  0  0  0  0  0  0  0  0  0  0  0
   40.0490   31.5670   38.5800 N   0  0  0  0  0  0  0  0  0  0  0  0
   39.0640   31.6660   38.8990 H   0  0  0  0  0  0  0  0  0  0  0  0
   46.2830   33.5030   44.6830 C   0  0  0  0  0  0  0  0  0  0  0  0
   45.7030   33.8780   45.6690 O   0  0  0  0  0  0  0  0  0  0  0  0
   47.3340   32.7520   43.9840 C   0  0  0  0  0  0  0  0  0  0  0  0
   48.2290   33.2510   43.1190 C   0  0  0  0  0  0  0  0  0  0  0  0
   49.0450   32.3080   42.5280 C   0  0  0  0  0  0  0  0  0  0  0  0
   48.8730   30.9550   42.8770 N   0  0  0  0  0  0  0  0  0  0  0  0
   47.9750   30.5430   43.7380 C   0  0  0  0  0  0  0  0  0  0  0  0
   47.1400   31.4540   44.3470 N   0  0  0  0  0  0  0  0  0  0  0  0
   49.8230   32.5200   41.8040 H   0  0  0  0  0  0  0  0  0  0  0  0
   47.9630   29.4710   43.9070 H   0  0  0  0  0  0  0  0  0  0  0  0
   48.4750   34.6250   42.8590 C   0  0  0  0  0  0  0  0  0  0  0  0
   49.5300   35.1910   42.2150 C   0  0  0  0  0  0  0  0  0  0  0  0
   48.2970   35.1080   41.3570 C   0  0  0  0  0  0  0  0  0  0  0  0
   48.0390   35.3060   43.6140 H   0  0  0  0  0  0  0  0  0  0  0  0
   49.9260   36.2330   42.2800 H   0  0  0  0  0  0  0  0  0  0  0  0
   50.3660   34.5340   41.8320 H   0  0  0  0  0  0  0  0  0  0  0  0
   48.1940   34.2740   40.6500 H   0  0  0  0  0  0  0  0  0  0  0  0
   47.6660   36.0030   41.2520 H   0  0  0  0  0  0  0  0  0  0  0  0
  2  1  1  0  0  0  0
  2  3  1  0  0  0  0
  3 33  1  0  0  0  0
  4  3  2  0  0  0  0
  4  8  1  0  0  0  0
  5  4  1  0  0  0  0
  6  7  1  0  0  0  0
  6  5  2  0  0  0  0
  7  2  2  0  0  0  0
  9  5  1  0  0  0  0
 10  6  1  0  0  0  0
 11 12  1  0  0  0  0
 11  7  1  0  0  0  0
 12 13  1  0  0  0  0
 14 15  1  0  0  0  0
 14 12  2  0  0  0  0
 16 14  1  0  0  0  0
 17 16  2  0  0  0  0
 17 18  1  0  0  0  0
 18 11  2  0  0  0  0
 19 18  1  0  0  0  0
 20 17  1  0  0  0  0
 21 30  1  0  0  0  0
 21 20  1  0  0  0  0
 22 21  2  0  0  0  0
 23 22  1  0  0  0  0
 24 26  2  0  0  0  0
 24 22  1  0  0  0  0
 25 24  1  0  0  0  0
 26 28  1  0  0  0  0
 27 26  1  0  0  0  0
 28 29  1  0  0  0  0
 28 30  2  0  0  0  0
 30 31  1  0  0  0  0
 31 32  1  0  0  0  0
 31 16  1  0  0  0  0
 33 34  2  0  0  0  0
 35 40  1  0  0  0  0
 35 33  1  0  0  0  0
 36 35  2  0  0  0  0
 37 38  2  0  0  0  0
 37 36  1  0  0  0  0
 38 39  1  0  0  0  0
 39 42  1  0  0  0  0
 39 40  2  0  0  0  0
 41 37  1  0  0  0  0
 43 36  1  0  0  0  0
 43 46  1  0  0  0  0
 44 47  1  0  0  0  0
 44 43  1  0  0  0  0
 45 44  1  0  0  0  0
 45 43  1  0  0  0  0
 48 44  1  0  0  0  0
 49 45  1  0  0  0  0
 50 45  1  0  0  0  0
M  END
>  <minimizedAffinity>
-6.61583281

>  <minimizedRMSD>
0.861291289

$$$$
