
     RDKit          3D

 39 42  0  0  0  0  0  0  0  0999 V2000
   46.1401   35.2814   42.6991 C   0  0  0  0  0  0  0  0  0  0  0  0
   46.6907   34.1860   43.3435 C   0  0  0  0  0  0  0  0  0  0  0  0
   46.2034   33.8369   44.6081 C   0  0  0  0  0  0  0  0  0  0  0  0
   45.2055   34.5988   45.1428 N   0  0  0  0  0  0  0  0  0  0  0  0
   44.6982   35.6484   44.4928 C   0  0  0  0  0  0  0  0  0  0  0  0
   45.1624   35.9803   43.2891 N   0  0  0  0  0  0  0  0  0  0  0  0
   47.7070   33.4826   42.6985 O   0  0  0  0  0  0  0  0  0  0  0  0
   49.5465   35.3639   42.7922 O   0  0  0  0  0  0  0  0  0  0  0  0
   48.9777   34.3051   41.9001 P   0  0  1  0  0  0  0  0  0  0  0  0
   50.2209   33.2458   41.5105 O   0  0  0  0  0  0  0  0  0  0  0  0
   48.4112   35.0206   40.5029 O   0  0  0  0  0  0  0  0  0  0  0  0
   48.0496   34.4070   39.3593 C   0  0  0  0  0  0  0  0  0  0  0  0
   46.9538   33.7322   39.5113 O   0  0  0  0  0  0  0  0  0  0  0  0
   46.4802   35.5993   41.7130 H   0  0  0  0  0  0  0  0  0  0  0  0
   46.6708   32.9878   45.0428 H   0  0  0  0  0  0  0  0  0  0  0  0
   43.9113   36.1594   45.0395 H   0  0  0  0  0  0  0  0  0  0  0  0
   51.0696   33.7056   41.3861 H   0  0  0  0  0  0  0  0  0  0  0  0
   48.4912   34.2435   37.9445 C   0  0  0  0  0  0  0  0  0  0  0  0
   47.8879   34.8708   36.9173 C   0  0  0  0  0  0  0  0  0  0  0  0
   47.0443   35.5327   37.0384 H   0  0  0  0  0  0  0  0  0  0  0  0
   48.4197   34.6182   35.6474 C   0  0  0  0  0  0  0  0  0  0  0  0
   47.9062   35.1433   34.8367 H   0  0  0  0  0  0  0  0  0  0  0  0
   49.4844   33.7968   35.3924 C   0  0  0  0  0  0  0  0  0  0  0  0
   50.0727   33.1754   36.4653 C   0  0  0  0  0  0  0  0  0  0  0  0
   49.5822   33.4000   37.6965 C   0  0  0  0  0  0  0  0  0  0  0  0
   50.0650   32.8941   38.5470 H   0  0  0  0  0  0  0  0  0  0  0  0
   51.4626   32.0969   36.1778 S   0  0  0  0  0  0  0  0  0  0  0  0
   51.7401   32.1150   34.4284 C   0  0  0  0  0  0  0  0  0  0  0  0
   52.7703   31.3458   33.9971 C   0  0  0  0  0  0  0  0  0  0  0  0
   53.4024   30.7483   34.6410 H   0  0  0  0  0  0  0  0  0  0  0  0
   53.0706   31.2925   32.6332 C   0  0  0  0  0  0  0  0  0  0  0  0
   53.8814   30.6941   32.2417 H   0  0  0  0  0  0  0  0  0  0  0  0
   52.3069   32.0268   31.7647 C   0  0  0  0  0  0  0  0  0  0  0  0
   52.5277   31.9946   30.7117 H   0  0  0  0  0  0  0  0  0  0  0  0
   51.2834   32.7778   32.2889 C   0  0  0  0  0  0  0  0  0  0  0  0
   50.7159   33.3392   31.5307 H   0  0  0  0  0  0  0  0  0  0  0  0
   50.9399   32.8700   33.6229 C   0  0  0  0  0  0  0  0  0  0  0  0
   49.8764   33.6682   34.0389 N   0  0  0  0  0  0  0  0  0  0  0  0
   49.3688   34.1806   33.2858 H   0  0  0  0  0  0  0  0  0  0  0  0
  1  6  2  0
  1  2  1  0
  2  3  2  0
  3  4  1  0
  5  4  2  0
  6  5  1  0
  7  2  1  0
  9  7  1  1
  9  8  2  0
 10  9  1  0
 11  9  1  0
 12 13  2  0
 12 11  1  0
  1 14  1  0
  3 15  1  0
  5 16  1  0
 10 17  1  0
 18 19  2  0
 19 20  1  0
 19 21  1  0
 21 22  1  0
 21 23  2  0
 23 24  1  0
 24 25  2  0
 25 26  1  0
 24 27  1  0
 27 28  1  0
 28 29  2  0
 29 30  1  0
 29 31  1  0
 31 32  1  0
 31 33  2  0
 33 34  1  0
 33 35  1  0
 35 36  1  0
 35 37  2  0
 37 38  1  0
 38 39  1  0
 25 18  1  0
 37 28  1  0
 38 23  1  0
 12 18  1  0
M  ISO  8  14  14  15  14  16  14  17   3  20  16  22  16  26  16  30  16
M  ISO  4  32  16  34  16  36  16  39   5
M  END
>  <DihAtoms>  (1) 
12,11,17,18

>  <DihDeg>  (1) 
-0.2890424809283181

$$$$
