REMARK  Name = 
REMARK  3 active torsions:
REMARK  status: ('A' for Active; 'I' for Inactive)
REMARK    1  A    between atoms: C_2  and  C_12
REMARK    2  A    between atoms: C_3  and  C_7
REMARK    3  A    between atoms: C_12  and  C_19
REMARK                            x       y       z     vdW  Elec       q    Type
REMARK                         _______ _______ _______ _____ _____    ______ ____
ROOT
ATOM      1  C   UNL     1      46.271  33.642  40.871  0.00  0.00    +0.000 A 
ATOM      2  C   UNL     1      46.071  34.139  39.600  0.00  0.00    +0.000 A 
ATOM      3  H   UNL     1      46.309  35.185  39.364  0.00  0.00    +0.000 HD
ATOM      4  C   UNL     1      45.569  33.392  38.569  0.00  0.00    +0.000 A 
ATOM      5  H   UNL     1      45.431  33.827  37.599  0.00  0.00    +0.000 HD
ATOM      6  C   UNL     1      45.244  32.052  38.829  0.00  0.00    +0.000 A 
ATOM      7  C   UNL     1      45.443  31.552  40.095  0.00  0.00    +0.000 A 
ATOM      8  C   UNL     1      45.946  32.347  41.077  0.00  0.00    +0.000 A 
ATOM      9  H   UNL     1      46.132  32.026  42.095  0.00  0.00    +0.000 HD
ATOM     10  S   UNL     1      45.050  29.856  40.461  0.00  0.00    +0.000 S 
ATOM     11  C   UNL     1      44.321  29.187  38.978  0.00  0.00    +0.000 A 
ATOM     12  C   UNL     1      43.842  27.923  38.970  0.00  0.00    +0.000 A 
ATOM     13  H   UNL     1      43.926  27.340  39.899  0.00  0.00    +0.000 HD
ATOM     14  C   UNL     1      43.268  27.329  37.874  0.00  0.00    +0.000 A 
ATOM     15  H   UNL     1      42.910  26.315  37.940  0.00  0.00    +0.000 HD
ATOM     16  C   UNL     1      43.200  28.130  36.723  0.00  0.00    +0.000 A 
ATOM     17  H   UNL     1      42.756  27.694  35.844  0.00  0.00    +0.000 HD
ATOM     18  C   UNL     1      43.697  29.426  36.744  0.00  0.00    +0.000 A 
ATOM     19  H   UNL     1      43.590  29.939  35.810  0.00  0.00    +0.000 HD
ATOM     20  C   UNL     1      44.283  29.997  37.904  0.00  0.00    +0.000 A 
ATOM     21  N   UNL     1      44.690  31.320  37.766  0.00  0.00    +0.000 N 
ATOM     22  H   UNL     1      44.586  31.803  36.825  0.00  0.00    +0.000 HD
ENDROOT
BRANCH   1  23
ATOM     23  C   UNL     1      46.810  34.635  41.865  0.00  0.00    +0.000 C 
ATOM     24  O   UNL     1      47.893  35.323  41.695  0.00  0.00    +0.000 OA
BRANCH  23  26
ATOM     25  C   UNL     1      45.380  36.076  43.197  0.00  0.00    +0.000 A 
ATOM     26  C   UNL     1      46.121  34.879  43.083  0.00  0.00    +0.000 A 
ATOM     27  C   UNL     1      46.075  34.040  44.177  0.00  0.00    +0.000 A 
ATOM     28  N   UNL     1      45.366  34.346  45.279  0.00  0.00    +0.000 NA
ATOM     29  C   UNL     1      44.665  35.507  45.354  0.00  0.00    +0.000 A 
ATOM     30  N   UNL     1      44.681  36.363  44.303  0.00  0.00    +0.000 NA
ATOM     31  H   UNL     1      45.379  36.774  42.372  0.00  0.00    +0.000 HD
ATOM     32  H   UNL     1      44.125  35.658  46.291  0.00  0.00    +0.000 HD
BRANCH  27  33
ATOM     33  C   UNL     1      46.797  32.852  44.135  0.00  0.00    +0.000 A 
ATOM     34  C   UNL     1      47.742  32.328  43.279  0.00  0.00    +0.000 A 
ATOM     35  C   UNL     1      48.285  31.139  43.477  0.00  0.00    +0.000 A 
ATOM     36  C   UNL     1      47.878  30.422  44.583  0.00  0.00    +0.000 A 
ATOM     37  S   UNL     1      46.633  31.566  45.362  0.00  0.00    +0.000 S 
ATOM     38  H   UNL     1      48.203  32.749  42.419  0.00  0.00    +0.000 HD
ATOM     39  H   UNL     1      49.003  30.486  43.024  0.00  0.00    +0.000 HD
ATOM     40  H   UNL     1      48.009  29.496  45.132  0.00  0.00    +0.000 HD
ENDBRANCH  27  33
ENDBRANCH  23  26
ENDBRANCH   1  23
TORSDOF 3
