
     RDKit          3D

 40 44  0  0  0  0  0  0  0  0999 V2000
   45.3804   36.0756   43.1967 C   0  0  0  0  0  0  0  0  0  0  0  0
   46.1211   34.8786   43.0834 C   0  0  0  0  0  0  0  0  0  0  0  0
   46.0753   34.0399   44.1766 C   0  0  0  0  0  0  0  0  0  0  0  0
   45.3664   34.3464   45.2794 N   0  0  0  0  0  0  0  0  0  0  0  0
   44.6650   35.5069   45.3539 C   0  0  0  0  0  0  0  0  0  0  0  0
   44.6807   36.3634   44.3035 N   0  0  0  0  0  0  0  0  0  0  0  0
   46.7973   32.8516   44.1354 C   0  0  0  0  0  0  0  0  0  0  0  0
   47.7425   32.3282   43.2785 C   0  0  0  0  0  0  0  0  0  0  0  0
   48.2854   31.1393   43.4769 C   0  0  0  0  0  0  0  0  0  0  0  0
   47.8780   30.4221   44.5834 C   0  0  0  0  0  0  0  0  0  0  0  0
   46.6330   31.5664   45.3620 S   0  0  0  0  0  0  0  0  0  0  0  0
   46.8105   34.6349   41.8655 C   0  0  0  0  0  0  0  0  0  0  0  0
   47.8933   35.3226   41.6949 O   0  0  0  0  0  0  0  0  0  0  0  0
   45.3787   36.7743   42.3719 H   0  0  0  0  0  0  0  0  0  0  0  0
   44.1246   35.6581   46.2909 H   0  0  0  0  0  0  0  0  0  0  0  0
   48.2034   32.7494   42.4194 H   0  0  0  0  0  0  0  0  0  0  0  0
   49.0028   30.4864   43.0240 H   0  0  0  0  0  0  0  0  0  0  0  0
   48.0091   29.4956   45.1321 H   0  0  0  0  0  0  0  0  0  0  0  0
   46.2711   33.6423   40.8708 C   0  0  0  0  0  0  0  0  0  0  0  0
   46.3543   32.3216   41.2594 C   0  0  0  0  0  0  0  0  0  0  0  0
   46.7798   32.0515   42.2356 H   0  0  0  0  0  0  0  0  0  0  0  0
   45.9336   31.2784   40.4799 C   0  0  0  0  0  0  0  0  0  0  0  0
   46.0233   30.2692   40.8289 H   0  0  0  0  0  0  0  0  0  0  0  0
   45.3911   31.5783   39.2217 C   0  0  0  0  0  0  0  0  0  0  0  0
   45.3043   32.8944   38.8306 C   0  0  0  0  0  0  0  0  0  0  0  0
   45.7402   33.8862   39.6525 C   0  0  0  0  0  0  0  0  0  0  0  0
   45.7038   34.9431   39.4163 H   0  0  0  0  0  0  0  0  0  0  0  0
   44.6150   33.3148   37.2452 S   0  0  0  0  0  0  0  0  0  0  0  0
   44.2726   31.7674   36.4289 C   0  0  0  0  0  0  0  0  0  0  0  0
   43.8085   31.7594   35.1597 C   0  0  0  0  0  0  0  0  0  0  0  0
   43.6519   32.7304   34.6687 H   0  0  0  0  0  0  0  0  0  0  0  0
   43.5173   30.6157   34.4585 C   0  0  0  0  0  0  0  0  0  0  0  0
   43.1473   30.6866   33.4496 H   0  0  0  0  0  0  0  0  0  0  0  0
   43.7350   29.4142   35.1514 C   0  0  0  0  0  0  0  0  0  0  0  0
   43.5157   28.4980   34.6300 H   0  0  0  0  0  0  0  0  0  0  0  0
   44.2108   29.4364   36.4545 C   0  0  0  0  0  0  0  0  0  0  0  0
   44.3380   28.4612   36.8788 H   0  0  0  0  0  0  0  0  0  0  0  0
   44.4973   30.6463   37.1391 C   0  0  0  0  0  0  0  0  0  0  0  0
   45.0073   30.4879   38.4246 N   0  0  0  0  0  0  0  0  0  0  0  0
   45.1115   29.5102   38.8277 H   0  0  0  0  0  0  0  0  0  0  0  0
  1  6  2  0
  2  1  1  0
  2  3  2  0
  3  4  1  0
  4  5  2  0
  6  5  1  0
  7  3  1  0
  7 11  1  0
  8  9  1  0
  8  7  2  0
  9 10  2  0
 10 11  1  0
 12  2  1  0
 13 12  2  0
  1 14  1  0
  5 15  1  0
  8 16  1  0
  9 17  1  0
 10 18  1  0
 19 20  2  0
 20 21  1  0
 20 22  1  0
 22 23  1  0
 22 24  2  0
 24 25  1  0
 25 26  2  0
 26 27  1  0
 25 28  1  0
 28 29  1  0
 29 30  2  0
 30 31  1  0
 30 32  1  0
 32 33  1  0
 32 34  2  0
 34 35  1  0
 34 36  1  0
 36 37  1  0
 36 38  2  0
 38 39  1  0
 39 40  1  0
 26 19  1  0
 38 29  1  0
 39 24  1  0
 12 19  1  0
M  ISO  8  14  14  15  14  16  14  17  14  18  14  21  16  23  16  27  16
M  ISO  5  31  16  33  16  35  16  37  16  40   5
M  END
>  <DihAtoms>  (1) 
1,11,18,19

>  <DihDeg>  (1) 
19.611279885680464

$$$$
