
 OpenBabel03242523193D

 50 55  0  0  0  0  0  0  0  0999 V2000
   44.5200   31.8440   42.8210 Cl  0  0  0  0  0  0  0  0  0  0  0  0
   44.5750   33.6070   42.7440 C   0  0  0  0  0  0  0  0  0  0  0  0
   45.4040   34.2250   43.7020 C   0  0  0  0  0  0  0  0  0  0  0  0
   45.3750   35.6020   43.5530 C   0  0  0  0  0  0  0  0  0  0  0  0
   44.7080   36.3610   42.6710 C   0  0  0  0  0  0  0  0  0  0  0  0
   43.9280   35.6800   41.7780 C   0  0  0  0  0  0  0  0  0  0  0  0
   43.8480   34.3300   41.7960 C   0  0  0  0  0  0  0  0  0  0  0  0
   45.9490   36.2480   44.2510 H   0  0  0  0  0  0  0  0  0  0  0  0
   44.7130   37.4170   42.5850 H   0  0  0  0  0  0  0  0  0  0  0  0
   43.3260   36.1380   41.0010 H   0  0  0  0  0  0  0  0  0  0  0  0
   43.0270   33.5500   40.8680 C   0  0  0  0  0  0  0  0  0  0  0  0
   41.6700   33.5190   41.1950 C   0  0  0  0  0  0  0  0  0  0  0  0
   41.2750   34.0310   42.0620 H   0  0  0  0  0  0  0  0  0  0  0  0
   40.7950   32.8020   40.3780 C   0  0  0  0  0  0  0  0  0  0  0  0
   39.7400   32.8130   40.6880 H   0  0  0  0  0  0  0  0  0  0  0  0
   41.1850   32.1110   39.2520 C   0  0  0  0  0  0  0  0  0  0  0  0
   42.5260   32.1770   38.9780 C   0  0  0  0  0  0  0  0  0  0  0  0
   43.4260   32.8630   39.7420 C   0  0  0  0  0  0  0  0  0  0  0  0
   44.4670   32.9140   39.5330 H   0  0  0  0  0  0  0  0  0  0  0  0
   43.1340   31.3190   37.5420 S   0  0  0  0  0  0  0  0  0  0  0  0
   41.7280   30.5370   36.7790 C   0  0  0  0  0  0  0  0  0  0  0  0
   41.8920   29.7980   35.6400 C   0  0  0  0  0  0  0  0  0  0  0  0
   42.9030   29.7060   35.2260 H   0  0  0  0  0  0  0  0  0  0  0  0
   40.8460   29.1710   35.0050 C   0  0  0  0  0  0  0  0  0  0  0  0
   41.0820   28.6100   34.1110 H   0  0  0  0  0  0  0  0  0  0  0  0
   39.5920   29.3130   35.5600 C   0  0  0  0  0  0  0  0  0  0  0  0
   38.7690   28.8390   35.0880 H   0  0  0  0  0  0  0  0  0  0  0  0
   39.4700   30.0670   36.7080 C   0  0  0  0  0  0  0  0  0  0  0  0
   38.4370   30.1280   37.0840 H   0  0  0  0  0  0  0  0  0  0  0  0
   40.5000   30.7050   37.3660 C   0  0  0  0  0  0  0  0  0  0  0  0
   40.1820   31.4320   38.5250 N   0  0  0  0  0  0  0  0  0  0  0  0
   39.1960   31.4680   38.8520 H   0  0  0  0  0  0  0  0  0  0  0  0
   46.2300   33.5450   44.7410 C   0  0  0  0  0  0  0  0  0  0  0  0
   45.6370   33.9390   45.7130 O   0  0  0  0  0  0  0  0  0  0  0  0
   47.2900   32.7810   44.0700 C   0  0  0  0  0  0  0  0  0  0  0  0
   48.1630   33.2530   43.1680 C   0  0  0  0  0  0  0  0  0  0  0  0
   48.9930   32.2980   42.6180 C   0  0  0  0  0  0  0  0  0  0  0  0
   48.8580   30.9620   43.0420 N   0  0  0  0  0  0  0  0  0  0  0  0
   47.9800   30.5770   43.9350 C   0  0  0  0  0  0  0  0  0  0  0  0
   47.1310   31.5000   44.5050 N   0  0  0  0  0  0  0  0  0  0  0  0
   49.7580   32.4890   41.8730 H   0  0  0  0  0  0  0  0  0  0  0  0
   47.9950   29.5160   44.1610 H   0  0  0  0  0  0  0  0  0  0  0  0
   48.3730   34.6160   42.8310 C   0  0  0  0  0  0  0  0  0  0  0  0
   49.4030   35.1700   42.1370 C   0  0  0  0  0  0  0  0  0  0  0  0
   48.1560   35.0150   41.3100 C   0  0  0  0  0  0  0  0  0  0  0  0
   47.9380   35.3260   43.5580 H   0  0  0  0  0  0  0  0  0  0  0  0
   49.7770   36.2210   42.1390 H   0  0  0  0  0  0  0  0  0  0  0  0
   50.2460   34.5110   41.7720 H   0  0  0  0  0  0  0  0  0  0  0  0
   48.0570   34.1430   40.6500 H   0  0  0  0  0  0  0  0  0  0  0  0
   47.5030   35.8900   41.1710 H   0  0  0  0  0  0  0  0  0  0  0  0
  2  1  1  0  0  0  0
  2  3  1  0  0  0  0
  3 33  1  0  0  0  0
  4  3  2  0  0  0  0
  4  8  1  0  0  0  0
  5  4  1  0  0  0  0
  6  7  1  0  0  0  0
  6  5  2  0  0  0  0
  7  2  2  0  0  0  0
  9  5  1  0  0  0  0
 10  6  1  0  0  0  0
 11 12  1  0  0  0  0
 11  7  1  0  0  0  0
 12 13  1  0  0  0  0
 14 15  1  0  0  0  0
 14 12  2  0  0  0  0
 16 14  1  0  0  0  0
 17 16  2  0  0  0  0
 17 18  1  0  0  0  0
 18 11  2  0  0  0  0
 19 18  1  0  0  0  0
 20 17  1  0  0  0  0
 21 30  1  0  0  0  0
 21 20  1  0  0  0  0
 22 21  2  0  0  0  0
 23 22  1  0  0  0  0
 24 26  2  0  0  0  0
 24 22  1  0  0  0  0
 25 24  1  0  0  0  0
 26 28  1  0  0  0  0
 27 26  1  0  0  0  0
 28 29  1  0  0  0  0
 28 30  2  0  0  0  0
 30 31  1  0  0  0  0
 31 32  1  0  0  0  0
 31 16  1  0  0  0  0
 33 34  2  0  0  0  0
 35 40  1  0  0  0  0
 35 33  1  0  0  0  0
 36 35  2  0  0  0  0
 37 38  2  0  0  0  0
 37 36  1  0  0  0  0
 38 39  1  0  0  0  0
 39 42  1  0  0  0  0
 39 40  2  0  0  0  0
 41 37  1  0  0  0  0
 43 36  1  0  0  0  0
 43 46  1  0  0  0  0
 44 47  1  0  0  0  0
 44 43  1  0  0  0  0
 45 44  1  0  0  0  0
 45 43  1  0  0  0  0
 48 44  1  0  0  0  0
 49 45  1  0  0  0  0
 50 45  1  0  0  0  0
M  END
>  <minimizedAffinity>
-6.60239553

>  <minimizedRMSD>
0.541574299

$$$$
