
     RDKit          3D

 36 39  0  0  0  0  0  0  0  0999 V2000
   44.5977   35.9289   44.4246 C   0  0  0  0  0  0  0  0  0  0  0  0
   45.3323   35.8560   43.2209 C   0  0  0  0  0  0  0  0  0  0  0  0
   46.2502   34.8187   43.1423 C   0  0  0  0  0  0  0  0  0  0  0  0
   46.3490   34.0025   44.1953 N   0  0  0  0  0  0  0  0  0  0  0  0
   45.6595   34.0639   45.3346 C   0  0  0  0  0  0  0  0  0  0  0  0
   44.7578   35.0646   45.4386 N   0  0  0  0  0  0  0  0  0  0  0  0
   47.0320   34.7212   41.9032 C   0  0  0  0  0  0  0  0  0  0  0  0
   47.8453   33.6009   41.9458 F   0  0  0  0  0  0  0  0  0  0  0  0
   47.9067   35.8213   41.9105 F   0  0  0  0  0  0  0  0  0  0  0  0
   46.2685   34.6836   40.7844 F   0  0  0  0  0  0  0  0  0  0  0  0
   45.8249   33.1509   46.4486 C   0  0  0  0  0  0  0  0  0  0  0  0
   45.0299   33.1856   47.4332 O   0  0  0  0  0  0  0  0  0  0  0  0
   43.8751   36.7327   44.5126 H   0  0  0  0  0  0  0  0  0  0  0  0
   45.2126   36.5419   42.4089 H   0  0  0  0  0  0  0  0  0  0  0  0
   46.8732   32.1473   46.5470 C   0  0  0  0  0  0  0  0  0  0  0  0
   46.8633   30.9988   45.7864 C   0  0  0  0  0  0  0  0  0  0  0  0
   46.0930   30.7638   45.0705 H   0  0  0  0  0  0  0  0  0  0  0  0
   47.8560   30.0367   45.8657 C   0  0  0  0  0  0  0  0  0  0  0  0
   47.7941   29.1346   45.2340 H   0  0  0  0  0  0  0  0  0  0  0  0
   48.9397   30.1715   46.7283 C   0  0  0  0  0  0  0  0  0  0  0  0
   48.9231   31.3267   47.4740 C   0  0  0  0  0  0  0  0  0  0  0  0
   47.9543   32.2584   47.3935 C   0  0  0  0  0  0  0  0  0  0  0  0
   47.9813   33.1651   48.0161 H   0  0  0  0  0  0  0  0  0  0  0  0
   50.2584   31.6191   48.6177 S   0  0  0  0  0  0  0  0  0  0  0  0
   51.3521   30.2245   48.4436 C   0  0  0  0  0  0  0  0  0  0  0  0
   52.4693   30.2388   49.2132 C   0  0  0  0  0  0  0  0  0  0  0  0
   52.6929   31.0499   49.8986 H   0  0  0  0  0  0  0  0  0  0  0  0
   53.3340   29.1550   49.0904 C   0  0  0  0  0  0  0  0  0  0  0  0
   54.2289   29.1332   49.6891 H   0  0  0  0  0  0  0  0  0  0  0  0
   53.1029   28.0900   48.2352 C   0  0  0  0  0  0  0  0  0  0  0  0
   53.7677   27.2548   48.1453 H   0  0  0  0  0  0  0  0  0  0  0  0
   51.9318   28.1617   47.4859 C   0  0  0  0  0  0  0  0  0  0  0  0
   51.7678   27.3058   46.8135 H   0  0  0  0  0  0  0  0  0  0  0  0
   51.0471   29.2143   47.5734 C   0  0  0  0  0  0  0  0  0  0  0  0
   49.9187   29.1642   46.7540 N   0  0  0  0  0  0  0  0  0  0  0  0
   49.7830   28.3451   46.1232 H   0  0  0  0  0  0  0  0  0  0  0  0
  1  6  2  0
  2  1  1  0
  3  2  2  0
  3  4  1  0
  4  5  2  0
  5  6  1  0
  5 11  1  0
  7  8  1  0
  7  3  1  0
  9  7  1  0
 10  7  1  0
 11 12  2  0
  1 13  1  0
  2 14  1  0
 15 16  2  0
 16 17  1  0
 16 18  1  0
 18 19  1  0
 18 20  2  0
 20 21  1  0
 21 22  2  0
 22 23  1  0
 21 24  1  0
 24 25  1  0
 25 26  2  0
 26 27  1  0
 26 28  1  0
 28 29  1  0
 28 30  2  0
 30 31  1  0
 30 32  1  0
 32 33  1  0
 32 34  2  0
 34 35  1  0
 35 36  1  0
 22 15  1  0
 34 25  1  0
 35 20  1  0
 11 15  1  0
M  ISO  8  13  14  14  14  17  16  19  16  23  16  27  16  29  16  31  16
M  ISO  2  33  16  36   5
M  END
>  <DihAtoms>  (1) 
4,10,14,15

>  <DihDeg>  (1) 
16.95244225262003

$$$$
