
     RDKit          3D

 36 39  0  0  0  0  0  0  0  0999 V2000
   44.5977   35.9289   44.4246 C   0  0  0  0  0  0  0  0  0  0  0  0
   45.3323   35.8560   43.2209 C   0  0  0  0  0  0  0  0  0  0  0  0
   46.2502   34.8187   43.1423 C   0  0  0  0  0  0  0  0  0  0  0  0
   46.3490   34.0025   44.1953 N   0  0  0  0  0  0  0  0  0  0  0  0
   45.6595   34.0639   45.3346 C   0  0  0  0  0  0  0  0  0  0  0  0
   44.7578   35.0646   45.4386 N   0  0  0  0  0  0  0  0  0  0  0  0
   47.0320   34.7212   41.9032 C   0  0  0  0  0  0  0  0  0  0  0  0
   47.8453   33.6009   41.9458 F   0  0  0  0  0  0  0  0  0  0  0  0
   47.9067   35.8213   41.9105 F   0  0  0  0  0  0  0  0  0  0  0  0
   46.2685   34.6836   40.7844 F   0  0  0  0  0  0  0  0  0  0  0  0
   45.8249   33.1509   46.4486 C   0  0  0  0  0  0  0  0  0  0  0  0
   45.0299   33.1856   47.4332 O   0  0  0  0  0  0  0  0  0  0  0  0
   43.8751   36.7327   44.5126 H   0  0  0  0  0  0  0  0  0  0  0  0
   45.2126   36.5419   42.4089 H   0  0  0  0  0  0  0  0  0  0  0  0
   46.8732   32.1473   46.5470 C   0  0  0  0  0  0  0  0  0  0  0  0
   47.8445   32.0036   45.5808 C   0  0  0  0  0  0  0  0  0  0  0  0
   47.9018   32.6166   44.6964 H   0  0  0  0  0  0  0  0  0  0  0  0
   48.8511   31.0562   45.6626 C   0  0  0  0  0  0  0  0  0  0  0  0
   49.6009   30.9848   44.8567 H   0  0  0  0  0  0  0  0  0  0  0  0
   48.9466   30.1798   46.7394 C   0  0  0  0  0  0  0  0  0  0  0  0
   47.9647   30.3465   47.6874 C   0  0  0  0  0  0  0  0  0  0  0  0
   46.9875   31.2689   47.6020 C   0  0  0  0  0  0  0  0  0  0  0  0
   46.2190   31.3604   48.3841 H   0  0  0  0  0  0  0  0  0  0  0  0
   47.9766   29.2847   49.1189 S   0  0  0  0  0  0  0  0  0  0  0  0
   49.3954   28.2273   48.9191 C   0  0  0  0  0  0  0  0  0  0  0  0
   49.6233   27.3350   49.9153 C   0  0  0  0  0  0  0  0  0  0  0  0
   48.9834   27.2624   50.7887 H   0  0  0  0  0  0  0  0  0  0  0  0
   50.7277   26.4996   49.7736 C   0  0  0  0  0  0  0  0  0  0  0  0
   50.9359   25.7775   50.5449 H   0  0  0  0  0  0  0  0  0  0  0  0
   51.5801   26.5432   48.6825 C   0  0  0  0  0  0  0  0  0  0  0  0
   52.4271   25.8965   48.5734 H   0  0  0  0  0  0  0  0  0  0  0  0
   51.2674   27.4897   47.7107 C   0  0  0  0  0  0  0  0  0  0  0  0
   51.9569   27.5072   46.8529 H   0  0  0  0  0  0  0  0  0  0  0  0
   50.1859   28.3378   47.8083 C   0  0  0  0  0  0  0  0  0  0  0  0
   49.9977   29.2481   46.7676 N   0  0  0  0  0  0  0  0  0  0  0  0
   50.6633   29.2491   45.9649 H   0  0  0  0  0  0  0  0  0  0  0  0
  1  6  2  0
  2  1  1  0
  3  2  2  0
  3  4  1  0
  4  5  2  0
  5  6  1  0
  5 11  1  0
  7  8  1  0
  7  3  1  0
  9  7  1  0
 10  7  1  0
 11 12  2  0
  1 13  1  0
  2 14  1  0
 15 16  2  0
 16 17  1  0
 16 18  1  0
 18 19  1  0
 18 20  2  0
 20 21  1  0
 21 22  2  0
 22 23  1  0
 21 24  1  0
 24 25  1  0
 25 26  2  0
 26 27  1  0
 26 28  1  0
 28 29  1  0
 28 30  2  0
 30 31  1  0
 30 32  1  0
 32 33  1  0
 32 34  2  0
 34 35  1  0
 35 36  1  0
 22 15  1  0
 34 25  1  0
 35 20  1  0
 11 15  1  0
M  ISO  8  13  14  14  14  17  16  19  16  23  16  27  16  29  16  31  16
M  ISO  2  33  16  36   5
M  END
>  <DihAtoms>  (1) 
4,10,14,15

>  <DihDeg>  (1) 
16.95244225262003

$$$$
