REMARK  Name = 
REMARK  3 active torsions:
REMARK  status: ('A' for Active; 'I' for Inactive)
REMARK    1  A    between atoms: C_2  and  C_12
REMARK    2  A    between atoms: C_3  and  C_7
REMARK    3  A    between atoms: C_12  and  C_19
REMARK                            x       y       z     vdW  Elec       q    Type
REMARK                         _______ _______ _______ _____ _____    ______ ____
ROOT
ATOM      1  C   UNL     1      46.271  33.642  40.871  0.00  0.00    +0.000 A 
ATOM      2  C   UNL     1      44.933  33.341  41.013  0.00  0.00    +0.000 A 
ATOM      3  H   UNL     1      44.332  33.818  41.800  0.00  0.00    +0.000 HD
ATOM      4  C   UNL     1      44.272  32.447  40.215  0.00  0.00    +0.000 A 
ATOM      5  H   UNL     1      43.231  32.247  40.369  0.00  0.00    +0.000 HD
ATOM      6  C   UNL     1      45.003  31.809  39.202  0.00  0.00    +0.000 A 
ATOM      7  C   UNL     1      46.338  32.107  39.055  0.00  0.00    +0.000 A 
ATOM      8  C   UNL     1      46.937  33.006  39.882  0.00  0.00    +0.000 A 
ATOM      9  H   UNL     1      47.980  33.294  39.828  0.00  0.00    +0.000 HD
ATOM     10  S   UNL     1      47.297  31.324  37.778  0.00  0.00    +0.000 S 
ATOM     11  C   UNL     1      46.210  30.148  36.995  0.00  0.00    +0.000 A 
ATOM     12  C   UNL     1      46.679  29.333  36.024  0.00  0.00    +0.000 A 
ATOM     13  H   UNL     1      47.738  29.432  35.744  0.00  0.00    +0.000 HD
ATOM     14  C   UNL     1      45.912  28.403  35.368  0.00  0.00    +0.000 A 
ATOM     15  H   UNL     1      46.355  27.790  34.601  0.00  0.00    +0.000 HD
ATOM     16  C   UNL     1      44.569  28.338  35.773  0.00  0.00    +0.000 A 
ATOM     17  H   UNL     1      43.940  27.619  35.278  0.00  0.00    +0.000 HD
ATOM     18  C   UNL     1      44.100  29.181  36.770  0.00  0.00    +0.000 A 
ATOM     19  H   UNL     1      43.062  29.040  36.994  0.00  0.00    +0.000 HD
ATOM     20  C   UNL     1      44.933  30.129  37.419  0.00  0.00    +0.000 A 
ATOM     21  N   UNL     1      44.313  30.864  38.425  0.00  0.00    +0.000 N 
ATOM     22  H   UNL     1      43.279  30.715  38.619  0.00  0.00    +0.000 HD
ENDROOT
BRANCH   1  23
ATOM     23  C   UNL     1      46.810  34.635  41.865  0.00  0.00    +0.000 C 
ATOM     24  O   UNL     1      47.893  35.323  41.695  0.00  0.00    +0.000 OA
BRANCH  23  26
ATOM     25  C   UNL     1      45.380  36.076  43.197  0.00  0.00    +0.000 A 
ATOM     26  C   UNL     1      46.121  34.879  43.083  0.00  0.00    +0.000 A 
ATOM     27  C   UNL     1      46.075  34.040  44.177  0.00  0.00    +0.000 A 
ATOM     28  N   UNL     1      45.366  34.346  45.279  0.00  0.00    +0.000 NA
ATOM     29  C   UNL     1      44.665  35.507  45.354  0.00  0.00    +0.000 A 
ATOM     30  N   UNL     1      44.681  36.363  44.303  0.00  0.00    +0.000 NA
ATOM     31  H   UNL     1      45.379  36.774  42.372  0.00  0.00    +0.000 HD
ATOM     32  H   UNL     1      44.125  35.658  46.291  0.00  0.00    +0.000 HD
BRANCH  27  33
ATOM     33  C   UNL     1      46.797  32.852  44.135  0.00  0.00    +0.000 A 
ATOM     34  C   UNL     1      47.742  32.328  43.279  0.00  0.00    +0.000 A 
ATOM     35  C   UNL     1      48.285  31.139  43.477  0.00  0.00    +0.000 A 
ATOM     36  C   UNL     1      47.878  30.422  44.583  0.00  0.00    +0.000 A 
ATOM     37  S   UNL     1      46.633  31.566  45.362  0.00  0.00    +0.000 S 
ATOM     38  H   UNL     1      48.203  32.749  42.419  0.00  0.00    +0.000 HD
ATOM     39  H   UNL     1      49.003  30.486  43.024  0.00  0.00    +0.000 HD
ATOM     40  H   UNL     1      48.009  29.496  45.132  0.00  0.00    +0.000 HD
ENDBRANCH  27  33
ENDBRANCH  23  26
ENDBRANCH   1  23
TORSDOF 3
