
 OpenBabel03252502563D

 50 54  0  0  0  0  0  0  0  0999 V2000
   44.0770   26.0220   47.1260 O   0  0  0  0  0  0  0  0  0  0  0  0
   44.8780   27.0830   47.8680 P   0  0  2  0  0  0  0  0  0  0  0  0
   44.5330   27.0000   49.5110 O   0  0  0  0  0  0  0  0  0  0  0  0
   45.3390   27.0210   50.0910 H   0  0  0  0  0  0  0  0  0  0  0  0
   44.3450   28.6070   47.3180 O   0  0  0  0  0  0  0  0  0  0  0  0
   45.5580   29.8700   44.7700 Br  0  0  0  0  0  0  0  0  0  0  0  0
   45.6530   30.5170   46.5940 C   0  0  0  0  0  0  0  0  0  0  0  0
   46.3440   31.6810   46.7820 C   0  0  0  0  0  0  0  0  0  0  0  0
   46.3900   32.1150   48.1090 C   0  0  0  0  0  0  0  0  0  0  0  0
   45.7940   31.4350   49.1520 C   0  0  0  0  0  0  0  0  0  0  0  0
   45.1180   30.2720   48.8770 C   0  0  0  0  0  0  0  0  0  0  0  0
   45.0360   29.7920   47.5860 C   0  0  0  0  0  0  0  0  0  0  0  0
   46.9210   33.0290   48.3360 H   0  0  0  0  0  0  0  0  0  0  0  0
   45.8760   31.8380   50.1540 H   0  0  0  0  0  0  0  0  0  0  0  0
   44.6540   29.7460   49.6970 H   0  0  0  0  0  0  0  0  0  0  0  0
   47.0170   32.4880   45.7610 C   0  0  0  0  0  0  0  0  0  0  0  0
   48.0080   32.8740   46.0930 H   0  0  0  0  0  0  0  0  0  0  0  0
   47.2300   31.8040   44.8950 H   0  0  0  0  0  0  0  0  0  0  0  0
   44.5430   35.2700   45.4950 C   0  0  0  0  0  0  0  0  0  0  0  0
   44.7520   35.7070   44.1850 C   0  0  0  0  0  0  0  0  0  0  0  0
   45.7140   35.0590   43.4270 C   0  0  0  0  0  0  0  0  0  0  0  0
   46.4210   34.0320   43.9660 N   0  0  0  0  0  0  0  0  0  0  0  0
   46.1960   33.6220   45.2540 C   0  0  0  0  0  0  0  0  0  0  0  0
   45.2530   34.2620   45.9850 N   0  0  0  0  0  0  0  0  0  0  0  0
   43.8350   35.6770   46.1920 H   0  0  0  0  0  0  0  0  0  0  0  0
   44.1350   36.5340   43.8550 H   0  0  0  0  0  0  0  0  0  0  0  0
   45.8620   35.4110   42.4170 H   0  0  0  0  0  0  0  0  0  0  0  0
   46.5090   26.8260   47.5700 O   0  0  0  0  0  0  0  0  0  0  0  0
   47.2120   25.6510   47.7450 C   0  0  0  0  0  0  0  0  0  0  0  0
   47.1490   24.6570   46.7890 C   0  0  0  0  0  0  0  0  0  0  0  0
   46.5400   24.8390   45.9260 H   0  0  0  0  0  0  0  0  0  0  0  0
   47.8630   23.4950   46.9960 C   0  0  0  0  0  0  0  0  0  0  0  0
   47.7470   22.7790   46.1910 H   0  0  0  0  0  0  0  0  0  0  0  0
   48.6530   23.2310   48.0940 C   0  0  0  0  0  0  0  0  0  0  0  0
   48.6670   24.2630   49.0000 C   0  0  0  0  0  0  0  0  0  0  0  0
   47.9920   25.4190   48.8550 C   0  0  0  0  0  0  0  0  0  0  0  0
   48.0140   26.2310   49.5840 H   0  0  0  0  0  0  0  0  0  0  0  0
   49.6370   24.1030   50.4870 S   0  0  0  0  0  0  0  0  0  0  0  0
   50.3970   22.4960   50.3900 C   0  0  0  0  0  0  0  0  0  0  0  0
   51.2210   22.0260   51.3700 C   0  0  0  0  0  0  0  0  0  0  0  0
   51.4190   22.6630   52.2480 H   0  0  0  0  0  0  0  0  0  0  0  0
   51.8630   20.7890   51.3900 C   0  0  0  0  0  0  0  0  0  0  0  0
   52.4920   20.5000   52.1990 H   0  0  0  0  0  0  0  0  0  0  0  0
   51.6030   20.0030   50.2830 C   0  0  0  0  0  0  0  0  0  0  0  0
   52.0740   19.0240   50.2380 H   0  0  0  0  0  0  0  0  0  0  0  0
   50.7690   20.4600   49.2760 C   0  0  0  0  0  0  0  0  0  0  0  0
   50.6220   19.7630   48.4350 H   0  0  0  0  0  0  0  0  0  0  0  0
   50.1580   21.6950   49.3050 C   0  0  0  0  0  0  0  0  0  0  0  0
   49.3490   22.0050   48.2150 N   0  0  0  0  0  0  0  0  0  0  0  0
   49.2140   21.3430   47.4220 H   0  0  0  0  0  0  0  0  0  0  0  0
  2  1  2  6  0  0  0
  2  3  1  0  0  0  0
  3  4  1  0  0  0  0
  5 12  1  0  0  0  0
  5  2  1  0  0  0  0
  6  7  1  0  0  0  0
  7  8  2  0  0  0  0
  7 12  1  0  0  0  0
  8  9  1  0  0  0  0
  9 13  1  0  0  0  0
  9 10  2  0  0  0  0
 10 14  1  0  0  0  0
 11 10  1  0  0  0  0
 11 15  1  0  0  0  0
 12 11  2  0  0  0  0
 16 17  1  0  0  0  0
 16  8  1  0  0  0  0
 18 16  1  0  0  0  0
 19 24  1  0  0  0  0
 19 25  1  0  0  0  0
 20 19  2  0  0  0  0
 21 22  2  0  0  0  0
 21 20  1  0  0  0  0
 22 23  1  0  0  0  0
 23 16  1  0  0  0  0
 23 24  2  0  0  0  0
 26 20  1  0  0  0  0
 27 21  1  0  0  0  0
 28 29  1  0  0  0  0
 28  2  1  0  0  0  0
 29 36  1  0  0  0  0
 30 32  1  0  0  0  0
 30 29  2  0  0  0  0
 31 30  1  0  0  0  0
 32 34  2  0  0  0  0
 33 32  1  0  0  0  0
 34 49  1  0  0  0  0
 34 35  1  0  0  0  0
 35 38  1  0  0  0  0
 36 35  2  0  0  0  0
 36 37  1  0  0  0  0
 39 38  1  0  0  0  0
 39 40  1  0  0  0  0
 40 42  2  0  0  0  0
 40 41  1  0  0  0  0
 42 43  1  0  0  0  0
 44 42  1  0  0  0  0
 45 44  1  0  0  0  0
 46 48  1  0  0  0  0
 46 44  2  0  0  0  0
 47 46  1  0  0  0  0
 48 39  2  0  0  0  0
 49 48  1  0  0  0  0
 50 49  1  0  0  0  0
M  END
>  <minimizedAffinity>
-6.04947615

>  <minimizedRMSD>
2.75390387

$$$$
