
 OpenBabel03252502253D

 47 51  0  0  1  0  0  0  0  0999 V2000
   38.9750   25.1660   41.5940 N   0  0  0  0  0  0  0  0  0  0  0  0
   40.3870   25.3800   41.8540 C   0  0  0  0  0  0  0  0  0  0  0  0
   40.4750   25.3250   43.3950 C   0  0  0  0  0  0  0  0  0  0  0  0
   39.7630   26.5300   43.9550 C   0  0  0  0  0  0  0  0  0  0  0  0
   38.4460   26.8030   43.3330 C   0  0  0  0  0  0  0  0  0  0  0  0
   37.9330   25.7680   42.3850 C   0  0  1  0  0  0  0  0  0  0  0  0
   40.6930   26.3890   41.5120 H   0  0  0  0  0  0  0  0  0  0  0  0
   40.9720   24.5610   41.4110 H   0  0  0  0  0  0  0  0  0  0  0  0
   41.5310   25.3460   43.6840 H   0  0  0  0  0  0  0  0  0  0  0  0
   39.9340   24.4010   43.6970 H   0  0  0  0  0  0  0  0  0  0  0  0
   40.4380   27.4040   43.7770 H   0  0  0  0  0  0  0  0  0  0  0  0
   39.7230   26.4280   45.0620 H   0  0  0  0  0  0  0  0  0  0  0  0
   38.4140   27.8060   42.8370 H   0  0  0  0  0  0  0  0  0  0  0  0
   37.6930   26.8820   44.1510 H   0  0  0  0  0  0  0  0  0  0  0  0
   37.4340   24.9410   42.9230 H   0  0  0  0  0  0  0  0  0  0  0  0
   37.4360   22.3810   39.6140 C   0  0  0  0  0  0  0  0  0  0  0  0
   37.7960   23.1450   40.7310 C   0  0  0  0  0  0  0  0  0  0  0  0
   38.5600   24.3200   40.5090 C   0  0  0  0  0  0  0  0  0  0  0  0
   38.8920   24.6280   39.2310 N   0  0  0  0  0  0  0  0  0  0  0  0
   38.5230   23.8620   38.1770 C   0  0  0  0  0  0  0  0  0  0  0  0
   37.7930   22.7380   38.3800 N   0  0  0  0  0  0  0  0  0  0  0  0
   36.8580   21.5170   39.9250 H   0  0  0  0  0  0  0  0  0  0  0  0
   37.5500   22.9300   41.7570 H   0  0  0  0  0  0  0  0  0  0  0  0
   38.7910   24.1170   37.1700 H   0  0  0  0  0  0  0  0  0  0  0  0
   37.0080   26.3760   41.5380 O   0  0  0  0  0  0  0  0  0  0  0  0
   36.8770   27.7270   41.2800 C   0  0  0  0  0  0  0  0  0  0  0  0
   35.7390   28.4850   41.1120 C   0  0  0  0  0  0  0  0  0  0  0  0
   34.8270   27.9450   41.1960 H   0  0  0  0  0  0  0  0  0  0  0  0
   35.8610   29.8350   40.8590 C   0  0  0  0  0  0  0  0  0  0  0  0
   34.8920   30.3430   40.7430 H   0  0  0  0  0  0  0  0  0  0  0  0
   37.0580   30.5110   40.7560 C   0  0  0  0  0  0  0  0  0  0  0  0
   38.1900   29.7540   40.9230 C   0  0  0  0  0  0  0  0  0  0  0  0
   38.0910   28.4150   41.1740 C   0  0  0  0  0  0  0  0  0  0  0  0
   39.0500   27.8940   41.2930 H   0  0  0  0  0  0  0  0  0  0  0  0
   39.7730   30.5640   40.8020 S   0  0  0  0  0  0  0  0  0  0  0  0
   39.4310   32.2710   40.4720 C   0  0  0  0  0  0  0  0  0  0  0  0
   40.5170   33.0850   40.3390 C   0  0  0  0  0  0  0  0  0  0  0  0
   41.5250   32.7400   40.4260 H   0  0  0  0  0  0  0  0  0  0  0  0
   40.3370   34.4300   40.0810 C   0  0  0  0  0  0  0  0  0  0  0  0
   41.1260   35.1590   39.9590 H   0  0  0  0  0  0  0  0  0  0  0  0
   39.0480   34.9090   39.9630 C   0  0  0  0  0  0  0  0  0  0  0  0
   38.8700   35.9570   39.7620 H   0  0  0  0  0  0  0  0  0  0  0  0
   37.9940   34.0300   40.1090 C   0  0  0  0  0  0  0  0  0  0  0  0
   36.9970   34.4770   40.0030 H   0  0  0  0  0  0  0  0  0  0  0  0
   38.1260   32.6810   40.3670 C   0  0  0  0  0  0  0  0  0  0  0  0
   36.9740   31.8940   40.4920 N   0  0  0  0  0  0  0  0  0  0  0  0
   36.0500   32.3610   40.3850 H   0  0  0  0  0  0  0  0  0  0  0  0
  1  2  1  0  0  0  0
  1  6  1  0  0  0  0
  2  3  1  0  0  0  0
  3  9  1  0  0  0  0
  3 10  1  0  0  0  0
  3  4  1  0  0  0  0
  4 12  1  0  0  0  0
  5  4  1  0  0  0  0
  5 14  1  0  0  0  0
  6 15  1  1  0  0  0
  6  5  1  0  0  0  0
  7  2  1  0  0  0  0
  8  2  1  0  0  0  0
 11  4  1  0  0  0  0
 13  5  1  0  0  0  0
 16 22  1  0  0  0  0
 16 17  1  0  0  0  0
 17 23  1  0  0  0  0
 18 17  2  0  0  0  0
 18  1  1  0  0  0  0
 19 18  1  0  0  0  0
 20 21  1  0  0  0  0
 20 19  2  0  0  0  0
 21 16  2  0  0  0  0
 24 20  1  0  0  0  0
 25  6  1  0  0  0  0
 26 25  1  0  0  0  0
 27 28  1  0  0  0  0
 27 26  2  0  0  0  0
 29 27  1  0  0  0  0
 30 29  1  0  0  0  0
 31 29  2  0  0  0  0
 31 32  1  0  0  0  0
 32 33  2  0  0  0  0
 33 26  1  0  0  0  0
 33 34  1  0  0  0  0
 35 32  1  0  0  0  0
 36 35  1  0  0  0  0
 37 38  1  0  0  0  0
 37 36  2  0  0  0  0
 39 37  1  0  0  0  0
 40 39  1  0  0  0  0
 41 39  2  0  0  0  0
 41 43  1  0  0  0  0
 42 41  1  0  0  0  0
 43 45  2  0  0  0  0
 44 43  1  0  0  0  0
 45 36  1  0  0  0  0
 45 46  1  0  0  0  0
 46 31  1  0  0  0  0
 47 46  1  0  0  0  0
M  END
>  <minimizedAffinity>
-6.65449286

$$$$

 OpenBabel03252502253D

 47 51  0  0  1  0  0  0  0  0999 V2000
   37.0390   30.8240   39.3400 N   0  0  0  0  0  0  0  0  0  0  0  0
   37.1760   29.9870   38.1620 C   0  0  0  0  0  0  0  0  0  0  0  0
   35.7130   29.6560   37.7910 C   0  0  0  0  0  0  0  0  0  0  0  0
   35.1390   28.7690   38.8660 C   0  0  0  0  0  0  0  0  0  0  0  0
   35.4320   29.2180   40.2470 C   0  0  0  0  0  0  0  0  0  0  0  0
   36.0860   30.5540   40.3860 C   0  0  1  0  0  0  0  0  0  0  0  0
   37.7030   29.0460   38.4180 H   0  0  0  0  0  0  0  0  0  0  0  0
   37.6520   30.5610   37.3550 H   0  0  0  0  0  0  0  0  0  0  0  0
   35.7090   29.1320   36.8300 H   0  0  0  0  0  0  0  0  0  0  0  0
   35.1750   30.6300   37.7860 H   0  0  0  0  0  0  0  0  0  0  0  0
   35.5870   27.7560   38.7090 H   0  0  0  0  0  0  0  0  0  0  0  0
   34.0550   28.6300   38.6610 H   0  0  0  0  0  0  0  0  0  0  0  0
   36.0200   28.4570   40.8220 H   0  0  0  0  0  0  0  0  0  0  0  0
   34.4640   29.2820   40.7970 H   0  0  0  0  0  0  0  0  0  0  0  0
   35.3420   31.3730   40.3480 H   0  0  0  0  0  0  0  0  0  0  0  0
   38.2100   34.3340   39.9310 C   0  0  0  0  0  0  0  0  0  0  0  0
   37.3220   33.2600   39.7860 C   0  0  0  0  0  0  0  0  0  0  0  0
   37.8720   31.9840   39.5040 C   0  0  0  0  0  0  0  0  0  0  0  0
   39.2190   31.8830   39.3920 N   0  0  0  0  0  0  0  0  0  0  0  0
   40.0440   32.9480   39.5390 C   0  0  0  0  0  0  0  0  0  0  0  0
   39.5280   34.1710   39.8090 N   0  0  0  0  0  0  0  0  0  0  0  0
   37.6600   35.2450   40.1430 H   0  0  0  0  0  0  0  0  0  0  0  0
   36.2500   33.3050   39.8690 H   0  0  0  0  0  0  0  0  0  0  0  0
   41.1090   32.8560   39.4490 H   0  0  0  0  0  0  0  0  0  0  0  0
   36.7350   30.5940   41.6190 O   0  0  0  0  0  0  0  0  0  0  0  0
   37.5600   29.6260   42.1580 C   0  0  0  0  0  0  0  0  0  0  0  0
   37.2370   28.4240   42.7510 C   0  0  0  0  0  0  0  0  0  0  0  0
   36.1950   28.2160   42.7980 H   0  0  0  0  0  0  0  0  0  0  0  0
   38.2480   27.6140   43.2200 C   0  0  0  0  0  0  0  0  0  0  0  0
   37.8800   26.6810   43.6740 H   0  0  0  0  0  0  0  0  0  0  0  0
   39.5930   27.9080   43.1460 C   0  0  0  0  0  0  0  0  0  0  0  0
   39.9120   29.1050   42.5550 C   0  0  0  0  0  0  0  0  0  0  0  0
   38.9250   29.9240   42.0830 C   0  0  0  0  0  0  0  0  0  0  0  0
   39.2770   30.8580   41.6270 H   0  0  0  0  0  0  0  0  0  0  0  0
   41.6320   29.5510   42.4250 S   0  0  0  0  0  0  0  0  0  0  0  0
   42.5450   28.2180   43.1540 C   0  0  0  0  0  0  0  0  0  0  0  0
   43.9010   28.3540   43.1610 C   0  0  0  0  0  0  0  0  0  0  0  0
   44.4090   29.2030   42.7580 H   0  0  0  0  0  0  0  0  0  0  0  0
   44.6860   27.3590   43.7120 C   0  0  0  0  0  0  0  0  0  0  0  0
   45.7660   27.3680   43.7680 H   0  0  0  0  0  0  0  0  0  0  0  0
   44.0620   26.2480   44.2420 C   0  0  0  0  0  0  0  0  0  0  0  0
   44.6460   25.4500   44.6800 H   0  0  0  0  0  0  0  0  0  0  0  0
   42.6840   26.1750   44.2010 C   0  0  0  0  0  0  0  0  0  0  0  0
   42.2540   25.2650   44.6400 H   0  0  0  0  0  0  0  0  0  0  0  0
   41.8610   27.1430   43.6620 C   0  0  0  0  0  0  0  0  0  0  0  0
   40.4750   26.9480   43.6840 N   0  0  0  0  0  0  0  0  0  0  0  0
   40.1110   26.0700   44.1090 H   0  0  0  0  0  0  0  0  0  0  0  0
  1 18  1  0  0  0  0
  1  6  1  0  0  0  0
  2  7  1  0  0  0  0
  2  1  1  0  0  0  0
  3  2  1  0  0  0  0
  3  4  1  0  0  0  0
  4  5  1  0  0  0  0
  5  6  1  0  0  0  0
  5 14  1  0  0  0  0
  5 13  1  0  0  0  0
  6 15  1  6  0  0  0
  6 25  1  0  0  0  0
  8  2  1  0  0  0  0
  9  3  1  0  0  0  0
 10  3  1  0  0  0  0
 11  4  1  0  0  0  0
 12  4  1  0  0  0  0
 16 22  1  0  0  0  0
 17 23  1  0  0  0  0
 17 16  2  0  0  0  0
 18 17  1  0  0  0  0
 19 18  2  0  0  0  0
 19 20  1  0  0  0  0
 20 21  2  0  0  0  0
 21 16  1  0  0  0  0
 24 20  1  0  0  0  0
 25 26  1  0  0  0  0
 26 27  1  0  0  0  0
 27 28  1  0  0  0  0
 27 29  2  0  0  0  0
 29 30  1  0  0  0  0
 31 29  1  0  0  0  0
 31 46  1  0  0  0  0
 32 31  2  0  0  0  0
 33 26  2  0  0  0  0
 33 32  1  0  0  0  0
 34 33  1  0  0  0  0
 35 32  1  0  0  0  0
 35 36  1  0  0  0  0
 36 37  2  0  0  0  0
 36 45  1  0  0  0  0
 37 39  1  0  0  0  0
 38 37  1  0  0  0  0
 39 40  1  0  0  0  0
 39 41  2  0  0  0  0
 41 42  1  0  0  0  0
 43 41  1  0  0  0  0
 43 44  1  0  0  0  0
 45 46  1  0  0  0  0
 45 43  2  0  0  0  0
 46 47  1  0  0  0  0
M  END
>  <minimizedAffinity>
-6.51793051

$$$$

 OpenBabel03252502253D

 47 51  0  0  1  0  0  0  0  0999 V2000
   38.2840   24.5320   40.9700 N   0  0  0  0  0  0  0  0  0  0  0  0
   38.1960   23.0850   40.8920 C   0  0  0  0  0  0  0  0  0  0  0  0
   37.8650   22.8310   39.4040 C   0  0  0  0  0  0  0  0  0  0  0  0
   36.4740   23.3460   39.1330 C   0  0  0  0  0  0  0  0  0  0  0  0
   36.2010   24.6880   39.6970 C   0  0  0  0  0  0  0  0  0  0  0  0
   37.3670   25.4100   40.2880 C   0  0  1  0  0  0  0  0  0  0  0  0
   37.3580   22.7160   41.5150 H   0  0  0  0  0  0  0  0  0  0  0  0
   39.1710   22.6430   41.1450 H   0  0  0  0  0  0  0  0  0  0  0  0
   37.9100   21.7540   39.2180 H   0  0  0  0  0  0  0  0  0  0  0  0
   38.6030   23.4290   38.8240 H   0  0  0  0  0  0  0  0  0  0  0  0
   35.7710   22.6070   39.5920 H   0  0  0  0  0  0  0  0  0  0  0  0
   36.2830   23.2720   38.0390 H   0  0  0  0  0  0  0  0  0  0  0  0
   35.3630   24.6700   40.4390 H   0  0  0  0  0  0  0  0  0  0  0  0
   35.8170   25.3320   38.8720 H   0  0  0  0  0  0  0  0  0  0  0  0
   37.9570   25.9300   39.5090 H   0  0  0  0  0  0  0  0  0  0  0  0
   41.4680   26.2190   41.9970 C   0  0  0  0  0  0  0  0  0  0  0  0
   40.5160   25.6270   41.1580 C   0  0  0  0  0  0  0  0  0  0  0  0
   39.3180   25.1530   41.7510 C   0  0  0  0  0  0  0  0  0  0  0  0
   39.1700   25.3040   43.0900 N   0  0  0  0  0  0  0  0  0  0  0  0
   40.1170   25.8830   43.8680 C   0  0  0  0  0  0  0  0  0  0  0  0
   41.2640   26.3380   43.3090 N   0  0  0  0  0  0  0  0  0  0  0  0
   42.3300   26.5340   41.4170 H   0  0  0  0  0  0  0  0  0  0  0  0
   40.6010   25.4920   40.0930 H   0  0  0  0  0  0  0  0  0  0  0  0
   39.9880   25.9980   44.9260 H   0  0  0  0  0  0  0  0  0  0  0  0
   36.8810   26.3560   41.1890 O   0  0  0  0  0  0  0  0  0  0  0  0
   36.7860   27.7200   40.9950 C   0  0  0  0  0  0  0  0  0  0  0  0
   35.6700   28.5100   40.8270 C   0  0  0  0  0  0  0  0  0  0  0  0
   34.7450   27.9860   40.8520 H   0  0  0  0  0  0  0  0  0  0  0  0
   35.8280   29.8680   40.6470 C   0  0  0  0  0  0  0  0  0  0  0  0
   34.8740   30.4010   40.5220 H   0  0  0  0  0  0  0  0  0  0  0  0
   37.0400   30.5220   40.6180 C   0  0  0  0  0  0  0  0  0  0  0  0
   38.1510   29.7340   40.7850 C   0  0  0  0  0  0  0  0  0  0  0  0
   38.0170   28.3860   40.9660 C   0  0  0  0  0  0  0  0  0  0  0  0
   38.9600   27.8400   41.0910 H   0  0  0  0  0  0  0  0  0  0  0  0
   39.7530   30.5150   40.7600 S   0  0  0  0  0  0  0  0  0  0  0  0
   39.4570   32.2430   40.5050 C   0  0  0  0  0  0  0  0  0  0  0  0
   40.5630   33.0380   40.4510 C   0  0  0  0  0  0  0  0  0  0  0  0
   41.5600   32.6680   40.5550 H   0  0  0  0  0  0  0  0  0  0  0  0
   40.4180   34.3980   40.2540 C   0  0  0  0  0  0  0  0  0  0  0  0
   41.2250   35.1160   40.1970 H   0  0  0  0  0  0  0  0  0  0  0  0
   39.1440   34.9110   40.1170 C   0  0  0  0  0  0  0  0  0  0  0  0
   38.9940   35.9710   39.9630 H   0  0  0  0  0  0  0  0  0  0  0  0
   38.0690   34.0480   40.1820 C   0  0  0  0  0  0  0  0  0  0  0  0
   37.0850   34.5220   40.0650 H   0  0  0  0  0  0  0  0  0  0  0  0
   38.1640   32.6850   40.3760 C   0  0  0  0  0  0  0  0  0  0  0  0
   36.9930   31.9190   40.4210 N   0  0  0  0  0  0  0  0  0  0  0  0
   36.0830   32.4100   40.3070 H   0  0  0  0  0  0  0  0  0  0  0  0
  1 18  1  0  0  0  0
  2  1  1  0  0  0  0
  2  8  1  0  0  0  0
  2  7  1  0  0  0  0
  3  2  1  0  0  0  0
  4  3  1  0  0  0  0
  4 11  1  0  0  0  0
  4  5  1  0  0  0  0
  5  6  1  0  0  0  0
  5 13  1  0  0  0  0
  6 15  1  6  0  0  0
  6  1  1  0  0  0  0
  6 25  1  0  0  0  0
  9  3  1  0  0  0  0
 10  3  1  0  0  0  0
 12  4  1  0  0  0  0
 14  5  1  0  0  0  0
 16 21  1  0  0  0  0
 17 18  1  0  0  0  0
 17 16  2  0  0  0  0
 18 19  2  0  0  0  0
 19 20  1  0  0  0  0
 20 24  1  0  0  0  0
 21 20  2  0  0  0  0
 22 16  1  0  0  0  0
 23 17  1  0  0  0  0
 26 25  1  0  0  0  0
 27 28  1  0  0  0  0
 27 26  2  0  0  0  0
 29 27  1  0  0  0  0
 30 29  1  0  0  0  0
 31 29  2  0  0  0  0
 31 32  1  0  0  0  0
 32 33  2  0  0  0  0
 33 26  1  0  0  0  0
 33 34  1  0  0  0  0
 35 32  1  0  0  0  0
 36 35  1  0  0  0  0
 37 36  1  0  0  0  0
 37 38  1  0  0  0  0
 39 37  2  0  0  0  0
 40 39  1  0  0  0  0
 41 43  2  0  0  0  0
 41 39  1  0  0  0  0
 42 41  1  0  0  0  0
 43 45  1  0  0  0  0
 44 43  1  0  0  0  0
 45 46  1  0  0  0  0
 45 36  2  0  0  0  0
 46 31  1  0  0  0  0
 47 46  1  0  0  0  0
M  END
>  <minimizedAffinity>
-6.22872639

$$$$

 OpenBabel03252502253D

 47 51  0  0  1  0  0  0  0  0999 V2000
   43.4660   33.5920   39.9400 N   0  0  0  0  0  0  0  0  0  0  0  0
   43.9970   32.6250   38.9960 C   0  0  0  0  0  0  0  0  0  0  0  0
   44.0190   33.4070   37.6640 C   0  0  0  0  0  0  0  0  0  0  0  0
   42.5940   33.6620   37.2400 C   0  0  0  0  0  0  0  0  0  0  0  0
   41.7120   34.1450   38.3280 C   0  0  0  0  0  0  0  0  0  0  0  0
   42.3770   34.4800   39.6230 C   0  0  1  0  0  0  0  0  0  0  0  0
   43.3060   31.7640   38.8960 H   0  0  0  0  0  0  0  0  0  0  0  0
   45.0200   32.3470   39.2890 H   0  0  0  0  0  0  0  0  0  0  0  0
   44.5310   32.7990   36.9130 H   0  0  0  0  0  0  0  0  0  0  0  0
   44.5180   34.3760   37.8900 H   0  0  0  0  0  0  0  0  0  0  0  0
   42.2010   32.6870   36.8580 H   0  0  0  0  0  0  0  0  0  0  0  0
   42.6100   34.3260   36.3470 H   0  0  0  0  0  0  0  0  0  0  0  0
   40.8590   33.4460   38.5200 H   0  0  0  0  0  0  0  0  0  0  0  0
   41.2190   35.0810   37.9760 H   0  0  0  0  0  0  0  0  0  0  0  0
   42.8040   35.5010   39.6050 H   0  0  0  0  0  0  0  0  0  0  0  0
   45.1420   34.9110   43.0210 C   0  0  0  0  0  0  0  0  0  0  0  0
   44.6220   34.8990   41.7210 C   0  0  0  0  0  0  0  0  0  0  0  0
   44.0270   33.6970   41.2590 C   0  0  0  0  0  0  0  0  0  0  0  0
   43.9990   32.6380   42.1040 N   0  0  0  0  0  0  0  0  0  0  0  0
   44.5140   32.6900   43.3560 C   0  0  0  0  0  0  0  0  0  0  0  0
   45.0850   33.8340   43.8050 N   0  0  0  0  0  0  0  0  0  0  0  0
   45.5640   35.8860   43.2430 H   0  0  0  0  0  0  0  0  0  0  0  0
   44.6270   35.7210   41.0250 H   0  0  0  0  0  0  0  0  0  0  0  0
   44.4860   31.8450   44.0170 H   0  0  0  0  0  0  0  0  0  0  0  0
   41.4200   34.4120   40.6330 O   0  0  0  0  0  0  0  0  0  0  0  0
   40.3540   33.5360   40.7130 C   0  0  0  0  0  0  0  0  0  0  0  0
   39.0610   33.6790   40.2580 C   0  0  0  0  0  0  0  0  0  0  0  0
   38.8590   34.6040   39.7730 H   0  0  0  0  0  0  0  0  0  0  0  0
   38.1620   32.6540   40.4560 C   0  0  0  0  0  0  0  0  0  0  0  0
   37.1610   32.8730   40.0550 H   0  0  0  0  0  0  0  0  0  0  0  0
   38.4510   31.4640   41.0890 C   0  0  0  0  0  0  0  0  0  0  0  0
   39.7380   31.3240   41.5410 C   0  0  0  0  0  0  0  0  0  0  0  0
   40.6460   32.3280   41.3550 C   0  0  0  0  0  0  0  0  0  0  0  0
   41.6500   32.1240   41.7500 H   0  0  0  0  0  0  0  0  0  0  0  0
   40.1830   29.8090   42.3700 S   0  0  0  0  0  0  0  0  0  0  0  0
   38.7210   28.8080   42.3870 C   0  0  0  0  0  0  0  0  0  0  0  0
   38.8380   27.5870   42.9830 C   0  0  0  0  0  0  0  0  0  0  0  0
   39.7460   27.2310   43.4190 H   0  0  0  0  0  0  0  0  0  0  0  0
   37.7440   26.7460   43.0390 C   0  0  0  0  0  0  0  0  0  0  0  0
   37.7290   25.7610   43.4850 H   0  0  0  0  0  0  0  0  0  0  0  0
   36.5560   27.1750   42.4830 C   0  0  0  0  0  0  0  0  0  0  0  0
   35.6790   26.5420   42.5090 H   0  0  0  0  0  0  0  0  0  0  0  0
   36.5070   28.4230   41.8960 C   0  0  0  0  0  0  0  0  0  0  0  0
   35.5320   28.7010   41.4750 H   0  0  0  0  0  0  0  0  0  0  0  0
   37.5720   29.2960   41.8170 C   0  0  0  0  0  0  0  0  0  0  0  0
   37.3920   30.5380   41.1950 N   0  0  0  0  0  0  0  0  0  0  0  0
   36.4510   30.7590   40.8080 H   0  0  0  0  0  0  0  0  0  0  0  0
  1 18  1  0  0  0  0
  2  8  1  0  0  0  0
  2  1  1  0  0  0  0
  3 10  1  0  0  0  0
  3  2  1  0  0  0  0
  4  3  1  0  0  0  0
  4  5  1  0  0  0  0
  5 13  1  0  0  0  0
  5  6  1  0  0  0  0
  6 15  1  6  0  0  0
  6  1  1  0  0  0  0
  6 25  1  0  0  0  0
  7  2  1  0  0  0  0
  9  3  1  0  0  0  0
 11  4  1  0  0  0  0
 12  4  1  0  0  0  0
 14  5  1  0  0  0  0
 16 22  1  0  0  0  0
 16 21  1  0  0  0  0
 17 16  2  0  0  0  0
 18 17  1  0  0  0  0
 18 19  2  0  0  0  0
 19 20  1  0  0  0  0
 20 21  2  0  0  0  0
 20 24  1  0  0  0  0
 23 17  1  0  0  0  0
 25 26  1  0  0  0  0
 26 33  1  0  0  0  0
 27 29  1  0  0  0  0
 27 26  2  0  0  0  0
 28 27  1  0  0  0  0
 29 31  2  0  0  0  0
 30 29  1  0  0  0  0
 31 46  1  0  0  0  0
 31 32  1  0  0  0  0
 32 35  1  0  0  0  0
 33 32  2  0  0  0  0
 33 34  1  0  0  0  0
 35 36  1  0  0  0  0
 36 37  1  0  0  0  0
 37 39  2  0  0  0  0
 37 38  1  0  0  0  0
 39 40  1  0  0  0  0
 41 42  1  0  0  0  0
 41 39  1  0  0  0  0
 43 41  2  0  0  0  0
 44 43  1  0  0  0  0
 45 43  1  0  0  0  0
 45 36  2  0  0  0  0
 46 45  1  0  0  0  0
 47 46  1  0  0  0  0
M  END
>  <minimizedAffinity>
-6.10905409

$$$$

 OpenBabel03252502253D

 47 51  0  0  1  0  0  0  0  0999 V2000
   40.7410   32.5400   40.8820 N   0  0  0  0  0  0  0  0  0  0  0  0
   41.5970   33.7130   40.8740 C   0  0  0  0  0  0  0  0  0  0  0  0
   43.0190   33.1130   40.8500 C   0  0  0  0  0  0  0  0  0  0  0  0
   43.2680   32.4270   42.1700 C   0  0  0  0  0  0  0  0  0  0  0  0
   42.1500   31.5730   42.6320 C   0  0  0  0  0  0  0  0  0  0  0  0
   41.0280   31.3670   41.6670 C   0  0  1  0  0  0  0  0  0  0  0  0
   41.4660   34.2910   41.8100 H   0  0  0  0  0  0  0  0  0  0  0  0
   41.4150   34.2960   39.9590 H   0  0  0  0  0  0  0  0  0  0  0  0
   43.7370   33.9270   40.7090 H   0  0  0  0  0  0  0  0  0  0  0  0
   43.0150   32.3570   40.0340 H   0  0  0  0  0  0  0  0  0  0  0  0
   43.4390   33.2410   42.9180 H   0  0  0  0  0  0  0  0  0  0  0  0
   44.2430   31.8950   42.1070 H   0  0  0  0  0  0  0  0  0  0  0  0
   41.7340   31.9180   43.6130 H   0  0  0  0  0  0  0  0  0  0  0  0
   42.5630   30.5620   42.8550 H   0  0  0  0  0  0  0  0  0  0  0  0
   41.2600   30.5600   40.9460 H   0  0  0  0  0  0  0  0  0  0  0  0
   37.3310   33.2780   39.5130 C   0  0  0  0  0  0  0  0  0  0  0  0
   38.4550   33.3760   40.3450 C   0  0  0  0  0  0  0  0  0  0  0  0
   39.5470   32.5100   40.0820 C   0  0  0  0  0  0  0  0  0  0  0  0
   39.4350   31.6440   39.0460 N   0  0  0  0  0  0  0  0  0  0  0  0
   38.3300   31.5800   38.2650 C   0  0  0  0  0  0  0  0  0  0  0  0
   37.2820   32.4040   38.5080 N   0  0  0  0  0  0  0  0  0  0  0  0
   36.5760   33.9930   39.8240 H   0  0  0  0  0  0  0  0  0  0  0  0
   38.5760   34.0520   41.1740 H   0  0  0  0  0  0  0  0  0  0  0  0
   38.2540   30.8910   37.4470 H   0  0  0  0  0  0  0  0  0  0  0  0
   39.8920   31.0100   42.3900 O   0  0  0  0  0  0  0  0  0  0  0  0
   39.2780   29.7720   42.4210 C   0  0  0  0  0  0  0  0  0  0  0  0
   38.2770   29.3060   43.2440 C   0  0  0  0  0  0  0  0  0  0  0  0
   37.9260   30.0090   43.9620 H   0  0  0  0  0  0  0  0  0  0  0  0
   37.8200   28.0160   43.0830 C   0  0  0  0  0  0  0  0  0  0  0  0
   37.0220   27.7480   43.7920 H   0  0  0  0  0  0  0  0  0  0  0  0
   38.2930   27.1250   42.1440 C   0  0  0  0  0  0  0  0  0  0  0  0
   39.2900   27.5910   41.3260 C   0  0  0  0  0  0  0  0  0  0  0  0
   39.7570   28.8670   41.4680 C   0  0  0  0  0  0  0  0  0  0  0  0
   40.5550   29.1490   40.7690 H   0  0  0  0  0  0  0  0  0  0  0  0
   39.9490   26.4910   40.0870 S   0  0  0  0  0  0  0  0  0  0  0  0
   39.0640   24.9650   40.2590 C   0  0  0  0  0  0  0  0  0  0  0  0
   39.4150   23.9700   39.3970 C   0  0  0  0  0  0  0  0  0  0  0  0
   40.1730   24.0760   38.6510 H   0  0  0  0  0  0  0  0  0  0  0  0
   38.7730   22.7480   39.4650 C   0  0  0  0  0  0  0  0  0  0  0  0
   38.9730   21.8950   38.8310 H   0  0  0  0  0  0  0  0  0  0  0  0
   37.7880   22.5760   40.4170 C   0  0  0  0  0  0  0  0  0  0  0  0
   37.2650   21.6330   40.4980 H   0  0  0  0  0  0  0  0  0  0  0  0
   37.4840   23.6270   41.2580 C   0  0  0  0  0  0  0  0  0  0  0  0
   36.6910   23.4220   41.9900 H   0  0  0  0  0  0  0  0  0  0  0  0
   38.0970   24.8620   41.2260 C   0  0  0  0  0  0  0  0  0  0  0  0
   37.6960   25.8460   42.1380 N   0  0  0  0  0  0  0  0  0  0  0  0
   36.9400   25.6090   42.8130 H   0  0  0  0  0  0  0  0  0  0  0  0
  1  6  1  0  0  0  0
  2  1  1  0  0  0  0
  2  7  1  0  0  0  0
  3  2  1  0  0  0  0
  3  4  1  0  0  0  0
  4  5  1  0  0  0  0
  4 11  1  0  0  0  0
  5 14  1  0  0  0  0
  5 13  1  0  0  0  0
  6 15  1  6  0  0  0
  6 25  1  0  0  0  0
  6  5  1  0  0  0  0
  8  2  1  0  0  0  0
  9  3  1  0  0  0  0
 10  3  1  0  0  0  0
 12  4  1  0  0  0  0
 16 22  1  0  0  0  0
 16 17  1  0  0  0  0
 17 23  1  0  0  0  0
 18 17  2  0  0  0  0
 18  1  1  0  0  0  0
 19 18  1  0  0  0  0
 20 21  1  0  0  0  0
 20 19  2  0  0  0  0
 21 16  2  0  0  0  0
 24 20  1  0  0  0  0
 25 26  1  0  0  0  0
 26 27  1  0  0  0  0
 27 28  1  0  0  0  0
 29 27  2  0  0  0  0
 29 30  1  0  0  0  0
 31 29  1  0  0  0  0
 32 33  1  0  0  0  0
 32 31  2  0  0  0  0
 33 26  2  0  0  0  0
 34 33  1  0  0  0  0
 35 36  1  0  0  0  0
 35 32  1  0  0  0  0
 36 45  1  0  0  0  0
 37 39  1  0  0  0  0
 37 36  2  0  0  0  0
 38 37  1  0  0  0  0
 39 41  2  0  0  0  0
 40 39  1  0  0  0  0
 41 42  1  0  0  0  0
 41 43  1  0  0  0  0
 43 44  1  0  0  0  0
 45 43  2  0  0  0  0
 45 46  1  0  0  0  0
 46 31  1  0  0  0  0
 46 47  1  0  0  0  0
M  END
>  <minimizedAffinity>
-6.052423

$$$$

 OpenBabel03252502253D

 47 51  0  0  1  0  0  0  0  0999 V2000
   41.5650   33.1570   39.2590 N   0  0  0  0  0  0  0  0  0  0  0  0
   42.2690   34.2450   38.6050 C   0  0  0  0  0  0  0  0  0  0  0  0
   43.3950   33.5230   37.8320 C   0  0  0  0  0  0  0  0  0  0  0  0
   44.3630   32.9460   38.8340 C   0  0  0  0  0  0  0  0  0  0  0  0
   43.7200   32.2400   39.9660 C   0  0  0  0  0  0  0  0  0  0  0  0
   42.2420   32.0430   39.8720 C   0  0  1  0  0  0  0  0  0  0  0  0
   42.7240   34.9180   39.3580 H   0  0  0  0  0  0  0  0  0  0  0  0
   41.5920   34.7520   37.9020 H   0  0  0  0  0  0  0  0  0  0  0  0
   43.9040   34.2540   37.1970 H   0  0  0  0  0  0  0  0  0  0  0  0
   42.8990   32.6970   37.2760 H   0  0  0  0  0  0  0  0  0  0  0  0
   44.9550   33.8080   39.2310 H   0  0  0  0  0  0  0  0  0  0  0  0
   45.1060   32.3270   38.2830 H   0  0  0  0  0  0  0  0  0  0  0  0
   43.9670   32.7110   40.9520 H   0  0  0  0  0  0  0  0  0  0  0  0
   44.1700   31.2230   40.0330 H   0  0  0  0  0  0  0  0  0  0  0  0
   41.9920   31.1540   39.2620 H   0  0  0  0  0  0  0  0  0  0  0  0
   38.0160   34.0620   40.0500 C   0  0  0  0  0  0  0  0  0  0  0  0
   39.4140   34.1400   40.0480 C   0  0  0  0  0  0  0  0  0  0  0  0
   40.1290   33.1570   39.3180 C   0  0  0  0  0  0  0  0  0  0  0  0
   39.4150   32.2050   38.6690 N   0  0  0  0  0  0  0  0  0  0  0  0
   38.0610   32.1640   38.6950 C   0  0  0  0  0  0  0  0  0  0  0  0
   37.3700   33.1000   39.3900 N   0  0  0  0  0  0  0  0  0  0  0  0
   37.5990   34.8700   40.6420 H   0  0  0  0  0  0  0  0  0  0  0  0
   40.0110   34.8810   40.5520 H   0  0  0  0  0  0  0  0  0  0  0  0
   37.5070   31.4070   38.1770 H   0  0  0  0  0  0  0  0  0  0  0  0
   41.7460   31.8560   41.1600 O   0  0  0  0  0  0  0  0  0  0  0  0
   40.8010   30.9320   41.5640 C   0  0  0  0  0  0  0  0  0  0  0  0
   39.7890   31.0540   42.4910 C   0  0  0  0  0  0  0  0  0  0  0  0
   39.7310   32.0050   42.9640 H   0  0  0  0  0  0  0  0  0  0  0  0
   38.9610   29.9790   42.7280 C   0  0  0  0  0  0  0  0  0  0  0  0
   38.1900   30.1850   43.4850 H   0  0  0  0  0  0  0  0  0  0  0  0
   39.0590   28.7560   42.1000 C   0  0  0  0  0  0  0  0  0  0  0  0
   40.0670   28.6360   41.1770 C   0  0  0  0  0  0  0  0  0  0  0  0
   40.9000   29.6900   40.9270 C   0  0  0  0  0  0  0  0  0  0  0  0
   41.6750   29.4990   40.1740 H   0  0  0  0  0  0  0  0  0  0  0  0
   40.2530   27.0810   40.3260 S   0  0  0  0  0  0  0  0  0  0  0  0
   38.9800   26.0190   40.9520 C   0  0  0  0  0  0  0  0  0  0  0  0
   38.9390   24.7610   40.4290 C   0  0  0  0  0  0  0  0  0  0  0  0
   39.6200   24.4110   39.6840 H   0  0  0  0  0  0  0  0  0  0  0  0
   37.9760   23.8710   40.8640 C   0  0  0  0  0  0  0  0  0  0  0  0
   37.8550   22.8540   40.5160 H   0  0  0  0  0  0  0  0  0  0  0  0
   37.0780   24.2910   41.8240 C   0  0  0  0  0  0  0  0  0  0  0  0
   36.3110   23.6210   42.1870 H   0  0  0  0  0  0  0  0  0  0  0  0
   37.1780   25.5790   42.3110 C   0  0  0  0  0  0  0  0  0  0  0  0
   36.4330   25.8480   43.0720 H   0  0  0  0  0  0  0  0  0  0  0  0
   38.1210   26.5020   41.9070 C   0  0  0  0  0  0  0  0  0  0  0  0
   38.1150   27.7790   42.4800 N   0  0  0  0  0  0  0  0  0  0  0  0
   37.3910   27.9890   43.1970 H   0  0  0  0  0  0  0  0  0  0  0  0
  1 18  1  0  0  0  0
  1  6  1  0  0  0  0
  2  1  1  0  0  0  0
  2  7  1  0  0  0  0
  3  2  1  0  0  0  0
  3  4  1  0  0  0  0
  4 11  1  0  0  0  0
  4  5  1  0  0  0  0
  5 14  1  0  0  0  0
  5 13  1  0  0  0  0
  6 15  1  6  0  0  0
  6  5  1  0  0  0  0
  6 25  1  0  0  0  0
  8  2  1  0  0  0  0
  9  3  1  0  0  0  0
 10  3  1  0  0  0  0
 12  4  1  0  0  0  0
 16 22  1  0  0  0  0
 17 16  1  0  0  0  0
 17 23  1  0  0  0  0
 18 17  2  0  0  0  0
 19 20  2  0  0  0  0
 19 18  1  0  0  0  0
 20 21  1  0  0  0  0
 21 16  2  0  0  0  0
 24 20  1  0  0  0  0
 25 26  1  0  0  0  0
 26 27  1  0  0  0  0
 27 29  2  0  0  0  0
 27 28  1  0  0  0  0
 29 30  1  0  0  0  0
 31 46  1  0  0  0  0
 31 29  1  0  0  0  0
 32 31  2  0  0  0  0
 33 32  1  0  0  0  0
 33 26  2  0  0  0  0
 34 33  1  0  0  0  0
 35 36  1  0  0  0  0
 35 32  1  0  0  0  0
 36 45  1  0  0  0  0
 37 39  1  0  0  0  0
 37 36  2  0  0  0  0
 38 37  1  0  0  0  0
 39 41  2  0  0  0  0
 40 39  1  0  0  0  0
 41 42  1  0  0  0  0
 41 43  1  0  0  0  0
 43 44  1  0  0  0  0
 45 43  2  0  0  0  0
 45 46  1  0  0  0  0
 46 47  1  0  0  0  0
M  END
>  <minimizedAffinity>
-5.93495226

$$$$

 OpenBabel03252502253D

 47 51  0  0  1  0  0  0  0  0999 V2000
   41.8730   32.5940   39.5530 N   0  0  0  0  0  0  0  0  0  0  0  0
   42.5320   31.7350   38.5850 C   0  0  0  0  0  0  0  0  0  0  0  0
   42.0340   32.2830   37.2290 C   0  0  0  0  0  0  0  0  0  0  0  0
   40.5600   31.9890   37.1100 C   0  0  0  0  0  0  0  0  0  0  0  0
   39.7760   32.3010   38.3280 C   0  0  0  0  0  0  0  0  0  0  0  0
   40.5020   33.0170   39.4200 C   0  0  1  0  0  0  0  0  0  0  0  0
   42.1840   30.6890   38.6990 H   0  0  0  0  0  0  0  0  0  0  0  0
   43.6220   31.8550   38.6660 H   0  0  0  0  0  0  0  0  0  0  0  0
   42.5830   31.7790   36.4290 H   0  0  0  0  0  0  0  0  0  0  0  0
   42.1910   33.3840   37.2720 H   0  0  0  0  0  0  0  0  0  0  0  0
   40.4750   30.8950   36.8930 H   0  0  0  0  0  0  0  0  0  0  0  0
   40.1780   32.4870   36.1920 H   0  0  0  0  0  0  0  0  0  0  0  0
   39.2760   31.3930   38.7510 H   0  0  0  0  0  0  0  0  0  0  0  0
   38.9290   32.9610   38.0280 H   0  0  0  0  0  0  0  0  0  0  0  0
   40.5310   34.1070   39.2380 H   0  0  0  0  0  0  0  0  0  0  0  0
   43.8790   32.7160   42.7160 C   0  0  0  0  0  0  0  0  0  0  0  0
   43.2010   32.1670   41.6190 C   0  0  0  0  0  0  0  0  0  0  0  0
   42.5890   33.0640   40.7070 C   0  0  0  0  0  0  0  0  0  0  0  0
   42.6990   34.3930   40.9530 N   0  0  0  0  0  0  0  0  0  0  0  0
   43.3630   34.8830   42.0270 C   0  0  0  0  0  0  0  0  0  0  0  0
   43.9510   34.0340   42.9040 N   0  0  0  0  0  0  0  0  0  0  0  0
   44.2960   31.9230   43.3280 H   0  0  0  0  0  0  0  0  0  0  0  0
   43.0960   31.1200   41.3940 H   0  0  0  0  0  0  0  0  0  0  0  0
   43.4440   35.9370   42.2110 H   0  0  0  0  0  0  0  0  0  0  0  0
   39.8310   32.7780   40.6170 O   0  0  0  0  0  0  0  0  0  0  0  0
   39.5350   31.5490   41.1760 C   0  0  0  0  0  0  0  0  0  0  0  0
   39.7920   31.0730   42.4430 C   0  0  0  0  0  0  0  0  0  0  0  0
   40.2950   31.7570   43.0830 H   0  0  0  0  0  0  0  0  0  0  0  0
   39.3950   29.7950   42.7740 C   0  0  0  0  0  0  0  0  0  0  0  0
   39.6510   29.5170   43.8070 H   0  0  0  0  0  0  0  0  0  0  0  0
   38.7450   28.9270   41.9230 C   0  0  0  0  0  0  0  0  0  0  0  0
   38.4890   29.4040   40.6620 C   0  0  0  0  0  0  0  0  0  0  0  0
   38.8740   30.6680   40.3130 C   0  0  0  0  0  0  0  0  0  0  0  0
   38.6260   30.9600   39.2850 H   0  0  0  0  0  0  0  0  0  0  0  0
   37.6500   28.3350   39.5090 S   0  0  0  0  0  0  0  0  0  0  0  0
   37.3450   26.8180   40.3730 C   0  0  0  0  0  0  0  0  0  0  0  0
   36.7030   25.8450   39.6660 C   0  0  0  0  0  0  0  0  0  0  0  0
   36.3900   25.9640   38.6510 H   0  0  0  0  0  0  0  0  0  0  0  0
   36.4280   24.6320   40.2670 C   0  0  0  0  0  0  0  0  0  0  0  0
   35.9260   23.7960   39.7980 H   0  0  0  0  0  0  0  0  0  0  0  0
   36.8180   24.4440   41.5780 C   0  0  0  0  0  0  0  0  0  0  0  0
   36.6180   23.5070   42.0790 H   0  0  0  0  0  0  0  0  0  0  0  0
   37.4640   25.4720   42.2340 C   0  0  0  0  0  0  0  0  0  0  0  0
   37.7460   25.2560   43.2730 H   0  0  0  0  0  0  0  0  0  0  0  0
   37.7590   26.6990   41.6750 C   0  0  0  0  0  0  0  0  0  0  0  0
   38.4220   27.6590   42.4500 N   0  0  0  0  0  0  0  0  0  0  0  0
   38.6680   27.4110   43.4300 H   0  0  0  0  0  0  0  0  0  0  0  0
  1 18  1  0  0  0  0
  2  8  1  0  0  0  0
  2  7  1  0  0  0  0
  2  1  1  0  0  0  0
  3 10  1  0  0  0  0
  3  2  1  0  0  0  0
  4  3  1  0  0  0  0
  4  5  1  0  0  0  0
  5 13  1  0  0  0  0
  5  6  1  0  0  0  0
  6 15  1  6  0  0  0
  6  1  1  0  0  0  0
  6 25  1  0  0  0  0
  9  3  1  0  0  0  0
 11  4  1  0  0  0  0
 12  4  1  0  0  0  0
 14  5  1  0  0  0  0
 16 21  1  0  0  0  0
 16 22  1  0  0  0  0
 17 16  2  0  0  0  0
 18 19  2  0  0  0  0
 18 17  1  0  0  0  0
 19 20  1  0  0  0  0
 20 24  1  0  0  0  0
 20 21  2  0  0  0  0
 23 17  1  0  0  0  0
 25 26  1  0  0  0  0
 26 27  1  0  0  0  0
 27 29  2  0  0  0  0
 27 28  1  0  0  0  0
 29 30  1  0  0  0  0
 31 46  1  0  0  0  0
 31 29  1  0  0  0  0
 32 31  2  0  0  0  0
 33 32  1  0  0  0  0
 33 26  2  0  0  0  0
 34 33  1  0  0  0  0
 35 36  1  0  0  0  0
 35 32  1  0  0  0  0
 36 45  1  0  0  0  0
 37 39  1  0  0  0  0
 37 36  2  0  0  0  0
 38 37  1  0  0  0  0
 39 41  2  0  0  0  0
 40 39  1  0  0  0  0
 41 42  1  0  0  0  0
 41 43  1  0  0  0  0
 43 44  1  0  0  0  0
 45 43  2  0  0  0  0
 45 46  1  0  0  0  0
 46 47  1  0  0  0  0
M  END
>  <minimizedAffinity>
-5.89869499

$$$$

 OpenBabel03252502253D

 47 51  0  0  1  0  0  0  0  0999 V2000
   37.7680   24.9970   39.5450 N   0  0  0  0  0  0  0  0  0  0  0  0
   39.0860   24.7190   40.0850 C   0  0  0  0  0  0  0  0  0  0  0  0
   38.7820   24.1820   41.5010 C   0  0  0  0  0  0  0  0  0  0  0  0
   38.2250   25.3130   42.3280 C   0  0  0  0  0  0  0  0  0  0  0  0
   37.1880   26.1170   41.6410 C   0  0  0  0  0  0  0  0  0  0  0  0
   36.7150   25.6020   40.3210 C   0  0  1  0  0  0  0  0  0  0  0  0
   39.6720   25.6560   40.1740 H   0  0  0  0  0  0  0  0  0  0  0  0
   39.5760   23.9410   39.4810 H   0  0  0  0  0  0  0  0  0  0  0  0
   39.7150   23.8180   41.9420 H   0  0  0  0  0  0  0  0  0  0  0  0
   38.0020   23.4000   41.3670 H   0  0  0  0  0  0  0  0  0  0  0  0
   39.0920   25.9730   42.5800 H   0  0  0  0  0  0  0  0  0  0  0  0
   37.8960   24.8990   43.3070 H   0  0  0  0  0  0  0  0  0  0  0  0
   37.4900   27.1900   41.5320 H   0  0  0  0  0  0  0  0  0  0  0  0
   36.2920   26.1550   42.3040 H   0  0  0  0  0  0  0  0  0  0  0  0
   35.9370   24.8260   40.4460 H   0  0  0  0  0  0  0  0  0  0  0  0
   36.3030   23.3880   36.4940 C   0  0  0  0  0  0  0  0  0  0  0  0
   36.5410   23.6400   37.8510 C   0  0  0  0  0  0  0  0  0  0  0  0
   37.4610   24.6680   38.1800 C   0  0  0  0  0  0  0  0  0  0  0  0
   38.0510   25.3410   37.1620 N   0  0  0  0  0  0  0  0  0  0  0  0
   37.7930   25.0670   35.8600 C   0  0  0  0  0  0  0  0  0  0  0  0
   36.9160   24.0860   35.5370 N   0  0  0  0  0  0  0  0  0  0  0  0
   35.5840   22.5830   36.3860 H   0  0  0  0  0  0  0  0  0  0  0  0
   36.0910   23.1260   38.6830 H   0  0  0  0  0  0  0  0  0  0  0  0
   38.2650   25.6070   35.0630 H   0  0  0  0  0  0  0  0  0  0  0  0
   36.1740   26.6690   39.6070 O   0  0  0  0  0  0  0  0  0  0  0  0
   36.2960   28.0140   39.8990 C   0  0  0  0  0  0  0  0  0  0  0  0
   35.4070   28.8640   40.5220 C   0  0  0  0  0  0  0  0  0  0  0  0
   34.4920   28.4110   40.8210 H   0  0  0  0  0  0  0  0  0  0  0  0
   35.7560   30.1840   40.7050 C   0  0  0  0  0  0  0  0  0  0  0  0
   34.9750   30.7720   41.2110 H   0  0  0  0  0  0  0  0  0  0  0  0
   36.9510   30.7460   40.3080 C   0  0  0  0  0  0  0  0  0  0  0  0
   37.8340   29.8980   39.6880 C   0  0  0  0  0  0  0  0  0  0  0  0
   37.5080   28.5850   39.4970 C   0  0  0  0  0  0  0  0  0  0  0  0
   38.2770   27.9860   38.9930 H   0  0  0  0  0  0  0  0  0  0  0  0
   39.3990   30.5570   39.1470 S   0  0  0  0  0  0  0  0  0  0  0  0
   39.3940   32.2730   39.5930 C   0  0  0  0  0  0  0  0  0  0  0  0
   40.5130   32.9790   39.2670 C   0  0  0  0  0  0  0  0  0  0  0  0
   41.3580   32.5490   38.7730 H   0  0  0  0  0  0  0  0  0  0  0  0
   40.5890   34.3230   39.5800 C   0  0  0  0  0  0  0  0  0  0  0  0
   41.4270   34.9730   39.3670 H   0  0  0  0  0  0  0  0  0  0  0  0
   39.5160   34.9100   40.2190 C   0  0  0  0  0  0  0  0  0  0  0  0
   39.5420   35.9600   40.4790 H   0  0  0  0  0  0  0  0  0  0  0  0
   38.4150   34.1360   40.5190 C   0  0  0  0  0  0  0  0  0  0  0  0
   37.5980   34.6660   41.0270 H   0  0  0  0  0  0  0  0  0  0  0  0
   38.2940   32.7920   40.2270 C   0  0  0  0  0  0  0  0  0  0  0  0
   37.1200   32.1190   40.5850 N   0  0  0  0  0  0  0  0  0  0  0  0
   36.3730   32.6610   41.0660 H   0  0  0  0  0  0  0  0  0  0  0  0
  1  2  1  0  0  0  0
  1  6  1  0  0  0  0
  2  7  1  0  0  0  0
  2  3  1  0  0  0  0
  3  9  1  0  0  0  0
  3  4  1  0  0  0  0
  4 11  1  0  0  0  0
  4 12  1  0  0  0  0
  5 14  1  0  0  0  0
  5  4  1  0  0  0  0
  6 15  1  1  0  0  0
  6  5  1  0  0  0  0
  8  2  1  0  0  0  0
 10  3  1  0  0  0  0
 13  5  1  0  0  0  0
 16 17  1  0  0  0  0
 17 18  2  0  0  0  0
 17 23  1  0  0  0  0
 18  1  1  0  0  0  0
 19 18  1  0  0  0  0
 20 19  2  0  0  0  0
 21 20  1  0  0  0  0
 21 16  2  0  0  0  0
 22 16  1  0  0  0  0
 24 20  1  0  0  0  0
 25 26  1  0  0  0  0
 25  6  1  0  0  0  0
 26 27  1  0  0  0  0
 27 29  2  0  0  0  0
 27 28  1  0  0  0  0
 29 30  1  0  0  0  0
 31 46  1  0  0  0  0
 31 29  1  0  0  0  0
 32 31  2  0  0  0  0
 33 32  1  0  0  0  0
 33 26  2  0  0  0  0
 34 33  1  0  0  0  0
 35 36  1  0  0  0  0
 35 32  1  0  0  0  0
 36 45  1  0  0  0  0
 37 39  1  0  0  0  0
 37 36  2  0  0  0  0
 38 37  1  0  0  0  0
 39 41  2  0  0  0  0
 40 39  1  0  0  0  0
 41 42  1  0  0  0  0
 41 43  1  0  0  0  0
 43 44  1  0  0  0  0
 45 43  2  0  0  0  0
 45 46  1  0  0  0  0
 46 47  1  0  0  0  0
M  END
>  <minimizedAffinity>
-5.85955048

$$$$

 OpenBabel03252502253D

 47 51  0  0  1  0  0  0  0  0999 V2000
   36.3010   29.0730   39.6640 N   0  0  0  0  0  0  0  0  0  0  0  0
   37.0350   27.9250   40.1640 C   0  0  0  0  0  0  0  0  0  0  0  0
   36.6600   27.8890   41.6610 C   0  0  0  0  0  0  0  0  0  0  0  0
   37.2690   29.0940   42.3330 C   0  0  0  0  0  0  0  0  0  0  0  0
   37.0860   30.3620   41.5890 C   0  0  0  0  0  0  0  0  0  0  0  0
   36.1890   30.3090   40.3960 C   0  0  1  0  0  0  0  0  0  0  0  0
   38.1260   28.0940   40.0700 H   0  0  0  0  0  0  0  0  0  0  0  0
   36.6790   27.0130   39.6610 H   0  0  0  0  0  0  0  0  0  0  0  0
   37.0640   26.9710   42.0990 H   0  0  0  0  0  0  0  0  0  0  0  0
   35.5500   27.9650   41.6970 H   0  0  0  0  0  0  0  0  0  0  0  0
   38.3630   28.8810   42.4260 H   0  0  0  0  0  0  0  0  0  0  0  0
   36.9010   29.1320   43.3820 H   0  0  0  0  0  0  0  0  0  0  0  0
   38.0640   30.8230   41.2970 H   0  0  0  0  0  0  0  0  0  0  0  0
   36.6370   31.1050   42.2890 H   0  0  0  0  0  0  0  0  0  0  0  0
   35.1260   30.4030   40.6870 H   0  0  0  0  0  0  0  0  0  0  0  0
   33.6790   28.8390   36.9980 C   0  0  0  0  0  0  0  0  0  0  0  0
   34.2340   28.8900   38.2830 C   0  0  0  0  0  0  0  0  0  0  0  0
   35.6430   29.0120   38.3880 C   0  0  0  0  0  0  0  0  0  0  0  0
   36.3620   29.0720   37.2410 N   0  0  0  0  0  0  0  0  0  0  0  0
   35.7860   29.0190   36.0160 C   0  0  0  0  0  0  0  0  0  0  0  0
   34.4410   28.9020   35.9060 N   0  0  0  0  0  0  0  0  0  0  0  0
   32.6000   28.7450   37.0630 H   0  0  0  0  0  0  0  0  0  0  0  0
   33.6940   28.8460   39.2130 H   0  0  0  0  0  0  0  0  0  0  0  0
   36.3660   29.0680   35.1140 H   0  0  0  0  0  0  0  0  0  0  0  0
   36.5200   31.3710   39.5570 O   0  0  0  0  0  0  0  0  0  0  0  0
   37.7130   32.0680   39.5250 C   0  0  0  0  0  0  0  0  0  0  0  0
   38.0460   33.2720   40.1070 C   0  0  0  0  0  0  0  0  0  0  0  0
   37.2630   33.7290   40.6630 H   0  0  0  0  0  0  0  0  0  0  0  0
   39.3170   33.7740   39.9330 C   0  0  0  0  0  0  0  0  0  0  0  0
   39.4740   34.7380   40.4390 H   0  0  0  0  0  0  0  0  0  0  0  0
   40.3140   33.1600   39.2060 C   0  0  0  0  0  0  0  0  0  0  0  0
   39.9810   31.9610   38.6270 C   0  0  0  0  0  0  0  0  0  0  0  0
   38.7260   31.4450   38.7870 C   0  0  0  0  0  0  0  0  0  0  0  0
   38.5540   30.4830   38.2880 H   0  0  0  0  0  0  0  0  0  0  0  0
   41.2220   31.1100   37.6710 S   0  0  0  0  0  0  0  0  0  0  0  0
   42.6740   32.1250   37.7310 C   0  0  0  0  0  0  0  0  0  0  0  0
   43.7600   31.6560   37.0550 C   0  0  0  0  0  0  0  0  0  0  0  0
   43.7640   30.7340   36.5150 H   0  0  0  0  0  0  0  0  0  0  0  0
   44.9320   32.3880   37.0520 C   0  0  0  0  0  0  0  0  0  0  0  0
   45.8490   32.1070   36.5500 H   0  0  0  0  0  0  0  0  0  0  0  0
   44.9620   33.5830   37.7410 C   0  0  0  0  0  0  0  0  0  0  0  0
   45.8630   34.1810   37.7590 H   0  0  0  0  0  0  0  0  0  0  0  0
   43.8250   33.9990   38.4030 C   0  0  0  0  0  0  0  0  0  0  0  0
   43.9180   34.9580   38.9310 H   0  0  0  0  0  0  0  0  0  0  0  0
   42.6340   33.3020   38.4350 C   0  0  0  0  0  0  0  0  0  0  0  0
   41.5510   33.8350   39.1450 N   0  0  0  0  0  0  0  0  0  0  0  0
   41.6850   34.7460   39.6300 H   0  0  0  0  0  0  0  0  0  0  0  0
  1  2  1  0  0  0  0
  1  6  1  0  0  0  0
  2  3  1  0  0  0  0
  3 10  1  0  0  0  0
  3  9  1  0  0  0  0
  3  4  1  0  0  0  0
  4 11  1  0  0  0  0
  4 12  1  0  0  0  0
  5 14  1  0  0  0  0
  5  4  1  0  0  0  0
  6 15  1  1  0  0  0
  6  5  1  0  0  0  0
  7  2  1  0  0  0  0
  8  2  1  0  0  0  0
 13  5  1  0  0  0  0
 16 22  1  0  0  0  0
 16 17  1  0  0  0  0
 17 18  2  0  0  0  0
 17 23  1  0  0  0  0
 18  1  1  0  0  0  0
 19 18  1  0  0  0  0
 20 19  2  0  0  0  0
 21 20  1  0  0  0  0
 21 16  2  0  0  0  0
 24 20  1  0  0  0  0
 25  6  1  0  0  0  0
 26 25  1  0  0  0  0
 26 27  1  0  0  0  0
 27 28  1  0  0  0  0
 29 27  2  0  0  0  0
 29 30  1  0  0  0  0
 31 29  1  0  0  0  0
 32 33  1  0  0  0  0
 32 31  2  0  0  0  0
 33 26  2  0  0  0  0
 34 33  1  0  0  0  0
 35 36  1  0  0  0  0
 35 32  1  0  0  0  0
 36 45  1  0  0  0  0
 37 36  2  0  0  0  0
 38 37  1  0  0  0  0
 39 37  1  0  0  0  0
 39 41  2  0  0  0  0
 40 39  1  0  0  0  0
 41 42  1  0  0  0  0
 41 43  1  0  0  0  0
 43 45  2  0  0  0  0
 43 44  1  0  0  0  0
 45 46  1  0  0  0  0
 46 31  1  0  0  0  0
 46 47  1  0  0  0  0
M  END
>  <minimizedAffinity>
-5.8543725

$$$$
