
 OpenBabel03252506353D

 46 50  0  0  1  0  0  0  0  0999 V2000
   44.5010   35.6040   45.1290 C   0  0  0  0  0  0  0  0  0  0  0  0
   45.1320   35.6240   43.8770 C   0  0  0  0  0  0  0  0  0  0  0  0
   46.0510   34.6540   43.5720 C   0  0  0  0  0  0  0  0  0  0  0  0
   46.2860   33.7210   44.5370 N   0  0  0  0  0  0  0  0  0  0  0  0
   45.6800   33.7130   45.7240 C   0  0  0  0  0  0  0  0  0  0  0  0
   44.7750   34.6510   46.0520 N   0  0  0  0  0  0  0  0  0  0  0  0
   46.0210   32.6810   46.6380 N   0  0  0  0  0  0  0  0  0  0  0  0
   45.2530   32.3740   47.8470 C   0  0  0  0  0  0  0  0  0  0  0  0
   46.3550   32.0170   48.8210 C   0  0  0  0  0  0  0  0  0  0  0  0
   47.6270   31.8890   48.0240 C   0  0  0  0  0  0  0  0  0  0  0  0
   47.1190   31.7540   46.6080 C   0  0  1  0  0  0  0  0  0  0  0  0
   43.7750   36.3710   45.3670 H   0  0  0  0  0  0  0  0  0  0  0  0
   46.5270   34.6730   42.6200 H   0  0  0  0  0  0  0  0  0  0  0  0
   44.7980   33.3090   48.2400 H   0  0  0  0  0  0  0  0  0  0  0  0
   44.5020   31.5960   47.7030 H   0  0  0  0  0  0  0  0  0  0  0  0
   46.1280   30.9820   49.1920 H   0  0  0  0  0  0  0  0  0  0  0  0
   46.4260   32.6920   49.6850 H   0  0  0  0  0  0  0  0  0  0  0  0
   48.2190   31.0040   48.3490 H   0  0  0  0  0  0  0  0  0  0  0  0
   48.1840   32.8440   48.1490 H   0  0  0  0  0  0  0  0  0  0  0  0
   47.9130   32.0580   45.8960 H   0  0  0  0  0  0  0  0  0  0  0  0
   44.7540   36.6860   42.9920 N   0  0  0  0  0  0  0  0  0  0  0  0
   44.6830   36.4960   41.9810 H   0  0  0  0  0  0  0  0  0  0  0  0
   44.5510   37.6370   43.3440 H   0  0  0  0  0  0  0  0  0  0  0  0
   46.6070   30.0490   46.3500 S   0  0  0  0  0  0  0  0  0  0  0  0
   45.3140   29.8710   45.1600 C   0  0  0  0  0  0  0  0  0  0  0  0
   44.3130   28.9550   45.4140 C   0  0  0  0  0  0  0  0  0  0  0  0
   44.3190   28.3490   46.3330 H   0  0  0  0  0  0  0  0  0  0  0  0
   43.2630   28.7680   44.5100 C   0  0  0  0  0  0  0  0  0  0  0  0
   42.5160   28.0350   44.7790 H   0  0  0  0  0  0  0  0  0  0  0  0
   43.1650   29.4760   43.3340 C   0  0  0  0  0  0  0  0  0  0  0  0
   44.1870   30.3700   43.1370 C   0  0  0  0  0  0  0  0  0  0  0  0
   45.2270   30.5940   43.9700 C   0  0  0  0  0  0  0  0  0  0  0  0
   46.0040   31.3050   43.7750 H   0  0  0  0  0  0  0  0  0  0  0  0
   44.1620   31.3400   41.6430 S   0  0  0  0  0  0  0  0  0  0  0  0
   42.7080   30.8600   40.7380 C   0  0  0  0  0  0  0  0  0  0  0  0
   42.4230   31.4500   39.5370 C   0  0  0  0  0  0  0  0  0  0  0  0
   43.0960   32.2170   39.1360 H   0  0  0  0  0  0  0  0  0  0  0  0
   41.3080   31.1170   38.7880 C   0  0  0  0  0  0  0  0  0  0  0  0
   41.0820   31.5810   37.8410 H   0  0  0  0  0  0  0  0  0  0  0  0
   40.4730   30.1500   39.3050 C   0  0  0  0  0  0  0  0  0  0  0  0
   39.5930   29.8690   38.7430 H   0  0  0  0  0  0  0  0  0  0  0  0
   40.7950   29.5810   40.5180 C   0  0  0  0  0  0  0  0  0  0  0  0
   40.0730   28.8220   40.8480 H   0  0  0  0  0  0  0  0  0  0  0  0
   41.8980   29.8940   41.2810 C   0  0  0  0  0  0  0  0  0  0  0  0
   42.0630   29.2080   42.4990 N   0  0  0  0  0  0  0  0  0  0  0  0
   41.3680   28.4970   42.7860 H   0  0  0  0  0  0  0  0  0  0  0  0
  1 12  1  0  0  0  0
  1  6  1  0  0  0  0
  2  1  2  0  0  0  0
  3  2  1  0  0  0  0
  3  4  2  0  0  0  0
  4  5  1  0  0  0  0
  5  6  2  0  0  0  0
  5  7  1  0  0  0  0
  7  8  1  0  0  0  0
  8 14  1  0  0  0  0
  8  9  1  0  0  0  0
  9 16  1  0  0  0  0
  9 17  1  0  0  0  0
 10 19  1  0  0  0  0
 10 18  1  0  0  0  0
 10  9  1  0  0  0  0
 11 20  1  6  0  0  0
 11  7  1  0  0  0  0
 11 10  1  0  0  0  0
 13  3  1  0  0  0  0
 15  8  1  0  0  0  0
 21 23  1  0  0  0  0
 21  2  1  0  0  0  0
 22 21  1  0  0  0  0
 24 11  1  0  0  0  0
 25 26  1  0  0  0  0
 25 24  1  0  0  0  0
 26 27  1  0  0  0  0
 28 29  1  0  0  0  0
 28 26  2  0  0  0  0
 30 28  1  0  0  0  0
 31 30  2  0  0  0  0
 31 32  1  0  0  0  0
 32 25  2  0  0  0  0
 33 32  1  0  0  0  0
 34 31  1  0  0  0  0
 35 44  1  0  0  0  0
 35 34  1  0  0  0  0
 36 35  2  0  0  0  0
 37 36  1  0  0  0  0
 38 40  2  0  0  0  0
 38 36  1  0  0  0  0
 39 38  1  0  0  0  0
 40 42  1  0  0  0  0
 41 40  1  0  0  0  0
 42 43  1  0  0  0  0
 42 44  2  0  0  0  0
 44 45  1  0  0  0  0
 45 46  1  0  0  0  0
 45 30  1  0  0  0  0
M  END
>  <minimizedAffinity>
-5.89202023

>  <minimizedRMSD>
1.73260438

$$$$
