REMARK  Name = 
REMARK  2 active torsions:
REMARK  status: ('A' for Active; 'I' for Inactive)
REMARK    1  A    between atoms: C_2  and  S_7
REMARK    2  A    between atoms: S_7  and  C_11
REMARK                            x       y       z     vdW  Elec       q    Type
REMARK                         _______ _______ _______ _____ _____    ______ ____
ROOT
ATOM      1  C   UNL     1      42.120  34.869  41.413  0.00  0.00    +0.000 A 
ATOM      2  C   UNL     1      41.047  35.721  41.566  0.00  0.00    +0.000 A 
ATOM      3  H   UNL     1      41.208  36.770  41.764  0.00  0.00    +0.000 HD
ATOM      4  C   UNL     1      39.778  35.189  41.457  0.00  0.00    +0.000 A 
ATOM      5  H   UNL     1      38.975  35.911  41.587  0.00  0.00    +0.000 HD
ATOM      6  C   UNL     1      39.481  33.865  41.206  0.00  0.00    +0.000 A 
ATOM      7  C   UNL     1      40.586  33.063  41.062  0.00  0.00    +0.000 A 
ATOM      8  C   UNL     1      41.864  33.541  41.161  0.00  0.00    +0.000 A 
ATOM      9  H   UNL     1      42.723  32.890  41.044  0.00  0.00    +0.000 HD
ATOM     10  S   UNL     1      40.355  31.332  40.735  0.00  0.00    +0.000 S 
ATOM     11  C   UNL     1      38.594  31.070  40.673  0.00  0.00    +0.000 A 
ATOM     12  C   UNL     1      38.111  29.830  40.437  0.00  0.00    +0.000 A 
ATOM     13  H   UNL     1      38.804  28.990  40.283  0.00  0.00    +0.000 HD
ATOM     14  C   UNL     1      36.749  29.550  40.375  0.00  0.00    +0.000 A 
ATOM     15  H   UNL     1      36.386  28.561  40.186  0.00  0.00    +0.000 HD
ATOM     16  C   UNL     1      35.903  30.619  40.570  0.00  0.00    +0.000 A 
ATOM     17  H   UNL     1      34.840  30.422  40.526  0.00  0.00    +0.000 HD
ATOM     18  C   UNL     1      36.426  31.858  40.807  0.00  0.00    +0.000 A 
ATOM     19  H   UNL     1      35.677  32.644  40.950  0.00  0.00    +0.000 HD
ATOM     20  C   UNL     1      37.771  32.152  40.871  0.00  0.00    +0.000 A 
ATOM     21  N   UNL     1      38.148  33.481  41.124  0.00  0.00    +0.000 N 
ATOM     22  H   UNL     1      37.406  34.200  41.254  0.00  0.00    +0.000 HD
ENDROOT
BRANCH   1  23
ATOM     23  S   UNL     1      43.803  35.456  41.535  0.00  0.00    +0.000 S 
BRANCH  23  25
ATOM     24  C   UNL     1      44.266  35.735  44.260  0.00  0.00    +0.000 A 
ATOM     25  C   UNL     1      44.425  34.907  43.123  0.00  0.00    +0.000 A 
ATOM     26  C   UNL     1      45.064  33.685  43.283  0.00  0.00    +0.000 A 
ATOM     27  N   UNL     1      45.512  33.329  44.519  0.00  0.00    +0.000 NA
ATOM     28  C   UNL     1      45.340  34.151  45.584  0.00  0.00    +0.000 A 
ATOM     29  N   UNL     1      44.728  35.336  45.466  0.00  0.00    +0.000 NA
ATOM     30  H   UNL     1      43.773  36.673  44.129  0.00  0.00    +0.000 HD
ATOM     31  H   UNL     1      45.197  33.041  42.440  0.00  0.00    +0.000 HD
ATOM     32  H   UNL     1      45.745  33.738  46.499  0.00  0.00    +0.000 HD
ENDBRANCH  23  25
ENDBRANCH   1  23
TORSDOF 2
