
 OpenBabel03242517433D

 32 35  0  0  0  0  0  0  0  0999 V2000
   42.1760   34.7210   41.3990 C   0  0  0  0  0  0  0  0  0  0  0  0
   40.9800   35.3780   41.2030 C   0  0  0  0  0  0  0  0  0  0  0  0
   40.9580   36.4550   41.1130 H   0  0  0  0  0  0  0  0  0  0  0  0
   39.8310   34.6190   41.1270 C   0  0  0  0  0  0  0  0  0  0  0  0
   38.9200   35.1940   40.9720 H   0  0  0  0  0  0  0  0  0  0  0  0
   39.7670   33.2440   41.2290 C   0  0  0  0  0  0  0  0  0  0  0  0
   40.9850   32.6430   41.4240 C   0  0  0  0  0  0  0  0  0  0  0  0
   42.1540   33.3500   41.5050 C   0  0  0  0  0  0  0  0  0  0  0  0
   43.1060   32.8550   41.6590 H   0  0  0  0  0  0  0  0  0  0  0  0
   41.0580   30.8740   41.5740 S   0  0  0  0  0  0  0  0  0  0  0  0
   39.3790   30.2950   41.4210 C   0  0  0  0  0  0  0  0  0  0  0  0
   39.1200   28.9720   41.4960 C   0  0  0  0  0  0  0  0  0  0  0  0
   39.9410   28.2570   41.6520 H   0  0  0  0  0  0  0  0  0  0  0  0
   37.8350   28.4470   41.3860 C   0  0  0  0  0  0  0  0  0  0  0  0
   37.6490   27.3940   41.4480 H   0  0  0  0  0  0  0  0  0  0  0  0
   36.8240   29.3610   41.1920 C   0  0  0  0  0  0  0  0  0  0  0  0
   35.8180   28.9730   41.1030 H   0  0  0  0  0  0  0  0  0  0  0  0
   37.1230   30.6910   41.1200 C   0  0  0  0  0  0  0  0  0  0  0  0
   36.2550   31.3400   40.9650 H   0  0  0  0  0  0  0  0  0  0  0  0
   38.3890   31.2270   41.2280 C   0  0  0  0  0  0  0  0  0  0  0  0
   38.5290   32.6210   41.1320 N   0  0  0  0  0  0  0  0  0  0  0  0
   37.6790   33.2050   40.9830 H   0  0  0  0  0  0  0  0  0  0  0  0
   43.7220   35.6100   41.5110 S   0  0  0  0  0  0  0  0  0  0  0  0
   44.1840   35.6250   44.2500 C   0  0  0  0  0  0  0  0  0  0  0  0
   44.5320   35.0460   43.0060 C   0  0  0  0  0  0  0  0  0  0  0  0
   45.4990   34.0490   42.9910 C   0  0  0  0  0  0  0  0  0  0  0  0
   46.0740   33.6670   44.1650 N   0  0  0  0  0  0  0  0  0  0  0  0
   45.7130   34.2470   45.3370 C   0  0  0  0  0  0  0  0  0  0  0  0
   44.7840   35.2100   45.3880 N   0  0  0  0  0  0  0  0  0  0  0  0
   43.4400   36.3900   44.2540 H   0  0  0  0  0  0  0  0  0  0  0  0
   45.7790   33.5960   42.0650 H   0  0  0  0  0  0  0  0  0  0  0  0
   46.2520   33.8440   46.1850 H   0  0  0  0  0  0  0  0  0  0  0  0
  1  8  1  0  0  0  0
  1 23  1  0  0  0  0
  2  1  2  0  0  0  0
  3  2  1  0  0  0  0
  4  2  1  0  0  0  0
  4  6  2  0  0  0  0
  5  4  1  0  0  0  0
  6  7  1  0  0  0  0
  7  8  2  0  0  0  0
  7 10  1  0  0  0  0
  8  9  1  0  0  0  0
 11 12  1  0  0  0  0
 11 10  1  0  0  0  0
 12 13  1  0  0  0  0
 14 15  1  0  0  0  0
 14 12  2  0  0  0  0
 16 14  1  0  0  0  0
 17 16  1  0  0  0  0
 18 16  2  0  0  0  0
 18 20  1  0  0  0  0
 19 18  1  0  0  0  0
 20 11  2  0  0  0  0
 21 20  1  0  0  0  0
 21  6  1  0  0  0  0
 22 21  1  0  0  0  0
 23 25  1  0  0  0  0
 24 30  1  0  0  0  0
 24 29  1  0  0  0  0
 25 24  2  0  0  0  0
 26 25  1  0  0  0  0
 26 27  2  0  0  0  0
 27 28  1  0  0  0  0
 28 29  2  0  0  0  0
 28 32  1  0  0  0  0
 31 26  1  0  0  0  0
M  END
>  <minimizedAffinity>
-5.65502119

>  <minimizedRMSD>
1.2578851

$$$$
