
 OpenBabel03242523113D

 59 65  0  0  1  0  0  0  0  0999 V2000
   45.9450   31.5450   44.6880 C   0  0  0  0  0  0  0  0  0  0  0  0
   46.7000   32.5880   44.1090 C   0  0  0  0  0  0  0  0  0  0  0  0
   47.9400   32.1450   43.7140 C   0  0  0  0  0  0  0  0  0  0  0  0
   48.4200   30.8800   43.8470 C   0  0  0  0  0  0  0  0  0  0  0  0
   47.6120   29.9090   44.4330 C   0  0  0  0  0  0  0  0  0  0  0  0
   46.3550   30.2510   44.8580 C   0  0  0  0  0  0  0  0  0  0  0  0
   48.3790   28.7550   44.4240 O   0  0  0  0  0  0  0  0  0  0  0  0
   49.6200   28.9970   43.7910 C   0  0  2  0  0  0  0  0  0  0  0  0
   49.6530   30.3820   43.4680 O   0  0  0  0  0  0  0  0  0  0  0  0
   44.9110   31.5590   45.0950 H   0  0  0  0  0  0  0  0  0  0  0  0
   48.5160   32.9010   43.2810 H   0  0  0  0  0  0  0  0  0  0  0  0
   45.8380   29.4350   45.2830 H   0  0  0  0  0  0  0  0  0  0  0  0
   50.4590   28.7440   44.4750 H   0  0  0  0  0  0  0  0  0  0  0  0
   45.1740   35.9610   43.5320 C   0  0  0  0  0  0  0  0  0  0  0  0
   45.9230   34.8310   43.2060 C   0  0  0  0  0  0  0  0  0  0  0  0
   46.0480   33.8230   44.1140 C   0  0  0  0  0  0  0  0  0  0  0  0
   45.4180   33.9880   45.3180 N   0  0  0  0  0  0  0  0  0  0  0  0
   44.6990   35.0730   45.6290 C   0  0  0  0  0  0  0  0  0  0  0  0
   44.5830   36.0360   44.7510 N   0  0  0  0  0  0  0  0  0  0  0  0
   45.0680   36.7640   42.8210 H   0  0  0  0  0  0  0  0  0  0  0  0
   44.1800   35.2610   46.5580 H   0  0  0  0  0  0  0  0  0  0  0  0
   46.5360   34.8110   41.9530 N   0  0  0  0  0  0  0  0  0  0  0  0
   47.8580   35.3120   41.7480 C   0  0  0  0  0  0  0  0  0  0  0  0
   48.4270   35.0540   40.3820 C   0  0  0  0  0  0  0  0  0  0  0  0
   48.1120   33.8140   39.8400 N   0  0  0  0  0  0  0  0  0  0  0  0
   46.8380   33.3450   40.0060 C   0  0  0  0  0  0  0  0  0  0  0  0
   45.9690   34.3230   40.7600 C   0  0  0  0  0  0  0  0  0  0  0  0
   48.5930   34.9990   42.5260 H   0  0  0  0  0  0  0  0  0  0  0  0
   47.7950   36.4290   41.8720 H   0  0  0  0  0  0  0  0  0  0  0  0
   48.0070   35.8520   39.7040 H   0  0  0  0  0  0  0  0  0  0  0  0
   49.5130   35.2800   40.4230 H   0  0  0  0  0  0  0  0  0  0  0  0
   48.7560   33.3750   39.1850 H   0  0  0  0  0  0  0  0  0  0  0  0
   46.7290   32.3400   40.4880 H   0  0  0  0  0  0  0  0  0  0  0  0
   46.3430   33.2020   39.0010 H   0  0  0  0  0  0  0  0  0  0  0  0
   45.0440   33.7440   41.0340 H   0  0  0  0  0  0  0  0  0  0  0  0
   45.6480   35.0960   40.0200 H   0  0  0  0  0  0  0  0  0  0  0  0
   49.6340   28.2520   42.6080 O   0  0  0  0  0  0  0  0  0  0  0  0
   50.1090   28.6330   41.3860 C   0  0  0  0  0  0  0  0  0  0  0  0
   51.4210   28.6270   40.9630 C   0  0  0  0  0  0  0  0  0  0  0  0
   52.1580   28.2840   41.6750 H   0  0  0  0  0  0  0  0  0  0  0  0
   51.7140   29.0510   39.6850 C   0  0  0  0  0  0  0  0  0  0  0  0
   52.7780   29.0140   39.4320 H   0  0  0  0  0  0  0  0  0  0  0  0
   50.7750   29.4880   38.7810 C   0  0  0  0  0  0  0  0  0  0  0  0
   49.4890   29.4890   39.2100 C   0  0  0  0  0  0  0  0  0  0  0  0
   49.1670   29.0810   40.4530 C   0  0  0  0  0  0  0  0  0  0  0  0
   48.1040   29.1050   40.7400 H   0  0  0  0  0  0  0  0  0  0  0  0
   48.2150   30.0420   38.0920 S   0  0  0  0  0  0  0  0  0  0  0  0
   49.0690   30.4790   36.5880 C   0  0  0  0  0  0  0  0  0  0  0  0
   48.2550   30.9370   35.5840 C   0  0  0  0  0  0  0  0  0  0  0  0
   47.1640   31.0400   35.6610 H   0  0  0  0  0  0  0  0  0  0  0  0
   48.8210   31.3040   34.3730 C   0  0  0  0  0  0  0  0  0  0  0  0
   48.2550   31.6750   33.5290 H   0  0  0  0  0  0  0  0  0  0  0  0
   50.1870   31.1950   34.2180 C   0  0  0  0  0  0  0  0  0  0  0  0
   50.6430   31.4780   33.2790 H   0  0  0  0  0  0  0  0  0  0  0  0
   50.9240   30.7240   35.2860 C   0  0  0  0  0  0  0  0  0  0  0  0
   52.0050   30.6680   35.0810 H   0  0  0  0  0  0  0  0  0  0  0  0
   50.4120   30.3460   36.5100 C   0  0  0  0  0  0  0  0  0  0  0  0
   51.2510   29.8830   37.5230 N   0  0  0  0  0  0  0  0  0  0  0  0
   52.2680   29.8410   37.2970 H   0  0  0  0  0  0  0  0  0  0  0  0
  1  6  1  0  0  0  0
  1 10  1  0  0  0  0
  2 16  1  0  0  0  0
  2  1  2  0  0  0  0
  3  4  2  0  0  0  0
  3  2  1  0  0  0  0
  4  5  1  0  0  0  0
  5  6  2  0  0  0  0
  6 12  1  0  0  0  0
  7  5  1  0  0  0  0
  8  7  1  0  0  0  0
  8 13  1  1  0  0  0
  9  8  1  0  0  0  0
  9  4  1  0  0  0  0
 11  3  1  0  0  0  0
 14 19  1  0  0  0  0
 15 14  2  0  0  0  0
 15 16  1  0  0  0  0
 16 17  2  0  0  0  0
 17 18  1  0  0  0  0
 18 21  1  0  0  0  0
 19 18  2  0  0  0  0
 20 14  1  0  0  0  0
 22 15  1  0  0  0  0
 23 29  1  0  0  0  0
 23 22  1  0  0  0  0
 23 28  1  0  0  0  0
 24 31  1  0  0  0  0
 24 23  1  0  0  0  0
 25 26  1  0  0  0  0
 25 24  1  0  0  0  0
 26 33  1  0  0  0  0
 26 27  1  0  0  0  0
 27 35  1  0  0  0  0
 27 22  1  0  0  0  0
 30 24  1  0  0  0  0
 32 25  1  0  0  0  0
 34 26  1  0  0  0  0
 36 27  1  0  0  0  0
 37  8  1  0  0  0  0
 38 37  1  0  0  0  0
 39 38  1  0  0  0  0
 39 40  1  0  0  0  0
 41 39  2  0  0  0  0
 42 41  1  0  0  0  0
 43 44  2  0  0  0  0
 43 41  1  0  0  0  0
 44 45  1  0  0  0  0
 45 46  1  0  0  0  0
 45 38  2  0  0  0  0
 47 44  1  0  0  0  0
 48 47  1  0  0  0  0
 49 50  1  0  0  0  0
 49 48  2  0  0  0  0
 51 49  1  0  0  0  0
 52 51  1  0  0  0  0
 53 51  2  0  0  0  0
 53 55  1  0  0  0  0
 54 53  1  0  0  0  0
 55 57  2  0  0  0  0
 56 55  1  0  0  0  0
 57 48  1  0  0  0  0
 57 58  1  0  0  0  0
 58 43  1  0  0  0  0
 59 58  1  0  0  0  0
M  END
>  <minimizedAffinity>
-5.42655516

>  <minimizedRMSD>
4.46958208

$$$$
