
 OpenBabel03252506133D

 49 53  0  0  0  0  0  0  0  0999 V2000
   48.1300   34.6310   37.0740 O   0  0  0  0  0  0  0  0  0  0  0  0
   47.2640   33.4100   37.2620 P   0  0  2  0  0  0  0  0  0  0  0  0
   45.9210   33.4630   36.2120 O   0  0  0  0  0  0  0  0  0  0  0  0
   45.9850   34.2780   35.6910 H   0  0  0  0  0  0  0  0  0  0  0  0
   46.6920   33.2720   38.8400 O   0  0  0  0  0  0  0  0  0  0  0  0
   45.1920   33.4220   41.2200 F   0  0  0  0  0  0  0  0  0  0  0  0
   46.3560   34.0360   41.0860 C   0  0  0  0  0  0  0  0  0  0  0  0
   46.8540   34.7720   42.1440 C   0  0  0  0  0  0  0  0  0  0  0  0
   48.0760   35.4530   42.0950 C   0  0  0  0  0  0  0  0  0  0  0  0
   48.8380   35.3920   40.9270 C   0  0  0  0  0  0  0  0  0  0  0  0
   48.3130   34.6480   39.8940 C   0  0  0  0  0  0  0  0  0  0  0  0
   47.1270   33.9830   39.9280 C   0  0  0  0  0  0  0  0  0  0  0  0
   48.3990   36.0140   42.9750 H   0  0  0  0  0  0  0  0  0  0  0  0
   49.7720   35.9310   40.9350 H   0  0  0  0  0  0  0  0  0  0  0  0
   49.0010   34.6760   39.0570 H   0  0  0  0  0  0  0  0  0  0  0  0
   45.6650   34.0580   45.5420 C   0  0  0  0  0  0  0  0  0  0  0  0
   44.6800   35.0460   45.7200 C   0  0  0  0  0  0  0  0  0  0  0  0
   44.4220   35.9660   44.6620 C   0  0  0  0  0  0  0  0  0  0  0  0
   45.1690   35.8150   43.5250 N   0  0  0  0  0  0  0  0  0  0  0  0
   46.0950   34.8650   43.3970 C   0  0  0  0  0  0  0  0  0  0  0  0
   46.3380   33.9980   44.3940 N   0  0  0  0  0  0  0  0  0  0  0  0
   44.1090   35.1460   46.6120 H   0  0  0  0  0  0  0  0  0  0  0  0
   43.6710   36.7350   44.7680 H   0  0  0  0  0  0  0  0  0  0  0  0
   45.9070   33.1530   46.6040 N   0  0  0  0  0  0  0  0  0  0  0  0
   45.7410   32.1160   46.6770 H   0  0  0  0  0  0  0  0  0  0  0  0
   46.3170   33.4190   47.5300 H   0  0  0  0  0  0  0  0  0  0  0  0
   48.1430   32.0490   36.7620 O   0  0  0  0  0  0  0  0  0  0  0  0
   47.5030   31.1200   35.9520 C   0  0  0  0  0  0  0  0  0  0  0  0
   46.5960   30.2670   36.5500 C   0  0  0  0  0  0  0  0  0  0  0  0
   46.4020   30.3340   37.6160 H   0  0  0  0  0  0  0  0  0  0  0  0
   45.9480   29.3340   35.7600 C   0  0  0  0  0  0  0  0  0  0  0  0
   45.2400   28.6900   36.3070 H   0  0  0  0  0  0  0  0  0  0  0  0
   46.1430   29.1910   34.4010 C   0  0  0  0  0  0  0  0  0  0  0  0
   47.0380   30.0430   33.8500 C   0  0  0  0  0  0  0  0  0  0  0  0
   47.6880   30.9640   34.5890 C   0  0  0  0  0  0  0  0  0  0  0  0
   48.4130   31.6510   34.1250 H   0  0  0  0  0  0  0  0  0  0  0  0
   47.3510   29.9260   32.1000 S   0  0  0  0  0  0  0  0  0  0  0  0
   46.3060   28.6040   31.5140 C   0  0  0  0  0  0  0  0  0  0  0  0
   46.3710   28.3200   30.1720 C   0  0  0  0  0  0  0  0  0  0  0  0
   47.0240   28.8690   29.5000 H   0  0  0  0  0  0  0  0  0  0  0  0
   45.6010   27.3180   29.6310 C   0  0  0  0  0  0  0  0  0  0  0  0
   45.6420   27.0850   28.5890 H   0  0  0  0  0  0  0  0  0  0  0  0
   44.7760   26.6210   30.4750 C   0  0  0  0  0  0  0  0  0  0  0  0
   44.1740   25.8340   30.0450 H   0  0  0  0  0  0  0  0  0  0  0  0
   44.7540   26.9490   31.8020 C   0  0  0  0  0  0  0  0  0  0  0  0
   44.0640   26.3350   32.3900 H   0  0  0  0  0  0  0  0  0  0  0  0
   45.5010   27.9420   32.4020 C   0  0  0  0  0  0  0  0  0  0  0  0
   45.4000   28.1940   33.7690 N   0  0  0  0  0  0  0  0  0  0  0  0
   44.7350   27.5920   34.2970 H   0  0  0  0  0  0  0  0  0  0  0  0
  2  1  2  6  0  0  0
  2  5  1  0  0  0  0
  3  2  1  0  0  0  0
  4  3  1  0  0  0  0
  5 12  1  0  0  0  0
  7  6  1  0  0  0  0
  7  8  1  0  0  0  0
  8 20  1  0  0  0  0
  9  8  2  0  0  0  0
  9 13  1  0  0  0  0
 10 14  1  0  0  0  0
 10  9  1  0  0  0  0
 11 12  1  0  0  0  0
 11 10  2  0  0  0  0
 12  7  2  0  0  0  0
 15 11  1  0  0  0  0
 16 17  1  0  0  0  0
 16 24  1  0  0  0  0
 17 22  1  0  0  0  0
 18 23  1  0  0  0  0
 18 17  2  0  0  0  0
 19 18  1  0  0  0  0
 20 19  2  0  0  0  0
 20 21  1  0  0  0  0
 21 16  2  0  0  0  0
 24 25  1  0  0  0  0
 24 26  1  0  0  0  0
 27  2  1  0  0  0  0
 28 29  1  0  0  0  0
 28 27  1  0  0  0  0
 29 30  1  0  0  0  0
 31 32  1  0  0  0  0
 31 29  2  0  0  0  0
 33 31  1  0  0  0  0
 34 33  2  0  0  0  0
 34 35  1  0  0  0  0
 35 28  2  0  0  0  0
 36 35  1  0  0  0  0
 37 34  1  0  0  0  0
 38 37  1  0  0  0  0
 38 47  1  0  0  0  0
 39 38  2  0  0  0  0
 40 39  1  0  0  0  0
 41 39  1  0  0  0  0
 41 43  2  0  0  0  0
 42 41  1  0  0  0  0
 43 45  1  0  0  0  0
 44 43  1  0  0  0  0
 45 46  1  0  0  0  0
 45 47  2  0  0  0  0
 47 48  1  0  0  0  0
 48 49  1  0  0  0  0
 48 33  1  0  0  0  0
M  END
>  <minimizedAffinity>
-7.43619633

>  <minimizedRMSD>
2.24960041

$$$$
