
 OpenBabel03252502243D

 47 51  0  0  1  0  0  0  0  0999 V2000
   46.9820   34.6390   42.3310 N   0  0  0  0  0  0  0  0  0  0  0  0
   48.4180   34.8450   42.3960 C   0  0  0  0  0  0  0  0  0  0  0  0
   48.7160   35.6570   41.1160 C   0  0  0  0  0  0  0  0  0  0  0  0
   48.4780   34.7670   39.9220 C   0  0  0  0  0  0  0  0  0  0  0  0
   47.2200   33.9880   39.9860 C   0  0  0  0  0  0  0  0  0  0  0  0
   46.2910   34.3150   41.1090 C   0  0  1  0  0  0  0  0  0  0  0  0
   48.9490   33.8740   42.3380 H   0  0  0  0  0  0  0  0  0  0  0  0
   48.6660   35.4380   43.2880 H   0  0  0  0  0  0  0  0  0  0  0  0
   49.7630   35.9760   41.1440 H   0  0  0  0  0  0  0  0  0  0  0  0
   47.9810   36.4920   41.1090 H   0  0  0  0  0  0  0  0  0  0  0  0
   49.3440   34.0600   39.8810 H   0  0  0  0  0  0  0  0  0  0  0  0
   48.5770   35.3850   39.0020 H   0  0  0  0  0  0  0  0  0  0  0  0
   47.4070   32.8840   39.9710 H   0  0  0  0  0  0  0  0  0  0  0  0
   46.6540   34.1770   39.0440 H   0  0  0  0  0  0  0  0  0  0  0  0
   45.6600   35.1910   40.8680 H   0  0  0  0  0  0  0  0  0  0  0  0
   44.4860   35.8300   44.8600 C   0  0  0  0  0  0  0  0  0  0  0  0
   45.2220   35.7920   43.6690 C   0  0  0  0  0  0  0  0  0  0  0  0
   46.1810   34.7580   43.5180 C   0  0  0  0  0  0  0  0  0  0  0  0
   46.3220   33.8710   44.5340 N   0  0  0  0  0  0  0  0  0  0  0  0
   45.5900   33.9420   45.6710 C   0  0  0  0  0  0  0  0  0  0  0  0
   44.6720   34.9280   45.8240 N   0  0  0  0  0  0  0  0  0  0  0  0
   43.7940   36.6660   44.8430 H   0  0  0  0  0  0  0  0  0  0  0  0
   45.1350   36.4780   42.8440 H   0  0  0  0  0  0  0  0  0  0  0  0
   45.7100   33.2350   46.4680 H   0  0  0  0  0  0  0  0  0  0  0  0
   45.4670   33.2130   41.3270 O   0  0  0  0  0  0  0  0  0  0  0  0
   44.1040   33.1380   41.1170 C   0  0  0  0  0  0  0  0  0  0  0  0
   43.2650   34.0120   40.4600 C   0  0  0  0  0  0  0  0  0  0  0  0
   43.7440   34.8700   40.0550 H   0  0  0  0  0  0  0  0  0  0  0  0
   41.9200   33.7200   40.3790 C   0  0  0  0  0  0  0  0  0  0  0  0
   41.3450   34.4830   39.8340 H   0  0  0  0  0  0  0  0  0  0  0  0
   41.3240   32.5990   40.9130 C   0  0  0  0  0  0  0  0  0  0  0  0
   42.1610   31.7290   41.5670 C   0  0  0  0  0  0  0  0  0  0  0  0
   43.4970   31.9990   41.6590 C   0  0  0  0  0  0  0  0  0  0  0  0
   44.0850   31.2480   42.2010 H   0  0  0  0  0  0  0  0  0  0  0  0
   41.4570   30.2570   42.2830 S   0  0  0  0  0  0  0  0  0  0  0  0
   39.7220   30.3150   41.9280 C   0  0  0  0  0  0  0  0  0  0  0  0
   38.9810   29.2690   42.3920 C   0  0  0  0  0  0  0  0  0  0  0  0
   39.3960   28.4510   42.9390 H   0  0  0  0  0  0  0  0  0  0  0  0
   37.6200   29.2380   42.1580 C   0  0  0  0  0  0  0  0  0  0  0  0
   36.9420   28.4590   42.4790 H   0  0  0  0  0  0  0  0  0  0  0  0
   37.0510   30.2790   41.4530 C   0  0  0  0  0  0  0  0  0  0  0  0
   35.9880   30.2880   41.2520 H   0  0  0  0  0  0  0  0  0  0  0  0
   37.8600   31.3070   41.0130 C   0  0  0  0  0  0  0  0  0  0  0  0
   37.3440   32.1030   40.4600 H   0  0  0  0  0  0  0  0  0  0  0  0
   39.2220   31.3810   41.2230 C   0  0  0  0  0  0  0  0  0  0  0  0
   39.9320   32.4790   40.7230 N   0  0  0  0  0  0  0  0  0  0  0  0
   39.4000   33.2090   40.2050 H   0  0  0  0  0  0  0  0  0  0  0  0
  1  2  1  0  0  0  0
  1 18  1  0  0  0  0
  2  8  1  0  0  0  0
  3  9  1  0  0  0  0
  3  2  1  0  0  0  0
  4  5  1  0  0  0  0
  4  3  1  0  0  0  0
  5  6  1  0  0  0  0
  6 15  1  6  0  0  0
  6 25  1  0  0  0  0
  6  1  1  0  0  0  0
  7  2  1  0  0  0  0
 10  3  1  0  0  0  0
 11  4  1  0  0  0  0
 12  4  1  0  0  0  0
 13  5  1  0  0  0  0
 14  5  1  0  0  0  0
 16 21  1  0  0  0  0
 17 16  2  0  0  0  0
 18 17  1  0  0  0  0
 18 19  2  0  0  0  0
 19 20  1  0  0  0  0
 20 21  2  0  0  0  0
 20 24  1  0  0  0  0
 22 16  1  0  0  0  0
 23 17  1  0  0  0  0
 26 25  1  0  0  0  0
 26 33  1  0  0  0  0
 27 26  2  0  0  0  0
 28 27  1  0  0  0  0
 29 27  1  0  0  0  0
 29 31  2  0  0  0  0
 30 29  1  0  0  0  0
 31 32  1  0  0  0  0
 32 33  2  0  0  0  0
 32 35  1  0  0  0  0
 33 34  1  0  0  0  0
 36 35  1  0  0  0  0
 36 37  1  0  0  0  0
 37 38  1  0  0  0  0
 39 37  2  0  0  0  0
 39 40  1  0  0  0  0
 41 39  1  0  0  0  0
 42 41  1  0  0  0  0
 43 45  1  0  0  0  0
 43 41  2  0  0  0  0
 44 43  1  0  0  0  0
 45 36  2  0  0  0  0
 46 31  1  0  0  0  0
 46 45  1  0  0  0  0
 47 46  1  0  0  0  0
M  END
>  <minimizedAffinity>
-7.38412237

>  <minimizedRMSD>
1.67276061

$$$$
