
 OpenBabel03242523133D

 59 65  0  0  1  0  0  0  0  0999 V2000
   37.6890   28.4320   41.9910 C   0  0  0  0  0  0  0  0  0  0  0  0
   37.9100   27.6180   40.8580 C   0  0  0  0  0  0  0  0  0  0  0  0
   37.9830   28.3720   39.7110 C   0  0  0  0  0  0  0  0  0  0  0  0
   37.8590   29.7240   39.6290 C   0  0  0  0  0  0  0  0  0  0  0  0
   37.6380   30.4530   40.7940 C   0  0  0  0  0  0  0  0  0  0  0  0
   37.5530   29.7930   41.9920 C   0  0  0  0  0  0  0  0  0  0  0  0
   37.5560   31.7720   40.3780 O   0  0  0  0  0  0  0  0  0  0  0  0
   37.7800   31.8610   38.9840 C   0  0  2  0  0  0  0  0  0  0  0  0
   37.9260   30.5280   38.5070 O   0  0  0  0  0  0  0  0  0  0  0  0
   37.5930   28.1460   43.0610 H   0  0  0  0  0  0  0  0  0  0  0  0
   38.1470   27.7900   38.8590 H   0  0  0  0  0  0  0  0  0  0  0  0
   37.3860   30.4490   42.8010 H   0  0  0  0  0  0  0  0  0  0  0  0
   36.9180   32.3540   38.4850 H   0  0  0  0  0  0  0  0  0  0  0  0
   38.5670   24.0910   41.9380 C   0  0  0  0  0  0  0  0  0  0  0  0
   38.8290   25.4550   41.8220 C   0  0  0  0  0  0  0  0  0  0  0  0
   37.9540   26.2530   41.1470 C   0  0  0  0  0  0  0  0  0  0  0  0
   36.8490   25.6490   40.6100 N   0  0  0  0  0  0  0  0  0  0  0  0
   36.5990   24.3390   40.7220 C   0  0  0  0  0  0  0  0  0  0  0  0
   37.4440   23.5810   41.3730 N   0  0  0  0  0  0  0  0  0  0  0  0
   39.2530   23.4520   42.4700 H   0  0  0  0  0  0  0  0  0  0  0  0
   35.7480   23.8050   40.3230 H   0  0  0  0  0  0  0  0  0  0  0  0
   40.0100   25.9290   42.3930 N   0  0  0  0  0  0  0  0  0  0  0  0
   40.0920   26.2910   43.7730 C   0  0  0  0  0  0  0  0  0  0  0  0
   41.4760   26.6130   44.2610 C   0  0  0  0  0  0  0  0  0  0  0  0
   42.4840   25.8100   43.7390 N   0  0  0  0  0  0  0  0  0  0  0  0
   42.4260   25.4890   42.4100 C   0  0  0  0  0  0  0  0  0  0  0  0
   41.2360   26.1190   41.7270 C   0  0  0  0  0  0  0  0  0  0  0  0
   39.6100   25.5640   44.4670 H   0  0  0  0  0  0  0  0  0  0  0  0
   39.4760   27.2260   43.8920 H   0  0  0  0  0  0  0  0  0  0  0  0
   41.6830   27.6800   43.9570 H   0  0  0  0  0  0  0  0  0  0  0  0
   41.4410   26.6510   45.3700 H   0  0  0  0  0  0  0  0  0  0  0  0
   43.3240   25.6390   44.2890 H   0  0  0  0  0  0  0  0  0  0  0  0
   42.4370   24.3990   42.1540 H   0  0  0  0  0  0  0  0  0  0  0  0
   43.3370   25.8870   41.8750 H   0  0  0  0  0  0  0  0  0  0  0  0
   41.1650   25.6050   40.7280 H   0  0  0  0  0  0  0  0  0  0  0  0
   41.5180   27.1790   41.5150 H   0  0  0  0  0  0  0  0  0  0  0  0
   38.9850   32.5450   38.8000 O   0  0  0  0  0  0  0  0  0  0  0  0
   39.5180   33.5240   39.5880 C   0  0  0  0  0  0  0  0  0  0  0  0
   38.9240   34.7130   39.9570 C   0  0  0  0  0  0  0  0  0  0  0  0
   37.9260   34.8910   39.5830 H   0  0  0  0  0  0  0  0  0  0  0  0
   39.6200   35.5860   40.7650 C   0  0  0  0  0  0  0  0  0  0  0  0
   39.0760   36.5020   41.0090 H   0  0  0  0  0  0  0  0  0  0  0  0
   40.8890   35.3560   41.2400 C   0  0  0  0  0  0  0  0  0  0  0  0
   41.4620   34.1840   40.8680 C   0  0  0  0  0  0  0  0  0  0  0  0
   40.8100   33.3080   40.0800 C   0  0  0  0  0  0  0  0  0  0  0  0
   41.3290   32.3740   39.8150 H   0  0  0  0  0  0  0  0  0  0  0  0
   43.1090   33.8160   41.4450 S   0  0  0  0  0  0  0  0  0  0  0  0
   43.5810   35.2200   42.4370 C   0  0  0  0  0  0  0  0  0  0  0  0
   44.8360   35.1330   42.9840 C   0  0  0  0  0  0  0  0  0  0  0  0
   45.5210   34.2880   42.8450 H   0  0  0  0  0  0  0  0  0  0  0  0
   45.3000   36.1750   43.7730 C   0  0  0  0  0  0  0  0  0  0  0  0
   46.2740   36.1890   44.2420 H   0  0  0  0  0  0  0  0  0  0  0  0
   44.4820   37.2650   43.9830 C   0  0  0  0  0  0  0  0  0  0  0  0
   44.8290   38.0840   44.5970 H   0  0  0  0  0  0  0  0  0  0  0  0
   43.2340   37.2610   43.3920 C   0  0  0  0  0  0  0  0  0  0  0  0
   42.6450   38.1670   43.6080 H   0  0  0  0  0  0  0  0  0  0  0  0
   42.7240   36.2550   42.5990 C   0  0  0  0  0  0  0  0  0  0  0  0
   41.4480   36.3540   42.0490 N   0  0  0  0  0  0  0  0  0  0  0  0
   40.9150   37.2220   42.2740 H   0  0  0  0  0  0  0  0  0  0  0  0
  1  6  1  0  0  0  0
  1 10  1  0  0  0  0
  2 16  1  0  0  0  0
  2  1  2  0  0  0  0
  3  2  1  0  0  0  0
  4  3  2  0  0  0  0
  4  5  1  0  0  0  0
  5  6  2  0  0  0  0
  6 12  1  0  0  0  0
  7  5  1  0  0  0  0
  8 13  1  6  0  0  0
  8  7  1  0  0  0  0
  9  8  1  0  0  0  0
  9  4  1  0  0  0  0
 11  3  1  0  0  0  0
 14 20  1  0  0  0  0
 15 14  1  0  0  0  0
 15 22  1  0  0  0  0
 16 15  2  0  0  0  0
 17 18  2  0  0  0  0
 17 16  1  0  0  0  0
 18 19  1  0  0  0  0
 19 14  2  0  0  0  0
 21 18  1  0  0  0  0
 22 23  1  0  0  0  0
 23 29  1  0  0  0  0
 23 24  1  0  0  0  0
 23 28  1  0  0  0  0
 24 31  1  0  0  0  0
 25 24  1  0  0  0  0
 25 32  1  0  0  0  0
 26 25  1  0  0  0  0
 27 22  1  0  0  0  0
 27 26  1  0  0  0  0
 30 24  1  0  0  0  0
 33 26  1  0  0  0  0
 34 26  1  0  0  0  0
 35 27  1  0  0  0  0
 36 27  1  0  0  0  0
 37  8  1  0  0  0  0
 37 38  1  0  0  0  0
 38 39  2  0  0  0  0
 38 45  1  0  0  0  0
 39 41  1  0  0  0  0
 40 39  1  0  0  0  0
 41 42  1  0  0  0  0
 41 43  2  0  0  0  0
 43 58  1  0  0  0  0
 44 43  1  0  0  0  0
 44 47  1  0  0  0  0
 45 44  2  0  0  0  0
 46 45  1  0  0  0  0
 47 48  1  0  0  0  0
 48 57  2  0  0  0  0
 48 49  1  0  0  0  0
 49 51  2  0  0  0  0
 50 49  1  0  0  0  0
 51 53  1  0  0  0  0
 51 52  1  0  0  0  0
 53 54  1  0  0  0  0
 55 56  1  0  0  0  0
 55 53  2  0  0  0  0
 57 55  1  0  0  0  0
 58 59  1  0  0  0  0
 58 57  1  0  0  0  0
M  END
>  <minimizedAffinity>
-8.32562733

$$$$

 OpenBabel03242523133D

 59 65  0  0  1  0  0  0  0  0999 V2000
   35.8750   28.2580   38.5860 C   0  0  0  0  0  0  0  0  0  0  0  0
   36.9350   27.6740   39.3150 C   0  0  0  0  0  0  0  0  0  0  0  0
   37.9880   28.5470   39.4470 C   0  0  0  0  0  0  0  0  0  0  0  0
   38.0490   29.8120   38.9530 C   0  0  0  0  0  0  0  0  0  0  0  0
   36.9620   30.3130   38.2420 C   0  0  0  0  0  0  0  0  0  0  0  0
   35.8590   29.5200   38.0590 C   0  0  0  0  0  0  0  0  0  0  0  0
   37.3340   31.5970   37.8800 O   0  0  0  0  0  0  0  0  0  0  0  0
   38.6090   31.9050   38.4100 C   0  0  2  0  0  0  0  0  0  0  0  0
   39.0790   30.7290   39.0580 O   0  0  0  0  0  0  0  0  0  0  0  0
   34.8840   27.8350   38.3140 H   0  0  0  0  0  0  0  0  0  0  0  0
   38.7840   28.1350   39.9840 H   0  0  0  0  0  0  0  0  0  0  0  0
   35.1020   30.0060   37.5070 H   0  0  0  0  0  0  0  0  0  0  0  0
   39.3060   32.1970   37.5950 H   0  0  0  0  0  0  0  0  0  0  0  0
   36.5510   24.2870   40.8690 C   0  0  0  0  0  0  0  0  0  0  0  0
   36.9260   25.6280   40.8200 C   0  0  0  0  0  0  0  0  0  0  0  0
   36.6970   26.3490   39.6870 C   0  0  0  0  0  0  0  0  0  0  0  0
   36.1010   25.6940   38.6420 N   0  0  0  0  0  0  0  0  0  0  0  0
   35.7420   24.4070   38.6910 C   0  0  0  0  0  0  0  0  0  0  0  0
   35.9640   23.7220   39.7850 N   0  0  0  0  0  0  0  0  0  0  0  0
   36.7270   23.7080   41.7620 H   0  0  0  0  0  0  0  0  0  0  0  0
   35.2700   23.8350   37.9040 H   0  0  0  0  0  0  0  0  0  0  0  0
   37.5510   26.1580   41.9490 N   0  0  0  0  0  0  0  0  0  0  0  0
   38.9120   25.8650   42.2680 C   0  0  0  0  0  0  0  0  0  0  0  0
   39.4770   26.6540   43.4160 C   0  0  0  0  0  0  0  0  0  0  0  0
   39.0680   27.9810   43.4720 N   0  0  0  0  0  0  0  0  0  0  0  0
   37.7580   28.2630   43.1990 C   0  0  0  0  0  0  0  0  0  0  0  0
   36.9620   27.0150   42.8990 C   0  0  0  0  0  0  0  0  0  0  0  0
   39.6090   25.9170   41.3990 H   0  0  0  0  0  0  0  0  0  0  0  0
   38.9400   24.7810   42.5700 H   0  0  0  0  0  0  0  0  0  0  0  0
   39.1330   26.1400   44.3590 H   0  0  0  0  0  0  0  0  0  0  0  0
   40.5770   26.5070   43.4160 H   0  0  0  0  0  0  0  0  0  0  0  0
   39.6830   28.6780   43.8890 H   0  0  0  0  0  0  0  0  0  0  0  0
   37.5610   29.0040   42.3840 H   0  0  0  0  0  0  0  0  0  0  0  0
   37.2670   28.7350   44.0990 H   0  0  0  0  0  0  0  0  0  0  0  0
   35.9890   27.3820   42.4700 H   0  0  0  0  0  0  0  0  0  0  0  0
   36.7150   26.5530   43.8860 H   0  0  0  0  0  0  0  0  0  0  0  0
   38.4300   32.9110   39.3640 O   0  0  0  0  0  0  0  0  0  0  0  0
   39.3840   33.7070   39.9290 C   0  0  0  0  0  0  0  0  0  0  0  0
   39.3130   35.0660   40.1520 C   0  0  0  0  0  0  0  0  0  0  0  0
   38.4000   35.5580   39.8470 H   0  0  0  0  0  0  0  0  0  0  0  0
   40.3840   35.7040   40.7390 C   0  0  0  0  0  0  0  0  0  0  0  0
   40.2430   36.7800   40.8790 H   0  0  0  0  0  0  0  0  0  0  0  0
   41.5420   35.0750   41.1260 C   0  0  0  0  0  0  0  0  0  0  0  0
   41.6000   33.7390   40.9000 C   0  0  0  0  0  0  0  0  0  0  0  0
   40.5710   33.0830   40.3290 C   0  0  0  0  0  0  0  0  0  0  0  0
   40.6800   31.9980   40.1740 H   0  0  0  0  0  0  0  0  0  0  0  0
   43.0730   32.8540   41.3760 S   0  0  0  0  0  0  0  0  0  0  0  0
   44.1530   34.0870   42.0770 C   0  0  0  0  0  0  0  0  0  0  0  0
   45.3610   33.6030   42.5140 C   0  0  0  0  0  0  0  0  0  0  0  0
   45.6720   32.5530   42.4520 H   0  0  0  0  0  0  0  0  0  0  0  0
   46.2740   34.4820   43.0760 C   0  0  0  0  0  0  0  0  0  0  0  0
   47.2470   34.1870   43.4450 H   0  0  0  0  0  0  0  0  0  0  0  0
   45.9370   35.8150   43.1790 C   0  0  0  0  0  0  0  0  0  0  0  0
   46.6390   36.5120   43.6160 H   0  0  0  0  0  0  0  0  0  0  0  0
   44.6980   36.2080   42.7130 C   0  0  0  0  0  0  0  0  0  0  0  0
   44.5080   37.2860   42.8320 H   0  0  0  0  0  0  0  0  0  0  0  0
   43.7540   35.3780   42.1460 C   0  0  0  0  0  0  0  0  0  0  0  0
   42.5310   35.8810   41.7070 N   0  0  0  0  0  0  0  0  0  0  0  0
   42.3810   36.9050   41.8350 H   0  0  0  0  0  0  0  0  0  0  0  0
  1  2  1  0  0  0  0
  2  3  2  0  0  0  0
  2 16  1  0  0  0  0
  3 11  1  0  0  0  0
  4  9  1  0  0  0  0
  4  3  1  0  0  0  0
  5  4  2  0  0  0  0
  6  5  1  0  0  0  0
  6  1  2  0  0  0  0
  7  5  1  0  0  0  0
  7  8  1  0  0  0  0
  8 13  1  6  0  0  0
  8  9  1  0  0  0  0
  8 37  1  0  0  0  0
 10  1  1  0  0  0  0
 12  6  1  0  0  0  0
 14 20  1  0  0  0  0
 15 14  1  0  0  0  0
 15 22  1  0  0  0  0
 16 15  2  0  0  0  0
 17 18  2  0  0  0  0
 17 16  1  0  0  0  0
 18 19  1  0  0  0  0
 19 14  2  0  0  0  0
 21 18  1  0  0  0  0
 22 23  1  0  0  0  0
 22 27  1  0  0  0  0
 23 29  1  0  0  0  0
 23 24  1  0  0  0  0
 24 31  1  0  0  0  0
 24 25  1  0  0  0  0
 24 30  1  0  0  0  0
 25 32  1  0  0  0  0
 26 25  1  0  0  0  0
 26 34  1  0  0  0  0
 27 26  1  0  0  0  0
 27 36  1  0  0  0  0
 28 23  1  0  0  0  0
 33 26  1  0  0  0  0
 35 27  1  0  0  0  0
 37 38  1  0  0  0  0
 38 39  2  0  0  0  0
 38 45  1  0  0  0  0
 39 41  1  0  0  0  0
 40 39  1  0  0  0  0
 41 42  1  0  0  0  0
 41 43  2  0  0  0  0
 43 58  1  0  0  0  0
 44 43  1  0  0  0  0
 44 47  1  0  0  0  0
 45 44  2  0  0  0  0
 46 45  1  0  0  0  0
 47 48  1  0  0  0  0
 48 57  2  0  0  0  0
 48 49  1  0  0  0  0
 49 51  2  0  0  0  0
 50 49  1  0  0  0  0
 51 53  1  0  0  0  0
 51 52  1  0  0  0  0
 53 54  1  0  0  0  0
 55 56  1  0  0  0  0
 55 53  2  0  0  0  0
 57 55  1  0  0  0  0
 58 59  1  0  0  0  0
 58 57  1  0  0  0  0
M  END
>  <minimizedAffinity>
-8.26579952

$$$$

 OpenBabel03242523133D

 59 65  0  0  1  0  0  0  0  0999 V2000
   38.2140   32.2400   38.3440 C   0  0  0  0  0  0  0  0  0  0  0  0
   38.4490   32.7660   39.6340 C   0  0  0  0  0  0  0  0  0  0  0  0
   37.6940   32.1170   40.5810 C   0  0  0  0  0  0  0  0  0  0  0  0
   36.8190   31.1010   40.3520 C   0  0  0  0  0  0  0  0  0  0  0  0
   36.6420   30.6420   39.0490 C   0  0  0  0  0  0  0  0  0  0  0  0
   37.3530   31.2230   38.0330 C   0  0  0  0  0  0  0  0  0  0  0  0
   35.7040   29.6290   39.1530 O   0  0  0  0  0  0  0  0  0  0  0  0
   35.3490   29.4260   40.5070 C   0  0  2  0  0  0  0  0  0  0  0  0
   36.0390   30.4140   41.2640 O   0  0  0  0  0  0  0  0  0  0  0  0
   38.6650   32.5250   37.3690 H   0  0  0  0  0  0  0  0  0  0  0  0
   37.8530   32.4890   41.5440 H   0  0  0  0  0  0  0  0  0  0  0  0
   37.1370   30.7930   37.0930 H   0  0  0  0  0  0  0  0  0  0  0  0
   34.2510   29.5400   40.6410 H   0  0  0  0  0  0  0  0  0  0  0  0
   41.2730   35.2240   39.4770 C   0  0  0  0  0  0  0  0  0  0  0  0
   40.6680   33.9730   39.3670 C   0  0  0  0  0  0  0  0  0  0  0  0
   39.3410   33.8400   39.6480 C   0  0  0  0  0  0  0  0  0  0  0  0
   38.6710   34.9700   40.0330 N   0  0  0  0  0  0  0  0  0  0  0  0
   39.2530   36.1700   40.1390 C   0  0  0  0  0  0  0  0  0  0  0  0
   40.5270   36.2890   39.8650 N   0  0  0  0  0  0  0  0  0  0  0  0
   42.3210   35.3390   39.2560 H   0  0  0  0  0  0  0  0  0  0  0  0
   38.7800   37.0950   40.4360 H   0  0  0  0  0  0  0  0  0  0  0  0
   41.4800   32.9020   38.9930 N   0  0  0  0  0  0  0  0  0  0  0  0
   41.9810   31.9630   39.9440 C   0  0  0  0  0  0  0  0  0  0  0  0
   42.6910   30.7790   39.3520 C   0  0  0  0  0  0  0  0  0  0  0  0
   42.1250   30.2800   38.1850 N   0  0  0  0  0  0  0  0  0  0  0  0
   41.6730   31.1760   37.2550 C   0  0  0  0  0  0  0  0  0  0  0  0
   41.9100   32.6040   37.6850 C   0  0  0  0  0  0  0  0  0  0  0  0
   41.2260   31.6130   40.6870 H   0  0  0  0  0  0  0  0  0  0  0  0
   42.7350   32.5180   40.5700 H   0  0  0  0  0  0  0  0  0  0  0  0
   43.7410   31.1180   39.1170 H   0  0  0  0  0  0  0  0  0  0  0  0
   42.8260   30.0280   40.1590 H   0  0  0  0  0  0  0  0  0  0  0  0
   42.2270   29.2910   37.9600 H   0  0  0  0  0  0  0  0  0  0  0  0
   40.6030   31.0810   36.9420 H   0  0  0  0  0  0  0  0  0  0  0  0
   42.2370   31.0470   36.2850 H   0  0  0  0  0  0  0  0  0  0  0  0
   41.3020   33.2300   36.9750 H   0  0  0  0  0  0  0  0  0  0  0  0
   42.9820   32.8280   37.4610 H   0  0  0  0  0  0  0  0  0  0  0  0
   35.8180   28.1610   40.8740 O   0  0  0  0  0  0  0  0  0  0  0  0
   36.8120   27.8640   41.7610 C   0  0  0  0  0  0  0  0  0  0  0  0
   36.6740   27.5690   43.1010 C   0  0  0  0  0  0  0  0  0  0  0  0
   35.6680   27.5720   43.4950 H   0  0  0  0  0  0  0  0  0  0  0  0
   37.8010   27.2900   43.8440 C   0  0  0  0  0  0  0  0  0  0  0  0
   37.6010   27.0670   44.8960 H   0  0  0  0  0  0  0  0  0  0  0  0
   39.0790   27.2860   43.3390 C   0  0  0  0  0  0  0  0  0  0  0  0
   39.2010   27.5780   42.0200 C   0  0  0  0  0  0  0  0  0  0  0  0
   38.1210   27.8540   41.2640 C   0  0  0  0  0  0  0  0  0  0  0  0
   38.2860   28.0830   40.2000 H   0  0  0  0  0  0  0  0  0  0  0  0
   40.8290   27.5920   41.2940 S   0  0  0  0  0  0  0  0  0  0  0  0
   41.9390   27.1800   42.6270 C   0  0  0  0  0  0  0  0  0  0  0  0
   43.2630   27.1360   42.2710 C   0  0  0  0  0  0  0  0  0  0  0  0
   43.6460   27.3330   41.2620 H   0  0  0  0  0  0  0  0  0  0  0  0
   44.2090   26.8250   43.2360 C   0  0  0  0  0  0  0  0  0  0  0  0
   45.2720   26.7690   43.0430 H   0  0  0  0  0  0  0  0  0  0  0  0
   43.7860   26.5690   44.5240 C   0  0  0  0  0  0  0  0  0  0  0  0
   44.5130   26.3240   45.2860 H   0  0  0  0  0  0  0  0  0  0  0  0
   42.4330   26.6360   44.7850 C   0  0  0  0  0  0  0  0  0  0  0  0
   42.1790   26.4180   45.8350 H   0  0  0  0  0  0  0  0  0  0  0  0
   41.4510   26.9410   43.8660 C   0  0  0  0  0  0  0  0  0  0  0  0
   40.1090   26.9820   44.2390 N   0  0  0  0  0  0  0  0  0  0  0  0
   39.9020   26.7700   45.2390 H   0  0  0  0  0  0  0  0  0  0  0  0
  1  2  1  0  0  0  0
  2 16  1  0  0  0  0
  2  3  2  0  0  0  0
  3 11  1  0  0  0  0
  4  3  1  0  0  0  0
  4  9  1  0  0  0  0
  5  7  1  0  0  0  0
  5  4  2  0  0  0  0
  6  1  2  0  0  0  0
  6  5  1  0  0  0  0
  7  8  1  0  0  0  0
  8 13  1  1  0  0  0
  8 37  1  0  0  0  0
  8  9  1  0  0  0  0
 10  1  1  0  0  0  0
 12  6  1  0  0  0  0
 14 19  1  0  0  0  0
 15 14  2  0  0  0  0
 15 16  1  0  0  0  0
 16 17  2  0  0  0  0
 17 18  1  0  0  0  0
 18 21  1  0  0  0  0
 19 18  2  0  0  0  0
 20 14  1  0  0  0  0
 22 15  1  0  0  0  0
 22 23  1  0  0  0  0
 23 29  1  0  0  0  0
 23 28  1  0  0  0  0
 24 23  1  0  0  0  0
 24 31  1  0  0  0  0
 25 24  1  0  0  0  0
 26 27  1  0  0  0  0
 26 25  1  0  0  0  0
 27 22  1  0  0  0  0
 30 24  1  0  0  0  0
 32 25  1  0  0  0  0
 33 26  1  0  0  0  0
 34 26  1  0  0  0  0
 35 27  1  0  0  0  0
 36 27  1  0  0  0  0
 37 38  1  0  0  0  0
 38 39  1  0  0  0  0
 39 40  1  0  0  0  0
 39 41  2  0  0  0  0
 41 42  1  0  0  0  0
 43 41  1  0  0  0  0
 43 58  1  0  0  0  0
 44 43  2  0  0  0  0
 45 38  2  0  0  0  0
 45 44  1  0  0  0  0
 46 45  1  0  0  0  0
 47 44  1  0  0  0  0
 47 48  1  0  0  0  0
 48 57  1  0  0  0  0
 49 48  2  0  0  0  0
 49 51  1  0  0  0  0
 50 49  1  0  0  0  0
 51 53  2  0  0  0  0
 52 51  1  0  0  0  0
 53 55  1  0  0  0  0
 53 54  1  0  0  0  0
 55 56  1  0  0  0  0
 57 58  1  0  0  0  0
 57 55  2  0  0  0  0
 58 59  1  0  0  0  0
M  END
>  <minimizedAffinity>
-8.16562271

$$$$

 OpenBabel03242523133D

 59 65  0  0  1  0  0  0  0  0999 V2000
   42.4860   34.9650   38.8250 C   0  0  0  0  0  0  0  0  0  0  0  0
   42.9120   33.7140   39.3200 C   0  0  0  0  0  0  0  0  0  0  0  0
   41.9140   33.0940   40.0320 C   0  0  0  0  0  0  0  0  0  0  0  0
   40.6660   33.5860   40.2600 C   0  0  0  0  0  0  0  0  0  0  0  0
   40.3260   34.8310   39.7390 C   0  0  0  0  0  0  0  0  0  0  0  0
   41.2530   35.5280   39.0100 C   0  0  0  0  0  0  0  0  0  0  0  0
   39.0180   35.0400   40.1440 O   0  0  0  0  0  0  0  0  0  0  0  0
   38.5390   33.9160   40.8550 C   0  0  2  0  0  0  0  0  0  0  0  0
   39.6280   33.0060   40.9650 O   0  0  0  0  0  0  0  0  0  0  0  0
   43.0360   35.7080   38.2060 H   0  0  0  0  0  0  0  0  0  0  0  0
   42.2070   32.1650   40.4080 H   0  0  0  0  0  0  0  0  0  0  0  0
   40.8810   36.4550   38.6670 H   0  0  0  0  0  0  0  0  0  0  0  0
   38.1900   34.2180   41.8670 H   0  0  0  0  0  0  0  0  0  0  0  0
   46.5910   33.0220   39.1380 C   0  0  0  0  0  0  0  0  0  0  0  0
   45.3920   33.3740   39.7560 C   0  0  0  0  0  0  0  0  0  0  0  0
   44.2440   33.4160   39.0220 C   0  0  0  0  0  0  0  0  0  0  0  0
   44.3440   33.1050   37.6930 N   0  0  0  0  0  0  0  0  0  0  0  0
   45.4950   32.7670   37.1010 C   0  0  0  0  0  0  0  0  0  0  0  0
   46.5930   32.7280   37.8130 N   0  0  0  0  0  0  0  0  0  0  0  0
   47.5040   32.9860   39.7100 H   0  0  0  0  0  0  0  0  0  0  0  0
   45.6390   32.5120   36.0610 H   0  0  0  0  0  0  0  0  0  0  0  0
   45.4430   33.6960   41.1120 N   0  0  0  0  0  0  0  0  0  0  0  0
   45.3900   35.0470   41.5730 C   0  0  0  0  0  0  0  0  0  0  0  0
   45.2810   35.2040   43.0630 C   0  0  0  0  0  0  0  0  0  0  0  0
   44.4640   34.2710   43.6920 N   0  0  0  0  0  0  0  0  0  0  0  0
   44.5340   32.9700   43.2760 C   0  0  0  0  0  0  0  0  0  0  0  0
   45.5540   32.7820   42.1780 C   0  0  0  0  0  0  0  0  0  0  0  0
   44.6150   35.6730   41.0720 H   0  0  0  0  0  0  0  0  0  0  0  0
   46.3620   35.5240   41.2630 H   0  0  0  0  0  0  0  0  0  0  0  0
   46.3250   35.0910   43.4750 H   0  0  0  0  0  0  0  0  0  0  0  0
   45.0220   36.2630   43.2720 H   0  0  0  0  0  0  0  0  0  0  0  0
   43.9820   34.5260   44.5530 H   0  0  0  0  0  0  0  0  0  0  0  0
   43.5770   32.4930   42.9460 H   0  0  0  0  0  0  0  0  0  0  0  0
   44.8700   32.3090   44.1270 H   0  0  0  0  0  0  0  0  0  0  0  0
   45.3580   31.7530   41.7670 H   0  0  0  0  0  0  0  0  0  0  0  0
   46.5520   32.7350   42.6780 H   0  0  0  0  0  0  0  0  0  0  0  0
   37.5330   33.3310   40.0800 O   0  0  0  0  0  0  0  0  0  0  0  0
   37.3680   32.0090   39.7840 C   0  0  0  0  0  0  0  0  0  0  0  0
   37.1810   31.4500   38.5370 C   0  0  0  0  0  0  0  0  0  0  0  0
   37.1610   32.1330   37.7000 H   0  0  0  0  0  0  0  0  0  0  0  0
   37.0330   30.0840   38.4320 C   0  0  0  0  0  0  0  0  0  0  0  0
   36.8890   29.7260   37.4080 H   0  0  0  0  0  0  0  0  0  0  0  0
   37.0590   29.2190   39.4990 C   0  0  0  0  0  0  0  0  0  0  0  0
   37.2440   29.7810   40.7190 C   0  0  0  0  0  0  0  0  0  0  0  0
   37.3920   31.1130   40.8590 C   0  0  0  0  0  0  0  0  0  0  0  0
   37.5390   31.5070   41.8760 H   0  0  0  0  0  0  0  0  0  0  0  0
   37.2880   28.7210   42.1520 S   0  0  0  0  0  0  0  0  0  0  0  0
   37.0560   27.0700   41.5200 C   0  0  0  0  0  0  0  0  0  0  0  0
   37.0590   26.0890   42.4780 C   0  0  0  0  0  0  0  0  0  0  0  0
   37.1890   26.2650   43.5530 H   0  0  0  0  0  0  0  0  0  0  0  0
   36.8850   24.7690   42.0900 C   0  0  0  0  0  0  0  0  0  0  0  0
   36.8740   23.9340   42.7770 H   0  0  0  0  0  0  0  0  0  0  0  0
   36.7160   24.4870   40.7500 C   0  0  0  0  0  0  0  0  0  0  0  0
   36.5800   23.4620   40.4320 H   0  0  0  0  0  0  0  0  0  0  0  0
   36.7280   25.5420   39.8600 C   0  0  0  0  0  0  0  0  0  0  0  0
   36.5860   25.2320   38.8120 H   0  0  0  0  0  0  0  0  0  0  0  0
   36.8960   26.8700   40.1910 C   0  0  0  0  0  0  0  0  0  0  0  0
   36.8910   27.8590   39.2090 N   0  0  0  0  0  0  0  0  0  0  0  0
   36.7560   27.5320   38.2270 H   0  0  0  0  0  0  0  0  0  0  0  0
  1  6  2  0  0  0  0
  1  2  1  0  0  0  0
  2  3  2  0  0  0  0
  3  4  1  0  0  0  0
  3 11  1  0  0  0  0
  4  9  1  0  0  0  0
  5  7  1  0  0  0  0
  5  4  2  0  0  0  0
  6  5  1  0  0  0  0
  7  8  1  0  0  0  0
  8  9  1  0  0  0  0
  8 13  1  1  0  0  0
 10  1  1  0  0  0  0
 12  6  1  0  0  0  0
 14 20  1  0  0  0  0
 14 15  1  0  0  0  0
 15 22  1  0  0  0  0
 16  2  1  0  0  0  0
 16 15  2  0  0  0  0
 17 16  1  0  0  0  0
 18 17  2  0  0  0  0
 18 19  1  0  0  0  0
 19 14  2  0  0  0  0
 21 18  1  0  0  0  0
 22 23  1  0  0  0  0
 22 27  1  0  0  0  0
 23 24  1  0  0  0  0
 24 31  1  0  0  0  0
 24 30  1  0  0  0  0
 24 25  1  0  0  0  0
 25 32  1  0  0  0  0
 26 25  1  0  0  0  0
 26 34  1  0  0  0  0
 27 36  1  0  0  0  0
 27 26  1  0  0  0  0
 28 23  1  0  0  0  0
 29 23  1  0  0  0  0
 33 26  1  0  0  0  0
 35 27  1  0  0  0  0
 37  8  1  0  0  0  0
 38 37  1  0  0  0  0
 38 45  1  0  0  0  0
 39 38  2  0  0  0  0
 40 39  1  0  0  0  0
 41 39  1  0  0  0  0
 41 43  2  0  0  0  0
 42 41  1  0  0  0  0
 43 44  1  0  0  0  0
 44 45  2  0  0  0  0
 44 47  1  0  0  0  0
 45 46  1  0  0  0  0
 48 47  1  0  0  0  0
 48 49  1  0  0  0  0
 49 50  1  0  0  0  0
 51 49  2  0  0  0  0
 51 52  1  0  0  0  0
 53 51  1  0  0  0  0
 54 53  1  0  0  0  0
 55 57  1  0  0  0  0
 55 53  2  0  0  0  0
 56 55  1  0  0  0  0
 57 48  2  0  0  0  0
 58 43  1  0  0  0  0
 58 57  1  0  0  0  0
 59 58  1  0  0  0  0
M  END
>  <minimizedAffinity>
-7.86778688

$$$$

 OpenBabel03242523133D

 59 65  0  0  1  0  0  0  0  0999 V2000
   37.5160   28.3050   41.6100 C   0  0  0  0  0  0  0  0  0  0  0  0
   37.2780   27.7390   40.3380 C   0  0  0  0  0  0  0  0  0  0  0  0
   37.0970   28.7130   39.3860 C   0  0  0  0  0  0  0  0  0  0  0  0
   37.1290   30.0560   39.5960 C   0  0  0  0  0  0  0  0  0  0  0  0
   37.3650   30.5340   40.8820 C   0  0  0  0  0  0  0  0  0  0  0  0
   37.5620   29.6400   41.9020 C   0  0  0  0  0  0  0  0  0  0  0  0
   37.3310   31.9130   40.7610 O   0  0  0  0  0  0  0  0  0  0  0  0
   37.1330   32.2820   39.4110 C   0  0  2  0  0  0  0  0  0  0  0  0
   36.9550   31.0750   38.6780 O   0  0  0  0  0  0  0  0  0  0  0  0
   37.7120   27.8050   42.5830 H   0  0  0  0  0  0  0  0  0  0  0  0
   36.9200   28.3160   38.4360 H   0  0  0  0  0  0  0  0  0  0  0  0
   37.7330   30.1180   42.8270 H   0  0  0  0  0  0  0  0  0  0  0  0
   36.2300   32.9250   39.3130 H   0  0  0  0  0  0  0  0  0  0  0  0
   37.2530   24.0410   39.7300 C   0  0  0  0  0  0  0  0  0  0  0  0
   37.3400   25.3880   39.3780 C   0  0  0  0  0  0  0  0  0  0  0  0
   37.2320   26.3430   40.3440 C   0  0  0  0  0  0  0  0  0  0  0  0
   37.0390   25.9100   41.6290 N   0  0  0  0  0  0  0  0  0  0  0  0
   36.9560   24.6180   41.9640 C   0  0  0  0  0  0  0  0  0  0  0  0
   37.0620   23.7060   41.0300 N   0  0  0  0  0  0  0  0  0  0  0  0
   37.3380   23.2780   38.9730 H   0  0  0  0  0  0  0  0  0  0  0  0
   36.8050   24.2140   42.9560 H   0  0  0  0  0  0  0  0  0  0  0  0
   37.5080   25.6850   38.0260 N   0  0  0  0  0  0  0  0  0  0  0  0
   36.3980   25.8930   37.1520 C   0  0  0  0  0  0  0  0  0  0  0  0
   36.7570   26.3740   35.7750 C   0  0  0  0  0  0  0  0  0  0  0  0
   37.8000   27.2920   35.7290 N   0  0  0  0  0  0  0  0  0  0  0  0
   38.8800   27.0790   36.5400 C   0  0  0  0  0  0  0  0  0  0  0  0
   38.7380   25.8130   37.3510 C   0  0  0  0  0  0  0  0  0  0  0  0
   35.5940   26.5390   37.5770 H   0  0  0  0  0  0  0  0  0  0  0  0
   35.9000   24.8900   37.0300 H   0  0  0  0  0  0  0  0  0  0  0  0
   37.0650   25.4620   35.1860 H   0  0  0  0  0  0  0  0  0  0  0  0
   35.8210   26.7100   35.2810 H   0  0  0  0  0  0  0  0  0  0  0  0
   37.8300   27.9790   34.9780 H   0  0  0  0  0  0  0  0  0  0  0  0
   39.1580   27.9090   37.2380 H   0  0  0  0  0  0  0  0  0  0  0  0
   39.8120   26.9440   35.9180 H   0  0  0  0  0  0  0  0  0  0  0  0
   39.5490   25.8690   38.1290 H   0  0  0  0  0  0  0  0  0  0  0  0
   39.0120   24.9700   36.6720 H   0  0  0  0  0  0  0  0  0  0  0  0
   38.3030   32.9110   38.9760 O   0  0  0  0  0  0  0  0  0  0  0  0
   39.1220   33.7360   39.6910 C   0  0  0  0  0  0  0  0  0  0  0  0
   38.8250   34.9910   40.1780 C   0  0  0  0  0  0  0  0  0  0  0  0
   37.8320   35.3670   39.9710 H   0  0  0  0  0  0  0  0  0  0  0  0
   39.7860   35.6800   40.8850 C   0  0  0  0  0  0  0  0  0  0  0  0
   39.4660   36.6660   41.2340 H   0  0  0  0  0  0  0  0  0  0  0  0
   41.0470   35.1990   41.1470 C   0  0  0  0  0  0  0  0  0  0  0  0
   41.3270   33.9640   40.6630 C   0  0  0  0  0  0  0  0  0  0  0  0
   40.4110   33.2630   39.9680 C   0  0  0  0  0  0  0  0  0  0  0  0
   40.7000   32.2650   39.6020 H   0  0  0  0  0  0  0  0  0  0  0  0
   42.9440   33.2740   40.9620 S   0  0  0  0  0  0  0  0  0  0  0  0
   43.8160   34.5160   41.8990 C   0  0  0  0  0  0  0  0  0  0  0  0
   45.1000   34.1740   42.2370 C   0  0  0  0  0  0  0  0  0  0  0  0
   45.5860   33.2270   41.9710 H   0  0  0  0  0  0  0  0  0  0  0  0
   45.8650   35.0720   42.9670 C   0  0  0  0  0  0  0  0  0  0  0  0
   46.8840   34.8860   43.2750 H   0  0  0  0  0  0  0  0  0  0  0  0
   45.3070   36.2810   43.3290 C   0  0  0  0  0  0  0  0  0  0  0  0
   45.8910   36.9900   43.8980 H   0  0  0  0  0  0  0  0  0  0  0  0
   44.0060   36.5340   42.9430 C   0  0  0  0  0  0  0  0  0  0  0  0
   43.6360   37.5180   43.2710 H   0  0  0  0  0  0  0  0  0  0  0  0
   43.2020   35.6790   42.2180 C   0  0  0  0  0  0  0  0  0  0  0  0
   41.8980   36.0360   41.8800 N   0  0  0  0  0  0  0  0  0  0  0  0
   41.5780   36.9740   42.2070 H   0  0  0  0  0  0  0  0  0  0  0  0
  1  6  1  0  0  0  0
  1 10  1  0  0  0  0
  2 16  1  0  0  0  0
  2  1  2  0  0  0  0
  3  4  2  0  0  0  0
  3  2  1  0  0  0  0
  4  5  1  0  0  0  0
  5  6  2  0  0  0  0
  6 12  1  0  0  0  0
  7  5  1  0  0  0  0
  8 13  1  6  0  0  0
  8  7  1  0  0  0  0
  9  8  1  0  0  0  0
  9  4  1  0  0  0  0
 11  3  1  0  0  0  0
 14 19  1  0  0  0  0
 15 14  2  0  0  0  0
 15 16  1  0  0  0  0
 16 17  2  0  0  0  0
 17 18  1  0  0  0  0
 18 21  1  0  0  0  0
 19 18  2  0  0  0  0
 20 14  1  0  0  0  0
 22 15  1  0  0  0  0
 23 28  1  0  0  0  0
 23 22  1  0  0  0  0
 24 23  1  0  0  0  0
 25 24  1  0  0  0  0
 25 26  1  0  0  0  0
 26 33  1  0  0  0  0
 26 27  1  0  0  0  0
 27 22  1  0  0  0  0
 27 35  1  0  0  0  0
 29 23  1  0  0  0  0
 30 24  1  0  0  0  0
 31 24  1  0  0  0  0
 32 25  1  0  0  0  0
 34 26  1  0  0  0  0
 36 27  1  0  0  0  0
 37  8  1  0  0  0  0
 37 38  1  0  0  0  0
 38 45  2  0  0  0  0
 38 39  1  0  0  0  0
 39 41  2  0  0  0  0
 40 39  1  0  0  0  0
 41 43  1  0  0  0  0
 41 42  1  0  0  0  0
 43 58  1  0  0  0  0
 44 47  1  0  0  0  0
 44 43  2  0  0  0  0
 45 44  1  0  0  0  0
 46 45  1  0  0  0  0
 47 48  1  0  0  0  0
 48 57  2  0  0  0  0
 48 49  1  0  0  0  0
 49 51  2  0  0  0  0
 50 49  1  0  0  0  0
 51 52  1  0  0  0  0
 51 53  1  0  0  0  0
 53 54  1  0  0  0  0
 55 56  1  0  0  0  0
 55 53  2  0  0  0  0
 57 55  1  0  0  0  0
 58 59  1  0  0  0  0
 58 57  1  0  0  0  0
M  END
>  <minimizedAffinity>
-7.86568356

$$$$

 OpenBabel03242523133D

 59 65  0  0  1  0  0  0  0  0999 V2000
   39.9530   27.1470   37.6310 C   0  0  0  0  0  0  0  0  0  0  0  0
   40.2090   27.2370   39.0170 C   0  0  0  0  0  0  0  0  0  0  0  0
   41.1400   28.2100   39.2880 C   0  0  0  0  0  0  0  0  0  0  0  0
   41.7620   29.0030   38.3750 C   0  0  0  0  0  0  0  0  0  0  0  0
   41.4560   28.8480   37.0260 C   0  0  0  0  0  0  0  0  0  0  0  0
   40.5350   27.9050   36.6530 C   0  0  0  0  0  0  0  0  0  0  0  0
   42.2440   29.7810   36.3720 O   0  0  0  0  0  0  0  0  0  0  0  0
   42.9840   30.5390   37.3090 C   0  0  2  0  0  0  0  0  0  0  0  0
   42.7010   29.9950   38.5930 O   0  0  0  0  0  0  0  0  0  0  0  0
   39.2530   26.4800   37.0810 H   0  0  0  0  0  0  0  0  0  0  0  0
   41.3450   28.2950   40.3090 H   0  0  0  0  0  0  0  0  0  0  0  0
   40.3850   27.8800   35.6080 H   0  0  0  0  0  0  0  0  0  0  0  0
   44.0730   30.4640   37.0940 H   0  0  0  0  0  0  0  0  0  0  0  0
   38.1030   25.2260   41.3750 C   0  0  0  0  0  0  0  0  0  0  0  0
   38.6490   26.3880   40.8320 C   0  0  0  0  0  0  0  0  0  0  0  0
   39.5090   26.3000   39.7800 C   0  0  0  0  0  0  0  0  0  0  0  0
   39.7920   25.0450   39.3120 N   0  0  0  0  0  0  0  0  0  0  0  0
   39.2680   23.9300   39.8330 C   0  0  0  0  0  0  0  0  0  0  0  0
   38.4410   24.0240   40.8440 N   0  0  0  0  0  0  0  0  0  0  0  0
   37.4210   25.2850   42.2070 H   0  0  0  0  0  0  0  0  0  0  0  0
   39.4510   22.9150   39.5100 H   0  0  0  0  0  0  0  0  0  0  0  0
   38.2950   27.5980   41.4300 N   0  0  0  0  0  0  0  0  0  0  0  0
   37.2820   28.4450   40.8840 C   0  0  0  0  0  0  0  0  0  0  0  0
   36.9060   29.6180   41.7440 C   0  0  0  0  0  0  0  0  0  0  0  0
   36.8660   29.3550   43.1080 N   0  0  0  0  0  0  0  0  0  0  0  0
   37.8530   28.5710   43.6420 C   0  0  0  0  0  0  0  0  0  0  0  0
   38.8590   28.1420   42.6000 C   0  0  0  0  0  0  0  0  0  0  0  0
   36.3600   27.9070   40.5590 H   0  0  0  0  0  0  0  0  0  0  0  0
   37.7010   28.8620   39.9260 H   0  0  0  0  0  0  0  0  0  0  0  0
   37.6860   30.4130   41.5620 H   0  0  0  0  0  0  0  0  0  0  0  0
   35.9740   30.0550   41.3290 H   0  0  0  0  0  0  0  0  0  0  0  0
   36.2350   29.8890   43.7040 H   0  0  0  0  0  0  0  0  0  0  0  0
   37.5250   27.6600   44.2040 H   0  0  0  0  0  0  0  0  0  0  0  0
   38.4350   29.1530   44.4140 H   0  0  0  0  0  0  0  0  0  0  0  0
   39.4660   27.3340   43.0930 H   0  0  0  0  0  0  0  0  0  0  0  0
   39.5490   29.0080   42.4520 H   0  0  0  0  0  0  0  0  0  0  0  0
   42.5040   31.8510   37.2540 O   0  0  0  0  0  0  0  0  0  0  0  0
   42.3070   32.7130   38.2940 C   0  0  0  0  0  0  0  0  0  0  0  0
   41.1050   33.2150   38.7460 C   0  0  0  0  0  0  0  0  0  0  0  0
   40.2180   32.8910   38.2200 H   0  0  0  0  0  0  0  0  0  0  0  0
   41.1020   34.0790   39.8190 C   0  0  0  0  0  0  0  0  0  0  0  0
   40.1070   34.4280   40.1110 H   0  0  0  0  0  0  0  0  0  0  0  0
   42.2320   34.4880   40.4860 C   0  0  0  0  0  0  0  0  0  0  0  0
   43.4070   33.9880   40.0310 C   0  0  0  0  0  0  0  0  0  0  0  0
   43.4470   33.1400   38.9850 C   0  0  0  0  0  0  0  0  0  0  0  0
   44.4320   32.7680   38.6650 H   0  0  0  0  0  0  0  0  0  0  0  0
   44.9170   34.4740   40.8470 S   0  0  0  0  0  0  0  0  0  0  0  0
   44.4090   35.5810   42.1490 C   0  0  0  0  0  0  0  0  0  0  0  0
   45.4390   36.0750   42.9080 C   0  0  0  0  0  0  0  0  0  0  0  0
   46.4980   35.8340   42.7580 H   0  0  0  0  0  0  0  0  0  0  0  0
   45.1500   36.9470   43.9480 C   0  0  0  0  0  0  0  0  0  0  0  0
   45.8980   37.3830   44.5950 H   0  0  0  0  0  0  0  0  0  0  0  0
   43.8340   37.2880   44.1840 C   0  0  0  0  0  0  0  0  0  0  0  0
   43.5940   37.9650   44.9910 H   0  0  0  0  0  0  0  0  0  0  0  0
   42.8670   36.7380   43.3660 C   0  0  0  0  0  0  0  0  0  0  0  0
   41.8450   37.0600   43.6210 H   0  0  0  0  0  0  0  0  0  0  0  0
   43.0980   35.8690   42.3210 C   0  0  0  0  0  0  0  0  0  0  0  0
   42.0440   35.3730   41.5560 N   0  0  0  0  0  0  0  0  0  0  0  0
   41.0890   35.6960   41.8230 H   0  0  0  0  0  0  0  0  0  0  0  0
  1  2  1  0  0  0  0
  2  3  2  0  0  0  0
  2 16  1  0  0  0  0
  3 11  1  0  0  0  0
  4  9  1  0  0  0  0
  4  3  1  0  0  0  0
  5  4  2  0  0  0  0
  6  5  1  0  0  0  0
  6  1  2  0  0  0  0
  7  5  1  0  0  0  0
  7  8  1  0  0  0  0
  8 13  1  6  0  0  0
  8  9  1  0  0  0  0
 10  1  1  0  0  0  0
 12  6  1  0  0  0  0
 14 20  1  0  0  0  0
 15 14  2  0  0  0  0
 15 22  1  0  0  0  0
 16 15  1  0  0  0  0
 17 16  2  0  0  0  0
 17 18  1  0  0  0  0
 18 19  2  0  0  0  0
 19 14  1  0  0  0  0
 21 18  1  0  0  0  0
 22 27  1  0  0  0  0
 23 22  1  0  0  0  0
 23 24  1  0  0  0  0
 24 25  1  0  0  0  0
 25 26  1  0  0  0  0
 25 32  1  0  0  0  0
 26 33  1  0  0  0  0
 26 34  1  0  0  0  0
 27 35  1  0  0  0  0
 27 26  1  0  0  0  0
 28 23  1  0  0  0  0
 29 23  1  0  0  0  0
 30 24  1  0  0  0  0
 31 24  1  0  0  0  0
 36 27  1  0  0  0  0
 37  8  1  0  0  0  0
 37 38  1  0  0  0  0
 38 39  2  0  0  0  0
 38 45  1  0  0  0  0
 39 41  1  0  0  0  0
 40 39  1  0  0  0  0
 41 42  1  0  0  0  0
 41 43  2  0  0  0  0
 43 58  1  0  0  0  0
 44 43  1  0  0  0  0
 44 47  1  0  0  0  0
 45 44  2  0  0  0  0
 46 45  1  0  0  0  0
 47 48  1  0  0  0  0
 48 57  2  0  0  0  0
 48 49  1  0  0  0  0
 49 51  2  0  0  0  0
 50 49  1  0  0  0  0
 51 53  1  0  0  0  0
 51 52  1  0  0  0  0
 53 54  1  0  0  0  0
 55 56  1  0  0  0  0
 55 53  2  0  0  0  0
 57 55  1  0  0  0  0
 58 59  1  0  0  0  0
 58 57  1  0  0  0  0
M  END
>  <minimizedAffinity>
-7.83451462

$$$$

 OpenBabel03242523133D

 59 65  0  0  1  0  0  0  0  0999 V2000
   37.6820   32.8480   40.1350 C   0  0  0  0  0  0  0  0  0  0  0  0
   39.0820   32.6790   40.2160 C   0  0  0  0  0  0  0  0  0  0  0  0
   39.4070   31.4140   40.6420 C   0  0  0  0  0  0  0  0  0  0  0  0
   38.5300   30.4240   40.9600 C   0  0  0  0  0  0  0  0  0  0  0  0
   37.1640   30.6730   40.8580 C   0  0  0  0  0  0  0  0  0  0  0  0
   36.7380   31.9050   40.4370 C   0  0  0  0  0  0  0  0  0  0  0  0
   36.5570   29.4910   41.2490 O   0  0  0  0  0  0  0  0  0  0  0  0
   37.5340   28.5090   41.5330 C   0  0  2  0  0  0  0  0  0  0  0  0
   38.8020   29.1390   41.3910 O   0  0  0  0  0  0  0  0  0  0  0  0
   37.0910   33.7340   39.8180 H   0  0  0  0  0  0  0  0  0  0  0  0
   40.4390   31.2670   40.7080 H   0  0  0  0  0  0  0  0  0  0  0  0
   35.6850   31.9750   40.3980 H   0  0  0  0  0  0  0  0  0  0  0  0
   37.4110   28.1300   42.5710 H   0  0  0  0  0  0  0  0  0  0  0  0
   41.4000   35.3770   39.0380 C   0  0  0  0  0  0  0  0  0  0  0  0
   40.9310   34.0710   39.1690 C   0  0  0  0  0  0  0  0  0  0  0  0
   39.8050   33.8310   39.8980 C   0  0  0  0  0  0  0  0  0  0  0  0
   39.1930   34.9130   40.4720 N   0  0  0  0  0  0  0  0  0  0  0  0
   39.6440   36.1660   40.3450 C   0  0  0  0  0  0  0  0  0  0  0  0
   40.7260   36.3880   39.6420 N   0  0  0  0  0  0  0  0  0  0  0  0
   42.2900   35.5770   38.4630 H   0  0  0  0  0  0  0  0  0  0  0  0
   39.2080   37.0580   40.7710 H   0  0  0  0  0  0  0  0  0  0  0  0
   41.6730   33.0620   38.5550 N   0  0  0  0  0  0  0  0  0  0  0  0
   41.2060   32.3800   37.3900 C   0  0  0  0  0  0  0  0  0  0  0  0
   42.2020   31.4480   36.7600 C   0  0  0  0  0  0  0  0  0  0  0  0
   43.5140   31.9060   36.7610 N   0  0  0  0  0  0  0  0  0  0  0  0
   43.9770   32.5310   37.8870 C   0  0  0  0  0  0  0  0  0  0  0  0
   42.9300   32.5830   38.9750 C   0  0  0  0  0  0  0  0  0  0  0  0
   40.7720   33.0480   36.6100 H   0  0  0  0  0  0  0  0  0  0  0  0
   40.3320   31.7510   37.7210 H   0  0  0  0  0  0  0  0  0  0  0  0
   42.1630   30.4880   37.3520 H   0  0  0  0  0  0  0  0  0  0  0  0
   41.8110   31.1640   35.7610 H   0  0  0  0  0  0  0  0  0  0  0  0
   44.1500   31.6090   36.0230 H   0  0  0  0  0  0  0  0  0  0  0  0
   44.3940   33.5610   37.7570 H   0  0  0  0  0  0  0  0  0  0  0  0
   44.8450   31.9550   38.3220 H   0  0  0  0  0  0  0  0  0  0  0  0
   43.3330   33.3070   39.7360 H   0  0  0  0  0  0  0  0  0  0  0  0
   42.9310   31.5790   39.4640 H   0  0  0  0  0  0  0  0  0  0  0  0
   37.4110   27.5080   40.5660 O   0  0  0  0  0  0  0  0  0  0  0  0
   37.5280   26.1590   40.7400 C   0  0  0  0  0  0  0  0  0  0  0  0
   37.1550   25.4250   41.8460 C   0  0  0  0  0  0  0  0  0  0  0  0
   36.7220   25.9760   42.6690 H   0  0  0  0  0  0  0  0  0  0  0  0
   37.3510   24.0610   41.8400 C   0  0  0  0  0  0  0  0  0  0  0  0
   37.0270   23.5580   42.7560 H   0  0  0  0  0  0  0  0  0  0  0  0
   37.9010   23.3620   40.7930 C   0  0  0  0  0  0  0  0  0  0  0  0
   38.2630   24.0960   39.7120 C   0  0  0  0  0  0  0  0  0  0  0  0
   38.0870   25.4310   39.6830 C   0  0  0  0  0  0  0  0  0  0  0  0
   38.4010   25.9690   38.7750 H   0  0  0  0  0  0  0  0  0  0  0  0
   38.9860   23.2580   38.3130 S   0  0  0  0  0  0  0  0  0  0  0  0
   39.0330   21.5360   38.7720 C   0  0  0  0  0  0  0  0  0  0  0  0
   39.5610   20.7070   37.8150 C   0  0  0  0  0  0  0  0  0  0  0  0
   39.9360   21.0380   36.8390 H   0  0  0  0  0  0  0  0  0  0  0  0
   39.6430   19.3470   38.0750 C   0  0  0  0  0  0  0  0  0  0  0  0
   40.0450   18.6230   37.3790 H   0  0  0  0  0  0  0  0  0  0  0  0
   39.1880   18.8730   39.2870 C   0  0  0  0  0  0  0  0  0  0  0  0
   39.2440   17.8150   39.5030 H   0  0  0  0  0  0  0  0  0  0  0  0
   38.6710   19.7840   40.1860 C   0  0  0  0  0  0  0  0  0  0  0  0
   38.3300   19.3250   41.1270 H   0  0  0  0  0  0  0  0  0  0  0  0
   38.5670   21.1440   39.9800 C   0  0  0  0  0  0  0  0  0  0  0  0
   38.0270   21.9770   40.9590 N   0  0  0  0  0  0  0  0  0  0  0  0
   37.7130   21.5110   41.8380 H   0  0  0  0  0  0  0  0  0  0  0  0
  1  2  2  0  0  0  0
  1  6  1  0  0  0  0
  2  3  1  0  0  0  0
  3 11  1  0  0  0  0
  3  4  2  0  0  0  0
  4  9  1  0  0  0  0
  5  4  1  0  0  0  0
  5  7  1  0  0  0  0
  6  5  2  0  0  0  0
  7  8  1  0  0  0  0
  8 13  1  1  0  0  0
  9  8  1  0  0  0  0
 10  1  1  0  0  0  0
 12  6  1  0  0  0  0
 14 15  2  0  0  0  0
 14 19  1  0  0  0  0
 15 16  1  0  0  0  0
 16  2  1  0  0  0  0
 16 17  2  0  0  0  0
 18 17  1  0  0  0  0
 18 21  1  0  0  0  0
 19 18  2  0  0  0  0
 20 14  1  0  0  0  0
 22 27  1  0  0  0  0
 22 15  1  0  0  0  0
 23 29  1  0  0  0  0
 23 22  1  0  0  0  0
 24 25  1  0  0  0  0
 24 30  1  0  0  0  0
 24 23  1  0  0  0  0
 25 26  1  0  0  0  0
 26 34  1  0  0  0  0
 26 27  1  0  0  0  0
 27 36  1  0  0  0  0
 27 35  1  0  0  0  0
 28 23  1  0  0  0  0
 31 24  1  0  0  0  0
 32 25  1  0  0  0  0
 33 26  1  0  0  0  0
 37 38  1  0  0  0  0
 37  8  1  0  0  0  0
 38 39  1  0  0  0  0
 39 40  1  0  0  0  0
 41 39  2  0  0  0  0
 41 42  1  0  0  0  0
 43 58  1  0  0  0  0
 43 41  1  0  0  0  0
 44 43  2  0  0  0  0
 45 44  1  0  0  0  0
 45 38  2  0  0  0  0
 46 45  1  0  0  0  0
 47 48  1  0  0  0  0
 47 44  1  0  0  0  0
 48 57  1  0  0  0  0
 49 51  1  0  0  0  0
 49 48  2  0  0  0  0
 50 49  1  0  0  0  0
 51 53  2  0  0  0  0
 52 51  1  0  0  0  0
 53 54  1  0  0  0  0
 53 55  1  0  0  0  0
 55 56  1  0  0  0  0
 57 55  2  0  0  0  0
 57 58  1  0  0  0  0
 58 59  1  0  0  0  0
M  END
>  <minimizedAffinity>
-7.79047537

$$$$

 OpenBabel03242523133D

 59 65  0  0  1  0  0  0  0  0999 V2000
   38.0210   32.5790   40.1450 C   0  0  0  0  0  0  0  0  0  0  0  0
   39.3280   32.8230   40.6210 C   0  0  0  0  0  0  0  0  0  0  0  0
   39.7560   31.8060   41.4400 C   0  0  0  0  0  0  0  0  0  0  0  0
   39.0480   30.6950   41.7780 C   0  0  0  0  0  0  0  0  0  0  0  0
   37.7630   30.5320   41.2690 C   0  0  0  0  0  0  0  0  0  0  0  0
   37.2450   31.4910   40.4380 C   0  0  0  0  0  0  0  0  0  0  0  0
   37.3210   29.3290   41.7950 O   0  0  0  0  0  0  0  0  0  0  0  0
   38.3400   28.7310   42.5720 C   0  0  2  0  0  0  0  0  0  0  0  0
   39.4300   29.6450   42.5930 O   0  0  0  0  0  0  0  0  0  0  0  0
   37.3900   33.1880   39.4610 H   0  0  0  0  0  0  0  0  0  0  0  0
   40.7220   31.9650   41.8040 H   0  0  0  0  0  0  0  0  0  0  0  0
   36.2680   31.2580   40.1150 H   0  0  0  0  0  0  0  0  0  0  0  0
   37.9780   28.5440   43.6070 H   0  0  0  0  0  0  0  0  0  0  0  0
   41.1630   35.7440   39.1580 C   0  0  0  0  0  0  0  0  0  0  0  0
   40.8900   34.3950   39.3810 C   0  0  0  0  0  0  0  0  0  0  0  0
   39.8600   34.0430   40.2010 C   0  0  0  0  0  0  0  0  0  0  0  0
   39.1430   35.0610   40.7700 N   0  0  0  0  0  0  0  0  0  0  0  0
   39.4060   36.3550   40.5560 C   0  0  0  0  0  0  0  0  0  0  0  0
   40.3960   36.6840   39.7650 N   0  0  0  0  0  0  0  0  0  0  0  0
   41.9750   36.0320   38.5110 H   0  0  0  0  0  0  0  0  0  0  0  0
   38.8780   37.2010   40.9730 H   0  0  0  0  0  0  0  0  0  0  0  0
   41.7220   33.4650   38.7580 N   0  0  0  0  0  0  0  0  0  0  0  0
   41.3060   32.7250   37.6100 C   0  0  0  0  0  0  0  0  0  0  0  0
   42.3830   31.8990   36.9640 C   0  0  0  0  0  0  0  0  0  0  0  0
   43.6380   32.4950   36.9330 N   0  0  0  0  0  0  0  0  0  0  0  0
   44.0550   33.1770   38.0430 C   0  0  0  0  0  0  0  0  0  0  0  0
   43.0320   33.1280   39.1530 C   0  0  0  0  0  0  0  0  0  0  0  0
   40.7860   33.3350   36.8340 H   0  0  0  0  0  0  0  0  0  0  0  0
   40.5130   32.0090   37.9650 H   0  0  0  0  0  0  0  0  0  0  0  0
   42.4600   30.9470   37.5650 H   0  0  0  0  0  0  0  0  0  0  0  0
   42.0030   31.5640   35.9760 H   0  0  0  0  0  0  0  0  0  0  0  0
   44.2860   32.2590   36.1830 H   0  0  0  0  0  0  0  0  0  0  0  0
   44.3560   34.2450   37.8950 H   0  0  0  0  0  0  0  0  0  0  0  0
   44.9890   32.7020   38.4620 H   0  0  0  0  0  0  0  0  0  0  0  0
   43.3720   33.8980   39.9000 H   0  0  0  0  0  0  0  0  0  0  0  0
   43.1520   32.1350   39.6500 H   0  0  0  0  0  0  0  0  0  0  0  0
   38.7360   27.5650   41.9110 O   0  0  0  0  0  0  0  0  0  0  0  0
   37.9520   26.5170   41.5250 C   0  0  0  0  0  0  0  0  0  0  0  0
   37.6070   25.4110   42.2740 C   0  0  0  0  0  0  0  0  0  0  0  0
   38.0010   25.3680   43.2800 H   0  0  0  0  0  0  0  0  0  0  0  0
   36.7980   24.4480   41.7120 C   0  0  0  0  0  0  0  0  0  0  0  0
   36.5740   23.6070   42.3760 H   0  0  0  0  0  0  0  0  0  0  0  0
   36.2990   24.5070   40.4330 C   0  0  0  0  0  0  0  0  0  0  0  0
   36.6460   25.5970   39.7070 C   0  0  0  0  0  0  0  0  0  0  0  0
   37.4340   26.5590   40.2250 C   0  0  0  0  0  0  0  0  0  0  0  0
   37.6790   27.4200   39.5840 H   0  0  0  0  0  0  0  0  0  0  0  0
   36.0360   25.7430   38.0380 S   0  0  0  0  0  0  0  0  0  0  0  0
   35.0530   24.2800   37.7700 C   0  0  0  0  0  0  0  0  0  0  0  0
   34.4830   24.1980   36.5240 C   0  0  0  0  0  0  0  0  0  0  0  0
   34.6010   24.9480   35.7330 H   0  0  0  0  0  0  0  0  0  0  0  0
   33.6990   23.0970   36.2150 C   0  0  0  0  0  0  0  0  0  0  0  0
   33.2130   22.9520   35.2600 H   0  0  0  0  0  0  0  0  0  0  0  0
   33.5170   22.1200   37.1710 C   0  0  0  0  0  0  0  0  0  0  0  0
   32.9070   21.2560   36.9440 H   0  0  0  0  0  0  0  0  0  0  0  0
   34.1300   22.2920   38.3960 C   0  0  0  0  0  0  0  0  0  0  0  0
   33.9350   21.4680   39.1020 H   0  0  0  0  0  0  0  0  0  0  0  0
   34.9190   23.3640   38.7560 C   0  0  0  0  0  0  0  0  0  0  0  0
   35.4920   23.4370   40.0250 N   0  0  0  0  0  0  0  0  0  0  0  0
   35.2870   22.6420   40.6690 H   0  0  0  0  0  0  0  0  0  0  0  0
  1  6  2  0  0  0  0
  1  2  1  0  0  0  0
  2  3  2  0  0  0  0
  3  4  1  0  0  0  0
  3 11  1  0  0  0  0
  4  9  1  0  0  0  0
  5  4  2  0  0  0  0
  5  7  1  0  0  0  0
  6  5  1  0  0  0  0
  7  8  1  0  0  0  0
  8  9  1  0  0  0  0
  8 13  1  1  0  0  0
 10  1  1  0  0  0  0
 12  6  1  0  0  0  0
 14 15  2  0  0  0  0
 14 19  1  0  0  0  0
 15 16  1  0  0  0  0
 16  2  1  0  0  0  0
 16 17  2  0  0  0  0
 18 17  1  0  0  0  0
 18 21  1  0  0  0  0
 19 18  2  0  0  0  0
 20 14  1  0  0  0  0
 22 27  1  0  0  0  0
 22 15  1  0  0  0  0
 23 29  1  0  0  0  0
 23 22  1  0  0  0  0
 24 30  1  0  0  0  0
 24 23  1  0  0  0  0
 25 24  1  0  0  0  0
 25 26  1  0  0  0  0
 26 34  1  0  0  0  0
 26 27  1  0  0  0  0
 27 36  1  0  0  0  0
 27 35  1  0  0  0  0
 28 23  1  0  0  0  0
 31 24  1  0  0  0  0
 32 25  1  0  0  0  0
 33 26  1  0  0  0  0
 37  8  1  0  0  0  0
 38 37  1  0  0  0  0
 38 39  1  0  0  0  0
 39 40  1  0  0  0  0
 41 39  2  0  0  0  0
 41 42  1  0  0  0  0
 43 41  1  0  0  0  0
 44 45  1  0  0  0  0
 44 43  2  0  0  0  0
 45 38  2  0  0  0  0
 46 45  1  0  0  0  0
 47 44  1  0  0  0  0
 48 47  1  0  0  0  0
 48 57  1  0  0  0  0
 49 48  2  0  0  0  0
 50 49  1  0  0  0  0
 51 49  1  0  0  0  0
 51 53  2  0  0  0  0
 52 51  1  0  0  0  0
 53 55  1  0  0  0  0
 54 53  1  0  0  0  0
 55 57  2  0  0  0  0
 55 56  1  0  0  0  0
 57 58  1  0  0  0  0
 58 43  1  0  0  0  0
 58 59  1  0  0  0  0
M  END
>  <minimizedAffinity>
-7.53897142

$$$$

 OpenBabel03242523133D

 59 65  0  0  1  0  0  0  0  0999 V2000
   35.3090   24.1580   38.2610 C   0  0  0  0  0  0  0  0  0  0  0  0
   35.3540   23.2760   39.3640 C   0  0  0  0  0  0  0  0  0  0  0  0
   36.1400   23.7800   40.3720 C   0  0  0  0  0  0  0  0  0  0  0  0
   36.8080   24.9650   40.3530 C   0  0  0  0  0  0  0  0  0  0  0  0
   36.7150   25.7750   39.2250 C   0  0  0  0  0  0  0  0  0  0  0  0
   35.9510   25.3620   38.1650 C   0  0  0  0  0  0  0  0  0  0  0  0
   37.4960   26.8810   39.5150 O   0  0  0  0  0  0  0  0  0  0  0  0
   38.0190   26.7810   40.8260 C   0  0  2  0  0  0  0  0  0  0  0  0
   37.6070   25.5180   41.3360 O   0  0  0  0  0  0  0  0  0  0  0  0
   34.7620   24.0610   37.2980 H   0  0  0  0  0  0  0  0  0  0  0  0
   36.1870   23.1440   41.1990 H   0  0  0  0  0  0  0  0  0  0  0  0
   35.9550   26.0570   37.3710 H   0  0  0  0  0  0  0  0  0  0  0  0
   39.1290   26.8420   40.8050 H   0  0  0  0  0  0  0  0  0  0  0  0
   34.0210   19.8300   38.7430 C   0  0  0  0  0  0  0  0  0  0  0  0
   35.0050   20.8080   38.8750 C   0  0  0  0  0  0  0  0  0  0  0  0
   34.6450   22.0900   39.1640 C   0  0  0  0  0  0  0  0  0  0  0  0
   33.3070   22.3430   39.3080 N   0  0  0  0  0  0  0  0  0  0  0  0
   32.3630   21.4030   39.1820 C   0  0  0  0  0  0  0  0  0  0  0  0
   32.7180   20.1730   38.9050 N   0  0  0  0  0  0  0  0  0  0  0  0
   34.2960   18.8130   38.5160 H   0  0  0  0  0  0  0  0  0  0  0  0
   31.2960   21.5380   39.2840 H   0  0  0  0  0  0  0  0  0  0  0  0
   36.3280   20.4140   38.6710 N   0  0  0  0  0  0  0  0  0  0  0  0
   36.9390   20.4490   37.3810 C   0  0  0  0  0  0  0  0  0  0  0  0
   38.4130   20.1600   37.3700 C   0  0  0  0  0  0  0  0  0  0  0  0
   39.1230   20.6950   38.4390 N   0  0  0  0  0  0  0  0  0  0  0  0
   38.5560   20.6340   39.6830 C   0  0  0  0  0  0  0  0  0  0  0  0
   37.2140   19.9410   39.6590 C   0  0  0  0  0  0  0  0  0  0  0  0
   36.7360   21.3810   36.8020 H   0  0  0  0  0  0  0  0  0  0  0  0
   36.4410   19.6420   36.7740 H   0  0  0  0  0  0  0  0  0  0  0  0
   38.5200   19.0370   37.4040 H   0  0  0  0  0  0  0  0  0  0  0  0
   38.8030   20.4380   36.3690 H   0  0  0  0  0  0  0  0  0  0  0  0
   40.1030   20.9410   38.3170 H   0  0  0  0  0  0  0  0  0  0  0  0
   38.4370   21.6030   40.2300 H   0  0  0  0  0  0  0  0  0  0  0  0
   39.2060   20.0250   40.3760 H   0  0  0  0  0  0  0  0  0  0  0  0
   36.7530   20.1580   40.6620 H   0  0  0  0  0  0  0  0  0  0  0  0
   37.4250   18.8450   39.6400 H   0  0  0  0  0  0  0  0  0  0  0  0
   37.4280   27.7950   41.5860 O   0  0  0  0  0  0  0  0  0  0  0  0
   37.3670   29.1270   41.2980 C   0  0  0  0  0  0  0  0  0  0  0  0
   36.2350   29.8760   41.0470 C   0  0  0  0  0  0  0  0  0  0  0  0
   35.2910   29.3500   41.0810 H   0  0  0  0  0  0  0  0  0  0  0  0
   36.3700   31.2190   40.7730 C   0  0  0  0  0  0  0  0  0  0  0  0
   35.4230   31.7360   40.5860 H   0  0  0  0  0  0  0  0  0  0  0  0
   37.5720   31.8840   40.7300 C   0  0  0  0  0  0  0  0  0  0  0  0
   38.6750   31.1370   40.9780 C   0  0  0  0  0  0  0  0  0  0  0  0
   38.5810   29.8210   41.2500 C   0  0  0  0  0  0  0  0  0  0  0  0
   39.5150   29.2710   41.4430 H   0  0  0  0  0  0  0  0  0  0  0  0
   40.2720   31.9310   40.9390 S   0  0  0  0  0  0  0  0  0  0  0  0
   39.9360   33.6380   40.5490 C   0  0  0  0  0  0  0  0  0  0  0  0
   41.0510   34.4330   40.4720 C   0  0  0  0  0  0  0  0  0  0  0  0
   42.0790   34.0850   40.6290 H   0  0  0  0  0  0  0  0  0  0  0  0
   40.8980   35.7790   40.1740 C   0  0  0  0  0  0  0  0  0  0  0  0
   41.7200   36.4770   40.0930 H   0  0  0  0  0  0  0  0  0  0  0  0
   39.6270   36.2730   39.9650 C   0  0  0  0  0  0  0  0  0  0  0  0
   39.4930   37.3210   39.7330 H   0  0  0  0  0  0  0  0  0  0  0  0
   38.5670   35.3950   40.0660 C   0  0  0  0  0  0  0  0  0  0  0  0
   37.5890   35.8690   39.8850 H   0  0  0  0  0  0  0  0  0  0  0  0
   38.6620   34.0510   40.3580 C   0  0  0  0  0  0  0  0  0  0  0  0
   37.5220   33.2530   40.4350 N   0  0  0  0  0  0  0  0  0  0  0  0
   36.6120   33.7320   40.2600 H   0  0  0  0  0  0  0  0  0  0  0  0
  1  2  1  0  0  0  0
  2  3  2  0  0  0  0
  3 11  1  0  0  0  0
  4  3  1  0  0  0  0
  4  9  1  0  0  0  0
  5  7  1  0  0  0  0
  5  4  2  0  0  0  0
  6  1  2  0  0  0  0
  6  5  1  0  0  0  0
  7  8  1  0  0  0  0
  8 13  1  6  0  0  0
  8  9  1  0  0  0  0
  8 37  1  0  0  0  0
 10  1  1  0  0  0  0
 12  6  1  0  0  0  0
 14 15  2  0  0  0  0
 14 19  1  0  0  0  0
 15 16  1  0  0  0  0
 16 17  2  0  0  0  0
 16  2  1  0  0  0  0
 18 21  1  0  0  0  0
 18 17  1  0  0  0  0
 19 18  2  0  0  0  0
 20 14  1  0  0  0  0
 22 15  1  0  0  0  0
 22 27  1  0  0  0  0
 23 22  1  0  0  0  0
 24 23  1  0  0  0  0
 24 30  1  0  0  0  0
 24 25  1  0  0  0  0
 25 26  1  0  0  0  0
 26 33  1  0  0  0  0
 26 34  1  0  0  0  0
 27 26  1  0  0  0  0
 27 35  1  0  0  0  0
 28 23  1  0  0  0  0
 29 23  1  0  0  0  0
 31 24  1  0  0  0  0
 32 25  1  0  0  0  0
 36 27  1  0  0  0  0
 38 37  1  0  0  0  0
 39 40  1  0  0  0  0
 39 38  2  0  0  0  0
 41 39  1  0  0  0  0
 42 41  1  0  0  0  0
 43 41  2  0  0  0  0
 43 44  1  0  0  0  0
 44 45  2  0  0  0  0
 45 38  1  0  0  0  0
 45 46  1  0  0  0  0
 47 44  1  0  0  0  0
 48 47  1  0  0  0  0
 49 48  1  0  0  0  0
 49 50  1  0  0  0  0
 51 49  2  0  0  0  0
 52 51  1  0  0  0  0
 53 55  2  0  0  0  0
 53 51  1  0  0  0  0
 54 53  1  0  0  0  0
 55 57  1  0  0  0  0
 56 55  1  0  0  0  0
 57 58  1  0  0  0  0
 57 48  2  0  0  0  0
 58 43  1  0  0  0  0
 59 58  1  0  0  0  0
M  END
>  <minimizedAffinity>
-7.48194027

$$$$
