
 OpenBabel03252509003D

 58 62  0  0  1  0  0  0  0  0999 V2000
   47.1940   34.1150   42.9390 N   0  0  0  0  0  0  0  0  0  0  0  0
   46.7650   35.3660   42.4330 C   0  0  0  0  0  0  0  0  0  0  0  0
   45.2950   35.6700   42.6340 C   0  0  0  0  0  0  0  0  0  0  0  0
   44.7150   35.1120   43.8980 C   0  0  0  0  0  0  0  0  0  0  0  0
   45.7590   34.4250   44.7440 C   0  0  0  0  0  0  0  0  0  0  0  0
   46.3740   33.3630   43.7640 C   0  0  2  0  0  0  0  0  0  0  0  0
   46.9960   35.5640   41.3870 H   0  0  0  0  0  0  0  0  0  0  0  0
   47.3140   36.1540   43.0200 H   0  0  0  0  0  0  0  0  0  0  0  0
   44.7330   35.3140   41.7360 H   0  0  0  0  0  0  0  0  0  0  0  0
   45.1680   36.7750   42.6600 H   0  0  0  0  0  0  0  0  0  0  0  0
   44.1350   35.8740   44.4670 H   0  0  0  0  0  0  0  0  0  0  0  0
   43.9650   34.3180   43.6180 H   0  0  0  0  0  0  0  0  0  0  0  0
   46.5450   35.0990   45.0950 H   0  0  0  0  0  0  0  0  0  0  0  0
   45.2440   33.8840   45.5630 H   0  0  0  0  0  0  0  0  0  0  0  0
   45.4960   32.8540   43.3290 H   0  0  0  0  0  0  0  0  0  0  0  0
   48.1450   33.4470   42.1070 C   0  0  0  0  0  0  0  0  0  0  0  0
   48.7150   32.7110   42.7300 H   0  0  0  0  0  0  0  0  0  0  0  0
   48.8660   34.1650   41.7140 H   0  0  0  0  0  0  0  0  0  0  0  0
   47.4170   32.6670   41.0570 C   0  0  0  0  0  0  0  0  0  0  0  0
   46.3440   32.9700   41.0100 H   0  0  0  0  0  0  0  0  0  0  0  0
   47.4180   31.5830   41.2240 H   0  0  0  0  0  0  0  0  0  0  0  0
   49.3430   32.3430   37.8450 C   0  0  0  0  0  0  0  0  0  0  0  0
   48.7920   32.0500   39.1070 C   0  0  0  0  0  0  0  0  0  0  0  0
   47.9950   32.9840   39.7240 C   0  0  0  0  0  0  0  0  0  0  0  0
   47.7800   34.1430   39.0860 N   0  0  0  0  0  0  0  0  0  0  0  0
   48.3120   34.4140   37.8780 C   0  0  0  0  0  0  0  0  0  0  0  0
   49.0950   33.5200   37.2500 N   0  0  0  0  0  0  0  0  0  0  0  0
   49.9700   31.5830   37.3820 H   0  0  0  0  0  0  0  0  0  0  0  0
   48.9870   31.0980   39.6000 H   0  0  0  0  0  0  0  0  0  0  0  0
   48.0930   35.3700   37.4250 H   0  0  0  0  0  0  0  0  0  0  0  0
   47.1120   32.5710   44.6370 O   0  0  0  0  0  0  0  0  0  0  0  0
   45.2110   30.7980   44.1060 O   0  0  0  0  0  0  0  0  0  0  0  0
   46.2910   31.1790   45.1080 P   0  0  2  0  0  0  0  0  0  0  0  0
   45.4480   31.5870   46.5410 O   0  0  0  0  0  0  0  0  0  0  0  0
   46.0510   31.5270   47.3220 H   0  0  0  0  0  0  0  0  0  0  0  0
   47.3290   29.9180   45.4500 O   0  0  0  0  0  0  0  0  0  0  0  0
   47.0840   28.8360   46.2530 C   0  0  0  0  0  0  0  0  0  0  0  0
   45.8000   28.3850   46.4880 C   0  0  0  0  0  0  0  0  0  0  0  0
   44.9700   28.8970   46.0290 H   0  0  0  0  0  0  0  0  0  0  0  0
   45.6070   27.2900   47.3060 C   0  0  0  0  0  0  0  0  0  0  0  0
   44.5520   26.9990   47.4390 H   0  0  0  0  0  0  0  0  0  0  0  0
   46.6430   26.6070   47.9120 C   0  0  0  0  0  0  0  0  0  0  0  0
   47.9240   27.0420   47.6890 C   0  0  0  0  0  0  0  0  0  0  0  0
   48.0930   28.1310   46.8750 C   0  0  0  0  0  0  0  0  0  0  0  0
   49.1130   28.4760   46.6980 H   0  0  0  0  0  0  0  0  0  0  0  0
   49.2850   26.1880   48.4540 S   0  0  0  0  0  0  0  0  0  0  0  0
   48.5590   24.8640   49.4010 C   0  0  0  0  0  0  0  0  0  0  0  0
   49.4250   24.0760   50.0730 C   0  0  0  0  0  0  0  0  0  0  0  0
   50.4970   24.2120   50.0600 H   0  0  0  0  0  0  0  0  0  0  0  0
   48.9570   23.0250   50.8340 C   0  0  0  0  0  0  0  0  0  0  0  0
   49.6460   22.3910   51.3760 H   0  0  0  0  0  0  0  0  0  0  0  0
   47.5950   22.8100   50.8840 C   0  0  0  0  0  0  0  0  0  0  0  0
   47.1860   21.9960   51.4680 H   0  0  0  0  0  0  0  0  0  0  0  0
   46.7710   23.6550   50.1700 C   0  0  0  0  0  0  0  0  0  0  0  0
   45.6980   23.4330   50.2500 H   0  0  0  0  0  0  0  0  0  0  0  0
   47.1950   24.7160   49.3990 C   0  0  0  0  0  0  0  0  0  0  0  0
   46.2540   25.5170   48.7100 N   0  0  0  0  0  0  0  0  0  0  0  0
   45.2560   25.2460   48.8320 H   0  0  0  0  0  0  0  0  0  0  0  0
  1  6  1  0  0  0  0
  2  3  1  0  0  0  0
  2  1  1  0  0  0  0
  2  8  1  0  0  0  0
  3 10  1  0  0  0  0
  3  4  1  0  0  0  0
  4 11  1  0  0  0  0
  4  5  1  0  0  0  0
  5 13  1  0  0  0  0
  5 14  1  0  0  0  0
  6 15  1  6  0  0  0
  6 31  1  0  0  0  0
  6  5  1  0  0  0  0
  7  2  1  0  0  0  0
  9  3  1  0  0  0  0
 12  4  1  0  0  0  0
 16 17  1  0  0  0  0
 16  1  1  0  0  0  0
 18 16  1  0  0  0  0
 19 21  1  0  0  0  0
 19 16  1  0  0  0  0
 20 19  1  0  0  0  0
 22 23  1  0  0  0  0
 23 29  1  0  0  0  0
 23 24  2  0  0  0  0
 24 19  1  0  0  0  0
 25 24  1  0  0  0  0
 26 25  2  0  0  0  0
 27 22  2  0  0  0  0
 27 26  1  0  0  0  0
 28 22  1  0  0  0  0
 30 26  1  0  0  0  0
 31 33  1  0  0  0  0
 33 32  2  6  0  0  0
 33 36  1  0  0  0  0
 33 34  1  0  0  0  0
 34 35  1  0  0  0  0
 36 37  1  0  0  0  0
 37 38  2  0  0  0  0
 37 44  1  0  0  0  0
 38 40  1  0  0  0  0
 39 38  1  0  0  0  0
 40 41  1  0  0  0  0
 40 42  2  0  0  0  0
 42 57  1  0  0  0  0
 43 42  1  0  0  0  0
 43 46  1  0  0  0  0
 44 43  2  0  0  0  0
 45 44  1  0  0  0  0
 46 47  1  0  0  0  0
 47 48  1  0  0  0  0
 48 50  2  0  0  0  0
 49 48  1  0  0  0  0
 50 52  1  0  0  0  0
 50 51  1  0  0  0  0
 52 53  1  0  0  0  0
 54 55  1  0  0  0  0
 54 52  2  0  0  0  0
 56 47  2  0  0  0  0
 56 54  1  0  0  0  0
 57 58  1  0  0  0  0
 57 56  1  0  0  0  0
M  END
>  <minimizedAffinity>
-5.44933701

>  <minimizedRMSD>
0.827166855

$$$$
