
     RDKit          3D

 32 35  0  0  0  0  0  0  0  0999 V2000
   44.2657   35.7348   44.2602 C   0  0  0  0  0  0  0  0  0  0  0  0
   44.4245   34.9069   43.1228 C   0  0  0  0  0  0  0  0  0  0  0  0
   45.0639   33.6851   43.2834 C   0  0  0  0  0  0  0  0  0  0  0  0
   45.5120   33.3291   44.5194 N   0  0  0  0  0  0  0  0  0  0  0  0
   45.3403   34.1507   45.5844 C   0  0  0  0  0  0  0  0  0  0  0  0
   44.7283   35.3362   45.4663 N   0  0  0  0  0  0  0  0  0  0  0  0
   43.8032   35.4564   41.5345 S   0  0  0  0  0  0  0  0  0  0  0  0
   43.7731   36.6728   44.1290 H   0  0  0  0  0  0  0  0  0  0  0  0
   45.1965   33.0411   42.4401 H   0  0  0  0  0  0  0  0  0  0  0  0
   45.7455   33.7382   46.4987 H   0  0  0  0  0  0  0  0  0  0  0  0
   42.1205   34.8690   41.4125 C   0  0  0  0  0  0  0  0  0  0  0  0
   41.0579   35.6278   41.8578 C   0  0  0  0  0  0  0  0  0  0  0  0
   41.2288   36.6015   42.2928 H   0  0  0  0  0  0  0  0  0  0  0  0
   39.7889   35.1025   41.7276 C   0  0  0  0  0  0  0  0  0  0  0  0
   38.9948   35.7478   42.0966 H   0  0  0  0  0  0  0  0  0  0  0  0
   39.4805   33.8717   41.1859 C   0  0  0  0  0  0  0  0  0  0  0  0
   40.5740   33.1594   40.7593 C   0  0  0  0  0  0  0  0  0  0  0  0
   41.8525   33.6354   40.8658 C   0  0  0  0  0  0  0  0  0  0  0  0
   42.7030   33.0568   40.5227 H   0  0  0  0  0  0  0  0  0  0  0  0
   40.3282   31.5544   40.0390 S   0  0  0  0  0  0  0  0  0  0  0  0
   38.5697   31.2652   40.0616 C   0  0  0  0  0  0  0  0  0  0  0  0
   38.0771   30.1075   39.5699 C   0  0  0  0  0  0  0  0  0  0  0  0
   38.7599   29.3495   39.1587 H   0  0  0  0  0  0  0  0  0  0  0  0
   36.7171   29.8126   39.5544 C   0  0  0  0  0  0  0  0  0  0  0  0
   36.3456   28.8887   39.1602 H   0  0  0  0  0  0  0  0  0  0  0  0
   35.8837   30.7774   40.0747 C   0  0  0  0  0  0  0  0  0  0  0  0
   34.8223   30.5674   40.0719 H   0  0  0  0  0  0  0  0  0  0  0  0
   36.4162   31.9359   40.5631 C   0  0  0  0  0  0  0  0  0  0  0  0
   35.6771   32.6417   40.9551 H   0  0  0  0  0  0  0  0  0  0  0  0
   37.7600   32.2433   40.5858 C   0  0  0  0  0  0  0  0  0  0  0  0
   38.1477   33.4814   41.1239 N   0  0  0  0  0  0  0  0  0  0  0  0
   37.4146   34.1257   41.4869 H   0  0  0  0  0  0  0  0  0  0  0  0
  1  6  2  0
  2  3  2  0
  2  1  1  0
  3  4  1  0
  4  5  2  0
  6  5  1  0
  7  2  1  0
  1  8  1  0
  3  9  1  0
  5 10  1  0
 11 12  2  0
 12 13  1  0
 12 14  1  0
 14 15  1  0
 14 16  2  0
 16 17  1  0
 17 18  2  0
 18 19  1  0
 17 20  1  0
 20 21  1  0
 21 22  2  0
 22 23  1  0
 22 24  1  0
 24 25  1  0
 24 26  2  0
 26 27  1  0
 26 28  1  0
 28 29  1  0
 28 30  2  0
 30 31  1  0
 31 32  1  0
 18 11  1  0
 30 21  1  0
 31 16  1  0
  7 11  1  0
M  ISO  8   8  14   9  14  10  14  13  16  15  16  19  16  23  16  25  16
M  ISO  3  27  16  29  16  32   5
M  END
>  <DihAtoms>  (1) 
1,6,10,11

>  <DihDeg>  (1) 
0.000349000965444096

$$$$
