
 OpenBabel03252509003D

 58 62  0  0  1  0  0  0  0  0999 V2000
   47.1980   34.1780   43.0300 N   0  0  0  0  0  0  0  0  0  0  0  0
   46.6600   35.3760   42.4990 C   0  0  0  0  0  0  0  0  0  0  0  0
   45.1750   35.5680   42.7260 C   0  0  0  0  0  0  0  0  0  0  0  0
   44.6680   35.0050   44.0180 C   0  0  0  0  0  0  0  0  0  0  0  0
   45.7810   34.4280   44.8580 C   0  0  0  0  0  0  0  0  0  0  0  0
   46.4570   33.3880   43.8940 C   0  0  2  0  0  0  0  0  0  0  0  0
   46.8530   35.5600   41.4420 H   0  0  0  0  0  0  0  0  0  0  0  0
   47.1580   36.2210   43.0510 H   0  0  0  0  0  0  0  0  0  0  0  0
   44.6250   35.1420   41.8510 H   0  0  0  0  0  0  0  0  0  0  0  0
   44.9620   36.6600   42.7230 H   0  0  0  0  0  0  0  0  0  0  0  0
   44.0420   35.7350   44.5790 H   0  0  0  0  0  0  0  0  0  0  0  0
   43.9780   34.1460   43.7780 H   0  0  0  0  0  0  0  0  0  0  0  0
   46.5180   35.1720   45.1720 H   0  0  0  0  0  0  0  0  0  0  0  0
   45.3280   33.8720   45.7040 H   0  0  0  0  0  0  0  0  0  0  0  0
   45.6140   32.7990   43.4950 H   0  0  0  0  0  0  0  0  0  0  0  0
   48.1810   33.5610   42.1950 C   0  0  0  0  0  0  0  0  0  0  0  0
   48.8230   32.8950   42.8260 H   0  0  0  0  0  0  0  0  0  0  0  0
   48.8320   34.3230   41.7630 H   0  0  0  0  0  0  0  0  0  0  0  0
   47.4960   32.6920   41.1880 C   0  0  0  0  0  0  0  0  0  0  0  0
   46.4050   32.9220   41.1430 H   0  0  0  0  0  0  0  0  0  0  0  0
   47.5710   31.6180   41.4000 H   0  0  0  0  0  0  0  0  0  0  0  0
   49.3560   32.3320   37.9410 C   0  0  0  0  0  0  0  0  0  0  0  0
   48.8380   32.0570   39.2210 C   0  0  0  0  0  0  0  0  0  0  0  0
   48.0380   32.9900   39.8360 C   0  0  0  0  0  0  0  0  0  0  0  0
   47.7860   34.1300   39.1780 N   0  0  0  0  0  0  0  0  0  0  0  0
   48.2850   34.3840   37.9520 C   0  0  0  0  0  0  0  0  0  0  0  0
   49.0710   33.4920   37.3260 N   0  0  0  0  0  0  0  0  0  0  0  0
   49.9870   31.5750   37.4800 H   0  0  0  0  0  0  0  0  0  0  0  0
   49.0640   31.1200   39.7300 H   0  0  0  0  0  0  0  0  0  0  0  0
   48.0370   35.3260   37.4830 H   0  0  0  0  0  0  0  0  0  0  0  0
   47.2740   32.6830   44.7720 O   0  0  0  0  0  0  0  0  0  0  0  0
   45.3930   30.8550   44.3790 O   0  0  0  0  0  0  0  0  0  0  0  0
   46.6480   31.1750   45.1780 P   0  0  2  0  0  0  0  0  0  0  0  0
   46.1240   31.3000   46.8030 O   0  0  0  0  0  0  0  0  0  0  0  0
   46.8860   31.1760   47.4190 H   0  0  0  0  0  0  0  0  0  0  0  0
   47.7960   29.9680   45.0870 O   0  0  0  0  0  0  0  0  0  0  0  0
   48.1070   29.0440   46.0500 C   0  0  0  0  0  0  0  0  0  0  0  0
   49.2310   29.1730   46.8400 C   0  0  0  0  0  0  0  0  0  0  0  0
   49.8820   30.0200   46.6980 H   0  0  0  0  0  0  0  0  0  0  0  0
   49.4980   28.2130   47.7970 C   0  0  0  0  0  0  0  0  0  0  0  0
   50.4140   28.3950   48.3810 H   0  0  0  0  0  0  0  0  0  0  0  0
   48.6920   27.1140   48.0120 C   0  0  0  0  0  0  0  0  0  0  0  0
   47.5690   26.9710   47.2350 C   0  0  0  0  0  0  0  0  0  0  0  0
   47.3240   27.9340   46.2930 C   0  0  0  0  0  0  0  0  0  0  0  0
   46.4310   27.8210   45.6740 H   0  0  0  0  0  0  0  0  0  0  0  0
   46.5050   25.5680   47.4830 S   0  0  0  0  0  0  0  0  0  0  0  0
   47.2430   24.6230   48.8000 C   0  0  0  0  0  0  0  0  0  0  0  0
   46.5890   23.4970   49.1570 C   0  0  0  0  0  0  0  0  0  0  0  0
   45.6720   23.1600   48.6930 H   0  0  0  0  0  0  0  0  0  0  0  0
   47.0840   22.6990   50.1680 C   0  0  0  0  0  0  0  0  0  0  0  0
   46.5630   21.7950   50.4580 H   0  0  0  0  0  0  0  0  0  0  0  0
   48.2520   23.0840   50.7920 C   0  0  0  0  0  0  0  0  0  0  0  0
   48.6750   22.4890   51.5900 H   0  0  0  0  0  0  0  0  0  0  0  0
   48.8650   24.2470   50.3750 C   0  0  0  0  0  0  0  0  0  0  0  0
   49.7900   24.5020   50.9100 H   0  0  0  0  0  0  0  0  0  0  0  0
   48.4060   25.0740   49.3710 C   0  0  0  0  0  0  0  0  0  0  0  0
   49.1220   26.2440   49.0280 N   0  0  0  0  0  0  0  0  0  0  0  0
   49.9890   26.4210   49.5780 H   0  0  0  0  0  0  0  0  0  0  0  0
  1  6  1  0  0  0  0
  2  3  1  0  0  0  0
  2  1  1  0  0  0  0
  2  8  1  0  0  0  0
  3  4  1  0  0  0  0
  4 11  1  0  0  0  0
  4  5  1  0  0  0  0
  5 13  1  0  0  0  0
  5 14  1  0  0  0  0
  6 15  1  6  0  0  0
  6 31  1  0  0  0  0
  6  5  1  0  0  0  0
  7  2  1  0  0  0  0
  9  3  1  0  0  0  0
 10  3  1  0  0  0  0
 12  4  1  0  0  0  0
 16 17  1  0  0  0  0
 16  1  1  0  0  0  0
 18 16  1  0  0  0  0
 19 21  1  0  0  0  0
 19 16  1  0  0  0  0
 20 19  1  0  0  0  0
 22 23  1  0  0  0  0
 23 29  1  0  0  0  0
 23 24  2  0  0  0  0
 24 19  1  0  0  0  0
 25 24  1  0  0  0  0
 26 25  2  0  0  0  0
 27 22  2  0  0  0  0
 27 26  1  0  0  0  0
 28 22  1  0  0  0  0
 30 26  1  0  0  0  0
 31 33  1  0  0  0  0
 33 32  2  6  0  0  0
 33 34  1  0  0  0  0
 34 35  1  0  0  0  0
 36 33  1  0  0  0  0
 36 37  1  0  0  0  0
 37 44  2  0  0  0  0
 37 38  1  0  0  0  0
 38 40  2  0  0  0  0
 39 38  1  0  0  0  0
 40 42  1  0  0  0  0
 40 41  1  0  0  0  0
 42 57  1  0  0  0  0
 43 46  1  0  0  0  0
 43 42  2  0  0  0  0
 44 43  1  0  0  0  0
 45 44  1  0  0  0  0
 46 47  1  0  0  0  0
 47 48  2  0  0  0  0
 47 56  1  0  0  0  0
 48 50  1  0  0  0  0
 49 48  1  0  0  0  0
 50 51  1  0  0  0  0
 50 52  2  0  0  0  0
 52 53  1  0  0  0  0
 54 52  1  0  0  0  0
 54 55  1  0  0  0  0
 56 54  2  0  0  0  0
 57 56  1  0  0  0  0
 57 58  1  0  0  0  0
M  END
>  <minimizedAffinity>
-4.9965024

>  <minimizedRMSD>
1.08304989

$$$$
