
     RDKit          3D

 59 65  0  0  0  0  0  0  0  0999 V2000
   45.1262   36.0060   43.4847 C   0  0  0  0  0  0  0  0  0  0  0  0
   45.9154   34.8802   43.2552 C   0  0  0  0  0  0  0  0  0  0  0  0
   46.0628   33.9504   44.2404 C   0  0  0  0  0  0  0  0  0  0  0  0
   45.4138   34.1867   45.4221 N   0  0  0  0  0  0  0  0  0  0  0  0
   44.6567   35.2684   45.6414 C   0  0  0  0  0  0  0  0  0  0  0  0
   44.5188   36.1562   44.6886 N   0  0  0  0  0  0  0  0  0  0  0  0
   46.5422   34.7833   42.0125 N   0  0  0  0  0  0  0  0  0  0  0  0
   47.8665   35.2688   41.7930 C   0  0  0  0  0  0  0  0  0  0  0  0
   48.4520   34.9284   40.4520 C   0  0  0  0  0  0  0  0  0  0  0  0
   48.1414   33.6566   39.9832 N   0  0  0  0  0  0  0  0  0  0  0  0
   46.8645   33.1997   40.1619 C   0  0  0  0  0  0  0  0  0  0  0  0
   45.9876   34.2232   40.8446 C   0  0  0  0  0  0  0  0  0  0  0  0
   46.4389   31.9966   45.4952 C   0  0  0  0  0  0  0  0  0  0  0  0
   46.7546   32.7409   44.3371 C   0  0  0  0  0  0  0  0  0  0  0  0
   47.7222   32.1117   43.5902 C   0  0  0  0  0  0  0  0  0  0  0  0
   48.3257   30.9308   43.8897 C   0  0  0  0  0  0  0  0  0  0  0  0
   47.9599   30.2611   45.0537 C   0  0  0  0  0  0  0  0  0  0  0  0
   46.9998   30.8064   45.8658 C   0  0  0  0  0  0  0  0  0  0  0  0
   48.7451   29.1196   45.0704 O   0  0  0  0  0  0  0  0  0  0  0  0
   49.5432   29.0580   43.9045 C   0  0  2  0  0  0  0  0  0  0  0  0
   49.2988   30.2555   43.1761 O   0  0  0  0  0  0  0  0  0  0  0  0
   49.0951   27.9685   43.1517 O   0  0  0  0  0  0  0  0  0  0  0  0
   45.0023   36.7466   42.7120 H   0  0  0  0  0  0  0  0  0  0  0  0
   44.1213   35.5115   46.5476 H   0  0  0  0  0  0  0  0  0  0  0  0
   48.5930   35.0027   42.5972 H   0  0  0  0  0  0  0  0  0  0  0  0
   47.8049   36.3915   41.8484 H   0  0  0  0  0  0  0  0  0  0  0  0
   48.0405   35.6831   39.7208 H   0  0  0  0  0  0  0  0  0  0  0  0
   49.5377   35.1546   40.4906 H   0  0  0  0  0  0  0  0  0  0  0  0
   48.7919   33.1776   39.3628 H   0  0  0  0  0  0  0  0  0  0  0  0
   46.7485   32.2271   40.7028 H   0  0  0  0  0  0  0  0  0  0  0  0
   46.3812   32.9974   39.1617 H   0  0  0  0  0  0  0  0  0  0  0  0
   45.0592   33.6627   41.1430 H   0  0  0  0  0  0  0  0  0  0  0  0
   45.6772   34.9503   40.0563 H   0  0  0  0  0  0  0  0  0  0  0  0
   45.7000   32.2131   46.2965 H   0  0  0  0  0  0  0  0  0  0  0  0
   47.9711   32.6453   42.7272 H   0  0  0  0  0  0  0  0  0  0  0  0
   46.8055   30.2097   46.7149 H   0  0  0  0  0  0  0  0  0  0  0  0
   50.6187   28.9879   44.1755 H   0  0  0  0  0  0  0  0  0  0  0  0
   49.8160   26.8846   42.7400 C   0  0  0  0  0  0  0  0  0  0  0  0
   50.9347   26.8841   41.9334 C   0  0  0  0  0  0  0  0  0  0  0  0
   51.2816   27.8473   41.5873 H   0  0  0  0  0  0  0  0  0  0  0  0
   51.5335   25.6826   41.6217 C   0  0  0  0  0  0  0  0  0  0  0  0
   52.4137   25.7740   40.9778 H   0  0  0  0  0  0  0  0  0  0  0  0
   51.0900   24.4596   42.0635 C   0  0  0  0  0  0  0  0  0  0  0  0
   49.9893   24.4742   42.8556 C   0  0  0  0  0  0  0  0  0  0  0  0
   49.3786   25.6299   43.1806 C   0  0  0  0  0  0  0  0  0  0  0  0
   48.4895   25.5747   43.8271 H   0  0  0  0  0  0  0  0  0  0  0  0
   49.3549   22.9243   43.4677 S   0  0  0  0  0  0  0  0  0  0  0  0
   50.4456   21.6784   42.8054 C   0  0  0  0  0  0  0  0  0  0  0  0
   50.1255   20.3934   43.1644 C   0  0  0  0  0  0  0  0  0  0  0  0
   49.2776   20.1164   43.8035 H   0  0  0  0  0  0  0  0  0  0  0  0
   50.9123   19.3502   42.7013 C   0  0  0  0  0  0  0  0  0  0  0  0
   50.7327   18.3096   42.9345 H   0  0  0  0  0  0  0  0  0  0  0  0
   51.9925   19.6393   41.8935 C   0  0  0  0  0  0  0  0  0  0  0  0
   52.6145   18.8355   41.5252 H   0  0  0  0  0  0  0  0  0  0  0  0
   52.2349   20.9626   41.5868 C   0  0  0  0  0  0  0  0  0  0  0  0
   53.1139   21.1082   40.9385 H   0  0  0  0  0  0  0  0  0  0  0  0
   51.4862   22.0382   42.0193 C   0  0  0  0  0  0  0  0  0  0  0  0
   51.8214   23.3386   41.6479 N   0  0  0  0  0  0  0  0  0  0  0  0
   52.6584   23.4415   41.0342 H   0  0  0  0  0  0  0  0  0  0  0  0
  1  6  2  0
  2  1  1  0
  2  3  2  0
  3 14  1  0
  3  4  1  0
  4  5  2  0
  6  5  1  0
  7  2  1  0
  8  7  1  0
  9  8  1  0
 10 11  1  0
 10  9  1  0
 11 12  1  0
 12  7  1  0
 13 18  2  0
 14 13  1  0
 15 16  1  0
 15 14  2  0
 16 17  2  0
 17 19  1  0
 17 18  1  0
 20 19  1  0
 21 16  1  0
 21 20  1  0
 22 20  1  0
  1 23  1  0
  5 24  1  0
  8 25  1  0
  8 26  1  0
  9 27  1  0
  9 28  1  0
 10 29  1  0
 11 30  1  0
 11 31  1  0
 12 32  1  0
 12 33  1  0
 13 34  1  0
 15 35  1  0
 18 36  1  0
 20 37  1  1
 38 39  2  0
 39 40  1  0
 39 41  1  0
 41 42  1  0
 41 43  2  0
 43 44  1  0
 44 45  2  0
 45 46  1  0
 44 47  1  0
 47 48  1  0
 48 49  2  0
 49 50  1  0
 49 51  1  0
 51 52  1  0
 51 53  2  0
 53 54  1  0
 53 55  1  0
 55 56  1  0
 55 57  2  0
 57 58  1  0
 58 59  1  0
 45 38  1  0
 57 48  1  0
 58 43  1  0
 22 38  1  0
M  ISO  8  23  14  24  14  25  13  26  13  27  13  28  13  29   5  30  13
M  ISO  8  31  13  32  13  33  13  34  14  35  14  36  14  37  13  40  16
M  ISO  7  42  16  46  16  50  16  52  16  54  16  56  16  59   5
M  END
>  <DihAtoms>  (1) 
19,21,37,38

>  <DihDeg>  (1) 
0.000528332807194246

$$$$
