REMARK  Name = 
REMARK  4 active torsions:
REMARK  status: ('A' for Active; 'I' for Inactive)
REMARK    1  A    between atoms: C_1  and  C_4
REMARK    2  A    between atoms: C_2  and  C_11
REMARK    3  A    between atoms: C_8  and  O_10
REMARK    4  A    between atoms: O_10  and  C_21
REMARK                            x       y       z     vdW  Elec       q    Type
REMARK                         _______ _______ _______ _____ _____    ______ ____
ROOT
ATOM      1  C   UNL     1      46.931  32.290  49.400  0.00  0.00    +0.000 A 
ATOM      2  C   UNL     1      46.823  31.124  50.116  0.00  0.00    +0.000 A 
ATOM      3  H   UNL     1      46.013  30.491  49.806  0.00  0.00    +0.000 HD
ATOM      4  C   UNL     1      47.663  30.774  51.145  0.00  0.00    +0.000 A 
ATOM      5  H   UNL     1      47.432  29.806  51.608  0.00  0.00    +0.000 HD
ATOM      6  C   UNL     1      48.699  31.596  51.533  0.00  0.00    +0.000 A 
ATOM      7  C   UNL     1      48.878  32.778  50.871  0.00  0.00    +0.000 A 
ATOM      8  C   UNL     1      48.014  33.075  49.858  0.00  0.00    +0.000 A 
ATOM      9  H   UNL     1      48.274  34.048  49.417  0.00  0.00    +0.000 HD
ATOM     10  S   UNL     1      50.220  33.836  51.380  0.00  0.00    +0.000 S 
ATOM     11  C   UNL     1      51.035  32.999  52.726  0.00  0.00    +0.000 A 
ATOM     12  C   UNL     1      52.096  33.658  53.252  0.00  0.00    +0.000 A 
ATOM     13  H   UNL     1      52.452  34.615  52.913  0.00  0.00    +0.000 HD
ATOM     14  C   UNL     1      52.795  33.087  54.304  0.00  0.00    +0.000 A 
ATOM     15  H   UNL     1      53.640  33.580  54.746  0.00  0.00    +0.000 HD
ATOM     16  C   UNL     1      52.377  31.872  54.767  0.00  0.00    +0.000 A 
ATOM     17  H   UNL     1      52.914  31.417  55.587  0.00  0.00    +0.000 HD
ATOM     18  C   UNL     1      51.298  31.270  54.184  0.00  0.00    +0.000 A 
ATOM     19  H   UNL     1      51.030  30.294  54.618  0.00  0.00    +0.000 HD
ATOM     20  C   UNL     1      50.557  31.779  53.137  0.00  0.00    +0.000 A 
ATOM     21  N   UNL     1      49.453  31.088  52.593  0.00  0.00    +0.000 N 
ATOM     22  H   UNL     1      49.265  30.174  53.058  0.00  0.00    +0.000 HD
ENDROOT
BRANCH   1  23
ATOM     23  O   UNL     1      46.308  32.916  48.380  0.00  0.00    +0.000 OA
BRANCH  23  28
ATOM     24  C   UNL     1      45.899  32.861  44.816  0.00  0.00    +0.000 A 
ATOM     25  C   UNL     1      46.731  31.754  44.505  0.00  0.00    +0.000 A 
ATOM     26  C   UNL     1      47.404  31.057  45.505  0.00  0.00    +0.000 A 
ATOM     27  N   UNL     1      47.215  31.500  46.773  0.00  0.00    +0.000 NA
ATOM     28  C   UNL     1      46.407  32.574  47.056  0.00  0.00    +0.000 A 
ATOM     29  N   UNL     1      45.765  33.235  46.092  0.00  0.00    +0.000 NA
ATOM     30  H   UNL     1      46.820  31.474  43.460  0.00  0.00    +0.000 HD
ATOM     31  H   UNL     1      48.026  30.229  45.275  0.00  0.00    +0.000 HD
BRANCH  24  32
ATOM     32  C   UNL     1      45.223  33.565  43.712  0.00  0.00    +0.000 C 
ATOM     33  C   UNL     1      45.859  34.983  43.475  0.00  0.00    +0.000 C 
ATOM     34  C   UNL     1      45.799  33.865  42.458  0.00  0.00    +0.000 C 
ATOM     35  H   UNL     1      44.114  33.613  43.872  0.00  0.00    +0.000 HD
ATOM     36  H   UNL     1      46.807  35.203  43.957  0.00  0.00    +0.000 HD
ATOM     37  H   UNL     1      45.121  33.998  41.573  0.00  0.00    +0.000 HD
ATOM     38  H   UNL     1      46.804  33.524  42.115  0.00  0.00    +0.000 HD
BRANCH  33  39
ATOM     39  C   UNL     1      44.839  36.073  43.242  0.00  0.00    +0.000 C 
ATOM     40  F   UNL     1      45.374  37.328  43.240  0.00  0.00    +0.000 F 
ATOM     41  F   UNL     1      44.240  35.859  41.982  0.00  0.00    +0.000 F 
ATOM     42  F   UNL     1      43.792  35.975  44.145  0.00  0.00    +0.000 F 
ENDBRANCH  33  39
ENDBRANCH  24  32
ENDBRANCH  23  28
ENDBRANCH   1  23
TORSDOF 4
