
 OpenBabel03242523123D

 59 65  0  0  1  0  0  0  0  0999 V2000
   46.0230   31.5290   44.8250 C   0  0  0  0  0  0  0  0  0  0  0  0
   46.6980   32.5830   44.1700 C   0  0  0  0  0  0  0  0  0  0  0  0
   47.9060   32.1640   43.6680 C   0  0  0  0  0  0  0  0  0  0  0  0
   48.4260   30.9110   43.7680 C   0  0  0  0  0  0  0  0  0  0  0  0
   47.6980   29.9290   44.4340 C   0  0  0  0  0  0  0  0  0  0  0  0
   46.4770   30.2470   44.9680 C   0  0  0  0  0  0  0  0  0  0  0  0
   48.4870   28.7930   44.3650 O   0  0  0  0  0  0  0  0  0  0  0  0
   49.6600   29.0550   43.6190 C   0  0  2  0  0  0  0  0  0  0  0  0
   49.6300   30.4370   43.2820 O   0  0  0  0  0  0  0  0  0  0  0  0
   45.0300   31.5260   45.3250 H   0  0  0  0  0  0  0  0  0  0  0  0
   48.4230   32.9280   43.1780 H   0  0  0  0  0  0  0  0  0  0  0  0
   46.0200   29.4240   45.4460 H   0  0  0  0  0  0  0  0  0  0  0  0
   50.5630   28.8290   44.2250 H   0  0  0  0  0  0  0  0  0  0  0  0
   45.0960   35.9410   43.7240 C   0  0  0  0  0  0  0  0  0  0  0  0
   45.8640   34.8390   43.3530 C   0  0  0  0  0  0  0  0  0  0  0  0
   46.0200   33.8030   44.2240 C   0  0  0  0  0  0  0  0  0  0  0  0
   45.4000   33.9140   45.4400 N   0  0  0  0  0  0  0  0  0  0  0  0
   44.6620   34.9720   45.7950 C   0  0  0  0  0  0  0  0  0  0  0  0
   44.5160   35.9620   44.9510 N   0  0  0  0  0  0  0  0  0  0  0  0
   44.9650   36.7650   43.0420 H   0  0  0  0  0  0  0  0  0  0  0  0
   44.1490   35.1180   46.7350 H   0  0  0  0  0  0  0  0  0  0  0  0
   46.4630   34.8740   42.0940 N   0  0  0  0  0  0  0  0  0  0  0  0
   47.7730   35.4070   41.8930 C   0  0  0  0  0  0  0  0  0  0  0  0
   48.3330   35.2080   40.5130 C   0  0  0  0  0  0  0  0  0  0  0  0
   48.0350   33.9810   39.9310 N   0  0  0  0  0  0  0  0  0  0  0  0
   46.7710   33.4820   40.0930 C   0  0  0  0  0  0  0  0  0  0  0  0
   45.8930   34.4170   40.8900 C   0  0  0  0  0  0  0  0  0  0  0  0
   48.5230   35.0800   42.6510 H   0  0  0  0  0  0  0  0  0  0  0  0
   47.6920   36.5180   42.0560 H   0  0  0  0  0  0  0  0  0  0  0  0
   47.8910   36.0200   39.8670 H   0  0  0  0  0  0  0  0  0  0  0  0
   49.4150   35.4530   40.5500 H   0  0  0  0  0  0  0  0  0  0  0  0
   48.6800   33.5770   39.2540 H   0  0  0  0  0  0  0  0  0  0  0  0
   46.6870   32.4600   40.5400 H   0  0  0  0  0  0  0  0  0  0  0  0
   46.2690   33.3650   39.0890 H   0  0  0  0  0  0  0  0  0  0  0  0
   44.9820   33.8110   41.1530 H   0  0  0  0  0  0  0  0  0  0  0  0
   45.5490   35.2090   40.1810 H   0  0  0  0  0  0  0  0  0  0  0  0
   49.5830   28.2980   42.4460 O   0  0  0  0  0  0  0  0  0  0  0  0
   48.8810   28.5850   41.3120 C   0  0  0  0  0  0  0  0  0  0  0  0
   47.6700   28.0500   40.9220 C   0  0  0  0  0  0  0  0  0  0  0  0
   47.2260   27.3220   41.5880 H   0  0  0  0  0  0  0  0  0  0  0  0
   47.1070   28.4640   39.7350 C   0  0  0  0  0  0  0  0  0  0  0  0
   46.1480   27.9890   39.5040 H   0  0  0  0  0  0  0  0  0  0  0  0
   47.6730   29.3890   38.8910 C   0  0  0  0  0  0  0  0  0  0  0  0
   48.8630   29.9070   39.2850 C   0  0  0  0  0  0  0  0  0  0  0  0
   49.4420   29.5250   40.4400 C   0  0  0  0  0  0  0  0  0  0  0  0
   50.4080   29.9830   40.7040 H   0  0  0  0  0  0  0  0  0  0  0  0
   49.6580   31.1140   38.2410 S   0  0  0  0  0  0  0  0  0  0  0  0
   48.5670   31.3180   36.8460 C   0  0  0  0  0  0  0  0  0  0  0  0
   49.0030   32.2200   35.9090 C   0  0  0  0  0  0  0  0  0  0  0  0
   49.9410   32.7870   35.9780 H   0  0  0  0  0  0  0  0  0  0  0  0
   48.2260   32.4520   34.7850 C   0  0  0  0  0  0  0  0  0  0  0  0
   48.4940   33.1440   33.9990 H   0  0  0  0  0  0  0  0  0  0  0  0
   47.0370   31.7650   34.6460 C   0  0  0  0  0  0  0  0  0  0  0  0
   46.4210   31.9370   33.7740 H   0  0  0  0  0  0  0  0  0  0  0  0
   46.6810   30.8790   35.6400 C   0  0  0  0  0  0  0  0  0  0  0  0
   45.7200   30.3730   35.4540 H   0  0  0  0  0  0  0  0  0  0  0  0
   47.4150   30.6100   36.7780 C   0  0  0  0  0  0  0  0  0  0  0  0
   46.9610   29.6920   37.7230 N   0  0  0  0  0  0  0  0  0  0  0  0
   46.0480   29.2320   37.5160 H   0  0  0  0  0  0  0  0  0  0  0  0
  1  6  1  0  0  0  0
  1 10  1  0  0  0  0
  2 16  1  0  0  0  0
  2  1  2  0  0  0  0
  3  4  2  0  0  0  0
  3  2  1  0  0  0  0
  4  5  1  0  0  0  0
  5  6  2  0  0  0  0
  6 12  1  0  0  0  0
  7  5  1  0  0  0  0
  8 13  1  1  0  0  0
  8  7  1  0  0  0  0
  9  8  1  0  0  0  0
  9  4  1  0  0  0  0
 11  3  1  0  0  0  0
 14 19  1  0  0  0  0
 15 14  2  0  0  0  0
 15 16  1  0  0  0  0
 16 17  2  0  0  0  0
 17 18  1  0  0  0  0
 18 21  1  0  0  0  0
 19 18  2  0  0  0  0
 20 14  1  0  0  0  0
 22 15  1  0  0  0  0
 23 29  1  0  0  0  0
 23 22  1  0  0  0  0
 23 28  1  0  0  0  0
 24 31  1  0  0  0  0
 24 23  1  0  0  0  0
 25 26  1  0  0  0  0
 25 24  1  0  0  0  0
 26 33  1  0  0  0  0
 26 27  1  0  0  0  0
 27 35  1  0  0  0  0
 27 22  1  0  0  0  0
 30 24  1  0  0  0  0
 32 25  1  0  0  0  0
 34 26  1  0  0  0  0
 36 27  1  0  0  0  0
 37  8  1  0  0  0  0
 38 37  1  0  0  0  0
 39 38  1  0  0  0  0
 39 40  1  0  0  0  0
 41 39  2  0  0  0  0
 42 41  1  0  0  0  0
 43 44  2  0  0  0  0
 43 41  1  0  0  0  0
 44 45  1  0  0  0  0
 45 46  1  0  0  0  0
 45 38  2  0  0  0  0
 47 44  1  0  0  0  0
 48 47  1  0  0  0  0
 49 50  1  0  0  0  0
 49 48  2  0  0  0  0
 51 49  1  0  0  0  0
 52 51  1  0  0  0  0
 53 51  2  0  0  0  0
 53 55  1  0  0  0  0
 54 53  1  0  0  0  0
 55 57  2  0  0  0  0
 56 55  1  0  0  0  0
 57 48  1  0  0  0  0
 57 58  1  0  0  0  0
 58 43  1  0  0  0  0
 59 58  1  0  0  0  0
M  END
>  <minimizedAffinity>
-5.403543

>  <minimizedRMSD>
4.9497509

$$$$
