
     RDKit          3D

 59 65  0  0  0  0  0  0  0  0999 V2000
   45.1262   36.0060   43.4847 C   0  0  0  0  0  0  0  0  0  0  0  0
   45.9154   34.8802   43.2552 C   0  0  0  0  0  0  0  0  0  0  0  0
   46.0628   33.9504   44.2404 C   0  0  0  0  0  0  0  0  0  0  0  0
   45.4138   34.1867   45.4221 N   0  0  0  0  0  0  0  0  0  0  0  0
   44.6567   35.2684   45.6414 C   0  0  0  0  0  0  0  0  0  0  0  0
   44.5188   36.1562   44.6886 N   0  0  0  0  0  0  0  0  0  0  0  0
   46.5422   34.7833   42.0125 N   0  0  0  0  0  0  0  0  0  0  0  0
   47.8665   35.2688   41.7930 C   0  0  0  0  0  0  0  0  0  0  0  0
   48.4520   34.9284   40.4520 C   0  0  0  0  0  0  0  0  0  0  0  0
   48.1414   33.6566   39.9832 N   0  0  0  0  0  0  0  0  0  0  0  0
   46.8645   33.1997   40.1619 C   0  0  0  0  0  0  0  0  0  0  0  0
   45.9876   34.2232   40.8446 C   0  0  0  0  0  0  0  0  0  0  0  0
   46.4389   31.9966   45.4952 C   0  0  0  0  0  0  0  0  0  0  0  0
   46.7546   32.7409   44.3371 C   0  0  0  0  0  0  0  0  0  0  0  0
   47.7222   32.1117   43.5902 C   0  0  0  0  0  0  0  0  0  0  0  0
   48.3257   30.9308   43.8897 C   0  0  0  0  0  0  0  0  0  0  0  0
   47.9599   30.2611   45.0537 C   0  0  0  0  0  0  0  0  0  0  0  0
   46.9998   30.8064   45.8658 C   0  0  0  0  0  0  0  0  0  0  0  0
   48.7451   29.1196   45.0704 O   0  0  0  0  0  0  0  0  0  0  0  0
   49.5432   29.0580   43.9045 C   0  0  2  0  0  0  0  0  0  0  0  0
   49.2988   30.2555   43.1761 O   0  0  0  0  0  0  0  0  0  0  0  0
   49.0951   27.9685   43.1517 O   0  0  0  0  0  0  0  0  0  0  0  0
   45.0023   36.7466   42.7120 H   0  0  0  0  0  0  0  0  0  0  0  0
   44.1213   35.5115   46.5476 H   0  0  0  0  0  0  0  0  0  0  0  0
   48.5930   35.0027   42.5972 H   0  0  0  0  0  0  0  0  0  0  0  0
   47.8049   36.3915   41.8484 H   0  0  0  0  0  0  0  0  0  0  0  0
   48.0405   35.6831   39.7208 H   0  0  0  0  0  0  0  0  0  0  0  0
   49.5377   35.1546   40.4906 H   0  0  0  0  0  0  0  0  0  0  0  0
   48.7919   33.1776   39.3628 H   0  0  0  0  0  0  0  0  0  0  0  0
   46.7485   32.2271   40.7028 H   0  0  0  0  0  0  0  0  0  0  0  0
   46.3812   32.9974   39.1617 H   0  0  0  0  0  0  0  0  0  0  0  0
   45.0592   33.6627   41.1430 H   0  0  0  0  0  0  0  0  0  0  0  0
   45.6772   34.9503   40.0563 H   0  0  0  0  0  0  0  0  0  0  0  0
   45.7000   32.2131   46.2965 H   0  0  0  0  0  0  0  0  0  0  0  0
   47.9711   32.6453   42.7272 H   0  0  0  0  0  0  0  0  0  0  0  0
   46.8055   30.2097   46.7149 H   0  0  0  0  0  0  0  0  0  0  0  0
   50.6187   28.9879   44.1755 H   0  0  0  0  0  0  0  0  0  0  0  0
   49.8160   26.8846   42.7400 C   0  0  0  0  0  0  0  0  0  0  0  0
   51.1640   26.8397   42.4518 C   0  0  0  0  0  0  0  0  0  0  0  0
   51.7133   27.7637   42.5632 H   0  0  0  0  0  0  0  0  0  0  0  0
   51.7216   25.6461   42.0471 C   0  0  0  0  0  0  0  0  0  0  0  0
   52.7947   25.7001   41.8394 H   0  0  0  0  0  0  0  0  0  0  0  0
   51.0205   24.4730   41.9064 C   0  0  0  0  0  0  0  0  0  0  0  0
   49.6961   24.5309   42.1929 C   0  0  0  0  0  0  0  0  0  0  0  0
   49.1179   25.6804   42.5912 C   0  0  0  0  0  0  0  0  0  0  0  0
   48.0390   25.6619   42.8087 H   0  0  0  0  0  0  0  0  0  0  0  0
   48.7204   23.0471   42.0333 S   0  0  0  0  0  0  0  0  0  0  0  0
   49.8649   21.7908   41.4925 C   0  0  0  0  0  0  0  0  0  0  0  0
   49.3039   20.5525   41.3071 C   0  0  0  0  0  0  0  0  0  0  0  0
   48.2444   20.3164   41.4678 H   0  0  0  0  0  0  0  0  0  0  0  0
   50.1097   19.5056   40.8870 C   0  0  0  0  0  0  0  0  0  0  0  0
   49.7515   18.4995   40.7162 H   0  0  0  0  0  0  0  0  0  0  0  0
   51.4508   19.7442   40.6689 C   0  0  0  0  0  0  0  0  0  0  0  0
   52.0907   18.9369   40.3412 H   0  0  0  0  0  0  0  0  0  0  0  0
   51.9233   21.0229   40.8824 C   0  0  0  0  0  0  0  0  0  0  0  0
   53.0022   21.1297   40.6864 H   0  0  0  0  0  0  0  0  0  0  0  0
   51.1677   22.0998   41.2995 C   0  0  0  0  0  0  0  0  0  0  0  0
   51.7490   23.3526   41.4842 N   0  0  0  0  0  0  0  0  0  0  0  0
   52.7715   23.4195   41.2902 H   0  0  0  0  0  0  0  0  0  0  0  0
  1  6  2  0
  2  1  1  0
  2  3  2  0
  3 14  1  0
  3  4  1  0
  4  5  2  0
  6  5  1  0
  7  2  1  0
  8  7  1  0
  9  8  1  0
 10 11  1  0
 10  9  1  0
 11 12  1  0
 12  7  1  0
 13 18  2  0
 14 13  1  0
 15 16  1  0
 15 14  2  0
 16 17  2  0
 17 19  1  0
 17 18  1  0
 20 19  1  0
 21 16  1  0
 21 20  1  0
 22 20  1  0
  1 23  1  0
  5 24  1  0
  8 25  1  0
  8 26  1  0
  9 27  1  0
  9 28  1  0
 10 29  1  0
 11 30  1  0
 11 31  1  0
 12 32  1  0
 12 33  1  0
 13 34  1  0
 15 35  1  0
 18 36  1  0
 20 37  1  1
 38 39  2  0
 39 40  1  0
 39 41  1  0
 41 42  1  0
 41 43  2  0
 43 44  1  0
 44 45  2  0
 45 46  1  0
 44 47  1  0
 47 48  1  0
 48 49  2  0
 49 50  1  0
 49 51  1  0
 51 52  1  0
 51 53  2  0
 53 54  1  0
 53 55  1  0
 55 56  1  0
 55 57  2  0
 57 58  1  0
 58 59  1  0
 45 38  1  0
 57 48  1  0
 58 43  1  0
 22 38  1  0
M  ISO  8  23  14  24  14  25  13  26  13  27  13  28  13  29   5  30  13
M  ISO  8  31  13  32  13  33  13  34  14  35  14  36  14  37  13  40  16
M  ISO  7  42  16  46  16  50  16  52  16  54  16  56  16  59   5
M  END
>  <DihAtoms>  (1) 
19,21,37,38

>  <DihDeg>  (1) 
0.000528332807194246

$$$$
