
 OpenBabel03252506133D

 49 53  0  0  0  0  0  0  0  0999 V2000
   48.1000   34.7420   37.0490 O   0  0  0  0  0  0  0  0  0  0  0  0
   47.3400   33.4530   37.2530 P   0  0  2  0  0  0  0  0  0  0  0  0
   45.9410   33.4250   36.2780 O   0  0  0  0  0  0  0  0  0  0  0  0
   45.9150   34.2530   35.7740 H   0  0  0  0  0  0  0  0  0  0  0  0
   46.8680   33.2390   38.8550 O   0  0  0  0  0  0  0  0  0  0  0  0
   45.3800   33.3050   41.2460 F   0  0  0  0  0  0  0  0  0  0  0  0
   46.4840   34.0170   41.0880 C   0  0  0  0  0  0  0  0  0  0  0  0
   46.9230   34.8170   42.1270 C   0  0  0  0  0  0  0  0  0  0  0  0
   48.0790   35.6020   42.0520 C   0  0  0  0  0  0  0  0  0  0  0  0
   48.8340   35.5850   40.8780 C   0  0  0  0  0  0  0  0  0  0  0  0
   48.3690   34.7760   39.8650 C   0  0  0  0  0  0  0  0  0  0  0  0
   47.2470   34.0090   39.9240 C   0  0  0  0  0  0  0  0  0  0  0  0
   48.3580   36.2070   42.9180 H   0  0  0  0  0  0  0  0  0  0  0  0
   49.7160   36.2050   40.8660 H   0  0  0  0  0  0  0  0  0  0  0  0
   49.0440   34.8480   39.0210 H   0  0  0  0  0  0  0  0  0  0  0  0
   45.8540   34.0960   45.5630 C   0  0  0  0  0  0  0  0  0  0  0  0
   44.7620   34.9690   45.7180 C   0  0  0  0  0  0  0  0  0  0  0  0
   44.3910   35.8140   44.6310 C   0  0  0  0  0  0  0  0  0  0  0  0
   45.1400   35.7090   43.4920 N   0  0  0  0  0  0  0  0  0  0  0  0
   46.1690   34.8670   43.3850 C   0  0  0  0  0  0  0  0  0  0  0  0
   46.5190   34.0710   44.4090 N   0  0  0  0  0  0  0  0  0  0  0  0
   44.1910   35.0360   46.6130 H   0  0  0  0  0  0  0  0  0  0  0  0
   43.5570   36.4950   44.7190 H   0  0  0  0  0  0  0  0  0  0  0  0
   46.2080   33.2640   46.6540 N   0  0  0  0  0  0  0  0  0  0  0  0
   46.1630   32.2190   46.7660 H   0  0  0  0  0  0  0  0  0  0  0  0
   46.5920   33.6100   47.5640 H   0  0  0  0  0  0  0  0  0  0  0  0
   48.2910   32.1750   36.6740 O   0  0  0  0  0  0  0  0  0  0  0  0
   47.6570   31.1530   35.9780 C   0  0  0  0  0  0  0  0  0  0  0  0
   46.9030   30.2540   36.7060 C   0  0  0  0  0  0  0  0  0  0  0  0
   46.8200   30.3560   37.7830 H   0  0  0  0  0  0  0  0  0  0  0  0
   46.2640   29.2290   36.0310 C   0  0  0  0  0  0  0  0  0  0  0  0
   45.6840   28.5530   36.6780 H   0  0  0  0  0  0  0  0  0  0  0  0
   46.3250   29.0380   34.6650 C   0  0  0  0  0  0  0  0  0  0  0  0
   47.0720   29.9370   33.9850 C   0  0  0  0  0  0  0  0  0  0  0  0
   47.7070   30.9480   34.6090 C   0  0  0  0  0  0  0  0  0  0  0  0
   48.3120   31.6730   34.0410 H   0  0  0  0  0  0  0  0  0  0  0  0
   47.2030   29.7620   32.2150 S   0  0  0  0  0  0  0  0  0  0  0  0
   46.2300   28.3260   31.8020 C   0  0  0  0  0  0  0  0  0  0  0  0
   46.1760   27.9820   30.4740 C   0  0  0  0  0  0  0  0  0  0  0  0
   46.6990   28.5550   29.7130 H   0  0  0  0  0  0  0  0  0  0  0  0
   45.4510   26.8910   30.0620 C   0  0  0  0  0  0  0  0  0  0  0  0
   45.4000   26.6130   29.0320 H   0  0  0  0  0  0  0  0  0  0  0  0
   44.7900   26.1660   31.0200 C   0  0  0  0  0  0  0  0  0  0  0  0
   44.2210   25.3090   30.6900 H   0  0  0  0  0  0  0  0  0  0  0  0
   44.8800   26.5560   32.3270 C   0  0  0  0  0  0  0  0  0  0  0  0
   44.3180   25.9140   33.0120 H   0  0  0  0  0  0  0  0  0  0  0  0
   45.5910   27.6400   32.8010 C   0  0  0  0  0  0  0  0  0  0  0  0
   45.6150   27.9480   34.1580 N   0  0  0  0  0  0  0  0  0  0  0  0
   45.0700   27.3160   34.7810 H   0  0  0  0  0  0  0  0  0  0  0  0
  2  1  2  6  0  0  0
  2  5  1  0  0  0  0
  3  2  1  0  0  0  0
  4  3  1  0  0  0  0
  5 12  1  0  0  0  0
  7  6  1  0  0  0  0
  7  8  1  0  0  0  0
  8 20  1  0  0  0  0
  9  8  2  0  0  0  0
  9 13  1  0  0  0  0
 10  9  1  0  0  0  0
 11 12  1  0  0  0  0
 11 10  2  0  0  0  0
 12  7  2  0  0  0  0
 14 10  1  0  0  0  0
 15 11  1  0  0  0  0
 16 17  1  0  0  0  0
 16 24  1  0  0  0  0
 17 22  1  0  0  0  0
 18 23  1  0  0  0  0
 18 17  2  0  0  0  0
 19 18  1  0  0  0  0
 20 19  2  0  0  0  0
 20 21  1  0  0  0  0
 21 16  2  0  0  0  0
 24 25  1  0  0  0  0
 24 26  1  0  0  0  0
 27  2  1  0  0  0  0
 28 27  1  0  0  0  0
 28 29  1  0  0  0  0
 29 30  1  0  0  0  0
 31 32  1  0  0  0  0
 31 29  2  0  0  0  0
 33 31  1  0  0  0  0
 34 35  1  0  0  0  0
 34 33  2  0  0  0  0
 35 28  2  0  0  0  0
 36 35  1  0  0  0  0
 37 34  1  0  0  0  0
 38 37  1  0  0  0  0
 38 47  1  0  0  0  0
 39 38  2  0  0  0  0
 40 39  1  0  0  0  0
 41 39  1  0  0  0  0
 41 43  2  0  0  0  0
 42 41  1  0  0  0  0
 43 45  1  0  0  0  0
 44 43  1  0  0  0  0
 45 47  2  0  0  0  0
 45 46  1  0  0  0  0
 47 48  1  0  0  0  0
 48 33  1  0  0  0  0
 48 49  1  0  0  0  0
M  END
>  <minimizedAffinity>
-7.11037445

>  <minimizedRMSD>
2.4448936

$$$$
