
     RDKit          3D

 58 62  0  0  0  0  0  0  0  0999 V2000
   47.1691   34.1569   43.0837 N   0  0  0  0  0  0  0  0  0  0  0  0
   46.6608   35.3572   42.5303 C   0  0  0  0  0  0  0  0  0  0  0  0
   45.1797   35.5871   42.7457 C   0  0  0  0  0  0  0  0  0  0  0  0
   44.6540   35.0581   44.0447 C   0  0  0  0  0  0  0  0  0  0  0  0
   45.7499   34.4707   44.9011 C   0  0  0  0  0  0  0  0  0  0  0  0
   46.4070   33.4003   43.9588 C   0  0  2  0  0  0  0  0  0  0  0  0
   48.1424   33.5042   42.2653 C   0  0  0  0  0  0  0  0  0  0  0  0
   47.4407   32.6522   41.2544 C   0  0  0  0  0  0  0  0  0  0  0  0
   49.3384   32.2857   38.0296 C   0  0  0  0  0  0  0  0  0  0  0  0
   48.8135   32.0169   39.3083 C   0  0  0  0  0  0  0  0  0  0  0  0
   47.9910   32.9431   39.9044 C   0  0  0  0  0  0  0  0  0  0  0  0
   47.7262   34.0705   39.2299 N   0  0  0  0  0  0  0  0  0  0  0  0
   48.2333   34.3189   38.0064 C   0  0  0  0  0  0  0  0  0  0  0  0
   49.0403   33.4330   37.3978 N   0  0  0  0  0  0  0  0  0  0  0  0
   47.2043   32.6924   44.8531 O   0  0  0  0  0  0  0  0  0  0  0  0
   45.9983   30.5444   43.8691 O   0  0  0  0  0  0  0  0  0  0  0  0
   46.6572   31.1224   45.1127 P   0  0  2  0  0  0  0  0  0  0  0  0
   45.4014   31.2417   46.2696 O   0  0  0  0  0  0  0  0  0  0  0  0
   47.8486   30.1322   45.7321 O   0  0  0  0  0  0  0  0  0  0  0  0
   46.8626   35.5176   41.4711 H   0  0  0  0  0  0  0  0  0  0  0  0
   47.1748   36.2011   43.0690 H   0  0  0  0  0  0  0  0  0  0  0  0
   44.6243   35.1578   41.8757 H   0  0  0  0  0  0  0  0  0  0  0  0
   44.9907   36.6833   42.7232 H   0  0  0  0  0  0  0  0  0  0  0  0
   44.0419   35.8123   44.5897 H   0  0  0  0  0  0  0  0  0  0  0  0
   43.9464   34.2105   43.8169 H   0  0  0  0  0  0  0  0  0  0  0  0
   46.5025   35.2039   45.2053 H   0  0  0  0  0  0  0  0  0  0  0  0
   45.2813   33.9414   45.7537 H   0  0  0  0  0  0  0  0  0  0  0  0
   45.5517   32.8232   43.5657 H   0  0  0  0  0  0  0  0  0  0  0  0
   48.7543   32.8211   42.9083 H   0  0  0  0  0  0  0  0  0  0  0  0
   48.8231   34.2407   41.8366 H   0  0  0  0  0  0  0  0  0  0  0  0
   46.3554   32.9031   41.2079 H   0  0  0  0  0  0  0  0  0  0  0  0
   47.4943   31.5756   41.4628 H   0  0  0  0  0  0  0  0  0  0  0  0
   49.9859   31.5343   37.5837 H   0  0  0  0  0  0  0  0  0  0  0  0
   49.0486   31.0899   39.8299 H   0  0  0  0  0  0  0  0  0  0  0  0
   47.9744   35.2514   37.5242 H   0  0  0  0  0  0  0  0  0  0  0  0
   45.7785   31.2885   47.1825 H   0  0  0  0  0  0  0  0  0  0  0  0
   47.7027   29.1454   46.6710 C   0  0  0  0  0  0  0  0  0  0  0  0
   48.5128   29.0821   47.7867 C   0  0  0  0  0  0  0  0  0  0  0  0
   49.2797   29.8272   47.9236 H   0  0  0  0  0  0  0  0  0  0  0  0
   48.3238   28.0666   48.7028 C   0  0  0  0  0  0  0  0  0  0  0  0
   49.0133   28.0923   49.5617 H   0  0  0  0  0  0  0  0  0  0  0  0
   47.3546   27.0942   48.5649 C   0  0  0  0  0  0  0  0  0  0  0  0
   46.5401   27.1419   47.4613 C   0  0  0  0  0  0  0  0  0  0  0  0
   46.7449   28.1576   46.5653 C   0  0  0  0  0  0  0  0  0  0  0  0
   46.0971   28.1956   45.6876 H   0  0  0  0  0  0  0  0  0  0  0  0
   45.2785   25.9057   47.2481 S   0  0  0  0  0  0  0  0  0  0  0  0
   45.4139   24.8236   48.6582 C   0  0  0  0  0  0  0  0  0  0  0  0
   44.5376   23.7979   48.7009 C   0  0  0  0  0  0  0  0  0  0  0  0
   43.7873   23.6148   47.9435 H   0  0  0  0  0  0  0  0  0  0  0  0
   44.5642   22.9062   49.7534 C   0  0  0  0  0  0  0  0  0  0  0  0
   43.8644   22.0830   49.7922 H   0  0  0  0  0  0  0  0  0  0  0  0
   45.5034   23.0963   50.7460 C   0  0  0  0  0  0  0  0  0  0  0  0
   45.5601   22.4219   51.5893 H   0  0  0  0  0  0  0  0  0  0  0  0
   46.3667   24.1667   50.6357 C   0  0  0  0  0  0  0  0  0  0  0  0
   47.0903   24.2648   51.4556 H   0  0  0  0  0  0  0  0  0  0  0  0
   46.3752   25.0804   49.6033 C   0  0  0  0  0  0  0  0  0  0  0  0
   47.3107   26.1409   49.5971 N   0  0  0  0  0  0  0  0  0  0  0  0
   47.9650   26.1707   50.4058 H   0  0  0  0  0  0  0  0  0  0  0  0
  1  6  1  0
  2  3  1  0
  2  1  1  0
  3  4  1  0
  4  5  1  0
  6 15  1  0
  6  5  1  0
  7  1  1  0
  8  7  1  0
  9 10  2  0
 10 11  1  0
 11  8  1  0
 12 11  2  0
 13 12  1  0
 14 13  2  0
 14  9  1  0
 17 15  1  6
 16 17  2  0
 17 19  1  0
 17 18  1  0
  2 20  1  0
  2 21  1  0
  3 22  1  0
  3 23  1  0
  4 24  1  0
  4 25  1  0
  5 26  1  0
  5 27  1  0
  6 28  1  6
  7 29  1  0
  7 30  1  0
  8 31  1  0
  8 32  1  0
  9 33  1  0
 10 34  1  0
 13 35  1  0
 18 36  1  0
 37 38  2  0
 38 39  1  0
 38 40  1  0
 40 41  1  0
 40 42  2  0
 42 43  1  0
 43 44  2  0
 44 45  1  0
 43 46  1  0
 46 47  1  0
 47 48  2  0
 48 49  1  0
 48 50  1  0
 50 51  1  0
 50 52  2  0
 52 53  1  0
 52 54  1  0
 54 55  1  0
 54 56  2  0
 56 57  1  0
 57 58  1  0
 44 37  1  0
 56 47  1  0
 57 42  1  0
 19 37  1  0
M  ISO  8  20  13  21  13  22  13  23  13  24  13  25  13  26  13  27  13
M  ISO  8  28  13  29   8  30   8  31   8  32   8  33  14  34  14  35  14
M  ISO  8  36   3  39  16  41  16  45  16  49  16  51  16  53  16  55  16
M  ISO  1  58   5
M  END
>  <DihAtoms>  (1) 
16,18,36,37

>  <DihDeg>  (1) 
-159.25788609377494

$$$$
