
 OpenBabel03242523123D

 59 65  0  0  1  0  0  0  0  0999 V2000
   46.4820   32.0490   45.5620 C   0  0  0  0  0  0  0  0  0  0  0  0
   46.7370   32.7550   44.3660 C   0  0  0  0  0  0  0  0  0  0  0  0
   47.6640   32.1020   43.5900 C   0  0  0  0  0  0  0  0  0  0  0  0
   48.2830   30.9300   43.8950 C   0  0  0  0  0  0  0  0  0  0  0  0
   47.9780   30.2980   45.0970 C   0  0  0  0  0  0  0  0  0  0  0  0
   47.0620   30.8690   45.9400 C   0  0  0  0  0  0  0  0  0  0  0  0
   48.7630   29.1570   45.1080 O   0  0  0  0  0  0  0  0  0  0  0  0
   49.4990   29.0570   43.9050 C   0  0  2  0  0  0  0  0  0  0  0  0
   49.2170   30.2310   43.1530 O   0  0  0  0  0  0  0  0  0  0  0  0
   45.7860   32.2910   46.3940 H   0  0  0  0  0  0  0  0  0  0  0  0
   47.8670   32.6070   42.6980 H   0  0  0  0  0  0  0  0  0  0  0  0
   46.9130   30.3010   46.8170 H   0  0  0  0  0  0  0  0  0  0  0  0
   50.5880   28.9940   44.1210 H   0  0  0  0  0  0  0  0  0  0  0  0
   45.1030   36.0170   43.5110 C   0  0  0  0  0  0  0  0  0  0  0  0
   45.9000   34.8960   43.2850 C   0  0  0  0  0  0  0  0  0  0  0  0
   46.0410   33.9620   44.2670 C   0  0  0  0  0  0  0  0  0  0  0  0
   45.3770   34.1900   45.4420 N   0  0  0  0  0  0  0  0  0  0  0  0
   44.6120   35.2660   45.6580 C   0  0  0  0  0  0  0  0  0  0  0  0
   44.4810   36.1580   44.7090 N   0  0  0  0  0  0  0  0  0  0  0  0
   44.9850   36.7620   42.7410 H   0  0  0  0  0  0  0  0  0  0  0  0
   44.0640   35.5020   46.5590 H   0  0  0  0  0  0  0  0  0  0  0  0
   46.5430   34.8090   42.0500 N   0  0  0  0  0  0  0  0  0  0  0  0
   47.8720   35.2930   41.8510 C   0  0  0  0  0  0  0  0  0  0  0  0
   48.4720   34.9620   40.5150 C   0  0  0  0  0  0  0  0  0  0  0  0
   48.1640   33.6960   40.0300 N   0  0  0  0  0  0  0  0  0  0  0  0
   46.8830   33.2420   40.1890 C   0  0  0  0  0  0  0  0  0  0  0  0
   46.0020   34.2610   40.8700 C   0  0  0  0  0  0  0  0  0  0  0  0
   48.5870   35.0170   42.6620 H   0  0  0  0  0  0  0  0  0  0  0  0
   47.8120   36.4150   41.9160 H   0  0  0  0  0  0  0  0  0  0  0  0
   48.0730   35.7250   39.7850 H   0  0  0  0  0  0  0  0  0  0  0  0
   49.5580   35.1860   40.5690 H   0  0  0  0  0  0  0  0  0  0  0  0
   48.8210   33.2210   39.4140 H   0  0  0  0  0  0  0  0  0  0  0  0
   46.7580   32.2640   40.7200 H   0  0  0  0  0  0  0  0  0  0  0  0
   46.4120   33.0490   39.1810 H   0  0  0  0  0  0  0  0  0  0  0  0
   45.0670   33.7010   41.1510 H   0  0  0  0  0  0  0  0  0  0  0  0
   45.7030   34.9960   40.0840 H   0  0  0  0  0  0  0  0  0  0  0  0
   49.0130   27.9440   43.2120 O   0  0  0  0  0  0  0  0  0  0  0  0
   49.6980   26.8200   42.8500 C   0  0  0  0  0  0  0  0  0  0  0  0
   51.0660   26.6470   42.8300 C   0  0  0  0  0  0  0  0  0  0  0  0
   51.6650   27.4930   43.1340 H   0  0  0  0  0  0  0  0  0  0  0  0
   51.5800   25.4310   42.4330 C   0  0  0  0  0  0  0  0  0  0  0  0
   52.6730   25.3810   42.4470 H   0  0  0  0  0  0  0  0  0  0  0  0
   50.8160   24.3560   42.0480 C   0  0  0  0  0  0  0  0  0  0  0  0
   49.4720   24.5400   42.0730 C   0  0  0  0  0  0  0  0  0  0  0  0
   48.9360   25.7150   42.4550 C   0  0  0  0  0  0  0  0  0  0  0  0
   47.8380   25.8010   42.4530 H   0  0  0  0  0  0  0  0  0  0  0  0
   48.4150   23.1890   41.5860 S   0  0  0  0  0  0  0  0  0  0  0  0
   49.5230   21.8560   41.1660 C   0  0  0  0  0  0  0  0  0  0  0  0
   48.8980   20.7050   40.7590 C   0  0  0  0  0  0  0  0  0  0  0  0
   47.8110   20.5770   40.6850 H   0  0  0  0  0  0  0  0  0  0  0  0
   49.6710   19.6070   40.4090 C   0  0  0  0  0  0  0  0  0  0  0  0
   49.2620   18.6630   40.0790 H   0  0  0  0  0  0  0  0  0  0  0  0
   51.0450   19.7110   40.4830 C   0  0  0  0  0  0  0  0  0  0  0  0
   51.6590   18.8640   40.2140 H   0  0  0  0  0  0  0  0  0  0  0  0
   51.5810   20.9110   40.9040 C   0  0  0  0  0  0  0  0  0  0  0  0
   52.6830   20.9110   40.9350 H   0  0  0  0  0  0  0  0  0  0  0  0
   50.8610   22.0320   41.2640 C   0  0  0  0  0  0  0  0  0  0  0  0
   51.5070   23.1960   41.6750 N   0  0  0  0  0  0  0  0  0  0  0  0
   52.5490   23.1630   41.6940 H   0  0  0  0  0  0  0  0  0  0  0  0
  1  6  1  0  0  0  0
  1 10  1  0  0  0  0
  2  1  2  0  0  0  0
  3  4  2  0  0  0  0
  3  2  1  0  0  0  0
  4  5  1  0  0  0  0
  5  7  1  0  0  0  0
  5  6  2  0  0  0  0
  6 12  1  0  0  0  0
  8 13  1  1  0  0  0
  8  7  1  0  0  0  0
  9  4  1  0  0  0  0
  9  8  1  0  0  0  0
 11  3  1  0  0  0  0
 14 19  1  0  0  0  0
 15 14  2  0  0  0  0
 15 16  1  0  0  0  0
 16  2  1  0  0  0  0
 16 17  2  0  0  0  0
 17 18  1  0  0  0  0
 18 21  1  0  0  0  0
 19 18  2  0  0  0  0
 20 14  1  0  0  0  0
 22 15  1  0  0  0  0
 23 29  1  0  0  0  0
 23 22  1  0  0  0  0
 23 28  1  0  0  0  0
 24 31  1  0  0  0  0
 24 23  1  0  0  0  0
 25 26  1  0  0  0  0
 25 24  1  0  0  0  0
 26 33  1  0  0  0  0
 26 27  1  0  0  0  0
 27 35  1  0  0  0  0
 27 22  1  0  0  0  0
 30 24  1  0  0  0  0
 32 25  1  0  0  0  0
 34 26  1  0  0  0  0
 36 27  1  0  0  0  0
 37  8  1  0  0  0  0
 38 37  1  0  0  0  0
 39 38  1  0  0  0  0
 39 40  1  0  0  0  0
 41 42  1  0  0  0  0
 41 39  2  0  0  0  0
 43 44  2  0  0  0  0
 43 41  1  0  0  0  0
 44 45  1  0  0  0  0
 45 38  2  0  0  0  0
 46 45  1  0  0  0  0
 47 44  1  0  0  0  0
 48 57  1  0  0  0  0
 48 47  1  0  0  0  0
 49 48  2  0  0  0  0
 50 49  1  0  0  0  0
 51 53  2  0  0  0  0
 51 49  1  0  0  0  0
 52 51  1  0  0  0  0
 53 55  1  0  0  0  0
 54 53  1  0  0  0  0
 55 56  1  0  0  0  0
 55 57  2  0  0  0  0
 57 58  1  0  0  0  0
 58 59  1  0  0  0  0
 58 43  1  0  0  0  0
M  END
>  <minimizedAffinity>
-4.65143156

>  <minimizedRMSD>
0.272077173

$$$$
