
 OpenBabel03252506353D

 46 50  0  0  1  0  0  0  0  0999 V2000
   44.4650   35.9100   45.0060 C   0  0  0  0  0  0  0  0  0  0  0  0
   45.0770   35.9210   43.7450 C   0  0  0  0  0  0  0  0  0  0  0  0
   45.9580   34.9220   43.4170 C   0  0  0  0  0  0  0  0  0  0  0  0
   46.1750   33.9740   44.3700 N   0  0  0  0  0  0  0  0  0  0  0  0
   45.5880   33.9750   45.5660 C   0  0  0  0  0  0  0  0  0  0  0  0
   44.7200   34.9410   45.9160 N   0  0  0  0  0  0  0  0  0  0  0  0
   45.9060   32.9240   46.4660 N   0  0  0  0  0  0  0  0  0  0  0  0
   45.1460   32.6310   47.6840 C   0  0  0  0  0  0  0  0  0  0  0  0
   46.2490   32.2280   48.6370 C   0  0  0  0  0  0  0  0  0  0  0  0
   47.5050   32.0640   47.8200 C   0  0  0  0  0  0  0  0  0  0  0  0
   46.9710   31.9590   46.4110 C   0  0  1  0  0  0  0  0  0  0  0  0
   43.7690   36.7000   45.2620 H   0  0  0  0  0  0  0  0  0  0  0  0
   46.4200   34.9340   42.4580 H   0  0  0  0  0  0  0  0  0  0  0  0
   44.7300   33.5780   48.0920 H   0  0  0  0  0  0  0  0  0  0  0  0
   44.3670   31.8810   47.5440 H   0  0  0  0  0  0  0  0  0  0  0  0
   45.9930   31.1980   49.0020 H   0  0  0  0  0  0  0  0  0  0  0  0
   46.3560   32.8910   49.5060 H   0  0  0  0  0  0  0  0  0  0  0  0
   48.0710   31.1560   48.1280 H   0  0  0  0  0  0  0  0  0  0  0  0
   48.0960   32.9980   47.9450 H   0  0  0  0  0  0  0  0  0  0  0  0
   47.7640   32.2430   45.6890 H   0  0  0  0  0  0  0  0  0  0  0  0
   44.7230   37.0030   42.8750 N   0  0  0  0  0  0  0  0  0  0  0  0
   44.6310   36.8250   41.8640 H   0  0  0  0  0  0  0  0  0  0  0  0
   44.5590   37.9570   43.2390 H   0  0  0  0  0  0  0  0  0  0  0  0
   46.3960   30.2760   46.1450 S   0  0  0  0  0  0  0  0  0  0  0  0
   45.5650   30.0460   44.6040 C   0  0  0  0  0  0  0  0  0  0  0  0
   45.4060   28.7580   44.1330 C   0  0  0  0  0  0  0  0  0  0  0  0
   45.7870   27.8950   44.7020 H   0  0  0  0  0  0  0  0  0  0  0  0
   44.7550   28.5110   42.9200 C   0  0  0  0  0  0  0  0  0  0  0  0
   44.6690   27.4770   42.6180 H   0  0  0  0  0  0  0  0  0  0  0  0
   44.2450   29.5210   42.1380 C   0  0  0  0  0  0  0  0  0  0  0  0
   44.4330   30.7760   42.6560 C   0  0  0  0  0  0  0  0  0  0  0  0
   45.0520   31.0770   43.8190 C   0  0  0  0  0  0  0  0  0  0  0  0
   45.1760   32.0760   44.1850 H   0  0  0  0  0  0  0  0  0  0  0  0
   43.8120   32.1600   41.7230 S   0  0  0  0  0  0  0  0  0  0  0  0
   43.0490   31.4960   40.2580 C   0  0  0  0  0  0  0  0  0  0  0  0
   42.4750   32.3370   39.3440 C   0  0  0  0  0  0  0  0  0  0  0  0
   42.4870   33.4180   39.5190 H   0  0  0  0  0  0  0  0  0  0  0  0
   41.8690   31.8790   38.1870 C   0  0  0  0  0  0  0  0  0  0  0  0
   41.4150   32.5390   37.4640 H   0  0  0  0  0  0  0  0  0  0  0  0
   41.8620   30.5160   37.9810 C   0  0  0  0  0  0  0  0  0  0  0  0
   41.3960   30.1280   37.0880 H   0  0  0  0  0  0  0  0  0  0  0  0
   42.4510   29.7040   38.9260 C   0  0  0  0  0  0  0  0  0  0  0  0
   42.3970   28.6370   38.6770 H   0  0  0  0  0  0  0  0  0  0  0  0
   43.0600   30.1340   40.0850 C   0  0  0  0  0  0  0  0  0  0  0  0
   43.6080   29.1560   40.9350 N   0  0  0  0  0  0  0  0  0  0  0  0
   43.5430   28.1560   40.6760 H   0  0  0  0  0  0  0  0  0  0  0  0
  1 12  1  0  0  0  0
  1  6  1  0  0  0  0
  2  1  2  0  0  0  0
  3  2  1  0  0  0  0
  3  4  2  0  0  0  0
  4  5  1  0  0  0  0
  5  6  2  0  0  0  0
  5  7  1  0  0  0  0
  7  8  1  0  0  0  0
  8 14  1  0  0  0  0
  8  9  1  0  0  0  0
  9 16  1  0  0  0  0
  9 17  1  0  0  0  0
 10 19  1  0  0  0  0
 10 18  1  0  0  0  0
 10  9  1  0  0  0  0
 11 20  1  6  0  0  0
 11  7  1  0  0  0  0
 11 10  1  0  0  0  0
 13  3  1  0  0  0  0
 15  8  1  0  0  0  0
 21 23  1  0  0  0  0
 21  2  1  0  0  0  0
 22 21  1  0  0  0  0
 24 11  1  0  0  0  0
 25 24  1  0  0  0  0
 26 25  1  0  0  0  0
 26 27  1  0  0  0  0
 28 26  2  0  0  0  0
 29 28  1  0  0  0  0
 30 31  2  0  0  0  0
 30 28  1  0  0  0  0
 31 32  1  0  0  0  0
 32 33  1  0  0  0  0
 32 25  2  0  0  0  0
 34 31  1  0  0  0  0
 35 34  1  0  0  0  0
 36 37  1  0  0  0  0
 36 35  2  0  0  0  0
 38 36  1  0  0  0  0
 39 38  1  0  0  0  0
 40 38  2  0  0  0  0
 40 42  1  0  0  0  0
 41 40  1  0  0  0  0
 42 44  2  0  0  0  0
 43 42  1  0  0  0  0
 44 35  1  0  0  0  0
 44 45  1  0  0  0  0
 45 30  1  0  0  0  0
 46 45  1  0  0  0  0
M  END
>  <minimizedAffinity>
-5.52368164

>  <minimizedRMSD>
0.537383974

$$$$
