
 OpenBabel03252506133D

 49 53  0  0  0  0  0  0  0  0999 V2000
   47.8650   34.5590   36.9910 O   0  0  0  0  0  0  0  0  0  0  0  0
   46.8860   33.4310   37.1990 P   0  0  2  0  0  0  0  0  0  0  0  0
   45.3880   33.7970   36.4700 O   0  0  0  0  0  0  0  0  0  0  0  0
   45.4670   34.6700   36.0540 H   0  0  0  0  0  0  0  0  0  0  0  0
   46.6110   33.1190   38.8320 O   0  0  0  0  0  0  0  0  0  0  0  0
   45.0850   33.4480   41.1770 F   0  0  0  0  0  0  0  0  0  0  0  0
   46.2750   34.0100   41.0300 C   0  0  0  0  0  0  0  0  0  0  0  0
   46.7860   34.7800   42.0580 C   0  0  0  0  0  0  0  0  0  0  0  0
   48.0340   35.4100   41.9930 C   0  0  0  0  0  0  0  0  0  0  0  0
   48.8090   35.2600   40.8430 C   0  0  0  0  0  0  0  0  0  0  0  0
   48.2700   34.4850   39.8410 C   0  0  0  0  0  0  0  0  0  0  0  0
   47.0590   33.8680   39.8890 C   0  0  0  0  0  0  0  0  0  0  0  0
   48.3670   36.0030   42.8490 H   0  0  0  0  0  0  0  0  0  0  0  0
   49.7640   35.7620   40.8380 H   0  0  0  0  0  0  0  0  0  0  0  0
   48.9700   34.4430   39.0150 H   0  0  0  0  0  0  0  0  0  0  0  0
   45.4310   34.2160   45.4210 C   0  0  0  0  0  0  0  0  0  0  0  0
   44.5750   35.3210   45.5800 C   0  0  0  0  0  0  0  0  0  0  0  0
   44.4630   36.2690   44.5210 C   0  0  0  0  0  0  0  0  0  0  0  0
   45.2130   36.0270   43.4030 N   0  0  0  0  0  0  0  0  0  0  0  0
   46.0130   34.9660   43.2910 C   0  0  0  0  0  0  0  0  0  0  0  0
   46.1190   34.0730   44.2900 N   0  0  0  0  0  0  0  0  0  0  0  0
   43.9990   35.4910   46.4580 H   0  0  0  0  0  0  0  0  0  0  0  0
   43.8140   37.1270   44.6130 H   0  0  0  0  0  0  0  0  0  0  0  0
   45.5280   33.2840   46.4840 N   0  0  0  0  0  0  0  0  0  0  0  0
   45.2290   32.2770   46.5470 H   0  0  0  0  0  0  0  0  0  0  0  0
   45.9450   33.4940   47.4210 H   0  0  0  0  0  0  0  0  0  0  0  0
   47.4490   32.0710   36.3590 O   0  0  0  0  0  0  0  0  0  0  0  0
   46.5150   31.2640   35.7220 C   0  0  0  0  0  0  0  0  0  0  0  0
   46.4770   31.2940   34.3410 C   0  0  0  0  0  0  0  0  0  0  0  0
   47.1610   31.9310   33.7890 H   0  0  0  0  0  0  0  0  0  0  0  0
   45.5540   30.4970   33.6880 C   0  0  0  0  0  0  0  0  0  0  0  0
   45.5860   30.5750   32.5900 H   0  0  0  0  0  0  0  0  0  0  0  0
   44.6560   29.6630   34.3230 C   0  0  0  0  0  0  0  0  0  0  0  0
   44.7210   29.6600   35.6740 C   0  0  0  0  0  0  0  0  0  0  0  0
   45.6080   30.4230   36.3430 C   0  0  0  0  0  0  0  0  0  0  0  0
   45.6500   30.4090   37.4440 H   0  0  0  0  0  0  0  0  0  0  0  0
   43.5950   28.6100   36.5730 S   0  0  0  0  0  0  0  0  0  0  0  0
   42.6140   27.7870   35.3320 C   0  0  0  0  0  0  0  0  0  0  0  0
   41.6590   26.9110   35.7860 C   0  0  0  0  0  0  0  0  0  0  0  0
   41.5080   26.7280   36.8450 H   0  0  0  0  0  0  0  0  0  0  0  0
   40.8540   26.2320   34.9020 C   0  0  0  0  0  0  0  0  0  0  0  0
   40.1080   25.5480   35.2430 H   0  0  0  0  0  0  0  0  0  0  0  0
   41.0420   26.4610   33.5640 C   0  0  0  0  0  0  0  0  0  0  0  0
   40.4080   25.9250   32.8740 H   0  0  0  0  0  0  0  0  0  0  0  0
   42.0090   27.3450   33.1720 C   0  0  0  0  0  0  0  0  0  0  0  0
   42.0780   27.4580   32.0840 H   0  0  0  0  0  0  0  0  0  0  0  0
   42.8450   28.0550   34.0080 C   0  0  0  0  0  0  0  0  0  0  0  0
   43.7980   28.9330   33.5000 N   0  0  0  0  0  0  0  0  0  0  0  0
   43.8370   29.0160   32.4610 H   0  0  0  0  0  0  0  0  0  0  0  0
  2  1  2  6  0  0  0
  2  5  1  0  0  0  0
  3  2  1  0  0  0  0
  4  3  1  0  0  0  0
  5 12  1  0  0  0  0
  7  6  1  0  0  0  0
  7  8  1  0  0  0  0
  8 20  1  0  0  0  0
  9  8  2  0  0  0  0
  9 13  1  0  0  0  0
 10  9  1  0  0  0  0
 11 12  1  0  0  0  0
 11 10  2  0  0  0  0
 12  7  2  0  0  0  0
 14 10  1  0  0  0  0
 15 11  1  0  0  0  0
 16 17  1  0  0  0  0
 16 24  1  0  0  0  0
 17 22  1  0  0  0  0
 18 23  1  0  0  0  0
 18 17  2  0  0  0  0
 19 18  1  0  0  0  0
 20 19  2  0  0  0  0
 20 21  1  0  0  0  0
 21 16  2  0  0  0  0
 24 25  1  0  0  0  0
 24 26  1  0  0  0  0
 27  2  1  0  0  0  0
 28 35  1  0  0  0  0
 28 27  1  0  0  0  0
 29 28  2  0  0  0  0
 30 29  1  0  0  0  0
 31 33  2  0  0  0  0
 31 29  1  0  0  0  0
 32 31  1  0  0  0  0
 33 34  1  0  0  0  0
 34 35  2  0  0  0  0
 34 37  1  0  0  0  0
 35 36  1  0  0  0  0
 38 39  1  0  0  0  0
 38 37  1  0  0  0  0
 39 40  1  0  0  0  0
 41 42  1  0  0  0  0
 41 39  2  0  0  0  0
 43 41  1  0  0  0  0
 44 43  1  0  0  0  0
 45 43  2  0  0  0  0
 45 47  1  0  0  0  0
 46 45  1  0  0  0  0
 47 38  2  0  0  0  0
 48 47  1  0  0  0  0
 48 33  1  0  0  0  0
 49 48  1  0  0  0  0
M  END
>  <minimizedAffinity>
-6.96836233

>  <minimizedRMSD>
3.10209203

$$$$
