
 OpenBabel03252502563D

 50 54  0  0  0  0  0  0  0  0999 V2000
   44.0340   26.2300   47.2150 O   0  0  0  0  0  0  0  0  0  0  0  0
   44.8570   27.2890   47.9330 P   0  0  2  0  0  0  0  0  0  0  0  0
   44.5500   27.2160   49.5840 O   0  0  0  0  0  0  0  0  0  0  0  0
   45.3700   27.2350   50.1450 H   0  0  0  0  0  0  0  0  0  0  0  0
   44.3220   28.8140   47.3890 O   0  0  0  0  0  0  0  0  0  0  0  0
   45.4990   29.9460   44.7640 Br  0  0  0  0  0  0  0  0  0  0  0  0
   45.6590   30.6590   46.5580 C   0  0  0  0  0  0  0  0  0  0  0  0
   46.3850   31.8100   46.6830 C   0  0  0  0  0  0  0  0  0  0  0  0
   46.4780   32.2920   47.9900 C   0  0  0  0  0  0  0  0  0  0  0  0
   45.8920   31.6690   49.0740 C   0  0  0  0  0  0  0  0  0  0  0  0
   45.1780   30.5150   48.8610 C   0  0  0  0  0  0  0  0  0  0  0  0
   45.0500   29.9890   47.5920 C   0  0  0  0  0  0  0  0  0  0  0  0
   47.0380   33.2000   48.1680 H   0  0  0  0  0  0  0  0  0  0  0  0
   46.0110   32.1080   50.0570 H   0  0  0  0  0  0  0  0  0  0  0  0
   44.7230   30.0340   49.7120 H   0  0  0  0  0  0  0  0  0  0  0  0
   47.0510   32.5590   45.6140 C   0  0  0  0  0  0  0  0  0  0  0  0
   48.0590   32.9350   45.9070 H   0  0  0  0  0  0  0  0  0  0  0  0
   47.2280   31.8360   44.7720 H   0  0  0  0  0  0  0  0  0  0  0  0
   44.5800   35.3340   45.2670 C   0  0  0  0  0  0  0  0  0  0  0  0
   44.8310   35.7730   43.9650 C   0  0  0  0  0  0  0  0  0  0  0  0
   45.8200   35.1280   43.2390 C   0  0  0  0  0  0  0  0  0  0  0  0
   46.5110   34.1030   43.8010 N   0  0  0  0  0  0  0  0  0  0  0  0
   46.2440   33.6910   45.0810 C   0  0  0  0  0  0  0  0  0  0  0  0
   45.2760   34.3280   45.7800 N   0  0  0  0  0  0  0  0  0  0  0  0
   43.8480   35.7390   45.9400 H   0  0  0  0  0  0  0  0  0  0  0  0
   44.2230   36.5980   43.6150 H   0  0  0  0  0  0  0  0  0  0  0  0
   46.0000   35.4810   42.2350 H   0  0  0  0  0  0  0  0  0  0  0  0
   46.4800   27.0200   47.5990 O   0  0  0  0  0  0  0  0  0  0  0  0
   47.0810   25.8120   47.3070 C   0  0  0  0  0  0  0  0  0  0  0  0
   47.6750   25.6140   46.0770 C   0  0  0  0  0  0  0  0  0  0  0  0
   47.6470   26.4250   45.3770 H   0  0  0  0  0  0  0  0  0  0  0  0
   48.2670   24.3950   45.8170 C   0  0  0  0  0  0  0  0  0  0  0  0
   48.7040   24.3380   44.8290 H   0  0  0  0  0  0  0  0  0  0  0  0
   48.3180   23.3330   46.6940 C   0  0  0  0  0  0  0  0  0  0  0  0
   47.7080   23.6040   47.8950 C   0  0  0  0  0  0  0  0  0  0  0  0
   47.1160   24.7710   48.2070 C   0  0  0  0  0  0  0  0  0  0  0  0
   46.6340   24.9720   49.1660 H   0  0  0  0  0  0  0  0  0  0  0  0
   47.6750   22.3470   49.1600 S   0  0  0  0  0  0  0  0  0  0  0  0
   48.5230   20.9460   48.4600 C   0  0  0  0  0  0  0  0  0  0  0  0
   48.6920   19.7850   49.1540 C   0  0  0  0  0  0  0  0  0  0  0  0
   48.2910   19.7130   50.1780 H   0  0  0  0  0  0  0  0  0  0  0  0
   49.3380   18.6350   48.7000 C   0  0  0  0  0  0  0  0  0  0  0  0
   49.4250   17.7670   49.3110 H   0  0  0  0  0  0  0  0  0  0  0  0
   49.8350   18.7390   47.4140 C   0  0  0  0  0  0  0  0  0  0  0  0
   50.3500   17.8770   47.0010 H   0  0  0  0  0  0  0  0  0  0  0  0
   49.6750   19.9100   46.6920 C   0  0  0  0  0  0  0  0  0  0  0  0
   50.1050   19.8990   45.6780 H   0  0  0  0  0  0  0  0  0  0  0  0
   49.0270   21.0200   47.1880 C   0  0  0  0  0  0  0  0  0  0  0  0
   48.9500   22.1190   46.3350 N   0  0  0  0  0  0  0  0  0  0  0  0
   49.3590   22.1040   45.3770 H   0  0  0  0  0  0  0  0  0  0  0  0
  2  1  2  6  0  0  0
  2  3  1  0  0  0  0
  3  4  1  0  0  0  0
  5 12  1  0  0  0  0
  5  2  1  0  0  0  0
  6  7  1  0  0  0  0
  7  8  2  0  0  0  0
  7 12  1  0  0  0  0
  8  9  1  0  0  0  0
  9 13  1  0  0  0  0
  9 10  2  0  0  0  0
 10 14  1  0  0  0  0
 11 10  1  0  0  0  0
 11 15  1  0  0  0  0
 12 11  2  0  0  0  0
 16 17  1  0  0  0  0
 16  8  1  0  0  0  0
 18 16  1  0  0  0  0
 19 24  1  0  0  0  0
 19 25  1  0  0  0  0
 20 19  2  0  0  0  0
 21 22  2  0  0  0  0
 21 20  1  0  0  0  0
 22 23  1  0  0  0  0
 23 16  1  0  0  0  0
 23 24  2  0  0  0  0
 26 20  1  0  0  0  0
 27 21  1  0  0  0  0
 28  2  1  0  0  0  0
 29 28  1  0  0  0  0
 29 36  1  0  0  0  0
 30 29  2  0  0  0  0
 31 30  1  0  0  0  0
 32 30  1  0  0  0  0
 32 34  2  0  0  0  0
 33 32  1  0  0  0  0
 34 35  1  0  0  0  0
 35 36  2  0  0  0  0
 35 38  1  0  0  0  0
 36 37  1  0  0  0  0
 39 40  1  0  0  0  0
 39 38  1  0  0  0  0
 40 41  1  0  0  0  0
 42 40  2  0  0  0  0
 42 43  1  0  0  0  0
 44 42  1  0  0  0  0
 45 44  1  0  0  0  0
 46 48  1  0  0  0  0
 46 44  2  0  0  0  0
 47 46  1  0  0  0  0
 48 39  2  0  0  0  0
 49 34  1  0  0  0  0
 49 48  1  0  0  0  0
 50 49  1  0  0  0  0
M  END
>  <minimizedAffinity>
-5.50821638

>  <minimizedRMSD>
2.01522303

$$$$
