
     RDKit          3D

 42 46  0  0  0  0  0  0  0  0999 V2000
   45.2226   33.5645   43.7123 C   0  0  1  0  0  0  0  0  0  0  0  0
   45.8586   34.9834   43.4755 C   0  0  1  0  0  0  0  0  0  0  0  0
   45.7987   33.8653   42.4577 C   0  0  0  0  0  0  0  0  0  0  0  0
   45.8987   32.8605   44.8161 C   0  0  0  0  0  0  0  0  0  0  0  0
   46.7306   31.7536   44.5055 C   0  0  0  0  0  0  0  0  0  0  0  0
   47.4038   31.0570   45.5053 C   0  0  0  0  0  0  0  0  0  0  0  0
   47.2146   31.5003   46.7732 N   0  0  0  0  0  0  0  0  0  0  0  0
   46.4067   32.5740   47.0563 C   0  0  0  0  0  0  0  0  0  0  0  0
   45.7649   33.2350   46.0922 N   0  0  0  0  0  0  0  0  0  0  0  0
   46.3079   32.9158   48.3798 O   0  0  0  0  0  0  0  0  0  0  0  0
   44.8394   36.0733   43.2417 C   0  0  0  0  0  0  0  0  0  0  0  0
   45.3738   37.3284   43.2399 F   0  0  0  0  0  0  0  0  0  0  0  0
   44.2401   35.8591   41.9818 F   0  0  0  0  0  0  0  0  0  0  0  0
   43.7916   35.9747   44.1447 F   0  0  0  0  0  0  0  0  0  0  0  0
   44.1141   33.6134   43.8717 H   0  0  0  0  0  0  0  0  0  0  0  0
   46.8066   35.2033   43.9573 H   0  0  0  0  0  0  0  0  0  0  0  0
   45.1211   33.9980   41.5729 H   0  0  0  0  0  0  0  0  0  0  0  0
   46.8036   33.5244   42.1150 H   0  0  0  0  0  0  0  0  0  0  0  0
   46.8196   31.4740   43.4596 H   0  0  0  0  0  0  0  0  0  0  0  0
   48.0256   30.2290   45.2745 H   0  0  0  0  0  0  0  0  0  0  0  0
   46.9313   32.2900   49.3995 C   0  0  0  0  0  0  0  0  0  0  0  0
   46.6273   31.4229   50.4192 C   0  0  0  0  0  0  0  0  0  0  0  0
   45.5947   31.1281   50.4527 H   0  0  0  0  0  0  0  0  0  0  0  0
   47.5431   30.9572   51.3304 C   0  0  0  0  0  0  0  0  0  0  0  0
   47.1281   30.2704   52.0792 H   0  0  0  0  0  0  0  0  0  0  0  0
   48.8647   31.3434   51.2759 C   0  0  0  0  0  0  0  0  0  0  0  0
   49.2534   32.2059   50.2909 C   0  0  0  0  0  0  0  0  0  0  0  0
   48.3017   32.6370   49.4124 C   0  0  0  0  0  0  0  0  0  0  0  0
   48.7517   33.3209   48.6790 H   0  0  0  0  0  0  0  0  0  0  0  0
   50.9654   32.7002   50.2280 S   0  0  0  0  0  0  0  0  0  0  0  0
   51.7778   31.8684   51.5780 C   0  0  0  0  0  0  0  0  0  0  0  0
   53.1035   32.1235   51.6945 C   0  0  0  0  0  0  0  0  0  0  0  0
   53.6618   32.7723   51.0432 H   0  0  0  0  0  0  0  0  0  0  0  0
   53.8225   31.5219   52.7152 C   0  0  0  0  0  0  0  0  0  0  0  0
   54.8743   31.7007   52.8381 H   0  0  0  0  0  0  0  0  0  0  0  0
   53.1537   30.6894   53.5672 C   0  0  0  0  0  0  0  0  0  0  0  0
   53.7036   30.2145   54.3669 H   0  0  0  0  0  0  0  0  0  0  0  0
   51.8151   30.4824   53.3839 C   0  0  0  0  0  0  0  0  0  0  0  0
   51.3553   29.7978   54.1149 H   0  0  0  0  0  0  0  0  0  0  0  0
   51.0387   31.0461   52.3930 C   0  0  0  0  0  0  0  0  0  0  0  0
   49.6577   30.7764   52.2768 N   0  0  0  0  0  0  0  0  0  0  0  0
   49.2996   30.1207   53.0046 H   0  0  0  0  0  0  0  0  0  0  0  0
  1  4  1  0
  2  1  1  0
  3  2  1  0
  3  1  1  0
  4  9  1  0
  5  4  2  0
  5  6  1  0
  6  7  2  0
  7  8  1  0
  8 10  1  0
  9  8  2  0
 11  2  1  0
 11 14  1  0
 12 11  1  0
 13 11  1  0
  1 15  1  6
  2 16  1  1
  3 17  1  0
  3 18  1  0
  5 19  1  0
  6 20  1  0
 21 22  2  0
 22 23  1  0
 22 24  1  0
 24 25  1  0
 24 26  2  0
 26 27  1  0
 27 28  2  0
 28 29  1  0
 27 30  1  0
 30 31  1  0
 31 32  2  0
 32 33  1  0
 32 34  1  0
 34 35  1  0
 34 36  2  0
 36 37  1  0
 36 38  1  0
 38 39  1  0
 38 40  2  0
 40 41  1  0
 41 42  1  0
 28 21  1  0
 40 31  1  0
 41 26  1  0
 10 21  1  0
M  ISO  8  15  13  16  13  17  13  18  13  19  14  20  14  23  16  25  16
M  ISO  6  29  16  33  16  35  16  37  16  39  16  42   5
M  END
>  <DihAtoms>  (1) 
7,9,20,21

>  <DihDeg>  (1) 
-0.004538507441248449

$$$$
