
     RDKit          3D

 32 35  0  0  0  0  0  0  0  0999 V2000
   44.2657   35.7348   44.2602 C   0  0  0  0  0  0  0  0  0  0  0  0
   44.4245   34.9069   43.1228 C   0  0  0  0  0  0  0  0  0  0  0  0
   45.0639   33.6851   43.2834 C   0  0  0  0  0  0  0  0  0  0  0  0
   45.5120   33.3291   44.5194 N   0  0  0  0  0  0  0  0  0  0  0  0
   45.3403   34.1507   45.5844 C   0  0  0  0  0  0  0  0  0  0  0  0
   44.7283   35.3362   45.4663 N   0  0  0  0  0  0  0  0  0  0  0  0
   43.8032   35.4564   41.5345 S   0  0  0  0  0  0  0  0  0  0  0  0
   43.7731   36.6728   44.1290 H   0  0  0  0  0  0  0  0  0  0  0  0
   45.1965   33.0411   42.4401 H   0  0  0  0  0  0  0  0  0  0  0  0
   45.7455   33.7382   46.4987 H   0  0  0  0  0  0  0  0  0  0  0  0
   42.1205   34.8690   41.4125 C   0  0  0  0  0  0  0  0  0  0  0  0
   41.0955   35.4665   42.1164 C   0  0  0  0  0  0  0  0  0  0  0  0
   41.2968   36.3098   42.7606 H   0  0  0  0  0  0  0  0  0  0  0  0
   39.8237   34.9530   41.9673 C   0  0  0  0  0  0  0  0  0  0  0  0
   39.0603   35.4666   42.5474 H   0  0  0  0  0  0  0  0  0  0  0  0
   39.4780   33.8826   41.1686 C   0  0  0  0  0  0  0  0  0  0  0  0
   40.5351   33.3265   40.4916 C   0  0  0  0  0  0  0  0  0  0  0  0
   41.8146   33.7981   40.6049 C   0  0  0  0  0  0  0  0  0  0  0  0
   42.6360   33.3446   40.0614 H   0  0  0  0  0  0  0  0  0  0  0  0
   40.2388   31.9383   39.4236 S   0  0  0  0  0  0  0  0  0  0  0  0
   38.4911   31.6028   39.5204 C   0  0  0  0  0  0  0  0  0  0  0  0
   37.9657   30.5858   38.8032 C   0  0  0  0  0  0  0  0  0  0  0  0
   38.6154   29.9701   38.1640 H   0  0  0  0  0  0  0  0  0  0  0  0
   36.6117   30.2653   38.8289 C   0  0  0  0  0  0  0  0  0  0  0  0
   36.2137   29.4548   38.2529 H   0  0  0  0  0  0  0  0  0  0  0  0
   35.8200   31.0508   39.6365 C   0  0  0  0  0  0  0  0  0  0  0  0
   34.7640   30.8179   39.6705 H   0  0  0  0  0  0  0  0  0  0  0  0
   36.3849   32.0705   40.3475 C   0  0  0  0  0  0  0  0  0  0  0  0
   35.6778   32.6387   40.9602 H   0  0  0  0  0  0  0  0  0  0  0  0
   37.7233   32.4009   40.3332 C   0  0  0  0  0  0  0  0  0  0  0  0
   38.1477   33.4815   41.1237 N   0  0  0  0  0  0  0  0  0  0  0  0
   37.4445   33.9974   41.6928 H   0  0  0  0  0  0  0  0  0  0  0  0
  1  6  2  0
  2  3  2  0
  2  1  1  0
  3  4  1  0
  4  5  2  0
  6  5  1  0
  7  2  1  0
  1  8  1  0
  3  9  1  0
  5 10  1  0
 11 12  2  0
 12 13  1  0
 12 14  1  0
 14 15  1  0
 14 16  2  0
 16 17  1  0
 17 18  2  0
 18 19  1  0
 17 20  1  0
 20 21  1  0
 21 22  2  0
 22 23  1  0
 22 24  1  0
 24 25  1  0
 24 26  2  0
 26 27  1  0
 26 28  1  0
 28 29  1  0
 28 30  2  0
 30 31  1  0
 31 32  1  0
 18 11  1  0
 30 21  1  0
 31 16  1  0
  7 11  1  0
M  ISO  8   8  14   9  14  10  14  13  16  15  16  19  16  23  16  25  16
M  ISO  3  27  16  29  16  32   5
M  END
>  <DihAtoms>  (1) 
1,6,10,11

>  <DihDeg>  (1) 
0.000349000965444096

$$$$
