
 OpenBabel03242523123D

 59 65  0  0  1  0  0  0  0  0999 V2000
   46.4230   31.9840   45.4920 C   0  0  0  0  0  0  0  0  0  0  0  0
   46.7450   32.7440   44.3460 C   0  0  0  0  0  0  0  0  0  0  0  0
   47.7220   32.1300   43.6000 C   0  0  0  0  0  0  0  0  0  0  0  0
   48.3310   30.9490   43.8920 C   0  0  0  0  0  0  0  0  0  0  0  0
   47.9580   30.2630   45.0450 C   0  0  0  0  0  0  0  0  0  0  0  0
   46.9880   30.7930   45.8540 C   0  0  0  0  0  0  0  0  0  0  0  0
   48.7500   29.1270   45.0550 O   0  0  0  0  0  0  0  0  0  0  0  0
   49.5590   29.0830   43.8950 C   0  0  2  0  0  0  0  0  0  0  0  0
   49.3140   30.2880   43.1790 O   0  0  0  0  0  0  0  0  0  0  0  0
   45.6750   32.1870   46.2900 H   0  0  0  0  0  0  0  0  0  0  0  0
   47.9760   32.6740   42.7460 H   0  0  0  0  0  0  0  0  0  0  0  0
   46.7900   30.1860   46.6940 H   0  0  0  0  0  0  0  0  0  0  0  0
   50.6330   29.0170   44.1750 H   0  0  0  0  0  0  0  0  0  0  0  0
   45.1030   36.0090   43.5170 C   0  0  0  0  0  0  0  0  0  0  0  0
   45.9010   34.8900   43.2810 C   0  0  0  0  0  0  0  0  0  0  0  0
   46.0460   33.9500   44.2570 C   0  0  0  0  0  0  0  0  0  0  0  0
   45.3850   34.1690   45.4350 N   0  0  0  0  0  0  0  0  0  0  0  0
   44.6190   35.2430   45.6600 C   0  0  0  0  0  0  0  0  0  0  0  0
   44.4840   36.1410   44.7170 N   0  0  0  0  0  0  0  0  0  0  0  0
   44.9820   36.7580   42.7520 H   0  0  0  0  0  0  0  0  0  0  0  0
   44.0730   35.4720   46.5650 H   0  0  0  0  0  0  0  0  0  0  0  0
   46.5400   34.8120   42.0440 N   0  0  0  0  0  0  0  0  0  0  0  0
   47.8660   35.3030   41.8440 C   0  0  0  0  0  0  0  0  0  0  0  0
   48.4650   34.9820   40.5040 C   0  0  0  0  0  0  0  0  0  0  0  0
   48.1610   33.7170   40.0140 N   0  0  0  0  0  0  0  0  0  0  0  0
   46.8830   33.2550   40.1740 C   0  0  0  0  0  0  0  0  0  0  0  0
   45.9990   34.2670   40.8630 C   0  0  0  0  0  0  0  0  0  0  0  0
   48.5850   35.0270   42.6510 H   0  0  0  0  0  0  0  0  0  0  0  0
   47.8020   36.4250   41.9140 H   0  0  0  0  0  0  0  0  0  0  0  0
   48.0590   35.7460   39.7790 H   0  0  0  0  0  0  0  0  0  0  0  0
   49.5500   35.2100   40.5560 H   0  0  0  0  0  0  0  0  0  0  0  0
   48.8190   33.2480   39.3940 H   0  0  0  0  0  0  0  0  0  0  0  0
   46.7640   32.2750   40.7010 H   0  0  0  0  0  0  0  0  0  0  0  0
   46.4100   33.0660   39.1670 H   0  0  0  0  0  0  0  0  0  0  0  0
   45.0680   33.7010   41.1440 H   0  0  0  0  0  0  0  0  0  0  0  0
   45.6940   35.0050   40.0810 H   0  0  0  0  0  0  0  0  0  0  0  0
   49.1250   27.9990   43.1270 O   0  0  0  0  0  0  0  0  0  0  0  0
   49.8900   27.1120   42.4280 C   0  0  0  0  0  0  0  0  0  0  0  0
   49.7090   25.7470   42.3350 C   0  0  0  0  0  0  0  0  0  0  0  0
   48.8710   25.3330   42.8760 H   0  0  0  0  0  0  0  0  0  0  0  0
   50.5900   25.0060   41.5760 C   0  0  0  0  0  0  0  0  0  0  0  0
   50.3740   23.9340   41.5590 H   0  0  0  0  0  0  0  0  0  0  0  0
   51.6560   25.5360   40.8910 C   0  0  0  0  0  0  0  0  0  0  0  0
   51.8210   26.8790   40.9900 C   0  0  0  0  0  0  0  0  0  0  0  0
   50.9800   27.6330   41.7220 C   0  0  0  0  0  0  0  0  0  0  0  0
   51.1690   28.7170   41.7630 H   0  0  0  0  0  0  0  0  0  0  0  0
   53.1840   27.6390   40.1260 S   0  0  0  0  0  0  0  0  0  0  0  0
   54.0210   26.2970   39.3010 C   0  0  0  0  0  0  0  0  0  0  0  0
   55.1180   26.6760   38.5690 C   0  0  0  0  0  0  0  0  0  0  0  0
   55.4800   27.7080   38.4750 H   0  0  0  0  0  0  0  0  0  0  0  0
   55.8390   25.7070   37.8880 C   0  0  0  0  0  0  0  0  0  0  0  0
   56.7150   25.9170   37.2880 H   0  0  0  0  0  0  0  0  0  0  0  0
   55.4300   24.3930   37.9700 C   0  0  0  0  0  0  0  0  0  0  0  0
   55.9830   23.6270   37.4450 H   0  0  0  0  0  0  0  0  0  0  0  0
   54.3150   24.1090   38.7330 C   0  0  0  0  0  0  0  0  0  0  0  0
   54.0540   23.0380   38.7460 H   0  0  0  0  0  0  0  0  0  0  0  0
   53.5610   25.0320   39.4290 C   0  0  0  0  0  0  0  0  0  0  0  0
   52.4490   24.6340   40.1690 N   0  0  0  0  0  0  0  0  0  0  0  0
   52.2310   23.6140   40.1620 H   0  0  0  0  0  0  0  0  0  0  0  0
  1  6  1  0  0  0  0
  1 10  1  0  0  0  0
  2  1  2  0  0  0  0
  3  4  2  0  0  0  0
  3  2  1  0  0  0  0
  4  5  1  0  0  0  0
  5  7  1  0  0  0  0
  5  6  2  0  0  0  0
  6 12  1  0  0  0  0
  8 13  1  1  0  0  0
  8  7  1  0  0  0  0
  9  4  1  0  0  0  0
  9  8  1  0  0  0  0
 11  3  1  0  0  0  0
 14 19  1  0  0  0  0
 15 14  2  0  0  0  0
 15 16  1  0  0  0  0
 16  2  1  0  0  0  0
 16 17  2  0  0  0  0
 17 18  1  0  0  0  0
 18 21  1  0  0  0  0
 19 18  2  0  0  0  0
 20 14  1  0  0  0  0
 22 15  1  0  0  0  0
 23 29  1  0  0  0  0
 23 22  1  0  0  0  0
 23 28  1  0  0  0  0
 24 31  1  0  0  0  0
 24 23  1  0  0  0  0
 25 26  1  0  0  0  0
 25 24  1  0  0  0  0
 26 33  1  0  0  0  0
 26 27  1  0  0  0  0
 27 35  1  0  0  0  0
 27 22  1  0  0  0  0
 30 24  1  0  0  0  0
 32 25  1  0  0  0  0
 34 26  1  0  0  0  0
 36 27  1  0  0  0  0
 37  8  1  0  0  0  0
 38 37  1  0  0  0  0
 39 38  1  0  0  0  0
 39 40  1  0  0  0  0
 41 39  2  0  0  0  0
 42 41  1  0  0  0  0
 43 44  2  0  0  0  0
 43 41  1  0  0  0  0
 44 45  1  0  0  0  0
 45 46  1  0  0  0  0
 45 38  2  0  0  0  0
 47 44  1  0  0  0  0
 48 57  1  0  0  0  0
 48 47  1  0  0  0  0
 49 48  2  0  0  0  0
 50 49  1  0  0  0  0
 51 53  2  0  0  0  0
 51 49  1  0  0  0  0
 52 51  1  0  0  0  0
 53 55  1  0  0  0  0
 54 53  1  0  0  0  0
 55 56  1  0  0  0  0
 55 57  2  0  0  0  0
 57 58  1  0  0  0  0
 58 43  1  0  0  0  0
 59 58  1  0  0  0  0
M  END
>  <minimizedAffinity>
-4.74372578

>  <minimizedRMSD>
0.859091103

$$$$
