
 OpenBabel03252502563D

 50 54  0  0  0  0  0  0  0  0999 V2000
   44.3070   26.0960   47.0150 O   0  0  0  0  0  0  0  0  0  0  0  0
   44.9620   27.1610   47.8830 P   0  0  2  0  0  0  0  0  0  0  0  0
   44.4880   26.9520   49.4820 O   0  0  0  0  0  0  0  0  0  0  0  0
   45.2390   26.9930   50.1310 H   0  0  0  0  0  0  0  0  0  0  0  0
   44.3650   28.6760   47.3750 O   0  0  0  0  0  0  0  0  0  0  0  0
   45.5930   29.8790   44.8050 Br  0  0  0  0  0  0  0  0  0  0  0  0
   45.6610   30.5780   46.6110 C   0  0  0  0  0  0  0  0  0  0  0  0
   46.3380   31.7540   46.7730 C   0  0  0  0  0  0  0  0  0  0  0  0
   46.3660   32.2260   48.0870 C   0  0  0  0  0  0  0  0  0  0  0  0
   45.7640   31.5690   49.1430 C   0  0  0  0  0  0  0  0  0  0  0  0
   45.1030   30.3920   48.8940 C   0  0  0  0  0  0  0  0  0  0  0  0
   45.0410   29.8750   47.6160 C   0  0  0  0  0  0  0  0  0  0  0  0
   46.8840   33.1520   48.2940 H   0  0  0  0  0  0  0  0  0  0  0  0
   45.8310   32.0010   50.1340 H   0  0  0  0  0  0  0  0  0  0  0  0
   44.6360   29.8850   49.7230 H   0  0  0  0  0  0  0  0  0  0  0  0
   47.0140   32.5390   45.7370 C   0  0  0  0  0  0  0  0  0  0  0  0
   48.0060   32.9290   46.0610 H   0  0  0  0  0  0  0  0  0  0  0  0
   47.2260   31.8380   44.8840 H   0  0  0  0  0  0  0  0  0  0  0  0
   44.5420   35.3170   45.4110 C   0  0  0  0  0  0  0  0  0  0  0  0
   44.7600   35.7330   44.0960 C   0  0  0  0  0  0  0  0  0  0  0  0
   45.7260   35.0730   43.3540 C   0  0  0  0  0  0  0  0  0  0  0  0
   46.4290   34.0550   43.9140 N   0  0  0  0  0  0  0  0  0  0  0  0
   46.1960   33.6650   45.2070 C   0  0  0  0  0  0  0  0  0  0  0  0
   45.2490   34.3170   45.9220 N   0  0  0  0  0  0  0  0  0  0  0  0
   43.8300   35.7340   46.0970 H   0  0  0  0  0  0  0  0  0  0  0  0
   44.1450   36.5540   43.7500 H   0  0  0  0  0  0  0  0  0  0  0  0
   45.8810   35.4100   42.3400 H   0  0  0  0  0  0  0  0  0  0  0  0
   46.6270   27.0370   47.7160 O   0  0  0  0  0  0  0  0  0  0  0  0
   47.3170   26.2430   46.8200 C   0  0  0  0  0  0  0  0  0  0  0  0
   47.7950   25.0110   47.2130 C   0  0  0  0  0  0  0  0  0  0  0  0
   47.6070   24.7060   48.2240 H   0  0  0  0  0  0  0  0  0  0  0  0
   48.4800   24.2430   46.2940 C   0  0  0  0  0  0  0  0  0  0  0  0
   48.8130   23.2960   46.6980 H   0  0  0  0  0  0  0  0  0  0  0  0
   48.7360   24.6060   44.9890 C   0  0  0  0  0  0  0  0  0  0  0  0
   48.2310   25.8420   44.6700 C   0  0  0  0  0  0  0  0  0  0  0  0
   47.5550   26.6370   45.5220 C   0  0  0  0  0  0  0  0  0  0  0  0
   47.1610   27.6170   45.2550 H   0  0  0  0  0  0  0  0  0  0  0  0
   48.4650   26.4810   43.0220 S   0  0  0  0  0  0  0  0  0  0  0  0
   49.3760   25.2260   42.1500 C   0  0  0  0  0  0  0  0  0  0  0  0
   49.7370   25.3740   40.8430 C   0  0  0  0  0  0  0  0  0  0  0  0
   49.4580   26.2990   40.3150 H   0  0  0  0  0  0  0  0  0  0  0  0
   50.4490   24.4530   40.0720 C   0  0  0  0  0  0  0  0  0  0  0  0
   50.6910   24.6500   39.0540 H   0  0  0  0  0  0  0  0  0  0  0  0
   50.7940   23.2990   40.7480 C   0  0  0  0  0  0  0  0  0  0  0  0
   51.3490   22.5400   40.2020 H   0  0  0  0  0  0  0  0  0  0  0  0
   50.4350   23.1270   42.0760 C   0  0  0  0  0  0  0  0  0  0  0  0
   50.7540   22.1760   42.5290 H   0  0  0  0  0  0  0  0  0  0  0  0
   49.7310   24.0700   42.7940 C   0  0  0  0  0  0  0  0  0  0  0  0
   49.4500   23.7460   44.1190 N   0  0  0  0  0  0  0  0  0  0  0  0
   49.7530   22.8450   44.5440 H   0  0  0  0  0  0  0  0  0  0  0  0
  2  1  2  6  0  0  0
  2  3  1  0  0  0  0
  3  4  1  0  0  0  0
  5 12  1  0  0  0  0
  5  2  1  0  0  0  0
  6  7  1  0  0  0  0
  7  8  2  0  0  0  0
  7 12  1  0  0  0  0
  8  9  1  0  0  0  0
  9 13  1  0  0  0  0
  9 10  2  0  0  0  0
 10 14  1  0  0  0  0
 11 10  1  0  0  0  0
 11 15  1  0  0  0  0
 12 11  2  0  0  0  0
 16 17  1  0  0  0  0
 16  8  1  0  0  0  0
 18 16  1  0  0  0  0
 19 24  1  0  0  0  0
 19 25  1  0  0  0  0
 20 19  2  0  0  0  0
 21 22  2  0  0  0  0
 21 20  1  0  0  0  0
 22 23  1  0  0  0  0
 23 16  1  0  0  0  0
 23 24  2  0  0  0  0
 26 20  1  0  0  0  0
 27 21  1  0  0  0  0
 28  2  1  0  0  0  0
 29 30  1  0  0  0  0
 29 28  1  0  0  0  0
 30 31  1  0  0  0  0
 32 33  1  0  0  0  0
 32 30  2  0  0  0  0
 34 32  1  0  0  0  0
 35 34  2  0  0  0  0
 35 36  1  0  0  0  0
 36 29  2  0  0  0  0
 37 36  1  0  0  0  0
 38 35  1  0  0  0  0
 39 48  1  0  0  0  0
 39 38  1  0  0  0  0
 40 39  2  0  0  0  0
 41 40  1  0  0  0  0
 42 44  2  0  0  0  0
 42 40  1  0  0  0  0
 43 42  1  0  0  0  0
 44 46  1  0  0  0  0
 45 44  1  0  0  0  0
 46 47  1  0  0  0  0
 46 48  2  0  0  0  0
 48 49  1  0  0  0  0
 49 50  1  0  0  0  0
 49 34  1  0  0  0  0
M  END
>  <minimizedAffinity>
-4.81854057

>  <minimizedRMSD>
1.6598264

$$$$
