
 OpenBabel03242523113D

 59 65  0  0  1  0  0  0  0  0999 V2000
   46.5440   31.7030   45.2890 C   0  0  0  0  0  0  0  0  0  0  0  0
   46.8990   32.5880   44.2470 C   0  0  0  0  0  0  0  0  0  0  0  0
   47.9360   32.0850   43.4980 C   0  0  0  0  0  0  0  0  0  0  0  0
   48.5690   30.8980   43.7000 C   0  0  0  0  0  0  0  0  0  0  0  0
   48.1610   30.0840   44.7530 C   0  0  0  0  0  0  0  0  0  0  0  0
   47.1300   30.4970   45.5570 C   0  0  0  0  0  0  0  0  0  0  0  0
   48.9900   28.9770   44.6890 O   0  0  0  0  0  0  0  0  0  0  0  0
   49.8610   29.0800   43.5790 C   0  0  2  0  0  0  0  0  0  0  0  0
   49.6120   30.3460   42.9790 O   0  0  0  0  0  0  0  0  0  0  0  0
   45.7480   31.7980   46.0590 H   0  0  0  0  0  0  0  0  0  0  0  0
   48.2150   32.7240   42.7210 H   0  0  0  0  0  0  0  0  0  0  0  0
   46.9100   29.7990   46.3170 H   0  0  0  0  0  0  0  0  0  0  0  0
   50.9200   29.0150   43.9110 H   0  0  0  0  0  0  0  0  0  0  0  0
   45.1410   35.8420   43.6450 C   0  0  0  0  0  0  0  0  0  0  0  0
   45.9620   34.7620   43.3260 C   0  0  0  0  0  0  0  0  0  0  0  0
   46.1640   33.7750   44.2440 C   0  0  0  0  0  0  0  0  0  0  0  0
   45.5350   33.9120   45.4520 N   0  0  0  0  0  0  0  0  0  0  0  0
   44.7470   34.9490   45.7570 C   0  0  0  0  0  0  0  0  0  0  0  0
   44.5570   35.8910   44.8690 N   0  0  0  0  0  0  0  0  0  0  0  0
   44.9740   36.6270   42.9250 H   0  0  0  0  0  0  0  0  0  0  0  0
   44.2230   35.1130   46.6890 H   0  0  0  0  0  0  0  0  0  0  0  0
   46.5640   34.7680   42.0670 N   0  0  0  0  0  0  0  0  0  0  0  0
   47.8720   35.3000   41.8560 C   0  0  0  0  0  0  0  0  0  0  0  0
   48.4350   35.0690   40.4820 C   0  0  0  0  0  0  0  0  0  0  0  0
   48.1430   33.8270   39.9300 N   0  0  0  0  0  0  0  0  0  0  0  0
   46.8810   33.3280   40.1020 C   0  0  0  0  0  0  0  0  0  0  0  0
   45.9970   34.2790   40.8740 C   0  0  0  0  0  0  0  0  0  0  0  0
   48.6220   34.9960   42.6240 H   0  0  0  0  0  0  0  0  0  0  0  0
   47.7860   36.4150   41.9920 H   0  0  0  0  0  0  0  0  0  0  0  0
   47.9910   35.8640   39.8150 H   0  0  0  0  0  0  0  0  0  0  0  0
   49.5170   35.3190   40.5150 H   0  0  0  0  0  0  0  0  0  0  0  0
   48.7910   33.4090   39.2640 H   0  0  0  0  0  0  0  0  0  0  0  0
   46.7990   32.3170   40.5750 H   0  0  0  0  0  0  0  0  0  0  0  0
   46.3810   33.1850   39.1000 H   0  0  0  0  0  0  0  0  0  0  0  0
   45.0880   33.6770   41.1500 H   0  0  0  0  0  0  0  0  0  0  0  0
   45.6530   35.0520   40.1450 H   0  0  0  0  0  0  0  0  0  0  0  0
   49.5060   28.0710   42.6790 O   0  0  0  0  0  0  0  0  0  0  0  0
   49.8380   27.9750   41.3590 C   0  0  0  0  0  0  0  0  0  0  0  0
   48.9760   27.8890   40.2860 C   0  0  0  0  0  0  0  0  0  0  0  0
   47.9190   27.8990   40.5130 H   0  0  0  0  0  0  0  0  0  0  0  0
   49.4980   27.7970   39.0140 C   0  0  0  0  0  0  0  0  0  0  0  0
   48.7450   27.7330   38.2220 H   0  0  0  0  0  0  0  0  0  0  0  0
   50.8420   27.7840   38.7290 C   0  0  0  0  0  0  0  0  0  0  0  0
   51.6790   27.8700   39.7930 C   0  0  0  0  0  0  0  0  0  0  0  0
   51.2030   27.9600   41.0490 C   0  0  0  0  0  0  0  0  0  0  0  0
   51.9340   28.0260   41.8690 H   0  0  0  0  0  0  0  0  0  0  0  0
   53.4380   27.8590   39.5000 S   0  0  0  0  0  0  0  0  0  0  0  0
   53.6180   27.7280   37.7310 C   0  0  0  0  0  0  0  0  0  0  0  0
   54.9170   27.7040   37.2920 C   0  0  0  0  0  0  0  0  0  0  0  0
   55.7990   27.7580   37.9440 H   0  0  0  0  0  0  0  0  0  0  0  0
   55.1650   27.6040   35.9310 C   0  0  0  0  0  0  0  0  0  0  0  0
   56.1560   27.5780   35.5000 H   0  0  0  0  0  0  0  0  0  0  0  0
   54.0960   27.5310   35.0640 C   0  0  0  0  0  0  0  0  0  0  0  0
   54.2750   27.4530   34.0010 H   0  0  0  0  0  0  0  0  0  0  0  0
   52.8250   27.5630   35.6000 C   0  0  0  0  0  0  0  0  0  0  0  0
   52.0280   27.5020   34.8420 H   0  0  0  0  0  0  0  0  0  0  0  0
   52.5210   27.6620   36.9430 C   0  0  0  0  0  0  0  0  0  0  0  0
   51.1970   27.6860   37.3760 N   0  0  0  0  0  0  0  0  0  0  0  0
   50.4670   27.6250   36.6330 H   0  0  0  0  0  0  0  0  0  0  0  0
  1  6  1  0  0  0  0
  1 10  1  0  0  0  0
  2  1  2  0  0  0  0
  3  4  2  0  0  0  0
  3  2  1  0  0  0  0
  4  5  1  0  0  0  0
  5  6  2  0  0  0  0
  6 12  1  0  0  0  0
  7  5  1  0  0  0  0
  8 13  1  1  0  0  0
  8  7  1  0  0  0  0
  9  8  1  0  0  0  0
  9  4  1  0  0  0  0
 11  3  1  0  0  0  0
 14 19  1  0  0  0  0
 15 14  2  0  0  0  0
 15 16  1  0  0  0  0
 16  2  1  0  0  0  0
 16 17  2  0  0  0  0
 17 18  1  0  0  0  0
 18 21  1  0  0  0  0
 19 18  2  0  0  0  0
 20 14  1  0  0  0  0
 22 15  1  0  0  0  0
 23 29  1  0  0  0  0
 23 22  1  0  0  0  0
 23 28  1  0  0  0  0
 24 31  1  0  0  0  0
 24 23  1  0  0  0  0
 25 26  1  0  0  0  0
 25 24  1  0  0  0  0
 26 33  1  0  0  0  0
 26 27  1  0  0  0  0
 27 35  1  0  0  0  0
 27 22  1  0  0  0  0
 30 24  1  0  0  0  0
 32 25  1  0  0  0  0
 34 26  1  0  0  0  0
 36 27  1  0  0  0  0
 37  8  1  0  0  0  0
 38 37  1  0  0  0  0
 39 40  1  0  0  0  0
 39 38  2  0  0  0  0
 41 39  1  0  0  0  0
 42 41  1  0  0  0  0
 43 41  2  0  0  0  0
 43 44  1  0  0  0  0
 44 45  2  0  0  0  0
 45 38  1  0  0  0  0
 45 46  1  0  0  0  0
 47 44  1  0  0  0  0
 48 47  1  0  0  0  0
 49 48  1  0  0  0  0
 49 50  1  0  0  0  0
 51 49  2  0  0  0  0
 52 51  1  0  0  0  0
 53 55  2  0  0  0  0
 53 51  1  0  0  0  0
 54 53  1  0  0  0  0
 55 57  1  0  0  0  0
 56 55  1  0  0  0  0
 57 58  1  0  0  0  0
 57 48  2  0  0  0  0
 58 43  1  0  0  0  0
 59 58  1  0  0  0  0
M  END
>  <minimizedAffinity>
-4.96267462

>  <minimizedRMSD>
3.53750014

$$$$
