
 OpenBabel03242523113D

 59 65  0  0  1  0  0  0  0  0999 V2000
   47.6770   30.9260   44.4480 C   0  0  0  0  0  0  0  0  0  0  0  0
   47.8590   32.0930   43.6730 C   0  0  0  0  0  0  0  0  0  0  0  0
   48.9230   31.9590   42.8140 C   0  0  0  0  0  0  0  0  0  0  0  0
   49.7250   30.8670   42.6950 C   0  0  0  0  0  0  0  0  0  0  0  0
   49.4810   29.7580   43.4990 C   0  0  0  0  0  0  0  0  0  0  0  0
   48.4390   29.7920   44.3880 C   0  0  0  0  0  0  0  0  0  0  0  0
   50.4550   28.8390   43.1440 O   0  0  0  0  0  0  0  0  0  0  0  0
   51.2530   29.3520   42.0950 C   0  0  2  0  0  0  0  0  0  0  0  0
   50.8030   30.6790   41.8490 O   0  0  0  0  0  0  0  0  0  0  0  0
   46.9100   30.7000   45.2210 H   0  0  0  0  0  0  0  0  0  0  0  0
   49.0750   32.8110   42.2300 H   0  0  0  0  0  0  0  0  0  0  0  0
   48.3510   28.8960   44.9400 H   0  0  0  0  0  0  0  0  0  0  0  0
   52.3240   29.3610   42.3940 H   0  0  0  0  0  0  0  0  0  0  0  0
   45.6080   35.0770   43.9380 C   0  0  0  0  0  0  0  0  0  0  0  0
   46.5450   34.2400   43.3330 C   0  0  0  0  0  0  0  0  0  0  0  0
   46.9650   33.1190   43.9850 C   0  0  0  0  0  0  0  0  0  0  0  0
   46.4290   32.8820   45.2230 N   0  0  0  0  0  0  0  0  0  0  0  0
   45.5310   33.6860   45.8020 C   0  0  0  0  0  0  0  0  0  0  0  0
   45.1320   34.7600   45.1680 N   0  0  0  0  0  0  0  0  0  0  0  0
   45.2690   35.9660   43.4300 H   0  0  0  0  0  0  0  0  0  0  0  0
   45.0730   33.5540   46.7720 H   0  0  0  0  0  0  0  0  0  0  0  0
   47.0270   34.6210   42.0820 N   0  0  0  0  0  0  0  0  0  0  0  0
   48.2300   35.3770   41.9310 C   0  0  0  0  0  0  0  0  0  0  0  0
   48.6960   35.5500   40.5140 C   0  0  0  0  0  0  0  0  0  0  0  0
   48.5240   34.4360   39.7000 N   0  0  0  0  0  0  0  0  0  0  0  0
   47.3590   33.7280   39.8170 C   0  0  0  0  0  0  0  0  0  0  0  0
   46.4280   34.3360   40.8390 C   0  0  0  0  0  0  0  0  0  0  0  0
   49.0780   35.0220   42.5630 H   0  0  0  0  0  0  0  0  0  0  0  0
   48.0090   36.4060   42.3320 H   0  0  0  0  0  0  0  0  0  0  0  0
   48.0940   36.4000   40.0790 H   0  0  0  0  0  0  0  0  0  0  0  0
   49.7330   35.9450   40.5460 H   0  0  0  0  0  0  0  0  0  0  0  0
   49.1600   34.2820   38.9200 H   0  0  0  0  0  0  0  0  0  0  0  0
   47.4540   32.6350   40.0400 H   0  0  0  0  0  0  0  0  0  0  0  0
   46.7960   33.7420   38.8380 H   0  0  0  0  0  0  0  0  0  0  0  0
   45.6350   33.5580   41.0140 H   0  0  0  0  0  0  0  0  0  0  0  0
   45.9210   35.1940   40.3340 H   0  0  0  0  0  0  0  0  0  0  0  0
   51.0060   28.5690   40.9640 O   0  0  0  0  0  0  0  0  0  0  0  0
   51.2130   28.9020   39.6570 C   0  0  0  0  0  0  0  0  0  0  0  0
   52.2750   28.5300   38.8590 C   0  0  0  0  0  0  0  0  0  0  0  0
   53.0280   27.9050   39.3180 H   0  0  0  0  0  0  0  0  0  0  0  0
   52.3140   28.9640   37.5520 C   0  0  0  0  0  0  0  0  0  0  0  0
   53.1900   28.6220   36.9920 H   0  0  0  0  0  0  0  0  0  0  0  0
   51.3550   29.7580   36.9710 C   0  0  0  0  0  0  0  0  0  0  0  0
   50.3170   30.1170   37.7660 C   0  0  0  0  0  0  0  0  0  0  0  0
   50.2460   29.7100   39.0480 C   0  0  0  0  0  0  0  0  0  0  0  0
   49.3770   30.0360   39.6410 H   0  0  0  0  0  0  0  0  0  0  0  0
   49.0320   31.1480   37.0820 S   0  0  0  0  0  0  0  0  0  0  0  0
   49.5200   31.4420   35.3920 C   0  0  0  0  0  0  0  0  0  0  0  0
   48.6490   32.2270   34.6790 C   0  0  0  0  0  0  0  0  0  0  0  0
   47.7230   32.6570   35.0790 H   0  0  0  0  0  0  0  0  0  0  0  0
   48.9370   32.5160   33.3530 C   0  0  0  0  0  0  0  0  0  0  0  0
   48.3090   33.1260   32.7180 H   0  0  0  0  0  0  0  0  0  0  0  0
   50.0900   32.0030   32.7960 C   0  0  0  0  0  0  0  0  0  0  0  0
   50.3270   32.2200   31.7630 H   0  0  0  0  0  0  0  0  0  0  0  0
   50.9030   31.2230   33.5930 C   0  0  0  0  0  0  0  0  0  0  0  0
   51.8010   30.8540   33.0730 H   0  0  0  0  0  0  0  0  0  0  0  0
   50.6650   30.9050   34.9140 C   0  0  0  0  0  0  0  0  0  0  0  0
   51.5560   30.1060   35.6290 N   0  0  0  0  0  0  0  0  0  0  0  0
   52.3960   29.7720   35.1080 H   0  0  0  0  0  0  0  0  0  0  0  0
  1 10  1  0  0  0  0
  2 16  1  0  0  0  0
  2  1  2  0  0  0  0
  3  2  1  0  0  0  0
  4  3  2  0  0  0  0
  4  5  1  0  0  0  0
  5  6  2  0  0  0  0
  6  1  1  0  0  0  0
  6 12  1  0  0  0  0
  7  5  1  0  0  0  0
  8 13  1  1  0  0  0
  8  7  1  0  0  0  0
  9  8  1  0  0  0  0
  9  4  1  0  0  0  0
 11  3  1  0  0  0  0
 14 19  1  0  0  0  0
 15 14  2  0  0  0  0
 15 16  1  0  0  0  0
 16 17  2  0  0  0  0
 17 18  1  0  0  0  0
 18 21  1  0  0  0  0
 19 18  2  0  0  0  0
 20 14  1  0  0  0  0
 22 15  1  0  0  0  0
 23 22  1  0  0  0  0
 23 29  1  0  0  0  0
 23 28  1  0  0  0  0
 24 31  1  0  0  0  0
 24 23  1  0  0  0  0
 25 26  1  0  0  0  0
 25 24  1  0  0  0  0
 26 33  1  0  0  0  0
 26 27  1  0  0  0  0
 27 35  1  0  0  0  0
 27 22  1  0  0  0  0
 30 24  1  0  0  0  0
 32 25  1  0  0  0  0
 34 26  1  0  0  0  0
 36 27  1  0  0  0  0
 37  8  1  0  0  0  0
 38 37  1  0  0  0  0
 39 40  1  0  0  0  0
 39 38  2  0  0  0  0
 41 39  1  0  0  0  0
 42 41  1  0  0  0  0
 43 41  2  0  0  0  0
 43 44  1  0  0  0  0
 44 45  2  0  0  0  0
 45 46  1  0  0  0  0
 45 38  1  0  0  0  0
 47 44  1  0  0  0  0
 48 47  1  0  0  0  0
 49 50  1  0  0  0  0
 49 48  2  0  0  0  0
 51 49  1  0  0  0  0
 52 51  1  0  0  0  0
 53 51  2  0  0  0  0
 53 55  1  0  0  0  0
 54 53  1  0  0  0  0
 55 57  2  0  0  0  0
 56 55  1  0  0  0  0
 57 48  1  0  0  0  0
 57 58  1  0  0  0  0
 58 43  1  0  0  0  0
 59 58  1  0  0  0  0
M  END
>  <minimizedAffinity>
-6.00200605

>  <minimizedRMSD>
5.50706863

$$$$
