
 OpenBabel03242523123D

 59 65  0  0  1  0  0  0  0  0999 V2000
   46.4540   32.0250   45.5380 C   0  0  0  0  0  0  0  0  0  0  0  0
   46.7390   32.7510   44.3600 C   0  0  0  0  0  0  0  0  0  0  0  0
   47.6870   32.1110   43.5980 C   0  0  0  0  0  0  0  0  0  0  0  0
   48.3000   30.9360   43.9010 C   0  0  0  0  0  0  0  0  0  0  0  0
   47.9660   30.2840   45.0840 C   0  0  0  0  0  0  0  0  0  0  0  0
   47.0270   30.8400   45.9120 C   0  0  0  0  0  0  0  0  0  0  0  0
   48.7530   29.1440   45.0970 O   0  0  0  0  0  0  0  0  0  0  0  0
   49.5200   29.0650   43.9120 C   0  0  2  0  0  0  0  0  0  0  0  0
   49.2550   30.2510   43.1720 O   0  0  0  0  0  0  0  0  0  0  0  0
   45.7360   32.2520   46.3550 H   0  0  0  0  0  0  0  0  0  0  0  0
   47.9120   32.6310   42.7210 H   0  0  0  0  0  0  0  0  0  0  0  0
   46.8560   30.2570   46.7750 H   0  0  0  0  0  0  0  0  0  0  0  0
   50.6030   29.0000   44.1560 H   0  0  0  0  0  0  0  0  0  0  0  0
   45.1050   36.0140   43.5090 C   0  0  0  0  0  0  0  0  0  0  0  0
   45.9020   34.8930   43.2820 C   0  0  0  0  0  0  0  0  0  0  0  0
   46.0430   33.9570   44.2630 C   0  0  0  0  0  0  0  0  0  0  0  0
   45.3790   34.1840   45.4390 N   0  0  0  0  0  0  0  0  0  0  0  0
   44.6150   35.2610   45.6550 C   0  0  0  0  0  0  0  0  0  0  0  0
   44.4840   36.1540   44.7070 N   0  0  0  0  0  0  0  0  0  0  0  0
   44.9870   36.7590   42.7390 H   0  0  0  0  0  0  0  0  0  0  0  0
   44.0680   35.4960   46.5580 H   0  0  0  0  0  0  0  0  0  0  0  0
   46.5430   34.8060   42.0460 N   0  0  0  0  0  0  0  0  0  0  0  0
   47.8710   35.2930   41.8460 C   0  0  0  0  0  0  0  0  0  0  0  0
   48.4720   34.9630   40.5090 C   0  0  0  0  0  0  0  0  0  0  0  0
   48.1650   33.6960   40.0260 N   0  0  0  0  0  0  0  0  0  0  0  0
   46.8860   33.2380   40.1860 C   0  0  0  0  0  0  0  0  0  0  0  0
   46.0030   34.2560   40.8670 C   0  0  0  0  0  0  0  0  0  0  0  0
   48.5870   35.0190   42.6560 H   0  0  0  0  0  0  0  0  0  0  0  0
   47.8090   36.4150   41.9100 H   0  0  0  0  0  0  0  0  0  0  0  0
   48.0700   35.7240   39.7800 H   0  0  0  0  0  0  0  0  0  0  0  0
   49.5570   35.1890   40.5630 H   0  0  0  0  0  0  0  0  0  0  0  0
   48.8230   33.2220   39.4090 H   0  0  0  0  0  0  0  0  0  0  0  0
   46.7630   32.2610   40.7170 H   0  0  0  0  0  0  0  0  0  0  0  0
   46.4150   33.0440   39.1780 H   0  0  0  0  0  0  0  0  0  0  0  0
   45.0700   33.6940   41.1490 H   0  0  0  0  0  0  0  0  0  0  0  0
   45.7010   34.9900   40.0810 H   0  0  0  0  0  0  0  0  0  0  0  0
   49.0540   27.9620   43.1890 O   0  0  0  0  0  0  0  0  0  0  0  0
   49.7720   26.8880   42.7500 C   0  0  0  0  0  0  0  0  0  0  0  0
   50.6670   26.8540   41.7000 C   0  0  0  0  0  0  0  0  0  0  0  0
   50.8180   27.7790   41.1640 H   0  0  0  0  0  0  0  0  0  0  0  0
   51.3020   25.6670   41.4030 C   0  0  0  0  0  0  0  0  0  0  0  0
   51.9940   25.7290   40.5570 H   0  0  0  0  0  0  0  0  0  0  0  0
   51.1070   24.4910   42.0860 C   0  0  0  0  0  0  0  0  0  0  0  0
   50.2250   24.5390   43.1160 C   0  0  0  0  0  0  0  0  0  0  0  0
   49.5860   25.6820   43.4350 C   0  0  0  0  0  0  0  0  0  0  0  0
   48.8830   25.6540   44.2820 H   0  0  0  0  0  0  0  0  0  0  0  0
   49.9200   23.0520   44.0510 S   0  0  0  0  0  0  0  0  0  0  0  0
   50.9550   21.8080   43.3010 C   0  0  0  0  0  0  0  0  0  0  0  0
   50.8660   20.5680   43.8820 C   0  0  0  0  0  0  0  0  0  0  0  0
   50.2250   20.3240   44.7390 H   0  0  0  0  0  0  0  0  0  0  0  0
   51.6310   19.5300   43.3740 C   0  0  0  0  0  0  0  0  0  0  0  0
   51.6230   18.5240   43.7700 H   0  0  0  0  0  0  0  0  0  0  0  0
   52.4570   19.7790   42.2970 C   0  0  0  0  0  0  0  0  0  0  0  0
   53.0590   18.9780   41.8890 H   0  0  0  0  0  0  0  0  0  0  0  0
   52.4790   21.0570   41.7790 C   0  0  0  0  0  0  0  0  0  0  0  0
   53.1620   21.1720   40.9230 H   0  0  0  0  0  0  0  0  0  0  0  0
   51.7390   22.1260   42.2460 C   0  0  0  0  0  0  0  0  0  0  0  0
   51.8380   23.3800   41.6460 N   0  0  0  0  0  0  0  0  0  0  0  0
   52.4930   23.4550   40.8390 H   0  0  0  0  0  0  0  0  0  0  0  0
  1  6  1  0  0  0  0
  1 10  1  0  0  0  0
  2  1  2  0  0  0  0
  3  4  2  0  0  0  0
  3  2  1  0  0  0  0
  4  5  1  0  0  0  0
  5  7  1  0  0  0  0
  5  6  2  0  0  0  0
  6 12  1  0  0  0  0
  8 13  1  1  0  0  0
  8  7  1  0  0  0  0
  9  4  1  0  0  0  0
  9  8  1  0  0  0  0
 11  3  1  0  0  0  0
 14 19  1  0  0  0  0
 15 14  2  0  0  0  0
 15 16  1  0  0  0  0
 16  2  1  0  0  0  0
 16 17  2  0  0  0  0
 17 18  1  0  0  0  0
 18 21  1  0  0  0  0
 19 18  2  0  0  0  0
 20 14  1  0  0  0  0
 22 15  1  0  0  0  0
 23 29  1  0  0  0  0
 23 22  1  0  0  0  0
 23 28  1  0  0  0  0
 24 31  1  0  0  0  0
 24 23  1  0  0  0  0
 25 26  1  0  0  0  0
 25 24  1  0  0  0  0
 26 33  1  0  0  0  0
 26 27  1  0  0  0  0
 27 35  1  0  0  0  0
 27 22  1  0  0  0  0
 30 24  1  0  0  0  0
 32 25  1  0  0  0  0
 34 26  1  0  0  0  0
 36 27  1  0  0  0  0
 37  8  1  0  0  0  0
 38 37  1  0  0  0  0
 38 45  1  0  0  0  0
 39 38  2  0  0  0  0
 40 39  1  0  0  0  0
 41 39  1  0  0  0  0
 41 43  2  0  0  0  0
 42 41  1  0  0  0  0
 43 44  1  0  0  0  0
 44 45  2  0  0  0  0
 44 47  1  0  0  0  0
 45 46  1  0  0  0  0
 48 49  1  0  0  0  0
 48 47  1  0  0  0  0
 49 50  1  0  0  0  0
 51 52  1  0  0  0  0
 51 49  2  0  0  0  0
 53 51  1  0  0  0  0
 54 53  1  0  0  0  0
 55 57  1  0  0  0  0
 55 53  2  0  0  0  0
 56 55  1  0  0  0  0
 57 48  2  0  0  0  0
 58 43  1  0  0  0  0
 58 57  1  0  0  0  0
 59 58  1  0  0  0  0
M  END
>  <minimizedAffinity>
-4.64909601

>  <minimizedRMSD>
0.0570832267

$$$$
