
 OpenBabel03252506133D

 49 53  0  0  0  0  0  0  0  0999 V2000
   48.0520   34.6630   37.1720 O   0  0  0  0  0  0  0  0  0  0  0  0
   47.1930   33.4350   37.3480 P   0  0  2  0  0  0  0  0  0  0  0  0
   45.8240   33.5140   36.3330 O   0  0  0  0  0  0  0  0  0  0  0  0
   45.8740   34.3430   35.8320 H   0  0  0  0  0  0  0  0  0  0  0  0
   46.6590   33.2530   38.9350 O   0  0  0  0  0  0  0  0  0  0  0  0
   45.1370   33.4160   41.3000 F   0  0  0  0  0  0  0  0  0  0  0  0
   46.3030   34.0300   41.1730 C   0  0  0  0  0  0  0  0  0  0  0  0
   46.7900   34.7730   42.2320 C   0  0  0  0  0  0  0  0  0  0  0  0
   48.0120   35.4530   42.1900 C   0  0  0  0  0  0  0  0  0  0  0  0
   48.7850   35.3870   41.0300 C   0  0  0  0  0  0  0  0  0  0  0  0
   48.2700   34.6370   39.9960 C   0  0  0  0  0  0  0  0  0  0  0  0
   47.0850   33.9720   40.0230 C   0  0  0  0  0  0  0  0  0  0  0  0
   48.3280   36.0200   43.0700 H   0  0  0  0  0  0  0  0  0  0  0  0
   49.7190   35.9260   41.0430 H   0  0  0  0  0  0  0  0  0  0  0  0
   48.9650   34.6600   39.1650 H   0  0  0  0  0  0  0  0  0  0  0  0
   45.4300   33.9680   45.5430 C   0  0  0  0  0  0  0  0  0  0  0  0
   44.5850   35.0660   45.7870 C   0  0  0  0  0  0  0  0  0  0  0  0
   44.4830   36.0930   44.8030 C   0  0  0  0  0  0  0  0  0  0  0  0
   45.2310   35.9290   43.6690 N   0  0  0  0  0  0  0  0  0  0  0  0
   46.0200   34.8720   43.4770 C   0  0  0  0  0  0  0  0  0  0  0  0
   46.1160   33.9040   44.4040 N   0  0  0  0  0  0  0  0  0  0  0  0
   44.0110   35.1750   46.6760 H   0  0  0  0  0  0  0  0  0  0  0  0
   43.8430   36.9490   44.9610 H   0  0  0  0  0  0  0  0  0  0  0  0
   45.5180   32.9570   46.5320 N   0  0  0  0  0  0  0  0  0  0  0  0
   45.2090   31.9510   46.5190 H   0  0  0  0  0  0  0  0  0  0  0  0
   45.9370   33.0910   47.4820 H   0  0  0  0  0  0  0  0  0  0  0  0
   48.0610   32.0900   36.7910 O   0  0  0  0  0  0  0  0  0  0  0  0
   47.3460   31.0330   36.2410 C   0  0  0  0  0  0  0  0  0  0  0  0
   46.6990   30.1770   37.1100 C   0  0  0  0  0  0  0  0  0  0  0  0
   46.7580   30.3380   38.1820 H   0  0  0  0  0  0  0  0  0  0  0  0
   45.9810   29.1180   36.5820 C   0  0  0  0  0  0  0  0  0  0  0  0
   45.4950   28.4800   37.3370 H   0  0  0  0  0  0  0  0  0  0  0  0
   45.8630   28.8520   35.2330 C   0  0  0  0  0  0  0  0  0  0  0  0
   46.5090   29.7110   34.4120 C   0  0  0  0  0  0  0  0  0  0  0  0
   47.2170   30.7530   34.8910 C   0  0  0  0  0  0  0  0  0  0  0  0
   47.7390   31.4440   34.2090 H   0  0  0  0  0  0  0  0  0  0  0  0
   46.4080   29.4390   32.6530 S   0  0  0  0  0  0  0  0  0  0  0  0
   45.3950   27.9850   32.4510 C   0  0  0  0  0  0  0  0  0  0  0  0
   45.1690   27.5700   31.1620 C   0  0  0  0  0  0  0  0  0  0  0  0
   45.5840   28.0970   30.3090 H   0  0  0  0  0  0  0  0  0  0  0  0
   44.4010   26.4590   30.9090 C   0  0  0  0  0  0  0  0  0  0  0  0
   44.2170   26.1240   29.9110 H   0  0  0  0  0  0  0  0  0  0  0  0
   43.8760   25.7890   31.9840 C   0  0  0  0  0  0  0  0  0  0  0  0
   43.2730   24.9170   31.7800 H   0  0  0  0  0  0  0  0  0  0  0  0
   44.1350   26.2500   33.2450 C   0  0  0  0  0  0  0  0  0  0  0  0
   43.6710   25.6470   34.0320 H   0  0  0  0  0  0  0  0  0  0  0  0
   44.8960   27.3560   33.5600 C   0  0  0  0  0  0  0  0  0  0  0  0
   45.0980   27.7380   34.8840 N   0  0  0  0  0  0  0  0  0  0  0  0
   44.6420   27.1430   35.6090 H   0  0  0  0  0  0  0  0  0  0  0  0
  2  1  2  6  0  0  0
  2  5  1  0  0  0  0
  3  2  1  0  0  0  0
  4  3  1  0  0  0  0
  5 12  1  0  0  0  0
  7  6  1  0  0  0  0
  7  8  1  0  0  0  0
  8 20  1  0  0  0  0
  9  8  2  0  0  0  0
  9 13  1  0  0  0  0
 10 14  1  0  0  0  0
 10  9  1  0  0  0  0
 11 12  1  0  0  0  0
 11 10  2  0  0  0  0
 12  7  2  0  0  0  0
 15 11  1  0  0  0  0
 16 17  1  0  0  0  0
 16 24  1  0  0  0  0
 17 22  1  0  0  0  0
 18 23  1  0  0  0  0
 18 17  2  0  0  0  0
 19 18  1  0  0  0  0
 20 19  2  0  0  0  0
 20 21  1  0  0  0  0
 21 16  2  0  0  0  0
 24 26  1  0  0  0  0
 25 24  1  0  0  0  0
 27  2  1  0  0  0  0
 28 27  1  0  0  0  0
 28 29  1  0  0  0  0
 29 30  1  0  0  0  0
 31 29  2  0  0  0  0
 31 32  1  0  0  0  0
 33 31  1  0  0  0  0
 34 35  1  0  0  0  0
 34 33  2  0  0  0  0
 35 28  2  0  0  0  0
 36 35  1  0  0  0  0
 37 34  1  0  0  0  0
 38 37  1  0  0  0  0
 38 47  1  0  0  0  0
 39 38  2  0  0  0  0
 40 39  1  0  0  0  0
 41 39  1  0  0  0  0
 41 43  2  0  0  0  0
 42 41  1  0  0  0  0
 43 45  1  0  0  0  0
 44 43  1  0  0  0  0
 45 47  2  0  0  0  0
 45 46  1  0  0  0  0
 47 48  1  0  0  0  0
 48 33  1  0  0  0  0
 48 49  1  0  0  0  0
M  END
>  <minimizedAffinity>
-6.89561367

>  <minimizedRMSD>
2.41232324

$$$$
