
 OpenBabel03252502563D

 50 54  0  0  0  0  0  0  0  0999 V2000
   44.0740   26.0230   47.1290 O   0  0  0  0  0  0  0  0  0  0  0  0
   44.8770   27.0830   47.8690 P   0  0  2  0  0  0  0  0  0  0  0  0
   44.5350   27.0010   49.5120 O   0  0  0  0  0  0  0  0  0  0  0  0
   45.3420   27.0220   50.0910 H   0  0  0  0  0  0  0  0  0  0  0  0
   44.3440   28.6080   47.3200 O   0  0  0  0  0  0  0  0  0  0  0  0
   45.5570   29.8700   44.7710 Br  0  0  0  0  0  0  0  0  0  0  0  0
   45.6520   30.5170   46.5950 C   0  0  0  0  0  0  0  0  0  0  0  0
   46.3430   31.6810   46.7830 C   0  0  0  0  0  0  0  0  0  0  0  0
   46.3900   32.1150   48.1090 C   0  0  0  0  0  0  0  0  0  0  0  0
   45.7930   31.4350   49.1520 C   0  0  0  0  0  0  0  0  0  0  0  0
   45.1170   30.2730   48.8780 C   0  0  0  0  0  0  0  0  0  0  0  0
   45.0350   29.7920   47.5870 C   0  0  0  0  0  0  0  0  0  0  0  0
   46.9210   33.0290   48.3370 H   0  0  0  0  0  0  0  0  0  0  0  0
   45.8750   31.8390   50.1550 H   0  0  0  0  0  0  0  0  0  0  0  0
   44.6530   29.7470   49.6980 H   0  0  0  0  0  0  0  0  0  0  0  0
   47.0160   32.4880   45.7610 C   0  0  0  0  0  0  0  0  0  0  0  0
   48.0080   32.8740   46.0930 H   0  0  0  0  0  0  0  0  0  0  0  0
   47.2290   31.8030   44.8950 H   0  0  0  0  0  0  0  0  0  0  0  0
   44.5430   35.2700   45.4940 C   0  0  0  0  0  0  0  0  0  0  0  0
   44.7530   35.7070   44.1850 C   0  0  0  0  0  0  0  0  0  0  0  0
   45.7150   35.0590   43.4270 C   0  0  0  0  0  0  0  0  0  0  0  0
   46.4210   34.0320   43.9660 N   0  0  0  0  0  0  0  0  0  0  0  0
   46.1960   33.6220   45.2540 C   0  0  0  0  0  0  0  0  0  0  0  0
   45.2530   34.2620   45.9850 N   0  0  0  0  0  0  0  0  0  0  0  0
   43.8350   35.6770   46.1910 H   0  0  0  0  0  0  0  0  0  0  0  0
   44.1360   36.5340   43.8550 H   0  0  0  0  0  0  0  0  0  0  0  0
   45.8630   35.4110   42.4170 H   0  0  0  0  0  0  0  0  0  0  0  0
   46.5080   26.8250   47.5680 O   0  0  0  0  0  0  0  0  0  0  0  0
   47.2110   25.6500   47.7430 C   0  0  0  0  0  0  0  0  0  0  0  0
   47.1470   24.6570   46.7880 C   0  0  0  0  0  0  0  0  0  0  0  0
   46.5390   24.8380   45.9240 H   0  0  0  0  0  0  0  0  0  0  0  0
   47.8620   23.4940   46.9940 C   0  0  0  0  0  0  0  0  0  0  0  0
   47.7470   22.7790   46.1900 H   0  0  0  0  0  0  0  0  0  0  0  0
   48.6510   23.2310   48.0920 C   0  0  0  0  0  0  0  0  0  0  0  0
   48.6660   24.2630   48.9980 C   0  0  0  0  0  0  0  0  0  0  0  0
   47.9910   25.4190   48.8540 C   0  0  0  0  0  0  0  0  0  0  0  0
   48.0130   26.2310   49.5820 H   0  0  0  0  0  0  0  0  0  0  0  0
   49.6360   24.1030   50.4860 S   0  0  0  0  0  0  0  0  0  0  0  0
   50.3960   22.4970   50.3890 C   0  0  0  0  0  0  0  0  0  0  0  0
   51.2200   22.0280   51.3690 C   0  0  0  0  0  0  0  0  0  0  0  0
   51.4180   22.6640   52.2460 H   0  0  0  0  0  0  0  0  0  0  0  0
   51.8620   20.7890   51.3900 C   0  0  0  0  0  0  0  0  0  0  0  0
   52.4910   20.5020   52.1980 H   0  0  0  0  0  0  0  0  0  0  0  0
   51.6020   20.0030   50.2830 C   0  0  0  0  0  0  0  0  0  0  0  0
   52.0730   19.0240   50.2370 H   0  0  0  0  0  0  0  0  0  0  0  0
   50.7690   20.4600   49.2750 C   0  0  0  0  0  0  0  0  0  0  0  0
   50.6220   19.7630   48.4340 H   0  0  0  0  0  0  0  0  0  0  0  0
   50.1560   21.6940   49.3040 C   0  0  0  0  0  0  0  0  0  0  0  0
   49.3480   22.0050   48.2130 N   0  0  0  0  0  0  0  0  0  0  0  0
   49.2120   21.3420   47.4200 H   0  0  0  0  0  0  0  0  0  0  0  0
  2  1  2  6  0  0  0
  2  3  1  0  0  0  0
  3  4  1  0  0  0  0
  5 12  1  0  0  0  0
  5  2  1  0  0  0  0
  6  7  1  0  0  0  0
  7  8  2  0  0  0  0
  7 12  1  0  0  0  0
  8  9  1  0  0  0  0
  9 13  1  0  0  0  0
  9 10  2  0  0  0  0
 10 14  1  0  0  0  0
 11 10  1  0  0  0  0
 11 15  1  0  0  0  0
 12 11  2  0  0  0  0
 16 17  1  0  0  0  0
 16  8  1  0  0  0  0
 18 16  1  0  0  0  0
 19 24  1  0  0  0  0
 19 25  1  0  0  0  0
 20 19  2  0  0  0  0
 21 22  2  0  0  0  0
 21 20  1  0  0  0  0
 22 23  1  0  0  0  0
 23 16  1  0  0  0  0
 23 24  2  0  0  0  0
 26 20  1  0  0  0  0
 27 21  1  0  0  0  0
 28 29  1  0  0  0  0
 28  2  1  0  0  0  0
 29 36  1  0  0  0  0
 30 32  1  0  0  0  0
 30 29  2  0  0  0  0
 31 30  1  0  0  0  0
 32 34  2  0  0  0  0
 33 32  1  0  0  0  0
 34 49  1  0  0  0  0
 34 35  1  0  0  0  0
 35 38  1  0  0  0  0
 36 35  2  0  0  0  0
 36 37  1  0  0  0  0
 39 38  1  0  0  0  0
 39 40  1  0  0  0  0
 40 42  2  0  0  0  0
 40 41  1  0  0  0  0
 42 43  1  0  0  0  0
 44 42  1  0  0  0  0
 45 44  1  0  0  0  0
 46 48  1  0  0  0  0
 46 44  2  0  0  0  0
 47 46  1  0  0  0  0
 48 39  2  0  0  0  0
 49 48  1  0  0  0  0
 50 49  1  0  0  0  0
M  END
>  <minimizedAffinity>
-6.04626799

>  <minimizedRMSD>
2.65957832

$$$$
