
 OpenBabel03252505473D

 42 46  0  0  1  0  0  0  0  0999 V2000
   47.7070   30.9220   47.6180 C   0  0  0  0  0  0  0  0  0  0  0  0
   47.8630   29.5650   47.7510 C   0  0  0  0  0  0  0  0  0  0  0  0
   47.2240   28.9830   47.1150 H   0  0  0  0  0  0  0  0  0  0  0  0
   48.7530   28.9760   48.6160 C   0  0  0  0  0  0  0  0  0  0  0  0
   48.7470   27.8780   48.5940 H   0  0  0  0  0  0  0  0  0  0  0  0
   49.5690   29.7340   49.4280 C   0  0  0  0  0  0  0  0  0  0  0  0
   49.4770   31.0950   49.3580 C   0  0  0  0  0  0  0  0  0  0  0  0
   48.5770   31.6270   48.4810 C   0  0  0  0  0  0  0  0  0  0  0  0
   48.6110   32.7240   48.5300 H   0  0  0  0  0  0  0  0  0  0  0  0
   50.5370   32.0670   50.4120 S   0  0  0  0  0  0  0  0  0  0  0  0
   51.5120   30.9080   51.3510 C   0  0  0  0  0  0  0  0  0  0  0  0
   52.3880   31.4680   52.2190 C   0  0  0  0  0  0  0  0  0  0  0  0
   52.5180   32.5260   52.3630 H   0  0  0  0  0  0  0  0  0  0  0  0
   53.1900   30.6470   52.9960 C   0  0  0  0  0  0  0  0  0  0  0  0
   53.8960   31.0550   53.6950 H   0  0  0  0  0  0  0  0  0  0  0  0
   53.0600   29.2950   52.8470 C   0  0  0  0  0  0  0  0  0  0  0  0
   53.6800   28.6450   53.4480 H   0  0  0  0  0  0  0  0  0  0  0  0
   52.1520   28.8070   51.9490 C   0  0  0  0  0  0  0  0  0  0  0  0
   52.1110   27.7070   51.8940 H   0  0  0  0  0  0  0  0  0  0  0  0
   51.3230   29.5630   51.1470 C   0  0  0  0  0  0  0  0  0  0  0  0
   50.4120   28.9740   50.2440 N   0  0  0  0  0  0  0  0  0  0  0  0
   50.4340   27.9320   50.2510 H   0  0  0  0  0  0  0  0  0  0  0  0
   46.9650   31.7920   46.9020 O   0  0  0  0  0  0  0  0  0  0  0  0
   46.2340   32.8430   43.5500 C   0  0  0  0  0  0  0  0  0  0  0  0
   47.0900   31.9620   42.8400 C   0  0  0  0  0  0  0  0  0  0  0  0
   47.8870   31.0380   43.5100 C   0  0  0  0  0  0  0  0  0  0  0  0
   47.7930   31.0380   44.8630 N   0  0  0  0  0  0  0  0  0  0  0  0
   46.9600   31.8990   45.5350 C   0  0  0  0  0  0  0  0  0  0  0  0
   46.1990   32.7800   44.8850 N   0  0  0  0  0  0  0  0  0  0  0  0
   47.0970   32.0370   41.7570 H   0  0  0  0  0  0  0  0  0  0  0  0
   48.5270   30.3780   42.9810 H   0  0  0  0  0  0  0  0  0  0  0  0
   45.4240   33.8070   42.7840 C   0  0  1  0  0  0  0  0  0  0  0  0
   45.9760   35.2690   42.9570 C   0  0  1  0  0  0  0  0  0  0  0  0
   45.8610   34.5210   41.6470 C   0  0  0  0  0  0  0  0  0  0  0  0
   44.3360   33.7260   43.0410 H   0  0  0  0  0  0  0  0  0  0  0  0
   46.9580   35.3930   43.4040 H   0  0  0  0  0  0  0  0  0  0  0  0
   45.0940   34.8750   40.9070 H   0  0  0  0  0  0  0  0  0  0  0  0
   46.8400   34.3740   41.1330 H   0  0  0  0  0  0  0  0  0  0  0  0
   44.8950   36.3040   43.1640 C   0  0  0  0  0  0  0  0  0  0  0  0
   45.3710   37.5800   43.2430 F   0  0  0  0  0  0  0  0  0  0  0  0
   44.0060   36.2430   42.0690 F   0  0  0  0  0  0  0  0  0  0  0  0
   44.1120   35.9910   44.2640 F   0  0  0  0  0  0  0  0  0  0  0  0
  1  2  2  0  0  0  0
  1  8  1  0  0  0  0
  2  4  1  0  0  0  0
  3  2  1  0  0  0  0
  4  6  2  0  0  0  0
  5  4  1  0  0  0  0
  6 21  1  0  0  0  0
  7  6  1  0  0  0  0
  7 10  1  0  0  0  0
  8  9  1  0  0  0  0
  8  7  2  0  0  0  0
 10 11  1  0  0  0  0
 11 12  1  0  0  0  0
 12 13  1  0  0  0  0
 12 14  2  0  0  0  0
 14 15  1  0  0  0  0
 16 14  1  0  0  0  0
 16 17  1  0  0  0  0
 18 16  2  0  0  0  0
 19 18  1  0  0  0  0
 20 11  2  0  0  0  0
 20 18  1  0  0  0  0
 21 22  1  0  0  0  0
 21 20  1  0  0  0  0
 23  1  1  0  0  0  0
 24 29  1  0  0  0  0
 25 26  1  0  0  0  0
 25 24  2  0  0  0  0
 26 27  2  0  0  0  0
 27 28  1  0  0  0  0
 28 23  1  0  0  0  0
 29 28  2  0  0  0  0
 30 25  1  0  0  0  0
 31 26  1  0  0  0  0
 32 33  1  0  0  0  0
 32 35  1  1  0  0  0
 32 24  1  0  0  0  0
 33 39  1  0  0  0  0
 33 36  1  1  0  0  0
 34 32  1  0  0  0  0
 34 33  1  0  0  0  0
 37 34  1  0  0  0  0
 38 34  1  0  0  0  0
 39 40  1  0  0  0  0
 39 42  1  0  0  0  0
 41 39  1  0  0  0  0
M  END
>  <minimizedAffinity>
-5.83787012

>  <minimizedRMSD>
1.78503501

$$$$
