
 OpenBabel03252502563D

 50 54  0  0  0  0  0  0  0  0999 V2000
   43.9360   26.1980   47.2770 O   0  0  0  0  0  0  0  0  0  0  0  0
   44.8380   27.2450   47.9110 P   0  0  2  0  0  0  0  0  0  0  0  0
   44.5670   27.2890   49.5700 O   0  0  0  0  0  0  0  0  0  0  0  0
   45.4000   27.2920   50.1120 H   0  0  0  0  0  0  0  0  0  0  0  0
   44.3820   28.7650   47.2860 O   0  0  0  0  0  0  0  0  0  0  0  0
   45.3970   29.9800   44.6310 Br  0  0  0  0  0  0  0  0  0  0  0  0
   45.6860   30.6240   46.4350 C   0  0  0  0  0  0  0  0  0  0  0  0
   46.4350   31.7610   46.5530 C   0  0  0  0  0  0  0  0  0  0  0  0
   46.6220   32.1930   47.8680 C   0  0  0  0  0  0  0  0  0  0  0  0
   46.1010   31.5370   48.9650 C   0  0  0  0  0  0  0  0  0  0  0  0
   45.3590   30.4000   48.7590 C   0  0  0  0  0  0  0  0  0  0  0  0
   45.1390   29.9230   47.4830 C   0  0  0  0  0  0  0  0  0  0  0  0
   47.2060   33.0870   48.0410 H   0  0  0  0  0  0  0  0  0  0  0  0
   46.2910   31.9370   49.9540 H   0  0  0  0  0  0  0  0  0  0  0  0
   44.9540   29.8920   49.6210 H   0  0  0  0  0  0  0  0  0  0  0  0
   47.0390   32.5420   45.4700 C   0  0  0  0  0  0  0  0  0  0  0  0
   48.0680   32.8980   45.7100 H   0  0  0  0  0  0  0  0  0  0  0  0
   47.1530   31.8480   44.5940 H   0  0  0  0  0  0  0  0  0  0  0  0
   44.5660   35.3350   45.3740 C   0  0  0  0  0  0  0  0  0  0  0  0
   44.7560   35.8340   44.0840 C   0  0  0  0  0  0  0  0  0  0  0  0
   45.7060   35.2230   43.2820 C   0  0  0  0  0  0  0  0  0  0  0  0
   46.4190   34.1710   43.7610 N   0  0  0  0  0  0  0  0  0  0  0  0
   46.2130   33.7000   45.0310 C   0  0  0  0  0  0  0  0  0  0  0  0
   45.2820   34.3050   45.8060 N   0  0  0  0  0  0  0  0  0  0  0  0
   43.8690   35.7090   46.1010 H   0  0  0  0  0  0  0  0  0  0  0  0
   44.1360   36.6760   43.8040 H   0  0  0  0  0  0  0  0  0  0  0  0
   45.8390   35.6220   42.2880 H   0  0  0  0  0  0  0  0  0  0  0  0
   46.4340   26.8590   47.5610 O   0  0  0  0  0  0  0  0  0  0  0  0
   47.0950   27.0540   46.3650 C   0  0  0  0  0  0  0  0  0  0  0  0
   46.6720   26.4010   45.2260 C   0  0  0  0  0  0  0  0  0  0  0  0
   45.8240   25.7490   45.3140 H   0  0  0  0  0  0  0  0  0  0  0  0
   47.3550   26.6180   44.0460 C   0  0  0  0  0  0  0  0  0  0  0  0
   46.9460   26.0620   43.2120 H   0  0  0  0  0  0  0  0  0  0  0  0
   48.4450   27.4480   43.9010 C   0  0  0  0  0  0  0  0  0  0  0  0
   48.8080   28.0630   45.0750 C   0  0  0  0  0  0  0  0  0  0  0  0
   48.1830   27.8920   46.2530 C   0  0  0  0  0  0  0  0  0  0  0  0
   48.4820   28.3870   47.1780 H   0  0  0  0  0  0  0  0  0  0  0  0
   50.2000   29.1760   45.0810 S   0  0  0  0  0  0  0  0  0  0  0  0
   50.8030   29.1940   43.4070 C   0  0  0  0  0  0  0  0  0  0  0  0
   51.8780   29.9470   43.0340 C   0  0  0  0  0  0  0  0  0  0  0  0
   52.3850   30.5620   43.7940 H   0  0  0  0  0  0  0  0  0  0  0  0
   52.4270   30.0300   41.7540 C   0  0  0  0  0  0  0  0  0  0  0  0
   53.2710   30.6470   41.5500 H   0  0  0  0  0  0  0  0  0  0  0  0
   51.7810   29.2530   40.8120 C   0  0  0  0  0  0  0  0  0  0  0  0
   52.1600   29.2740   39.7940 H   0  0  0  0  0  0  0  0  0  0  0  0
   50.6880   28.4800   41.1680 C   0  0  0  0  0  0  0  0  0  0  0  0
   50.2390   27.8950   40.3510 H   0  0  0  0  0  0  0  0  0  0  0  0
   50.1830   28.4330   42.4500 C   0  0  0  0  0  0  0  0  0  0  0  0
   49.0790   27.6070   42.6450 N   0  0  0  0  0  0  0  0  0  0  0  0
   48.6580   27.0550   41.8690 H   0  0  0  0  0  0  0  0  0  0  0  0
  2  1  2  6  0  0  0
  2  3  1  0  0  0  0
  3  4  1  0  0  0  0
  5 12  1  0  0  0  0
  5  2  1  0  0  0  0
  6  7  1  0  0  0  0
  7  8  2  0  0  0  0
  7 12  1  0  0  0  0
  8  9  1  0  0  0  0
  9 13  1  0  0  0  0
  9 10  2  0  0  0  0
 10 14  1  0  0  0  0
 11 10  1  0  0  0  0
 11 15  1  0  0  0  0
 12 11  2  0  0  0  0
 16 17  1  0  0  0  0
 16  8  1  0  0  0  0
 18 16  1  0  0  0  0
 19 24  1  0  0  0  0
 19 25  1  0  0  0  0
 20 19  2  0  0  0  0
 21 22  2  0  0  0  0
 21 20  1  0  0  0  0
 22 23  1  0  0  0  0
 23 16  1  0  0  0  0
 23 24  2  0  0  0  0
 26 20  1  0  0  0  0
 27 21  1  0  0  0  0
 28  2  1  0  0  0  0
 29 28  1  0  0  0  0
 30 31  1  0  0  0  0
 30 29  2  0  0  0  0
 32 30  1  0  0  0  0
 33 32  1  0  0  0  0
 34 32  2  0  0  0  0
 34 35  1  0  0  0  0
 35 38  1  0  0  0  0
 35 36  2  0  0  0  0
 36 29  1  0  0  0  0
 36 37  1  0  0  0  0
 39 38  1  0  0  0  0
 40 39  1  0  0  0  0
 40 41  1  0  0  0  0
 42 40  2  0  0  0  0
 43 42  1  0  0  0  0
 44 46  2  0  0  0  0
 44 42  1  0  0  0  0
 45 44  1  0  0  0  0
 46 48  1  0  0  0  0
 47 46  1  0  0  0  0
 48 49  1  0  0  0  0
 48 39  2  0  0  0  0
 49 34  1  0  0  0  0
 50 49  1  0  0  0  0
M  END
>  <minimizedAffinity>
-5.22030067

>  <minimizedRMSD>
3.22188354

$$$$
