REMARK  Name = 
REMARK  2 active torsions:
REMARK  status: ('A' for Active; 'I' for Inactive)
REMARK    1  A    between atoms: C_2  and  S_7
REMARK    2  A    between atoms: S_7  and  C_11
REMARK                            x       y       z     vdW  Elec       q    Type
REMARK                         _______ _______ _______ _____ _____    ______ ____
ROOT
ATOM      1  C   UNL     1      42.120  34.869  41.413  0.00  0.00    +0.000 A 
ATOM      2  C   UNL     1      41.103  35.684  40.961  0.00  0.00    +0.000 A 
ATOM      3  H   UNL     1      41.311  36.703  40.669  0.00  0.00    +0.000 HD
ATOM      4  C   UNL     1      39.831  35.154  40.896  0.00  0.00    +0.000 A 
ATOM      5  H   UNL     1      39.074  35.846  40.532  0.00  0.00    +0.000 HD
ATOM      6  C   UNL     1      39.477  33.868  41.246  0.00  0.00    +0.000 A 
ATOM      7  C   UNL     1      40.527  33.101  41.688  0.00  0.00    +0.000 A 
ATOM      8  C   UNL     1      41.807  33.578  41.771  0.00  0.00    +0.000 A 
ATOM      9  H   UNL     1      42.622  32.956  42.124  0.00  0.00    +0.000 HD
ATOM     10  S   UNL     1      40.220  31.420  42.175  0.00  0.00    +0.000 S 
ATOM     11  C   UNL     1      38.475  31.147  41.940  0.00  0.00    +0.000 A 
ATOM     12  C   UNL     1      37.943  29.940  42.231  0.00  0.00    +0.000 A 
ATOM     13  H   UNL     1      38.585  29.133  42.611  0.00  0.00    +0.000 HD
ATOM     14  C   UNL     1      36.590  29.654  42.072  0.00  0.00    +0.000 A 
ATOM     15  H   UNL     1      36.186  28.691  42.309  0.00  0.00    +0.000 HD
ATOM     16  C   UNL     1      35.807  30.682  41.595  0.00  0.00    +0.000 A 
ATOM     17  H   UNL     1      34.752  30.480  41.465  0.00  0.00    +0.000 HD
ATOM     18  C   UNL     1      36.378  31.889  41.311  0.00  0.00    +0.000 A 
ATOM     19  H   UNL     1      35.678  32.643  40.938  0.00  0.00    +0.000 HD
ATOM     20  C   UNL     1      37.716  32.188  41.462  0.00  0.00    +0.000 A 
ATOM     21  N   UNL     1      38.148  33.481  41.125  0.00  0.00    +0.000 N 
ATOM     22  H   UNL     1      37.451  34.170  40.773  0.00  0.00    +0.000 HD
ENDROOT
BRANCH   1  23
ATOM     23  S   UNL     1      43.803  35.456  41.535  0.00  0.00    +0.000 S 
BRANCH  23  25
ATOM     24  C   UNL     1      44.266  35.735  44.260  0.00  0.00    +0.000 A 
ATOM     25  C   UNL     1      44.425  34.907  43.123  0.00  0.00    +0.000 A 
ATOM     26  C   UNL     1      45.064  33.685  43.283  0.00  0.00    +0.000 A 
ATOM     27  N   UNL     1      45.512  33.329  44.519  0.00  0.00    +0.000 NA
ATOM     28  C   UNL     1      45.340  34.151  45.584  0.00  0.00    +0.000 A 
ATOM     29  N   UNL     1      44.728  35.336  45.466  0.00  0.00    +0.000 NA
ATOM     30  H   UNL     1      43.773  36.673  44.129  0.00  0.00    +0.000 HD
ATOM     31  H   UNL     1      45.197  33.041  42.440  0.00  0.00    +0.000 HD
ATOM     32  H   UNL     1      45.745  33.738  46.499  0.00  0.00    +0.000 HD
ENDBRANCH  23  25
ENDBRANCH   1  23
TORSDOF 2
