
 OpenBabel03252506133D

 49 53  0  0  0  0  0  0  0  0999 V2000
   48.1320   34.6390   37.0750 O   0  0  0  0  0  0  0  0  0  0  0  0
   47.2700   33.4140   37.2600 P   0  0  2  0  0  0  0  0  0  0  0  0
   45.9240   33.4680   36.2120 O   0  0  0  0  0  0  0  0  0  0  0  0
   45.9860   34.2860   35.6940 H   0  0  0  0  0  0  0  0  0  0  0  0
   46.7000   33.2680   38.8380 O   0  0  0  0  0  0  0  0  0  0  0  0
   45.1660   33.4560   41.1930 F   0  0  0  0  0  0  0  0  0  0  0  0
   46.3380   34.0570   41.0710 C   0  0  0  0  0  0  0  0  0  0  0  0
   46.8270   34.7990   42.1300 C   0  0  0  0  0  0  0  0  0  0  0  0
   48.0560   35.4670   42.0930 C   0  0  0  0  0  0  0  0  0  0  0  0
   48.8360   35.3880   40.9380 C   0  0  0  0  0  0  0  0  0  0  0  0
   48.3190   34.6390   39.9040 C   0  0  0  0  0  0  0  0  0  0  0  0
   47.1260   33.9860   39.9260 C   0  0  0  0  0  0  0  0  0  0  0  0
   48.3720   36.0330   42.9730 H   0  0  0  0  0  0  0  0  0  0  0  0
   49.7750   35.9170   40.9540 H   0  0  0  0  0  0  0  0  0  0  0  0
   49.0190   34.6520   39.0770 H   0  0  0  0  0  0  0  0  0  0  0  0
   45.4450   34.0250   45.4400 C   0  0  0  0  0  0  0  0  0  0  0  0
   44.6040   35.1290   45.6710 C   0  0  0  0  0  0  0  0  0  0  0  0
   44.5120   36.1490   44.6790 C   0  0  0  0  0  0  0  0  0  0  0  0
   45.2650   35.9730   43.5500 N   0  0  0  0  0  0  0  0  0  0  0  0
   46.0510   34.9110   43.3700 C   0  0  0  0  0  0  0  0  0  0  0  0
   46.1380   33.9500   44.3050 N   0  0  0  0  0  0  0  0  0  0  0  0
   44.0260   35.2470   46.5560 H   0  0  0  0  0  0  0  0  0  0  0  0
   43.8750   37.0080   44.8260 H   0  0  0  0  0  0  0  0  0  0  0  0
   45.5230   33.0210   46.4370 N   0  0  0  0  0  0  0  0  0  0  0  0
   45.2090   32.0160   46.4290 H   0  0  0  0  0  0  0  0  0  0  0  0
   45.9380   33.1600   47.3880 H   0  0  0  0  0  0  0  0  0  0  0  0
   48.1510   32.0580   36.7530 O   0  0  0  0  0  0  0  0  0  0  0  0
   47.5100   31.1270   35.9450 C   0  0  0  0  0  0  0  0  0  0  0  0
   46.6040   30.2740   36.5450 C   0  0  0  0  0  0  0  0  0  0  0  0
   46.4130   30.3420   37.6110 H   0  0  0  0  0  0  0  0  0  0  0  0
   45.9560   29.3390   35.7570 C   0  0  0  0  0  0  0  0  0  0  0  0
   45.2500   28.6960   36.3070 H   0  0  0  0  0  0  0  0  0  0  0  0
   46.1500   29.1960   34.3980 C   0  0  0  0  0  0  0  0  0  0  0  0
   47.0430   30.0480   33.8450 C   0  0  0  0  0  0  0  0  0  0  0  0
   47.6930   30.9710   34.5810 C   0  0  0  0  0  0  0  0  0  0  0  0
   48.4180   31.6580   34.1160 H   0  0  0  0  0  0  0  0  0  0  0  0
   47.3530   29.9300   32.0940 S   0  0  0  0  0  0  0  0  0  0  0  0
   46.3080   28.6070   31.5110 C   0  0  0  0  0  0  0  0  0  0  0  0
   46.3710   28.3210   30.1690 C   0  0  0  0  0  0  0  0  0  0  0  0
   47.0220   28.8720   29.4970 H   0  0  0  0  0  0  0  0  0  0  0  0
   45.6020   27.3180   29.6300 C   0  0  0  0  0  0  0  0  0  0  0  0
   45.6410   27.0860   28.5880 H   0  0  0  0  0  0  0  0  0  0  0  0
   44.7780   26.6230   30.4760 C   0  0  0  0  0  0  0  0  0  0  0  0
   44.1760   25.8350   30.0480 H   0  0  0  0  0  0  0  0  0  0  0  0
   44.7590   26.9510   31.8030 C   0  0  0  0  0  0  0  0  0  0  0  0
   44.0700   26.3380   32.3920 H   0  0  0  0  0  0  0  0  0  0  0  0
   45.5050   27.9450   32.4010 C   0  0  0  0  0  0  0  0  0  0  0  0
   45.4070   28.1970   33.7670 N   0  0  0  0  0  0  0  0  0  0  0  0
   44.7430   27.5950   34.2980 H   0  0  0  0  0  0  0  0  0  0  0  0
  2  1  2  6  0  0  0
  2  5  1  0  0  0  0
  3  2  1  0  0  0  0
  4  3  1  0  0  0  0
  5 12  1  0  0  0  0
  7  6  1  0  0  0  0
  7  8  1  0  0  0  0
  8 20  1  0  0  0  0
  9  8  2  0  0  0  0
  9 13  1  0  0  0  0
 10 14  1  0  0  0  0
 10  9  1  0  0  0  0
 11 12  1  0  0  0  0
 11 10  2  0  0  0  0
 12  7  2  0  0  0  0
 15 11  1  0  0  0  0
 16 17  1  0  0  0  0
 16 24  1  0  0  0  0
 17 22  1  0  0  0  0
 18 23  1  0  0  0  0
 18 17  2  0  0  0  0
 19 18  1  0  0  0  0
 20 19  2  0  0  0  0
 20 21  1  0  0  0  0
 21 16  2  0  0  0  0
 24 26  1  0  0  0  0
 25 24  1  0  0  0  0
 27  2  1  0  0  0  0
 28 29  1  0  0  0  0
 28 27  1  0  0  0  0
 29 30  1  0  0  0  0
 31 32  1  0  0  0  0
 31 29  2  0  0  0  0
 33 31  1  0  0  0  0
 34 33  2  0  0  0  0
 34 35  1  0  0  0  0
 35 28  2  0  0  0  0
 36 35  1  0  0  0  0
 37 34  1  0  0  0  0
 38 37  1  0  0  0  0
 38 47  1  0  0  0  0
 39 38  2  0  0  0  0
 40 39  1  0  0  0  0
 41 39  1  0  0  0  0
 41 43  2  0  0  0  0
 42 41  1  0  0  0  0
 43 45  1  0  0  0  0
 44 43  1  0  0  0  0
 45 46  1  0  0  0  0
 45 47  2  0  0  0  0
 47 48  1  0  0  0  0
 48 49  1  0  0  0  0
 48 33  1  0  0  0  0
M  END
>  <minimizedAffinity>
-7.47474909

>  <minimizedRMSD>
2.49205422

$$$$
