
 OpenBabel03252506133D

 49 53  0  0  0  0  0  0  0  0999 V2000
   48.0280   34.7050   37.0090 O   0  0  0  0  0  0  0  0  0  0  0  0
   47.2150   33.4470   37.1940 P   0  0  2  0  0  0  0  0  0  0  0  0
   45.7690   33.5340   36.2940 O   0  0  0  0  0  0  0  0  0  0  0  0
   45.7600   34.3850   35.8300 H   0  0  0  0  0  0  0  0  0  0  0  0
   46.8130   33.1810   38.8090 O   0  0  0  0  0  0  0  0  0  0  0  0
   45.2680   33.3600   41.1570 F   0  0  0  0  0  0  0  0  0  0  0  0
   46.4160   34.0030   41.0230 C   0  0  0  0  0  0  0  0  0  0  0  0
   46.8740   34.7870   42.0660 C   0  0  0  0  0  0  0  0  0  0  0  0
   48.0760   35.5010   42.0160 C   0  0  0  0  0  0  0  0  0  0  0  0
   48.8600   35.4270   40.8630 C   0  0  0  0  0  0  0  0  0  0  0  0
   48.3750   34.6370   39.8460 C   0  0  0  0  0  0  0  0  0  0  0  0
   47.2090   33.9380   39.8810 C   0  0  0  0  0  0  0  0  0  0  0  0
   48.3680   36.0980   42.8830 H   0  0  0  0  0  0  0  0  0  0  0  0
   49.7780   35.9930   40.8700 H   0  0  0  0  0  0  0  0  0  0  0  0
   49.0760   34.6590   39.0200 H   0  0  0  0  0  0  0  0  0  0  0  0
   45.4800   34.0070   45.3700 C   0  0  0  0  0  0  0  0  0  0  0  0
   44.6330   35.1070   45.5960 C   0  0  0  0  0  0  0  0  0  0  0  0
   44.5410   36.1260   44.6040 C   0  0  0  0  0  0  0  0  0  0  0  0
   45.3000   35.9540   43.4790 N   0  0  0  0  0  0  0  0  0  0  0  0
   46.0910   34.8950   43.3020 C   0  0  0  0  0  0  0  0  0  0  0  0
   46.1780   33.9340   44.2380 N   0  0  0  0  0  0  0  0  0  0  0  0
   44.0500   35.2220   46.4790 H   0  0  0  0  0  0  0  0  0  0  0  0
   43.8990   36.9830   44.7490 H   0  0  0  0  0  0  0  0  0  0  0  0
   45.5570   33.0030   46.3670 N   0  0  0  0  0  0  0  0  0  0  0  0
   45.2480   31.9970   46.3580 H   0  0  0  0  0  0  0  0  0  0  0  0
   45.9670   33.1440   47.3200 H   0  0  0  0  0  0  0  0  0  0  0  0
   48.0680   32.1520   36.5100 O   0  0  0  0  0  0  0  0  0  0  0  0
   47.3860   31.3050   35.6460 C   0  0  0  0  0  0  0  0  0  0  0  0
   47.5320   31.5200   34.2900 C   0  0  0  0  0  0  0  0  0  0  0  0
   48.1610   32.3270   33.9290 H   0  0  0  0  0  0  0  0  0  0  0  0
   46.8610   30.6860   33.4130 C   0  0  0  0  0  0  0  0  0  0  0  0
   47.0270   30.9200   32.3490 H   0  0  0  0  0  0  0  0  0  0  0  0
   46.0440   29.6420   33.8000 C   0  0  0  0  0  0  0  0  0  0  0  0
   45.9250   29.4610   35.1350 C   0  0  0  0  0  0  0  0  0  0  0  0
   46.5640   30.2540   36.0180 C   0  0  0  0  0  0  0  0  0  0  0  0
   46.4570   30.0940   37.1020 H   0  0  0  0  0  0  0  0  0  0  0  0
   44.8900   28.1330   35.7190 S   0  0  0  0  0  0  0  0  0  0  0  0
   44.2460   27.3470   34.2540 C   0  0  0  0  0  0  0  0  0  0  0  0
   43.4070   26.2780   34.4490 C   0  0  0  0  0  0  0  0  0  0  0  0
   43.1480   25.9260   35.4440 H   0  0  0  0  0  0  0  0  0  0  0  0
   42.8630   25.6090   33.3790 C   0  0  0  0  0  0  0  0  0  0  0  0
   42.2090   24.7760   33.5170 H   0  0  0  0  0  0  0  0  0  0  0  0
   43.1880   26.0490   32.1220 C   0  0  0  0  0  0  0  0  0  0  0  0
   42.7580   25.5210   31.2840 H   0  0  0  0  0  0  0  0  0  0  0  0
   44.0280   27.1190   31.9880 C   0  0  0  0  0  0  0  0  0  0  0  0
   44.2240   27.3910   30.9470 H   0  0  0  0  0  0  0  0  0  0  0  0
   44.6040   27.8280   33.0230 C   0  0  0  0  0  0  0  0  0  0  0  0
   45.4480   28.9070   32.7740 N   0  0  0  0  0  0  0  0  0  0  0  0
   45.6140   29.1380   31.7710 H   0  0  0  0  0  0  0  0  0  0  0  0
  2  1  2  6  0  0  0
  2  5  1  0  0  0  0
  3  2  1  0  0  0  0
  4  3  1  0  0  0  0
  5 12  1  0  0  0  0
  7  6  1  0  0  0  0
  7  8  1  0  0  0  0
  8 20  1  0  0  0  0
  9  8  2  0  0  0  0
  9 13  1  0  0  0  0
 10 14  1  0  0  0  0
 10  9  1  0  0  0  0
 11 12  1  0  0  0  0
 11 10  2  0  0  0  0
 12  7  2  0  0  0  0
 15 11  1  0  0  0  0
 16 17  1  0  0  0  0
 16 24  1  0  0  0  0
 17 22  1  0  0  0  0
 18 23  1  0  0  0  0
 18 17  2  0  0  0  0
 19 18  1  0  0  0  0
 20 19  2  0  0  0  0
 20 21  1  0  0  0  0
 21 16  2  0  0  0  0
 24 26  1  0  0  0  0
 25 24  1  0  0  0  0
 27  2  1  0  0  0  0
 28 35  1  0  0  0  0
 28 27  1  0  0  0  0
 29 28  2  0  0  0  0
 30 29  1  0  0  0  0
 31 33  2  0  0  0  0
 31 29  1  0  0  0  0
 32 31  1  0  0  0  0
 33 34  1  0  0  0  0
 34 37  1  0  0  0  0
 34 35  2  0  0  0  0
 35 36  1  0  0  0  0
 38 39  1  0  0  0  0
 38 37  1  0  0  0  0
 39 40  1  0  0  0  0
 41 42  1  0  0  0  0
 41 39  2  0  0  0  0
 43 41  1  0  0  0  0
 44 43  1  0  0  0  0
 45 43  2  0  0  0  0
 45 47  1  0  0  0  0
 46 45  1  0  0  0  0
 47 38  2  0  0  0  0
 48 47  1  0  0  0  0
 48 33  1  0  0  0  0
 49 48  1  0  0  0  0
M  END
>  <minimizedAffinity>
-7.01181173

>  <minimizedRMSD>
2.49361038

$$$$
