
 OpenBabel03252502243D

 47 51  0  0  1  0  0  0  0  0999 V2000
   47.5030   34.5190   42.5710 N   0  0  0  0  0  0  0  0  0  0  0  0
   48.8890   34.9450   42.6530 C   0  0  0  0  0  0  0  0  0  0  0  0
   49.0050   35.9890   41.5200 C   0  0  0  0  0  0  0  0  0  0  0  0
   48.8680   35.2750   40.2000 C   0  0  0  0  0  0  0  0  0  0  0  0
   47.7550   34.2990   40.1480 C   0  0  0  0  0  0  0  0  0  0  0  0
   46.8280   34.2850   41.3200 C   0  0  1  0  0  0  0  0  0  0  0  0
   49.5660   34.0960   42.4300 H   0  0  0  0  0  0  0  0  0  0  0  0
   49.0720   35.4200   43.6270 H   0  0  0  0  0  0  0  0  0  0  0  0
   49.9870   36.4670   41.5890 H   0  0  0  0  0  0  0  0  0  0  0  0
   48.1460   36.6820   41.6590 H   0  0  0  0  0  0  0  0  0  0  0  0
   49.8330   34.7350   40.0330 H   0  0  0  0  0  0  0  0  0  0  0  0
   48.8320   36.0390   39.3920 H   0  0  0  0  0  0  0  0  0  0  0  0
   48.1160   33.2570   39.9510 H   0  0  0  0  0  0  0  0  0  0  0  0
   47.1310   34.5410   39.2560 H   0  0  0  0  0  0  0  0  0  0  0  0
   46.0560   35.0720   41.2320 H   0  0  0  0  0  0  0  0  0  0  0  0
   44.9070   34.8200   45.2560 C   0  0  0  0  0  0  0  0  0  0  0  0
   45.5920   35.0920   44.0640 C   0  0  0  0  0  0  0  0  0  0  0  0
   46.7390   34.3120   43.7700 C   0  0  0  0  0  0  0  0  0  0  0  0
   47.0990   33.3530   44.6580 N   0  0  0  0  0  0  0  0  0  0  0  0
   46.4090   33.1220   45.8010 C   0  0  0  0  0  0  0  0  0  0  0  0
   45.3120   33.8630   46.0900 N   0  0  0  0  0  0  0  0  0  0  0  0
   44.0560   35.4860   45.3560 H   0  0  0  0  0  0  0  0  0  0  0  0
   45.3330   35.8440   43.3380 H   0  0  0  0  0  0  0  0  0  0  0  0
   46.7040   32.3600   46.4960 H   0  0  0  0  0  0  0  0  0  0  0  0
   46.2000   33.0420   41.3630 O   0  0  0  0  0  0  0  0  0  0  0  0
   44.8450   32.7900   41.2760 C   0  0  0  0  0  0  0  0  0  0  0  0
   44.0450   31.9950   42.0700 C   0  0  0  0  0  0  0  0  0  0  0  0
   44.5530   31.5070   42.8670 H   0  0  0  0  0  0  0  0  0  0  0  0
   42.7000   31.8980   41.7840 C   0  0  0  0  0  0  0  0  0  0  0  0
   42.1580   31.2390   42.4790 H   0  0  0  0  0  0  0  0  0  0  0  0
   42.0670   32.5430   40.7450 C   0  0  0  0  0  0  0  0  0  0  0  0
   42.8640   33.3330   39.9560 C   0  0  0  0  0  0  0  0  0  0  0  0
   44.2010   33.4430   40.2210 C   0  0  0  0  0  0  0  0  0  0  0  0
   44.7560   34.0980   39.5360 H   0  0  0  0  0  0  0  0  0  0  0  0
   42.1120   34.1980   38.5910 S   0  0  0  0  0  0  0  0  0  0  0  0
   40.3930   33.7700   38.6220 C   0  0  0  0  0  0  0  0  0  0  0  0
   39.6180   34.3300   37.6500 C   0  0  0  0  0  0  0  0  0  0  0  0
   40.0000   34.9910   36.9030 H   0  0  0  0  0  0  0  0  0  0  0  0
   38.2670   34.0480   37.6050 C   0  0  0  0  0  0  0  0  0  0  0  0
   37.5660   34.4370   36.8790 H   0  0  0  0  0  0  0  0  0  0  0  0
   37.7410   33.1980   38.5570 C   0  0  0  0  0  0  0  0  0  0  0  0
   36.6870   32.9540   38.5500 H   0  0  0  0  0  0  0  0  0  0  0  0
   38.5820   32.6650   39.5130 C   0  0  0  0  0  0  0  0  0  0  0  0
   38.0990   31.9980   40.2380 H   0  0  0  0  0  0  0  0  0  0  0  0
   39.9370   32.9180   39.5960 C   0  0  0  0  0  0  0  0  0  0  0  0
   40.6820   32.3140   40.6180 N   0  0  0  0  0  0  0  0  0  0  0  0
   40.1810   31.6890   41.2820 H   0  0  0  0  0  0  0  0  0  0  0  0
  1  2  1  0  0  0  0
  1 18  1  0  0  0  0
  2  8  1  0  0  0  0
  3  9  1  0  0  0  0
  3 10  1  0  0  0  0
  3  2  1  0  0  0  0
  4  3  1  0  0  0  0
  5  4  1  0  0  0  0
  5  6  1  0  0  0  0
  6 15  1  6  0  0  0
  6 25  1  0  0  0  0
  6  1  1  0  0  0  0
  7  2  1  0  0  0  0
 11  4  1  0  0  0  0
 12  4  1  0  0  0  0
 13  5  1  0  0  0  0
 14  5  1  0  0  0  0
 16 22  1  0  0  0  0
 16 21  1  0  0  0  0
 17 16  2  0  0  0  0
 18 17  1  0  0  0  0
 18 19  2  0  0  0  0
 19 20  1  0  0  0  0
 20 21  2  0  0  0  0
 20 24  1  0  0  0  0
 23 17  1  0  0  0  0
 26 25  1  0  0  0  0
 26 27  1  0  0  0  0
 27 28  1  0  0  0  0
 29 27  2  0  0  0  0
 29 30  1  0  0  0  0
 31 29  1  0  0  0  0
 32 33  1  0  0  0  0
 32 31  2  0  0  0  0
 33 26  2  0  0  0  0
 34 33  1  0  0  0  0
 35 36  1  0  0  0  0
 35 32  1  0  0  0  0
 36 45  1  0  0  0  0
 37 36  2  0  0  0  0
 38 37  1  0  0  0  0
 39 37  1  0  0  0  0
 39 41  2  0  0  0  0
 40 39  1  0  0  0  0
 41 43  1  0  0  0  0
 42 41  1  0  0  0  0
 43 45  2  0  0  0  0
 43 44  1  0  0  0  0
 45 46  1  0  0  0  0
 46 31  1  0  0  0  0
 46 47  1  0  0  0  0
M  END
>  <minimizedAffinity>
-6.87177753

>  <minimizedRMSD>
1.04092026

$$$$
