REMARK  Name = 
REMARK  2 active torsions:
REMARK  status: ('A' for Active; 'I' for Inactive)
REMARK    1  A    between atoms: C_2  and  S_7
REMARK    2  A    between atoms: S_7  and  C_11
REMARK                            x       y       z     vdW  Elec       q    Type
REMARK                         _______ _______ _______ _____ _____    ______ ____
ROOT
ATOM      1  C   UNL     1      42.120  34.869  41.413  0.00  0.00    +0.000 A 
ATOM      2  C   UNL     1      41.058  35.628  41.858  0.00  0.00    +0.000 A 
ATOM      3  H   UNL     1      41.229  36.602  42.293  0.00  0.00    +0.000 HD
ATOM      4  C   UNL     1      39.789  35.102  41.728  0.00  0.00    +0.000 A 
ATOM      5  H   UNL     1      38.995  35.748  42.097  0.00  0.00    +0.000 HD
ATOM      6  C   UNL     1      39.480  33.872  41.186  0.00  0.00    +0.000 A 
ATOM      7  C   UNL     1      40.574  33.159  40.759  0.00  0.00    +0.000 A 
ATOM      8  C   UNL     1      41.852  33.635  40.866  0.00  0.00    +0.000 A 
ATOM      9  H   UNL     1      42.703  33.057  40.523  0.00  0.00    +0.000 HD
ATOM     10  S   UNL     1      40.328  31.554  40.039  0.00  0.00    +0.000 S 
ATOM     11  C   UNL     1      38.570  31.265  40.062  0.00  0.00    +0.000 A 
ATOM     12  C   UNL     1      38.077  30.108  39.570  0.00  0.00    +0.000 A 
ATOM     13  H   UNL     1      38.760  29.349  39.159  0.00  0.00    +0.000 HD
ATOM     14  C   UNL     1      36.717  29.813  39.554  0.00  0.00    +0.000 A 
ATOM     15  H   UNL     1      36.346  28.889  39.160  0.00  0.00    +0.000 HD
ATOM     16  C   UNL     1      35.884  30.777  40.075  0.00  0.00    +0.000 A 
ATOM     17  H   UNL     1      34.822  30.567  40.072  0.00  0.00    +0.000 HD
ATOM     18  C   UNL     1      36.416  31.936  40.563  0.00  0.00    +0.000 A 
ATOM     19  H   UNL     1      35.677  32.642  40.955  0.00  0.00    +0.000 HD
ATOM     20  C   UNL     1      37.760  32.243  40.586  0.00  0.00    +0.000 A 
ATOM     21  N   UNL     1      38.148  33.481  41.124  0.00  0.00    +0.000 N 
ATOM     22  H   UNL     1      37.415  34.126  41.487  0.00  0.00    +0.000 HD
ENDROOT
BRANCH   1  23
ATOM     23  S   UNL     1      43.803  35.456  41.535  0.00  0.00    +0.000 S 
BRANCH  23  25
ATOM     24  C   UNL     1      44.266  35.735  44.260  0.00  0.00    +0.000 A 
ATOM     25  C   UNL     1      44.425  34.907  43.123  0.00  0.00    +0.000 A 
ATOM     26  C   UNL     1      45.064  33.685  43.283  0.00  0.00    +0.000 A 
ATOM     27  N   UNL     1      45.512  33.329  44.519  0.00  0.00    +0.000 NA
ATOM     28  C   UNL     1      45.340  34.151  45.584  0.00  0.00    +0.000 A 
ATOM     29  N   UNL     1      44.728  35.336  45.466  0.00  0.00    +0.000 NA
ATOM     30  H   UNL     1      43.773  36.673  44.129  0.00  0.00    +0.000 HD
ATOM     31  H   UNL     1      45.197  33.041  42.440  0.00  0.00    +0.000 HD
ATOM     32  H   UNL     1      45.745  33.738  46.499  0.00  0.00    +0.000 HD
ENDBRANCH  23  25
ENDBRANCH   1  23
TORSDOF 2
