REMARK  Name = 
REMARK  2 active torsions:
REMARK  status: ('A' for Active; 'I' for Inactive)
REMARK    1  A    between atoms: C_2  and  S_7
REMARK    2  A    between atoms: S_7  and  C_11
REMARK                            x       y       z     vdW  Elec       q    Type
REMARK                         _______ _______ _______ _____ _____    ______ ____
ROOT
ATOM      1  C   UNL     1      42.120  34.869  41.413  0.00  0.00    +0.000 A 
ATOM      2  C   UNL     1      41.168  35.556  40.689  0.00  0.00    +0.000 A 
ATOM      3  H   UNL     1      41.428  36.472  40.178  0.00  0.00    +0.000 HD
ATOM      4  C   UNL     1      39.891  35.036  40.644  0.00  0.00    +0.000 A 
ATOM      5  H   UNL     1      39.186  35.622  40.059  0.00  0.00    +0.000 HD
ATOM      6  C   UNL     1      39.473  33.876  41.264  0.00  0.00    +0.000 A 
ATOM      7  C   UNL     1      40.460  33.234  41.970  0.00  0.00    +0.000 A 
ATOM      8  C   UNL     1      41.742  33.708  42.045  0.00  0.00    +0.000 A 
ATOM      9  H   UNL     1      42.507  33.185  42.608  0.00  0.00    +0.000 HD
ATOM     10  S   UNL     1      40.067  31.725  42.821  0.00  0.00    +0.000 S 
ATOM     11  C   UNL     1      38.340  31.415  42.508  0.00  0.00    +0.000 A 
ATOM     12  C   UNL     1      37.752  30.320  43.036  0.00  0.00    +0.000 A 
ATOM     13  H   UNL     1      38.337  29.625  43.656  0.00  0.00    +0.000 HD
ATOM     14  C   UNL     1      36.409  30.014  42.835  0.00  0.00    +0.000 A 
ATOM     15  H   UNL     1      35.960  29.140  43.262  0.00  0.00    +0.000 HD
ATOM     16  C   UNL     1      35.698  30.899  42.056  0.00  0.00    +0.000 A 
ATOM     17  H   UNL     1      34.652  30.678  41.887  0.00  0.00    +0.000 HD
ATOM     18  C   UNL     1      36.325  31.995  41.538  0.00  0.00    +0.000 A 
ATOM     19  H   UNL     1      35.679  32.640  40.933  0.00  0.00    +0.000 HD
ATOM     20  C   UNL     1      37.653  32.313  41.728  0.00  0.00    +0.000 A 
ATOM     21  N   UNL     1      38.148  33.481  41.125  0.00  0.00    +0.000 N 
ATOM     22  H   UNL     1      37.502  34.068  40.556  0.00  0.00    +0.000 HD
ENDROOT
BRANCH   1  23
ATOM     23  S   UNL     1      43.803  35.456  41.535  0.00  0.00    +0.000 S 
BRANCH  23  25
ATOM     24  C   UNL     1      44.266  35.735  44.260  0.00  0.00    +0.000 A 
ATOM     25  C   UNL     1      44.425  34.907  43.123  0.00  0.00    +0.000 A 
ATOM     26  C   UNL     1      45.064  33.685  43.283  0.00  0.00    +0.000 A 
ATOM     27  N   UNL     1      45.512  33.329  44.519  0.00  0.00    +0.000 NA
ATOM     28  C   UNL     1      45.340  34.151  45.584  0.00  0.00    +0.000 A 
ATOM     29  N   UNL     1      44.728  35.336  45.466  0.00  0.00    +0.000 NA
ATOM     30  H   UNL     1      43.773  36.673  44.129  0.00  0.00    +0.000 HD
ATOM     31  H   UNL     1      45.197  33.041  42.440  0.00  0.00    +0.000 HD
ATOM     32  H   UNL     1      45.745  33.738  46.499  0.00  0.00    +0.000 HD
ENDBRANCH  23  25
ENDBRANCH   1  23
TORSDOF 2
