
     RDKit          3D

 50 54  0  0  0  0  0  0  0  0999 V2000
   45.7325   29.8846   44.8680 Br  0  0  0  0  0  0  0  0  0  0  0  0
   45.6973   30.6048   46.6656 C   0  0  0  0  0  0  0  0  0  0  0  0
   46.3273   31.8048   46.8439 C   0  0  0  0  0  0  0  0  0  0  0  0
   46.2802   32.2906   48.1517 C   0  0  0  0  0  0  0  0  0  0  0  0
   45.6537   31.6262   49.1884 C   0  0  0  0  0  0  0  0  0  0  0  0
   45.0443   30.4253   48.9237 C   0  0  0  0  0  0  0  0  0  0  0  0
   45.0563   29.8923   47.6509 C   0  0  0  0  0  0  0  0  0  0  0  0
   47.0222   32.6006   45.8290 C   0  0  0  0  0  0  0  0  0  0  0  0
   44.5160   35.3311   45.3889 C   0  0  0  0  0  0  0  0  0  0  0  0
   44.7417   35.7093   44.0641 C   0  0  0  0  0  0  0  0  0  0  0  0
   45.7263   35.0403   43.3542 C   0  0  0  0  0  0  0  0  0  0  0  0
   46.4365   34.0495   43.9533 N   0  0  0  0  0  0  0  0  0  0  0  0
   46.1953   33.6976   45.2550 C   0  0  0  0  0  0  0  0  0  0  0  0
   45.2313   34.3577   45.9388 N   0  0  0  0  0  0  0  0  0  0  0  0
   44.4321   28.6690   47.3954 O   0  0  0  0  0  0  0  0  0  0  0  0
   44.5393   26.0914   47.0299 O   0  0  0  0  0  0  0  0  0  0  0  0
   45.0453   27.1816   47.9622 P   0  0  2  0  0  0  0  0  0  0  0  0
   44.4161   26.9412   49.5023 O   0  0  0  0  0  0  0  0  0  0  0  0
   46.7233   27.1401   47.9717 O   0  0  0  0  0  0  0  0  0  0  0  0
   46.7576   33.2365   48.3707 H   0  0  0  0  0  0  0  0  0  0  0  0
   45.6620   32.0713   50.1759 H   0  0  0  0  0  0  0  0  0  0  0  0
   44.5566   29.9113   49.7378 H   0  0  0  0  0  0  0  0  0  0  0  0
   47.9880   33.0232   46.1907 H   0  0  0  0  0  0  0  0  0  0  0  0
   47.2897   31.8987   44.9930 H   0  0  0  0  0  0  0  0  0  0  0  0
   43.7896   35.7598   46.0544 H   0  0  0  0  0  0  0  0  0  0  0  0
   44.1202   36.5100   43.6846 H   0  0  0  0  0  0  0  0  0  0  0  0
   45.8871   35.3459   42.3312 H   0  0  0  0  0  0  0  0  0  0  0  0
   45.0908   27.0154   50.2275 H   0  0  0  0  0  0  0  0  0  0  0  0
   47.5411   26.3613   47.1777 C   0  0  0  0  0  0  0  0  0  0  0  0
   47.6344   26.6117   45.8244 C   0  0  0  0  0  0  0  0  0  0  0  0
   47.0534   27.4224   45.4302 H   0  0  0  0  0  0  0  0  0  0  0  0
   48.4607   25.8147   45.0594 C   0  0  0  0  0  0  0  0  0  0  0  0
   48.4646   26.0911   44.0130 H   0  0  0  0  0  0  0  0  0  0  0  0
   49.2185   24.7673   45.5363 C   0  0  0  0  0  0  0  0  0  0  0  0
   49.0753   24.5777   46.8891 C   0  0  0  0  0  0  0  0  0  0  0  0
   48.2858   25.3210   47.6874 C   0  0  0  0  0  0  0  0  0  0  0  0
   48.1819   25.1587   48.7606 H   0  0  0  0  0  0  0  0  0  0  0  0
   49.9805   23.2653   47.6868 S   0  0  0  0  0  0  0  0  0  0  0  0
   50.9159   22.4779   46.3932 C   0  0  0  0  0  0  0  0  0  0  0  0
   51.7364   21.4166   46.6389 C   0  0  0  0  0  0  0  0  0  0  0  0
   51.8206   21.0373   47.6700 H   0  0  0  0  0  0  0  0  0  0  0  0
   52.5087   20.7318   45.7006 C   0  0  0  0  0  0  0  0  0  0  0  0
   53.1247   19.9095   45.9795 H   0  0  0  0  0  0  0  0  0  0  0  0
   52.3922   21.2193   44.4123 C   0  0  0  0  0  0  0  0  0  0  0  0
   52.9692   20.7288   43.6326 H   0  0  0  0  0  0  0  0  0  0  0  0
   51.5648   22.2962   44.1399 C   0  0  0  0  0  0  0  0  0  0  0  0
   51.5371   22.6130   43.0855 H   0  0  0  0  0  0  0  0  0  0  0  0
   50.8207   22.9392   45.1061 C   0  0  0  0  0  0  0  0  0  0  0  0
   50.0384   24.0055   44.6697 N   0  0  0  0  0  0  0  0  0  0  0  0
   50.0156   24.3016   43.6712 H   0  0  0  0  0  0  0  0  0  0  0  0
  1  2  1  0
  2  3  2  0
  2  7  1  0
  3  4  1  0
  4  5  2  0
  6  5  1  0
  7  6  2  0
  8  3  1  0
  9 14  2  0
 10  9  1  0
 11 12  1  0
 11 10  2  0
 12 13  2  0
 13  8  1  0
 13 14  1  0
 15  7  1  0
 17 15  1  6
 16 17  2  0
 17 18  1  0
 19 17  1  0
  4 20  1  0
  5 21  1  0
  6 22  1  0
  8 23  1  0
  8 24  1  0
  9 25  1  0
 10 26  1  0
 11 27  1  0
 18 28  1  0
 29 30  2  0
 30 31  1  0
 30 32  1  0
 32 33  1  0
 32 34  2  0
 34 35  1  0
 35 36  2  0
 36 37  1  0
 35 38  1  0
 38 39  1  0
 39 40  2  0
 40 41  1  0
 40 42  1  0
 42 43  1  0
 42 44  2  0
 44 45  1  0
 44 46  1  0
 46 47  1  0
 46 48  2  0
 48 49  1  0
 49 50  1  0
 36 29  1  0
 48 39  1  0
 49 34  1  0
 19 29  1  0
M  ISO  8  20  14  21  14  22  14  23   8  24   8  25  14  26  14  27  14
M  ISO  8  28   3  31  16  33  16  37  16  41  16  43  16  45  16  47  16
M  ISO  1  50   5
M  END
>  <DihAtoms>  (1) 
16,18,28,29

>  <DihDeg>  (1) 
-140.80033753405846

$$$$
