REMARK  Name = 
REMARK  4 active torsions:
REMARK  status: ('A' for Active; 'I' for Inactive)
REMARK    1  A    between atoms: C_1  and  C_4
REMARK    2  A    between atoms: C_2  and  C_11
REMARK    3  A    between atoms: C_8  and  O_10
REMARK    4  A    between atoms: O_10  and  C_21
REMARK                            x       y       z     vdW  Elec       q    Type
REMARK                         _______ _______ _______ _____ _____    ______ ____
ROOT
ATOM      1  C   UNL     1      46.931  32.290  49.400  0.00  0.00    +0.000 A 
ATOM      2  C   UNL     1      46.701  31.255  50.271  0.00  0.00    +0.000 A 
ATOM      3  H   UNL     1      45.752  30.769  50.136  0.00  0.00    +0.000 HD
ATOM      4  C   UNL     1      47.588  30.854  51.239  0.00  0.00    +0.000 A 
ATOM      5  H   UNL     1      47.243  30.009  51.849  0.00  0.00    +0.000 HD
ATOM      6  C   UNL     1      48.802  31.486  51.402  0.00  0.00    +0.000 A 
ATOM      7  C   UNL     1      49.112  32.528  50.575  0.00  0.00    +0.000 A 
ATOM      8  C   UNL     1      48.193  32.884  49.630  0.00  0.00    +0.000 A 
ATOM      9  H   UNL     1      48.572  33.731  49.041  0.00  0.00    +0.000 HD
ATOM     10  S   UNL     1      50.684  33.340  50.792  0.00  0.00    +0.000 S 
ATOM     11  C   UNL     1      51.498  32.506  52.140  0.00  0.00    +0.000 A 
ATOM     12  C   UNL     1      52.724  32.988  52.458  0.00  0.00    +0.000 A 
ATOM     13  H   UNL     1      53.206  33.811  51.959  0.00  0.00    +0.000 HD
ATOM     14  C   UNL     1      53.435  32.404  53.493  0.00  0.00    +0.000 A 
ATOM     15  H   UNL     1      54.409  32.760  53.773  0.00  0.00    +0.000 HD
ATOM     16  C   UNL     1      52.861  31.356  54.155  0.00  0.00    +0.000 A 
ATOM     17  H   UNL     1      53.406  30.892  54.965  0.00  0.00    +0.000 HD
ATOM     18  C   UNL     1      51.620  30.926  53.776  0.00  0.00    +0.000 A 
ATOM     19  H   UNL     1      51.233  30.077  54.362  0.00  0.00    +0.000 HD
ATOM     20  C   UNL     1      50.857  31.459  52.757  0.00  0.00    +0.000 A 
ATOM     21  N   UNL     1      49.581  30.952  52.432  0.00  0.00    +0.000 N 
ATOM     22  H   UNL     1      49.286  30.151  53.031  0.00  0.00    +0.000 HD
ENDROOT
BRANCH   1  23
ATOM     23  O   UNL     1      46.308  32.916  48.380  0.00  0.00    +0.000 OA
BRANCH  23  28
ATOM     24  C   UNL     1      45.899  32.861  44.816  0.00  0.00    +0.000 A 
ATOM     25  C   UNL     1      46.731  31.754  44.505  0.00  0.00    +0.000 A 
ATOM     26  C   UNL     1      47.404  31.057  45.505  0.00  0.00    +0.000 A 
ATOM     27  N   UNL     1      47.215  31.500  46.773  0.00  0.00    +0.000 NA
ATOM     28  C   UNL     1      46.407  32.574  47.056  0.00  0.00    +0.000 A 
ATOM     29  N   UNL     1      45.765  33.235  46.092  0.00  0.00    +0.000 NA
ATOM     30  H   UNL     1      46.820  31.474  43.460  0.00  0.00    +0.000 HD
ATOM     31  H   UNL     1      48.026  30.229  45.275  0.00  0.00    +0.000 HD
BRANCH  24  32
ATOM     32  C   UNL     1      45.223  33.565  43.712  0.00  0.00    +0.000 C 
ATOM     33  C   UNL     1      45.859  34.983  43.475  0.00  0.00    +0.000 C 
ATOM     34  C   UNL     1      45.799  33.865  42.458  0.00  0.00    +0.000 C 
ATOM     35  H   UNL     1      44.114  33.613  43.872  0.00  0.00    +0.000 HD
ATOM     36  H   UNL     1      46.807  35.203  43.957  0.00  0.00    +0.000 HD
ATOM     37  H   UNL     1      45.121  33.998  41.573  0.00  0.00    +0.000 HD
ATOM     38  H   UNL     1      46.804  33.524  42.115  0.00  0.00    +0.000 HD
BRANCH  33  39
ATOM     39  C   UNL     1      44.839  36.073  43.242  0.00  0.00    +0.000 C 
ATOM     40  F   UNL     1      45.374  37.328  43.240  0.00  0.00    +0.000 F 
ATOM     41  F   UNL     1      44.240  35.859  41.982  0.00  0.00    +0.000 F 
ATOM     42  F   UNL     1      43.792  35.975  44.145  0.00  0.00    +0.000 F 
ENDBRANCH  33  39
ENDBRANCH  24  32
ENDBRANCH  23  28
ENDBRANCH   1  23
TORSDOF 4
