
 OpenBabel03242523123D

 59 65  0  0  1  0  0  0  0  0999 V2000
   46.4920   32.0590   45.5710 C   0  0  0  0  0  0  0  0  0  0  0  0
   46.7340   32.7560   44.3660 C   0  0  0  0  0  0  0  0  0  0  0  0
   47.6500   32.0940   43.5840 C   0  0  0  0  0  0  0  0  0  0  0  0
   48.2700   30.9230   43.8900 C   0  0  0  0  0  0  0  0  0  0  0  0
   47.9780   30.3010   45.1010 C   0  0  0  0  0  0  0  0  0  0  0  0
   47.0740   30.8810   45.9510 C   0  0  0  0  0  0  0  0  0  0  0  0
   48.7610   29.1580   45.1110 O   0  0  0  0  0  0  0  0  0  0  0  0
   49.4820   29.0470   43.8990 C   0  0  2  0  0  0  0  0  0  0  0  0
   49.1930   30.2170   43.1420 O   0  0  0  0  0  0  0  0  0  0  0  0
   45.8070   32.3100   46.4100 H   0  0  0  0  0  0  0  0  0  0  0  0
   47.8430   32.5920   42.6860 H   0  0  0  0  0  0  0  0  0  0  0  0
   46.9340   30.3200   46.8340 H   0  0  0  0  0  0  0  0  0  0  0  0
   50.5730   28.9830   44.1030 H   0  0  0  0  0  0  0  0  0  0  0  0
   45.1050   36.0200   43.5110 C   0  0  0  0  0  0  0  0  0  0  0  0
   45.9010   34.8980   43.2850 C   0  0  0  0  0  0  0  0  0  0  0  0
   46.0390   33.9630   44.2670 C   0  0  0  0  0  0  0  0  0  0  0  0
   45.3750   34.1920   45.4420 N   0  0  0  0  0  0  0  0  0  0  0  0
   44.6120   35.2700   45.6570 C   0  0  0  0  0  0  0  0  0  0  0  0
   44.4830   36.1620   44.7080 N   0  0  0  0  0  0  0  0  0  0  0  0
   44.9880   36.7650   42.7400 H   0  0  0  0  0  0  0  0  0  0  0  0
   44.0640   35.5060   46.5590 H   0  0  0  0  0  0  0  0  0  0  0  0
   46.5430   34.8090   42.0500 N   0  0  0  0  0  0  0  0  0  0  0  0
   47.8730   35.2910   41.8520 C   0  0  0  0  0  0  0  0  0  0  0  0
   48.4740   34.9600   40.5150 C   0  0  0  0  0  0  0  0  0  0  0  0
   48.1640   33.6940   40.0310 N   0  0  0  0  0  0  0  0  0  0  0  0
   46.8830   33.2410   40.1900 C   0  0  0  0  0  0  0  0  0  0  0  0
   46.0020   34.2620   40.8700 C   0  0  0  0  0  0  0  0  0  0  0  0
   48.5870   35.0150   42.6630 H   0  0  0  0  0  0  0  0  0  0  0  0
   47.8150   36.4140   41.9160 H   0  0  0  0  0  0  0  0  0  0  0  0
   48.0750   35.7230   39.7860 H   0  0  0  0  0  0  0  0  0  0  0  0
   49.5600   35.1820   40.5700 H   0  0  0  0  0  0  0  0  0  0  0  0
   48.8210   33.2180   39.4150 H   0  0  0  0  0  0  0  0  0  0  0  0
   46.7560   32.2640   40.7200 H   0  0  0  0  0  0  0  0  0  0  0  0
   46.4120   33.0490   39.1820 H   0  0  0  0  0  0  0  0  0  0  0  0
   45.0670   33.7030   41.1510 H   0  0  0  0  0  0  0  0  0  0  0  0
   45.7040   34.9970   40.0840 H   0  0  0  0  0  0  0  0  0  0  0  0
   48.9840   27.9300   43.2210 O   0  0  0  0  0  0  0  0  0  0  0  0
   49.6900   26.9970   42.5180 C   0  0  0  0  0  0  0  0  0  0  0  0
   50.6510   27.2260   41.5570 C   0  0  0  0  0  0  0  0  0  0  0  0
   50.8740   28.2600   41.3330 H   0  0  0  0  0  0  0  0  0  0  0  0
   51.2620   26.1500   40.9510 C   0  0  0  0  0  0  0  0  0  0  0  0
   52.0120   26.4230   40.2010 H   0  0  0  0  0  0  0  0  0  0  0  0
   50.9780   24.8370   41.2380 C   0  0  0  0  0  0  0  0  0  0  0  0
   50.0300   24.6250   42.1850 C   0  0  0  0  0  0  0  0  0  0  0  0
   49.4130   25.6540   42.7980 C   0  0  0  0  0  0  0  0  0  0  0  0
   48.6520   25.4150   43.5570 H   0  0  0  0  0  0  0  0  0  0  0  0
   49.6070   22.9450   42.6110 S   0  0  0  0  0  0  0  0  0  0  0  0
   50.6430   21.9250   41.5780 C   0  0  0  0  0  0  0  0  0  0  0  0
   50.4700   20.5760   41.7550 C   0  0  0  0  0  0  0  0  0  0  0  0
   49.7630   20.1250   42.4630 H   0  0  0  0  0  0  0  0  0  0  0  0
   51.2300   19.6970   41.0000 C   0  0  0  0  0  0  0  0  0  0  0  0
   51.1570   18.6200   41.0740 H   0  0  0  0  0  0  0  0  0  0  0  0
   52.1360   20.2080   40.0940 C   0  0  0  0  0  0  0  0  0  0  0  0
   52.7340   19.5340   39.4980 H   0  0  0  0  0  0  0  0  0  0  0  0
   52.2390   21.5800   39.9870 C   0  0  0  0  0  0  0  0  0  0  0  0
   52.9830   21.9060   39.2440 H   0  0  0  0  0  0  0  0  0  0  0  0
   51.5100   22.5000   40.7130 C   0  0  0  0  0  0  0  0  0  0  0  0
   51.6950   23.8670   40.5240 N   0  0  0  0  0  0  0  0  0  0  0  0
   52.4070   24.1440   39.8130 H   0  0  0  0  0  0  0  0  0  0  0  0
  1  6  1  0  0  0  0
  1 10  1  0  0  0  0
  2  1  2  0  0  0  0
  3  4  2  0  0  0  0
  3  2  1  0  0  0  0
  4  5  1  0  0  0  0
  5  7  1  0  0  0  0
  5  6  2  0  0  0  0
  6 12  1  0  0  0  0
  8 13  1  1  0  0  0
  8  7  1  0  0  0  0
  9  4  1  0  0  0  0
  9  8  1  0  0  0  0
 11  3  1  0  0  0  0
 14 19  1  0  0  0  0
 15 14  2  0  0  0  0
 15 16  1  0  0  0  0
 16  2  1  0  0  0  0
 16 17  2  0  0  0  0
 17 18  1  0  0  0  0
 18 21  1  0  0  0  0
 19 18  2  0  0  0  0
 20 14  1  0  0  0  0
 22 15  1  0  0  0  0
 23 29  1  0  0  0  0
 23 22  1  0  0  0  0
 23 28  1  0  0  0  0
 24 31  1  0  0  0  0
 24 23  1  0  0  0  0
 25 26  1  0  0  0  0
 25 24  1  0  0  0  0
 26 33  1  0  0  0  0
 26 27  1  0  0  0  0
 27 35  1  0  0  0  0
 27 22  1  0  0  0  0
 30 24  1  0  0  0  0
 32 25  1  0  0  0  0
 34 26  1  0  0  0  0
 36 27  1  0  0  0  0
 37  8  1  0  0  0  0
 38 45  1  0  0  0  0
 38 37  1  0  0  0  0
 39 38  2  0  0  0  0
 40 39  1  0  0  0  0
 41 43  2  0  0  0  0
 41 39  1  0  0  0  0
 42 41  1  0  0  0  0
 43 44  1  0  0  0  0
 44 47  1  0  0  0  0
 44 45  2  0  0  0  0
 45 46  1  0  0  0  0
 48 49  1  0  0  0  0
 48 47  1  0  0  0  0
 49 50  1  0  0  0  0
 51 52  1  0  0  0  0
 51 49  2  0  0  0  0
 53 51  1  0  0  0  0
 54 53  1  0  0  0  0
 55 53  2  0  0  0  0
 55 57  1  0  0  0  0
 56 55  1  0  0  0  0
 57 48  2  0  0  0  0
 58 57  1  0  0  0  0
 58 43  1  0  0  0  0
 59 58  1  0  0  0  0
M  END
>  <minimizedAffinity>
-4.65650749

>  <minimizedRMSD>
0.607087314

$$$$
