REMARK  Name = 
REMARK  4 active torsions:
REMARK  status: ('A' for Active; 'I' for Inactive)
REMARK    1  A    between atoms: C_2  and  N_7
REMARK    2  A    between atoms: C_3  and  C_14
REMARK    3  A    between atoms: C_20  and  O_22
REMARK    4  A    between atoms: O_22  and  C_38
REMARK                            x       y       z     vdW  Elec       q    Type
REMARK                         _______ _______ _______ _____ _____    ______ ____
ROOT
ATOM      1  C   UNL     1      46.439  31.997  45.495  0.00  0.00    +0.000 A 
ATOM      2  C   UNL     1      46.755  32.741  44.337  0.00  0.00    +0.000 A 
ATOM      3  C   UNL     1      47.722  32.112  43.590  0.00  0.00    +0.000 A 
ATOM      4  C   UNL     1      48.326  30.931  43.890  0.00  0.00    +0.000 A 
ATOM      5  C   UNL     1      47.960  30.261  45.054  0.00  0.00    +0.000 A 
ATOM      6  C   UNL     1      47.000  30.806  45.866  0.00  0.00    +0.000 A 
ATOM      7  O   UNL     1      48.745  29.120  45.070  0.00  0.00    +0.000 OA
ATOM      8  C   UNL     1      49.543  29.058  43.904  0.00  0.00    +0.000 C 
ATOM      9  O   UNL     1      49.299  30.256  43.176  0.00  0.00    +0.000 OA
ATOM     10  H   UNL     1      45.700  32.213  46.297  0.00  0.00    +0.000 HD
ATOM     11  H   UNL     1      47.971  32.645  42.727  0.00  0.00    +0.000 HD
ATOM     12  H   UNL     1      46.806  30.210  46.715  0.00  0.00    +0.000 HD
ATOM     13  H   UNL     1      50.619  28.988  44.175  0.00  0.00    +0.000 HD
ENDROOT
BRANCH   2  16
ATOM     14  C   UNL     1      45.126  36.006  43.485  0.00  0.00    +0.000 A 
ATOM     15  C   UNL     1      45.915  34.880  43.255  0.00  0.00    +0.000 A 
ATOM     16  C   UNL     1      46.063  33.950  44.240  0.00  0.00    +0.000 A 
ATOM     17  N   UNL     1      45.414  34.187  45.422  0.00  0.00    +0.000 NA
ATOM     18  C   UNL     1      44.657  35.268  45.641  0.00  0.00    +0.000 A 
ATOM     19  N   UNL     1      44.519  36.156  44.689  0.00  0.00    +0.000 NA
ATOM     20  H   UNL     1      45.002  36.747  42.712  0.00  0.00    +0.000 HD
ATOM     21  H   UNL     1      44.121  35.511  46.548  0.00  0.00    +0.000 HD
BRANCH  15  22
ATOM     22  N   UNL     1      46.542  34.783  42.013  0.00  0.00    +0.000 N 
ATOM     23  C   UNL     1      47.867  35.269  41.793  0.00  0.00    +0.000 C 
ATOM     24  C   UNL     1      48.452  34.928  40.452  0.00  0.00    +0.000 C 
ATOM     25  N   UNL     1      48.141  33.657  39.983  0.00  0.00    +0.000 NA
ATOM     26  C   UNL     1      46.864  33.200  40.162  0.00  0.00    +0.000 C 
ATOM     27  C   UNL     1      45.988  34.223  40.845  0.00  0.00    +0.000 C 
ATOM     28  H   UNL     1      48.593  35.003  42.597  0.00  0.00    +0.000 HD
ATOM     29  H   UNL     1      47.805  36.392  41.848  0.00  0.00    +0.000 HD
ATOM     30  H   UNL     1      48.041  35.683  39.721  0.00  0.00    +0.000 HD
ATOM     31  H   UNL     1      49.538  35.155  40.491  0.00  0.00    +0.000 HD
ATOM     32  H   UNL     1      48.792  33.178  39.363  0.00  0.00    +0.000 HD
ATOM     33  H   UNL     1      46.748  32.227  40.703  0.00  0.00    +0.000 HD
ATOM     34  H   UNL     1      46.381  32.997  39.162  0.00  0.00    +0.000 HD
ATOM     35  H   UNL     1      45.059  33.663  41.143  0.00  0.00    +0.000 HD
ATOM     36  H   UNL     1      45.677  34.950  40.056  0.00  0.00    +0.000 HD
ENDBRANCH  15  22
ENDBRANCH   2  16
BRANCH   8  37
ATOM     37  O   UNL     1      49.095  27.968  43.152  0.00  0.00    +0.000 OA
BRANCH  37  38
ATOM     38  C   UNL     1      49.816  26.885  42.740  0.00  0.00    +0.000 A 
ATOM     39  C   UNL     1      50.472  25.968  43.535  0.00  0.00    +0.000 A 
ATOM     40  H   UNL     1      50.410  26.122  44.603  0.00  0.00    +0.000 HD
ATOM     41  C   UNL     1      51.153  24.931  42.936  0.00  0.00    +0.000 A 
ATOM     42  H   UNL     1      51.644  24.251  43.640  0.00  0.00    +0.000 HD
ATOM     43  C   UNL     1      51.230  24.737  41.578  0.00  0.00    +0.000 A 
ATOM     44  C   UNL     1      50.581  25.645  40.808  0.00  0.00    +0.000 A 
ATOM     45  C   UNL     1      49.905  26.672  41.359  0.00  0.00    +0.000 A 
ATOM     46  H   UNL     1      49.399  27.375  40.680  0.00  0.00    +0.000 HD
ATOM     47  S   UNL     1      50.636  25.459  39.035  0.00  0.00    +0.000 S 
ATOM     48  C   UNL     1      51.618  23.999  38.748  0.00  0.00    +0.000 A 
ATOM     49  C   UNL     1      51.784  23.676  37.425  0.00  0.00    +0.000 A 
ATOM     50  H   UNL     1      51.363  24.245  36.586  0.00  0.00    +0.000 HD
ATOM     51  C   UNL     1      52.532  22.557  37.095  0.00  0.00    +0.000 A 
ATOM     52  H   UNL     1      52.713  22.230  36.080  0.00  0.00    +0.000 HD
ATOM     53  C   UNL     1      53.086  21.804  38.110  0.00  0.00    +0.000 A 
ATOM     54  H   UNL     1      53.672  20.928  37.866  0.00  0.00    +0.000 HD
ATOM     55  C   UNL     1      52.864  22.207  39.410  0.00  0.00    +0.000 A 
ATOM     56  H   UNL     1      53.339  21.554  40.159  0.00  0.00    +0.000 HD
ATOM     57  C   UNL     1      52.129  23.310  39.795  0.00  0.00    +0.000 A 
ATOM     58  N   UNL     1      51.967  23.628  41.142  0.00  0.00    +0.000 N 
ATOM     59  H   UNL     1      52.429  22.989  41.825  0.00  0.00    +0.000 HD
ENDBRANCH  37  38
ENDBRANCH   8  37
TORSDOF 4
