
 OpenBabel03252506353D

 46 50  0  0  1  0  0  0  0  0999 V2000
   44.4620   35.9020   45.0030 C   0  0  0  0  0  0  0  0  0  0  0  0
   45.0770   35.9090   43.7430 C   0  0  0  0  0  0  0  0  0  0  0  0
   45.9610   34.9120   43.4210 C   0  0  0  0  0  0  0  0  0  0  0  0
   46.1790   33.9680   44.3790 N   0  0  0  0  0  0  0  0  0  0  0  0
   45.5890   33.9730   45.5730 C   0  0  0  0  0  0  0  0  0  0  0  0
   44.7180   34.9370   45.9170 N   0  0  0  0  0  0  0  0  0  0  0  0
   45.9090   32.9260   46.4780 N   0  0  0  0  0  0  0  0  0  0  0  0
   45.1470   32.6360   47.6950 C   0  0  0  0  0  0  0  0  0  0  0  0
   46.2500   32.2410   48.6530 C   0  0  0  0  0  0  0  0  0  0  0  0
   47.5070   32.0770   47.8390 C   0  0  0  0  0  0  0  0  0  0  0  0
   46.9770   31.9650   46.4290 C   0  0  1  0  0  0  0  0  0  0  0  0
   43.7630   36.6900   45.2540 H   0  0  0  0  0  0  0  0  0  0  0  0
   46.4250   34.9220   42.4630 H   0  0  0  0  0  0  0  0  0  0  0  0
   44.7270   33.5830   48.0990 H   0  0  0  0  0  0  0  0  0  0  0  0
   44.3710   31.8830   47.5570 H   0  0  0  0  0  0  0  0  0  0  0  0
   45.9950   31.2110   49.0220 H   0  0  0  0  0  0  0  0  0  0  0  0
   46.3530   32.9080   49.5200 H   0  0  0  0  0  0  0  0  0  0  0  0
   48.0760   31.1730   48.1520 H   0  0  0  0  0  0  0  0  0  0  0  0
   48.0950   33.0130   47.9620 H   0  0  0  0  0  0  0  0  0  0  0  0
   47.7710   32.2480   45.7080 H   0  0  0  0  0  0  0  0  0  0  0  0
   44.7210   36.9870   42.8670 N   0  0  0  0  0  0  0  0  0  0  0  0
   44.6310   36.8050   41.8570 H   0  0  0  0  0  0  0  0  0  0  0  0
   44.5520   37.9420   43.2270 H   0  0  0  0  0  0  0  0  0  0  0  0
   46.4080   30.2790   46.1690 S   0  0  0  0  0  0  0  0  0  0  0  0
   45.6900   30.0100   44.5780 C   0  0  0  0  0  0  0  0  0  0  0  0
   45.8040   28.7560   44.0130 C   0  0  0  0  0  0  0  0  0  0  0  0
   46.3280   27.9420   44.5390 H   0  0  0  0  0  0  0  0  0  0  0  0
   45.2550   28.4810   42.7560 C   0  0  0  0  0  0  0  0  0  0  0  0
   45.3840   27.4760   42.3810 H   0  0  0  0  0  0  0  0  0  0  0  0
   44.5820   29.4300   42.0210 C   0  0  0  0  0  0  0  0  0  0  0  0
   44.5030   30.6540   42.6330 C   0  0  0  0  0  0  0  0  0  0  0  0
   45.0110   30.9800   43.8420 C   0  0  0  0  0  0  0  0  0  0  0  0
   44.9240   31.9530   44.2810 H   0  0  0  0  0  0  0  0  0  0  0  0
   43.6520   31.9590   41.7680 S   0  0  0  0  0  0  0  0  0  0  0  0
   43.0850   31.2730   40.2260 C   0  0  0  0  0  0  0  0  0  0  0  0
   42.3870   32.0550   39.3460 C   0  0  0  0  0  0  0  0  0  0  0  0
   42.1800   33.1010   39.5950 H   0  0  0  0  0  0  0  0  0  0  0  0
   41.9210   31.5770   38.1330 C   0  0  0  0  0  0  0  0  0  0  0  0
   41.3700   32.1910   37.4360 H   0  0  0  0  0  0  0  0  0  0  0  0
   42.1890   30.2590   37.8340 C   0  0  0  0  0  0  0  0  0  0  0  0
   41.8390   29.8570   36.8950 H   0  0  0  0  0  0  0  0  0  0  0  0
   42.8950   29.5070   38.7480 C   0  0  0  0  0  0  0  0  0  0  0  0
   43.0600   28.4710   38.4250 H   0  0  0  0  0  0  0  0  0  0  0  0
   43.3690   29.9570   39.9620 C   0  0  0  0  0  0  0  0  0  0  0  0
   44.0690   29.0410   40.7680 N   0  0  0  0  0  0  0  0  0  0  0  0
   44.2110   28.0700   40.4380 H   0  0  0  0  0  0  0  0  0  0  0  0
  1 12  1  0  0  0  0
  1  6  1  0  0  0  0
  2  1  2  0  0  0  0
  3  2  1  0  0  0  0
  3  4  2  0  0  0  0
  4  5  1  0  0  0  0
  5  6  2  0  0  0  0
  5  7  1  0  0  0  0
  7  8  1  0  0  0  0
  8 14  1  0  0  0  0
  8  9  1  0  0  0  0
  9 16  1  0  0  0  0
  9 17  1  0  0  0  0
 10 19  1  0  0  0  0
 10 18  1  0  0  0  0
 10  9  1  0  0  0  0
 11 20  1  6  0  0  0
 11  7  1  0  0  0  0
 11 10  1  0  0  0  0
 13  3  1  0  0  0  0
 15  8  1  0  0  0  0
 21 23  1  0  0  0  0
 21  2  1  0  0  0  0
 22 21  1  0  0  0  0
 24 11  1  0  0  0  0
 25 24  1  0  0  0  0
 26 27  1  0  0  0  0
 26 25  1  0  0  0  0
 28 26  2  0  0  0  0
 29 28  1  0  0  0  0
 30 31  2  0  0  0  0
 30 28  1  0  0  0  0
 31 32  1  0  0  0  0
 32 33  1  0  0  0  0
 32 25  2  0  0  0  0
 34 31  1  0  0  0  0
 35 34  1  0  0  0  0
 36 37  1  0  0  0  0
 36 35  2  0  0  0  0
 38 36  1  0  0  0  0
 39 38  1  0  0  0  0
 40 38  2  0  0  0  0
 40 42  1  0  0  0  0
 41 40  1  0  0  0  0
 42 44  2  0  0  0  0
 43 42  1  0  0  0  0
 44 35  1  0  0  0  0
 44 45  1  0  0  0  0
 45 30  1  0  0  0  0
 46 45  1  0  0  0  0
M  END
>  <minimizedAffinity>
-5.4255805

>  <minimizedRMSD>
0.304917246

$$$$
