
 OpenBabel03242523123D

 59 65  0  0  1  0  0  0  0  0999 V2000
   45.9400   31.4900   44.6870 C   0  0  0  0  0  0  0  0  0  0  0  0
   46.6900   32.5510   44.1350 C   0  0  0  0  0  0  0  0  0  0  0  0
   47.9270   32.1230   43.7190 C   0  0  0  0  0  0  0  0  0  0  0  0
   48.4100   30.8540   43.8110 C   0  0  0  0  0  0  0  0  0  0  0  0
   47.6080   29.8650   44.3720 C   0  0  0  0  0  0  0  0  0  0  0  0
   46.3530   30.1920   44.8150 C   0  0  0  0  0  0  0  0  0  0  0  0
   48.3760   28.7130   44.3230 O   0  0  0  0  0  0  0  0  0  0  0  0
   49.6130   28.9760   43.6890 C   0  0  2  0  0  0  0  0  0  0  0  0
   49.6410   30.3710   43.4080 O   0  0  0  0  0  0  0  0  0  0  0  0
   44.9090   31.4910   45.1020 H   0  0  0  0  0  0  0  0  0  0  0  0
   48.5000   32.8920   43.3060 H   0  0  0  0  0  0  0  0  0  0  0  0
   45.8400   29.3630   45.2190 H   0  0  0  0  0  0  0  0  0  0  0  0
   50.4570   28.7040   44.3590 H   0  0  0  0  0  0  0  0  0  0  0  0
   45.1540   35.9380   43.6710 C   0  0  0  0  0  0  0  0  0  0  0  0
   45.9020   34.8190   43.3060 C   0  0  0  0  0  0  0  0  0  0  0  0
   46.0360   33.7850   44.1820 C   0  0  0  0  0  0  0  0  0  0  0  0
   45.4160   33.9130   45.3960 N   0  0  0  0  0  0  0  0  0  0  0  0
   44.6980   34.9870   45.7450 C   0  0  0  0  0  0  0  0  0  0  0  0
   44.5730   35.9760   44.8960 N   0  0  0  0  0  0  0  0  0  0  0  0
   45.0420   36.7610   42.9850 H   0  0  0  0  0  0  0  0  0  0  0  0
   44.1860   35.1470   46.6840 H   0  0  0  0  0  0  0  0  0  0  0  0
   46.5040   34.8370   42.0480 N   0  0  0  0  0  0  0  0  0  0  0  0
   47.8200   35.3550   41.8450 C   0  0  0  0  0  0  0  0  0  0  0  0
   48.3800   35.1380   40.4680 C   0  0  0  0  0  0  0  0  0  0  0  0
   48.0720   33.9090   39.8970 N   0  0  0  0  0  0  0  0  0  0  0  0
   46.8030   33.4240   40.0600 C   0  0  0  0  0  0  0  0  0  0  0  0
   45.9320   34.3740   40.8470 C   0  0  0  0  0  0  0  0  0  0  0  0
   48.5650   35.0280   42.6080 H   0  0  0  0  0  0  0  0  0  0  0  0
   47.7490   36.4680   41.9990 H   0  0  0  0  0  0  0  0  0  0  0  0
   47.9470   35.9490   39.8140 H   0  0  0  0  0  0  0  0  0  0  0  0
   49.4650   35.3730   40.5050 H   0  0  0  0  0  0  0  0  0  0  0  0
   48.7140   33.4930   39.2250 H   0  0  0  0  0  0  0  0  0  0  0  0
   46.7070   32.4070   40.5170 H   0  0  0  0  0  0  0  0  0  0  0  0
   46.3010   33.3030   39.0560 H   0  0  0  0  0  0  0  0  0  0  0  0
   45.0140   33.7800   41.1130 H   0  0  0  0  0  0  0  0  0  0  0  0
   45.5980   35.1640   40.1300 H   0  0  0  0  0  0  0  0  0  0  0  0
   49.6190   28.2680   42.4830 O   0  0  0  0  0  0  0  0  0  0  0  0
   48.9260   28.5530   41.3430 C   0  0  0  0  0  0  0  0  0  0  0  0
   47.7200   28.0140   40.9440 C   0  0  0  0  0  0  0  0  0  0  0  0
   47.2740   27.2860   41.6050 H   0  0  0  0  0  0  0  0  0  0  0  0
   47.1660   28.4280   39.7510 C   0  0  0  0  0  0  0  0  0  0  0  0
   46.2110   27.9500   39.5120 H   0  0  0  0  0  0  0  0  0  0  0  0
   47.7360   29.3540   38.9140 C   0  0  0  0  0  0  0  0  0  0  0  0
   48.9220   29.8760   39.3170 C   0  0  0  0  0  0  0  0  0  0  0  0
   49.4920   29.4960   40.4770 C   0  0  0  0  0  0  0  0  0  0  0  0
   50.4540   29.9560   40.7490 H   0  0  0  0  0  0  0  0  0  0  0  0
   49.7220   31.0850   38.2810 S   0  0  0  0  0  0  0  0  0  0  0  0
   48.6410   31.2870   36.8770 C   0  0  0  0  0  0  0  0  0  0  0  0
   49.0830   32.1910   35.9440 C   0  0  0  0  0  0  0  0  0  0  0  0
   50.0180   32.7610   36.0200 H   0  0  0  0  0  0  0  0  0  0  0  0
   48.3140   32.4200   34.8140 C   0  0  0  0  0  0  0  0  0  0  0  0
   48.5860   33.1140   34.0290 H   0  0  0  0  0  0  0  0  0  0  0  0
   47.1290   31.7320   34.6640 C   0  0  0  0  0  0  0  0  0  0  0  0
   46.5200   31.9010   33.7870 H   0  0  0  0  0  0  0  0  0  0  0  0
   46.7670   30.8430   35.6560 C   0  0  0  0  0  0  0  0  0  0  0  0
   45.8090   30.3350   35.4600 H   0  0  0  0  0  0  0  0  0  0  0  0
   47.4920   30.5770   36.7990 C   0  0  0  0  0  0  0  0  0  0  0  0
   47.0330   29.6560   37.7390 N   0  0  0  0  0  0  0  0  0  0  0  0
   46.1230   29.1930   37.5240 H   0  0  0  0  0  0  0  0  0  0  0  0
  1  6  1  0  0  0  0
  1 10  1  0  0  0  0
  2 16  1  0  0  0  0
  2  1  2  0  0  0  0
  3  4  2  0  0  0  0
  3  2  1  0  0  0  0
  4  5  1  0  0  0  0
  5  6  2  0  0  0  0
  6 12  1  0  0  0  0
  7  5  1  0  0  0  0
  8  7  1  0  0  0  0
  8 13  1  1  0  0  0
  9  8  1  0  0  0  0
  9  4  1  0  0  0  0
 11  3  1  0  0  0  0
 14 19  1  0  0  0  0
 15 14  2  0  0  0  0
 15 16  1  0  0  0  0
 16 17  2  0  0  0  0
 17 18  1  0  0  0  0
 18 21  1  0  0  0  0
 19 18  2  0  0  0  0
 20 14  1  0  0  0  0
 22 15  1  0  0  0  0
 23 29  1  0  0  0  0
 23 22  1  0  0  0  0
 23 28  1  0  0  0  0
 24 31  1  0  0  0  0
 24 23  1  0  0  0  0
 25 26  1  0  0  0  0
 25 24  1  0  0  0  0
 26 33  1  0  0  0  0
 26 27  1  0  0  0  0
 27 35  1  0  0  0  0
 27 22  1  0  0  0  0
 30 24  1  0  0  0  0
 32 25  1  0  0  0  0
 34 26  1  0  0  0  0
 36 27  1  0  0  0  0
 37  8  1  0  0  0  0
 38 37  1  0  0  0  0
 39 38  1  0  0  0  0
 39 40  1  0  0  0  0
 41 39  2  0  0  0  0
 42 41  1  0  0  0  0
 43 44  2  0  0  0  0
 43 41  1  0  0  0  0
 44 45  1  0  0  0  0
 45 46  1  0  0  0  0
 45 38  2  0  0  0  0
 47 44  1  0  0  0  0
 48 47  1  0  0  0  0
 49 50  1  0  0  0  0
 49 48  2  0  0  0  0
 51 49  1  0  0  0  0
 52 51  1  0  0  0  0
 53 51  2  0  0  0  0
 53 55  1  0  0  0  0
 54 53  1  0  0  0  0
 55 57  2  0  0  0  0
 56 55  1  0  0  0  0
 57 48  1  0  0  0  0
 57 58  1  0  0  0  0
 58 43  1  0  0  0  0
 59 58  1  0  0  0  0
M  END
>  <minimizedAffinity>
-5.38931084

>  <minimizedRMSD>
4.88786268

$$$$
