REMARK  Name = 
REMARK  3 active torsions:
REMARK  status: ('A' for Active; 'I' for Inactive)
REMARK    1  A    between atoms: N_1  and  C_9
REMARK    2  A    between atoms: C_6  and  O_13
REMARK    3  A    between atoms: O_13  and  C_26
REMARK                            x       y       z     vdW  Elec       q    Type
REMARK                         _______ _______ _______ _____ _____    ______ ____
ROOT
ATOM      1  N   UNL     1      46.893  34.608  42.227  0.00  0.00    +0.000 N 
ATOM      2  C   UNL     1      48.334  34.781  42.265  0.00  0.00    +0.000 C 
ATOM      3  C   UNL     1      48.634  35.537  40.952  0.00  0.00    +0.000 C 
ATOM      4  C   UNL     1      48.358  34.609  39.796  0.00  0.00    +0.000 C 
ATOM      5  C   UNL     1      47.083  33.863  39.905  0.00  0.00    +0.000 C 
ATOM      6  C   UNL     1      46.178  34.255  41.027  0.00  0.00    +0.000 C 
ATOM      7  H   UNL     1      48.841  33.796  42.237  0.00  0.00    +0.000 HD
ATOM      8  H   UNL     1      48.608  35.401  43.131  0.00  0.00    +0.000 HD
ATOM      9  H   UNL     1      49.688  35.831  40.954  0.00  0.00    +0.000 HD
ATOM     10  H   UNL     1      47.919  36.389  40.923  0.00  0.00    +0.000 HD
ATOM     11  H   UNL     1      49.206  33.880  39.770  0.00  0.00    +0.000 HD
ATOM     12  H   UNL     1      48.459  35.189  38.852  0.00  0.00    +0.000 HD
ATOM     13  H   UNL     1      47.244  32.755  39.930  0.00  0.00    +0.000 HD
ATOM     14  H   UNL     1      46.509  34.031  38.964  0.00  0.00    +0.000 HD
ATOM     15  H   UNL     1      45.564  35.136  40.761  0.00  0.00    +0.000 HD
ENDROOT
BRANCH   1  18
ATOM     16  C   UNL     1      44.504  35.986  44.764  0.00  0.00    +0.000 A 
ATOM     17  C   UNL     1      45.227  35.889  43.568  0.00  0.00    +0.000 A 
ATOM     18  C   UNL     1      46.111  34.790  43.419  0.00  0.00    +0.000 A 
ATOM     19  N   UNL     1      46.200  33.904  44.441  0.00  0.00    +0.000 NA
ATOM     20  C   UNL     1      45.483  34.034  45.583  0.00  0.00    +0.000 A 
ATOM     21  N   UNL     1      44.636  35.081  45.734  0.00  0.00    +0.000 NA
ATOM     22  H   UNL     1      43.871  36.867  44.745  0.00  0.00    +0.000 HD
ATOM     23  H   UNL     1      45.180  36.573  42.738  0.00  0.00    +0.000 HD
ATOM     24  H   UNL     1      45.561  33.326  46.385  0.00  0.00    +0.000 HD
ENDBRANCH   1  18
BRANCH   6  25
ATOM     25  O   UNL     1      45.331  33.182  41.297  0.00  0.00    +0.000 OA
BRANCH  25  26
ATOM     26  C   UNL     1      43.950  33.178  41.249  0.00  0.00    +0.000 A 
ATOM     27  C   UNL     1      43.035  33.459  42.240  0.00  0.00    +0.000 A 
ATOM     28  H   UNL     1      43.460  33.718  43.180  0.00  0.00    +0.000 HD
ATOM     29  C   UNL     1      41.689  33.388  41.952  0.00  0.00    +0.000 A 
ATOM     30  H   UNL     1      41.048  33.632  42.813  0.00  0.00    +0.000 HD
ATOM     31  C   UNL     1      41.164  33.049  40.724  0.00  0.00    +0.000 A 
ATOM     32  C   UNL     1      42.077  32.769  39.738  0.00  0.00    +0.000 A 
ATOM     33  C   UNL     1      43.416  32.834  40.003  0.00  0.00    +0.000 A 
ATOM     34  H   UNL     1      44.067  32.593  39.153  0.00  0.00    +0.000 HD
ATOM     35  S   UNL     1      41.468  32.323  38.124  0.00  0.00    +0.000 S 
ATOM     36  C   UNL     1      39.699  32.365  38.234  0.00  0.00    +0.000 A 
ATOM     37  C   UNL     1      39.022  32.052  37.093  0.00  0.00    +0.000 A 
ATOM     38  H   UNL     1      39.502  31.793  36.175  0.00  0.00    +0.000 HD
ATOM     39  C   UNL     1      37.640  32.061  37.094  0.00  0.00    +0.000 A 
ATOM     40  H   UNL     1      37.007  31.829  36.248  0.00  0.00    +0.000 HD
ATOM     41  C   UNL     1      36.986  32.391  38.264  0.00  0.00    +0.000 A 
ATOM     42  H   UNL     1      35.905  32.408  38.300  0.00  0.00    +0.000 HD
ATOM     43  C   UNL     1      37.735  32.697  39.382  0.00  0.00    +0.000 A 
ATOM     44  H   UNL     1      37.152  32.950  40.278  0.00  0.00    +0.000 HD
ATOM     45  C   UNL     1      39.114  32.701  39.428  0.00  0.00    +0.000 A 
ATOM     46  N   UNL     1      39.756  33.031  40.628  0.00  0.00    +0.000 N 
ATOM     47  H   UNL     1      39.164  33.264  41.451  0.00  0.00    +0.000 HD
ENDBRANCH  25  26
ENDBRANCH   6  25
TORSDOF 3
