
     RDKit          3D

 49 53  0  0  0  0  0  0  0  0999 V2000
   45.1389   33.5072   41.1571 F   0  0  0  0  0  0  0  0  0  0  0  0
   46.3251   34.0827   41.0441 C   0  0  0  0  0  0  0  0  0  0  0  0
   46.8295   34.7978   42.1142 C   0  0  0  0  0  0  0  0  0  0  0  0
   48.0744   35.4384   42.0873 C   0  0  0  0  0  0  0  0  0  0  0  0
   48.8518   35.3576   40.9312 C   0  0  0  0  0  0  0  0  0  0  0  0
   48.3186   34.6371   39.8856 C   0  0  0  0  0  0  0  0  0  0  0  0
   47.1123   34.0115   39.8980 C   0  0  0  0  0  0  0  0  0  0  0  0
   45.4497   34.0214   45.4236 C   0  0  0  0  0  0  0  0  0  0  0  0
   44.6117   35.1257   45.6585 C   0  0  0  0  0  0  0  0  0  0  0  0
   44.5206   36.1478   44.6681 C   0  0  0  0  0  0  0  0  0  0  0  0
   45.2721   35.9732   43.5385 N   0  0  0  0  0  0  0  0  0  0  0  0
   46.0550   34.9093   43.3552 C   0  0  0  0  0  0  0  0  0  0  0  0
   46.1409   33.9461   44.2885 N   0  0  0  0  0  0  0  0  0  0  0  0
   45.5274   33.0150   46.4193 N   0  0  0  0  0  0  0  0  0  0  0  0
   46.6704   33.3189   38.8004 O   0  0  0  0  0  0  0  0  0  0  0  0
   48.0796   34.6616   36.9980 O   0  0  0  0  0  0  0  0  0  0  0  0
   47.3301   33.3775   37.2506 P   0  0  2  0  0  0  0  0  0  0  0  0
   46.0613   33.1946   36.1260 O   0  0  0  0  0  0  0  0  0  0  0  0
   48.3717   32.0785   36.9337 O   0  0  0  0  0  0  0  0  0  0  0  0
   48.4020   35.9845   42.9746 H   0  0  0  0  0  0  0  0  0  0  0  0
   49.8035   35.8663   40.9557 H   0  0  0  0  0  0  0  0  0  0  0  0
   49.0202   34.6464   39.0605 H   0  0  0  0  0  0  0  0  0  0  0  0
   44.0346   35.2437   46.5440 H   0  0  0  0  0  0  0  0  0  0  0  0
   43.8859   37.0091   44.8182 H   0  0  0  0  0  0  0  0  0  0  0  0
   45.2111   32.0109   46.4096 H   0  0  0  0  0  0  0  0  0  0  0  0
   45.9429   33.1513   47.3700 H   0  0  0  0  0  0  0  0  0  0  0  0
   46.0779   33.9628   35.5343 H   0  0  0  0  0  0  0  0  0  0  0  0
   47.8209   30.8059   36.8448 C   0  0  0  0  0  0  0  0  0  0  0  0
   47.4938   30.3365   35.5880 C   0  0  0  0  0  0  0  0  0  0  0  0
   47.6676   30.9530   34.7117 H   0  0  0  0  0  0  0  0  0  0  0  0
   46.9441   29.0714   35.4782 C   0  0  0  0  0  0  0  0  0  0  0  0
   46.7102   28.7677   34.4450 H   0  0  0  0  0  0  0  0  0  0  0  0
   46.6955   28.2335   36.5465 C   0  0  0  0  0  0  0  0  0  0  0  0
   47.0283   28.7263   37.7613 C   0  0  0  0  0  0  0  0  0  0  0  0
   47.5656   29.9539   37.9055 C   0  0  0  0  0  0  0  0  0  0  0  0
   47.8314   30.3414   38.9022 H   0  0  0  0  0  0  0  0  0  0  0  0
   46.7399   27.7078   39.1957 S   0  0  0  0  0  0  0  0  0  0  0  0
   46.0322   26.1936   38.5731 C   0  0  0  0  0  0  0  0  0  0  0  0
   45.7183   25.2348   39.5044 C   0  0  0  0  0  0  0  0  0  0  0  0
   45.8911   25.3886   40.5655 H   0  0  0  0  0  0  0  0  0  0  0  0
   45.1688   24.0364   39.1178 C   0  0  0  0  0  0  0  0  0  0  0  0
   44.9198   23.2816   39.8320 H   0  0  0  0  0  0  0  0  0  0  0  0
   44.9490   23.8382   37.7788 C   0  0  0  0  0  0  0  0  0  0  0  0
   44.5171   22.8948   37.4804 H   0  0  0  0  0  0  0  0  0  0  0  0
   45.2818   24.8294   36.8982 C   0  0  0  0  0  0  0  0  0  0  0  0
   45.0676   24.5742   35.8555 H   0  0  0  0  0  0  0  0  0  0  0  0
   45.8348   26.0503   37.2254 C   0  0  0  0  0  0  0  0  0  0  0  0
   46.1361   26.9915   36.2443 N   0  0  0  0  0  0  0  0  0  0  0  0
   45.9195   26.7159   35.2627 H   0  0  0  0  0  0  0  0  0  0  0  0
  2  1  1  0
  2  3  2  0
  3 12  1  0
  4  3  1  0
  5  4  2  0
  6  7  2  0
  6  5  1  0
  7  2  1  0
  8  9  2  0
  8 14  1  0
 10  9  1  0
 11 10  2  0
 12 11  1  0
 12 13  2  0
 13  8  1  0
 15  7  1  0
 16 17  2  0
 17 15  1  1
 18 17  1  0
 19 17  1  0
  4 20  1  0
  5 21  1  0
  6 22  1  0
  9 23  1  0
 10 24  1  0
 14 25  1  0
 14 26  1  0
 18 27  1  0
 28 29  2  0
 29 30  1  0
 29 31  1  0
 31 32  1  0
 31 33  2  0
 33 34  1  0
 34 35  2  0
 35 36  1  0
 34 37  1  0
 37 38  1  0
 38 39  2  0
 39 40  1  0
 39 41  1  0
 41 42  1  0
 41 43  2  0
 43 44  1  0
 43 45  1  0
 45 46  1  0
 45 47  2  0
 47 48  1  0
 48 49  1  0
 35 28  1  0
 47 38  1  0
 48 33  1  0
 19 28  1  0
M  ISO  8  20  14  21  14  22  14  23  14  24  14  27   3  30  16  32  16
M  ISO  6  36  16  40  16  42  16  44  16  46  16  49   5
M  END
>  <DihAtoms>  (1) 
16,18,27,28

>  <DihDeg>  (1) 
-55.071409293098284

$$$$
