REMARK  Name = 
REMARK  4 active torsions:
REMARK  status: ('A' for Active; 'I' for Inactive)
REMARK    1  A    between atoms: C_2  and  N_7
REMARK    2  A    between atoms: C_3  and  C_14
REMARK    3  A    between atoms: C_20  and  O_22
REMARK    4  A    between atoms: O_22  and  C_38
REMARK                            x       y       z     vdW  Elec       q    Type
REMARK                         _______ _______ _______ _____ _____    ______ ____
ROOT
ATOM      1  C   UNL     1      46.439  31.997  45.495  0.00  0.00    +0.000 A 
ATOM      2  C   UNL     1      46.755  32.741  44.337  0.00  0.00    +0.000 A 
ATOM      3  C   UNL     1      47.722  32.112  43.590  0.00  0.00    +0.000 A 
ATOM      4  C   UNL     1      48.326  30.931  43.890  0.00  0.00    +0.000 A 
ATOM      5  C   UNL     1      47.960  30.261  45.054  0.00  0.00    +0.000 A 
ATOM      6  C   UNL     1      47.000  30.806  45.866  0.00  0.00    +0.000 A 
ATOM      7  O   UNL     1      48.745  29.120  45.070  0.00  0.00    +0.000 OA
ATOM      8  C   UNL     1      49.543  29.058  43.904  0.00  0.00    +0.000 C 
ATOM      9  O   UNL     1      49.299  30.256  43.176  0.00  0.00    +0.000 OA
ATOM     10  H   UNL     1      45.700  32.213  46.297  0.00  0.00    +0.000 HD
ATOM     11  H   UNL     1      47.971  32.645  42.727  0.00  0.00    +0.000 HD
ATOM     12  H   UNL     1      46.806  30.210  46.715  0.00  0.00    +0.000 HD
ATOM     13  H   UNL     1      50.619  28.988  44.175  0.00  0.00    +0.000 HD
ENDROOT
BRANCH   2  16
ATOM     14  C   UNL     1      45.126  36.006  43.485  0.00  0.00    +0.000 A 
ATOM     15  C   UNL     1      45.915  34.880  43.255  0.00  0.00    +0.000 A 
ATOM     16  C   UNL     1      46.063  33.950  44.240  0.00  0.00    +0.000 A 
ATOM     17  N   UNL     1      45.414  34.187  45.422  0.00  0.00    +0.000 NA
ATOM     18  C   UNL     1      44.657  35.268  45.641  0.00  0.00    +0.000 A 
ATOM     19  N   UNL     1      44.519  36.156  44.689  0.00  0.00    +0.000 NA
ATOM     20  H   UNL     1      45.002  36.747  42.712  0.00  0.00    +0.000 HD
ATOM     21  H   UNL     1      44.121  35.511  46.548  0.00  0.00    +0.000 HD
BRANCH  15  22
ATOM     22  N   UNL     1      46.542  34.783  42.013  0.00  0.00    +0.000 N 
ATOM     23  C   UNL     1      47.867  35.269  41.793  0.00  0.00    +0.000 C 
ATOM     24  C   UNL     1      48.452  34.928  40.452  0.00  0.00    +0.000 C 
ATOM     25  N   UNL     1      48.141  33.657  39.983  0.00  0.00    +0.000 NA
ATOM     26  C   UNL     1      46.864  33.200  40.162  0.00  0.00    +0.000 C 
ATOM     27  C   UNL     1      45.988  34.223  40.845  0.00  0.00    +0.000 C 
ATOM     28  H   UNL     1      48.593  35.003  42.597  0.00  0.00    +0.000 HD
ATOM     29  H   UNL     1      47.805  36.392  41.848  0.00  0.00    +0.000 HD
ATOM     30  H   UNL     1      48.041  35.683  39.721  0.00  0.00    +0.000 HD
ATOM     31  H   UNL     1      49.538  35.155  40.491  0.00  0.00    +0.000 HD
ATOM     32  H   UNL     1      48.792  33.178  39.363  0.00  0.00    +0.000 HD
ATOM     33  H   UNL     1      46.748  32.227  40.703  0.00  0.00    +0.000 HD
ATOM     34  H   UNL     1      46.381  32.997  39.162  0.00  0.00    +0.000 HD
ATOM     35  H   UNL     1      45.059  33.663  41.143  0.00  0.00    +0.000 HD
ATOM     36  H   UNL     1      45.677  34.950  40.056  0.00  0.00    +0.000 HD
ENDBRANCH  15  22
ENDBRANCH   2  16
BRANCH   8  37
ATOM     37  O   UNL     1      49.095  27.968  43.152  0.00  0.00    +0.000 OA
BRANCH  37  38
ATOM     38  C   UNL     1      49.816  26.885  42.740  0.00  0.00    +0.000 A 
ATOM     39  C   UNL     1      49.436  25.560  42.795  0.00  0.00    +0.000 A 
ATOM     40  H   UNL     1      48.459  25.354  43.209  0.00  0.00    +0.000 HD
ATOM     41  C   UNL     1      50.303  24.596  42.328  0.00  0.00    +0.000 A 
ATOM     42  H   UNL     1      49.922  23.573  42.409  0.00  0.00    +0.000 HD
ATOM     43  C   UNL     1      51.544  24.861  41.802  0.00  0.00    +0.000 A 
ATOM     44  C   UNL     1      51.906  26.167  41.754  0.00  0.00    +0.000 A 
ATOM     45  C   UNL     1      51.083  27.136  42.201  0.00  0.00    +0.000 A 
ATOM     46  H   UNL     1      51.435  28.177  42.135  0.00  0.00    +0.000 HD
ATOM     47  S   UNL     1      53.503  26.589  41.084  0.00  0.00    +0.000 S 
ATOM     48  C   UNL     1      54.243  25.033  40.623  0.00  0.00    +0.000 A 
ATOM     49  C   UNL     1      55.497  25.139  40.078  0.00  0.00    +0.000 A 
ATOM     50  H   UNL     1      56.032  26.084  39.922  0.00  0.00    +0.000 HD
ATOM     51  C   UNL     1      56.159  23.985  39.686  0.00  0.00    +0.000 A 
ATOM     52  H   UNL     1      57.148  23.977  39.248  0.00  0.00    +0.000 HD
ATOM     53  C   UNL     1      55.534  22.768  39.858  0.00  0.00    +0.000 A 
ATOM     54  H   UNL     1      56.039  21.861  39.557  0.00  0.00    +0.000 HD
ATOM     55  C   UNL     1      54.272  22.762  40.416  0.00  0.00    +0.000 A 
ATOM     56  H   UNL     1      53.843  21.753  40.519  0.00  0.00    +0.000 HD
ATOM     57  C   UNL     1      53.568  23.877  40.823  0.00  0.00    +0.000 A 
ATOM     58  N   UNL     1      52.295  23.757  41.376  0.00  0.00    +0.000 N 
ATOM     59  H   UNL     1      51.918  22.788  41.459  0.00  0.00    +0.000 HD
ENDBRANCH  37  38
ENDBRANCH   8  37
TORSDOF 4
