
 OpenBabel03242520403D

 52 57  0  0  1  0  0  0  0  0999 V2000
   48.2310   29.8890   48.0140 C   0  0  0  0  0  0  0  0  0  0  0  0
   47.3420   30.7570   48.6100 C   0  0  0  0  0  0  0  0  0  0  0  0
   47.9400   31.5350   49.5190 N   0  0  0  0  0  0  0  0  0  0  0  0
   49.2240   31.1640   49.5050 C   0  0  0  0  0  0  0  0  0  0  0  0
   49.3970   30.1880   48.6140 N   0  0  0  0  0  0  0  0  0  0  0  0
   46.2910   30.8010   48.3680 H   0  0  0  0  0  0  0  0  0  0  0  0
   47.5120   32.2790   50.1180 H   0  0  0  0  0  0  0  0  0  0  0  0
   45.9460   32.2930   44.6980 C   0  0  0  0  0  0  0  0  0  0  0  0
   46.9850   32.5240   43.7620 C   0  0  0  0  0  0  0  0  0  0  0  0
   48.0220   31.5490   43.6570 C   0  0  0  0  0  0  0  0  0  0  0  0
   47.9670   30.4400   44.4560 N   0  0  0  0  0  0  0  0  0  0  0  0
   46.9460   30.2760   45.3320 C   0  0  0  0  0  0  0  0  0  0  0  0
   45.9540   31.1920   45.4460 N   0  0  0  0  0  0  0  0  0  0  0  0
   46.9770   29.1100   46.1100 N   0  0  0  0  0  0  0  0  0  0  0  0
   48.0750   28.8390   46.9790 C   0  0  2  0  0  0  0  0  0  0  0  0
   48.1020   27.4610   47.5420 C   0  0  0  0  0  0  0  0  0  0  0  0
   46.8600   26.8140   47.7320 N   0  0  0  0  0  0  0  0  0  0  0  0
   45.7230   27.6140   47.4230 C   0  0  0  0  0  0  0  0  0  0  0  0
   45.8800   28.1660   46.0340 C   0  0  0  0  0  0  0  0  0  0  0  0
   45.1930   33.0520   44.7390 H   0  0  0  0  0  0  0  0  0  0  0  0
   47.0720   33.3750   43.1170 H   0  0  0  0  0  0  0  0  0  0  0  0
   48.8260   31.6790   42.9670 H   0  0  0  0  0  0  0  0  0  0  0  0
   48.9970   28.8800   46.3200 H   0  0  0  0  0  0  0  0  0  0  0  0
   48.7620   26.7680   46.9800 H   0  0  0  0  0  0  0  0  0  0  0  0
   48.5930   27.5490   48.5520 H   0  0  0  0  0  0  0  0  0  0  0  0
   46.7200   26.4290   48.6980 H   0  0  0  0  0  0  0  0  0  0  0  0
   44.8440   26.9020   47.3680 H   0  0  0  0  0  0  0  0  0  0  0  0
   45.4450   28.3550   48.1880 H   0  0  0  0  0  0  0  0  0  0  0  0
   44.9490   28.6020   45.6340 H   0  0  0  0  0  0  0  0  0  0  0  0
   46.2170   27.3370   45.3920 H   0  0  0  0  0  0  0  0  0  0  0  0
   50.3230   31.6920   50.3070 C   0  0  0  0  0  0  0  0  0  0  0  0
   51.0670   32.8030   49.9690 C   0  0  0  0  0  0  0  0  0  0  0  0
   50.8270   33.3260   49.0530 H   0  0  0  0  0  0  0  0  0  0  0  0
   52.0790   33.2130   50.7960 C   0  0  0  0  0  0  0  0  0  0  0  0
   52.6160   34.1030   50.4510 H   0  0  0  0  0  0  0  0  0  0  0  0
   52.4300   32.5910   51.9720 C   0  0  0  0  0  0  0  0  0  0  0  0
   51.6740   31.4900   52.2810 C   0  0  0  0  0  0  0  0  0  0  0  0
   50.6560   31.0520   51.4790 C   0  0  0  0  0  0  0  0  0  0  0  0
   50.0880   30.1770   51.7660 H   0  0  0  0  0  0  0  0  0  0  0  0
   52.0380   30.6040   53.7810 S   0  0  0  0  0  0  0  0  0  0  0  0
   53.4020   31.4530   54.5480 C   0  0  0  0  0  0  0  0  0  0  0  0
   53.8970   30.9820   55.7330 C   0  0  0  0  0  0  0  0  0  0  0  0
   53.4620   30.1040   56.1950 H   0  0  0  0  0  0  0  0  0  0  0  0
   54.9500   31.5910   56.3790 C   0  0  0  0  0  0  0  0  0  0  0  0
   55.3920   31.2760   57.3140 H   0  0  0  0  0  0  0  0  0  0  0  0
   55.4940   32.7070   55.7790 C   0  0  0  0  0  0  0  0  0  0  0  0
   56.3220   33.2170   56.2520 H   0  0  0  0  0  0  0  0  0  0  0  0
   54.9680   33.1520   54.5860 C   0  0  0  0  0  0  0  0  0  0  0  0
   55.4570   34.0450   54.1740 H   0  0  0  0  0  0  0  0  0  0  0  0
   53.9180   32.5590   53.9220 C   0  0  0  0  0  0  0  0  0  0  0  0
   53.4980   33.1410   52.7060 N   0  0  0  0  0  0  0  0  0  0  0  0
   53.9860   33.9850   52.3510 H   0  0  0  0  0  0  0  0  0  0  0  0
  1  2  2  0  0  0  0
  1  5  1  0  0  0  0
  2  3  1  0  0  0  0
  3  7  1  0  0  0  0
  4  3  1  0  0  0  0
  4 31  1  0  0  0  0
  5  4  2  0  0  0  0
  6  2  1  0  0  0  0
  8 20  1  0  0  0  0
  8 13  1  0  0  0  0
  9  8  2  0  0  0  0
 10  9  1  0  0  0  0
 10 11  2  0  0  0  0
 11 12  1  0  0  0  0
 12 13  2  0  0  0  0
 12 14  1  0  0  0  0
 14 15  1  0  0  0  0
 15 23  1  6  0  0  0
 15 16  1  0  0  0  0
 15  1  1  0  0  0  0
 16 17  1  0  0  0  0
 16 25  1  0  0  0  0
 17 26  1  0  0  0  0
 18 17  1  0  0  0  0
 18 28  1  0  0  0  0
 19 14  1  0  0  0  0
 19 18  1  0  0  0  0
 21  9  1  0  0  0  0
 22 10  1  0  0  0  0
 24 16  1  0  0  0  0
 27 18  1  0  0  0  0
 29 19  1  0  0  0  0
 30 19  1  0  0  0  0
 31 38  1  0  0  0  0
 32 31  2  0  0  0  0
 32 34  1  0  0  0  0
 33 32  1  0  0  0  0
 34 36  2  0  0  0  0
 35 34  1  0  0  0  0
 36 37  1  0  0  0  0
 36 51  1  0  0  0  0
 37 40  1  0  0  0  0
 38 39  1  0  0  0  0
 38 37  2  0  0  0  0
 40 41  1  0  0  0  0
 41 42  1  0  0  0  0
 42 43  1  0  0  0  0
 42 44  2  0  0  0  0
 44 45  1  0  0  0  0
 46 47  1  0  0  0  0
 46 44  1  0  0  0  0
 48 46  2  0  0  0  0
 49 48  1  0  0  0  0
 50 41  2  0  0  0  0
 50 48  1  0  0  0  0
 51 50  1  0  0  0  0
 52 51  1  0  0  0  0
M  END
>  <minimizedAffinity>
-6.68947363

>  <minimizedRMSD>
2.28349352

$$$$
