
 OpenBabel03242520393D

 52 57  0  0  1  0  0  0  0  0999 V2000
   48.1870   30.0430   48.0000 C   0  0  0  0  0  0  0  0  0  0  0  0
   47.4830   30.9080   48.8090 C   0  0  0  0  0  0  0  0  0  0  0  0
   48.2830   31.5490   49.6670 N   0  0  0  0  0  0  0  0  0  0  0  0
   49.5120   31.0920   49.4070 C   0  0  0  0  0  0  0  0  0  0  0  0
   49.4550   30.1980   48.4180 N   0  0  0  0  0  0  0  0  0  0  0  0
   46.4140   31.0490   48.7520 H   0  0  0  0  0  0  0  0  0  0  0  0
   48.0220   32.2590   50.3920 H   0  0  0  0  0  0  0  0  0  0  0  0
   46.0650   33.0250   45.0680 C   0  0  0  0  0  0  0  0  0  0  0  0
   47.0490   33.1610   44.0550 C   0  0  0  0  0  0  0  0  0  0  0  0
   47.9000   32.0450   43.7930 C   0  0  0  0  0  0  0  0  0  0  0  0
   47.7290   30.9010   44.5230 N   0  0  0  0  0  0  0  0  0  0  0  0
   46.7690   30.8330   45.4780 C   0  0  0  0  0  0  0  0  0  0  0  0
   45.9530   31.8830   45.7410 N   0  0  0  0  0  0  0  0  0  0  0  0
   46.6720   29.6210   46.1750 N   0  0  0  0  0  0  0  0  0  0  0  0
   47.7770   29.1140   46.9200 C   0  0  2  0  0  0  0  0  0  0  0  0
   47.6230   27.7090   47.3900 C   0  0  0  0  0  0  0  0  0  0  0  0
   46.3120   27.2540   47.6530 N   0  0  0  0  0  0  0  0  0  0  0  0
   45.3000   28.2450   47.5010 C   0  0  0  0  0  0  0  0  0  0  0  0
   45.4320   28.8700   46.1410 C   0  0  0  0  0  0  0  0  0  0  0  0
   45.4530   33.8890   45.2250 H   0  0  0  0  0  0  0  0  0  0  0  0
   47.2210   34.0340   43.4600 H   0  0  0  0  0  0  0  0  0  0  0  0
   48.6560   32.1000   43.0420 H   0  0  0  0  0  0  0  0  0  0  0  0
   48.6370   29.0590   46.1820 H   0  0  0  0  0  0  0  0  0  0  0  0
   48.1130   26.9670   46.7260 H   0  0  0  0  0  0  0  0  0  0  0  0
   48.2020   27.6410   48.3540 H   0  0  0  0  0  0  0  0  0  0  0  0
   46.1900   26.8230   48.6020 H   0  0  0  0  0  0  0  0  0  0  0  0
   44.3140   27.6870   47.4840 H   0  0  0  0  0  0  0  0  0  0  0  0
   45.2100   28.9600   48.3340 H   0  0  0  0  0  0  0  0  0  0  0  0
   44.5560   29.4770   45.8580 H   0  0  0  0  0  0  0  0  0  0  0  0
   45.5750   28.0500   45.4210 H   0  0  0  0  0  0  0  0  0  0  0  0
   50.7660   31.4610   50.0540 C   0  0  0  0  0  0  0  0  0  0  0  0
   51.9780   31.5560   49.4000 C   0  0  0  0  0  0  0  0  0  0  0  0
   52.0110   31.3480   48.3400 H   0  0  0  0  0  0  0  0  0  0  0  0
   53.0970   31.9100   50.1070 C   0  0  0  0  0  0  0  0  0  0  0  0
   54.0140   31.9630   49.5090 H   0  0  0  0  0  0  0  0  0  0  0  0
   53.1190   32.1880   51.4550 C   0  0  0  0  0  0  0  0  0  0  0  0
   51.9000   32.0840   52.0750 C   0  0  0  0  0  0  0  0  0  0  0  0
   50.7620   31.7330   51.4040 C   0  0  0  0  0  0  0  0  0  0  0  0
   49.8250   31.6640   51.9390 H   0  0  0  0  0  0  0  0  0  0  0  0
   51.8080   32.4200   53.8210 S   0  0  0  0  0  0  0  0  0  0  0  0
   53.4580   32.8370   54.3410 C   0  0  0  0  0  0  0  0  0  0  0  0
   53.6810   33.1450   55.6550 C   0  0  0  0  0  0  0  0  0  0  0  0
   52.8640   33.1350   56.3650 H   0  0  0  0  0  0  0  0  0  0  0  0
   54.9350   33.4770   56.1250 C   0  0  0  0  0  0  0  0  0  0  0  0
   55.1860   33.7310   57.1460 H   0  0  0  0  0  0  0  0  0  0  0  0
   55.9660   33.4860   55.2100 C   0  0  0  0  0  0  0  0  0  0  0  0
   56.9650   33.7410   55.5360 H   0  0  0  0  0  0  0  0  0  0  0  0
   55.7000   33.1690   53.8950 C   0  0  0  0  0  0  0  0  0  0  0  0
   56.5750   33.2000   53.2320 H   0  0  0  0  0  0  0  0  0  0  0  0
   54.4570   32.8350   53.4040 C   0  0  0  0  0  0  0  0  0  0  0  0
   54.3570   32.5380   52.0270 N   0  0  0  0  0  0  0  0  0  0  0  0
   55.2050   32.5770   51.4330 H   0  0  0  0  0  0  0  0  0  0  0  0
  1  5  1  0  0  0  0
  1  2  2  0  0  0  0
  2  3  1  0  0  0  0
  3  7  1  0  0  0  0
  4  3  1  0  0  0  0
  4 31  1  0  0  0  0
  5  4  2  0  0  0  0
  6  2  1  0  0  0  0
  8 20  1  0  0  0  0
  8 13  1  0  0  0  0
  9  8  2  0  0  0  0
 10  9  1  0  0  0  0
 10 11  2  0  0  0  0
 11 12  1  0  0  0  0
 12 13  2  0  0  0  0
 12 14  1  0  0  0  0
 14 15  1  0  0  0  0
 15 23  1  6  0  0  0
 15 16  1  0  0  0  0
 15  1  1  0  0  0  0
 16 17  1  0  0  0  0
 16 25  1  0  0  0  0
 17 26  1  0  0  0  0
 18 17  1  0  0  0  0
 18 28  1  0  0  0  0
 19 14  1  0  0  0  0
 19 18  1  0  0  0  0
 21  9  1  0  0  0  0
 22 10  1  0  0  0  0
 24 16  1  0  0  0  0
 27 18  1  0  0  0  0
 29 19  1  0  0  0  0
 30 19  1  0  0  0  0
 31 38  1  0  0  0  0
 32 31  2  0  0  0  0
 32 34  1  0  0  0  0
 33 32  1  0  0  0  0
 34 36  2  0  0  0  0
 35 34  1  0  0  0  0
 36 51  1  0  0  0  0
 36 37  1  0  0  0  0
 37 40  1  0  0  0  0
 38 39  1  0  0  0  0
 38 37  2  0  0  0  0
 40 41  1  0  0  0  0
 41 42  1  0  0  0  0
 42 44  2  0  0  0  0
 42 43  1  0  0  0  0
 44 45  1  0  0  0  0
 46 47  1  0  0  0  0
 46 44  1  0  0  0  0
 48 46  2  0  0  0  0
 49 48  1  0  0  0  0
 50 48  1  0  0  0  0
 50 41  2  0  0  0  0
 51 50  1  0  0  0  0
 52 51  1  0  0  0  0
M  END
>  <minimizedAffinity>
-6.364851

>  <minimizedRMSD>
1.58760321

$$$$
