
 OpenBabel03242520403D

 52 57  0  0  1  0  0  0  0  0999 V2000
   47.9850   29.6740   48.0440 C   0  0  0  0  0  0  0  0  0  0  0  0
   47.3370   30.7980   48.5080 C   0  0  0  0  0  0  0  0  0  0  0  0
   48.0040   31.3800   49.5100 N   0  0  0  0  0  0  0  0  0  0  0  0
   49.0910   30.6240   49.6900 C   0  0  0  0  0  0  0  0  0  0  0  0
   49.0800   29.6110   48.8220 N   0  0  0  0  0  0  0  0  0  0  0  0
   46.4030   31.1630   48.1060 H   0  0  0  0  0  0  0  0  0  0  0  0
   47.7490   32.2420   50.0470 H   0  0  0  0  0  0  0  0  0  0  0  0
   46.1230   32.5030   44.8000 C   0  0  0  0  0  0  0  0  0  0  0  0
   47.1880   32.5890   43.8670 C   0  0  0  0  0  0  0  0  0  0  0  0
   48.0540   31.4620   43.7330 C   0  0  0  0  0  0  0  0  0  0  0  0
   47.8200   30.3560   44.5030 N   0  0  0  0  0  0  0  0  0  0  0  0
   46.7840   30.3350   45.3760 C   0  0  0  0  0  0  0  0  0  0  0  0
   45.9520   31.3950   45.5180 N   0  0  0  0  0  0  0  0  0  0  0  0
   46.6250   29.1590   46.1240 N   0  0  0  0  0  0  0  0  0  0  0  0
   47.6630   28.6920   46.9820 C   0  0  2  0  0  0  0  0  0  0  0  0
   47.4660   27.3120   47.5070 C   0  0  0  0  0  0  0  0  0  0  0  0
   46.1360   26.8690   47.6830 N   0  0  0  0  0  0  0  0  0  0  0  0
   45.1430   27.8500   47.3980 C   0  0  0  0  0  0  0  0  0  0  0  0
   45.3910   28.4060   46.0240 C   0  0  0  0  0  0  0  0  0  0  0  0
   45.5030   33.3730   44.8620 H   0  0  0  0  0  0  0  0  0  0  0  0
   47.4120   33.4310   43.2450 H   0  0  0  0  0  0  0  0  0  0  0  0
   48.8700   31.4800   43.0460 H   0  0  0  0  0  0  0  0  0  0  0  0
   48.5810   28.6010   46.3210 H   0  0  0  0  0  0  0  0  0  0  0  0
   48.0070   26.5380   46.9250 H   0  0  0  0  0  0  0  0  0  0  0  0
   47.9630   27.2930   48.5180 H   0  0  0  0  0  0  0  0  0  0  0  0
   45.9340   26.4860   48.6390 H   0  0  0  0  0  0  0  0  0  0  0  0
   44.1610   27.2910   47.3270 H   0  0  0  0  0  0  0  0  0  0  0  0
   44.9870   28.6060   48.1840 H   0  0  0  0  0  0  0  0  0  0  0  0
   44.5430   28.9970   45.6390 H   0  0  0  0  0  0  0  0  0  0  0  0
   45.5900   27.5520   45.3600 H   0  0  0  0  0  0  0  0  0  0  0  0
   50.1660   30.8060   50.6600 C   0  0  0  0  0  0  0  0  0  0  0  0
   50.6720   29.8010   51.4570 C   0  0  0  0  0  0  0  0  0  0  0  0
   50.2520   28.8080   51.3640 H   0  0  0  0  0  0  0  0  0  0  0  0
   51.6840   30.0830   52.3350 C   0  0  0  0  0  0  0  0  0  0  0  0
   52.0260   29.2250   52.9270 H   0  0  0  0  0  0  0  0  0  0  0  0
   52.2600   31.3220   52.4980 C   0  0  0  0  0  0  0  0  0  0  0  0
   51.7350   32.3010   51.6930 C   0  0  0  0  0  0  0  0  0  0  0  0
   50.7250   32.0560   50.8040 C   0  0  0  0  0  0  0  0  0  0  0  0
   50.3450   32.8620   50.1910 H   0  0  0  0  0  0  0  0  0  0  0  0
   52.4010   33.9460   51.8160 S   0  0  0  0  0  0  0  0  0  0  0  0
   53.6780   33.8810   53.0540 C   0  0  0  0  0  0  0  0  0  0  0  0
   54.3680   35.0230   53.3580 C   0  0  0  0  0  0  0  0  0  0  0  0
   54.1380   35.9510   52.8490 H   0  0  0  0  0  0  0  0  0  0  0  0
   55.3680   35.0420   54.3070 C   0  0  0  0  0  0  0  0  0  0  0  0
   55.9540   35.9030   54.5970 H   0  0  0  0  0  0  0  0  0  0  0  0
   55.6500   33.8530   54.9450 C   0  0  0  0  0  0  0  0  0  0  0  0
   56.4270   33.8230   55.6960 H   0  0  0  0  0  0  0  0  0  0  0  0
   54.9320   32.7240   54.6120 C   0  0  0  0  0  0  0  0  0  0  0  0
   55.2190   31.8200   55.1660 H   0  0  0  0  0  0  0  0  0  0  0  0
   53.9310   32.6820   53.6690 C   0  0  0  0  0  0  0  0  0  0  0  0
   53.2920   31.4410   53.4460 N   0  0  0  0  0  0  0  0  0  0  0  0
   53.5910   30.6110   53.9900 H   0  0  0  0  0  0  0  0  0  0  0  0
  1  2  2  0  0  0  0
  1  5  1  0  0  0  0
  2  3  1  0  0  0  0
  3  4  1  0  0  0  0
  3  7  1  0  0  0  0
  4 31  1  0  0  0  0
  5  4  2  0  0  0  0
  6  2  1  0  0  0  0
  8 20  1  0  0  0  0
  8 13  1  0  0  0  0
  9  8  2  0  0  0  0
 10  9  1  0  0  0  0
 10 11  2  0  0  0  0
 11 12  1  0  0  0  0
 12 13  2  0  0  0  0
 12 14  1  0  0  0  0
 14 15  1  0  0  0  0
 15 23  1  6  0  0  0
 15 16  1  0  0  0  0
 15  1  1  0  0  0  0
 16 17  1  0  0  0  0
 16 25  1  0  0  0  0
 17 26  1  0  0  0  0
 18 17  1  0  0  0  0
 18 28  1  0  0  0  0
 19 14  1  0  0  0  0
 19 18  1  0  0  0  0
 21  9  1  0  0  0  0
 22 10  1  0  0  0  0
 24 16  1  0  0  0  0
 27 18  1  0  0  0  0
 29 19  1  0  0  0  0
 30 19  1  0  0  0  0
 31 38  2  0  0  0  0
 31 32  1  0  0  0  0
 32 34  2  0  0  0  0
 33 32  1  0  0  0  0
 34 36  1  0  0  0  0
 34 35  1  0  0  0  0
 36 51  1  0  0  0  0
 37 40  1  0  0  0  0
 37 36  2  0  0  0  0
 38 37  1  0  0  0  0
 39 38  1  0  0  0  0
 40 41  1  0  0  0  0
 41 42  2  0  0  0  0
 41 50  1  0  0  0  0
 42 44  1  0  0  0  0
 43 42  1  0  0  0  0
 44 45  1  0  0  0  0
 44 46  2  0  0  0  0
 46 47  1  0  0  0  0
 48 46  1  0  0  0  0
 48 49  1  0  0  0  0
 50 48  2  0  0  0  0
 51 50  1  0  0  0  0
 51 52  1  0  0  0  0
M  END
>  <minimizedAffinity>
-6.08803415

>  <minimizedRMSD>
2.63992023

$$$$
