REMARK  Name = 
REMARK  2 active torsions:
REMARK  status: ('A' for Active; 'I' for Inactive)
REMARK    1  A    between atoms: C_8  and  C_13
REMARK    2  A    between atoms: C_16  and  C_31
REMARK                            x       y       z     vdW  Elec       q    Type
REMARK                         _______ _______ _______ _____ _____    ______ ____
ROOT
ATOM      1  C   UNL     1      48.186  30.014  48.023  0.00  0.00    +0.000 A 
ATOM      2  C   UNL     1      47.804  30.827  49.068  0.00  0.00    +0.000 A 
ATOM      3  N   UNL     1      48.858  31.299  49.742  0.00  0.00    +0.000 N 
ATOM      4  C   UNL     1      49.926  30.786  49.124  0.00  0.00    +0.000 A 
ATOM      5  N   UNL     1      49.528  30.023  48.105  0.00  0.00    +0.000 NA
ATOM      6  H   UNL     1      46.776  31.054  49.309  0.00  0.00    +0.000 HD
ATOM      7  H   UNL     1      48.865  31.935  50.574  0.00  0.00    +0.000 HD
ENDROOT
BRANCH   1  15
ATOM      8  C   UNL     1      45.944  33.513  45.849  0.00  0.00    +0.000 A 
ATOM      9  C   UNL     1      46.696  33.618  44.651  0.00  0.00    +0.000 A 
ATOM     10  C   UNL     1      47.297  32.432  44.131  0.00  0.00    +0.000 A 
ATOM     11  N   UNL     1      47.121  31.255  44.804  0.00  0.00    +0.000 NA
ATOM     12  C   UNL     1      46.390  31.219  45.945  0.00  0.00    +0.000 A 
ATOM     13  N   UNL     1      45.813  32.335  46.454  0.00  0.00    +0.000 NA
ATOM     14  N   UNL     1      46.268  29.968  46.566  0.00  0.00    +0.000 N 
ATOM     15  C   UNL     1      47.421  29.254  47.006  0.00  0.00    +0.000 C 
ATOM     16  C   UNL     1      47.167  27.842  47.406  0.00  0.00    +0.000 C 
ATOM     17  N   UNL     1      45.891  27.536  47.929  0.00  0.00    +0.000 NA
ATOM     18  C   UNL     1      45.027  28.659  48.076  0.00  0.00    +0.000 C 
ATOM     19  C   UNL     1      44.954  29.390  46.765  0.00  0.00    +0.000 C 
ATOM     20  H   UNL     1      45.514  34.429  46.197  0.00  0.00    +0.000 HD
ATOM     21  H   UNL     1      46.862  34.515  44.090  0.00  0.00    +0.000 HD
ATOM     22  H   UNL     1      47.873  32.461  43.233  0.00  0.00    +0.000 HD
ATOM     23  H   UNL     1      48.084  29.160  46.090  0.00  0.00    +0.000 HD
ATOM     24  H   UNL     1      47.388  27.110  46.602  0.00  0.00    +0.000 HD
ATOM     25  H   UNL     1      47.924  27.607  48.207  0.00  0.00    +0.000 HD
ATOM     26  H   UNL     1      45.914  27.035  48.851  0.00  0.00    +0.000 HD
ATOM     27  H   UNL     1      43.990  28.237  48.246  0.00  0.00    +0.000 HD
ATOM     28  H   UNL     1      45.225  29.296  48.952  0.00  0.00    +0.000 HD
ATOM     29  H   UNL     1      44.136  30.129  46.728  0.00  0.00    +0.000 HD
ATOM     30  H   UNL     1      44.816  28.632  45.979  0.00  0.00    +0.000 HD
ENDBRANCH   1  15
BRANCH   4  31
ATOM     31  C   UNL     1      51.335  30.979  49.449  0.00  0.00    +0.000 A 
ATOM     32  C   UNL     1      51.814  31.214  50.721  0.00  0.00    +0.000 A 
ATOM     33  H   UNL     1      51.108  31.260  51.538  0.00  0.00    +0.000 HD
ATOM     34  C   UNL     1      53.161  31.380  50.913  0.00  0.00    +0.000 A 
ATOM     35  H   UNL     1      53.452  31.562  51.954  0.00  0.00    +0.000 HD
ATOM     36  C   UNL     1      54.107  31.332  49.916  0.00  0.00    +0.000 A 
ATOM     37  C   UNL     1      53.600  31.097  48.664  0.00  0.00    +0.000 A 
ATOM     38  C   UNL     1      52.264  30.926  48.433  0.00  0.00    +0.000 A 
ATOM     39  H   UNL     1      51.913  30.743  47.427  0.00  0.00    +0.000 HD
ATOM     40  S   UNL     1      54.733  31.014  47.293  0.00  0.00    +0.000 S 
ATOM     41  C   UNL     1      56.359  31.279  47.968  0.00  0.00    +0.000 A 
ATOM     42  C   UNL     1      57.437  31.267  47.126  0.00  0.00    +0.000 A 
ATOM     43  H   UNL     1      57.299  31.098  46.065  0.00  0.00    +0.000 HD
ATOM     44  C   UNL     1      58.723  31.466  47.582  0.00  0.00    +0.000 A 
ATOM     45  H   UNL     1      59.619  31.470  46.978  0.00  0.00    +0.000 HD
ATOM     46  C   UNL     1      58.883  31.680  48.935  0.00  0.00    +0.000 A 
ATOM     47  H   UNL     1      59.874  31.841  49.336  0.00  0.00    +0.000 HD
ATOM     48  C   UNL     1      57.771  31.685  49.751  0.00  0.00    +0.000 A 
ATOM     49  H   UNL     1      57.985  31.862  50.813  0.00  0.00    +0.000 HD
ATOM     50  C   UNL     1      56.480  31.489  49.316  0.00  0.00    +0.000 A 
ATOM     51  N   UNL     1      55.452  31.524  50.285  0.00  0.00    +0.000 N 
ATOM     52  H   UNL     1      55.693  31.694  51.279  0.00  0.00    +0.000 HD
ENDBRANCH   4  31
TORSDOF 2
