
 OpenBabel03242520403D

 52 57  0  0  1  0  0  0  0  0999 V2000
   48.0980   30.0660   48.0210 C   0  0  0  0  0  0  0  0  0  0  0  0
   47.5890   30.6480   49.1620 C   0  0  0  0  0  0  0  0  0  0  0  0
   48.5310   31.3010   49.8500 N   0  0  0  0  0  0  0  0  0  0  0  0
   49.6540   31.1400   49.1440 C   0  0  0  0  0  0  0  0  0  0  0  0
   49.3980   30.4070   48.0600 N   0  0  0  0  0  0  0  0  0  0  0  0
   46.5530   30.5820   49.4600 H   0  0  0  0  0  0  0  0  0  0  0  0
   48.4290   31.8320   50.7470 H   0  0  0  0  0  0  0  0  0  0  0  0
   45.9740   33.3950   45.4900 C   0  0  0  0  0  0  0  0  0  0  0  0
   46.8520   33.4990   44.3820 C   0  0  0  0  0  0  0  0  0  0  0  0
   47.5580   32.3270   43.9730 C   0  0  0  0  0  0  0  0  0  0  0  0
   47.3560   31.1630   44.6620 N   0  0  0  0  0  0  0  0  0  0  0  0
   46.5020   31.1270   45.7140 C   0  0  0  0  0  0  0  0  0  0  0  0
   45.8240   32.2300   46.1160 N   0  0  0  0  0  0  0  0  0  0  0  0
   46.3620   29.8900   46.3600 N   0  0  0  0  0  0  0  0  0  0  0  0
   47.4870   29.2430   46.9510 C   0  0  2  0  0  0  0  0  0  0  0  0
   47.2480   27.8330   47.3680 C   0  0  0  0  0  0  0  0  0  0  0  0
   45.9350   27.4850   47.7540 N   0  0  0  0  0  0  0  0  0  0  0  0
   45.0130   28.5710   47.7640 C   0  0  0  0  0  0  0  0  0  0  0  0
   45.0600   29.2590   46.4290 C   0  0  0  0  0  0  0  0  0  0  0  0
   45.4690   34.3000   45.7560 H   0  0  0  0  0  0  0  0  0  0  0  0
   47.0430   34.3860   43.8120 H   0  0  0  0  0  0  0  0  0  0  0  0
   48.2310   32.3560   43.1460 H   0  0  0  0  0  0  0  0  0  0  0  0
   48.2530   29.1530   46.1190 H   0  0  0  0  0  0  0  0  0  0  0  0
   47.5900   27.0890   46.6190 H   0  0  0  0  0  0  0  0  0  0  0  0
   47.9180   27.6560   48.2570 H   0  0  0  0  0  0  0  0  0  0  0  0
   45.8740   27.0120   48.6890 H   0  0  0  0  0  0  0  0  0  0  0  0
   43.9820   28.1070   47.8310 H   0  0  0  0  0  0  0  0  0  0  0  0
   45.0830   29.2420   48.6350 H   0  0  0  0  0  0  0  0  0  0  0  0
   44.2210   29.9590   46.2750 H   0  0  0  0  0  0  0  0  0  0  0  0
   45.0440   28.4730   45.6590 H   0  0  0  0  0  0  0  0  0  0  0  0
   50.9880   31.6500   49.4430 C   0  0  0  0  0  0  0  0  0  0  0  0
   52.1590   31.0560   49.0220 C   0  0  0  0  0  0  0  0  0  0  0  0
   52.0960   30.1520   48.4300 H   0  0  0  0  0  0  0  0  0  0  0  0
   53.3610   31.6200   49.3600 C   0  0  0  0  0  0  0  0  0  0  0  0
   54.2380   31.0820   48.9810 H   0  0  0  0  0  0  0  0  0  0  0  0
   53.5060   32.7660   50.1080 C   0  0  0  0  0  0  0  0  0  0  0  0
   52.3240   33.3330   50.5130 C   0  0  0  0  0  0  0  0  0  0  0  0
   51.1080   32.7980   50.1950 C   0  0  0  0  0  0  0  0  0  0  0  0
   50.2040   33.2830   50.5370 H   0  0  0  0  0  0  0  0  0  0  0  0
   52.3890   34.8200   51.4870 S   0  0  0  0  0  0  0  0  0  0  0  0
   54.1140   35.2110   51.6960 C   0  0  0  0  0  0  0  0  0  0  0  0
   54.4610   36.3210   52.4160 C   0  0  0  0  0  0  0  0  0  0  0  0
   53.6940   36.9510   52.8500 H   0  0  0  0  0  0  0  0  0  0  0  0
   55.7760   36.6800   52.6160 C   0  0  0  0  0  0  0  0  0  0  0  0
   56.1240   37.5400   53.1720 H   0  0  0  0  0  0  0  0  0  0  0  0
   56.7410   35.8690   52.0570 C   0  0  0  0  0  0  0  0  0  0  0  0
   57.7850   36.1140   52.1890 H   0  0  0  0  0  0  0  0  0  0  0  0
   56.3500   34.7580   51.3390 C   0  0  0  0  0  0  0  0  0  0  0  0
   57.1790   34.1660   50.9270 H   0  0  0  0  0  0  0  0  0  0  0  0
   55.0440   34.3810   51.1260 C   0  0  0  0  0  0  0  0  0  0  0  0
   54.8150   33.2130   50.3650 N   0  0  0  0  0  0  0  0  0  0  0  0
   55.6240   32.6810   49.9940 H   0  0  0  0  0  0  0  0  0  0  0  0
  1  5  1  0  0  0  0
  1  2  2  0  0  0  0
  2  6  1  0  0  0  0
  2  3  1  0  0  0  0
  3  7  1  0  0  0  0
  4 31  1  0  0  0  0
  4  3  1  0  0  0  0
  5  4  2  0  0  0  0
  8 20  1  0  0  0  0
  8 13  1  0  0  0  0
  9  8  2  0  0  0  0
 10  9  1  0  0  0  0
 10 11  2  0  0  0  0
 11 12  1  0  0  0  0
 12 13  2  0  0  0  0
 12 14  1  0  0  0  0
 14 19  1  0  0  0  0
 14 15  1  0  0  0  0
 15 23  1  6  0  0  0
 15 16  1  0  0  0  0
 15  1  1  0  0  0  0
 16 17  1  0  0  0  0
 16 25  1  0  0  0  0
 17 18  1  0  0  0  0
 17 26  1  0  0  0  0
 18 27  1  0  0  0  0
 18 28  1  0  0  0  0
 19 18  1  0  0  0  0
 21  9  1  0  0  0  0
 22 10  1  0  0  0  0
 24 16  1  0  0  0  0
 29 19  1  0  0  0  0
 30 19  1  0  0  0  0
 31 38  1  0  0  0  0
 32 34  1  0  0  0  0
 32 31  2  0  0  0  0
 33 32  1  0  0  0  0
 34 36  2  0  0  0  0
 35 34  1  0  0  0  0
 36 51  1  0  0  0  0
 36 37  1  0  0  0  0
 37 40  1  0  0  0  0
 38 37  2  0  0  0  0
 38 39  1  0  0  0  0
 40 41  1  0  0  0  0
 41 42  1  0  0  0  0
 42 44  2  0  0  0  0
 42 43  1  0  0  0  0
 44 45  1  0  0  0  0
 46 47  1  0  0  0  0
 46 44  1  0  0  0  0
 48 46  2  0  0  0  0
 49 48  1  0  0  0  0
 50 48  1  0  0  0  0
 50 41  2  0  0  0  0
 51 50  1  0  0  0  0
 52 51  1  0  0  0  0
M  END
>  <minimizedAffinity>
-5.76901531

>  <minimizedRMSD>
1.10411763

$$$$
