
 OpenBabel03242518003D

 50 54  0  0  0  0  0  0  0  0999 V2000
   47.4660   32.3230   47.7600 C   0  0  0  0  0  0  0  0  0  0  0  0
   47.3480   31.3270   46.7490 C   0  0  0  0  0  0  0  0  0  0  0  0
   48.1000   30.1590   46.9290 C   0  0  0  0  0  0  0  0  0  0  0  0
   48.8830   30.0430   48.0320 N   0  0  0  0  0  0  0  0  0  0  0  0
   48.9670   31.0010   48.9590 C   0  0  0  0  0  0  0  0  0  0  0  0
   48.2650   32.1180   48.8140 N   0  0  0  0  0  0  0  0  0  0  0  0
   46.9240   33.2580   47.7080 H   0  0  0  0  0  0  0  0  0  0  0  0
   48.0350   29.3760   46.1770 H   0  0  0  0  0  0  0  0  0  0  0  0
   49.8210   30.8370   50.1300 C   0  0  0  0  0  0  0  0  0  0  0  0
   50.0400   29.5800   50.6570 C   0  0  0  0  0  0  0  0  0  0  0  0
   49.5690   28.7140   50.1880 H   0  0  0  0  0  0  0  0  0  0  0  0
   50.8500   29.4340   51.7660 C   0  0  0  0  0  0  0  0  0  0  0  0
   50.9670   28.4040   52.1130 H   0  0  0  0  0  0  0  0  0  0  0  0
   51.4690   30.4910   52.3970 C   0  0  0  0  0  0  0  0  0  0  0  0
   51.2350   31.7310   51.8540 C   0  0  0  0  0  0  0  0  0  0  0  0
   50.4440   31.8790   50.7690 C   0  0  0  0  0  0  0  0  0  0  0  0
   50.2780   32.8680   50.3640 H   0  0  0  0  0  0  0  0  0  0  0  0
   52.0070   33.1270   52.6270 S   0  0  0  0  0  0  0  0  0  0  0  0
   52.9510   32.5010   54.0040 C   0  0  0  0  0  0  0  0  0  0  0  0
   53.6290   33.4310   54.7370 C   0  0  0  0  0  0  0  0  0  0  0  0
   53.6220   34.4830   54.5330 H   0  0  0  0  0  0  0  0  0  0  0  0
   54.3770   33.0070   55.8150 C   0  0  0  0  0  0  0  0  0  0  0  0
   54.9480   33.6650   56.4560 H   0  0  0  0  0  0  0  0  0  0  0  0
   54.4230   31.6640   56.1250 C   0  0  0  0  0  0  0  0  0  0  0  0
   55.0020   31.3080   56.9650 H   0  0  0  0  0  0  0  0  0  0  0  0
   53.7060   30.7950   55.3290 C   0  0  0  0  0  0  0  0  0  0  0  0
   53.7790   29.7370   55.6220 H   0  0  0  0  0  0  0  0  0  0  0  0
   52.9390   31.1470   54.2380 C   0  0  0  0  0  0  0  0  0  0  0  0
   52.2620   30.1650   53.5180 N   0  0  0  0  0  0  0  0  0  0  0  0
   52.3640   29.1790   53.8360 H   0  0  0  0  0  0  0  0  0  0  0  0
   46.4850   31.5520   45.6010 C   0  0  0  0  0  0  0  0  0  0  0  0
   45.4470   31.8120   45.8280 H   0  0  0  0  0  0  0  0  0  0  0  0
   46.4080   30.5600   45.0640 H   0  0  0  0  0  0  0  0  0  0  0  0
   47.1890   32.5390   44.6850 C   0  0  0  0  0  0  0  0  0  0  0  0
   47.5490   31.9980   43.7790 H   0  0  0  0  0  0  0  0  0  0  0  0
   48.1440   32.9220   45.1520 H   0  0  0  0  0  0  0  0  0  0  0  0
   46.6930   34.4500   43.2210 C   0  0  0  0  0  0  0  0  0  0  0  0
   46.4060   33.7350   44.3700 C   0  0  0  0  0  0  0  0  0  0  0  0
   45.4070   34.0980   45.2410 C   0  0  0  0  0  0  0  0  0  0  0  0
   44.6670   35.2250   44.9470 C   0  0  0  0  0  0  0  0  0  0  0  0
   44.8820   35.9870   43.8400 C   0  0  0  0  0  0  0  0  0  0  0  0
   45.9070   35.5550   43.0110 C   0  0  0  0  0  0  0  0  0  0  0  0
   45.1250   33.6120   46.1330 H   0  0  0  0  0  0  0  0  0  0  0  0
   43.8520   35.5750   45.6000 H   0  0  0  0  0  0  0  0  0  0  0  0
   44.3130   36.8660   43.6000 H   0  0  0  0  0  0  0  0  0  0  0  0
   46.1050   36.1470   42.1110 H   0  0  0  0  0  0  0  0  0  0  0  0
   47.9510   34.0260   42.0890 S   0  0  0  0  0  0  0  0  0  0  0  0
   49.3190   34.4800   42.5520 O   0  0  0  0  0  0  0  0  0  0  0  0
   47.7310   34.8100   40.8080 O   0  0  0  0  0  0  0  0  0  0  0  0
   47.9320   32.7200   41.7090 H   0  0  0  0  0  0  0  0  0  0  0  0
  1  6  1  0  0  0  0
  2  3  1  0  0  0  0
  2  1  2  0  0  0  0
  3  4  2  0  0  0  0
  4  5  1  0  0  0  0
  5  9  1  0  0  0  0
  6  5  2  0  0  0  0
  7  1  1  0  0  0  0
  8  3  1  0  0  0  0
  9 10  2  0  0  0  0
  9 16  1  0  0  0  0
 10 12  1  0  0  0  0
 11 10  1  0  0  0  0
 12 13  1  0  0  0  0
 12 14  2  0  0  0  0
 14 29  1  0  0  0  0
 15 14  1  0  0  0  0
 15 18  1  0  0  0  0
 16 15  2  0  0  0  0
 17 16  1  0  0  0  0
 18 19  1  0  0  0  0
 19 28  2  0  0  0  0
 19 20  1  0  0  0  0
 20 22  2  0  0  0  0
 21 20  1  0  0  0  0
 22 24  1  0  0  0  0
 22 23  1  0  0  0  0
 24 25  1  0  0  0  0
 26 27  1  0  0  0  0
 26 24  2  0  0  0  0
 28 26  1  0  0  0  0
 29 30  1  0  0  0  0
 29 28  1  0  0  0  0
 31 32  1  0  0  0  0
 31  2  1  0  0  0  0
 33 31  1  0  0  0  0
 34 36  1  0  0  0  0
 34 31  1  0  0  0  0
 35 34  1  0  0  0  0
 37 38  1  0  0  0  0
 38 34  1  0  0  0  0
 38 39  2  0  0  0  0
 39 43  1  0  0  0  0
 40 39  1  0  0  0  0
 40 44  1  0  0  0  0
 41 40  2  0  0  0  0
 42 37  2  0  0  0  0
 42 41  1  0  0  0  0
 45 41  1  0  0  0  0
 46 42  1  0  0  0  0
 47 48  2  0  0  0  0
 47 37  1  0  0  0  0
 49 47  2  0  0  0  0
 50 47  1  0  0  0  0
M  END
>  <minimizedAffinity>
-7.66461563

>  <minimizedRMSD>
1.80192876

$$$$
