
 OpenBabel03242523353D

 50 55  0  0  0  0  0  0  0  0999 V2000
   36.9070   30.4100   36.2420 C   0  0  0  0  0  0  0  0  0  0  0  0
   37.5550   31.4740   36.9010 C   0  0  0  0  0  0  0  0  0  0  0  0
   37.5180   31.5330   38.2950 C   0  0  0  0  0  0  0  0  0  0  0  0
   36.8490   30.5470   38.9810 N   0  0  0  0  0  0  0  0  0  0  0  0
   36.2390   29.5370   38.3070 C   0  0  0  0  0  0  0  0  0  0  0  0
   36.2710   29.4760   36.9720 N   0  0  0  0  0  0  0  0  0  0  0  0
   36.9170   30.3340   35.1520 H   0  0  0  0  0  0  0  0  0  0  0  0
   38.0650   32.2220   36.3110 H   0  0  0  0  0  0  0  0  0  0  0  0
   38.1570   32.5890   39.0270 C   0  0  0  0  0  0  0  0  0  0  0  0
   37.5540   33.7650   39.4080 C   0  0  0  0  0  0  0  0  0  0  0  0
   36.5280   33.9340   39.1530 H   0  0  0  0  0  0  0  0  0  0  0  0
   38.2600   34.7320   40.1170 C   0  0  0  0  0  0  0  0  0  0  0  0
   37.6900   35.6370   40.3770 H   0  0  0  0  0  0  0  0  0  0  0  0
   39.5820   34.5750   40.4750 C   0  0  0  0  0  0  0  0  0  0  0  0
   40.1730   33.4050   40.0930 C   0  0  0  0  0  0  0  0  0  0  0  0
   39.4760   32.4770   39.4070 C   0  0  0  0  0  0  0  0  0  0  0  0
   40.0010   31.5570   39.1250 H   0  0  0  0  0  0  0  0  0  0  0  0
   41.8800   33.1550   40.5310 S   0  0  0  0  0  0  0  0  0  0  0  0
   42.3960   34.6090   41.4190 C   0  0  0  0  0  0  0  0  0  0  0  0
   43.6940   34.6390   41.8610 C   0  0  0  0  0  0  0  0  0  0  0  0
   44.3670   33.8250   41.6810 H   0  0  0  0  0  0  0  0  0  0  0  0
   44.1590   35.7340   42.5540 C   0  0  0  0  0  0  0  0  0  0  0  0
   45.1830   35.7570   42.9030 H   0  0  0  0  0  0  0  0  0  0  0  0
   43.3010   36.7860   42.7900 C   0  0  0  0  0  0  0  0  0  0  0  0
   43.6390   37.6550   43.3290 H   0  0  0  0  0  0  0  0  0  0  0  0
   42.0120   36.6870   42.3180 C   0  0  0  0  0  0  0  0  0  0  0  0
   41.3760   37.5590   42.5380 H   0  0  0  0  0  0  0  0  0  0  0  0
   41.4890   35.6200   41.6190 C   0  0  0  0  0  0  0  0  0  0  0  0
   40.1430   35.6500   41.1900 N   0  0  0  0  0  0  0  0  0  0  0  0
   39.5980   36.5020   41.4310 H   0  0  0  0  0  0  0  0  0  0  0  0
   35.5550   28.5420   39.1690 C   0  0  0  0  0  0  0  0  0  0  0  0
   36.0530   27.5550   39.0380 H   0  0  0  0  0  0  0  0  0  0  0  0
   34.5460   28.4420   38.7350 H   0  0  0  0  0  0  0  0  0  0  0  0
   35.6090   29.1260   40.8660 S   0  0  0  0  0  0  0  0  0  0  0  0
   36.9870   28.4070   41.7380 C   0  0  0  0  0  0  0  0  0  0  0  0
   37.8080   29.2530   42.4460 C   0  0  0  0  0  0  0  0  0  0  0  0
   38.8620   28.7080   43.1170 C   0  0  0  0  0  0  0  0  0  0  0  0
   39.1270   27.3350   43.1060 C   0  0  0  0  0  0  0  0  0  0  0  0
   40.1810   26.8510   43.7900 N   0  0  0  0  0  0  0  0  0  0  0  0
   40.4580   25.5360   43.7990 C   0  0  0  0  0  0  0  0  0  0  0  0
   39.6420   24.6800   43.0930 C   0  0  0  0  0  0  0  0  0  0  0  0
   38.5530   25.1780   42.3860 C   0  0  0  0  0  0  0  0  0  0  0  0
   38.2600   26.5450   42.3730 C   0  0  0  0  0  0  0  0  0  0  0  0
   37.1890   27.0520   41.6860 C   0  0  0  0  0  0  0  0  0  0  0  0
   37.7260   30.3260   42.5430 H   0  0  0  0  0  0  0  0  0  0  0  0
   39.5600   29.3110   43.7020 H   0  0  0  0  0  0  0  0  0  0  0  0
   41.3290   25.2560   44.3820 H   0  0  0  0  0  0  0  0  0  0  0  0
   39.8870   23.6330   43.1180 H   0  0  0  0  0  0  0  0  0  0  0  0
   37.9170   24.5010   41.8350 H   0  0  0  0  0  0  0  0  0  0  0  0
   36.5350   26.4010   41.1250 H   0  0  0  0  0  0  0  0  0  0  0  0
  1  2  2  0  0  0  0
  1  6  1  0  0  0  0
  2  3  1  0  0  0  0
  3  4  2  0  0  0  0
  3  9  1  0  0  0  0
  5  4  1  0  0  0  0
  5 31  1  0  0  0  0
  6  5  2  0  0  0  0
  7  1  1  0  0  0  0
  8  2  1  0  0  0  0
  9 16  2  0  0  0  0
  9 10  1  0  0  0  0
 10 12  2  0  0  0  0
 11 10  1  0  0  0  0
 12 13  1  0  0  0  0
 12 14  1  0  0  0  0
 14 29  1  0  0  0  0
 15 14  2  0  0  0  0
 15 18  1  0  0  0  0
 16 15  1  0  0  0  0
 17 16  1  0  0  0  0
 18 19  1  0  0  0  0
 19 28  2  0  0  0  0
 19 20  1  0  0  0  0
 20 22  2  0  0  0  0
 21 20  1  0  0  0  0
 22 24  1  0  0  0  0
 22 23  1  0  0  0  0
 24 25  1  0  0  0  0
 26 27  1  0  0  0  0
 26 24  2  0  0  0  0
 28 26  1  0  0  0  0
 29 30  1  0  0  0  0
 29 28  1  0  0  0  0
 31 34  1  0  0  0  0
 32 31  1  0  0  0  0
 33 31  1  0  0  0  0
 34 35  1  0  0  0  0
 35 36  1  0  0  0  0
 36 45  1  0  0  0  0
 36 37  2  0  0  0  0
 37 46  1  0  0  0  0
 38 37  1  0  0  0  0
 38 39  1  0  0  0  0
 39 40  2  0  0  0  0
 40 47  1  0  0  0  0
 41 48  1  0  0  0  0
 41 40  1  0  0  0  0
 42 41  2  0  0  0  0
 43 42  1  0  0  0  0
 43 38  2  0  0  0  0
 44 35  2  0  0  0  0
 44 43  1  0  0  0  0
 49 42  1  0  0  0  0
 50 44  1  0  0  0  0
M  END
>  <minimizedAffinity>
-8.05422497

$$$$

 OpenBabel03242523353D

 50 55  0  0  0  0  0  0  0  0999 V2000
   35.8330   25.7990   38.2480 C   0  0  0  0  0  0  0  0  0  0  0  0
   36.0350   27.1810   38.4400 C   0  0  0  0  0  0  0  0  0  0  0  0
   36.5700   27.6270   39.6500 C   0  0  0  0  0  0  0  0  0  0  0  0
   36.8820   26.7000   40.6160 N   0  0  0  0  0  0  0  0  0  0  0  0
   36.6720   25.3770   40.3890 C   0  0  0  0  0  0  0  0  0  0  0  0
   36.1610   24.9440   39.2330 N   0  0  0  0  0  0  0  0  0  0  0  0
   35.4170   25.4170   37.3120 H   0  0  0  0  0  0  0  0  0  0  0  0
   35.7700   27.8640   37.6460 H   0  0  0  0  0  0  0  0  0  0  0  0
   36.8010   29.0190   39.9100 C   0  0  0  0  0  0  0  0  0  0  0  0
   35.9340   29.8550   40.5760 C   0  0  0  0  0  0  0  0  0  0  0  0
   35.0070   29.4640   40.9400 H   0  0  0  0  0  0  0  0  0  0  0  0
   36.2490   31.1950   40.7780 C   0  0  0  0  0  0  0  0  0  0  0  0
   35.4920   31.7800   41.3210 H   0  0  0  0  0  0  0  0  0  0  0  0
   37.4260   31.7580   40.3340 C   0  0  0  0  0  0  0  0  0  0  0  0
   38.2800   30.9220   39.6730 C   0  0  0  0  0  0  0  0  0  0  0  0
   37.9620   29.6260   39.4850 C   0  0  0  0  0  0  0  0  0  0  0  0
   38.6850   29.0000   38.9480 H   0  0  0  0  0  0  0  0  0  0  0  0
   39.8150   31.6020   39.0790 S   0  0  0  0  0  0  0  0  0  0  0  0
   39.8220   33.3220   39.5410 C   0  0  0  0  0  0  0  0  0  0  0  0
   40.9220   34.0570   39.1820 C   0  0  0  0  0  0  0  0  0  0  0  0
   41.7400   33.6170   38.6470 H   0  0  0  0  0  0  0  0  0  0  0  0
   40.9920   35.3930   39.5070 C   0  0  0  0  0  0  0  0  0  0  0  0
   41.8610   35.9720   39.2230 H   0  0  0  0  0  0  0  0  0  0  0  0
   39.9440   35.9670   40.1930 C   0  0  0  0  0  0  0  0  0  0  0  0
   39.9740   37.0100   40.4600 H   0  0  0  0  0  0  0  0  0  0  0  0
   38.8730   35.1690   40.5220 C   0  0  0  0  0  0  0  0  0  0  0  0
   38.0690   35.6850   41.0690 H   0  0  0  0  0  0  0  0  0  0  0  0
   38.7440   33.8280   40.2250 C   0  0  0  0  0  0  0  0  0  0  0  0
   37.5850   33.1270   40.6230 N   0  0  0  0  0  0  0  0  0  0  0  0
   36.8640   33.6730   41.1370 H   0  0  0  0  0  0  0  0  0  0  0  0
   37.0540   24.4880   41.5140 C   0  0  0  0  0  0  0  0  0  0  0  0
   36.3720   23.6080   41.5200 H   0  0  0  0  0  0  0  0  0  0  0  0
   36.8200   25.0700   42.4220 H   0  0  0  0  0  0  0  0  0  0  0  0
   38.7790   24.0280   41.3170 S   0  0  0  0  0  0  0  0  0  0  0  0
   39.8170   24.9910   42.3990 C   0  0  0  0  0  0  0  0  0  0  0  0
   39.2050   25.8920   43.2380 C   0  0  0  0  0  0  0  0  0  0  0  0
   39.9950   26.6300   44.0700 C   0  0  0  0  0  0  0  0  0  0  0  0
   41.3860   26.4970   44.0920 C   0  0  0  0  0  0  0  0  0  0  0  0
   42.1170   27.2500   44.9370 N   0  0  0  0  0  0  0  0  0  0  0  0
   43.4550   27.1420   44.9830 C   0  0  0  0  0  0  0  0  0  0  0  0
   44.0790   26.2420   44.1460 C   0  0  0  0  0  0  0  0  0  0  0  0
   43.3260   25.4640   43.2730 C   0  0  0  0  0  0  0  0  0  0  0  0
   41.9330   25.5720   43.2210 C   0  0  0  0  0  0  0  0  0  0  0  0
   41.1750   24.8110   42.3710 C   0  0  0  0  0  0  0  0  0  0  0  0
   38.1490   26.1010   43.3280 H   0  0  0  0  0  0  0  0  0  0  0  0
   39.5870   27.3670   44.7650 H   0  0  0  0  0  0  0  0  0  0  0  0
   43.9430   27.7950   45.6990 H   0  0  0  0  0  0  0  0  0  0  0  0
   45.1510   26.1760   44.2040 H   0  0  0  0  0  0  0  0  0  0  0  0
   43.8210   24.7600   42.6200 H   0  0  0  0  0  0  0  0  0  0  0  0
   41.6410   24.0990   41.7060 H   0  0  0  0  0  0  0  0  0  0  0  0
  1  2  2  0  0  0  0
  1  6  1  0  0  0  0
  2  3  1  0  0  0  0
  3  9  1  0  0  0  0
  3  4  2  0  0  0  0
  5  4  1  0  0  0  0
  5 31  1  0  0  0  0
  6  5  2  0  0  0  0
  7  1  1  0  0  0  0
  8  2  1  0  0  0  0
  9 10  1  0  0  0  0
 10 12  2  0  0  0  0
 10 11  1  0  0  0  0
 12 13  1  0  0  0  0
 14 29  1  0  0  0  0
 14 12  1  0  0  0  0
 15 14  2  0  0  0  0
 16 15  1  0  0  0  0
 16  9  2  0  0  0  0
 17 16  1  0  0  0  0
 18 19  1  0  0  0  0
 18 15  1  0  0  0  0
 19 28  1  0  0  0  0
 20 22  1  0  0  0  0
 20 19  2  0  0  0  0
 21 20  1  0  0  0  0
 22 24  2  0  0  0  0
 23 22  1  0  0  0  0
 24 25  1  0  0  0  0
 24 26  1  0  0  0  0
 26 27  1  0  0  0  0
 28 26  2  0  0  0  0
 28 29  1  0  0  0  0
 29 30  1  0  0  0  0
 31 32  1  0  0  0  0
 31 33  1  0  0  0  0
 34 31  1  0  0  0  0
 34 35  1  0  0  0  0
 35 36  1  0  0  0  0
 36 45  1  0  0  0  0
 36 37  2  0  0  0  0
 37 38  1  0  0  0  0
 37 46  1  0  0  0  0
 38 39  1  0  0  0  0
 39 40  2  0  0  0  0
 40 47  1  0  0  0  0
 41 48  1  0  0  0  0
 41 40  1  0  0  0  0
 42 41  2  0  0  0  0
 43 42  1  0  0  0  0
 43 38  2  0  0  0  0
 44 35  2  0  0  0  0
 44 43  1  0  0  0  0
 49 42  1  0  0  0  0
 50 44  1  0  0  0  0
M  END
>  <minimizedAffinity>
-7.89944601

$$$$

 OpenBabel03242523353D

 50 55  0  0  0  0  0  0  0  0999 V2000
   35.2260   25.6310   37.7740 C   0  0  0  0  0  0  0  0  0  0  0  0
   35.4210   26.9930   38.0790 C   0  0  0  0  0  0  0  0  0  0  0  0
   36.2940   27.3390   39.1120 C   0  0  0  0  0  0  0  0  0  0  0  0
   36.9360   26.3360   39.7990 N   0  0  0  0  0  0  0  0  0  0  0  0
   36.7200   25.0350   39.4720 C   0  0  0  0  0  0  0  0  0  0  0  0
   35.8850   24.6970   38.4840 N   0  0  0  0  0  0  0  0  0  0  0  0
   34.5500   25.3260   36.9720 H   0  0  0  0  0  0  0  0  0  0  0  0
   34.8890   27.7390   37.5060 H   0  0  0  0  0  0  0  0  0  0  0  0
   36.5380   28.7060   39.4740 C   0  0  0  0  0  0  0  0  0  0  0  0
   35.6730   29.5030   40.1860 C   0  0  0  0  0  0  0  0  0  0  0  0
   34.7360   29.1000   40.5100 H   0  0  0  0  0  0  0  0  0  0  0  0
   36.0010   30.8220   40.4870 C   0  0  0  0  0  0  0  0  0  0  0  0
   35.2430   31.3770   41.0610 H   0  0  0  0  0  0  0  0  0  0  0  0
   37.1890   31.4000   40.0980 C   0  0  0  0  0  0  0  0  0  0  0  0
   38.0430   30.6030   39.3910 C   0  0  0  0  0  0  0  0  0  0  0  0
   37.7120   29.3270   39.1070 C   0  0  0  0  0  0  0  0  0  0  0  0
   38.4340   28.7320   38.5360 H   0  0  0  0  0  0  0  0  0  0  0  0
   39.5920   31.3040   38.8650 S   0  0  0  0  0  0  0  0  0  0  0  0
   39.6130   32.9860   39.4480 C   0  0  0  0  0  0  0  0  0  0  0  0
   40.7260   33.7310   39.1550 C   0  0  0  0  0  0  0  0  0  0  0  0
   41.5470   33.3200   38.6000 H   0  0  0  0  0  0  0  0  0  0  0  0
   40.8090   35.0390   39.5760 C   0  0  0  0  0  0  0  0  0  0  0  0
   41.6870   35.6270   39.3440 H   0  0  0  0  0  0  0  0  0  0  0  0
   39.7580   35.5760   40.2880 C   0  0  0  0  0  0  0  0  0  0  0  0
   39.7970   36.5980   40.6290 H   0  0  0  0  0  0  0  0  0  0  0  0
   38.6730   34.7700   40.5460 C   0  0  0  0  0  0  0  0  0  0  0  0
   37.8690   35.2570   41.1190 H   0  0  0  0  0  0  0  0  0  0  0  0
   38.5330   33.4560   40.1530 C   0  0  0  0  0  0  0  0  0  0  0  0
   37.3600   32.7430   40.4860 N   0  0  0  0  0  0  0  0  0  0  0  0
   36.6390   33.2600   41.0280 H   0  0  0  0  0  0  0  0  0  0  0  0
   37.4760   24.0570   40.2920 C   0  0  0  0  0  0  0  0  0  0  0  0
   38.5410   24.0670   39.9660 H   0  0  0  0  0  0  0  0  0  0  0  0
   37.0700   23.0730   40.0000 H   0  0  0  0  0  0  0  0  0  0  0  0
   37.2760   24.4890   42.0230 S   0  0  0  0  0  0  0  0  0  0  0  0
   37.7770   26.1730   42.3160 C   0  0  0  0  0  0  0  0  0  0  0  0
   36.8900   27.0020   42.9630 C   0  0  0  0  0  0  0  0  0  0  0  0
   37.2690   28.2920   43.1910 C   0  0  0  0  0  0  0  0  0  0  0  0
   38.5140   28.7860   42.7930 C   0  0  0  0  0  0  0  0  0  0  0  0
   38.8370   30.0690   43.0490 N   0  0  0  0  0  0  0  0  0  0  0  0
   40.0280   30.5710   42.6800 C   0  0  0  0  0  0  0  0  0  0  0  0
   40.9240   29.7500   42.0320 C   0  0  0  0  0  0  0  0  0  0  0  0
   40.5920   28.4260   41.7670 C   0  0  0  0  0  0  0  0  0  0  0  0
   39.3550   27.8970   42.1480 C   0  0  0  0  0  0  0  0  0  0  0  0
   39.0130   26.5940   41.9000 C   0  0  0  0  0  0  0  0  0  0  0  0
   35.9010   26.7590   43.3230 H   0  0  0  0  0  0  0  0  0  0  0  0
   36.6230   29.0120   43.6980 H   0  0  0  0  0  0  0  0  0  0  0  0
   40.1840   31.6140   42.9350 H   0  0  0  0  0  0  0  0  0  0  0  0
   41.8700   30.1780   41.7480 H   0  0  0  0  0  0  0  0  0  0  0  0
   41.3000   27.7870   41.2580 H   0  0  0  0  0  0  0  0  0  0  0  0
   39.6980   25.9320   41.3930 H   0  0  0  0  0  0  0  0  0  0  0  0
  1  2  2  0  0  0  0
  1  6  1  0  0  0  0
  2  3  1  0  0  0  0
  3  9  1  0  0  0  0
  3  4  2  0  0  0  0
  5  4  1  0  0  0  0
  5 31  1  0  0  0  0
  6  5  2  0  0  0  0
  7  1  1  0  0  0  0
  8  2  1  0  0  0  0
  9 10  1  0  0  0  0
 10 12  2  0  0  0  0
 10 11  1  0  0  0  0
 12 13  1  0  0  0  0
 14 29  1  0  0  0  0
 14 12  1  0  0  0  0
 15 14  2  0  0  0  0
 16 15  1  0  0  0  0
 16  9  2  0  0  0  0
 17 16  1  0  0  0  0
 18 15  1  0  0  0  0
 18 19  1  0  0  0  0
 19 28  1  0  0  0  0
 20 19  2  0  0  0  0
 20 22  1  0  0  0  0
 21 20  1  0  0  0  0
 22 24  2  0  0  0  0
 23 22  1  0  0  0  0
 24 26  1  0  0  0  0
 24 25  1  0  0  0  0
 26 27  1  0  0  0  0
 28 29  1  0  0  0  0
 28 26  2  0  0  0  0
 29 30  1  0  0  0  0
 31 34  1  0  0  0  0
 32 31  1  0  0  0  0
 33 31  1  0  0  0  0
 34 35  1  0  0  0  0
 35 36  1  0  0  0  0
 36 37  2  0  0  0  0
 36 45  1  0  0  0  0
 37 46  1  0  0  0  0
 38 39  1  0  0  0  0
 38 37  1  0  0  0  0
 40 47  1  0  0  0  0
 40 39  2  0  0  0  0
 41 40  1  0  0  0  0
 42 41  2  0  0  0  0
 42 43  1  0  0  0  0
 43 38  2  0  0  0  0
 44 43  1  0  0  0  0
 44 35  2  0  0  0  0
 48 41  1  0  0  0  0
 49 42  1  0  0  0  0
 50 44  1  0  0  0  0
M  END
>  <minimizedAffinity>
-7.80949259

$$$$

 OpenBabel03242523353D

 50 55  0  0  0  0  0  0  0  0999 V2000
   37.0480   25.4150   40.7390 C   0  0  0  0  0  0  0  0  0  0  0  0
   36.9400   26.7970   40.4830 C   0  0  0  0  0  0  0  0  0  0  0  0
   37.7050   27.6890   41.2360 C   0  0  0  0  0  0  0  0  0  0  0  0
   38.5410   27.1880   42.2050 N   0  0  0  0  0  0  0  0  0  0  0  0
   38.6160   25.8480   42.4190 C   0  0  0  0  0  0  0  0  0  0  0  0
   37.8860   24.9880   41.7010 N   0  0  0  0  0  0  0  0  0  0  0  0
   36.4630   24.6890   40.1680 H   0  0  0  0  0  0  0  0  0  0  0  0
   36.2650   27.1340   39.7090 H   0  0  0  0  0  0  0  0  0  0  0  0
   37.6420   29.1070   41.0260 C   0  0  0  0  0  0  0  0  0  0  0  0
   36.4840   29.8360   40.8880 C   0  0  0  0  0  0  0  0  0  0  0  0
   35.5400   29.3340   40.9370 H   0  0  0  0  0  0  0  0  0  0  0  0
   36.5270   31.2120   40.6860 C   0  0  0  0  0  0  0  0  0  0  0  0
   35.5480   31.7050   40.5880 H   0  0  0  0  0  0  0  0  0  0  0  0
   37.7090   31.9170   40.6140 C   0  0  0  0  0  0  0  0  0  0  0  0
   38.8540   31.1860   40.7510 C   0  0  0  0  0  0  0  0  0  0  0  0
   38.7970   29.8530   40.9470 C   0  0  0  0  0  0  0  0  0  0  0  0
   39.7470   29.3160   41.0500 H   0  0  0  0  0  0  0  0  0  0  0  0
   40.4080   32.0510   40.6650 S   0  0  0  0  0  0  0  0  0  0  0  0
   40.0200   33.7680   40.4020 C   0  0  0  0  0  0  0  0  0  0  0  0
   41.0780   34.6350   40.3020 C   0  0  0  0  0  0  0  0  0  0  0  0
   42.0920   34.2950   40.3780 H   0  0  0  0  0  0  0  0  0  0  0  0
   40.8490   35.9780   40.0980 C   0  0  0  0  0  0  0  0  0  0  0  0
   41.6840   36.6620   40.0190 H   0  0  0  0  0  0  0  0  0  0  0  0
   39.5490   36.4240   39.9970 C   0  0  0  0  0  0  0  0  0  0  0  0
   39.3430   37.4690   39.8380 H   0  0  0  0  0  0  0  0  0  0  0  0
   38.5380   35.4980   40.1080 C   0  0  0  0  0  0  0  0  0  0  0  0
   37.5230   35.9160   40.0200 H   0  0  0  0  0  0  0  0  0  0  0  0
   38.7030   34.1440   40.3120 C   0  0  0  0  0  0  0  0  0  0  0  0
   37.5720   33.3030   40.4050 N   0  0  0  0  0  0  0  0  0  0  0  0
   36.6430   33.7610   40.3140 H   0  0  0  0  0  0  0  0  0  0  0  0
   39.5580   25.4440   43.4920 C   0  0  0  0  0  0  0  0  0  0  0  0
   39.2910   24.4190   43.8340 H   0  0  0  0  0  0  0  0  0  0  0  0
   39.3310   26.1220   44.3330 H   0  0  0  0  0  0  0  0  0  0  0  0
   41.2320   25.5480   42.8510 S   0  0  0  0  0  0  0  0  0  0  0  0
   41.9610   27.1270   43.2400 C   0  0  0  0  0  0  0  0  0  0  0  0
   41.8310   28.1370   42.3160 C   0  0  0  0  0  0  0  0  0  0  0  0
   42.3860   29.3480   42.6100 C   0  0  0  0  0  0  0  0  0  0  0  0
   43.0700   29.5860   43.8050 C   0  0  0  0  0  0  0  0  0  0  0  0
   43.5950   30.8040   44.0440 N   0  0  0  0  0  0  0  0  0  0  0  0
   44.2560   31.0630   45.1850 C   0  0  0  0  0  0  0  0  0  0  0  0
   44.3920   30.0580   46.1170 C   0  0  0  0  0  0  0  0  0  0  0  0
   43.8510   28.8010   45.8720 C   0  0  0  0  0  0  0  0  0  0  0  0
   43.1620   28.5250   44.6870 C   0  0  0  0  0  0  0  0  0  0  0  0
   42.6190   27.2940   44.4310 C   0  0  0  0  0  0  0  0  0  0  0  0
   41.3340   28.0960   41.3580 H   0  0  0  0  0  0  0  0  0  0  0  0
   42.3270   30.2000   41.9290 H   0  0  0  0  0  0  0  0  0  0  0  0
   44.6370   32.0750   45.2730 H   0  0  0  0  0  0  0  0  0  0  0  0
   44.9250   30.2930   47.0210 H   0  0  0  0  0  0  0  0  0  0  0  0
   43.9610   28.0170   46.6080 H   0  0  0  0  0  0  0  0  0  0  0  0
   42.7130   26.4910   45.1460 H   0  0  0  0  0  0  0  0  0  0  0  0
  1  6  1  0  0  0  0
  2  1  2  0  0  0  0
  2  3  1  0  0  0  0
  3  4  2  0  0  0  0
  4  5  1  0  0  0  0
  5 31  1  0  0  0  0
  6  5  2  0  0  0  0
  7  1  1  0  0  0  0
  8  2  1  0  0  0  0
  9  3  1  0  0  0  0
 10 11  1  0  0  0  0
 10  9  2  0  0  0  0
 12 10  1  0  0  0  0
 13 12  1  0  0  0  0
 14 12  2  0  0  0  0
 14 15  1  0  0  0  0
 15 16  2  0  0  0  0
 16  9  1  0  0  0  0
 16 17  1  0  0  0  0
 18 15  1  0  0  0  0
 19 18  1  0  0  0  0
 20 21  1  0  0  0  0
 20 19  2  0  0  0  0
 22 20  1  0  0  0  0
 23 22  1  0  0  0  0
 24 22  2  0  0  0  0
 24 26  1  0  0  0  0
 25 24  1  0  0  0  0
 26 28  2  0  0  0  0
 27 26  1  0  0  0  0
 28 19  1  0  0  0  0
 28 29  1  0  0  0  0
 29 14  1  0  0  0  0
 30 29  1  0  0  0  0
 31 32  1  0  0  0  0
 31 33  1  0  0  0  0
 34 35  1  0  0  0  0
 34 31  1  0  0  0  0
 35 44  1  0  0  0  0
 36 37  1  0  0  0  0
 36 35  2  0  0  0  0
 37 38  2  0  0  0  0
 38 39  1  0  0  0  0
 38 43  1  0  0  0  0
 39 40  2  0  0  0  0
 40 47  1  0  0  0  0
 40 41  1  0  0  0  0
 41 48  1  0  0  0  0
 42 41  2  0  0  0  0
 42 49  1  0  0  0  0
 43 42  1  0  0  0  0
 44 43  2  0  0  0  0
 44 50  1  0  0  0  0
 45 36  1  0  0  0  0
 46 37  1  0  0  0  0
M  END
>  <minimizedAffinity>
-7.62420988

$$$$

 OpenBabel03242523353D

 50 55  0  0  0  0  0  0  0  0999 V2000
   38.8690   34.9000   40.4440 C   0  0  0  0  0  0  0  0  0  0  0  0
   38.5230   33.5400   40.3140 C   0  0  0  0  0  0  0  0  0  0  0  0
   39.3950   32.6790   39.6470 C   0  0  0  0  0  0  0  0  0  0  0  0
   40.5670   33.1870   39.1380 N   0  0  0  0  0  0  0  0  0  0  0  0
   40.8630   34.5050   39.2870 C   0  0  0  0  0  0  0  0  0  0  0  0
   40.0310   35.3350   39.9250 N   0  0  0  0  0  0  0  0  0  0  0  0
   38.2090   35.6020   40.9610 H   0  0  0  0  0  0  0  0  0  0  0  0
   37.5880   33.1960   40.7330 H   0  0  0  0  0  0  0  0  0  0  0  0
   39.1030   31.2830   39.4800 C   0  0  0  0  0  0  0  0  0  0  0  0
   39.2470   30.5790   38.3070 C   0  0  0  0  0  0  0  0  0  0  0  0
   39.6040   31.0850   37.4340 H   0  0  0  0  0  0  0  0  0  0  0  0
   38.9350   29.2250   38.2460 C   0  0  0  0  0  0  0  0  0  0  0  0
   39.0850   28.7510   37.2640 H   0  0  0  0  0  0  0  0  0  0  0  0
   38.4720   28.5170   39.3340 C   0  0  0  0  0  0  0  0  0  0  0  0
   38.3310   29.2240   40.4940 C   0  0  0  0  0  0  0  0  0  0  0  0
   38.6370   30.5360   40.5390 C   0  0  0  0  0  0  0  0  0  0  0  0
   38.5050   31.0540   41.4960 H   0  0  0  0  0  0  0  0  0  0  0  0
   37.7350   28.3550   41.9290 S   0  0  0  0  0  0  0  0  0  0  0  0
   37.4620   26.6690   41.4260 C   0  0  0  0  0  0  0  0  0  0  0  0
   36.9960   25.8030   42.3810 C   0  0  0  0  0  0  0  0  0  0  0  0
   36.8040   26.1260   43.3850 H   0  0  0  0  0  0  0  0  0  0  0  0
   36.7630   24.4850   42.0600 C   0  0  0  0  0  0  0  0  0  0  0  0
   36.3950   23.8020   42.8150 H   0  0  0  0  0  0  0  0  0  0  0  0
   37.0060   24.0610   40.7720 C   0  0  0  0  0  0  0  0  0  0  0  0
   36.8320   23.0350   40.4930 H   0  0  0  0  0  0  0  0  0  0  0  0
   37.4740   24.9840   39.8650 C   0  0  0  0  0  0  0  0  0  0  0  0
   37.6480   24.5840   38.8540 H   0  0  0  0  0  0  0  0  0  0  0  0
   37.7260   26.3150   40.1260 C   0  0  0  0  0  0  0  0  0  0  0  0
   38.2050   27.1550   39.0970 N   0  0  0  0  0  0  0  0  0  0  0  0
   38.3490   26.7150   38.1660 H   0  0  0  0  0  0  0  0  0  0  0  0
   42.1570   34.9190   38.6910 C   0  0  0  0  0  0  0  0  0  0  0  0
   42.3690   35.9690   38.9950 H   0  0  0  0  0  0  0  0  0  0  0  0
   41.9700   34.9410   37.6040 H   0  0  0  0  0  0  0  0  0  0  0  0
   43.4270   33.7700   39.2320 S   0  0  0  0  0  0  0  0  0  0  0  0
   43.9570   34.1490   40.8900 C   0  0  0  0  0  0  0  0  0  0  0  0
   44.9160   33.3430   41.4560 C   0  0  0  0  0  0  0  0  0  0  0  0
   45.3270   33.6300   42.7240 C   0  0  0  0  0  0  0  0  0  0  0  0
   44.8090   34.7040   43.4520 C   0  0  0  0  0  0  0  0  0  0  0  0
   45.2550   34.9430   44.7010 N   0  0  0  0  0  0  0  0  0  0  0  0
   44.7770   35.9700   45.4240 C   0  0  0  0  0  0  0  0  0  0  0  0
   43.8160   36.7850   44.8670 C   0  0  0  0  0  0  0  0  0  0  0  0
   43.3550   36.5390   43.5790 C   0  0  0  0  0  0  0  0  0  0  0  0
   43.8470   35.4730   42.8210 C   0  0  0  0  0  0  0  0  0  0  0  0
   43.4080   35.2190   41.5490 C   0  0  0  0  0  0  0  0  0  0  0  0
   45.4010   32.4840   41.0150 H   0  0  0  0  0  0  0  0  0  0  0  0
   46.0840   33.0380   43.2430 H   0  0  0  0  0  0  0  0  0  0  0  0
   45.2050   36.0700   46.4160 H   0  0  0  0  0  0  0  0  0  0  0  0
   43.4510   37.5990   45.4680 H   0  0  0  0  0  0  0  0  0  0  0  0
   42.6000   37.1830   43.1480 H   0  0  0  0  0  0  0  0  0  0  0  0
   42.6550   35.8430   41.0910 H   0  0  0  0  0  0  0  0  0  0  0  0
  1  7  1  0  0  0  0
  2  1  1  0  0  0  0
  2  8  1  0  0  0  0
  3  2  2  0  0  0  0
  4  5  2  0  0  0  0
  4  3  1  0  0  0  0
  5  6  1  0  0  0  0
  6  1  2  0  0  0  0
  9  3  1  0  0  0  0
  9 16  1  0  0  0  0
 10  9  2  0  0  0  0
 11 10  1  0  0  0  0
 12 10  1  0  0  0  0
 12 14  2  0  0  0  0
 13 12  1  0  0  0  0
 14 15  1  0  0  0  0
 15 16  2  0  0  0  0
 15 18  1  0  0  0  0
 16 17  1  0  0  0  0
 19 18  1  0  0  0  0
 19 20  1  0  0  0  0
 20 21  1  0  0  0  0
 22 20  2  0  0  0  0
 22 23  1  0  0  0  0
 24 22  1  0  0  0  0
 25 24  1  0  0  0  0
 26 28  1  0  0  0  0
 26 24  2  0  0  0  0
 27 26  1  0  0  0  0
 28 19  2  0  0  0  0
 29 14  1  0  0  0  0
 29 28  1  0  0  0  0
 30 29  1  0  0  0  0
 31 32  1  0  0  0  0
 31 34  1  0  0  0  0
 31  5  1  0  0  0  0
 33 31  1  0  0  0  0
 34 35  1  0  0  0  0
 35 36  2  0  0  0  0
 35 44  1  0  0  0  0
 36 37  1  0  0  0  0
 37 46  1  0  0  0  0
 37 38  2  0  0  0  0
 38 39  1  0  0  0  0
 39 40  2  0  0  0  0
 40 47  1  0  0  0  0
 41 40  1  0  0  0  0
 41 48  1  0  0  0  0
 42 41  2  0  0  0  0
 43 38  1  0  0  0  0
 43 42  1  0  0  0  0
 44 43  2  0  0  0  0
 45 36  1  0  0  0  0
 49 42  1  0  0  0  0
 50 44  1  0  0  0  0
M  END
>  <minimizedAffinity>
-7.4809761

$$$$

 OpenBabel03242523353D

 50 55  0  0  0  0  0  0  0  0999 V2000
   36.7310   25.5100   39.6160 C   0  0  0  0  0  0  0  0  0  0  0  0
   37.0680   26.8200   40.0110 C   0  0  0  0  0  0  0  0  0  0  0  0
   36.4780   27.9000   39.3540 C   0  0  0  0  0  0  0  0  0  0  0  0
   35.5850   27.6490   38.3400 N   0  0  0  0  0  0  0  0  0  0  0  0
   35.2870   26.3700   37.9900 C   0  0  0  0  0  0  0  0  0  0  0  0
   35.8490   25.3310   38.6160 N   0  0  0  0  0  0  0  0  0  0  0  0
   37.1750   24.6420   40.1100 H   0  0  0  0  0  0  0  0  0  0  0  0
   37.7780   26.9580   40.8150 H   0  0  0  0  0  0  0  0  0  0  0  0
   36.7770   29.2590   39.7070 C   0  0  0  0  0  0  0  0  0  0  0  0
   35.9900   30.0630   40.4980 C   0  0  0  0  0  0  0  0  0  0  0  0
   35.0770   29.6720   40.8960 H   0  0  0  0  0  0  0  0  0  0  0  0
   36.3670   31.3720   40.7830 C   0  0  0  0  0  0  0  0  0  0  0  0
   35.6710   31.9330   41.4250 H   0  0  0  0  0  0  0  0  0  0  0  0
   37.5300   31.9330   40.3020 C   0  0  0  0  0  0  0  0  0  0  0  0
   38.3050   31.1290   39.5170 C   0  0  0  0  0  0  0  0  0  0  0  0
   37.9280   29.8620   39.2490 C   0  0  0  0  0  0  0  0  0  0  0  0
   38.5890   29.2610   38.6130 H   0  0  0  0  0  0  0  0  0  0  0  0
   39.8180   31.8080   38.8690 S   0  0  0  0  0  0  0  0  0  0  0  0
   39.9200   33.4830   39.4660 C   0  0  0  0  0  0  0  0  0  0  0  0
   41.0190   34.2110   39.0880 C   0  0  0  0  0  0  0  0  0  0  0  0
   41.7810   33.7920   38.4620 H   0  0  0  0  0  0  0  0  0  0  0  0
   41.1610   35.5130   39.5130 C   0  0  0  0  0  0  0  0  0  0  0  0
   42.0280   36.0870   39.2150 H   0  0  0  0  0  0  0  0  0  0  0  0
   40.1840   36.0600   40.3170 C   0  0  0  0  0  0  0  0  0  0  0  0
   40.2700   37.0760   40.6640 H   0  0  0  0  0  0  0  0  0  0  0  0
   39.1100   35.2710   40.6580 C   0  0  0  0  0  0  0  0  0  0  0  0
   38.3650   35.7650   41.3010 H   0  0  0  0  0  0  0  0  0  0  0  0
   38.9120   33.9640   40.2640 C   0  0  0  0  0  0  0  0  0  0  0  0
   37.7580   33.2680   40.6870 N   0  0  0  0  0  0  0  0  0  0  0  0
   37.0950   33.7920   41.2940 H   0  0  0  0  0  0  0  0  0  0  0  0
   34.3090   26.2430   36.8820 C   0  0  0  0  0  0  0  0  0  0  0  0
   33.2830   26.2210   37.3130 H   0  0  0  0  0  0  0  0  0  0  0  0
   34.4920   25.2400   36.4610 H   0  0  0  0  0  0  0  0  0  0  0  0
   34.5550   27.6120   35.7460 S   0  0  0  0  0  0  0  0  0  0  0  0
   33.2240   28.7890   35.8770 C   0  0  0  0  0  0  0  0  0  0  0  0
   32.9250   29.5430   34.7670 C   0  0  0  0  0  0  0  0  0  0  0  0
   31.9060   30.4450   34.8620 C   0  0  0  0  0  0  0  0  0  0  0  0
   31.1690   30.6190   36.0360 C   0  0  0  0  0  0  0  0  0  0  0  0
   30.1690   31.5220   36.0720 N   0  0  0  0  0  0  0  0  0  0  0  0
   29.4420   31.7090   37.1860 C   0  0  0  0  0  0  0  0  0  0  0  0
   29.7340   30.9590   38.3040 C   0  0  0  0  0  0  0  0  0  0  0  0
   30.7650   30.0270   38.2690 C   0  0  0  0  0  0  0  0  0  0  0  0
   31.5250   29.8270   37.1130 C   0  0  0  0  0  0  0  0  0  0  0  0
   32.5410   28.9100   37.0590 C   0  0  0  0  0  0  0  0  0  0  0  0
   33.4060   29.5170   33.8000 H   0  0  0  0  0  0  0  0  0  0  0  0
   31.6060   31.0810   34.0260 H   0  0  0  0  0  0  0  0  0  0  0  0
   28.6640   32.4610   37.1040 H   0  0  0  0  0  0  0  0  0  0  0  0
   29.1360   31.1290   39.1820 H   0  0  0  0  0  0  0  0  0  0  0  0
   30.9880   29.4410   39.1500 H   0  0  0  0  0  0  0  0  0  0  0  0
   32.7880   28.3100   37.9220 H   0  0  0  0  0  0  0  0  0  0  0  0
  1  2  1  0  0  0  0
  1  7  1  0  0  0  0
  2  8  1  0  0  0  0
  3  9  1  0  0  0  0
  3  2  2  0  0  0  0
  4  3  1  0  0  0  0
  5  4  2  0  0  0  0
  5  6  1  0  0  0  0
  6  1  2  0  0  0  0
  9 10  1  0  0  0  0
 10 12  2  0  0  0  0
 10 11  1  0  0  0  0
 12 13  1  0  0  0  0
 14 29  1  0  0  0  0
 14 12  1  0  0  0  0
 15 14  2  0  0  0  0
 16 15  1  0  0  0  0
 16  9  2  0  0  0  0
 17 16  1  0  0  0  0
 18 19  1  0  0  0  0
 18 15  1  0  0  0  0
 19 28  1  0  0  0  0
 20 19  2  0  0  0  0
 20 22  1  0  0  0  0
 21 20  1  0  0  0  0
 22 24  2  0  0  0  0
 23 22  1  0  0  0  0
 24 26  1  0  0  0  0
 24 25  1  0  0  0  0
 26 27  1  0  0  0  0
 28 26  2  0  0  0  0
 28 29  1  0  0  0  0
 29 30  1  0  0  0  0
 31 32  1  0  0  0  0
 31  5  1  0  0  0  0
 33 31  1  0  0  0  0
 34 35  1  0  0  0  0
 34 31  1  0  0  0  0
 35 44  1  0  0  0  0
 36 37  1  0  0  0  0
 36 35  2  0  0  0  0
 37 38  2  0  0  0  0
 38 39  1  0  0  0  0
 38 43  1  0  0  0  0
 39 40  2  0  0  0  0
 40 41  1  0  0  0  0
 41 48  1  0  0  0  0
 42 41  2  0  0  0  0
 42 49  1  0  0  0  0
 43 42  1  0  0  0  0
 44 43  2  0  0  0  0
 44 50  1  0  0  0  0
 45 36  1  0  0  0  0
 46 37  1  0  0  0  0
 47 40  1  0  0  0  0
M  END
>  <minimizedAffinity>
-7.48012543

$$$$

 OpenBabel03242523353D

 50 55  0  0  0  0  0  0  0  0999 V2000
   39.0100   35.7280   40.1190 C   0  0  0  0  0  0  0  0  0  0  0  0
   38.3760   34.5030   40.4080 C   0  0  0  0  0  0  0  0  0  0  0  0
   39.0970   33.3160   40.2650 C   0  0  0  0  0  0  0  0  0  0  0  0
   40.4040   33.3820   39.8480 N   0  0  0  0  0  0  0  0  0  0  0  0
   40.9780   34.5850   39.5810 C   0  0  0  0  0  0  0  0  0  0  0  0
   40.2930   35.7250   39.7150 N   0  0  0  0  0  0  0  0  0  0  0  0
   38.4750   36.6760   40.2200 H   0  0  0  0  0  0  0  0  0  0  0  0
   37.3450   34.5110   40.7320 H   0  0  0  0  0  0  0  0  0  0  0  0
   38.5110   32.0350   40.5430 C   0  0  0  0  0  0  0  0  0  0  0  0
   37.1660   31.7520   40.4920 C   0  0  0  0  0  0  0  0  0  0  0  0
   36.4780   32.5270   40.2270 H   0  0  0  0  0  0  0  0  0  0  0  0
   36.6950   30.4750   40.7810 C   0  0  0  0  0  0  0  0  0  0  0  0
   35.6040   30.3490   40.7110 H   0  0  0  0  0  0  0  0  0  0  0  0
   37.5290   29.4350   41.1290 C   0  0  0  0  0  0  0  0  0  0  0  0
   38.8620   29.7240   41.1780 C   0  0  0  0  0  0  0  0  0  0  0  0
   39.3050   30.9660   40.8950 C   0  0  0  0  0  0  0  0  0  0  0  0
   40.3860   31.1430   40.9510 H   0  0  0  0  0  0  0  0  0  0  0  0
   39.9820   28.4130   41.6230 S   0  0  0  0  0  0  0  0  0  0  0  0
   38.9830   26.9660   41.9060 C   0  0  0  0  0  0  0  0  0  0  0  0
   39.6420   25.8190   42.2660 C   0  0  0  0  0  0  0  0  0  0  0  0
   40.7080   25.7930   42.3730 H   0  0  0  0  0  0  0  0  0  0  0  0
   38.9310   24.6630   42.5000 C   0  0  0  0  0  0  0  0  0  0  0  0
   39.4510   23.7580   42.7840 H   0  0  0  0  0  0  0  0  0  0  0  0
   37.5590   24.6870   42.3670 C   0  0  0  0  0  0  0  0  0  0  0  0
   36.9790   23.7970   42.5450 H   0  0  0  0  0  0  0  0  0  0  0  0
   36.9660   25.8740   42.0020 C   0  0  0  0  0  0  0  0  0  0  0  0
   35.8700   25.8280   41.9120 H   0  0  0  0  0  0  0  0  0  0  0  0
   37.6220   27.0610   41.7540 C   0  0  0  0  0  0  0  0  0  0  0  0
   36.8860   28.2090   41.3880 N   0  0  0  0  0  0  0  0  0  0  0  0
   35.8540   28.0980   41.3200 H   0  0  0  0  0  0  0  0  0  0  0  0
   42.3930   34.5110   39.1400 C   0  0  0  0  0  0  0  0  0  0  0  0
   42.8820   35.4890   39.3490 H   0  0  0  0  0  0  0  0  0  0  0  0
   42.3390   34.4180   38.0420 H   0  0  0  0  0  0  0  0  0  0  0  0
   43.1840   33.1430   39.9910 S   0  0  0  0  0  0  0  0  0  0  0  0
   43.8560   33.6740   41.5540 C   0  0  0  0  0  0  0  0  0  0  0  0
   44.0340   35.0230   41.7490 C   0  0  0  0  0  0  0  0  0  0  0  0
   44.5460   35.4350   42.9440 C   0  0  0  0  0  0  0  0  0  0  0  0
   44.8880   34.5380   43.9590 C   0  0  0  0  0  0  0  0  0  0  0  0
   45.3870   35.0010   45.1220 N   0  0  0  0  0  0  0  0  0  0  0  0
   45.7210   34.1620   46.1170 C   0  0  0  0  0  0  0  0  0  0  0  0
   45.5470   32.8090   45.9330 C   0  0  0  0  0  0  0  0  0  0  0  0
   45.0330   32.3290   44.7330 C   0  0  0  0  0  0  0  0  0  0  0  0
   44.6820   33.1960   43.6940 C   0  0  0  0  0  0  0  0  0  0  0  0
   44.1700   32.7410   42.5080 C   0  0  0  0  0  0  0  0  0  0  0  0
   43.8170   35.8250   41.0580 H   0  0  0  0  0  0  0  0  0  0  0  0
   44.7180   36.4880   43.1760 H   0  0  0  0  0  0  0  0  0  0  0  0
   46.1130   34.6420   47.0080 H   0  0  0  0  0  0  0  0  0  0  0  0
   45.8230   32.1600   46.7450 H   0  0  0  0  0  0  0  0  0  0  0  0
   44.8980   31.2650   44.5950 H   0  0  0  0  0  0  0  0  0  0  0  0
   44.0250   31.6840   42.3400 H   0  0  0  0  0  0  0  0  0  0  0  0
  1  7  1  0  0  0  0
  1  2  1  0  0  0  0
  2  8  1  0  0  0  0
  3  2  2  0  0  0  0
  3  9  1  0  0  0  0
  4  3  1  0  0  0  0
  5  6  1  0  0  0  0
  5  4  2  0  0  0  0
  6  1  2  0  0  0  0
  9 16  1  0  0  0  0
 10  9  2  0  0  0  0
 10 12  1  0  0  0  0
 11 10  1  0  0  0  0
 12 14  2  0  0  0  0
 13 12  1  0  0  0  0
 14 15  1  0  0  0  0
 14 29  1  0  0  0  0
 15 18  1  0  0  0  0
 16 17  1  0  0  0  0
 16 15  2  0  0  0  0
 18 19  1  0  0  0  0
 19 20  1  0  0  0  0
 20 21  1  0  0  0  0
 20 22  2  0  0  0  0
 22 23  1  0  0  0  0
 24 22  1  0  0  0  0
 24 25  1  0  0  0  0
 26 24  2  0  0  0  0
 27 26  1  0  0  0  0
 28 19  2  0  0  0  0
 28 26  1  0  0  0  0
 29 28  1  0  0  0  0
 30 29  1  0  0  0  0
 31 32  1  0  0  0  0
 31  5  1  0  0  0  0
 31 34  1  0  0  0  0
 33 31  1  0  0  0  0
 34 35  1  0  0  0  0
 35 36  2  0  0  0  0
 35 44  1  0  0  0  0
 36 37  1  0  0  0  0
 37 46  1  0  0  0  0
 37 38  2  0  0  0  0
 38 39  1  0  0  0  0
 39 40  2  0  0  0  0
 40 47  1  0  0  0  0
 41 40  1  0  0  0  0
 41 48  1  0  0  0  0
 42 41  2  0  0  0  0
 43 38  1  0  0  0  0
 43 42  1  0  0  0  0
 44 43  2  0  0  0  0
 45 36  1  0  0  0  0
 49 42  1  0  0  0  0
 50 44  1  0  0  0  0
M  END
>  <minimizedAffinity>
-7.46777296

$$$$

 OpenBabel03242523353D

 50 55  0  0  0  0  0  0  0  0999 V2000
   39.5890   28.2940   37.0350 C   0  0  0  0  0  0  0  0  0  0  0  0
   40.1480   29.3140   37.8330 C   0  0  0  0  0  0  0  0  0  0  0  0
   39.3680   30.4240   38.1590 C   0  0  0  0  0  0  0  0  0  0  0  0
   38.0770   30.4860   37.6920 N   0  0  0  0  0  0  0  0  0  0  0  0
   37.5770   29.4800   36.9260 C   0  0  0  0  0  0  0  0  0  0  0  0
   38.3190   28.4140   36.6090 N   0  0  0  0  0  0  0  0  0  0  0  0
   40.1730   27.4120   36.7610 H   0  0  0  0  0  0  0  0  0  0  0  0
   41.1690   29.2120   38.1720 H   0  0  0  0  0  0  0  0  0  0  0  0
   39.8750   31.4960   38.9670 C   0  0  0  0  0  0  0  0  0  0  0  0
   39.1060   32.4570   39.5820 C   0  0  0  0  0  0  0  0  0  0  0  0
   38.0420   32.4280   39.4670 H   0  0  0  0  0  0  0  0  0  0  0  0
   39.6940   33.4600   40.3460 C   0  0  0  0  0  0  0  0  0  0  0  0
   38.9940   34.1800   40.7970 H   0  0  0  0  0  0  0  0  0  0  0  0
   41.0560   33.5520   40.5330 C   0  0  0  0  0  0  0  0  0  0  0  0
   41.8120   32.5950   39.9190 C   0  0  0  0  0  0  0  0  0  0  0  0
   41.2290   31.6290   39.1820 C   0  0  0  0  0  0  0  0  0  0  0  0
   41.8850   30.8860   38.7110 H   0  0  0  0  0  0  0  0  0  0  0  0
   43.5790   32.6700   40.1290 S   0  0  0  0  0  0  0  0  0  0  0  0
   43.9080   34.0820   41.1630 C   0  0  0  0  0  0  0  0  0  0  0  0
   45.2210   34.3400   41.4620 C   0  0  0  0  0  0  0  0  0  0  0  0
   46.0130   33.7200   41.0910 H   0  0  0  0  0  0  0  0  0  0  0  0
   45.5470   35.4160   42.2560 C   0  0  0  0  0  0  0  0  0  0  0  0
   46.5830   35.6190   42.4930 H   0  0  0  0  0  0  0  0  0  0  0  0
   44.5350   36.2190   42.7370 C   0  0  0  0  0  0  0  0  0  0  0  0
   44.7620   37.0680   43.3600 H   0  0  0  0  0  0  0  0  0  0  0  0
   43.2400   35.9010   42.3970 C   0  0  0  0  0  0  0  0  0  0  0  0
   42.4790   36.5790   42.8110 H   0  0  0  0  0  0  0  0  0  0  0  0
   42.8520   34.8380   41.6070 C   0  0  0  0  0  0  0  0  0  0  0  0
   41.4820   34.6280   41.3350 N   0  0  0  0  0  0  0  0  0  0  0  0
   40.8140   35.3040   41.7570 H   0  0  0  0  0  0  0  0  0  0  0  0
   36.1720   29.6750   36.4890 C   0  0  0  0  0  0  0  0  0  0  0  0
   36.0690   29.3060   35.4440 H   0  0  0  0  0  0  0  0  0  0  0  0
   36.0410   30.7690   36.4480 H   0  0  0  0  0  0  0  0  0  0  0  0
   35.0940   28.8130   37.6380 S   0  0  0  0  0  0  0  0  0  0  0  0
   35.7830   28.8250   39.2820 C   0  0  0  0  0  0  0  0  0  0  0  0
   35.7160   29.9990   39.9950 C   0  0  0  0  0  0  0  0  0  0  0  0
   36.2400   30.0130   41.2540 C   0  0  0  0  0  0  0  0  0  0  0  0
   36.8320   28.8860   41.8300 C   0  0  0  0  0  0  0  0  0  0  0  0
   37.3310   28.9560   43.0800 N   0  0  0  0  0  0  0  0  0  0  0  0
   37.9030   27.8880   43.6600 C   0  0  0  0  0  0  0  0  0  0  0  0
   37.9750   26.7070   42.9540 C   0  0  0  0  0  0  0  0  0  0  0  0
   37.4610   26.6320   41.6640 C   0  0  0  0  0  0  0  0  0  0  0  0
   36.8650   27.7400   41.0550 C   0  0  0  0  0  0  0  0  0  0  0  0
   36.3490   27.6830   39.7870 C   0  0  0  0  0  0  0  0  0  0  0  0
   35.2920   30.9410   39.6790 H   0  0  0  0  0  0  0  0  0  0  0  0
   36.2270   30.9050   41.8840 H   0  0  0  0  0  0  0  0  0  0  0  0
   38.2700   28.0560   44.6660 H   0  0  0  0  0  0  0  0  0  0  0  0
   38.4380   25.8680   43.4430 H   0  0  0  0  0  0  0  0  0  0  0  0
   37.5210   25.7030   41.1160 H   0  0  0  0  0  0  0  0  0  0  0  0
   36.3940   26.7700   39.2140 H   0  0  0  0  0  0  0  0  0  0  0  0
  1  2  1  0  0  0  0
  2  3  2  0  0  0  0
  2  8  1  0  0  0  0
  3  9  1  0  0  0  0
  4  3  1  0  0  0  0
  5  4  2  0  0  0  0
  6  5  1  0  0  0  0
  6  1  2  0  0  0  0
  7  1  1  0  0  0  0
  9 16  2  0  0  0  0
  9 10  1  0  0  0  0
 10 12  2  0  0  0  0
 11 10  1  0  0  0  0
 12 14  1  0  0  0  0
 12 13  1  0  0  0  0
 14 29  1  0  0  0  0
 15 18  1  0  0  0  0
 15 14  2  0  0  0  0
 16 15  1  0  0  0  0
 17 16  1  0  0  0  0
 18 19  1  0  0  0  0
 19 20  2  0  0  0  0
 19 28  1  0  0  0  0
 20 22  1  0  0  0  0
 21 20  1  0  0  0  0
 22 23  1  0  0  0  0
 22 24  2  0  0  0  0
 24 25  1  0  0  0  0
 26 24  1  0  0  0  0
 26 27  1  0  0  0  0
 28 26  2  0  0  0  0
 29 28  1  0  0  0  0
 29 30  1  0  0  0  0
 31  5  1  0  0  0  0
 31 34  1  0  0  0  0
 32 31  1  0  0  0  0
 33 31  1  0  0  0  0
 34 35  1  0  0  0  0
 35 44  2  0  0  0  0
 35 36  1  0  0  0  0
 36 37  2  0  0  0  0
 37 38  1  0  0  0  0
 37 46  1  0  0  0  0
 38 39  1  0  0  0  0
 39 40  2  0  0  0  0
 40 47  1  0  0  0  0
 41 48  1  0  0  0  0
 41 40  1  0  0  0  0
 42 41  2  0  0  0  0
 43 42  1  0  0  0  0
 43 38  2  0  0  0  0
 44 43  1  0  0  0  0
 45 36  1  0  0  0  0
 49 42  1  0  0  0  0
 50 44  1  0  0  0  0
M  END
>  <minimizedAffinity>
-7.32662153

$$$$

 OpenBabel03242523353D

 50 55  0  0  0  0  0  0  0  0999 V2000
   38.6730   35.5810   39.9420 C   0  0  0  0  0  0  0  0  0  0  0  0
   38.0760   34.3130   40.0940 C   0  0  0  0  0  0  0  0  0  0  0  0
   38.8660   33.2330   40.4900 C   0  0  0  0  0  0  0  0  0  0  0  0
   40.2050   33.4430   40.7210 N   0  0  0  0  0  0  0  0  0  0  0  0
   40.7410   34.6820   40.5640 C   0  0  0  0  0  0  0  0  0  0  0  0
   39.9890   35.7200   40.1850 N   0  0  0  0  0  0  0  0  0  0  0  0
   38.0830   36.4470   39.6330 H   0  0  0  0  0  0  0  0  0  0  0  0
   37.0180   34.2060   39.8980 H   0  0  0  0  0  0  0  0  0  0  0  0
   38.3210   31.9170   40.6630 C   0  0  0  0  0  0  0  0  0  0  0  0
   37.0090   31.5680   40.4410 C   0  0  0  0  0  0  0  0  0  0  0  0
   36.3170   32.3150   40.1120 H   0  0  0  0  0  0  0  0  0  0  0  0
   36.5760   30.2610   40.6390 C   0  0  0  0  0  0  0  0  0  0  0  0
   35.5090   30.0820   40.4330 H   0  0  0  0  0  0  0  0  0  0  0  0
   37.4160   29.2530   41.0610 C   0  0  0  0  0  0  0  0  0  0  0  0
   38.7160   29.6080   41.2800 C   0  0  0  0  0  0  0  0  0  0  0  0
   39.1230   30.8790   41.0840 C   0  0  0  0  0  0  0  0  0  0  0  0
   40.1780   31.1080   41.2760 H   0  0  0  0  0  0  0  0  0  0  0  0
   39.8420   28.3420   41.8270 S   0  0  0  0  0  0  0  0  0  0  0  0
   38.8960   26.8390   41.9510 C   0  0  0  0  0  0  0  0  0  0  0  0
   39.5660   25.7150   42.3610 C   0  0  0  0  0  0  0  0  0  0  0  0
   40.6120   25.7400   42.5960 H   0  0  0  0  0  0  0  0  0  0  0  0
   38.8950   24.5190   42.4780 C   0  0  0  0  0  0  0  0  0  0  0  0
   39.4250   23.6320   42.8020 H   0  0  0  0  0  0  0  0  0  0  0  0
   37.5510   24.4780   42.1790 C   0  0  0  0  0  0  0  0  0  0  0  0
   37.0020   23.5540   42.2620 H   0  0  0  0  0  0  0  0  0  0  0  0
   36.9430   25.6440   41.7730 C   0  0  0  0  0  0  0  0  0  0  0  0
   35.8700   25.5450   41.5480 H   0  0  0  0  0  0  0  0  0  0  0  0
   37.5600   26.8690   41.6360 C   0  0  0  0  0  0  0  0  0  0  0  0
   36.8130   27.9900   41.2100 N   0  0  0  0  0  0  0  0  0  0  0  0
   35.8040   27.8290   41.0140 H   0  0  0  0  0  0  0  0  0  0  0  0
   42.1950   34.7680   40.8460 C   0  0  0  0  0  0  0  0  0  0  0  0
   42.3460   35.3950   41.7540 H   0  0  0  0  0  0  0  0  0  0  0  0
   42.6110   35.3390   39.9990 H   0  0  0  0  0  0  0  0  0  0  0  0
   42.8360   33.1020   41.0400 S   0  0  0  0  0  0  0  0  0  0  0  0
   43.5230   32.5060   39.5080 C   0  0  0  0  0  0  0  0  0  0  0  0
   44.7920   32.9150   39.1730 C   0  0  0  0  0  0  0  0  0  0  0  0
   45.3230   32.4600   38.0020 C   0  0  0  0  0  0  0  0  0  0  0  0
   44.6230   31.6040   37.1470 C   0  0  0  0  0  0  0  0  0  0  0  0
   45.1990   31.1840   36.0030 N   0  0  0  0  0  0  0  0  0  0  0  0
   44.5510   30.3580   35.1640 C   0  0  0  0  0  0  0  0  0  0  0  0
   43.2790   29.9430   35.4890 C   0  0  0  0  0  0  0  0  0  0  0  0
   42.6830   30.3760   36.6680 C   0  0  0  0  0  0  0  0  0  0  0  0
   43.3510   31.2350   37.5460 C   0  0  0  0  0  0  0  0  0  0  0  0
   42.7820   31.6680   38.7150 C   0  0  0  0  0  0  0  0  0  0  0  0
   45.4440   33.5700   39.7320 H   0  0  0  0  0  0  0  0  0  0  0  0
   46.3240   32.7380   37.6650 H   0  0  0  0  0  0  0  0  0  0  0  0
   45.1070   30.0830   34.2730 H   0  0  0  0  0  0  0  0  0  0  0  0
   42.7830   29.2830   34.7990 H   0  0  0  0  0  0  0  0  0  0  0  0
   41.6850   30.0470   36.9180 H   0  0  0  0  0  0  0  0  0  0  0  0
   41.7870   31.3570   38.9910 H   0  0  0  0  0  0  0  0  0  0  0  0
  1  2  2  0  0  0  0
  1  6  1  0  0  0  0
  2  3  1  0  0  0  0
  3  9  1  0  0  0  0
  3  4  2  0  0  0  0
  5  4  1  0  0  0  0
  5 31  1  0  0  0  0
  6  5  2  0  0  0  0
  7  1  1  0  0  0  0
  8  2  1  0  0  0  0
  9 16  1  0  0  0  0
 10 12  1  0  0  0  0
 10  9  2  0  0  0  0
 11 10  1  0  0  0  0
 12 14  2  0  0  0  0
 13 12  1  0  0  0  0
 14 29  1  0  0  0  0
 14 15  1  0  0  0  0
 15 18  1  0  0  0  0
 16 17  1  0  0  0  0
 16 15  2  0  0  0  0
 18 19  1  0  0  0  0
 19 20  1  0  0  0  0
 20 22  2  0  0  0  0
 20 21  1  0  0  0  0
 22 23  1  0  0  0  0
 24 25  1  0  0  0  0
 24 22  1  0  0  0  0
 26 24  2  0  0  0  0
 27 26  1  0  0  0  0
 28 26  1  0  0  0  0
 28 19  2  0  0  0  0
 29 28  1  0  0  0  0
 30 29  1  0  0  0  0
 31 34  1  0  0  0  0
 31 32  1  0  0  0  0
 33 31  1  0  0  0  0
 35 34  1  0  0  0  0
 36 35  1  0  0  0  0
 36 45  1  0  0  0  0
 37 36  2  0  0  0  0
 38 43  1  0  0  0  0
 38 37  1  0  0  0  0
 39 38  2  0  0  0  0
 40 41  2  0  0  0  0
 40 39  1  0  0  0  0
 41 42  1  0  0  0  0
 42 49  1  0  0  0  0
 42 43  2  0  0  0  0
 43 44  1  0  0  0  0
 44 50  1  0  0  0  0
 44 35  2  0  0  0  0
 46 37  1  0  0  0  0
 47 40  1  0  0  0  0
 48 41  1  0  0  0  0
M  END
>  <minimizedAffinity>
-7.18550348

$$$$
