
     RDKit          3D

 50 54  0  0  0  0  0  0  0  0999 V2000
   47.0693   32.6634   44.7918 C   0  0  0  0  0  0  0  0  0  0  0  0
   46.4823   34.5223   43.2939 C   0  0  0  0  0  0  0  0  0  0  0  0
   46.2745   33.8547   44.4895 C   0  0  0  0  0  0  0  0  0  0  0  0
   45.3473   34.2634   45.4157 C   0  0  0  0  0  0  0  0  0  0  0  0
   44.5974   35.3864   45.1335 C   0  0  0  0  0  0  0  0  0  0  0  0
   44.7362   36.1017   43.9843 C   0  0  0  0  0  0  0  0  0  0  0  0
   45.6925   35.6268   43.0985 C   0  0  0  0  0  0  0  0  0  0  0  0
   47.6492   34.0393   42.0901 S   0  0  0  0  0  0  0  0  0  0  0  0
   48.9955   34.7017   42.2937 O   0  0  0  0  0  0  0  0  0  0  0  0
   47.1946   34.5660   40.7407 O   0  0  0  0  0  0  0  0  0  0  0  0
   46.3280   31.6020   45.5874 C   0  0  0  0  0  0  0  0  0  0  0  0
   47.3723   32.1465   47.7845 C   0  0  0  0  0  0  0  0  0  0  0  0
   47.1681   31.2306   46.7135 C   0  0  0  0  0  0  0  0  0  0  0  0
   47.8159   29.9931   46.8151 C   0  0  0  0  0  0  0  0  0  0  0  0
   48.5861   29.7396   47.9038 N   0  0  0  0  0  0  0  0  0  0  0  0
   48.7528   30.6274   48.8888 C   0  0  0  0  0  0  0  0  0  0  0  0
   48.1512   31.8071   48.8192 N   0  0  0  0  0  0  0  0  0  0  0  0
   47.5161   32.1913   43.8874 H   0  0  0  0  0  0  0  0  0  0  0  0
   47.9723   33.0419   45.3571 H   0  0  0  0  0  0  0  0  0  0  0  0
   45.1283   33.8162   46.3454 H   0  0  0  0  0  0  0  0  0  0  0  0
   43.8357   35.7712   45.8304 H   0  0  0  0  0  0  0  0  0  0  0  0
   44.1581   36.9784   43.7523 H   0  0  0  0  0  0  0  0  0  0  0  0
   45.8283   36.1805   42.1644 H   0  0  0  0  0  0  0  0  0  0  0  0
   47.7460   32.6925   41.9262 H   0  0  0  0  0  0  0  0  0  0  0  0
   45.2934   31.8629   45.8291 H   0  0  0  0  0  0  0  0  0  0  0  0
   46.2341   30.6756   44.9445 H   0  0  0  0  0  0  0  0  0  0  0  0
   46.9125   33.1273   47.7948 H   0  0  0  0  0  0  0  0  0  0  0  0
   47.6831   29.2679   46.0160 H   0  0  0  0  0  0  0  0  0  0  0  0
   49.5897   30.3164   50.0430 C   0  0  0  0  0  0  0  0  0  0  0  0
   49.1487   30.6111   51.3176 C   0  0  0  0  0  0  0  0  0  0  0  0
   48.1704   31.0777   51.4509 H   0  0  0  0  0  0  0  0  0  0  0  0
   49.9467   30.3137   52.4041 C   0  0  0  0  0  0  0  0  0  0  0  0
   49.5186   30.5812   53.3743 H   0  0  0  0  0  0  0  0  0  0  0  0
   51.1896   29.7251   52.2948 C   0  0  0  0  0  0  0  0  0  0  0  0
   51.6050   29.4420   51.0167 C   0  0  0  0  0  0  0  0  0  0  0  0
   50.8272   29.7315   49.9499 C   0  0  0  0  0  0  0  0  0  0  0  0
   51.1822   29.4965   48.9561 H   0  0  0  0  0  0  0  0  0  0  0  0
   53.1944   28.6852   50.8163 S   0  0  0  0  0  0  0  0  0  0  0  0
   53.8796   28.4784   52.4497 C   0  0  0  0  0  0  0  0  0  0  0  0
   55.1154   27.9050   52.5127 C   0  0  0  0  0  0  0  0  0  0  0  0
   55.6770   27.5831   51.6578 H   0  0  0  0  0  0  0  0  0  0  0  0
   55.6980   27.7186   53.7490 C   0  0  0  0  0  0  0  0  0  0  0  0
   56.6717   27.2741   53.9025 H   0  0  0  0  0  0  0  0  0  0  0  0
   55.0222   28.1135   54.8846 C   0  0  0  0  0  0  0  0  0  0  0  0
   55.4568   27.9784   55.8642 H   0  0  0  0  0  0  0  0  0  0  0  0
   53.7766   28.6847   54.7261 C   0  0  0  0  0  0  0  0  0  0  0  0
   53.2846   28.9799   55.6648 H   0  0  0  0  0  0  0  0  0  0  0  0
   53.1352   28.9010   53.5240 C   0  0  0  0  0  0  0  0  0  0  0  0
   51.8725   29.4900   53.5066 N   0  0  0  0  0  0  0  0  0  0  0  0
   51.4497   29.7513   54.4221 H   0  0  0  0  0  0  0  0  0  0  0  0
  1 11  1  0
  2  3  2  0
  3  1  1  0
  3  4  1  0
  5  4  2  0
  6  5  1  0
  7  2  1  0
  7  6  2  0
  8  9  2  0
  8  2  1  0
 10  8  2  0
 11 13  1  0
 12 17  2  0
 13 14  2  0
 13 12  1  0
 14 15  1  0
 15 16  2  0
 17 16  1  0
  1 18  1  0
  1 19  1  0
  4 20  1  0
  5 21  1  0
  6 22  1  0
  7 23  1  0
  8 24  1  0
 11 25  1  0
 11 26  1  0
 12 27  1  0
 14 28  1  0
 29 30  2  0
 30 31  1  0
 30 32  1  0
 32 33  1  0
 32 34  2  0
 34 35  1  0
 35 36  2  0
 36 37  1  0
 35 38  1  0
 38 39  1  0
 39 40  2  0
 40 41  1  0
 40 42  1  0
 42 43  1  0
 42 44  2  0
 44 45  1  0
 44 46  1  0
 46 47  1  0
 46 48  2  0
 48 49  1  0
 49 50  1  0
 36 29  1  0
 48 39  1  0
 49 34  1  0
 16 29  1  0
M  ISO  8  18   8  19   8  20  14  21  14  22  14  23  14  24  11  25   8
M  ISO  8  26   8  27  14  28  14  31  16  33  16  37  16  41  16  43  16
M  ISO  3  45  16  47  16  50   5
M  END
>  <DihAtoms>  (1) 
14,15,28,29

>  <DihDeg>  (1) 
-0.0012535575740709312

$$$$
