
 OpenBabel03242518003D

 50 54  0  0  0  0  0  0  0  0999 V2000
   47.5530   32.3310   48.0110 C   0  0  0  0  0  0  0  0  0  0  0  0
   47.2290   31.3570   47.0240 C   0  0  0  0  0  0  0  0  0  0  0  0
   47.9920   30.1810   47.0290 C   0  0  0  0  0  0  0  0  0  0  0  0
   48.9750   30.0390   47.9540 N   0  0  0  0  0  0  0  0  0  0  0  0
   49.2490   30.9770   48.8640 C   0  0  0  0  0  0  0  0  0  0  0  0
   48.5420   32.1000   48.8820 N   0  0  0  0  0  0  0  0  0  0  0  0
   47.0190   33.2690   48.0850 H   0  0  0  0  0  0  0  0  0  0  0  0
   47.7730   29.4150   46.2900 H   0  0  0  0  0  0  0  0  0  0  0  0
   50.3160   30.7850   49.8410 C   0  0  0  0  0  0  0  0  0  0  0  0
   50.4720   31.6800   50.8800 C   0  0  0  0  0  0  0  0  0  0  0  0
   49.7900   32.5290   50.9630 H   0  0  0  0  0  0  0  0  0  0  0  0
   51.4840   31.4910   51.8000 C   0  0  0  0  0  0  0  0  0  0  0  0
   51.5340   32.2480   52.5890 H   0  0  0  0  0  0  0  0  0  0  0  0
   52.3720   30.4380   51.7460 C   0  0  0  0  0  0  0  0  0  0  0  0
   52.1950   29.5630   50.7020 C   0  0  0  0  0  0  0  0  0  0  0  0
   51.2060   29.7430   49.7990 C   0  0  0  0  0  0  0  0  0  0  0  0
   51.0930   29.0360   48.9890 H   0  0  0  0  0  0  0  0  0  0  0  0
   53.3090   28.1900   50.5820 S   0  0  0  0  0  0  0  0  0  0  0  0
   54.4450   28.3220   51.9500 C   0  0  0  0  0  0  0  0  0  0  0  0
   55.3950   27.3470   52.0380 C   0  0  0  0  0  0  0  0  0  0  0  0
   55.4890   26.5310   51.3480 H   0  0  0  0  0  0  0  0  0  0  0  0
   56.3020   27.3960   53.0750 C   0  0  0  0  0  0  0  0  0  0  0  0
   57.0900   26.6710   53.2290 H   0  0  0  0  0  0  0  0  0  0  0  0
   56.2290   28.4220   53.9930 C   0  0  0  0  0  0  0  0  0  0  0  0
   56.9290   28.4830   54.8140 H   0  0  0  0  0  0  0  0  0  0  0  0
   55.2360   29.3660   53.8270 C   0  0  0  0  0  0  0  0  0  0  0  0
   55.2260   30.1600   54.5870 H   0  0  0  0  0  0  0  0  0  0  0  0
   54.2980   29.3780   52.8160 C   0  0  0  0  0  0  0  0  0  0  0  0
   53.3460   30.3940   52.7650 N   0  0  0  0  0  0  0  0  0  0  0  0
   53.3790   31.1230   53.5100 H   0  0  0  0  0  0  0  0  0  0  0  0
   46.1590   31.6090   46.0730 C   0  0  0  0  0  0  0  0  0  0  0  0
   45.2340   32.0160   46.4930 H   0  0  0  0  0  0  0  0  0  0  0  0
   45.8540   30.6000   45.6640 H   0  0  0  0  0  0  0  0  0  0  0  0
   46.7410   32.4310   44.9360 C   0  0  0  0  0  0  0  0  0  0  0  0
   46.8250   31.7860   44.0300 H   0  0  0  0  0  0  0  0  0  0  0  0
   47.8130   32.7200   45.1460 H   0  0  0  0  0  0  0  0  0  0  0  0
   46.2110   34.3290   43.4660 C   0  0  0  0  0  0  0  0  0  0  0  0
   46.0430   33.6930   44.6840 C   0  0  0  0  0  0  0  0  0  0  0  0
   45.2410   34.1950   45.6790 C   0  0  0  0  0  0  0  0  0  0  0  0
   44.5810   35.3840   45.4440 C   0  0  0  0  0  0  0  0  0  0  0  0
   44.6910   36.0760   44.2780 C   0  0  0  0  0  0  0  0  0  0  0  0
   45.5190   35.5050   43.3220 C   0  0  0  0  0  0  0  0  0  0  0  0
   45.0590   33.7760   46.6290 H   0  0  0  0  0  0  0  0  0  0  0  0
   43.9230   35.8450   46.1970 H   0  0  0  0  0  0  0  0  0  0  0  0
   44.1830   37.0030   44.0830 H   0  0  0  0  0  0  0  0  0  0  0  0
   45.6270   36.0370   42.3720 H   0  0  0  0  0  0  0  0  0  0  0  0
   47.2200   33.7280   42.1760 S   0  0  0  0  0  0  0  0  0  0  0  0
   48.6800   34.0740   42.3770 O   0  0  0  0  0  0  0  0  0  0  0  0
   46.8550   34.4610   40.8980 O   0  0  0  0  0  0  0  0  0  0  0  0
   47.0260   32.4120   41.8930 H   0  0  0  0  0  0  0  0  0  0  0  0
  1  7  1  0  0  0  0
  1  6  1  0  0  0  0
  2  3  1  0  0  0  0
  2  1  2  0  0  0  0
  3  4  2  0  0  0  0
  4  5  1  0  0  0  0
  5  6  2  0  0  0  0
  5  9  1  0  0  0  0
  8  3  1  0  0  0  0
  9 10  1  0  0  0  0
 10 11  1  0  0  0  0
 10 12  2  0  0  0  0
 12 13  1  0  0  0  0
 14 12  1  0  0  0  0
 14 29  1  0  0  0  0
 15 14  2  0  0  0  0
 16  9  2  0  0  0  0
 16 15  1  0  0  0  0
 17 16  1  0  0  0  0
 18 15  1  0  0  0  0
 18 19  1  0  0  0  0
 19 20  2  0  0  0  0
 19 28  1  0  0  0  0
 20 22  1  0  0  0  0
 21 20  1  0  0  0  0
 22 23  1  0  0  0  0
 22 24  2  0  0  0  0
 24 25  1  0  0  0  0
 26 24  1  0  0  0  0
 26 27  1  0  0  0  0
 28 26  2  0  0  0  0
 29 28  1  0  0  0  0
 29 30  1  0  0  0  0
 31 32  1  0  0  0  0
 31  2  1  0  0  0  0
 33 31  1  0  0  0  0
 34 36  1  0  0  0  0
 34 31  1  0  0  0  0
 35 34  1  0  0  0  0
 37 38  1  0  0  0  0
 38 34  1  0  0  0  0
 38 39  2  0  0  0  0
 39 43  1  0  0  0  0
 40 39  1  0  0  0  0
 40 44  1  0  0  0  0
 41 40  2  0  0  0  0
 42 37  2  0  0  0  0
 42 41  1  0  0  0  0
 45 41  1  0  0  0  0
 46 42  1  0  0  0  0
 47 48  2  0  0  0  0
 47 37  1  0  0  0  0
 49 47  2  0  0  0  0
 50 47  1  0  0  0  0
M  END
>  <minimizedAffinity>
-6.302701

>  <minimizedRMSD>
0.98663944

$$$$
