REMARK  Name = 
REMARK  4 active torsions:
REMARK  status: ('A' for Active; 'I' for Inactive)
REMARK    1  A    between atoms: S_1  and  C_2
REMARK    2  A    between atoms: S_1  and  C_12
REMARK    3  A    between atoms: C_12  and  C_17
REMARK    4  A    between atoms: C_15  and  C_29
REMARK                            x       y       z     vdW  Elec       q    Type
REMARK                         _______ _______ _______ _____ _____    ______ ____
ROOT
ATOM      1  C   UNL     1      44.600  35.993  44.488  0.00  0.00    +0.000 A 
ATOM      2  C   UNL     1      45.354  35.719  43.329  0.00  0.00    +0.000 A 
ATOM      3  C   UNL     1      46.177  34.592  43.305  0.00  0.00    +0.000 A 
ATOM      4  N   UNL     1      46.224  33.784  44.416  0.00  0.00    +0.000 NA
ATOM      5  C   UNL     1      45.480  34.084  45.513  0.00  0.00    +0.000 A 
ATOM      6  N   UNL     1      44.690  35.162  45.542  0.00  0.00    +0.000 NA
ATOM      7  H   UNL     1      43.946  36.867  44.540  0.00  0.00    +0.000 HD
ATOM      8  H   UNL     1      45.278  36.390  42.485  0.00  0.00    +0.000 HD
ENDROOT
BRANCH   3   9
ATOM      9  C   UNL     1      46.970  34.256  42.157  0.00  0.00    +0.000 A 
ATOM     10  C   UNL     1      47.014  34.978  40.986  0.00  0.00    +0.000 A 
ATOM     11  H   UNL     1      46.420  35.864  40.895  0.00  0.00    +0.000 HD
ATOM     12  C   UNL     1      47.818  34.569  39.927  0.00  0.00    +0.000 A 
ATOM     13  H   UNL     1      47.784  35.213  39.034  0.00  0.00    +0.000 HD
ATOM     14  C   UNL     1      48.604  33.439  39.981  0.00  0.00    +0.000 A 
ATOM     15  C   UNL     1      48.555  32.729  41.147  0.00  0.00    +0.000 A 
ATOM     16  C   UNL     1      47.772  33.136  42.165  0.00  0.00    +0.000 A 
ATOM     17  H   UNL     1      47.771  32.527  43.077  0.00  0.00    +0.000 HD
ATOM     18  S   UNL     1      49.554  31.260  41.267  0.00  0.00    +0.000 S 
ATOM     19  C   UNL     1      50.414  31.101  39.716  0.00  0.00    +0.000 A 
ATOM     20  C   UNL     1      51.253  30.026  39.579  0.00  0.00    +0.000 A 
ATOM     21  H   UNL     1      51.386  29.313  40.369  0.00  0.00    +0.000 HD
ATOM     22  C   UNL     1      51.950  29.842  38.406  0.00  0.00    +0.000 A 
ATOM     23  H   UNL     1      52.612  28.994  38.297  0.00  0.00    +0.000 HD
ATOM     24  C   UNL     1      51.785  30.754  37.385  0.00  0.00    +0.000 A 
ATOM     25  H   UNL     1      52.318  30.633  36.456  0.00  0.00    +0.000 HD
ATOM     26  C   UNL     1      50.927  31.808  37.592  0.00  0.00    +0.000 A 
ATOM     27  H   UNL     1      50.838  32.501  36.741  0.00  0.00    +0.000 HD
ATOM     28  C   UNL     1      50.203  32.045  38.742  0.00  0.00    +0.000 A 
ATOM     29  N   UNL     1      49.355  33.172  38.821  0.00  0.00    +0.000 N 
ATOM     30  H   UNL     1      49.318  33.785  37.981  0.00  0.00    +0.000 HD
ENDBRANCH   3   9
BRANCH   5  31
ATOM     31  C   UNL     1      45.625  33.129  46.639  0.00  0.00    +0.000 C 
ATOM     32  H   UNL     1      44.611  32.861  47.012  0.00  0.00    +0.000 HD
ATOM     33  H   UNL     1      46.108  33.713  47.441  0.00  0.00    +0.000 HD
BRANCH  31  34
ATOM     34  S   UNL     1      46.551  31.703  46.061  0.00  0.00    +0.000 S 
BRANCH  34  35
ATOM     35  C   UNL     1      47.605  31.069  47.350  0.00  0.00    +0.000 A 
ATOM     36  C   UNL     1      47.933  31.915  48.383  0.00  0.00    +0.000 A 
ATOM     37  C   UNL     1      48.738  31.434  49.373  0.00  0.00    +0.000 A 
ATOM     38  C   UNL     1      49.230  30.126  49.367  0.00  0.00    +0.000 A 
ATOM     39  N   UNL     1      50.019  29.703  50.374  0.00  0.00    +0.000 NA
ATOM     40  C   UNL     1      50.504  28.450  50.396  0.00  0.00    +0.000 A 
ATOM     41  C   UNL     1      50.182  27.594  49.366  0.00  0.00    +0.000 A 
ATOM     42  C   UNL     1      49.368  28.029  48.326  0.00  0.00    +0.000 A 
ATOM     43  C   UNL     1      48.860  29.331  48.297  0.00  0.00    +0.000 A 
ATOM     44  C   UNL     1      48.053  29.775  47.283  0.00  0.00    +0.000 A 
ATOM     45  H   UNL     1      47.629  32.943  48.517  0.00  0.00    +0.000 HD
ATOM     46  H   UNL     1      49.044  32.042  50.227  0.00  0.00    +0.000 HD
ATOM     47  H   UNL     1      51.128  28.216  51.252  0.00  0.00    +0.000 HD
ATOM     48  H   UNL     1      50.584  26.597  49.409  0.00  0.00    +0.000 HD
ATOM     49  H   UNL     1      49.119  27.352  47.521  0.00  0.00    +0.000 HD
ATOM     50  H   UNL     1      47.787  29.123  46.465  0.00  0.00    +0.000 HD
ENDBRANCH  34  35
ENDBRANCH  31  34
ENDBRANCH   5  31
TORSDOF 4
