REMARK  Name = 
REMARK  5 active torsions:
REMARK  status: ('A' for Active; 'I' for Inactive)
REMARK    1  A    between atoms: C_1  and  C_3
REMARK    2  A    between atoms: C_1  and  C_11
REMARK    3  A    between atoms: C_2  and  S_8
REMARK    4  A    between atoms: C_11  and  C_13
REMARK    5  A    between atoms: C_16  and  C_29
REMARK                            x       y       z     vdW  Elec       q    Type
REMARK                         _______ _______ _______ _____ _____    ______ ____
ROOT
ATOM      1  C   UNL     1      47.372  32.147  47.785  0.00  0.00    +0.000 A 
ATOM      2  C   UNL     1      47.168  31.231  46.714  0.00  0.00    +0.000 A 
ATOM      3  C   UNL     1      47.816  29.993  46.815  0.00  0.00    +0.000 A 
ATOM      4  N   UNL     1      48.586  29.740  47.904  0.00  0.00    +0.000 NA
ATOM      5  C   UNL     1      48.753  30.627  48.889  0.00  0.00    +0.000 A 
ATOM      6  N   UNL     1      48.151  31.807  48.819  0.00  0.00    +0.000 NA
ATOM      7  H   UNL     1      46.913  33.127  47.795  0.00  0.00    +0.000 HD
ATOM      8  H   UNL     1      47.683  29.268  46.016  0.00  0.00    +0.000 HD
ENDROOT
BRANCH   5   9
ATOM      9  C   UNL     1      49.590  30.316  50.043  0.00  0.00    +0.000 A 
ATOM     10  C   UNL     1      49.131  29.455  51.019  0.00  0.00    +0.000 A 
ATOM     11  H   UNL     1      48.138  29.011  50.917  0.00  0.00    +0.000 HD
ATOM     12  C   UNL     1      49.929  29.166  52.108  0.00  0.00    +0.000 A 
ATOM     13  H   UNL     1      49.486  28.475  52.831  0.00  0.00    +0.000 HD
ATOM     14  C   UNL     1      51.189  29.697  52.288  0.00  0.00    +0.000 A 
ATOM     15  C   UNL     1      51.622  30.551  51.303  0.00  0.00    +0.000 A 
ATOM     16  C   UNL     1      50.844  30.837  50.235  0.00  0.00    +0.000 A 
ATOM     17  H   UNL     1      51.214  31.513  49.477  0.00  0.00    +0.000 HD
ATOM     18  S   UNL     1      53.235  31.263  51.482  0.00  0.00    +0.000 S 
ATOM     19  C   UNL     1      53.913  30.634  53.006  0.00  0.00    +0.000 A 
ATOM     20  C   UNL     1      55.165  31.069  53.329  0.00  0.00    +0.000 A 
ATOM     21  H   UNL     1      55.742  31.747  52.733  0.00  0.00    +0.000 HD
ATOM     22  C   UNL     1      55.743  30.616  54.497  0.00  0.00    +0.000 A 
ATOM     23  H   UNL     1      56.728  30.902  54.839  0.00  0.00    +0.000 HD
ATOM     24  C   UNL     1      55.048  29.741  55.305  0.00  0.00    +0.000 A 
ATOM     25  H   UNL     1      55.479  29.373  56.224  0.00  0.00    +0.000 HD
ATOM     26  C   UNL     1      53.787  29.355  54.899  0.00  0.00    +0.000 A 
ATOM     27  H   UNL     1      53.279  28.657  55.581  0.00  0.00    +0.000 HD
ATOM     28  C   UNL     1      53.149  29.766  53.747  0.00  0.00    +0.000 A 
ATOM     29  N   UNL     1      51.870  29.296  53.457  0.00  0.00    +0.000 N 
ATOM     30  H   UNL     1      51.432  28.637  54.135  0.00  0.00    +0.000 HD
ENDBRANCH   5   9
BRANCH   2  31
ATOM     31  C   UNL     1      46.328  31.602  45.587  0.00  0.00    +0.000 C 
ATOM     32  H   UNL     1      45.293  31.863  45.829  0.00  0.00    +0.000 HD
ATOM     33  H   UNL     1      46.234  30.676  44.944  0.00  0.00    +0.000 HD
BRANCH  31  34
ATOM     34  C   UNL     1      47.069  32.663  44.792  0.00  0.00    +0.000 C 
ATOM     35  H   UNL     1      47.516  32.191  43.887  0.00  0.00    +0.000 HD
ATOM     36  H   UNL     1      47.972  33.042  45.357  0.00  0.00    +0.000 HD
BRANCH  34  38
ATOM     37  C   UNL     1      46.482  34.522  43.294  0.00  0.00    +0.000 A 
ATOM     38  C   UNL     1      46.275  33.855  44.489  0.00  0.00    +0.000 A 
ATOM     39  C   UNL     1      45.347  34.263  45.416  0.00  0.00    +0.000 A 
ATOM     40  C   UNL     1      44.597  35.386  45.133  0.00  0.00    +0.000 A 
ATOM     41  C   UNL     1      44.736  36.102  43.984  0.00  0.00    +0.000 A 
ATOM     42  C   UNL     1      45.693  35.627  43.099  0.00  0.00    +0.000 A 
ATOM     43  H   UNL     1      45.128  33.816  46.345  0.00  0.00    +0.000 HD
ATOM     44  H   UNL     1      43.836  35.771  45.830  0.00  0.00    +0.000 HD
ATOM     45  H   UNL     1      44.158  36.978  43.752  0.00  0.00    +0.000 HD
ATOM     46  H   UNL     1      45.828  36.181  42.164  0.00  0.00    +0.000 HD
BRANCH  37  47
ATOM     47  S   UNL     1      47.649  34.039  42.090  0.00  0.00    +0.000 S 
ATOM     48  O   UNL     1      48.995  34.702  42.294  0.00  0.00    +0.000 OA
ATOM     49  O   UNL     1      47.195  34.566  40.741  0.00  0.00    +0.000 OA
ATOM     50  H   UNL     1      47.746  32.693  41.926  0.00  0.00    +0.000 HD
ENDBRANCH  37  47
ENDBRANCH  34  38
ENDBRANCH  31  34
ENDBRANCH   2  31
TORSDOF 5
