
 OpenBabel03242518003D

 50 54  0  0  0  0  0  0  0  0999 V2000
   47.4810   32.3760   47.9610 C   0  0  0  0  0  0  0  0  0  0  0  0
   47.1520   31.3880   46.9900 C   0  0  0  0  0  0  0  0  0  0  0  0
   47.9170   30.2140   47.0050 C   0  0  0  0  0  0  0  0  0  0  0  0
   48.9080   30.0860   47.9240 N   0  0  0  0  0  0  0  0  0  0  0  0
   49.1860   31.0370   48.8200 C   0  0  0  0  0  0  0  0  0  0  0  0
   48.4780   32.1590   48.8280 N   0  0  0  0  0  0  0  0  0  0  0  0
   46.9460   33.3150   48.0260 H   0  0  0  0  0  0  0  0  0  0  0  0
   47.6940   29.4370   46.2780 H   0  0  0  0  0  0  0  0  0  0  0  0
   50.2610   30.8610   49.7910 C   0  0  0  0  0  0  0  0  0  0  0  0
   50.5080   31.8380   50.7350 C   0  0  0  0  0  0  0  0  0  0  0  0
   49.8930   32.7400   50.7460 H   0  0  0  0  0  0  0  0  0  0  0  0
   51.5270   31.6630   51.6500 C   0  0  0  0  0  0  0  0  0  0  0  0
   51.6520   32.4860   52.3600 H   0  0  0  0  0  0  0  0  0  0  0  0
   52.3340   30.5450   51.6820 C   0  0  0  0  0  0  0  0  0  0  0  0
   52.0670   29.5880   50.7340 C   0  0  0  0  0  0  0  0  0  0  0  0
   51.0720   29.7550   49.8360 C   0  0  0  0  0  0  0  0  0  0  0  0
   50.8860   28.9840   49.1000 H   0  0  0  0  0  0  0  0  0  0  0  0
   53.0740   28.1300   50.7290 S   0  0  0  0  0  0  0  0  0  0  0  0
   54.2510   28.3080   52.0560 C   0  0  0  0  0  0  0  0  0  0  0  0
   55.1290   27.2770   52.2220 C   0  0  0  0  0  0  0  0  0  0  0  0
   55.1460   26.3940   51.6140 H   0  0  0  0  0  0  0  0  0  0  0  0
   56.0630   27.3570   53.2320 C   0  0  0  0  0  0  0  0  0  0  0  0
   56.8000   26.5940   53.4430 H   0  0  0  0  0  0  0  0  0  0  0  0
   56.0900   28.4710   54.0470 C   0  0  0  0  0  0  0  0  0  0  0  0
   56.8120   28.5570   54.8450 H   0  0  0  0  0  0  0  0  0  0  0  0
   55.1640   29.4650   53.8070 C   0  0  0  0  0  0  0  0  0  0  0  0
   55.2310   30.3280   54.4860 H   0  0  0  0  0  0  0  0  0  0  0  0
   54.2030   29.4510   52.8170 C   0  0  0  0  0  0  0  0  0  0  0  0
   53.3280   30.5270   52.6840 N   0  0  0  0  0  0  0  0  0  0  0  0
   53.4330   31.3190   53.3520 H   0  0  0  0  0  0  0  0  0  0  0  0
   46.0750   31.6250   46.0440 C   0  0  0  0  0  0  0  0  0  0  0  0
   45.1580   32.0520   46.4620 H   0  0  0  0  0  0  0  0  0  0  0  0
   45.7560   30.6080   45.6650 H   0  0  0  0  0  0  0  0  0  0  0  0
   46.6520   32.4110   44.8790 C   0  0  0  0  0  0  0  0  0  0  0  0
   46.6850   31.7530   43.9800 H   0  0  0  0  0  0  0  0  0  0  0  0
   47.7400   32.6630   45.0540 H   0  0  0  0  0  0  0  0  0  0  0  0
   46.1860   34.3320   43.4170 C   0  0  0  0  0  0  0  0  0  0  0  0
   45.9940   33.6940   44.6300 C   0  0  0  0  0  0  0  0  0  0  0  0
   45.2030   34.2160   45.6260 C   0  0  0  0  0  0  0  0  0  0  0  0
   44.5810   35.4250   45.3940 C   0  0  0  0  0  0  0  0  0  0  0  0
   44.7170   36.1200   44.2320 C   0  0  0  0  0  0  0  0  0  0  0  0
   45.5310   35.5290   43.2770 C   0  0  0  0  0  0  0  0  0  0  0  0
   45.0050   33.7980   46.5730 H   0  0  0  0  0  0  0  0  0  0  0  0
   43.9340   35.9030   46.1470 H   0  0  0  0  0  0  0  0  0  0  0  0
   44.2380   37.0630   44.0400 H   0  0  0  0  0  0  0  0  0  0  0  0
   45.6590   36.0630   42.3290 H   0  0  0  0  0  0  0  0  0  0  0  0
   47.1810   33.7060   42.1270 S   0  0  0  0  0  0  0  0  0  0  0  0
   48.6520   33.9980   42.3410 O   0  0  0  0  0  0  0  0  0  0  0  0
   46.8510   34.4640   40.8540 O   0  0  0  0  0  0  0  0  0  0  0  0
   46.9420   32.4010   41.8310 H   0  0  0  0  0  0  0  0  0  0  0  0
  1  7  1  0  0  0  0
  1  6  1  0  0  0  0
  2  3  1  0  0  0  0
  2  1  2  0  0  0  0
  3  4  2  0  0  0  0
  4  5  1  0  0  0  0
  5  6  2  0  0  0  0
  5  9  1  0  0  0  0
  8  3  1  0  0  0  0
  9 16  2  0  0  0  0
  9 10  1  0  0  0  0
 10 11  1  0  0  0  0
 10 12  2  0  0  0  0
 12 14  1  0  0  0  0
 12 13  1  0  0  0  0
 14 29  1  0  0  0  0
 15 14  2  0  0  0  0
 16 15  1  0  0  0  0
 17 16  1  0  0  0  0
 18 15  1  0  0  0  0
 18 19  1  0  0  0  0
 19 20  2  0  0  0  0
 19 28  1  0  0  0  0
 20 22  1  0  0  0  0
 21 20  1  0  0  0  0
 22 23  1  0  0  0  0
 22 24  2  0  0  0  0
 24 25  1  0  0  0  0
 26 24  1  0  0  0  0
 26 27  1  0  0  0  0
 28 26  2  0  0  0  0
 29 28  1  0  0  0  0
 29 30  1  0  0  0  0
 31 32  1  0  0  0  0
 31  2  1  0  0  0  0
 33 31  1  0  0  0  0
 34 36  1  0  0  0  0
 34 31  1  0  0  0  0
 35 34  1  0  0  0  0
 37 38  1  0  0  0  0
 38 34  1  0  0  0  0
 38 39  2  0  0  0  0
 39 43  1  0  0  0  0
 40 39  1  0  0  0  0
 40 44  1  0  0  0  0
 41 40  2  0  0  0  0
 42 37  2  0  0  0  0
 42 41  1  0  0  0  0
 45 41  1  0  0  0  0
 46 42  1  0  0  0  0
 47 48  2  0  0  0  0
 47 37  1  0  0  0  0
 49 47  2  0  0  0  0
 50 47  1  0  0  0  0
M  END
>  <minimizedAffinity>
-6.2978487

>  <minimizedRMSD>
1.08683276

$$$$
