
     RDKit          3D

 50 55  0  0  0  0  0  0  0  0999 V2000
   46.5509   31.7034   46.0608 S   0  0  0  0  0  0  0  0  0  0  0  0
   47.6049   31.0687   47.3497 C   0  0  0  0  0  0  0  0  0  0  0  0
   47.9332   31.9150   48.3827 C   0  0  0  0  0  0  0  0  0  0  0  0
   48.7380   31.4344   49.3730 C   0  0  0  0  0  0  0  0  0  0  0  0
   49.2302   30.1259   49.3666 C   0  0  0  0  0  0  0  0  0  0  0  0
   50.0194   29.7034   50.3737 N   0  0  0  0  0  0  0  0  0  0  0  0
   50.5042   28.4504   50.3956 C   0  0  0  0  0  0  0  0  0  0  0  0
   50.1824   27.5936   49.3662 C   0  0  0  0  0  0  0  0  0  0  0  0
   49.3679   28.0285   48.3260 C   0  0  0  0  0  0  0  0  0  0  0  0
   48.8597   29.3311   48.2973 C   0  0  0  0  0  0  0  0  0  0  0  0
   48.0535   29.7753   47.2826 C   0  0  0  0  0  0  0  0  0  0  0  0
   45.6247   33.1294   46.6393 C   0  0  0  0  0  0  0  0  0  0  0  0
   44.5997   35.9932   44.4884 C   0  0  0  0  0  0  0  0  0  0  0  0
   45.3544   35.7193   43.3289 C   0  0  0  0  0  0  0  0  0  0  0  0
   46.1768   34.5917   43.3050 C   0  0  0  0  0  0  0  0  0  0  0  0
   46.2235   33.7837   44.4161 N   0  0  0  0  0  0  0  0  0  0  0  0
   45.4803   34.0837   45.5125 C   0  0  0  0  0  0  0  0  0  0  0  0
   44.6903   35.1622   45.5425 N   0  0  0  0  0  0  0  0  0  0  0  0
   47.6290   32.9434   48.5173 H   0  0  0  0  0  0  0  0  0  0  0  0
   49.0444   32.0418   50.2268 H   0  0  0  0  0  0  0  0  0  0  0  0
   51.1282   28.2163   51.2522 H   0  0  0  0  0  0  0  0  0  0  0  0
   50.5841   26.5966   49.4087 H   0  0  0  0  0  0  0  0  0  0  0  0
   49.1190   27.3516   47.5211 H   0  0  0  0  0  0  0  0  0  0  0  0
   47.7874   29.1226   46.4652 H   0  0  0  0  0  0  0  0  0  0  0  0
   44.6108   32.8608   47.0124 H   0  0  0  0  0  0  0  0  0  0  0  0
   46.1082   33.7127   47.4412 H   0  0  0  0  0  0  0  0  0  0  0  0
   43.9464   36.8674   44.5396 H   0  0  0  0  0  0  0  0  0  0  0  0
   45.2783   36.3898   42.4849 H   0  0  0  0  0  0  0  0  0  0  0  0
   46.9702   34.2564   42.1567 C   0  0  0  0  0  0  0  0  0  0  0  0
   47.2478   35.1050   41.1106 C   0  0  0  0  0  0  0  0  0  0  0  0
   46.8545   36.1011   41.1263 H   0  0  0  0  0  0  0  0  0  0  0  0
   48.0294   34.6848   40.0396 C   0  0  0  0  0  0  0  0  0  0  0  0
   48.1943   35.4371   39.2526 H   0  0  0  0  0  0  0  0  0  0  0  0
   48.5645   33.4175   39.9599 C   0  0  0  0  0  0  0  0  0  0  0  0
   48.2841   32.5808   41.0028 C   0  0  0  0  0  0  0  0  0  0  0  0
   47.5254   33.0011   42.0342 C   0  0  0  0  0  0  0  0  0  0  0  0
   47.3324   32.2879   42.8441 H   0  0  0  0  0  0  0  0  0  0  0  0
   48.9524   30.9320   40.9472 S   0  0  0  0  0  0  0  0  0  0  0  0
   49.8774   30.8083   39.4304 C   0  0  0  0  0  0  0  0  0  0  0  0
   50.4890   29.6094   39.1727 C   0  0  0  0  0  0  0  0  0  0  0  0
   50.4148   28.7827   39.8525 H   0  0  0  0  0  0  0  0  0  0  0  0
   51.2209   29.4438   38.0179 C   0  0  0  0  0  0  0  0  0  0  0  0
   51.7034   28.4979   37.8146 H   0  0  0  0  0  0  0  0  0  0  0  0
   51.3216   30.5009   37.1383 C   0  0  0  0  0  0  0  0  0  0  0  0
   51.8879   30.3985   36.2276 H   0  0  0  0  0  0  0  0  0  0  0  0
   50.6816   31.6746   37.4620 C   0  0  0  0  0  0  0  0  0  0  0  0
   50.7998   32.4797   36.7203 H   0  0  0  0  0  0  0  0  0  0  0  0
   49.9366   31.8995   38.6001 C   0  0  0  0  0  0  0  0  0  0  0  0
   49.3306   33.1585   38.8079 N   0  0  0  0  0  0  0  0  0  0  0  0
   49.4819   33.8746   38.0685 H   0  0  0  0  0  0  0  0  0  0  0  0
  1 12  1  0
  1  2  1  0
  2  3  2  0
  3  4  1  0
  4  5  2  0
  5  6  1  0
  6  7  2  0
  8  7  1  0
  9  8  2  0
 10  9  1  0
 10  5  1  0
 11  2  1  0
 11 10  2  0
 13 18  2  0
 14 13  1  0
 15 14  2  0
 15 16  1  0
 16 17  2  0
 17 18  1  0
 17 12  1  0
  3 19  1  0
  4 20  1  0
  7 21  1  0
  8 22  1  0
  9 23  1  0
 11 24  1  0
 12 25  1  0
 12 26  1  0
 13 27  1  0
 14 28  1  0
 29 30  2  0
 30 31  1  0
 30 32  1  0
 32 33  1  0
 32 34  2  0
 34 35  1  0
 35 36  2  0
 36 37  1  0
 35 38  1  0
 38 39  1  0
 39 40  2  0
 40 41  1  0
 40 42  1  0
 42 43  1  0
 42 44  2  0
 44 45  1  0
 44 46  1  0
 46 47  1  0
 46 48  2  0
 48 49  1  0
 49 50  1  0
 36 29  1  0
 48 39  1  0
 49 34  1  0
 15 29  1  0
M  ISO  8  19  14  20  14  21  14  22  14  23  14  24  14  25   8  26   8
M  ISO  8  27  14  28  14  31  16  33  16  37  16  41  16  43  16  45  16
M  ISO  2  47  16  50   5
M  END
>  <DihAtoms>  (1) 
13,14,28,29

>  <DihDeg>  (1) 
-7.875700124382986e-05

$$$$
