REMARK  Name = 
REMARK  2 active torsions:
REMARK  status: ('A' for Active; 'I' for Inactive)
REMARK    1  A    between atoms: C_1  and  C_7
REMARK    2  A    between atoms: C_3  and  C_13
REMARK                            x       y       z     vdW  Elec       q    Type
REMARK                         _______ _______ _______ _____ _____    ______ ____
ROOT
ATOM      1  C   UNL     1      47.085  32.453  45.088  0.00  0.00    +0.000 A 
ATOM      2  C   UNL     1      46.176  31.448  45.337  0.00  0.00    +0.000 A 
ATOM      3  H   UNL     1      45.261  31.446  44.792  0.00  0.00    +0.000 HD
ATOM      4  C   UNL     1      46.472  30.481  46.277  0.00  0.00    +0.000 A 
ATOM      5  H   UNL     1      45.690  29.723  46.407  0.00  0.00    +0.000 HD
ATOM      6  C   UNL     1      47.643  30.443  47.006  0.00  0.00    +0.000 A 
ATOM      7  C   UNL     1      48.529  31.457  46.736  0.00  0.00    +0.000 A 
ATOM      8  C   UNL     1      48.254  32.411  45.818  0.00  0.00    +0.000 A 
ATOM      9  H   UNL     1      49.004  33.197  45.646  0.00  0.00    +0.000 HD
ATOM     10  S   UNL     1      50.058  31.486  47.626  0.00  0.00    +0.000 S 
ATOM     11  C   UNL     1      50.045  30.084  48.724  0.00  0.00    +0.000 A 
ATOM     12  C   UNL     1      51.117  29.867  49.535  0.00  0.00    +0.000 A 
ATOM     13  H   UNL     1      51.965  30.552  49.502  0.00  0.00    +0.000 HD
ATOM     14  C   UNL     1      51.174  28.803  50.408  0.00  0.00    +0.000 A 
ATOM     15  H   UNL     1      51.997  28.588  51.069  0.00  0.00    +0.000 HD
ATOM     16  C   UNL     1      50.093  27.950  50.435  0.00  0.00    +0.000 A 
ATOM     17  H   UNL     1      50.091  27.100  51.104  0.00  0.00    +0.000 HD
ATOM     18  C   UNL     1      49.028  28.206  49.597  0.00  0.00    +0.000 A 
ATOM     19  H   UNL     1      48.202  27.481  49.675  0.00  0.00    +0.000 HD
ATOM     20  C   UNL     1      48.946  29.263  48.715  0.00  0.00    +0.000 A 
ATOM     21  N   UNL     1      47.792  29.383  47.931  0.00  0.00    +0.000 N 
ATOM     22  H   UNL     1      47.032  28.678  48.033  0.00  0.00    +0.000 HD
ENDROOT
BRANCH   1  25
ATOM     23  C   UNL     1      47.683  34.960  42.347  0.00  0.00    +0.000 A 
ATOM     24  C   UNL     1      47.913  33.918  43.249  0.00  0.00    +0.000 A 
ATOM     25  C   UNL     1      46.902  33.531  44.127  0.00  0.00    +0.000 A 
ATOM     26  N   UNL     1      45.726  34.206  44.050  0.00  0.00    +0.000 NA
ATOM     27  C   UNL     1      45.515  35.203  43.182  0.00  0.00    +0.000 A 
ATOM     28  N   UNL     1      46.485  35.571  42.344  0.00  0.00    +0.000 NA
ATOM     29  H   UNL     1      48.857  33.435  43.255  0.00  0.00    +0.000 HD
ATOM     30  H   UNL     1      44.544  35.681  43.195  0.00  0.00    +0.000 HD
BRANCH  23  31
ATOM     31  C   UNL     1      48.789  35.344  41.426  0.00  0.00    +0.000 C 
ATOM     32  F   UNL     1      48.416  35.240  40.110  0.00  0.00    +0.000 F 
ATOM     33  F   UNL     1      49.216  36.613  41.755  0.00  0.00    +0.000 F 
ATOM     34  F   UNL     1      49.885  34.499  41.668  0.00  0.00    +0.000 F 
ENDBRANCH  23  31
ENDBRANCH   1  25
TORSDOF 2
