
     RDKit          3D

 34 37  0  0  0  0  0  0  0  0999 V2000
   47.6833   34.9602   42.3473 C   0  0  0  0  0  0  0  0  0  0  0  0
   47.9135   33.9184   43.2494 C   0  0  0  0  0  0  0  0  0  0  0  0
   46.9016   33.5308   44.1272 C   0  0  0  0  0  0  0  0  0  0  0  0
   45.7257   34.2056   44.0498 N   0  0  0  0  0  0  0  0  0  0  0  0
   45.5152   35.2026   43.1817 C   0  0  0  0  0  0  0  0  0  0  0  0
   46.4852   35.5708   42.3436 N   0  0  0  0  0  0  0  0  0  0  0  0
   48.7895   35.3444   41.4263 C   0  0  0  0  0  0  0  0  0  0  0  0
   48.4165   35.2404   40.1099 F   0  0  0  0  0  0  0  0  0  0  0  0
   49.2161   36.6126   41.7546 F   0  0  0  0  0  0  0  0  0  0  0  0
   49.8854   34.4992   41.6681 F   0  0  0  0  0  0  0  0  0  0  0  0
   48.8566   33.4349   43.2551 H   0  0  0  0  0  0  0  0  0  0  0  0
   44.5436   35.6811   43.1949 H   0  0  0  0  0  0  0  0  0  0  0  0
   47.0853   32.4529   45.0876 C   0  0  0  0  0  0  0  0  0  0  0  0
   46.0869   31.6255   45.5538 C   0  0  0  0  0  0  0  0  0  0  0  0
   45.0955   31.7743   45.1917 H   0  0  0  0  0  0  0  0  0  0  0  0
   46.3931   30.6368   46.4670 C   0  0  0  0  0  0  0  0  0  0  0  0
   45.5363   30.0290   46.7802 H   0  0  0  0  0  0  0  0  0  0  0  0
   47.6605   30.4080   46.9627 C   0  0  0  0  0  0  0  0  0  0  0  0
   48.6347   31.2473   46.4807 C   0  0  0  0  0  0  0  0  0  0  0  0
   48.3496   32.2206   45.5856 C   0  0  0  0  0  0  0  0  0  0  0  0
   49.1732   32.8611   45.2366 H   0  0  0  0  0  0  0  0  0  0  0  0
   50.2903   31.0245   47.0634 S   0  0  0  0  0  0  0  0  0  0  0  0
   50.2564   29.6639   48.2118 C   0  0  0  0  0  0  0  0  0  0  0  0
   51.4140   29.2764   48.8161 C   0  0  0  0  0  0  0  0  0  0  0  0
   52.3419   29.8029   48.5890 H   0  0  0  0  0  0  0  0  0  0  0  0
   51.4603   28.2333   49.7135 C   0  0  0  0  0  0  0  0  0  0  0  0
   52.3478   27.8886   50.2172 H   0  0  0  0  0  0  0  0  0  0  0  0
   50.2774   27.5812   49.9867 C   0  0  0  0  0  0  0  0  0  0  0  0
   50.2635   26.7555   50.6850 H   0  0  0  0  0  0  0  0  0  0  0  0
   49.1281   28.0057   49.3530 C   0  0  0  0  0  0  0  0  0  0  0  0
   48.2235   27.4368   49.6216 H   0  0  0  0  0  0  0  0  0  0  0  0
   49.0549   29.0462   48.4514 C   0  0  0  0  0  0  0  0  0  0  0  0
   47.8068   29.3528   47.8943 N   0  0  0  0  0  0  0  0  0  0  0  0
   46.9741   28.7926   48.1724 H   0  0  0  0  0  0  0  0  0  0  0  0
  1  2  2  0
  2  3  1  0
  4  3  2  0
  5  4  1  0
  6  1  1  0
  6  5  2  0
  7 10  1  0
  7  9  1  0
  7  1  1  0
  8  7  1  0
  2 11  1  0
  5 12  1  0
 13 14  2  0
 14 15  1  0
 14 16  1  0
 16 17  1  0
 16 18  2  0
 18 19  1  0
 19 20  2  0
 20 21  1  0
 19 22  1  0
 22 23  1  0
 23 24  2  0
 24 25  1  0
 24 26  1  0
 26 27  1  0
 26 28  2  0
 28 29  1  0
 28 30  1  0
 30 31  1  0
 30 32  2  0
 32 33  1  0
 33 34  1  0
 20 13  1  0
 32 23  1  0
 33 18  1  0
  3 13  1  0
M  ISO  8  11  14  12  14  15  16  17  16  21  16  25  16  27  16  29  16
M  ISO  2  31  16  34   5
M  END
>  <DihAtoms>  (1) 
1,2,12,13

>  <DihDeg>  (1) 
-0.009098496134389953

$$$$
