
     RDKit          3D

 34 37  0  0  0  0  0  0  0  0999 V2000
   47.6833   34.9602   42.3473 C   0  0  0  0  0  0  0  0  0  0  0  0
   47.9135   33.9184   43.2494 C   0  0  0  0  0  0  0  0  0  0  0  0
   46.9016   33.5308   44.1272 C   0  0  0  0  0  0  0  0  0  0  0  0
   45.7257   34.2056   44.0498 N   0  0  0  0  0  0  0  0  0  0  0  0
   45.5152   35.2026   43.1817 C   0  0  0  0  0  0  0  0  0  0  0  0
   46.4852   35.5708   42.3436 N   0  0  0  0  0  0  0  0  0  0  0  0
   48.7895   35.3444   41.4263 C   0  0  0  0  0  0  0  0  0  0  0  0
   48.4165   35.2404   40.1099 F   0  0  0  0  0  0  0  0  0  0  0  0
   49.2161   36.6126   41.7546 F   0  0  0  0  0  0  0  0  0  0  0  0
   49.8854   34.4992   41.6681 F   0  0  0  0  0  0  0  0  0  0  0  0
   48.8566   33.4349   43.2551 H   0  0  0  0  0  0  0  0  0  0  0  0
   44.5436   35.6811   43.1949 H   0  0  0  0  0  0  0  0  0  0  0  0
   47.0853   32.4529   45.0876 C   0  0  0  0  0  0  0  0  0  0  0  0
   48.0367   32.4303   46.0841 C   0  0  0  0  0  0  0  0  0  0  0  0
   48.6986   33.2612   46.1714 H   0  0  0  0  0  0  0  0  0  0  0  0
   48.1070   31.3448   46.9337 C   0  0  0  0  0  0  0  0  0  0  0  0
   48.8937   31.4153   47.6939 H   0  0  0  0  0  0  0  0  0  0  0  0
   47.2721   30.2486   46.8581 C   0  0  0  0  0  0  0  0  0  0  0  0
   46.3345   30.2987   45.8560 C   0  0  0  0  0  0  0  0  0  0  0  0
   46.2537   31.3557   45.0159 C   0  0  0  0  0  0  0  0  0  0  0  0
   45.4811   31.3376   44.2329 H   0  0  0  0  0  0  0  0  0  0  0  0
   45.2217   28.9338   45.6863 S   0  0  0  0  0  0  0  0  0  0  0  0
   45.6423   27.7614   46.9592 C   0  0  0  0  0  0  0  0  0  0  0  0
   44.9316   26.6035   47.0560 C   0  0  0  0  0  0  0  0  0  0  0  0
   44.1181   26.4112   46.3553 H   0  0  0  0  0  0  0  0  0  0  0  0
   45.2025   25.6538   48.0154 C   0  0  0  0  0  0  0  0  0  0  0  0
   44.6715   24.7242   48.1340 H   0  0  0  0  0  0  0  0  0  0  0  0
   46.2339   25.9158   48.8909 C   0  0  0  0  0  0  0  0  0  0  0  0
   46.4843   25.1998   49.6618 H   0  0  0  0  0  0  0  0  0  0  0  0
   46.9280   27.1004   48.7578 C   0  0  0  0  0  0  0  0  0  0  0  0
   47.7372   27.2390   49.4925 H   0  0  0  0  0  0  0  0  0  0  0  0
   46.6770   28.0667   47.8069 C   0  0  0  0  0  0  0  0  0  0  0  0
   47.4755   29.2175   47.8059 N   0  0  0  0  0  0  0  0  0  0  0  0
   48.2310   29.3132   48.5163 H   0  0  0  0  0  0  0  0  0  0  0  0
  1  2  2  0
  2  3  1  0
  4  3  2  0
  5  4  1  0
  6  1  1  0
  6  5  2  0
  7 10  1  0
  7  9  1  0
  7  1  1  0
  8  7  1  0
  2 11  1  0
  5 12  1  0
 13 14  2  0
 14 15  1  0
 14 16  1  0
 16 17  1  0
 16 18  2  0
 18 19  1  0
 19 20  2  0
 20 21  1  0
 19 22  1  0
 22 23  1  0
 23 24  2  0
 24 25  1  0
 24 26  1  0
 26 27  1  0
 26 28  2  0
 28 29  1  0
 28 30  1  0
 30 31  1  0
 30 32  2  0
 32 33  1  0
 33 34  1  0
 20 13  1  0
 32 23  1  0
 33 18  1  0
  3 13  1  0
M  ISO  8  11  14  12  14  15  16  17  16  21  16  25  16  27  16  29  16
M  ISO  2  31  16  34   5
M  END
>  <DihAtoms>  (1) 
1,2,12,13

>  <DihDeg>  (1) 
-0.009098496134389953

$$$$
