
     RDKit          3D

 34 37  0  0  0  0  0  0  0  0999 V2000
   47.6833   34.9602   42.3473 C   0  0  0  0  0  0  0  0  0  0  0  0
   47.9135   33.9184   43.2494 C   0  0  0  0  0  0  0  0  0  0  0  0
   46.9016   33.5308   44.1272 C   0  0  0  0  0  0  0  0  0  0  0  0
   45.7257   34.2056   44.0498 N   0  0  0  0  0  0  0  0  0  0  0  0
   45.5152   35.2026   43.1817 C   0  0  0  0  0  0  0  0  0  0  0  0
   46.4852   35.5708   42.3436 N   0  0  0  0  0  0  0  0  0  0  0  0
   48.7895   35.3444   41.4263 C   0  0  0  0  0  0  0  0  0  0  0  0
   48.4165   35.2404   40.1099 F   0  0  0  0  0  0  0  0  0  0  0  0
   49.2161   36.6126   41.7546 F   0  0  0  0  0  0  0  0  0  0  0  0
   49.8854   34.4992   41.6681 F   0  0  0  0  0  0  0  0  0  0  0  0
   48.8566   33.4349   43.2551 H   0  0  0  0  0  0  0  0  0  0  0  0
   44.5436   35.6811   43.1949 H   0  0  0  0  0  0  0  0  0  0  0  0
   47.0853   32.4529   45.0876 C   0  0  0  0  0  0  0  0  0  0  0  0
   46.8101   31.1235   44.8520 C   0  0  0  0  0  0  0  0  0  0  0  0
   46.4317   30.8465   43.8948 H   0  0  0  0  0  0  0  0  0  0  0  0
   47.0292   30.1956   45.8501 C   0  0  0  0  0  0  0  0  0  0  0  0
   46.7818   29.1646   45.5717 H   0  0  0  0  0  0  0  0  0  0  0  0
   47.5172   30.5082   47.1026 C   0  0  0  0  0  0  0  0  0  0  0  0
   47.7822   31.8397   47.3087 C   0  0  0  0  0  0  0  0  0  0  0  0
   47.5725   32.7603   46.3401 C   0  0  0  0  0  0  0  0  0  0  0  0
   47.8041   33.8119   46.5656 H   0  0  0  0  0  0  0  0  0  0  0  0
   48.4114   32.3300   48.8879 S   0  0  0  0  0  0  0  0  0  0  0  0
   48.5466   30.8524   49.8728 C   0  0  0  0  0  0  0  0  0  0  0  0
   49.0118   30.9461   51.1496 C   0  0  0  0  0  0  0  0  0  0  0  0
   49.2938   31.9211   51.5493 H   0  0  0  0  0  0  0  0  0  0  0  0
   49.1419   29.8453   51.9662 C   0  0  0  0  0  0  0  0  0  0  0  0
   49.5038   29.8660   52.9806 H   0  0  0  0  0  0  0  0  0  0  0  0
   48.7804   28.6231   51.4424 C   0  0  0  0  0  0  0  0  0  0  0  0
   48.8650   27.7295   52.0456 H   0  0  0  0  0  0  0  0  0  0  0  0
   48.3142   28.5727   50.1452 C   0  0  0  0  0  0  0  0  0  0  0  0
   48.0453   27.5626   49.7969 H   0  0  0  0  0  0  0  0  0  0  0  0
   48.1745   29.6589   49.3075 C   0  0  0  0  0  0  0  0  0  0  0  0
   47.6851   29.4384   48.0137 N   0  0  0  0  0  0  0  0  0  0  0  0
   47.4416   28.4693   47.7202 H   0  0  0  0  0  0  0  0  0  0  0  0
  1  2  2  0
  2  3  1  0
  4  3  2  0
  5  4  1  0
  6  1  1  0
  6  5  2  0
  7 10  1  0
  7  9  1  0
  7  1  1  0
  8  7  1  0
  2 11  1  0
  5 12  1  0
 13 14  2  0
 14 15  1  0
 14 16  1  0
 16 17  1  0
 16 18  2  0
 18 19  1  0
 19 20  2  0
 20 21  1  0
 19 22  1  0
 22 23  1  0
 23 24  2  0
 24 25  1  0
 24 26  1  0
 26 27  1  0
 26 28  2  0
 28 29  1  0
 28 30  1  0
 30 31  1  0
 30 32  2  0
 32 33  1  0
 33 34  1  0
 20 13  1  0
 32 23  1  0
 33 18  1  0
  3 13  1  0
M  ISO  8  11  14  12  14  15  16  17  16  21  16  25  16  27  16  29  16
M  ISO  2  31  16  34   5
M  END
>  <DihAtoms>  (1) 
1,2,12,13

>  <DihDeg>  (1) 
-0.009098496134389953

$$$$
