
     RDKit          3D

 34 37  0  0  0  0  0  0  0  0999 V2000
   47.6833   34.9602   42.3473 C   0  0  0  0  0  0  0  0  0  0  0  0
   47.9135   33.9184   43.2494 C   0  0  0  0  0  0  0  0  0  0  0  0
   46.9016   33.5308   44.1272 C   0  0  0  0  0  0  0  0  0  0  0  0
   45.7257   34.2056   44.0498 N   0  0  0  0  0  0  0  0  0  0  0  0
   45.5152   35.2026   43.1817 C   0  0  0  0  0  0  0  0  0  0  0  0
   46.4852   35.5708   42.3436 N   0  0  0  0  0  0  0  0  0  0  0  0
   48.7895   35.3444   41.4263 C   0  0  0  0  0  0  0  0  0  0  0  0
   48.4165   35.2404   40.1099 F   0  0  0  0  0  0  0  0  0  0  0  0
   49.2161   36.6126   41.7546 F   0  0  0  0  0  0  0  0  0  0  0  0
   49.8854   34.4992   41.6681 F   0  0  0  0  0  0  0  0  0  0  0  0
   48.8566   33.4349   43.2551 H   0  0  0  0  0  0  0  0  0  0  0  0
   44.5436   35.6811   43.1949 H   0  0  0  0  0  0  0  0  0  0  0  0
   47.0853   32.4529   45.0876 C   0  0  0  0  0  0  0  0  0  0  0  0
   47.8205   32.5410   46.2496 C   0  0  0  0  0  0  0  0  0  0  0  0
   48.2992   33.4657   46.4773 H   0  0  0  0  0  0  0  0  0  0  0  0
   47.9169   31.4420   47.0792 C   0  0  0  0  0  0  0  0  0  0  0  0
   48.5214   31.6058   47.9789 H   0  0  0  0  0  0  0  0  0  0  0  0
   47.3150   30.2265   46.8251 C   0  0  0  0  0  0  0  0  0  0  0  0
   46.5893   30.1680   45.6607 C   0  0  0  0  0  0  0  0  0  0  0  0
   46.4860   31.2367   44.8379 C   0  0  0  0  0  0  0  0  0  0  0  0
   45.8903   31.1280   43.9194 H   0  0  0  0  0  0  0  0  0  0  0  0
   45.7834   28.6460   45.2559 S   0  0  0  0  0  0  0  0  0  0  0  0
   46.1534   27.4994   46.5673 C   0  0  0  0  0  0  0  0  0  0  0  0
   45.6498   26.2354   46.5055 C   0  0  0  0  0  0  0  0  0  0  0  0
   45.0293   25.9442   45.6569 H   0  0  0  0  0  0  0  0  0  0  0  0
   45.8956   25.2984   47.4839 C   0  0  0  0  0  0  0  0  0  0  0  0
   45.5218   24.2882   47.4820 H   0  0  0  0  0  0  0  0  0  0  0  0
   46.6816   25.6860   48.5474 C   0  0  0  0  0  0  0  0  0  0  0  0
   46.9025   24.9850   49.3408 H   0  0  0  0  0  0  0  0  0  0  0  0
   47.1714   26.9753   48.5709 C   0  0  0  0  0  0  0  0  0  0  0  0
   47.7906   27.2112   49.4511 H   0  0  0  0  0  0  0  0  0  0  0  0
   46.9402   27.9316   47.6050 C   0  0  0  0  0  0  0  0  0  0  0  0
   47.5119   29.1986   47.7777 N   0  0  0  0  0  0  0  0  0  0  0  0
   48.0913   29.3844   48.6229 H   0  0  0  0  0  0  0  0  0  0  0  0
  1  2  2  0
  2  3  1  0
  4  3  2  0
  5  4  1  0
  6  1  1  0
  6  5  2  0
  7 10  1  0
  7  9  1  0
  7  1  1  0
  8  7  1  0
  2 11  1  0
  5 12  1  0
 13 14  2  0
 14 15  1  0
 14 16  1  0
 16 17  1  0
 16 18  2  0
 18 19  1  0
 19 20  2  0
 20 21  1  0
 19 22  1  0
 22 23  1  0
 23 24  2  0
 24 25  1  0
 24 26  1  0
 26 27  1  0
 26 28  2  0
 28 29  1  0
 28 30  1  0
 30 31  1  0
 30 32  2  0
 32 33  1  0
 33 34  1  0
 20 13  1  0
 32 23  1  0
 33 18  1  0
  3 13  1  0
M  ISO  8  11  14  12  14  15  16  17  16  21  16  25  16  27  16  29  16
M  ISO  2  31  16  34   5
M  END
>  <DihAtoms>  (1) 
1,2,12,13

>  <DihDeg>  (1) 
-0.009098496134389953

$$$$
