REMARK  Name = 
REMARK  2 active torsions:
REMARK  status: ('A' for Active; 'I' for Inactive)
REMARK    1  A    between atoms: C_1  and  C_7
REMARK    2  A    between atoms: C_3  and  C_13
REMARK                            x       y       z     vdW  Elec       q    Type
REMARK                         _______ _______ _______ _____ _____    ______ ____
ROOT
ATOM      1  C   UNL     1      47.085  32.453  45.088  0.00  0.00    +0.000 A 
ATOM      2  C   UNL     1      46.267  32.203  46.167  0.00  0.00    +0.000 A 
ATOM      3  H   UNL     1      45.428  32.841  46.326  0.00  0.00    +0.000 HD
ATOM      4  C   UNL     1      46.551  31.145  47.007  0.00  0.00    +0.000 A 
ATOM      5  H   UNL     1      45.846  31.023  47.837  0.00  0.00    +0.000 HD
ATOM      6  C   UNL     1      47.624  30.293  46.841  0.00  0.00    +0.000 A 
ATOM      7  C   UNL     1      48.422  30.566  45.757  0.00  0.00    +0.000 A 
ATOM      8  C   UNL     1      48.156  31.600  44.926  0.00  0.00    +0.000 A 
ATOM      9  H   UNL     1      48.832  31.768  44.075  0.00  0.00    +0.000 HD
ATOM     10  S   UNL     1      49.822  29.524  45.468  0.00  0.00    +0.000 S 
ATOM     11  C   UNL     1      49.830  28.298  46.760  0.00  0.00    +0.000 A 
ATOM     12  C   UNL     1      50.815  27.357  46.776  0.00  0.00    +0.000 A 
ATOM     13  H   UNL     1      51.582  27.368  46.001  0.00  0.00    +0.000 HD
ATOM     14  C   UNL     1      50.881  26.381  47.745  0.00  0.00    +0.000 A 
ATOM     15  H   UNL     1      51.638  25.616  47.802  0.00  0.00    +0.000 HD
ATOM     16  C   UNL     1      49.903  26.384  48.715  0.00  0.00    +0.000 A 
ATOM     17  H   UNL     1      49.913  25.637  49.497  0.00  0.00    +0.000 HD
ATOM     18  C   UNL     1      48.924  27.355  48.661  0.00  0.00    +0.000 A 
ATOM     19  H   UNL     1      48.177  27.293  49.469  0.00  0.00    +0.000 HD
ATOM     20  C   UNL     1      48.834  28.342  47.703  0.00  0.00    +0.000 A 
ATOM     21  N   UNL     1      47.776  29.255  47.791  0.00  0.00    +0.000 N 
ATOM     22  H   UNL     1      47.089  29.165  48.569  0.00  0.00    +0.000 HD
ENDROOT
BRANCH   1  25
ATOM     23  C   UNL     1      47.683  34.960  42.347  0.00  0.00    +0.000 A 
ATOM     24  C   UNL     1      47.913  33.918  43.249  0.00  0.00    +0.000 A 
ATOM     25  C   UNL     1      46.902  33.531  44.127  0.00  0.00    +0.000 A 
ATOM     26  N   UNL     1      45.726  34.206  44.050  0.00  0.00    +0.000 NA
ATOM     27  C   UNL     1      45.515  35.203  43.182  0.00  0.00    +0.000 A 
ATOM     28  N   UNL     1      46.485  35.571  42.344  0.00  0.00    +0.000 NA
ATOM     29  H   UNL     1      48.857  33.435  43.255  0.00  0.00    +0.000 HD
ATOM     30  H   UNL     1      44.544  35.681  43.195  0.00  0.00    +0.000 HD
BRANCH  23  31
ATOM     31  C   UNL     1      48.789  35.344  41.426  0.00  0.00    +0.000 C 
ATOM     32  F   UNL     1      48.416  35.240  40.110  0.00  0.00    +0.000 F 
ATOM     33  F   UNL     1      49.216  36.613  41.755  0.00  0.00    +0.000 F 
ATOM     34  F   UNL     1      49.885  34.499  41.668  0.00  0.00    +0.000 F 
ENDBRANCH  23  31
ENDBRANCH   1  25
TORSDOF 2
