
     RDKit          3D

 34 37  0  0  0  0  0  0  0  0999 V2000
   47.6833   34.9602   42.3473 C   0  0  0  0  0  0  0  0  0  0  0  0
   47.9135   33.9184   43.2494 C   0  0  0  0  0  0  0  0  0  0  0  0
   46.9016   33.5308   44.1272 C   0  0  0  0  0  0  0  0  0  0  0  0
   45.7257   34.2056   44.0498 N   0  0  0  0  0  0  0  0  0  0  0  0
   45.5152   35.2026   43.1817 C   0  0  0  0  0  0  0  0  0  0  0  0
   46.4852   35.5708   42.3436 N   0  0  0  0  0  0  0  0  0  0  0  0
   48.7895   35.3444   41.4263 C   0  0  0  0  0  0  0  0  0  0  0  0
   48.4165   35.2404   40.1099 F   0  0  0  0  0  0  0  0  0  0  0  0
   49.2161   36.6126   41.7546 F   0  0  0  0  0  0  0  0  0  0  0  0
   49.8854   34.4992   41.6681 F   0  0  0  0  0  0  0  0  0  0  0  0
   48.8566   33.4349   43.2551 H   0  0  0  0  0  0  0  0  0  0  0  0
   44.5436   35.6811   43.1949 H   0  0  0  0  0  0  0  0  0  0  0  0
   47.0853   32.4529   45.0876 C   0  0  0  0  0  0  0  0  0  0  0  0
   46.1763   31.4479   45.3374 C   0  0  0  0  0  0  0  0  0  0  0  0
   45.2606   31.4461   44.7918 H   0  0  0  0  0  0  0  0  0  0  0  0
   46.4718   30.4807   46.2767 C   0  0  0  0  0  0  0  0  0  0  0  0
   45.6903   29.7232   46.4075 H   0  0  0  0  0  0  0  0  0  0  0  0
   47.6429   30.4433   47.0057 C   0  0  0  0  0  0  0  0  0  0  0  0
   48.5295   31.4568   46.7360 C   0  0  0  0  0  0  0  0  0  0  0  0
   48.2536   32.4115   45.8183 C   0  0  0  0  0  0  0  0  0  0  0  0
   49.0040   33.1974   45.6464 H   0  0  0  0  0  0  0  0  0  0  0  0
   50.0582   31.4862   47.6260 S   0  0  0  0  0  0  0  0  0  0  0  0
   50.0453   30.0842   48.7239 C   0  0  0  0  0  0  0  0  0  0  0  0
   51.1173   29.8669   49.5355 C   0  0  0  0  0  0  0  0  0  0  0  0
   51.9654   30.5520   49.5018 H   0  0  0  0  0  0  0  0  0  0  0  0
   51.1741   28.8033   50.4080 C   0  0  0  0  0  0  0  0  0  0  0  0
   51.9967   28.5878   51.0692 H   0  0  0  0  0  0  0  0  0  0  0  0
   50.0928   27.9496   50.4354 C   0  0  0  0  0  0  0  0  0  0  0  0
   50.0911   27.0998   51.1043 H   0  0  0  0  0  0  0  0  0  0  0  0
   49.0278   28.2061   49.5971 C   0  0  0  0  0  0  0  0  0  0  0  0
   48.2018   27.4811   49.6754 H   0  0  0  0  0  0  0  0  0  0  0  0
   48.9463   29.2628   48.7153 C   0  0  0  0  0  0  0  0  0  0  0  0
   47.7920   29.3829   47.9310 N   0  0  0  0  0  0  0  0  0  0  0  0
   47.0321   28.6781   48.0328 H   0  0  0  0  0  0  0  0  0  0  0  0
  1  2  2  0
  2  3  1  0
  4  3  2  0
  5  4  1  0
  6  1  1  0
  6  5  2  0
  7 10  1  0
  7  9  1  0
  7  1  1  0
  8  7  1  0
  2 11  1  0
  5 12  1  0
 13 14  2  0
 14 15  1  0
 14 16  1  0
 16 17  1  0
 16 18  2  0
 18 19  1  0
 19 20  2  0
 20 21  1  0
 19 22  1  0
 22 23  1  0
 23 24  2  0
 24 25  1  0
 24 26  1  0
 26 27  1  0
 26 28  2  0
 28 29  1  0
 28 30  1  0
 30 31  1  0
 30 32  2  0
 32 33  1  0
 33 34  1  0
 20 13  1  0
 32 23  1  0
 33 18  1  0
  3 13  1  0
M  ISO  8  11  14  12  14  15  16  17  16  21  16  25  16  27  16  29  16
M  ISO  2  31  16  34   5
M  END
>  <DihAtoms>  (1) 
1,2,12,13

>  <DihDeg>  (1) 
-0.009098496134389953

$$$$
