
 OpenBabel03242513333D

 34 37  0  0  0  0  0  0  0  0999 V2000
   46.3570   30.8310   46.1320 C   0  0  0  0  0  0  0  0  0  0  0  0
   47.5580   30.7610   46.8050 C   0  0  0  0  0  0  0  0  0  0  0  0
   48.1950   31.6190   46.8390 H   0  0  0  0  0  0  0  0  0  0  0  0
   47.8900   29.5700   47.4150 C   0  0  0  0  0  0  0  0  0  0  0  0
   48.8610   29.5890   47.9330 H   0  0  0  0  0  0  0  0  0  0  0  0
   47.1220   28.4260   47.4140 C   0  0  0  0  0  0  0  0  0  0  0  0
   45.9360   28.5290   46.7370 C   0  0  0  0  0  0  0  0  0  0  0  0
   45.5720   29.6960   46.1190 C   0  0  0  0  0  0  0  0  0  0  0  0
   44.6130   29.7560   45.5800 H   0  0  0  0  0  0  0  0  0  0  0  0
   44.8530   27.1190   46.6620 S   0  0  0  0  0  0  0  0  0  0  0  0
   45.6720   25.8240   47.5720 C   0  0  0  0  0  0  0  0  0  0  0  0
   45.0780   24.6110   47.6890 C   0  0  0  0  0  0  0  0  0  0  0  0
   44.1020   24.4270   47.2300 H   0  0  0  0  0  0  0  0  0  0  0  0
   45.6340   23.5670   48.3670 C   0  0  0  0  0  0  0  0  0  0  0  0
   45.2090   22.5800   48.4940 H   0  0  0  0  0  0  0  0  0  0  0  0
   46.8630   23.7890   48.9500 C   0  0  0  0  0  0  0  0  0  0  0  0
   47.3520   22.9960   49.4990 H   0  0  0  0  0  0  0  0  0  0  0  0
   47.4500   25.0310   48.8180 C   0  0  0  0  0  0  0  0  0  0  0  0
   48.4310   25.1330   49.3100 H   0  0  0  0  0  0  0  0  0  0  0  0
   46.8950   26.0910   48.1350 C   0  0  0  0  0  0  0  0  0  0  0  0
   47.6150   27.2920   48.0900 N   0  0  0  0  0  0  0  0  0  0  0  0
   48.5390   27.3550   48.5650 H   0  0  0  0  0  0  0  0  0  0  0  0
   45.3800   34.3080   45.6680 C   0  0  0  0  0  0  0  0  0  0  0  0
   45.2050   34.4170   44.2730 C   0  0  0  0  0  0  0  0  0  0  0  0
   45.4290   33.2790   43.5210 C   0  0  0  0  0  0  0  0  0  0  0  0
   45.8000   32.1270   44.1220 N   0  0  0  0  0  0  0  0  0  0  0  0
   45.9570   32.0670   45.4690 C   0  0  0  0  0  0  0  0  0  0  0  0
   45.7490   33.1500   46.2500 N   0  0  0  0  0  0  0  0  0  0  0  0
   45.2120   35.1830   46.2970 H   0  0  0  0  0  0  0  0  0  0  0  0
   45.2930   33.3750   42.4600 H   0  0  0  0  0  0  0  0  0  0  0  0
   44.7950   35.7470   43.7500 C   0  0  0  0  0  0  0  0  0  0  0  0
   44.7010   36.5830   44.8430 F   0  0  0  0  0  0  0  0  0  0  0  0
   43.5690   35.6230   43.1420 F   0  0  0  0  0  0  0  0  0  0  0  0
   45.7700   36.1620   42.8460 F   0  0  0  0  0  0  0  0  0  0  0  0
  1  2  1  0  0  0  0
  2  3  1  0  0  0  0
  2  4  2  0  0  0  0
  4  5  1  0  0  0  0
  6  4  1  0  0  0  0
  6 21  1  0  0  0  0
  7  6  2  0  0  0  0
  8  1  2  0  0  0  0
  8  7  1  0  0  0  0
  9  8  1  0  0  0  0
 10  7  1  0  0  0  0
 10 11  1  0  0  0  0
 11 12  2  0  0  0  0
 11 20  1  0  0  0  0
 12 14  1  0  0  0  0
 13 12  1  0  0  0  0
 14 15  1  0  0  0  0
 14 16  2  0  0  0  0
 16 17  1  0  0  0  0
 18 16  1  0  0  0  0
 18 19  1  0  0  0  0
 20 18  2  0  0  0  0
 21 20  1  0  0  0  0
 21 22  1  0  0  0  0
 23 28  1  0  0  0  0
 23 29  1  0  0  0  0
 24 23  2  0  0  0  0
 25 26  2  0  0  0  0
 25 24  1  0  0  0  0
 26 27  1  0  0  0  0
 27  1  1  0  0  0  0
 27 28  2  0  0  0  0
 30 25  1  0  0  0  0
 31 24  1  0  0  0  0
 31 32  1  0  0  0  0
 33 31  1  0  0  0  0
 34 31  1  0  0  0  0
M  END
>  <minimizedAffinity>
-5.66493845

>  <minimizedRMSD>
3.2566793

$$$$
