
     RDKit          3D

 37 40  0  0  0  0  0  0  0  0999 V2000
   45.1936   35.2070   44.0533 C   0  0  0  0  0  0  0  0  0  0  0  0
   46.2348   34.5874   43.3699 C   0  0  0  0  0  0  0  0  0  0  0  0
   46.9117   33.5711   44.0699 C   0  0  0  0  0  0  0  0  0  0  0  0
   46.5133   33.2719   45.3317 N   0  0  0  0  0  0  0  0  0  0  0  0
   45.5050   33.9020   45.9378 C   0  0  0  0  0  0  0  0  0  0  0  0
   44.8402   34.8729   45.3009 N   0  0  0  0  0  0  0  0  0  0  0  0
   46.5463   35.0091   42.0231 C   0  0  1  0  0  0  0  0  0  0  0  0
   48.0512   35.1646   41.9194 C   0  0  0  0  0  0  0  0  0  0  0  0
   44.6099   36.0116   43.5830 H   0  0  0  0  0  0  0  0  0  0  0  0
   47.7274   33.0630   43.5750 H   0  0  0  0  0  0  0  0  0  0  0  0
   45.1697   33.6794   46.9455 H   0  0  0  0  0  0  0  0  0  0  0  0
   46.0828   36.0104   41.8524 H   0  0  0  0  0  0  0  0  0  0  0  0
   48.4149   35.9286   42.6414 H   0  0  0  0  0  0  0  0  0  0  0  0
   48.5015   34.1847   42.0702 H   0  0  0  0  0  0  0  0  0  0  0  0
   48.2481   35.5866   40.9024 H   0  0  0  0  0  0  0  0  0  0  0  0
   46.0579   34.0984   40.9534 C   0  0  0  0  0  0  0  0  0  0  0  0
   46.4389   34.0743   39.6256 C   0  0  0  0  0  0  0  0  0  0  0  0
   47.1709   34.7999   39.3479 H   0  0  0  0  0  0  0  0  0  0  0  0
   45.8921   33.1683   38.7619 C   0  0  0  0  0  0  0  0  0  0  0  0
   46.2533   33.2258   37.7395 H   0  0  0  0  0  0  0  0  0  0  0  0
   44.9486   32.2453   39.1573 C   0  0  0  0  0  0  0  0  0  0  0  0
   44.5431   32.2364   40.4687 C   0  0  0  0  0  0  0  0  0  0  0  0
   45.0968   33.1434   41.3123 C   0  0  0  0  0  0  0  0  0  0  0  0
   44.7583   33.1140   42.3425 H   0  0  0  0  0  0  0  0  0  0  0  0
   43.3246   31.0555   41.0120 S   0  0  0  0  0  0  0  0  0  0  0  0
   42.9126   30.1024   39.5652 C   0  0  0  0  0  0  0  0  0  0  0  0
   41.9895   29.1302   39.7479 C   0  0  0  0  0  0  0  0  0  0  0  0
   41.5091   28.9203   40.7150 H   0  0  0  0  0  0  0  0  0  0  0  0
   41.5916   28.3278   38.6984 C   0  0  0  0  0  0  0  0  0  0  0  0
   40.8563   27.5442   38.8172 H   0  0  0  0  0  0  0  0  0  0  0  0
   42.1630   28.5482   37.4623 C   0  0  0  0  0  0  0  0  0  0  0  0
   41.8750   27.9384   36.6171 H   0  0  0  0  0  0  0  0  0  0  0  0
   43.0945   29.5535   37.3492 C   0  0  0  0  0  0  0  0  0  0  0  0
   43.5082   29.6748   36.3410 H   0  0  0  0  0  0  0  0  0  0  0  0
   43.5192   30.3761   38.3699 C   0  0  0  0  0  0  0  0  0  0  0  0
   44.4847   31.3807   38.1422 N   0  0  0  0  0  0  0  0  0  0  0  0
   44.8360   31.4425   37.1653 H   0  0  0  0  0  0  0  0  0  0  0  0
  1  6  2  0
  2  1  1  0
  2  3  2  0
  3  4  1  0
  4  5  2  0
  6  5  1  0
  7  2  1  0
  8  7  1  0
  1  9  1  0
  3 10  1  0
  5 11  1  0
  7 12  1  6
  8 13  1  0
  8 14  1  0
  8 15  1  0
 16 17  2  0
 17 18  1  0
 17 19  1  0
 19 20  1  0
 19 21  2  0
 21 22  1  0
 22 23  2  0
 23 24  1  0
 22 25  1  0
 25 26  1  0
 26 27  2  0
 27 28  1  0
 27 29  1  0
 29 30  1  0
 29 31  2  0
 31 32  1  0
 31 33  1  0
 33 34  1  0
 33 35  2  0
 35 36  1  0
 36 37  1  0
 23 16  1  0
 35 26  1  0
 36 21  1  0
  7 16  1  0
M  ISO  8   9  14  10  14  11  14  12   8  13   8  14   8  15   8  18  16
M  ISO  7  20  16  24  16  28  16  30  16  32  16  34  16  37   5
M  END
>  <DihAtoms>  (1) 
1,6,15,16

>  <DihDeg>  (1) 
-89.77594872504334

$$$$
