REMARK  Name = 
REMARK  2 active torsions:
REMARK  status: ('A' for Active; 'I' for Inactive)
REMARK    1  A    between atoms: C_1  and  C_7
REMARK    2  A    between atoms: C_3  and  C_13
REMARK                            x       y       z     vdW  Elec       q    Type
REMARK                         _______ _______ _______ _____ _____    ______ ____
ROOT
ATOM      1  C   UNL     1      47.085  32.453  45.088  0.00  0.00    +0.000 A 
ATOM      2  C   UNL     1      48.299  31.910  45.450  0.00  0.00    +0.000 A 
ATOM      3  H   UNL     1      49.183  32.299  44.999  0.00  0.00    +0.000 HD
ATOM      4  C   UNL     1      48.338  30.887  46.376  0.00  0.00    +0.000 A 
ATOM      5  H   UNL     1      49.345  30.519  46.601  0.00  0.00    +0.000 HD
ATOM      6  C   UNL     1      47.220  30.352  46.984  0.00  0.00    +0.000 A 
ATOM      7  C   UNL     1      46.026  30.913  46.605  0.00  0.00    +0.000 A 
ATOM      8  C   UNL     1      45.972  31.916  45.698  0.00  0.00    +0.000 A 
ATOM      9  H   UNL     1      44.985  32.324  45.434  0.00  0.00    +0.000 HD
ATOM     10  S   UNL     1      44.541  30.288  47.336  0.00  0.00    +0.000 S 
ATOM     11  C   UNL     1      45.023  28.994  48.461  0.00  0.00    +0.000 A 
ATOM     12  C   UNL     1      44.062  28.335  49.166  0.00  0.00    +0.000 A 
ATOM     13  H   UNL     1      43.014  28.608  49.032  0.00  0.00    +0.000 HD
ATOM     14  C   UNL     1      44.364  27.325  50.052  0.00  0.00    +0.000 A 
ATOM     15  H   UNL     1      43.642  26.774  50.632  0.00  0.00    +0.000 HD
ATOM     16  C   UNL     1      45.693  26.996  50.206  0.00  0.00    +0.000 A 
ATOM     17  H   UNL     1      45.979  26.209  50.891  0.00  0.00    +0.000 HD
ATOM     18  C   UNL     1      46.634  27.688  49.474  0.00  0.00    +0.000 A 
ATOM     19  H   UNL     1      47.673  27.369  49.651  0.00  0.00    +0.000 HD
ATOM     20  C   UNL     1      46.359  28.702  48.581  0.00  0.00    +0.000 A 
ATOM     21  N   UNL     1      47.432  29.306  47.914  0.00  0.00    +0.000 N 
ATOM     22  H   UNL     1      48.401  28.977  48.107  0.00  0.00    +0.000 HD
ENDROOT
BRANCH   1  25
ATOM     23  C   UNL     1      47.683  34.960  42.347  0.00  0.00    +0.000 A 
ATOM     24  C   UNL     1      47.913  33.918  43.249  0.00  0.00    +0.000 A 
ATOM     25  C   UNL     1      46.902  33.531  44.127  0.00  0.00    +0.000 A 
ATOM     26  N   UNL     1      45.726  34.206  44.050  0.00  0.00    +0.000 NA
ATOM     27  C   UNL     1      45.515  35.203  43.182  0.00  0.00    +0.000 A 
ATOM     28  N   UNL     1      46.485  35.571  42.344  0.00  0.00    +0.000 NA
ATOM     29  H   UNL     1      48.857  33.435  43.255  0.00  0.00    +0.000 HD
ATOM     30  H   UNL     1      44.544  35.681  43.195  0.00  0.00    +0.000 HD
BRANCH  23  31
ATOM     31  C   UNL     1      48.789  35.344  41.426  0.00  0.00    +0.000 C 
ATOM     32  F   UNL     1      48.416  35.240  40.110  0.00  0.00    +0.000 F 
ATOM     33  F   UNL     1      49.216  36.613  41.755  0.00  0.00    +0.000 F 
ATOM     34  F   UNL     1      49.885  34.499  41.668  0.00  0.00    +0.000 F 
ENDBRANCH  23  31
ENDBRANCH   1  25
TORSDOF 2
