
     RDKit          3D

 34 37  0  0  0  0  0  0  0  0999 V2000
   47.6833   34.9602   42.3473 C   0  0  0  0  0  0  0  0  0  0  0  0
   47.9135   33.9184   43.2494 C   0  0  0  0  0  0  0  0  0  0  0  0
   46.9016   33.5308   44.1272 C   0  0  0  0  0  0  0  0  0  0  0  0
   45.7257   34.2056   44.0498 N   0  0  0  0  0  0  0  0  0  0  0  0
   45.5152   35.2026   43.1817 C   0  0  0  0  0  0  0  0  0  0  0  0
   46.4852   35.5708   42.3436 N   0  0  0  0  0  0  0  0  0  0  0  0
   48.7895   35.3444   41.4263 C   0  0  0  0  0  0  0  0  0  0  0  0
   48.4165   35.2404   40.1099 F   0  0  0  0  0  0  0  0  0  0  0  0
   49.2161   36.6126   41.7546 F   0  0  0  0  0  0  0  0  0  0  0  0
   49.8854   34.4992   41.6681 F   0  0  0  0  0  0  0  0  0  0  0  0
   48.8566   33.4349   43.2551 H   0  0  0  0  0  0  0  0  0  0  0  0
   44.5436   35.6811   43.1949 H   0  0  0  0  0  0  0  0  0  0  0  0
   47.0853   32.4529   45.0876 C   0  0  0  0  0  0  0  0  0  0  0  0
   46.0724   31.8194   45.7742 C   0  0  0  0  0  0  0  0  0  0  0  0
   45.0687   32.1326   45.5990 H   0  0  0  0  0  0  0  0  0  0  0  0
   46.3803   30.8073   46.6607 C   0  0  0  0  0  0  0  0  0  0  0  0
   45.5112   30.3629   47.1597 H   0  0  0  0  0  0  0  0  0  0  0  0
   47.6632   30.3694   46.9188 C   0  0  0  0  0  0  0  0  0  0  0  0
   48.6517   31.0185   46.2207 C   0  0  0  0  0  0  0  0  0  0  0  0
   48.3652   32.0121   45.3487 C   0  0  0  0  0  0  0  0  0  0  0  0
   49.2006   32.4940   44.8193 H   0  0  0  0  0  0  0  0  0  0  0  0
   50.3278   30.5205   46.4905 S   0  0  0  0  0  0  0  0  0  0  0  0
   50.2903   29.2051   47.6904 C   0  0  0  0  0  0  0  0  0  0  0  0
   51.4617   28.6319   48.0835 C   0  0  0  0  0  0  0  0  0  0  0  0
   52.4026   28.9852   47.6596 H   0  0  0  0  0  0  0  0  0  0  0  0
   51.5062   27.6111   49.0064 C   0  0  0  0  0  0  0  0  0  0  0  0
   52.4042   27.1253   49.3498 H   0  0  0  0  0  0  0  0  0  0  0  0
   50.3069   27.1792   49.5299 C   0  0  0  0  0  0  0  0  0  0  0  0
   50.2909   26.3798   50.2581 H   0  0  0  0  0  0  0  0  0  0  0  0
   49.1439   27.7870   49.1045 C   0  0  0  0  0  0  0  0  0  0  0  0
   48.2266   27.3886   49.5668 H   0  0  0  0  0  0  0  0  0  0  0  0
   49.0722   28.8098   48.1827 C   0  0  0  0  0  0  0  0  0  0  0  0
   47.8090   29.3199   47.8570 N   0  0  0  0  0  0  0  0  0  0  0  0
   46.9644   28.9176   48.3146 H   0  0  0  0  0  0  0  0  0  0  0  0
  1  2  2  0
  2  3  1  0
  4  3  2  0
  5  4  1  0
  6  1  1  0
  6  5  2  0
  7 10  1  0
  7  9  1  0
  7  1  1  0
  8  7  1  0
  2 11  1  0
  5 12  1  0
 13 14  2  0
 14 15  1  0
 14 16  1  0
 16 17  1  0
 16 18  2  0
 18 19  1  0
 19 20  2  0
 20 21  1  0
 19 22  1  0
 22 23  1  0
 23 24  2  0
 24 25  1  0
 24 26  1  0
 26 27  1  0
 26 28  2  0
 28 29  1  0
 28 30  1  0
 30 31  1  0
 30 32  2  0
 32 33  1  0
 33 34  1  0
 20 13  1  0
 32 23  1  0
 33 18  1  0
  3 13  1  0
M  ISO  8  11  14  12  14  15  16  17  16  21  16  25  16  27  16  29  16
M  ISO  2  31  16  34   5
M  END
>  <DihAtoms>  (1) 
1,2,12,13

>  <DihDeg>  (1) 
-0.009098496134389953

$$$$
