
     RDKit          3D

 34 37  0  0  0  0  0  0  0  0999 V2000
   47.6833   34.9602   42.3473 C   0  0  0  0  0  0  0  0  0  0  0  0
   47.9135   33.9184   43.2494 C   0  0  0  0  0  0  0  0  0  0  0  0
   46.9016   33.5308   44.1272 C   0  0  0  0  0  0  0  0  0  0  0  0
   45.7257   34.2056   44.0498 N   0  0  0  0  0  0  0  0  0  0  0  0
   45.5152   35.2026   43.1817 C   0  0  0  0  0  0  0  0  0  0  0  0
   46.4852   35.5708   42.3436 N   0  0  0  0  0  0  0  0  0  0  0  0
   48.7895   35.3444   41.4263 C   0  0  0  0  0  0  0  0  0  0  0  0
   48.4165   35.2404   40.1099 F   0  0  0  0  0  0  0  0  0  0  0  0
   49.2161   36.6126   41.7546 F   0  0  0  0  0  0  0  0  0  0  0  0
   49.8854   34.4992   41.6681 F   0  0  0  0  0  0  0  0  0  0  0  0
   48.8566   33.4349   43.2551 H   0  0  0  0  0  0  0  0  0  0  0  0
   44.5436   35.6811   43.1949 H   0  0  0  0  0  0  0  0  0  0  0  0
   47.0853   32.4529   45.0876 C   0  0  0  0  0  0  0  0  0  0  0  0
   48.2987   31.9096   45.4495 C   0  0  0  0  0  0  0  0  0  0  0  0
   49.1827   32.2990   44.9988 H   0  0  0  0  0  0  0  0  0  0  0  0
   48.3376   30.8871   46.3759 C   0  0  0  0  0  0  0  0  0  0  0  0
   49.3453   30.5186   46.6011 H   0  0  0  0  0  0  0  0  0  0  0  0
   47.2204   30.3523   46.9844 C   0  0  0  0  0  0  0  0  0  0  0  0
   46.0258   30.9130   46.6045 C   0  0  0  0  0  0  0  0  0  0  0  0
   45.9721   31.9155   45.6980 C   0  0  0  0  0  0  0  0  0  0  0  0
   44.9851   32.3237   45.4345 H   0  0  0  0  0  0  0  0  0  0  0  0
   44.5412   30.2875   47.3358 S   0  0  0  0  0  0  0  0  0  0  0  0
   45.0233   28.9937   48.4607 C   0  0  0  0  0  0  0  0  0  0  0  0
   44.0619   28.3348   49.1655 C   0  0  0  0  0  0  0  0  0  0  0  0
   43.0143   28.6075   49.0315 H   0  0  0  0  0  0  0  0  0  0  0  0
   44.3635   27.3251   50.0516 C   0  0  0  0  0  0  0  0  0  0  0  0
   43.6421   26.7743   50.6318 H   0  0  0  0  0  0  0  0  0  0  0  0
   45.6925   26.9957   50.2065 C   0  0  0  0  0  0  0  0  0  0  0  0
   45.9788   26.2091   50.8913 H   0  0  0  0  0  0  0  0  0  0  0  0
   46.6339   27.6879   49.4735 C   0  0  0  0  0  0  0  0  0  0  0  0
   47.6735   27.3689   49.6505 H   0  0  0  0  0  0  0  0  0  0  0  0
   46.3586   28.7018   48.5806 C   0  0  0  0  0  0  0  0  0  0  0  0
   47.4318   29.3060   47.9136 N   0  0  0  0  0  0  0  0  0  0  0  0
   48.4010   28.9775   48.1070 H   0  0  0  0  0  0  0  0  0  0  0  0
  1  2  2  0
  2  3  1  0
  4  3  2  0
  5  4  1  0
  6  1  1  0
  6  5  2  0
  7 10  1  0
  7  9  1  0
  7  1  1  0
  8  7  1  0
  2 11  1  0
  5 12  1  0
 13 14  2  0
 14 15  1  0
 14 16  1  0
 16 17  1  0
 16 18  2  0
 18 19  1  0
 19 20  2  0
 20 21  1  0
 19 22  1  0
 22 23  1  0
 23 24  2  0
 24 25  1  0
 24 26  1  0
 26 27  1  0
 26 28  2  0
 28 29  1  0
 28 30  1  0
 30 31  1  0
 30 32  2  0
 32 33  1  0
 33 34  1  0
 20 13  1  0
 32 23  1  0
 33 18  1  0
  3 13  1  0
M  ISO  8  11  14  12  14  15  16  17  16  21  16  25  16  27  16  29  16
M  ISO  2  31  16  34   5
M  END
>  <DihAtoms>  (1) 
1,2,12,13

>  <DihDeg>  (1) 
-0.009098496134389953

$$$$
