REMARK  Name = 
REMARK  2 active torsions:
REMARK  status: ('A' for Active; 'I' for Inactive)
REMARK    1  A    between atoms: C_1  and  C_7
REMARK    2  A    between atoms: C_3  and  C_13
REMARK                            x       y       z     vdW  Elec       q    Type
REMARK                         _______ _______ _______ _____ _____    ______ ____
ROOT
ATOM      1  C   UNL     1      47.085  32.453  45.088  0.00  0.00    +0.000 A 
ATOM      2  C   UNL     1      47.276  32.620  46.442  0.00  0.00    +0.000 A 
ATOM      3  H   UNL     1      47.293  33.611  46.833  0.00  0.00    +0.000 HD
ATOM      4  C   UNL     1      47.438  31.511  47.248  0.00  0.00    +0.000 A 
ATOM      5  H   UNL     1      47.584  31.741  48.310  0.00  0.00    +0.000 HD
ATOM      6  C   UNL     1      47.423  30.211  46.786  0.00  0.00    +0.000 A 
ATOM      7  C   UNL     1      47.231  30.075  45.434  0.00  0.00    +0.000 A 
ATOM      8  C   UNL     1      47.071  31.152  44.631  0.00  0.00    +0.000 A 
ATOM      9  H   UNL     1      46.921  30.979  43.555  0.00  0.00    +0.000 HD
ATOM     10  S   UNL     1      47.198  28.441  44.755  0.00  0.00    +0.000 S 
ATOM     11  C   UNL     1      47.441  27.313  46.112  0.00  0.00    +0.000 A 
ATOM     12  C   UNL     1      47.459  25.973  45.865  0.00  0.00    +0.000 A 
ATOM     13  H   UNL     1      47.325  25.612  44.845  0.00  0.00    +0.000 HD
ATOM     14  C   UNL     1      47.642  25.045  46.866  0.00  0.00    +0.000 A 
ATOM     15  H   UNL     1      47.664  23.978  46.724  0.00  0.00    +0.000 HD
ATOM     16  C   UNL     1      47.810  25.522  48.148  0.00  0.00    +0.000 A 
ATOM     17  H   UNL     1      47.957  24.832  48.967  0.00  0.00    +0.000 HD
ATOM     18  C   UNL     1      47.785  26.886  48.353  0.00  0.00    +0.000 A 
ATOM     19  H   UNL     1      47.926  27.191  49.403  0.00  0.00    +0.000 HD
ATOM     20  C   UNL     1      47.604  27.835  47.370  0.00  0.00    +0.000 A 
ATOM     21  N   UNL     1      47.604  29.185  47.745  0.00  0.00    +0.000 N 
ATOM     22  H   UNL     1      47.740  29.435  48.747  0.00  0.00    +0.000 HD
ENDROOT
BRANCH   1  25
ATOM     23  C   UNL     1      47.683  34.960  42.347  0.00  0.00    +0.000 A 
ATOM     24  C   UNL     1      47.913  33.918  43.249  0.00  0.00    +0.000 A 
ATOM     25  C   UNL     1      46.902  33.531  44.127  0.00  0.00    +0.000 A 
ATOM     26  N   UNL     1      45.726  34.206  44.050  0.00  0.00    +0.000 NA
ATOM     27  C   UNL     1      45.515  35.203  43.182  0.00  0.00    +0.000 A 
ATOM     28  N   UNL     1      46.485  35.571  42.344  0.00  0.00    +0.000 NA
ATOM     29  H   UNL     1      48.857  33.435  43.255  0.00  0.00    +0.000 HD
ATOM     30  H   UNL     1      44.544  35.681  43.195  0.00  0.00    +0.000 HD
BRANCH  23  31
ATOM     31  C   UNL     1      48.789  35.344  41.426  0.00  0.00    +0.000 C 
ATOM     32  F   UNL     1      48.416  35.240  40.110  0.00  0.00    +0.000 F 
ATOM     33  F   UNL     1      49.216  36.613  41.755  0.00  0.00    +0.000 F 
ATOM     34  F   UNL     1      49.885  34.499  41.668  0.00  0.00    +0.000 F 
ENDBRANCH  23  31
ENDBRANCH   1  25
TORSDOF 2
