REMARK  Name = 
REMARK  2 active torsions:
REMARK  status: ('A' for Active; 'I' for Inactive)
REMARK    1  A    between atoms: C_1  and  C_7
REMARK    2  A    between atoms: C_3  and  C_13
REMARK                            x       y       z     vdW  Elec       q    Type
REMARK                         _______ _______ _______ _____ _____    ______ ____
ROOT
ATOM      1  C   UNL     1      47.085  32.453  45.088  0.00  0.00    +0.000 A 
ATOM      2  C   UNL     1      48.037  32.430  46.084  0.00  0.00    +0.000 A 
ATOM      3  H   UNL     1      48.699  33.261  46.171  0.00  0.00    +0.000 HD
ATOM      4  C   UNL     1      48.107  31.345  46.934  0.00  0.00    +0.000 A 
ATOM      5  H   UNL     1      48.894  31.415  47.694  0.00  0.00    +0.000 HD
ATOM      6  C   UNL     1      47.272  30.249  46.858  0.00  0.00    +0.000 A 
ATOM      7  C   UNL     1      46.334  30.299  45.856  0.00  0.00    +0.000 A 
ATOM      8  C   UNL     1      46.254  31.356  45.016  0.00  0.00    +0.000 A 
ATOM      9  H   UNL     1      45.481  31.338  44.233  0.00  0.00    +0.000 HD
ATOM     10  S   UNL     1      45.222  28.934  45.686  0.00  0.00    +0.000 S 
ATOM     11  C   UNL     1      45.642  27.761  46.959  0.00  0.00    +0.000 A 
ATOM     12  C   UNL     1      44.932  26.604  47.056  0.00  0.00    +0.000 A 
ATOM     13  H   UNL     1      44.118  26.411  46.355  0.00  0.00    +0.000 HD
ATOM     14  C   UNL     1      45.203  25.654  48.015  0.00  0.00    +0.000 A 
ATOM     15  H   UNL     1      44.672  24.724  48.134  0.00  0.00    +0.000 HD
ATOM     16  C   UNL     1      46.234  25.916  48.891  0.00  0.00    +0.000 A 
ATOM     17  H   UNL     1      46.484  25.200  49.662  0.00  0.00    +0.000 HD
ATOM     18  C   UNL     1      46.928  27.100  48.758  0.00  0.00    +0.000 A 
ATOM     19  H   UNL     1      47.737  27.239  49.492  0.00  0.00    +0.000 HD
ATOM     20  C   UNL     1      46.677  28.067  47.807  0.00  0.00    +0.000 A 
ATOM     21  N   UNL     1      47.475  29.218  47.806  0.00  0.00    +0.000 N 
ATOM     22  H   UNL     1      48.231  29.313  48.516  0.00  0.00    +0.000 HD
ENDROOT
BRANCH   1  25
ATOM     23  C   UNL     1      47.683  34.960  42.347  0.00  0.00    +0.000 A 
ATOM     24  C   UNL     1      47.913  33.918  43.249  0.00  0.00    +0.000 A 
ATOM     25  C   UNL     1      46.902  33.531  44.127  0.00  0.00    +0.000 A 
ATOM     26  N   UNL     1      45.726  34.206  44.050  0.00  0.00    +0.000 NA
ATOM     27  C   UNL     1      45.515  35.203  43.182  0.00  0.00    +0.000 A 
ATOM     28  N   UNL     1      46.485  35.571  42.344  0.00  0.00    +0.000 NA
ATOM     29  H   UNL     1      48.857  33.435  43.255  0.00  0.00    +0.000 HD
ATOM     30  H   UNL     1      44.544  35.681  43.195  0.00  0.00    +0.000 HD
BRANCH  23  31
ATOM     31  C   UNL     1      48.789  35.344  41.426  0.00  0.00    +0.000 C 
ATOM     32  F   UNL     1      48.416  35.240  40.110  0.00  0.00    +0.000 F 
ATOM     33  F   UNL     1      49.216  36.613  41.755  0.00  0.00    +0.000 F 
ATOM     34  F   UNL     1      49.885  34.499  41.668  0.00  0.00    +0.000 F 
ENDBRANCH  23  31
ENDBRANCH   1  25
TORSDOF 2
