REMARK  Name = 
REMARK  3 active torsions:
REMARK  status: ('A' for Active; 'I' for Inactive)
REMARK    1  A    between atoms: C_2  and  C_7
REMARK    2  A    between atoms: C_7  and  C_8
REMARK    3  A    between atoms: C_7  and  C_16
REMARK                            x       y       z     vdW  Elec       q    Type
REMARK                         _______ _______ _______ _____ _____    ______ ____
ROOT
ATOM      1  C   UNL     1      46.058  34.098  40.953  0.00  0.00    +0.000 A 
ATOM      2  C   UNL     1      46.439  34.074  39.626  0.00  0.00    +0.000 A 
ATOM      3  H   UNL     1      47.171  34.800  39.348  0.00  0.00    +0.000 HD
ATOM      4  C   UNL     1      45.892  33.168  38.762  0.00  0.00    +0.000 A 
ATOM      5  H   UNL     1      46.253  33.226  37.739  0.00  0.00    +0.000 HD
ATOM      6  C   UNL     1      44.949  32.245  39.157  0.00  0.00    +0.000 A 
ATOM      7  C   UNL     1      44.543  32.236  40.469  0.00  0.00    +0.000 A 
ATOM      8  C   UNL     1      45.097  33.143  41.312  0.00  0.00    +0.000 A 
ATOM      9  H   UNL     1      44.758  33.114  42.343  0.00  0.00    +0.000 HD
ATOM     10  S   UNL     1      43.325  31.055  41.012  0.00  0.00    +0.000 S 
ATOM     11  C   UNL     1      42.913  30.102  39.565  0.00  0.00    +0.000 A 
ATOM     12  C   UNL     1      41.989  29.130  39.748  0.00  0.00    +0.000 A 
ATOM     13  H   UNL     1      41.509  28.920  40.715  0.00  0.00    +0.000 HD
ATOM     14  C   UNL     1      41.592  28.328  38.698  0.00  0.00    +0.000 A 
ATOM     15  H   UNL     1      40.856  27.544  38.817  0.00  0.00    +0.000 HD
ATOM     16  C   UNL     1      42.163  28.548  37.462  0.00  0.00    +0.000 A 
ATOM     17  H   UNL     1      41.875  27.938  36.617  0.00  0.00    +0.000 HD
ATOM     18  C   UNL     1      43.094  29.553  37.349  0.00  0.00    +0.000 A 
ATOM     19  H   UNL     1      43.508  29.675  36.341  0.00  0.00    +0.000 HD
ATOM     20  C   UNL     1      43.519  30.376  38.370  0.00  0.00    +0.000 A 
ATOM     21  N   UNL     1      44.485  31.381  38.142  0.00  0.00    +0.000 N 
ATOM     22  H   UNL     1      44.836  31.442  37.165  0.00  0.00    +0.000 HD
ENDROOT
BRANCH   1  23
ATOM     23  C   UNL     1      46.546  35.009  42.023  0.00  0.00    +0.000 C 
ATOM     24  H   UNL     1      46.083  36.010  41.852  0.00  0.00    +0.000 HD
BRANCH  23  26
ATOM     25  C   UNL     1      45.194  35.207  44.053  0.00  0.00    +0.000 A 
ATOM     26  C   UNL     1      46.235  34.587  43.370  0.00  0.00    +0.000 A 
ATOM     27  C   UNL     1      46.912  33.571  44.070  0.00  0.00    +0.000 A 
ATOM     28  N   UNL     1      46.513  33.272  45.332  0.00  0.00    +0.000 NA
ATOM     29  C   UNL     1      45.505  33.902  45.938  0.00  0.00    +0.000 A 
ATOM     30  N   UNL     1      44.840  34.873  45.301  0.00  0.00    +0.000 NA
ATOM     31  H   UNL     1      44.610  36.012  43.583  0.00  0.00    +0.000 HD
ATOM     32  H   UNL     1      47.727  33.063  43.575  0.00  0.00    +0.000 HD
ATOM     33  H   UNL     1      45.170  33.679  46.946  0.00  0.00    +0.000 HD
ENDBRANCH  23  26
BRANCH  23  34
ATOM     34  C   UNL     1      48.051  35.165  41.919  0.00  0.00    +0.000 C 
ATOM     35  H   UNL     1      48.415  35.929  42.641  0.00  0.00    +0.000 HD
ATOM     36  H   UNL     1      48.502  34.185  42.070  0.00  0.00    +0.000 HD
ATOM     37  H   UNL     1      48.248  35.587  40.902  0.00  0.00    +0.000 HD
ENDBRANCH  23  34
ENDBRANCH   1  23
TORSDOF 3
