
     RDKit          3D

 34 37  0  0  0  0  0  0  0  0999 V2000
   47.6833   34.9602   42.3473 C   0  0  0  0  0  0  0  0  0  0  0  0
   47.9135   33.9184   43.2494 C   0  0  0  0  0  0  0  0  0  0  0  0
   46.9016   33.5308   44.1272 C   0  0  0  0  0  0  0  0  0  0  0  0
   45.7257   34.2056   44.0498 N   0  0  0  0  0  0  0  0  0  0  0  0
   45.5152   35.2026   43.1817 C   0  0  0  0  0  0  0  0  0  0  0  0
   46.4852   35.5708   42.3436 N   0  0  0  0  0  0  0  0  0  0  0  0
   48.7895   35.3444   41.4263 C   0  0  0  0  0  0  0  0  0  0  0  0
   48.4165   35.2404   40.1099 F   0  0  0  0  0  0  0  0  0  0  0  0
   49.2161   36.6126   41.7546 F   0  0  0  0  0  0  0  0  0  0  0  0
   49.8854   34.4992   41.6681 F   0  0  0  0  0  0  0  0  0  0  0  0
   48.8566   33.4349   43.2551 H   0  0  0  0  0  0  0  0  0  0  0  0
   44.5436   35.6811   43.1949 H   0  0  0  0  0  0  0  0  0  0  0  0
   47.0853   32.4529   45.0876 C   0  0  0  0  0  0  0  0  0  0  0  0
   48.1949   32.2811   45.8864 C   0  0  0  0  0  0  0  0  0  0  0  0
   48.9908   32.9855   45.8060 H   0  0  0  0  0  0  0  0  0  0  0  0
   48.2461   31.2136   46.7599 C   0  0  0  0  0  0  0  0  0  0  0  0
   49.1662   31.1583   47.3534 H   0  0  0  0  0  0  0  0  0  0  0  0
   47.2408   30.2783   46.8975 C   0  0  0  0  0  0  0  0  0  0  0  0
   46.1480   30.4747   46.0893 C   0  0  0  0  0  0  0  0  0  0  0  0
   46.0837   31.5161   45.2284 C   0  0  0  0  0  0  0  0  0  0  0  0
   45.1816   31.6202   44.6073 H   0  0  0  0  0  0  0  0  0  0  0  0
   44.8108   29.3217   46.2004 S   0  0  0  0  0  0  0  0  0  0  0  0
   45.2684   28.1146   47.4271 C   0  0  0  0  0  0  0  0  0  0  0  0
   44.4063   27.0997   47.7134 C   0  0  0  0  0  0  0  0  0  0  0  0
   43.4515   27.0407   47.1893 H   0  0  0  0  0  0  0  0  0  0  0  0
   44.6956   26.1329   48.6500 C   0  0  0  0  0  0  0  0  0  0  0  0
   44.0496   25.3118   48.9124 H   0  0  0  0  0  0  0  0  0  0  0  0
   45.9066   26.2253   49.3009 C   0  0  0  0  0  0  0  0  0  0  0  0
   46.1786   25.4892   50.0451 H   0  0  0  0  0  0  0  0  0  0  0  0
   46.7501   27.2688   48.9809 C   0  0  0  0  0  0  0  0  0  0  0  0
   47.6983   27.2763   49.5419 H   0  0  0  0  0  0  0  0  0  0  0  0
   46.4845   28.2488   48.0481 C   0  0  0  0  0  0  0  0  0  0  0  0
   47.4489   29.2429   47.8395 N   0  0  0  0  0  0  0  0  0  0  0  0
   48.3333   29.2170   48.3888 H   0  0  0  0  0  0  0  0  0  0  0  0
  1  2  2  0
  2  3  1  0
  4  3  2  0
  5  4  1  0
  6  1  1  0
  6  5  2  0
  7 10  1  0
  7  9  1  0
  7  1  1  0
  8  7  1  0
  2 11  1  0
  5 12  1  0
 13 14  2  0
 14 15  1  0
 14 16  1  0
 16 17  1  0
 16 18  2  0
 18 19  1  0
 19 20  2  0
 20 21  1  0
 19 22  1  0
 22 23  1  0
 23 24  2  0
 24 25  1  0
 24 26  1  0
 26 27  1  0
 26 28  2  0
 28 29  1  0
 28 30  1  0
 30 31  1  0
 30 32  2  0
 32 33  1  0
 33 34  1  0
 20 13  1  0
 32 23  1  0
 33 18  1  0
  3 13  1  0
M  ISO  8  11  14  12  14  15  16  17  16  21  16  25  16  27  16  29  16
M  ISO  2  31  16  34   5
M  END
>  <DihAtoms>  (1) 
1,2,12,13

>  <DihDeg>  (1) 
-0.009098496134389953

$$$$
