REMARK  Name = 
REMARK  2 active torsions:
REMARK  status: ('A' for Active; 'I' for Inactive)
REMARK    1  A    between atoms: C_1  and  C_7
REMARK    2  A    between atoms: C_3  and  C_13
REMARK                            x       y       z     vdW  Elec       q    Type
REMARK                         _______ _______ _______ _____ _____    ______ ____
ROOT
ATOM      1  C   UNL     1      47.085  32.453  45.088  0.00  0.00    +0.000 A 
ATOM      2  C   UNL     1      46.072  31.819  45.774  0.00  0.00    +0.000 A 
ATOM      3  H   UNL     1      45.069  32.133  45.599  0.00  0.00    +0.000 HD
ATOM      4  C   UNL     1      46.380  30.807  46.661  0.00  0.00    +0.000 A 
ATOM      5  H   UNL     1      45.511  30.363  47.160  0.00  0.00    +0.000 HD
ATOM      6  C   UNL     1      47.663  30.369  46.919  0.00  0.00    +0.000 A 
ATOM      7  C   UNL     1      48.652  31.018  46.221  0.00  0.00    +0.000 A 
ATOM      8  C   UNL     1      48.365  32.012  45.349  0.00  0.00    +0.000 A 
ATOM      9  H   UNL     1      49.201  32.494  44.819  0.00  0.00    +0.000 HD
ATOM     10  S   UNL     1      50.328  30.520  46.490  0.00  0.00    +0.000 S 
ATOM     11  C   UNL     1      50.290  29.205  47.690  0.00  0.00    +0.000 A 
ATOM     12  C   UNL     1      51.462  28.632  48.084  0.00  0.00    +0.000 A 
ATOM     13  H   UNL     1      52.403  28.985  47.660  0.00  0.00    +0.000 HD
ATOM     14  C   UNL     1      51.506  27.611  49.006  0.00  0.00    +0.000 A 
ATOM     15  H   UNL     1      52.404  27.125  49.350  0.00  0.00    +0.000 HD
ATOM     16  C   UNL     1      50.307  27.179  49.530  0.00  0.00    +0.000 A 
ATOM     17  H   UNL     1      50.291  26.380  50.258  0.00  0.00    +0.000 HD
ATOM     18  C   UNL     1      49.144  27.787  49.105  0.00  0.00    +0.000 A 
ATOM     19  H   UNL     1      48.227  27.389  49.567  0.00  0.00    +0.000 HD
ATOM     20  C   UNL     1      49.072  28.810  48.183  0.00  0.00    +0.000 A 
ATOM     21  N   UNL     1      47.809  29.320  47.857  0.00  0.00    +0.000 N 
ATOM     22  H   UNL     1      46.964  28.918  48.315  0.00  0.00    +0.000 HD
ENDROOT
BRANCH   1  25
ATOM     23  C   UNL     1      47.683  34.960  42.347  0.00  0.00    +0.000 A 
ATOM     24  C   UNL     1      47.913  33.918  43.249  0.00  0.00    +0.000 A 
ATOM     25  C   UNL     1      46.902  33.531  44.127  0.00  0.00    +0.000 A 
ATOM     26  N   UNL     1      45.726  34.206  44.050  0.00  0.00    +0.000 NA
ATOM     27  C   UNL     1      45.515  35.203  43.182  0.00  0.00    +0.000 A 
ATOM     28  N   UNL     1      46.485  35.571  42.344  0.00  0.00    +0.000 NA
ATOM     29  H   UNL     1      48.857  33.435  43.255  0.00  0.00    +0.000 HD
ATOM     30  H   UNL     1      44.544  35.681  43.195  0.00  0.00    +0.000 HD
BRANCH  23  31
ATOM     31  C   UNL     1      48.789  35.344  41.426  0.00  0.00    +0.000 C 
ATOM     32  F   UNL     1      48.416  35.240  40.110  0.00  0.00    +0.000 F 
ATOM     33  F   UNL     1      49.216  36.613  41.755  0.00  0.00    +0.000 F 
ATOM     34  F   UNL     1      49.885  34.499  41.668  0.00  0.00    +0.000 F 
ENDBRANCH  23  31
ENDBRANCH   1  25
TORSDOF 2
