
     RDKit          3D

 34 37  0  0  0  0  0  0  0  0999 V2000
   47.6833   34.9602   42.3473 C   0  0  0  0  0  0  0  0  0  0  0  0
   47.9135   33.9184   43.2494 C   0  0  0  0  0  0  0  0  0  0  0  0
   46.9016   33.5308   44.1272 C   0  0  0  0  0  0  0  0  0  0  0  0
   45.7257   34.2056   44.0498 N   0  0  0  0  0  0  0  0  0  0  0  0
   45.5152   35.2026   43.1817 C   0  0  0  0  0  0  0  0  0  0  0  0
   46.4852   35.5708   42.3436 N   0  0  0  0  0  0  0  0  0  0  0  0
   48.7895   35.3444   41.4263 C   0  0  0  0  0  0  0  0  0  0  0  0
   48.4165   35.2404   40.1099 F   0  0  0  0  0  0  0  0  0  0  0  0
   49.2161   36.6126   41.7546 F   0  0  0  0  0  0  0  0  0  0  0  0
   49.8854   34.4992   41.6681 F   0  0  0  0  0  0  0  0  0  0  0  0
   48.8566   33.4349   43.2551 H   0  0  0  0  0  0  0  0  0  0  0  0
   44.5436   35.6811   43.1949 H   0  0  0  0  0  0  0  0  0  0  0  0
   47.0853   32.4529   45.0876 C   0  0  0  0  0  0  0  0  0  0  0  0
   46.3345   31.2987   45.1396 C   0  0  0  0  0  0  0  0  0  0  0  0
   45.5529   31.1703   44.4264 H   0  0  0  0  0  0  0  0  0  0  0  0
   46.6109   30.3496   46.1029 C   0  0  0  0  0  0  0  0  0  0  0  0
   45.9627   29.4662   46.0670 H   0  0  0  0  0  0  0  0  0  0  0  0
   47.6116   30.4731   47.0451 C   0  0  0  0  0  0  0  0  0  0  0  0
   48.3430   31.6329   46.9693 C   0  0  0  0  0  0  0  0  0  0  0  0
   48.0836   32.5719   46.0309 C   0  0  0  0  0  0  0  0  0  0  0  0
   48.7046   33.4800   46.0209 H   0  0  0  0  0  0  0  0  0  0  0  0
   49.6473   31.8742   48.1400 S   0  0  0  0  0  0  0  0  0  0  0  0
   49.6714   30.4374   49.1919 C   0  0  0  0  0  0  0  0  0  0  0  0
   50.5920   30.3631   50.1929 C   0  0  0  0  0  0  0  0  0  0  0  0
   51.2989   31.1815   50.3358 H   0  0  0  0  0  0  0  0  0  0  0  0
   50.6672   29.2824   51.0427 C   0  0  0  0  0  0  0  0  0  0  0  0
   51.3748   29.1755   51.8476 H   0  0  0  0  0  0  0  0  0  0  0  0
   49.7655   28.2592   50.8455 C   0  0  0  0  0  0  0  0  0  0  0  0
   49.7854   27.3891   51.4876 H   0  0  0  0  0  0  0  0  0  0  0  0
   48.8498   28.3746   49.8203 C   0  0  0  0  0  0  0  0  0  0  0  0
   48.1629   27.5184   49.7248 H   0  0  0  0  0  0  0  0  0  0  0  0
   48.7538   29.4449   48.9564 C   0  0  0  0  0  0  0  0  0  0  0  0
   47.7654   29.4084   47.9646 N   0  0  0  0  0  0  0  0  0  0  0  0
   47.1344   28.5820   47.9054 H   0  0  0  0  0  0  0  0  0  0  0  0
  1  2  2  0
  2  3  1  0
  4  3  2  0
  5  4  1  0
  6  1  1  0
  6  5  2  0
  7 10  1  0
  7  9  1  0
  7  1  1  0
  8  7  1  0
  2 11  1  0
  5 12  1  0
 13 14  2  0
 14 15  1  0
 14 16  1  0
 16 17  1  0
 16 18  2  0
 18 19  1  0
 19 20  2  0
 20 21  1  0
 19 22  1  0
 22 23  1  0
 23 24  2  0
 24 25  1  0
 24 26  1  0
 26 27  1  0
 26 28  2  0
 28 29  1  0
 28 30  1  0
 30 31  1  0
 30 32  2  0
 32 33  1  0
 33 34  1  0
 20 13  1  0
 32 23  1  0
 33 18  1  0
  3 13  1  0
M  ISO  8  11  14  12  14  15  16  17  16  21  16  25  16  27  16  29  16
M  ISO  2  31  16  34   5
M  END
>  <DihAtoms>  (1) 
1,2,12,13

>  <DihDeg>  (1) 
-0.009098496134389953

$$$$
