
     RDKit          3D

 34 37  0  0  0  0  0  0  0  0999 V2000
   47.6833   34.9602   42.3473 C   0  0  0  0  0  0  0  0  0  0  0  0
   47.9135   33.9184   43.2494 C   0  0  0  0  0  0  0  0  0  0  0  0
   46.9016   33.5308   44.1272 C   0  0  0  0  0  0  0  0  0  0  0  0
   45.7257   34.2056   44.0498 N   0  0  0  0  0  0  0  0  0  0  0  0
   45.5152   35.2026   43.1817 C   0  0  0  0  0  0  0  0  0  0  0  0
   46.4852   35.5708   42.3436 N   0  0  0  0  0  0  0  0  0  0  0  0
   48.7895   35.3444   41.4263 C   0  0  0  0  0  0  0  0  0  0  0  0
   48.4165   35.2404   40.1099 F   0  0  0  0  0  0  0  0  0  0  0  0
   49.2161   36.6126   41.7546 F   0  0  0  0  0  0  0  0  0  0  0  0
   49.8854   34.4992   41.6681 F   0  0  0  0  0  0  0  0  0  0  0  0
   48.8566   33.4349   43.2551 H   0  0  0  0  0  0  0  0  0  0  0  0
   44.5436   35.6811   43.1949 H   0  0  0  0  0  0  0  0  0  0  0  0
   47.0853   32.4529   45.0876 C   0  0  0  0  0  0  0  0  0  0  0  0
   46.7074   32.4959   46.4120 C   0  0  0  0  0  0  0  0  0  0  0  0
   46.2422   33.3826   46.7774 H   0  0  0  0  0  0  0  0  0  0  0  0
   46.9382   31.4021   47.2216 C   0  0  0  0  0  0  0  0  0  0  0  0
   46.6044   31.5280   48.2582 H   0  0  0  0  0  0  0  0  0  0  0  0
   47.5364   30.2350   46.7923 C   0  0  0  0  0  0  0  0  0  0  0  0
   47.9023   30.2208   45.4687 C   0  0  0  0  0  0  0  0  0  0  0  0
   47.6825   31.2850   44.6633 C   0  0  0  0  0  0  0  0  0  0  0  0
   47.9981   31.2132   43.6118 H   0  0  0  0  0  0  0  0  0  0  0  0
   48.6766   28.7625   44.8333 S   0  0  0  0  0  0  0  0  0  0  0  0
   48.7869   27.6051   46.1822 C   0  0  0  0  0  0  0  0  0  0  0  0
   49.3497   26.3839   45.9645 C   0  0  0  0  0  0  0  0  0  0  0  0
   49.7235   26.1331   44.9710 H   0  0  0  0  0  0  0  0  0  0  0  0
   49.4670   25.4414   46.9613 C   0  0  0  0  0  0  0  0  0  0  0  0
   49.9028   24.4637   46.8410 H   0  0  0  0  0  0  0  0  0  0  0  0
   48.9888   25.7778   48.2091 C   0  0  0  0  0  0  0  0  0  0  0  0
   49.0586   25.0704   49.0242 H   0  0  0  0  0  0  0  0  0  0  0  0
   48.4264   27.0248   48.3864 C   0  0  0  0  0  0  0  0  0  0  0  0
   48.0671   27.2210   49.4093 H   0  0  0  0  0  0  0  0  0  0  0  0
   48.2970   27.9856   47.4060 C   0  0  0  0  0  0  0  0  0  0  0  0
   47.7005   29.2055   47.7494 N   0  0  0  0  0  0  0  0  0  0  0  0
   47.3730   29.3544   48.7267 H   0  0  0  0  0  0  0  0  0  0  0  0
  1  2  2  0
  2  3  1  0
  4  3  2  0
  5  4  1  0
  6  1  1  0
  6  5  2  0
  7 10  1  0
  7  9  1  0
  7  1  1  0
  8  7  1  0
  2 11  1  0
  5 12  1  0
 13 14  2  0
 14 15  1  0
 14 16  1  0
 16 17  1  0
 16 18  2  0
 18 19  1  0
 19 20  2  0
 20 21  1  0
 19 22  1  0
 22 23  1  0
 23 24  2  0
 24 25  1  0
 24 26  1  0
 26 27  1  0
 26 28  2  0
 28 29  1  0
 28 30  1  0
 30 31  1  0
 30 32  2  0
 32 33  1  0
 33 34  1  0
 20 13  1  0
 32 23  1  0
 33 18  1  0
  3 13  1  0
M  ISO  8  11  14  12  14  15  16  17  16  21  16  25  16  27  16  29  16
M  ISO  2  31  16  34   5
M  END
>  <DihAtoms>  (1) 
1,2,12,13

>  <DihDeg>  (1) 
-0.009098496134389953

$$$$
