
 OpenBabel03242522093D

 57 62  0  0  1  0  0  0  0  0999 V2000
   44.2760   31.1050   44.2990 C   0  0  0  0  0  0  0  0  0  0  0  0
   45.2090   30.9140   45.2930 C   0  0  0  0  0  0  0  0  0  0  0  0
   45.2720   29.6810   45.9290 C   0  0  0  0  0  0  0  0  0  0  0  0
   44.3710   28.7300   45.4980 C   0  0  0  0  0  0  0  0  0  0  0  0
   43.4380   28.9020   44.5140 C   0  0  0  0  0  0  0  0  0  0  0  0
   43.4060   30.1160   43.9170 N   0  0  0  0  0  0  0  0  0  0  0  0
   45.8850   31.7280   45.5700 H   0  0  0  0  0  0  0  0  0  0  0  0
   45.9980   29.5040   46.7160 H   0  0  0  0  0  0  0  0  0  0  0  0
   44.4230   27.7710   45.9960 H   0  0  0  0  0  0  0  0  0  0  0  0
   42.4980   27.9080   44.0650 C   0  0  0  0  0  0  0  0  0  0  0  0
   42.6120   26.6170   44.5290 C   0  0  0  0  0  0  0  0  0  0  0  0
   43.3970   26.3470   45.2230 H   0  0  0  0  0  0  0  0  0  0  0  0
   41.7020   25.6580   44.0930 C   0  0  0  0  0  0  0  0  0  0  0  0
   41.8560   24.6560   44.5050 H   0  0  0  0  0  0  0  0  0  0  0  0
   40.6690   25.9040   43.2120 C   0  0  0  0  0  0  0  0  0  0  0  0
   40.6000   27.2050   42.7810 C   0  0  0  0  0  0  0  0  0  0  0  0
   41.4690   28.1660   43.1830 C   0  0  0  0  0  0  0  0  0  0  0  0
   41.3470   29.1690   42.7970 H   0  0  0  0  0  0  0  0  0  0  0  0
   39.2970   27.6210   41.6390 S   0  0  0  0  0  0  0  0  0  0  0  0
   38.3710   26.1400   41.3430 C   0  0  0  0  0  0  0  0  0  0  0  0
   37.3050   26.2000   40.4880 C   0  0  0  0  0  0  0  0  0  0  0  0
   37.0410   27.1240   40.0140 H   0  0  0  0  0  0  0  0  0  0  0  0
   36.5490   25.0790   40.2200 C   0  0  0  0  0  0  0  0  0  0  0  0
   35.7150   25.1680   39.5410 H   0  0  0  0  0  0  0  0  0  0  0  0
   36.8990   23.8970   40.8390 C   0  0  0  0  0  0  0  0  0  0  0  0
   36.3290   22.9980   40.6520 H   0  0  0  0  0  0  0  0  0  0  0  0
   37.9840   23.8940   41.6900 C   0  0  0  0  0  0  0  0  0  0  0  0
   38.2040   22.9150   42.1460 H   0  0  0  0  0  0  0  0  0  0  0  0
   38.7650   24.9910   41.9840 C   0  0  0  0  0  0  0  0  0  0  0  0
   39.8380   24.8130   42.8760 N   0  0  0  0  0  0  0  0  0  0  0  0
   40.0110   23.8860   43.2830 H   0  0  0  0  0  0  0  0  0  0  0  0
   44.9150   34.5500   43.3120 C   0  0  0  0  0  0  0  0  0  0  0  0
   43.9700   34.7680   42.2970 C   0  0  0  0  0  0  0  0  0  0  0  0
   43.1080   33.7220   41.9510 C   0  0  0  0  0  0  0  0  0  0  0  0
   43.2670   32.5630   42.6450 N   0  0  0  0  0  0  0  0  0  0  0  0
   44.1830   32.3840   43.6140 C   0  0  0  0  0  0  0  0  0  0  0  0
   45.0160   33.3930   43.9480 N   0  0  0  0  0  0  0  0  0  0  0  0
   45.5130   35.4310   43.4800 H   0  0  0  0  0  0  0  0  0  0  0  0
   43.8370   35.6790   41.7440 H   0  0  0  0  0  0  0  0  0  0  0  0
   42.1050   33.8050   40.9450 N   0  0  0  0  0  0  0  0  0  0  0  0
   41.3090   32.6460   40.6150 C   0  0  0  0  0  0  0  0  0  0  0  0
   40.6990   32.7710   39.2370 C   0  0  0  0  0  0  0  0  0  0  0  0
   40.0310   33.9880   38.9940 N   0  0  0  0  0  0  0  0  0  0  0  0
   40.5860   35.1580   39.5740 C   0  0  2  0  0  0  0  0  0  0  0  0
   41.8880   35.0430   40.2560 C   0  0  0  0  0  0  0  0  0  0  0  0
   40.5320   32.4310   41.3710 H   0  0  0  0  0  0  0  0  0  0  0  0
   41.9730   31.7500   40.5750 H   0  0  0  0  0  0  0  0  0  0  0  0
   41.4870   32.5810   38.4710 H   0  0  0  0  0  0  0  0  0  0  0  0
   39.9700   31.9410   39.1250 H   0  0  0  0  0  0  0  0  0  0  0  0
   39.8320   34.0690   37.9870 H   0  0  0  0  0  0  0  0  0  0  0  0
   40.6770   35.9360   38.7700 H   0  0  0  0  0  0  0  0  0  0  0  0
   42.6950   35.1700   39.4970 H   0  0  0  0  0  0  0  0  0  0  0  0
   42.0130   35.8870   40.9590 H   0  0  0  0  0  0  0  0  0  0  0  0
   39.5950   35.7160   40.5780 C   0  0  0  0  0  0  0  0  0  0  0  0
   38.7230   36.5980   39.9520 F   0  0  0  0  0  0  0  0  0  0  0  0
   40.3330   36.4810   41.4640 F   0  0  0  0  0  0  0  0  0  0  0  0
   38.8520   34.7490   41.1950 F   0  0  0  0  0  0  0  0  0  0  0  0
  1  2  1  0  0  0  0
  2  7  1  0  0  0  0
  2  3  2  0  0  0  0
  3  8  1  0  0  0  0
  4  3  1  0  0  0  0
  4  9  1  0  0  0  0
  5  4  2  0  0  0  0
  6  1  2  0  0  0  0
  6  5  1  0  0  0  0
 10  5  1  0  0  0  0
 10 11  1  0  0  0  0
 11 12  1  0  0  0  0
 13 14  1  0  0  0  0
 13 11  2  0  0  0  0
 15 13  1  0  0  0  0
 16 17  1  0  0  0  0
 16 15  2  0  0  0  0
 17 10  2  0  0  0  0
 18 17  1  0  0  0  0
 19 16  1  0  0  0  0
 20 19  1  0  0  0  0
 20 29  1  0  0  0  0
 21 20  2  0  0  0  0
 22 21  1  0  0  0  0
 23 21  1  0  0  0  0
 23 25  2  0  0  0  0
 24 23  1  0  0  0  0
 25 27  1  0  0  0  0
 26 25  1  0  0  0  0
 27 29  2  0  0  0  0
 27 28  1  0  0  0  0
 29 30  1  0  0  0  0
 30 15  1  0  0  0  0
 30 31  1  0  0  0  0
 32 38  1  0  0  0  0
 32 37  1  0  0  0  0
 33 32  2  0  0  0  0
 34 33  1  0  0  0  0
 34 35  2  0  0  0  0
 35 36  1  0  0  0  0
 36 37  2  0  0  0  0
 36  1  1  0  0  0  0
 39 33  1  0  0  0  0
 40 34  1  0  0  0  0
 41 40  1  0  0  0  0
 41 46  1  0  0  0  0
 42 41  1  0  0  0  0
 43 42  1  0  0  0  0
 43 44  1  0  0  0  0
 44 51  1  6  0  0  0
 44 45  1  0  0  0  0
 44 54  1  0  0  0  0
 45 40  1  0  0  0  0
 45 53  1  0  0  0  0
 47 41  1  0  0  0  0
 48 42  1  0  0  0  0
 49 42  1  0  0  0  0
 50 43  1  0  0  0  0
 52 45  1  0  0  0  0
 54 57  1  0  0  0  0
 54 56  1  0  0  0  0
 55 54  1  0  0  0  0
M  END
>  <minimizedAffinity>
-7.98828554

$$$$

 OpenBabel03242522093D

 57 62  0  0  1  0  0  0  0  0999 V2000
   36.7660   25.2790   40.2300 C   0  0  0  0  0  0  0  0  0  0  0  0
   36.9180   24.6310   41.4340 C   0  0  0  0  0  0  0  0  0  0  0  0
   37.2030   25.3780   42.5700 C   0  0  0  0  0  0  0  0  0  0  0  0
   37.3120   26.7400   42.3870 C   0  0  0  0  0  0  0  0  0  0  0  0
   37.1650   27.4010   41.1990 C   0  0  0  0  0  0  0  0  0  0  0  0
   36.8880   26.6400   40.1150 N   0  0  0  0  0  0  0  0  0  0  0  0
   36.8130   23.5430   41.4860 H   0  0  0  0  0  0  0  0  0  0  0  0
   37.3270   24.8920   43.5320 H   0  0  0  0  0  0  0  0  0  0  0  0
   37.5340   27.3200   43.2740 H   0  0  0  0  0  0  0  0  0  0  0  0
   37.2790   28.8240   41.0100 C   0  0  0  0  0  0  0  0  0  0  0  0
   36.1340   29.5840   40.9210 C   0  0  0  0  0  0  0  0  0  0  0  0
   35.1580   29.1230   40.9920 H   0  0  0  0  0  0  0  0  0  0  0  0
   36.2480   30.9600   40.7380 C   0  0  0  0  0  0  0  0  0  0  0  0
   35.2960   31.4960   40.6770 H   0  0  0  0  0  0  0  0  0  0  0  0
   37.4450   31.6380   40.6360 C   0  0  0  0  0  0  0  0  0  0  0  0
   38.5530   30.8350   40.7320 C   0  0  0  0  0  0  0  0  0  0  0  0
   38.4810   29.4920   40.9090 C   0  0  0  0  0  0  0  0  0  0  0  0
   39.4020   28.9280   40.9750 H   0  0  0  0  0  0  0  0  0  0  0  0
   40.1480   31.6220   40.6120 S   0  0  0  0  0  0  0  0  0  0  0  0
   39.8570   33.3550   40.3860 C   0  0  0  0  0  0  0  0  0  0  0  0
   40.9380   34.1840   40.2640 C   0  0  0  0  0  0  0  0  0  0  0  0
   41.9340   33.7880   40.3070 H   0  0  0  0  0  0  0  0  0  0  0  0
   40.7730   35.5410   40.0860 C   0  0  0  0  0  0  0  0  0  0  0  0
   41.6510   36.1610   39.9960 H   0  0  0  0  0  0  0  0  0  0  0  0
   39.4870   36.0360   40.0350 C   0  0  0  0  0  0  0  0  0  0  0  0
   39.3200   37.0950   39.8970 H   0  0  0  0  0  0  0  0  0  0  0  0
   38.4340   35.1550   40.1620 C   0  0  0  0  0  0  0  0  0  0  0  0
   37.4380   35.6220   40.1100 H   0  0  0  0  0  0  0  0  0  0  0  0
   38.5570   33.7930   40.3410 C   0  0  0  0  0  0  0  0  0  0  0  0
   37.3760   33.0370   40.4520 N   0  0  0  0  0  0  0  0  0  0  0  0
   36.4650   33.5080   40.4000 H   0  0  0  0  0  0  0  0  0  0  0  0
   37.1310   23.6550   36.9930 C   0  0  0  0  0  0  0  0  0  0  0  0
   35.8590   23.1040   36.7710 C   0  0  0  0  0  0  0  0  0  0  0  0
   34.8710   23.2930   37.7420 C   0  0  0  0  0  0  0  0  0  0  0  0
   35.2400   24.0100   38.8380 N   0  0  0  0  0  0  0  0  0  0  0  0
   36.4680   24.5260   39.0220 C   0  0  0  0  0  0  0  0  0  0  0  0
   37.4230   24.3440   38.0850 N   0  0  0  0  0  0  0  0  0  0  0  0
   37.7950   23.4390   36.1720 H   0  0  0  0  0  0  0  0  0  0  0  0
   35.5590   22.5370   35.9090 H   0  0  0  0  0  0  0  0  0  0  0  0
   33.5420   22.7910   37.6470 N   0  0  0  0  0  0  0  0  0  0  0  0
   33.3090   21.4170   37.2660 C   0  0  0  0  0  0  0  0  0  0  0  0
   31.9080   21.2250   36.7320 C   0  0  0  0  0  0  0  0  0  0  0  0
   30.8870   21.7530   37.5460 N   0  0  0  0  0  0  0  0  0  0  0  0
   31.1660   22.9640   38.2310 C   0  0  2  0  0  0  0  0  0  0  0  0
   32.4330   23.6540   37.9300 C   0  0  0  0  0  0  0  0  0  0  0  0
   33.5200   20.7050   38.0840 H   0  0  0  0  0  0  0  0  0  0  0  0
   33.9960   21.1530   36.4270 H   0  0  0  0  0  0  0  0  0  0  0  0
   31.8540   21.6340   35.6960 H   0  0  0  0  0  0  0  0  0  0  0  0
   31.7450   20.1310   36.6280 H   0  0  0  0  0  0  0  0  0  0  0  0
   30.0030   21.7610   37.0180 H   0  0  0  0  0  0  0  0  0  0  0  0
   30.3220   23.6770   38.0370 H   0  0  0  0  0  0  0  0  0  0  0  0
   32.2710   24.3190   37.0500 H   0  0  0  0  0  0  0  0  0  0  0  0
   32.6920   24.3320   38.7640 H   0  0  0  0  0  0  0  0  0  0  0  0
   31.1410   22.6910   39.7240 C   0  0  0  0  0  0  0  0  0  0  0  0
   30.8470   21.3550   39.9620 F   0  0  0  0  0  0  0  0  0  0  0  0
   30.0710   23.4080   40.2290 F   0  0  0  0  0  0  0  0  0  0  0  0
   32.3230   22.9850   40.3450 F   0  0  0  0  0  0  0  0  0  0  0  0
  1  2  1  0  0  0  0
  2  7  1  0  0  0  0
  2  3  2  0  0  0  0
  3  8  1  0  0  0  0
  4  3  1  0  0  0  0
  4  9  1  0  0  0  0
  5  4  2  0  0  0  0
  6  1  2  0  0  0  0
  6  5  1  0  0  0  0
 10  5  1  0  0  0  0
 11 12  1  0  0  0  0
 11 10  1  0  0  0  0
 13 11  2  0  0  0  0
 14 13  1  0  0  0  0
 15 16  2  0  0  0  0
 15 13  1  0  0  0  0
 16 17  1  0  0  0  0
 17 18  1  0  0  0  0
 17 10  2  0  0  0  0
 19 16  1  0  0  0  0
 20 19  1  0  0  0  0
 21 22  1  0  0  0  0
 21 20  2  0  0  0  0
 23 21  1  0  0  0  0
 24 23  1  0  0  0  0
 25 23  2  0  0  0  0
 25 27  1  0  0  0  0
 26 25  1  0  0  0  0
 27 29  2  0  0  0  0
 28 27  1  0  0  0  0
 29 20  1  0  0  0  0
 29 30  1  0  0  0  0
 30 15  1  0  0  0  0
 31 30  1  0  0  0  0
 32 37  1  0  0  0  0
 33 32  2  0  0  0  0
 33 34  1  0  0  0  0
 34 35  2  0  0  0  0
 35 36  1  0  0  0  0
 36  1  1  0  0  0  0
 37 36  2  0  0  0  0
 38 32  1  0  0  0  0
 39 33  1  0  0  0  0
 40 34  1  0  0  0  0
 40 45  1  0  0  0  0
 41 40  1  0  0  0  0
 41 46  1  0  0  0  0
 42 41  1  0  0  0  0
 42 43  1  0  0  0  0
 43 44  1  0  0  0  0
 44 51  1  6  0  0  0
 44 54  1  0  0  0  0
 45 44  1  0  0  0  0
 45 53  1  0  0  0  0
 47 41  1  0  0  0  0
 48 42  1  0  0  0  0
 49 42  1  0  0  0  0
 50 43  1  0  0  0  0
 52 45  1  0  0  0  0
 54 55  1  0  0  0  0
 54 56  1  0  0  0  0
 54 57  1  0  0  0  0
M  END
>  <minimizedAffinity>
-7.97425842

$$$$

 OpenBabel03242522093D

 57 62  0  0  1  0  0  0  0  0999 V2000
   43.3250   29.9240   44.1330 C   0  0  0  0  0  0  0  0  0  0  0  0
   44.0920   29.5440   45.2100 C   0  0  0  0  0  0  0  0  0  0  0  0
   43.9090   28.2790   45.7540 C   0  0  0  0  0  0  0  0  0  0  0  0
   42.9490   27.4940   45.1520 C   0  0  0  0  0  0  0  0  0  0  0  0
   42.1780   27.8550   44.0820 C   0  0  0  0  0  0  0  0  0  0  0  0
   42.3840   29.0940   43.5790 N   0  0  0  0  0  0  0  0  0  0  0  0
   44.8320   30.2350   45.6240 H   0  0  0  0  0  0  0  0  0  0  0  0
   44.5000   27.9550   46.6040 H   0  0  0  0  0  0  0  0  0  0  0  0
   42.8080   26.5090   45.5770 H   0  0  0  0  0  0  0  0  0  0  0  0
   41.1760   27.0330   43.4530 C   0  0  0  0  0  0  0  0  0  0  0  0
   40.9500   25.7630   43.9340 C   0  0  0  0  0  0  0  0  0  0  0  0
   41.5160   25.3820   44.7730 H   0  0  0  0  0  0  0  0  0  0  0  0
   39.9810   24.9710   43.3240 C   0  0  0  0  0  0  0  0  0  0  0  0
   39.8590   23.9750   43.7610 H   0  0  0  0  0  0  0  0  0  0  0  0
   39.2100   25.3670   42.2510 C   0  0  0  0  0  0  0  0  0  0  0  0
   39.4740   26.6400   41.8120 C   0  0  0  0  0  0  0  0  0  0  0  0
   40.4110   27.4400   42.3800 C   0  0  0  0  0  0  0  0  0  0  0  0
   40.5590   28.4320   41.9760 H   0  0  0  0  0  0  0  0  0  0  0  0
   38.5270   27.2420   40.4280 S   0  0  0  0  0  0  0  0  0  0  0  0
   37.4170   25.9450   39.9540 C   0  0  0  0  0  0  0  0  0  0  0  0
   36.5730   26.1660   38.9000 C   0  0  0  0  0  0  0  0  0  0  0  0
   36.5880   27.1030   38.3790 H   0  0  0  0  0  0  0  0  0  0  0  0
   35.6880   25.1930   38.4860 C   0  0  0  0  0  0  0  0  0  0  0  0
   35.0380   25.4060   37.6520 H   0  0  0  0  0  0  0  0  0  0  0  0
   35.6790   23.9930   39.1660 C   0  0  0  0  0  0  0  0  0  0  0  0
   34.9980   23.2070   38.8690 H   0  0  0  0  0  0  0  0  0  0  0  0
   36.5520   23.8250   40.2200 C   0  0  0  0  0  0  0  0  0  0  0  0
   36.4890   22.8420   40.7130 H   0  0  0  0  0  0  0  0  0  0  0  0
   37.4510   24.7710   40.6640 C   0  0  0  0  0  0  0  0  0  0  0  0
   38.2720   24.4350   41.7560 N   0  0  0  0  0  0  0  0  0  0  0  0
   38.1830   23.5080   42.1910 H   0  0  0  0  0  0  0  0  0  0  0  0
   44.6120   33.2530   43.4160 C   0  0  0  0  0  0  0  0  0  0  0  0
   43.7630   33.7060   42.3950 C   0  0  0  0  0  0  0  0  0  0  0  0
   42.7420   32.8610   41.9500 C   0  0  0  0  0  0  0  0  0  0  0  0
   42.6620   31.6490   42.5620 N   0  0  0  0  0  0  0  0  0  0  0  0
   43.4910   31.2420   43.5400 C   0  0  0  0  0  0  0  0  0  0  0  0
   44.4780   32.0570   43.9690 N   0  0  0  0  0  0  0  0  0  0  0  0
   45.3520   33.9970   43.6640 H   0  0  0  0  0  0  0  0  0  0  0  0
   43.8180   34.6620   41.9060 H   0  0  0  0  0  0  0  0  0  0  0  0
   41.8120   33.1910   40.9250 N   0  0  0  0  0  0  0  0  0  0  0  0
   40.8180   32.2300   40.5070 C   0  0  0  0  0  0  0  0  0  0  0  0
   40.2950   32.5460   39.1240 C   0  0  0  0  0  0  0  0  0  0  0  0
   39.8850   33.8810   38.9370 N   0  0  0  0  0  0  0  0  0  0  0  0
   40.6360   34.8870   39.5980 C   0  0  2  0  0  0  0  0  0  0  0  0
   41.8640   34.4830   40.3050 C   0  0  0  0  0  0  0  0  0  0  0  0
   39.9870   32.1330   41.2300 H   0  0  0  0  0  0  0  0  0  0  0  0
   41.2960   31.2250   40.4310 H   0  0  0  0  0  0  0  0  0  0  0  0
   41.0580   32.2450   38.3690 H   0  0  0  0  0  0  0  0  0  0  0  0
   39.4230   31.8810   38.9450 H   0  0  0  0  0  0  0  0  0  0  0  0
   39.7430   34.0520   37.9310 H   0  0  0  0  0  0  0  0  0  0  0  0
   40.9050   35.6730   38.8440 H   0  0  0  0  0  0  0  0  0  0  0  0
   42.7080   34.4890   39.5760 H   0  0  0  0  0  0  0  0  0  0  0  0
   42.1260   35.2470   41.0600 H   0  0  0  0  0  0  0  0  0  0  0  0
   39.7360   35.5750   40.6080 C   0  0  0  0  0  0  0  0  0  0  0  0
   39.0240   36.5990   39.9970 F   0  0  0  0  0  0  0  0  0  0  0  0
   40.5770   36.1910   41.5170 F   0  0  0  0  0  0  0  0  0  0  0  0
   38.8400   34.7260   41.1970 F   0  0  0  0  0  0  0  0  0  0  0  0
  1  2  1  0  0  0  0
  2  7  1  0  0  0  0
  2  3  2  0  0  0  0
  3  8  1  0  0  0  0
  4  9  1  0  0  0  0
  4  3  1  0  0  0  0
  5  4  2  0  0  0  0
  6  5  1  0  0  0  0
  6  1  2  0  0  0  0
 10 11  1  0  0  0  0
 10  5  1  0  0  0  0
 11 12  1  0  0  0  0
 13 14  1  0  0  0  0
 13 11  2  0  0  0  0
 15 13  1  0  0  0  0
 16 15  2  0  0  0  0
 16 17  1  0  0  0  0
 17 10  2  0  0  0  0
 18 17  1  0  0  0  0
 19 16  1  0  0  0  0
 20 19  1  0  0  0  0
 20 29  1  0  0  0  0
 21 20  2  0  0  0  0
 22 21  1  0  0  0  0
 23 21  1  0  0  0  0
 23 25  2  0  0  0  0
 24 23  1  0  0  0  0
 25 27  1  0  0  0  0
 26 25  1  0  0  0  0
 27 29  2  0  0  0  0
 27 28  1  0  0  0  0
 29 30  1  0  0  0  0
 30 31  1  0  0  0  0
 30 15  1  0  0  0  0
 32 38  1  0  0  0  0
 32 37  1  0  0  0  0
 33 32  2  0  0  0  0
 34 33  1  0  0  0  0
 34 35  2  0  0  0  0
 35 36  1  0  0  0  0
 36 37  2  0  0  0  0
 36  1  1  0  0  0  0
 39 33  1  0  0  0  0
 40 34  1  0  0  0  0
 41 40  1  0  0  0  0
 41 46  1  0  0  0  0
 42 41  1  0  0  0  0
 43 42  1  0  0  0  0
 43 44  1  0  0  0  0
 44 51  1  6  0  0  0
 44 45  1  0  0  0  0
 44 54  1  0  0  0  0
 45 40  1  0  0  0  0
 45 53  1  0  0  0  0
 47 41  1  0  0  0  0
 48 42  1  0  0  0  0
 49 42  1  0  0  0  0
 50 43  1  0  0  0  0
 52 45  1  0  0  0  0
 54 57  1  0  0  0  0
 54 56  1  0  0  0  0
 55 54  1  0  0  0  0
M  END
>  <minimizedAffinity>
-7.84184027

$$$$

 OpenBabel03242522093D

 57 62  0  0  1  0  0  0  0  0999 V2000
   44.8100   31.8470   44.3830 C   0  0  0  0  0  0  0  0  0  0  0  0
   45.8470   31.6020   45.2540 C   0  0  0  0  0  0  0  0  0  0  0  0
   45.9480   30.3490   45.8460 C   0  0  0  0  0  0  0  0  0  0  0  0
   44.9750   29.4350   45.5000 C   0  0  0  0  0  0  0  0  0  0  0  0
   43.9380   29.6610   44.6380 C   0  0  0  0  0  0  0  0  0  0  0  0
   43.8720   30.8920   44.0810 N   0  0  0  0  0  0  0  0  0  0  0  0
   46.5750   32.3880   45.4700 H   0  0  0  0  0  0  0  0  0  0  0  0
   46.7560   30.1300   46.5350 H   0  0  0  0  0  0  0  0  0  0  0  0
   45.0560   28.4600   45.9620 H   0  0  0  0  0  0  0  0  0  0  0  0
   42.9220   28.7060   44.2770 C   0  0  0  0  0  0  0  0  0  0  0  0
   42.8920   27.4840   44.9130 C   0  0  0  0  0  0  0  0  0  0  0  0
   43.6210   27.2400   45.6730 H   0  0  0  0  0  0  0  0  0  0  0  0
   41.9090   26.5630   44.5620 C   0  0  0  0  0  0  0  0  0  0  0  0
   41.9500   25.6170   45.1090 H   0  0  0  0  0  0  0  0  0  0  0  0
   40.9390   26.7810   43.6060 C   0  0  0  0  0  0  0  0  0  0  0  0
   41.0130   28.0130   43.0050 C   0  0  0  0  0  0  0  0  0  0  0  0
   41.9570   28.9350   43.3200 C   0  0  0  0  0  0  0  0  0  0  0  0
   41.9470   29.8840   42.8000 H   0  0  0  0  0  0  0  0  0  0  0  0
   39.7990   28.3880   41.7550 S   0  0  0  0  0  0  0  0  0  0  0  0
   38.7450   26.9710   41.6110 C   0  0  0  0  0  0  0  0  0  0  0  0
   37.7220   27.0130   40.7040 C   0  0  0  0  0  0  0  0  0  0  0  0
   37.5670   27.8840   40.1000 H   0  0  0  0  0  0  0  0  0  0  0  0
   36.8700   25.9400   40.5490 C   0  0  0  0  0  0  0  0  0  0  0  0
   36.0740   26.0120   39.8240 H   0  0  0  0  0  0  0  0  0  0  0  0
   37.0800   24.8260   41.3340 C   0  0  0  0  0  0  0  0  0  0  0  0
   36.4320   23.9660   41.2390 H   0  0  0  0  0  0  0  0  0  0  0  0
   38.1280   24.8390   42.2310 C   0  0  0  0  0  0  0  0  0  0  0  0
   38.2340   23.9150   42.8220 H   0  0  0  0  0  0  0  0  0  0  0  0
   39.0010   25.8890   42.4160 C   0  0  0  0  0  0  0  0  0  0  0  0
   40.0180   25.7360   43.3760 N   0  0  0  0  0  0  0  0  0  0  0  0
   40.0850   24.8600   43.9090 H   0  0  0  0  0  0  0  0  0  0  0  0
   45.3880   35.3230   43.4720 C   0  0  0  0  0  0  0  0  0  0  0  0
   44.3810   35.5730   42.5260 C   0  0  0  0  0  0  0  0  0  0  0  0
   43.4980   34.5380   42.2010 C   0  0  0  0  0  0  0  0  0  0  0  0
   43.7000   33.3570   42.8450 N   0  0  0  0  0  0  0  0  0  0  0  0
   44.6740   33.1470   43.7480 C   0  0  0  0  0  0  0  0  0  0  0  0
   45.5280   34.1460   44.0620 N   0  0  0  0  0  0  0  0  0  0  0  0
   45.9950   36.1990   43.6310 H   0  0  0  0  0  0  0  0  0  0  0  0
   44.2140   36.5020   42.0130 H   0  0  0  0  0  0  0  0  0  0  0  0
   42.4340   34.6520   41.2620 N   0  0  0  0  0  0  0  0  0  0  0  0
   41.6510   35.8630   41.1950 C   0  0  0  0  0  0  0  0  0  0  0  0
   40.3080   35.6140   40.5470 C   0  0  0  0  0  0  0  0  0  0  0  0
   40.3620   34.9220   39.3200 N   0  0  0  0  0  0  0  0  0  0  0  0
   41.3500   33.9120   39.1900 C   0  0  2  0  0  0  0  0  0  0  0  0
   42.1400   33.5580   40.3830 C   0  0  0  0  0  0  0  0  0  0  0  0
   42.1840   36.6900   40.6910 H   0  0  0  0  0  0  0  0  0  0  0  0
   41.4300   36.2100   42.2320 H   0  0  0  0  0  0  0  0  0  0  0  0
   39.6420   35.0970   41.2760 H   0  0  0  0  0  0  0  0  0  0  0  0
   39.8410   36.6070   40.3710 H   0  0  0  0  0  0  0  0  0  0  0  0
   39.4130   34.6210   39.0600 H   0  0  0  0  0  0  0  0  0  0  0  0
   40.8480   32.9820   38.8120 H   0  0  0  0  0  0  0  0  0  0  0  0
   41.5820   32.7840   40.9590 H   0  0  0  0  0  0  0  0  0  0  0  0
   43.0810   33.0690   40.0710 H   0  0  0  0  0  0  0  0  0  0  0  0
   42.3250   34.3270   38.1050 C   0  0  0  0  0  0  0  0  0  0  0  0
   42.1640   35.6730   37.8040 F   0  0  0  0  0  0  0  0  0  0  0  0
   41.9490   33.6390   36.9650 F   0  0  0  0  0  0  0  0  0  0  0  0
   43.6320   34.1200   38.4470 F   0  0  0  0  0  0  0  0  0  0  0  0
  1  2  1  0  0  0  0
  2  7  1  0  0  0  0
  2  3  2  0  0  0  0
  3  8  1  0  0  0  0
  4  3  1  0  0  0  0
  4  9  1  0  0  0  0
  5  4  2  0  0  0  0
  6  1  2  0  0  0  0
  6  5  1  0  0  0  0
 10  5  1  0  0  0  0
 10 11  1  0  0  0  0
 11 12  1  0  0  0  0
 13 11  2  0  0  0  0
 13 14  1  0  0  0  0
 15 13  1  0  0  0  0
 16 17  1  0  0  0  0
 16 15  2  0  0  0  0
 17 10  2  0  0  0  0
 18 17  1  0  0  0  0
 19 16  1  0  0  0  0
 20 19  1  0  0  0  0
 20 29  1  0  0  0  0
 21 20  2  0  0  0  0
 22 21  1  0  0  0  0
 23 21  1  0  0  0  0
 23 25  2  0  0  0  0
 24 23  1  0  0  0  0
 25 27  1  0  0  0  0
 26 25  1  0  0  0  0
 27 29  2  0  0  0  0
 27 28  1  0  0  0  0
 29 30  1  0  0  0  0
 30 15  1  0  0  0  0
 30 31  1  0  0  0  0
 32 38  1  0  0  0  0
 32 37  1  0  0  0  0
 33 32  2  0  0  0  0
 34 33  1  0  0  0  0
 34 35  2  0  0  0  0
 35 36  1  0  0  0  0
 36 37  2  0  0  0  0
 36  1  1  0  0  0  0
 39 33  1  0  0  0  0
 40 34  1  0  0  0  0
 41 40  1  0  0  0  0
 41 47  1  0  0  0  0
 42 41  1  0  0  0  0
 42 48  1  0  0  0  0
 43 42  1  0  0  0  0
 44 51  1  6  0  0  0
 44 43  1  0  0  0  0
 44 45  1  0  0  0  0
 45 52  1  0  0  0  0
 45 40  1  0  0  0  0
 46 41  1  0  0  0  0
 49 42  1  0  0  0  0
 50 43  1  0  0  0  0
 53 45  1  0  0  0  0
 54 57  1  0  0  0  0
 54 44  1  0  0  0  0
 55 54  1  0  0  0  0
 56 54  1  0  0  0  0
M  END
>  <minimizedAffinity>
-7.81915236

$$$$

 OpenBabel03242522093D

 57 62  0  0  1  0  0  0  0  0999 V2000
   37.4500   29.2790   38.3330 C   0  0  0  0  0  0  0  0  0  0  0  0
   36.8350   29.5760   37.1380 C   0  0  0  0  0  0  0  0  0  0  0  0
   37.0200   30.8350   36.5800 C   0  0  0  0  0  0  0  0  0  0  0  0
   37.8260   31.6990   37.2910 C   0  0  0  0  0  0  0  0  0  0  0  0
   38.4440   31.4210   38.4780 C   0  0  0  0  0  0  0  0  0  0  0  0
   38.2400   30.1860   38.9910 N   0  0  0  0  0  0  0  0  0  0  0  0
   36.2110   28.8260   36.6440 H   0  0  0  0  0  0  0  0  0  0  0  0
   36.5470   31.0940   35.6390 H   0  0  0  0  0  0  0  0  0  0  0  0
   37.9680   32.6790   36.8530 H   0  0  0  0  0  0  0  0  0  0  0  0
   39.2850   32.3260   39.2180 C   0  0  0  0  0  0  0  0  0  0  0  0
   38.7420   33.4840   39.7290 C   0  0  0  0  0  0  0  0  0  0  0  0
   37.6960   33.7160   39.5780 H   0  0  0  0  0  0  0  0  0  0  0  0
   39.5580   34.3560   40.4440 C   0  0  0  0  0  0  0  0  0  0  0  0
   39.0560   35.2530   40.8180 H   0  0  0  0  0  0  0  0  0  0  0  0
   40.9000   34.1480   40.6880 C   0  0  0  0  0  0  0  0  0  0  0  0
   41.3900   32.9810   40.1590 C   0  0  0  0  0  0  0  0  0  0  0  0
   40.6260   32.1080   39.4560 C   0  0  0  0  0  0  0  0  0  0  0  0
   41.0880   31.2090   39.0720 H   0  0  0  0  0  0  0  0  0  0  0  0
   43.1160   32.6240   40.4230 S   0  0  0  0  0  0  0  0  0  0  0  0
   43.7870   33.9660   41.3660 C   0  0  0  0  0  0  0  0  0  0  0  0
   45.1130   33.9260   41.7000 C   0  0  0  0  0  0  0  0  0  0  0  0
   45.7240   33.0990   41.3970 H   0  0  0  0  0  0  0  0  0  0  0  0
   45.6890   34.9420   42.4320 C   0  0  0  0  0  0  0  0  0  0  0  0
   46.7380   34.8720   42.6770 H   0  0  0  0  0  0  0  0  0  0  0  0
   44.8900   35.9980   42.8170 C   0  0  0  0  0  0  0  0  0  0  0  0
   45.3080   36.8120   43.3920 H   0  0  0  0  0  0  0  0  0  0  0  0
   43.5600   35.9870   42.4520 C   0  0  0  0  0  0  0  0  0  0  0  0
   42.9860   36.8630   42.7920 H   0  0  0  0  0  0  0  0  0  0  0  0
   42.9470   34.9920   41.7210 C   0  0  0  0  0  0  0  0  0  0  0  0
   41.5770   35.1380   41.4330 N   0  0  0  0  0  0  0  0  0  0  0  0
   41.0740   35.9680   41.7700 H   0  0  0  0  0  0  0  0  0  0  0  0
   36.2450   25.9090   38.9990 C   0  0  0  0  0  0  0  0  0  0  0  0
   36.9860   25.5260   40.1280 C   0  0  0  0  0  0  0  0  0  0  0  0
   37.9060   26.4340   40.6620 C   0  0  0  0  0  0  0  0  0  0  0  0
   38.0010   27.6320   40.0250 N   0  0  0  0  0  0  0  0  0  0  0  0
   37.2760   27.9710   38.9450 C   0  0  0  0  0  0  0  0  0  0  0  0
   36.3870   27.0950   38.4270 N   0  0  0  0  0  0  0  0  0  0  0  0
   35.5750   25.1230   38.6900 H   0  0  0  0  0  0  0  0  0  0  0  0
   36.9170   24.5830   40.6370 H   0  0  0  0  0  0  0  0  0  0  0  0
   38.7210   26.1780   41.8010 N   0  0  0  0  0  0  0  0  0  0  0  0
   39.5240   24.9790   41.8650 C   0  0  0  0  0  0  0  0  0  0  0  0
   39.8890   24.6380   43.2920 C   0  0  0  0  0  0  0  0  0  0  0  0
   40.4280   25.7050   44.0370 N   0  0  0  0  0  0  0  0  0  0  0  0
   39.9030   27.0000   43.7870 C   0  0  2  0  0  0  0  0  0  0  0  0
   38.7420   27.1140   42.8860 C   0  0  0  0  0  0  0  0  0  0  0  0
   40.4280   25.0360   41.2300 H   0  0  0  0  0  0  0  0  0  0  0  0
   38.9220   24.1190   41.4890 H   0  0  0  0  0  0  0  0  0  0  0  0
   38.9990   24.1970   43.8000 H   0  0  0  0  0  0  0  0  0  0  0  0
   40.6410   23.8220   43.2510 H   0  0  0  0  0  0  0  0  0  0  0  0
   40.4530   25.4440   45.0320 H   0  0  0  0  0  0  0  0  0  0  0  0
   39.6310   27.4610   44.7730 H   0  0  0  0  0  0  0  0  0  0  0  0
   37.8140   26.9750   43.4890 H   0  0  0  0  0  0  0  0  0  0  0  0
   38.6810   28.1440   42.4910 H   0  0  0  0  0  0  0  0  0  0  0  0
   41.0090   27.8670   43.2150 C   0  0  0  0  0  0  0  0  0  0  0  0
   41.9280   28.1860   44.2060 F   0  0  0  0  0  0  0  0  0  0  0  0
   40.4130   29.0630   42.8550 F   0  0  0  0  0  0  0  0  0  0  0  0
   41.6820   27.2720   42.1850 F   0  0  0  0  0  0  0  0  0  0  0  0
  1 36  1  0  0  0  0
  1  6  1  0  0  0  0
  2  1  2  0  0  0  0
  3  2  1  0  0  0  0
  3  4  2  0  0  0  0
  4  5  1  0  0  0  0
  5  6  2  0  0  0  0
  5 10  1  0  0  0  0
  7  2  1  0  0  0  0
  8  3  1  0  0  0  0
  9  4  1  0  0  0  0
 10 17  2  0  0  0  0
 10 11  1  0  0  0  0
 11 13  2  0  0  0  0
 12 11  1  0  0  0  0
 13 15  1  0  0  0  0
 13 14  1  0  0  0  0
 15 30  1  0  0  0  0
 16 19  1  0  0  0  0
 16 15  2  0  0  0  0
 17 16  1  0  0  0  0
 18 17  1  0  0  0  0
 19 20  1  0  0  0  0
 20 21  2  0  0  0  0
 20 29  1  0  0  0  0
 21 23  1  0  0  0  0
 22 21  1  0  0  0  0
 23 24  1  0  0  0  0
 23 25  2  0  0  0  0
 25 26  1  0  0  0  0
 27 28  1  0  0  0  0
 27 25  1  0  0  0  0
 29 27  2  0  0  0  0
 30 29  1  0  0  0  0
 30 31  1  0  0  0  0
 32 33  1  0  0  0  0
 33 39  1  0  0  0  0
 33 34  2  0  0  0  0
 34 40  1  0  0  0  0
 35 34  1  0  0  0  0
 36 35  2  0  0  0  0
 37 36  1  0  0  0  0
 37 32  2  0  0  0  0
 38 32  1  0  0  0  0
 40 41  1  0  0  0  0
 40 45  1  0  0  0  0
 41 42  1  0  0  0  0
 42 48  1  0  0  0  0
 42 43  1  0  0  0  0
 43 50  1  0  0  0  0
 44 43  1  0  0  0  0
 44 51  1  1  0  0  0
 45 52  1  0  0  0  0
 45 44  1  0  0  0  0
 46 41  1  0  0  0  0
 47 41  1  0  0  0  0
 49 42  1  0  0  0  0
 53 45  1  0  0  0  0
 54 44  1  0  0  0  0
 54 55  1  0  0  0  0
 56 54  1  0  0  0  0
 57 54  1  0  0  0  0
M  END
>  <minimizedAffinity>
-7.73832226

$$$$

 OpenBabel03242522093D

 57 62  0  0  1  0  0  0  0  0999 V2000
   38.6120   26.0230   41.8690 C   0  0  0  0  0  0  0  0  0  0  0  0
   39.0960   25.2780   42.9200 C   0  0  0  0  0  0  0  0  0  0  0  0
   40.0230   25.8510   43.7820 C   0  0  0  0  0  0  0  0  0  0  0  0
   40.3870   27.1510   43.5020 C   0  0  0  0  0  0  0  0  0  0  0  0
   39.9170   27.9060   42.4630 C   0  0  0  0  0  0  0  0  0  0  0  0
   39.0170   27.3150   41.6460 N   0  0  0  0  0  0  0  0  0  0  0  0
   38.7500   24.2510   43.0660 H   0  0  0  0  0  0  0  0  0  0  0  0
   40.4200   25.2850   44.6180 H   0  0  0  0  0  0  0  0  0  0  0  0
   41.1090   27.5950   44.1750 H   0  0  0  0  0  0  0  0  0  0  0  0
   40.2990   29.2640   42.1730 C   0  0  0  0  0  0  0  0  0  0  0  0
   41.6030   29.6550   42.3790 C   0  0  0  0  0  0  0  0  0  0  0  0
   42.3360   28.9540   42.7540 H   0  0  0  0  0  0  0  0  0  0  0  0
   41.9680   30.9690   42.0970 C   0  0  0  0  0  0  0  0  0  0  0  0
   43.0200   31.2030   42.2850 H   0  0  0  0  0  0  0  0  0  0  0  0
   41.1080   31.9330   41.6160 C   0  0  0  0  0  0  0  0  0  0  0  0
   39.8220   31.4920   41.4280 C   0  0  0  0  0  0  0  0  0  0  0  0
   39.4290   30.2210   41.6920 C   0  0  0  0  0  0  0  0  0  0  0  0
   38.3960   29.9510   41.5170 H   0  0  0  0  0  0  0  0  0  0  0  0
   38.6350   32.6680   40.8080 S   0  0  0  0  0  0  0  0  0  0  0  0
   39.4910   34.2020   40.5820 C   0  0  0  0  0  0  0  0  0  0  0  0
   38.7870   35.2750   40.1100 C   0  0  0  0  0  0  0  0  0  0  0  0
   37.7440   35.1830   39.8830 H   0  0  0  0  0  0  0  0  0  0  0  0
   39.4010   36.4940   39.9150 C   0  0  0  0  0  0  0  0  0  0  0  0
   38.8110   37.3160   39.5390 H   0  0  0  0  0  0  0  0  0  0  0  0
   40.7440   36.5990   40.2100 C   0  0  0  0  0  0  0  0  0  0  0  0
   41.2580   37.5390   40.0690 H   0  0  0  0  0  0  0  0  0  0  0  0
   41.4040   35.4840   40.6850 C   0  0  0  0  0  0  0  0  0  0  0  0
   42.4730   35.6440   40.9000 H   0  0  0  0  0  0  0  0  0  0  0  0
   40.8280   34.2500   40.8940 C   0  0  0  0  0  0  0  0  0  0  0  0
   41.6480   33.2170   41.3840 N   0  0  0  0  0  0  0  0  0  0  0  0
   42.6400   33.4030   41.5710 H   0  0  0  0  0  0  0  0  0  0  0  0
   36.2290   23.7350   40.3430 C   0  0  0  0  0  0  0  0  0  0  0  0
   35.8230   24.4250   39.1900 C   0  0  0  0  0  0  0  0  0  0  0  0
   36.3730   25.6860   38.9370 C   0  0  0  0  0  0  0  0  0  0  0  0
   37.2720   26.1390   39.8520 N   0  0  0  0  0  0  0  0  0  0  0  0
   37.6420   25.4530   40.9490 C   0  0  0  0  0  0  0  0  0  0  0  0
   37.1110   24.2360   41.1940 N   0  0  0  0  0  0  0  0  0  0  0  0
   35.7320   22.7810   40.4180 H   0  0  0  0  0  0  0  0  0  0  0  0
   35.1140   24.0760   38.4620 H   0  0  0  0  0  0  0  0  0  0  0  0
   36.0530   26.4930   37.8100 N   0  0  0  0  0  0  0  0  0  0  0  0
   34.6930   26.5600   37.3260 C   0  0  0  0  0  0  0  0  0  0  0  0
   34.6440   27.0180   35.8860 C   0  0  0  0  0  0  0  0  0  0  0  0
   35.3870   28.1820   35.6090 N   0  0  0  0  0  0  0  0  0  0  0  0
   36.6110   28.3510   36.3080 C   0  0  2  0  0  0  0  0  0  0  0  0
   37.0850   27.2400   37.1520 C   0  0  0  0  0  0  0  0  0  0  0  0
   34.0440   27.1900   37.9620 H   0  0  0  0  0  0  0  0  0  0  0  0
   34.2540   25.5350   37.3370 H   0  0  0  0  0  0  0  0  0  0  0  0
   34.9510   26.1740   35.2250 H   0  0  0  0  0  0  0  0  0  0  0  0
   33.5780   27.2140   35.6420 H   0  0  0  0  0  0  0  0  0  0  0  0
   35.4640   28.2990   34.5890 H   0  0  0  0  0  0  0  0  0  0  0  0
   37.4100   28.5900   35.5580 H   0  0  0  0  0  0  0  0  0  0  0  0
   37.6740   26.5400   36.5150 H   0  0  0  0  0  0  0  0  0  0  0  0
   37.8010   27.6250   37.9020 H   0  0  0  0  0  0  0  0  0  0  0  0
   36.4950   29.5780   37.1940 C   0  0  0  0  0  0  0  0  0  0  0  0
   36.9630   30.7000   36.5230 F   0  0  0  0  0  0  0  0  0  0  0  0
   37.3690   29.3770   38.2470 F   0  0  0  0  0  0  0  0  0  0  0  0
   35.2140   29.8290   37.6020 F   0  0  0  0  0  0  0  0  0  0  0  0
  1  2  1  0  0  0  0
  2  7  1  0  0  0  0
  2  3  2  0  0  0  0
  3  8  1  0  0  0  0
  4  3  1  0  0  0  0
  4  9  1  0  0  0  0
  5  4  2  0  0  0  0
  6  1  2  0  0  0  0
  6  5  1  0  0  0  0
 10 11  1  0  0  0  0
 10  5  1  0  0  0  0
 11 12  1  0  0  0  0
 13 14  1  0  0  0  0
 13 11  2  0  0  0  0
 15 13  1  0  0  0  0
 16 15  2  0  0  0  0
 16 17  1  0  0  0  0
 17 10  2  0  0  0  0
 18 17  1  0  0  0  0
 19 16  1  0  0  0  0
 20 19  1  0  0  0  0
 20 29  1  0  0  0  0
 21 20  2  0  0  0  0
 22 21  1  0  0  0  0
 23 21  1  0  0  0  0
 23 25  2  0  0  0  0
 24 23  1  0  0  0  0
 25 27  1  0  0  0  0
 26 25  1  0  0  0  0
 27 29  2  0  0  0  0
 27 28  1  0  0  0  0
 29 30  1  0  0  0  0
 30 31  1  0  0  0  0
 30 15  1  0  0  0  0
 32 38  1  0  0  0  0
 32 37  1  0  0  0  0
 33 32  2  0  0  0  0
 34 33  1  0  0  0  0
 34 35  2  0  0  0  0
 35 36  1  0  0  0  0
 36 37  2  0  0  0  0
 36  1  1  0  0  0  0
 39 33  1  0  0  0  0
 40 34  1  0  0  0  0
 41 47  1  0  0  0  0
 41 40  1  0  0  0  0
 41 46  1  0  0  0  0
 42 41  1  0  0  0  0
 43 42  1  0  0  0  0
 43 44  1  0  0  0  0
 44 51  1  6  0  0  0
 44 45  1  0  0  0  0
 44 54  1  0  0  0  0
 45 40  1  0  0  0  0
 45 53  1  0  0  0  0
 48 42  1  0  0  0  0
 49 42  1  0  0  0  0
 50 43  1  0  0  0  0
 52 45  1  0  0  0  0
 54 57  1  0  0  0  0
 54 56  1  0  0  0  0
 55 54  1  0  0  0  0
M  END
>  <minimizedAffinity>
-7.55287266

$$$$

 OpenBabel03242522093D

 57 62  0  0  1  0  0  0  0  0999 V2000
   36.6520   25.2680   40.1870 C   0  0  0  0  0  0  0  0  0  0  0  0
   36.7790   24.6090   41.3880 C   0  0  0  0  0  0  0  0  0  0  0  0
   37.0670   25.3440   42.5320 C   0  0  0  0  0  0  0  0  0  0  0  0
   37.2030   26.7050   42.3590 C   0  0  0  0  0  0  0  0  0  0  0  0
   37.0800   27.3760   41.1740 C   0  0  0  0  0  0  0  0  0  0  0  0
   36.8010   26.6280   40.0820 N   0  0  0  0  0  0  0  0  0  0  0  0
   36.6540   23.5240   41.4320 H   0  0  0  0  0  0  0  0  0  0  0  0
   37.1720   24.8490   43.4920 H   0  0  0  0  0  0  0  0  0  0  0  0
   37.4260   27.2750   43.2520 H   0  0  0  0  0  0  0  0  0  0  0  0
   37.2230   28.7970   40.9960 C   0  0  0  0  0  0  0  0  0  0  0  0
   36.0940   29.5850   40.9390 C   0  0  0  0  0  0  0  0  0  0  0  0
   35.1100   29.1450   41.0270 H   0  0  0  0  0  0  0  0  0  0  0  0
   36.2360   30.9590   40.7660 C   0  0  0  0  0  0  0  0  0  0  0  0
   35.2950   31.5170   40.7320 H   0  0  0  0  0  0  0  0  0  0  0  0
   37.4450   31.6110   40.6440 C   0  0  0  0  0  0  0  0  0  0  0  0
   38.5360   30.7820   40.7080 C   0  0  0  0  0  0  0  0  0  0  0  0
   38.4380   29.4390   40.8740 C   0  0  0  0  0  0  0  0  0  0  0  0
   39.3470   28.8540   40.9150 H   0  0  0  0  0  0  0  0  0  0  0  0
   40.1450   31.5330   40.5600 S   0  0  0  0  0  0  0  0  0  0  0  0
   39.8900   33.2750   40.3560 C   0  0  0  0  0  0  0  0  0  0  0  0
   40.9870   34.0800   40.2180 C   0  0  0  0  0  0  0  0  0  0  0  0
   41.9730   33.6620   40.2350 H   0  0  0  0  0  0  0  0  0  0  0  0
   40.8490   35.4430   40.0570 C   0  0  0  0  0  0  0  0  0  0  0  0
   41.7380   36.0440   39.9530 H   0  0  0  0  0  0  0  0  0  0  0  0
   39.5730   35.9670   40.0380 C   0  0  0  0  0  0  0  0  0  0  0  0
   39.4270   37.0310   39.9140 H   0  0  0  0  0  0  0  0  0  0  0  0
   38.5030   35.1090   40.1810 C   0  0  0  0  0  0  0  0  0  0  0  0
   37.5180   35.5990   40.1550 H   0  0  0  0  0  0  0  0  0  0  0  0
   38.5990   33.7430   40.3440 C   0  0  0  0  0  0  0  0  0  0  0  0
   37.4040   33.0130   40.4750 N   0  0  0  0  0  0  0  0  0  0  0  0
   36.5030   33.5050   40.4470 H   0  0  0  0  0  0  0  0  0  0  0  0
   36.3370   22.5520   37.7840 C   0  0  0  0  0  0  0  0  0  0  0  0
   35.7710   23.1840   36.6660 C   0  0  0  0  0  0  0  0  0  0  0  0
   35.4960   24.5530   36.7400 C   0  0  0  0  0  0  0  0  0  0  0  0
   35.8090   25.1620   37.9160 N   0  0  0  0  0  0  0  0  0  0  0  0
   36.3530   24.5290   38.9710 C   0  0  0  0  0  0  0  0  0  0  0  0
   36.6180   23.2070   38.9000 N   0  0  0  0  0  0  0  0  0  0  0  0
   36.4990   21.5030   37.5950 H   0  0  0  0  0  0  0  0  0  0  0  0
   35.5200   22.7120   35.7340 H   0  0  0  0  0  0  0  0  0  0  0  0
   34.9240   25.3190   35.6850 N   0  0  0  0  0  0  0  0  0  0  0  0
   33.5240   25.1750   35.3590 C   0  0  0  0  0  0  0  0  0  0  0  0
   33.2370   25.6440   33.9500 C   0  0  0  0  0  0  0  0  0  0  0  0
   33.7510   26.9170   33.6340 N   0  0  0  0  0  0  0  0  0  0  0  0
   35.0050   27.2680   34.1980 C   0  0  2  0  0  0  0  0  0  0  0  0
   35.7430   26.2330   34.9440 C   0  0  0  0  0  0  0  0  0  0  0  0
   32.8620   25.6810   36.0850 H   0  0  0  0  0  0  0  0  0  0  0  0
   33.2560   24.0920   35.3820 H   0  0  0  0  0  0  0  0  0  0  0  0
   33.5940   24.8720   33.2300 H   0  0  0  0  0  0  0  0  0  0  0  0
   32.1330   25.6700   33.8330 H   0  0  0  0  0  0  0  0  0  0  0  0
   33.6900   27.0630   32.6170 H   0  0  0  0  0  0  0  0  0  0  0  0
   35.6650   27.6450   33.3730 H   0  0  0  0  0  0  0  0  0  0  0  0
   36.3570   25.6480   34.2200 H   0  0  0  0  0  0  0  0  0  0  0  0
   36.4710   26.7140   35.6220 H   0  0  0  0  0  0  0  0  0  0  0  0
   34.8010   28.4440   35.1340 C   0  0  0  0  0  0  0  0  0  0  0  0
   33.4640   28.5400   35.4990 F   0  0  0  0  0  0  0  0  0  0  0  0
   35.0710   29.5800   34.3920 F   0  0  0  0  0  0  0  0  0  0  0  0
   35.5490   28.3600   36.2760 F   0  0  0  0  0  0  0  0  0  0  0  0
  1  2  1  0  0  0  0
  2  7  1  0  0  0  0
  2  3  2  0  0  0  0
  3  8  1  0  0  0  0
  4  3  1  0  0  0  0
  4  9  1  0  0  0  0
  5  4  2  0  0  0  0
  6  1  2  0  0  0  0
  6  5  1  0  0  0  0
 10  5  1  0  0  0  0
 11 10  1  0  0  0  0
 11 12  1  0  0  0  0
 13 11  2  0  0  0  0
 14 13  1  0  0  0  0
 15 16  2  0  0  0  0
 15 13  1  0  0  0  0
 16 17  1  0  0  0  0
 17 18  1  0  0  0  0
 17 10  2  0  0  0  0
 19 16  1  0  0  0  0
 20 19  1  0  0  0  0
 21 22  1  0  0  0  0
 21 20  2  0  0  0  0
 23 21  1  0  0  0  0
 24 23  1  0  0  0  0
 25 23  2  0  0  0  0
 25 27  1  0  0  0  0
 26 25  1  0  0  0  0
 27 29  2  0  0  0  0
 28 27  1  0  0  0  0
 29 20  1  0  0  0  0
 29 30  1  0  0  0  0
 30 15  1  0  0  0  0
 31 30  1  0  0  0  0
 32 37  1  0  0  0  0
 33 34  1  0  0  0  0
 33 32  2  0  0  0  0
 34 35  2  0  0  0  0
 35 36  1  0  0  0  0
 36  1  1  0  0  0  0
 37 36  2  0  0  0  0
 38 32  1  0  0  0  0
 39 33  1  0  0  0  0
 40 34  1  0  0  0  0
 41 47  1  0  0  0  0
 41 40  1  0  0  0  0
 41 46  1  0  0  0  0
 42 41  1  0  0  0  0
 43 42  1  0  0  0  0
 43 44  1  0  0  0  0
 44 51  1  6  0  0  0
 44 45  1  0  0  0  0
 44 54  1  0  0  0  0
 45 53  1  0  0  0  0
 45 40  1  0  0  0  0
 48 42  1  0  0  0  0
 49 42  1  0  0  0  0
 50 43  1  0  0  0  0
 52 45  1  0  0  0  0
 54 55  1  0  0  0  0
 54 57  1  0  0  0  0
 56 54  1  0  0  0  0
M  END
>  <minimizedAffinity>
-7.40725565

$$$$

 OpenBabel03242522093D

 57 62  0  0  1  0  0  0  0  0999 V2000
   38.3300   28.0710   42.0450 C   0  0  0  0  0  0  0  0  0  0  0  0
   39.1050   28.0300   43.1820 C   0  0  0  0  0  0  0  0  0  0  0  0
   39.5090   26.7970   43.6770 C   0  0  0  0  0  0  0  0  0  0  0  0
   39.0860   25.6920   42.9690 C   0  0  0  0  0  0  0  0  0  0  0  0
   38.3150   25.7140   41.8400 C   0  0  0  0  0  0  0  0  0  0  0  0
   37.9420   26.9320   41.3870 N   0  0  0  0  0  0  0  0  0  0  0  0
   39.3940   28.9600   43.6790 H   0  0  0  0  0  0  0  0  0  0  0  0
   40.1210   26.7360   44.5710 H   0  0  0  0  0  0  0  0  0  0  0  0
   39.4020   24.7320   43.3570 H   0  0  0  0  0  0  0  0  0  0  0  0
   37.8750   24.5590   41.1010 C   0  0  0  0  0  0  0  0  0  0  0  0
   38.7050   23.4640   41.0080 C   0  0  0  0  0  0  0  0  0  0  0  0
   39.6770   23.4670   41.4810 H   0  0  0  0  0  0  0  0  0  0  0  0
   38.2760   22.3480   40.2930 C   0  0  0  0  0  0  0  0  0  0  0  0
   38.9890   21.5190   40.2630 H   0  0  0  0  0  0  0  0  0  0  0  0
   37.0560   22.2500   39.6560 C   0  0  0  0  0  0  0  0  0  0  0  0
   36.2680   23.3670   39.7810 C   0  0  0  0  0  0  0  0  0  0  0  0
   36.6530   24.4710   40.4680 C   0  0  0  0  0  0  0  0  0  0  0  0
   35.9730   25.3110   40.5200 H   0  0  0  0  0  0  0  0  0  0  0  0
   34.6710   23.3340   38.9910 S   0  0  0  0  0  0  0  0  0  0  0  0
   34.5140   21.7570   38.1990 C   0  0  0  0  0  0  0  0  0  0  0  0
   33.3610   21.4860   37.5150 C   0  0  0  0  0  0  0  0  0  0  0  0
   32.5760   22.2140   37.4640 H   0  0  0  0  0  0  0  0  0  0  0  0
   33.1830   20.2760   36.8790 C   0  0  0  0  0  0  0  0  0  0  0  0
   32.2580   20.1000   36.3510 H   0  0  0  0  0  0  0  0  0  0  0  0
   34.2010   19.3490   36.9530 C   0  0  0  0  0  0  0  0  0  0  0  0
   34.0960   18.3890   36.4670 H   0  0  0  0  0  0  0  0  0  0  0  0
   35.3420   19.6750   37.6560 C   0  0  0  0  0  0  0  0  0  0  0  0
   36.1110   18.8870   37.6700 H   0  0  0  0  0  0  0  0  0  0  0  0
   35.5590   20.8730   38.3040 C   0  0  0  0  0  0  0  0  0  0  0  0
   36.7830   21.0430   38.9750 N   0  0  0  0  0  0  0  0  0  0  0  0
   37.4760   20.2840   38.9680 H   0  0  0  0  0  0  0  0  0  0  0  0
   36.1970   30.8260   40.9900 C   0  0  0  0  0  0  0  0  0  0  0  0
   37.1130   31.7530   40.4690 C   0  0  0  0  0  0  0  0  0  0  0  0
   38.4730   31.4270   40.4810 C   0  0  0  0  0  0  0  0  0  0  0  0
   38.7920   30.2140   41.0090 N   0  0  0  0  0  0  0  0  0  0  0  0
   37.8900   29.3460   41.5010 C   0  0  0  0  0  0  0  0  0  0  0  0
   36.5760   29.6600   41.4900 N   0  0  0  0  0  0  0  0  0  0  0  0
   35.1880   31.1980   40.9200 H   0  0  0  0  0  0  0  0  0  0  0  0
   36.8720   32.7120   40.0500 H   0  0  0  0  0  0  0  0  0  0  0  0
   39.5080   32.2690   39.9870 N   0  0  0  0  0  0  0  0  0  0  0  0
   39.6510   32.4890   38.5660 C   0  0  0  0  0  0  0  0  0  0  0  0
   41.0460   32.9550   38.2190 C   0  0  0  0  0  0  0  0  0  0  0  0
   41.5210   34.0310   38.9950 N   0  0  0  0  0  0  0  0  0  0  0  0
   41.1420   34.0600   40.3620 C   0  0  2  0  0  0  0  0  0  0  0  0
   40.4120   32.9000   40.9040 C   0  0  0  0  0  0  0  0  0  0  0  0
   38.8920   33.1840   38.1630 H   0  0  0  0  0  0  0  0  0  0  0  0
   39.5110   31.5190   38.0340 H   0  0  0  0  0  0  0  0  0  0  0  0
   41.7420   32.0850   38.2630 H   0  0  0  0  0  0  0  0  0  0  0  0
   41.0310   33.2690   37.1540 H   0  0  0  0  0  0  0  0  0  0  0  0
   42.5320   34.1430   38.8350 H   0  0  0  0  0  0  0  0  0  0  0  0
   42.0680   34.2120   40.9770 H   0  0  0  0  0  0  0  0  0  0  0  0
   41.1570   32.1420   41.2410 H   0  0  0  0  0  0  0  0  0  0  0  0
   39.8670   33.2000   41.8170 H   0  0  0  0  0  0  0  0  0  0  0  0
   40.2830   35.2890   40.5990 C   0  0  0  0  0  0  0  0  0  0  0  0
   40.0460   35.9460   39.3990 F   0  0  0  0  0  0  0  0  0  0  0  0
   41.0490   36.1550   41.3580 F   0  0  0  0  0  0  0  0  0  0  0  0
   39.0760   34.9990   41.1710 F   0  0  0  0  0  0  0  0  0  0  0  0
  1  2  1  0  0  0  0
  2  3  2  0  0  0  0
  2  7  1  0  0  0  0
  3  8  1  0  0  0  0
  4  9  1  0  0  0  0
  4  3  1  0  0  0  0
  5  4  2  0  0  0  0
  6  5  1  0  0  0  0
  6  1  2  0  0  0  0
 10  5  1  0  0  0  0
 11 10  1  0  0  0  0
 11 12  1  0  0  0  0
 13 11  2  0  0  0  0
 14 13  1  0  0  0  0
 15 16  2  0  0  0  0
 15 13  1  0  0  0  0
 16 17  1  0  0  0  0
 17 18  1  0  0  0  0
 17 10  2  0  0  0  0
 19 16  1  0  0  0  0
 20 29  1  0  0  0  0
 20 19  1  0  0  0  0
 21 20  2  0  0  0  0
 22 21  1  0  0  0  0
 23 25  2  0  0  0  0
 23 21  1  0  0  0  0
 24 23  1  0  0  0  0
 25 27  1  0  0  0  0
 26 25  1  0  0  0  0
 27 28  1  0  0  0  0
 27 29  2  0  0  0  0
 29 30  1  0  0  0  0
 30 15  1  0  0  0  0
 31 30  1  0  0  0  0
 32 37  1  0  0  0  0
 33 34  1  0  0  0  0
 33 32  2  0  0  0  0
 34 35  2  0  0  0  0
 35 36  1  0  0  0  0
 36  1  1  0  0  0  0
 37 36  2  0  0  0  0
 38 32  1  0  0  0  0
 39 33  1  0  0  0  0
 40 34  1  0  0  0  0
 40 45  1  0  0  0  0
 41 40  1  0  0  0  0
 42 48  1  0  0  0  0
 42 41  1  0  0  0  0
 42 43  1  0  0  0  0
 43 44  1  0  0  0  0
 44 54  1  0  0  0  0
 44 45  1  0  0  0  0
 44 51  1  1  0  0  0
 45 52  1  0  0  0  0
 45 53  1  0  0  0  0
 46 41  1  0  0  0  0
 47 41  1  0  0  0  0
 49 42  1  0  0  0  0
 50 43  1  0  0  0  0
 54 57  1  0  0  0  0
 54 56  1  0  0  0  0
 55 54  1  0  0  0  0
M  END
>  <minimizedAffinity>
-7.37282133

$$$$

 OpenBabel03242522093D

 57 62  0  0  1  0  0  0  0  0999 V2000
   40.6170   33.8010   39.6480 C   0  0  0  0  0  0  0  0  0  0  0  0
   40.1770   35.0170   40.1190 C   0  0  0  0  0  0  0  0  0  0  0  0
   38.8150   35.2160   40.3030 C   0  0  0  0  0  0  0  0  0  0  0  0
   37.9990   34.1490   39.9890 C   0  0  0  0  0  0  0  0  0  0  0  0
   38.4180   32.9340   39.5210 C   0  0  0  0  0  0  0  0  0  0  0  0
   39.7510   32.7780   39.3540 N   0  0  0  0  0  0  0  0  0  0  0  0
   40.8980   35.8090   40.3420 H   0  0  0  0  0  0  0  0  0  0  0  0
   38.4420   36.1650   40.6730 H   0  0  0  0  0  0  0  0  0  0  0  0
   36.9380   34.3060   40.1340 H   0  0  0  0  0  0  0  0  0  0  0  0
   37.5650   31.8210   39.1940 C   0  0  0  0  0  0  0  0  0  0  0  0
   36.7640   31.2780   40.1740 C   0  0  0  0  0  0  0  0  0  0  0  0
   36.7720   31.6780   41.1790 H   0  0  0  0  0  0  0  0  0  0  0  0
   35.9410   30.2010   39.8550 C   0  0  0  0  0  0  0  0  0  0  0  0
   35.3350   29.8240   40.6840 H   0  0  0  0  0  0  0  0  0  0  0  0
   35.8610   29.6210   38.6060 C   0  0  0  0  0  0  0  0  0  0  0  0
   36.6780   30.2010   37.6670 C   0  0  0  0  0  0  0  0  0  0  0  0
   37.4940   31.2490   37.9410 C   0  0  0  0  0  0  0  0  0  0  0  0
   38.1070   31.6500   37.1460 H   0  0  0  0  0  0  0  0  0  0  0  0
   36.6450   29.5200   36.0210 S   0  0  0  0  0  0  0  0  0  0  0  0
   35.4830   28.1820   36.0340 C   0  0  0  0  0  0  0  0  0  0  0  0
   35.2770   27.4890   34.8730 C   0  0  0  0  0  0  0  0  0  0  0  0
   35.8080   27.7550   33.9800 H   0  0  0  0  0  0  0  0  0  0  0  0
   34.3850   26.4390   34.8240 C   0  0  0  0  0  0  0  0  0  0  0  0
   34.2500   25.9190   33.8880 H   0  0  0  0  0  0  0  0  0  0  0  0
   33.7080   26.1090   35.9790 C   0  0  0  0  0  0  0  0  0  0  0  0
   33.0010   25.2910   35.9770 H   0  0  0  0  0  0  0  0  0  0  0  0
   33.9550   26.8410   37.1220 C   0  0  0  0  0  0  0  0  0  0  0  0
   33.3800   26.5180   38.0040 H   0  0  0  0  0  0  0  0  0  0  0  0
   34.8380   27.8960   37.2120 C   0  0  0  0  0  0  0  0  0  0  0  0
   34.9710   28.5350   38.4580 N   0  0  0  0  0  0  0  0  0  0  0  0
   34.4160   28.2070   39.2580 H   0  0  0  0  0  0  0  0  0  0  0  0
   44.2310   33.8900   40.0680 C   0  0  0  0  0  0  0  0  0  0  0  0
   44.6910   33.0790   39.0200 C   0  0  0  0  0  0  0  0  0  0  0  0
   43.7500   32.4980   38.1630 C   0  0  0  0  0  0  0  0  0  0  0  0
   42.4460   32.7780   38.4300 N   0  0  0  0  0  0  0  0  0  0  0  0
   42.0360   33.5610   39.4440 C   0  0  0  0  0  0  0  0  0  0  0  0
   42.9430   34.1220   40.2720 N   0  0  0  0  0  0  0  0  0  0  0  0
   45.0540   34.2740   40.6500 H   0  0  0  0  0  0  0  0  0  0  0  0
   45.7180   32.8520   38.8010 H   0  0  0  0  0  0  0  0  0  0  0  0
   44.0760   31.6560   37.0620 N   0  0  0  0  0  0  0  0  0  0  0  0
   45.4550   31.4450   36.6910 C   0  0  0  0  0  0  0  0  0  0  0  0
   45.5730   30.9780   35.2570 C   0  0  0  0  0  0  0  0  0  0  0  0
   44.7380   29.8960   34.9170 N   0  0  0  0  0  0  0  0  0  0  0  0
   43.4510   29.8590   35.5130 C   0  0  2  0  0  0  0  0  0  0  0  0
   43.0280   31.0170   36.3200 C   0  0  0  0  0  0  0  0  0  0  0  0
   45.9820   30.7540   37.3740 H   0  0  0  0  0  0  0  0  0  0  0  0
   45.9970   32.4190   36.7410 H   0  0  0  0  0  0  0  0  0  0  0  0
   45.4110   31.8470   34.5770 H   0  0  0  0  0  0  0  0  0  0  0  0
   46.6290   30.6710   35.1000 H   0  0  0  0  0  0  0  0  0  0  0  0
   44.7320   29.7830   33.8930 H   0  0  0  0  0  0  0  0  0  0  0  0
   42.6940   29.7010   34.7000 H   0  0  0  0  0  0  0  0  0  0  0  0
   42.5690   31.7720   35.6400 H   0  0  0  0  0  0  0  0  0  0  0  0
   42.2170   30.7130   37.0080 H   0  0  0  0  0  0  0  0  0  0  0  0
   43.3660   28.6310   36.4010 C   0  0  0  0  0  0  0  0  0  0  0  0
   42.9460   27.5330   35.6610 F   0  0  0  0  0  0  0  0  0  0  0  0
   42.3540   28.8820   37.3100 F   0  0  0  0  0  0  0  0  0  0  0  0
   44.5550   28.3140   36.9960 F   0  0  0  0  0  0  0  0  0  0  0  0
  1  2  1  0  0  0  0
  2  3  2  0  0  0  0
  2  7  1  0  0  0  0
  3  8  1  0  0  0  0
  4  9  1  0  0  0  0
  4  3  1  0  0  0  0
  5  4  2  0  0  0  0
  6  5  1  0  0  0  0
  6  1  2  0  0  0  0
 10  5  1  0  0  0  0
 10 11  1  0  0  0  0
 11 12  1  0  0  0  0
 13 11  2  0  0  0  0
 13 14  1  0  0  0  0
 15 13  1  0  0  0  0
 16 17  1  0  0  0  0
 16 15  2  0  0  0  0
 17 10  2  0  0  0  0
 18 17  1  0  0  0  0
 19 20  1  0  0  0  0
 19 16  1  0  0  0  0
 20 29  1  0  0  0  0
 21 20  2  0  0  0  0
 22 21  1  0  0  0  0
 23 21  1  0  0  0  0
 23 25  2  0  0  0  0
 24 23  1  0  0  0  0
 25 27  1  0  0  0  0
 26 25  1  0  0  0  0
 27 29  2  0  0  0  0
 27 28  1  0  0  0  0
 29 30  1  0  0  0  0
 30 15  1  0  0  0  0
 30 31  1  0  0  0  0
 32 37  1  0  0  0  0
 32 38  1  0  0  0  0
 33 32  2  0  0  0  0
 34 35  2  0  0  0  0
 34 33  1  0  0  0  0
 35 36  1  0  0  0  0
 36  1  1  0  0  0  0
 36 37  2  0  0  0  0
 39 33  1  0  0  0  0
 40 34  1  0  0  0  0
 41 47  1  0  0  0  0
 41 40  1  0  0  0  0
 41 46  1  0  0  0  0
 42 41  1  0  0  0  0
 43 42  1  0  0  0  0
 43 44  1  0  0  0  0
 44 51  1  6  0  0  0
 44 45  1  0  0  0  0
 44 54  1  0  0  0  0
 45 53  1  0  0  0  0
 45 40  1  0  0  0  0
 48 42  1  0  0  0  0
 49 42  1  0  0  0  0
 50 43  1  0  0  0  0
 52 45  1  0  0  0  0
 54 57  1  0  0  0  0
 54 56  1  0  0  0  0
 55 54  1  0  0  0  0
M  END
>  <minimizedAffinity>
-7.33911228

$$$$
