
 OpenBabel03252503503D

 34 37  0  0  0  0  0  0  0  0999 V2000
   47.0540   32.4030   45.1760 C   0  0  0  0  0  0  0  0  0  0  0  0
   46.8550   32.4910   46.5360 C   0  0  0  0  0  0  0  0  0  0  0  0
   46.5280   33.4200   46.9410 H   0  0  0  0  0  0  0  0  0  0  0  0
   47.0820   31.3840   47.3290 C   0  0  0  0  0  0  0  0  0  0  0  0
   46.8970   31.5470   48.3970 H   0  0  0  0  0  0  0  0  0  0  0  0
   47.5050   30.1620   46.8480 C   0  0  0  0  0  0  0  0  0  0  0  0
   47.6940   30.1040   45.4900 C   0  0  0  0  0  0  0  0  0  0  0  0
   47.4770   31.1800   44.7000 C   0  0  0  0  0  0  0  0  0  0  0  0
   47.6470   31.0710   43.6180 H   0  0  0  0  0  0  0  0  0  0  0  0
   48.2370   28.5730   44.7870 S   0  0  0  0  0  0  0  0  0  0  0  0
   48.4070   27.4180   46.1330 C   0  0  0  0  0  0  0  0  0  0  0  0
   48.8180   26.1460   45.8670 C   0  0  0  0  0  0  0  0  0  0  0  0
   49.0350   25.8550   44.8390 H   0  0  0  0  0  0  0  0  0  0  0  0
   48.9700   25.2020   46.8580 C   0  0  0  0  0  0  0  0  0  0  0  0
   49.2900   24.1870   46.7010 H   0  0  0  0  0  0  0  0  0  0  0  0
   48.6910   25.5910   48.1500 C   0  0  0  0  0  0  0  0  0  0  0  0
   48.7960   24.8850   48.9620 H   0  0  0  0  0  0  0  0  0  0  0  0
   48.2780   26.8880   48.3750 C   0  0  0  0  0  0  0  0  0  0  0  0
   48.0740   27.1250   49.4320 H   0  0  0  0  0  0  0  0  0  0  0  0
   48.1180   27.8510   47.4020 C   0  0  0  0  0  0  0  0  0  0  0  0
   47.6900   29.1260   47.7960 N   0  0  0  0  0  0  0  0  0  0  0  0
   47.5060   29.3120   48.8040 H   0  0  0  0  0  0  0  0  0  0  0  0
   47.5920   34.9090   42.4220 C   0  0  0  0  0  0  0  0  0  0  0  0
   47.8370   33.8590   43.3100 C   0  0  0  0  0  0  0  0  0  0  0  0
   46.8550   33.4890   44.2270 C   0  0  0  0  0  0  0  0  0  0  0  0
   45.6900   34.1870   44.1990 N   0  0  0  0  0  0  0  0  0  0  0  0
   45.4650   35.1920   43.3440 C   0  0  0  0  0  0  0  0  0  0  0  0
   46.4070   35.5440   42.4690 N   0  0  0  0  0  0  0  0  0  0  0  0
   48.7710   33.3580   43.2760 H   0  0  0  0  0  0  0  0  0  0  0  0
   44.5050   35.6890   43.3980 H   0  0  0  0  0  0  0  0  0  0  0  0
   48.6680   35.2750   41.4580 C   0  0  0  0  0  0  0  0  0  0  0  0
   48.2470   35.1630   40.1580 F   0  0  0  0  0  0  0  0  0  0  0  0
   49.1170   36.5440   41.7600 F   0  0  0  0  0  0  0  0  0  0  0  0
   49.7650   34.4230   41.6690 F   0  0  0  0  0  0  0  0  0  0  0  0
  1  2  1  0  0  0  0
  2  3  1  0  0  0  0
  2  4  2  0  0  0  0
  4  5  1  0  0  0  0
  6  4  1  0  0  0  0
  6 21  1  0  0  0  0
  7  6  2  0  0  0  0
  8  1  2  0  0  0  0
  8  7  1  0  0  0  0
  9  8  1  0  0  0  0
 10  7  1  0  0  0  0
 10 11  1  0  0  0  0
 11 20  1  0  0  0  0
 12 11  2  0  0  0  0
 12 14  1  0  0  0  0
 13 12  1  0  0  0  0
 14 16  2  0  0  0  0
 15 14  1  0  0  0  0
 16 18  1  0  0  0  0
 16 17  1  0  0  0  0
 18 19  1  0  0  0  0
 20 21  1  0  0  0  0
 20 18  2  0  0  0  0
 21 22  1  0  0  0  0
 23 28  2  0  0  0  0
 23 24  1  0  0  0  0
 24 25  2  0  0  0  0
 25  1  1  0  0  0  0
 26 25  1  0  0  0  0
 27 30  1  0  0  0  0
 27 26  2  0  0  0  0
 28 27  1  0  0  0  0
 29 24  1  0  0  0  0
 31 34  1  0  0  0  0
 31 33  1  0  0  0  0
 31 23  1  0  0  0  0
 32 31  1  0  0  0  0
M  END
>  <minimizedAffinity>
-5.59038019

>  <minimizedRMSD>
0.576868951

$$$$
