REMARK  Name = 
REMARK  2 active torsions:
REMARK  status: ('A' for Active; 'I' for Inactive)
REMARK    1  A    between atoms: C_1  and  C_7
REMARK    2  A    between atoms: C_3  and  C_13
REMARK                            x       y       z     vdW  Elec       q    Type
REMARK                         _______ _______ _______ _____ _____    ______ ____
ROOT
ATOM      1  C   UNL     1      47.085  32.453  45.088  0.00  0.00    +0.000 A 
ATOM      2  C   UNL     1      46.462  32.367  46.314  0.00  0.00    +0.000 A 
ATOM      3  H   UNL     1      45.789  33.144  46.596  0.00  0.00    +0.000 HD
ATOM      4  C   UNL     1      46.723  31.288  47.135  0.00  0.00    +0.000 A 
ATOM      5  H   UNL     1      46.183  31.305  48.089  0.00  0.00    +0.000 HD
ATOM      6  C   UNL     1      47.585  30.261  46.812  0.00  0.00    +0.000 A 
ATOM      7  C   UNL     1      48.191  30.373  45.585  0.00  0.00    +0.000 A 
ATOM      8  C   UNL     1      47.946  31.424  44.769  0.00  0.00    +0.000 A 
ATOM      9  H   UNL     1      48.462  31.458  43.798  0.00  0.00    +0.000 HD
ATOM     10  S   UNL     1      49.313  29.099  45.089  0.00  0.00    +0.000 S 
ATOM     11  C   UNL     1      49.367  27.911  46.414  0.00  0.00    +0.000 A 
ATOM     12  C   UNL     1      50.164  26.814  46.291  0.00  0.00    +0.000 A 
ATOM     13  H   UNL     1      50.757  26.678  45.385  0.00  0.00    +0.000 HD
ATOM     14  C   UNL     1      50.253  25.856  47.276  0.00  0.00    +0.000 A 
ATOM     15  H   UNL     1      50.867  24.972  47.227  0.00  0.00    +0.000 HD
ATOM     16  C   UNL     1      49.497  26.046  48.412  0.00  0.00    +0.000 A 
ATOM     17  H   UNL     1      49.533  25.320  49.214  0.00  0.00    +0.000 HD
ATOM     18  C   UNL     1      48.703  27.170  48.497  0.00  0.00    +0.000 A 
ATOM     19  H   UNL     1      48.128  27.253  49.433  0.00  0.00    +0.000 HD
ATOM     20  C   UNL     1      48.596  28.143  47.526  0.00  0.00    +0.000 A 
ATOM     21  N   UNL     1      47.742  29.227  47.766  0.00  0.00    +0.000 N 
ATOM     22  H   UNL     1      47.215  29.271  48.663  0.00  0.00    +0.000 HD
ENDROOT
BRANCH   1  25
ATOM     23  C   UNL     1      47.683  34.960  42.347  0.00  0.00    +0.000 A 
ATOM     24  C   UNL     1      47.913  33.918  43.249  0.00  0.00    +0.000 A 
ATOM     25  C   UNL     1      46.902  33.531  44.127  0.00  0.00    +0.000 A 
ATOM     26  N   UNL     1      45.726  34.206  44.050  0.00  0.00    +0.000 NA
ATOM     27  C   UNL     1      45.515  35.203  43.182  0.00  0.00    +0.000 A 
ATOM     28  N   UNL     1      46.485  35.571  42.344  0.00  0.00    +0.000 NA
ATOM     29  H   UNL     1      48.857  33.435  43.255  0.00  0.00    +0.000 HD
ATOM     30  H   UNL     1      44.544  35.681  43.195  0.00  0.00    +0.000 HD
BRANCH  23  31
ATOM     31  C   UNL     1      48.789  35.344  41.426  0.00  0.00    +0.000 C 
ATOM     32  F   UNL     1      48.416  35.240  40.110  0.00  0.00    +0.000 F 
ATOM     33  F   UNL     1      49.216  36.613  41.755  0.00  0.00    +0.000 F 
ATOM     34  F   UNL     1      49.885  34.499  41.668  0.00  0.00    +0.000 F 
ENDBRANCH  23  31
ENDBRANCH   1  25
TORSDOF 2
