
     RDKit          3D

 34 37  0  0  0  0  0  0  0  0999 V2000
   47.6833   34.9602   42.3473 C   0  0  0  0  0  0  0  0  0  0  0  0
   47.9135   33.9184   43.2494 C   0  0  0  0  0  0  0  0  0  0  0  0
   46.9016   33.5308   44.1272 C   0  0  0  0  0  0  0  0  0  0  0  0
   45.7257   34.2056   44.0498 N   0  0  0  0  0  0  0  0  0  0  0  0
   45.5152   35.2026   43.1817 C   0  0  0  0  0  0  0  0  0  0  0  0
   46.4852   35.5708   42.3436 N   0  0  0  0  0  0  0  0  0  0  0  0
   48.7895   35.3444   41.4263 C   0  0  0  0  0  0  0  0  0  0  0  0
   48.4165   35.2404   40.1099 F   0  0  0  0  0  0  0  0  0  0  0  0
   49.2161   36.6126   41.7546 F   0  0  0  0  0  0  0  0  0  0  0  0
   49.8854   34.4992   41.6681 F   0  0  0  0  0  0  0  0  0  0  0  0
   48.8566   33.4349   43.2551 H   0  0  0  0  0  0  0  0  0  0  0  0
   44.5436   35.6811   43.1949 H   0  0  0  0  0  0  0  0  0  0  0  0
   47.0853   32.4529   45.0876 C   0  0  0  0  0  0  0  0  0  0  0  0
   47.2761   32.6196   46.4420 C   0  0  0  0  0  0  0  0  0  0  0  0
   47.2931   33.6111   46.8329 H   0  0  0  0  0  0  0  0  0  0  0  0
   47.4381   31.5110   47.2482 C   0  0  0  0  0  0  0  0  0  0  0  0
   47.5837   31.7411   48.3101 H   0  0  0  0  0  0  0  0  0  0  0  0
   47.4232   30.2106   46.7865 C   0  0  0  0  0  0  0  0  0  0  0  0
   47.2314   30.0751   45.4335 C   0  0  0  0  0  0  0  0  0  0  0  0
   47.0712   31.1521   44.6310 C   0  0  0  0  0  0  0  0  0  0  0  0
   46.9212   30.9790   43.5550 H   0  0  0  0  0  0  0  0  0  0  0  0
   47.1984   28.4413   44.7555 S   0  0  0  0  0  0  0  0  0  0  0  0
   47.4413   27.3129   46.1117 C   0  0  0  0  0  0  0  0  0  0  0  0
   47.4592   25.9734   45.8654 C   0  0  0  0  0  0  0  0  0  0  0  0
   47.3250   25.6120   44.8450 H   0  0  0  0  0  0  0  0  0  0  0  0
   47.6421   25.0453   46.8658 C   0  0  0  0  0  0  0  0  0  0  0  0
   47.6642   23.9778   46.7238 H   0  0  0  0  0  0  0  0  0  0  0  0
   47.8097   25.5222   48.1478 C   0  0  0  0  0  0  0  0  0  0  0  0
   47.9567   24.8317   48.9671 H   0  0  0  0  0  0  0  0  0  0  0  0
   47.7850   26.8860   48.3533 C   0  0  0  0  0  0  0  0  0  0  0  0
   47.9256   27.1910   49.4026 H   0  0  0  0  0  0  0  0  0  0  0  0
   47.6036   27.8353   47.3699 C   0  0  0  0  0  0  0  0  0  0  0  0
   47.6040   29.1849   47.7447 N   0  0  0  0  0  0  0  0  0  0  0  0
   47.7398   29.4347   48.7466 H   0  0  0  0  0  0  0  0  0  0  0  0
  1  2  2  0
  2  3  1  0
  4  3  2  0
  5  4  1  0
  6  1  1  0
  6  5  2  0
  7 10  1  0
  7  9  1  0
  7  1  1  0
  8  7  1  0
  2 11  1  0
  5 12  1  0
 13 14  2  0
 14 15  1  0
 14 16  1  0
 16 17  1  0
 16 18  2  0
 18 19  1  0
 19 20  2  0
 20 21  1  0
 19 22  1  0
 22 23  1  0
 23 24  2  0
 24 25  1  0
 24 26  1  0
 26 27  1  0
 26 28  2  0
 28 29  1  0
 28 30  1  0
 30 31  1  0
 30 32  2  0
 32 33  1  0
 33 34  1  0
 20 13  1  0
 32 23  1  0
 33 18  1  0
  3 13  1  0
M  ISO  8  11  14  12  14  15  16  17  16  21  16  25  16  27  16  29  16
M  ISO  2  31  16  34   5
M  END
>  <DihAtoms>  (1) 
1,2,12,13

>  <DihDeg>  (1) 
-0.009098496134389953

$$$$
