REMARK  Name = 
REMARK  2 active torsions:
REMARK  status: ('A' for Active; 'I' for Inactive)
REMARK    1  A    between atoms: C_1  and  C_7
REMARK    2  A    between atoms: C_3  and  C_13
REMARK                            x       y       z     vdW  Elec       q    Type
REMARK                         _______ _______ _______ _____ _____    ______ ____
ROOT
ATOM      1  C   UNL     1      47.085  32.453  45.088  0.00  0.00    +0.000 A 
ATOM      2  C   UNL     1      46.810  31.123  44.852  0.00  0.00    +0.000 A 
ATOM      3  H   UNL     1      46.432  30.846  43.895  0.00  0.00    +0.000 HD
ATOM      4  C   UNL     1      47.029  30.196  45.850  0.00  0.00    +0.000 A 
ATOM      5  H   UNL     1      46.782  29.165  45.572  0.00  0.00    +0.000 HD
ATOM      6  C   UNL     1      47.517  30.508  47.103  0.00  0.00    +0.000 A 
ATOM      7  C   UNL     1      47.782  31.840  47.309  0.00  0.00    +0.000 A 
ATOM      8  C   UNL     1      47.572  32.760  46.340  0.00  0.00    +0.000 A 
ATOM      9  H   UNL     1      47.804  33.812  46.566  0.00  0.00    +0.000 HD
ATOM     10  S   UNL     1      48.411  32.330  48.888  0.00  0.00    +0.000 S 
ATOM     11  C   UNL     1      48.547  30.852  49.873  0.00  0.00    +0.000 A 
ATOM     12  C   UNL     1      49.012  30.946  51.150  0.00  0.00    +0.000 A 
ATOM     13  H   UNL     1      49.294  31.921  51.549  0.00  0.00    +0.000 HD
ATOM     14  C   UNL     1      49.142  29.845  51.966  0.00  0.00    +0.000 A 
ATOM     15  H   UNL     1      49.504  29.866  52.981  0.00  0.00    +0.000 HD
ATOM     16  C   UNL     1      48.780  28.623  51.442  0.00  0.00    +0.000 A 
ATOM     17  H   UNL     1      48.865  27.730  52.046  0.00  0.00    +0.000 HD
ATOM     18  C   UNL     1      48.314  28.573  50.145  0.00  0.00    +0.000 A 
ATOM     19  H   UNL     1      48.045  27.563  49.797  0.00  0.00    +0.000 HD
ATOM     20  C   UNL     1      48.175  29.659  49.307  0.00  0.00    +0.000 A 
ATOM     21  N   UNL     1      47.685  29.438  48.014  0.00  0.00    +0.000 N 
ATOM     22  H   UNL     1      47.442  28.469  47.720  0.00  0.00    +0.000 HD
ENDROOT
BRANCH   1  25
ATOM     23  C   UNL     1      47.683  34.960  42.347  0.00  0.00    +0.000 A 
ATOM     24  C   UNL     1      47.913  33.918  43.249  0.00  0.00    +0.000 A 
ATOM     25  C   UNL     1      46.902  33.531  44.127  0.00  0.00    +0.000 A 
ATOM     26  N   UNL     1      45.726  34.206  44.050  0.00  0.00    +0.000 NA
ATOM     27  C   UNL     1      45.515  35.203  43.182  0.00  0.00    +0.000 A 
ATOM     28  N   UNL     1      46.485  35.571  42.344  0.00  0.00    +0.000 NA
ATOM     29  H   UNL     1      48.857  33.435  43.255  0.00  0.00    +0.000 HD
ATOM     30  H   UNL     1      44.544  35.681  43.195  0.00  0.00    +0.000 HD
BRANCH  23  31
ATOM     31  C   UNL     1      48.789  35.344  41.426  0.00  0.00    +0.000 C 
ATOM     32  F   UNL     1      48.416  35.240  40.110  0.00  0.00    +0.000 F 
ATOM     33  F   UNL     1      49.216  36.613  41.755  0.00  0.00    +0.000 F 
ATOM     34  F   UNL     1      49.885  34.499  41.668  0.00  0.00    +0.000 F 
ENDBRANCH  23  31
ENDBRANCH   1  25
TORSDOF 2
