REMARK  Name = 
REMARK  2 active torsions:
REMARK  status: ('A' for Active; 'I' for Inactive)
REMARK    1  A    between atoms: C_1  and  C_7
REMARK    2  A    between atoms: C_3  and  C_13
REMARK                            x       y       z     vdW  Elec       q    Type
REMARK                         _______ _______ _______ _____ _____    ______ ____
ROOT
ATOM      1  C   UNL     1      47.085  32.453  45.088  0.00  0.00    +0.000 A 
ATOM      2  C   UNL     1      46.134  32.016  45.983  0.00  0.00    +0.000 A 
ATOM      3  H   UNL     1      45.182  32.497  45.986  0.00  0.00    +0.000 HD
ATOM      4  C   UNL     1      46.434  30.980  46.845  0.00  0.00    +0.000 A 
ATOM      5  H   UNL     1      45.617  30.702  47.520  0.00  0.00    +0.000 HD
ATOM      6  C   UNL     1      47.651  30.330  46.877  0.00  0.00    +0.000 A 
ATOM      7  C   UNL     1      48.579  30.786  45.974  0.00  0.00    +0.000 A 
ATOM      8  C   UNL     1      48.299  31.800  45.124  0.00  0.00    +0.000 A 
ATOM      9  H   UNL     1      49.084  32.121  44.423  0.00  0.00    +0.000 HD
ATOM     10  S   UNL     1      50.168  30.009  45.947  0.00  0.00    +0.000 S 
ATOM     11  C   UNL     1      50.145  28.739  47.195  0.00  0.00    +0.000 A 
ATOM     12  C   UNL     1      51.257  27.977  47.388  0.00  0.00    +0.000 A 
ATOM     13  H   UNL     1      52.143  28.155  46.777  0.00  0.00    +0.000 HD
ATOM     14  C   UNL     1      51.309  26.979  48.335  0.00  0.00    +0.000 A 
ATOM     15  H   UNL     1      52.162  26.350  48.526  0.00  0.00    +0.000 HD
ATOM     16  C   UNL     1      50.179  26.771  49.096  0.00  0.00    +0.000 A 
ATOM     17  H   UNL     1      50.171  25.998  49.853  0.00  0.00    +0.000 HD
ATOM     18  C   UNL     1      49.074  27.565  48.869  0.00  0.00    +0.000 A 
ATOM     19  H   UNL     1      48.211  27.340  49.515  0.00  0.00    +0.000 HD
ATOM     20  C   UNL     1      48.997  28.570  47.928  0.00  0.00    +0.000 A 
ATOM     21  N   UNL     1      47.798  29.287  47.822  0.00  0.00    +0.000 N 
ATOM     22  H   UNL     1      47.004  29.045  48.450  0.00  0.00    +0.000 HD
ENDROOT
BRANCH   1  25
ATOM     23  C   UNL     1      47.683  34.960  42.347  0.00  0.00    +0.000 A 
ATOM     24  C   UNL     1      47.913  33.918  43.249  0.00  0.00    +0.000 A 
ATOM     25  C   UNL     1      46.902  33.531  44.127  0.00  0.00    +0.000 A 
ATOM     26  N   UNL     1      45.726  34.206  44.050  0.00  0.00    +0.000 NA
ATOM     27  C   UNL     1      45.515  35.203  43.182  0.00  0.00    +0.000 A 
ATOM     28  N   UNL     1      46.485  35.571  42.344  0.00  0.00    +0.000 NA
ATOM     29  H   UNL     1      48.857  33.435  43.255  0.00  0.00    +0.000 HD
ATOM     30  H   UNL     1      44.544  35.681  43.195  0.00  0.00    +0.000 HD
BRANCH  23  31
ATOM     31  C   UNL     1      48.789  35.344  41.426  0.00  0.00    +0.000 C 
ATOM     32  F   UNL     1      48.416  35.240  40.110  0.00  0.00    +0.000 F 
ATOM     33  F   UNL     1      49.216  36.613  41.755  0.00  0.00    +0.000 F 
ATOM     34  F   UNL     1      49.885  34.499  41.668  0.00  0.00    +0.000 F 
ENDBRANCH  23  31
ENDBRANCH   1  25
TORSDOF 2
