REMARK  Name = 
REMARK  2 active torsions:
REMARK  status: ('A' for Active; 'I' for Inactive)
REMARK    1  A    between atoms: C_1  and  C_7
REMARK    2  A    between atoms: C_3  and  C_13
REMARK                            x       y       z     vdW  Elec       q    Type
REMARK                         _______ _______ _______ _____ _____    ______ ____
ROOT
ATOM      1  C   UNL     1      47.085  32.453  45.088  0.00  0.00    +0.000 A 
ATOM      2  C   UNL     1      46.707  32.496  46.412  0.00  0.00    +0.000 A 
ATOM      3  H   UNL     1      46.242  33.383  46.777  0.00  0.00    +0.000 HD
ATOM      4  C   UNL     1      46.938  31.402  47.222  0.00  0.00    +0.000 A 
ATOM      5  H   UNL     1      46.604  31.528  48.258  0.00  0.00    +0.000 HD
ATOM      6  C   UNL     1      47.536  30.235  46.792  0.00  0.00    +0.000 A 
ATOM      7  C   UNL     1      47.902  30.221  45.469  0.00  0.00    +0.000 A 
ATOM      8  C   UNL     1      47.682  31.285  44.663  0.00  0.00    +0.000 A 
ATOM      9  H   UNL     1      47.998  31.213  43.612  0.00  0.00    +0.000 HD
ATOM     10  S   UNL     1      48.677  28.762  44.833  0.00  0.00    +0.000 S 
ATOM     11  C   UNL     1      48.787  27.605  46.182  0.00  0.00    +0.000 A 
ATOM     12  C   UNL     1      49.350  26.384  45.965  0.00  0.00    +0.000 A 
ATOM     13  H   UNL     1      49.724  26.133  44.971  0.00  0.00    +0.000 HD
ATOM     14  C   UNL     1      49.467  25.441  46.961  0.00  0.00    +0.000 A 
ATOM     15  H   UNL     1      49.903  24.464  46.841  0.00  0.00    +0.000 HD
ATOM     16  C   UNL     1      48.989  25.778  48.209  0.00  0.00    +0.000 A 
ATOM     17  H   UNL     1      49.059  25.070  49.024  0.00  0.00    +0.000 HD
ATOM     18  C   UNL     1      48.426  27.025  48.386  0.00  0.00    +0.000 A 
ATOM     19  H   UNL     1      48.067  27.221  49.409  0.00  0.00    +0.000 HD
ATOM     20  C   UNL     1      48.297  27.986  47.406  0.00  0.00    +0.000 A 
ATOM     21  N   UNL     1      47.700  29.206  47.749  0.00  0.00    +0.000 N 
ATOM     22  H   UNL     1      47.373  29.354  48.727  0.00  0.00    +0.000 HD
ENDROOT
BRANCH   1  25
ATOM     23  C   UNL     1      47.683  34.960  42.347  0.00  0.00    +0.000 A 
ATOM     24  C   UNL     1      47.913  33.918  43.249  0.00  0.00    +0.000 A 
ATOM     25  C   UNL     1      46.902  33.531  44.127  0.00  0.00    +0.000 A 
ATOM     26  N   UNL     1      45.726  34.206  44.050  0.00  0.00    +0.000 NA
ATOM     27  C   UNL     1      45.515  35.203  43.182  0.00  0.00    +0.000 A 
ATOM     28  N   UNL     1      46.485  35.571  42.344  0.00  0.00    +0.000 NA
ATOM     29  H   UNL     1      48.857  33.435  43.255  0.00  0.00    +0.000 HD
ATOM     30  H   UNL     1      44.544  35.681  43.195  0.00  0.00    +0.000 HD
BRANCH  23  31
ATOM     31  C   UNL     1      48.789  35.344  41.426  0.00  0.00    +0.000 C 
ATOM     32  F   UNL     1      48.416  35.240  40.110  0.00  0.00    +0.000 F 
ATOM     33  F   UNL     1      49.216  36.613  41.755  0.00  0.00    +0.000 F 
ATOM     34  F   UNL     1      49.885  34.499  41.668  0.00  0.00    +0.000 F 
ENDBRANCH  23  31
ENDBRANCH   1  25
TORSDOF 2
