
     RDKit          3D

 34 37  0  0  0  0  0  0  0  0999 V2000
   44.5484   35.9984   44.5470 C   0  0  0  0  0  0  0  0  0  0  0  0
   45.2783   35.8238   43.3363 C   0  0  0  0  0  0  0  0  0  0  0  0
   46.1349   34.7366   43.2628 C   0  0  0  0  0  0  0  0  0  0  0  0
   46.2376   33.9086   44.3191 N   0  0  0  0  0  0  0  0  0  0  0  0
   45.5315   34.0979   45.4586 C   0  0  0  0  0  0  0  0  0  0  0  0
   44.6878   35.1468   45.5648 N   0  0  0  0  0  0  0  0  0  0  0  0
   45.7828   33.0740   46.5082 C   0  0  0  0  0  0  0  0  0  0  0  0
   44.9249   33.1953   47.5605 F   0  0  0  0  0  0  0  0  0  0  0  0
   47.0934   33.1496   46.9483 F   0  0  0  0  0  0  0  0  0  0  0  0
   45.6743   31.8001   45.9333 F   0  0  0  0  0  0  0  0  0  0  0  0
   43.8865   36.8376   44.6056 H   0  0  0  0  0  0  0  0  0  0  0  0
   45.1734   36.4959   42.5223 H   0  0  0  0  0  0  0  0  0  0  0  0
   46.9372   34.4484   42.0797 C   0  0  0  0  0  0  0  0  0  0  0  0
   46.3168   34.5331   40.8502 C   0  0  0  0  0  0  0  0  0  0  0  0
   45.2759   34.8017   40.7523 H   0  0  0  0  0  0  0  0  0  0  0  0
   47.0776   34.2589   39.7136 C   0  0  0  0  0  0  0  0  0  0  0  0
   46.5320   34.3418   38.7634 H   0  0  0  0  0  0  0  0  0  0  0  0
   48.4104   33.9084   39.7371 C   0  0  0  0  0  0  0  0  0  0  0  0
   48.9704   33.8411   40.9895 C   0  0  0  0  0  0  0  0  0  0  0  0
   48.2585   34.1010   42.1048 C   0  0  0  0  0  0  0  0  0  0  0  0
   48.7670   34.0280   43.0581 H   0  0  0  0  0  0  0  0  0  0  0  0
   50.6912   33.3939   41.1035 S   0  0  0  0  0  0  0  0  0  0  0  0
   51.2576   33.1376   39.4481 C   0  0  0  0  0  0  0  0  0  0  0  0
   52.5655   32.7795   39.2512 C   0  0  0  0  0  0  0  0  0  0  0  0
   53.2262   32.6602   40.1089 H   0  0  0  0  0  0  0  0  0  0  0  0
   53.0974   32.5584   38.0001 C   0  0  0  0  0  0  0  0  0  0  0  0
   54.1132   32.2820   37.8746 H   0  0  0  0  0  0  0  0  0  0  0  0
   52.2412   32.7156   36.9302 C   0  0  0  0  0  0  0  0  0  0  0  0
   52.6076   32.5542   35.9265 H   0  0  0  0  0  0  0  0  0  0  0  0
   50.9305   33.0769   37.1648 C   0  0  0  0  0  0  0  0  0  0  0  0
   50.3143   33.1813   36.2583 H   0  0  0  0  0  0  0  0  0  0  0  0
   50.3763   33.3035   38.4084 C   0  0  0  0  0  0  0  0  0  0  0  0
   49.0265   33.6657   38.4966 N   0  0  0  0  0  0  0  0  0  0  0  0
   48.4845   33.7517   37.6111 H   0  0  0  0  0  0  0  0  0  0  0  0
  1  6  2  0
  2  1  1  0
  3  2  2  0
  3  4  1  0
  4  5  2  0
  5  6  1  0
  5  7  1  0
  7  9  1  0
  7  8  1  0
 10  7  1  0
  1 11  1  0
  2 12  1  0
 13 14  2  0
 14 15  1  0
 14 16  1  0
 16 17  1  0
 16 18  2  0
 18 19  1  0
 19 20  2  0
 20 21  1  0
 19 22  1  0
 22 23  1  0
 23 24  2  0
 24 25  1  0
 24 26  1  0
 26 27  1  0
 26 28  2  0
 28 29  1  0
 28 30  1  0
 30 31  1  0
 30 32  2  0
 32 33  1  0
 33 34  1  0
 20 13  1  0
 32 23  1  0
 33 18  1  0
  3 13  1  0
M  ISO  8  11  14  12  14  15  16  17  16  21  16  25  16  27  16  29  16
M  ISO  2  31  16  34   5
M  END
>  <DihAtoms>  (1) 
1,2,12,13

>  <DihDeg>  (1) 
179.99742885719738

$$$$
