
 OpenBabel03252500093D

 44 48  0  0  0  0  0  0  0  0999 V2000
   45.6020   31.9920   39.3510 Cl  0  0  0  0  0  0  0  0  0  0  0  0
   46.8260   33.0990   38.8490 C   0  0  0  0  0  0  0  0  0  0  0  0
   47.4460   33.9350   39.7410 C   0  0  0  0  0  0  0  0  0  0  0  0
   48.4350   34.8360   39.3630 C   0  0  0  0  0  0  0  0  0  0  0  0
   48.7660   34.8440   38.0260 C   0  0  0  0  0  0  0  0  0  0  0  0
   48.1490   34.0100   37.1190 C   0  0  0  0  0  0  0  0  0  0  0  0
   47.1830   33.1370   37.5200 C   0  0  0  0  0  0  0  0  0  0  0  0
   48.9190   35.4940   40.0830 H   0  0  0  0  0  0  0  0  0  0  0  0
   49.5420   35.5560   37.7470 H   0  0  0  0  0  0  0  0  0  0  0  0
   48.4760   34.0880   36.0850 H   0  0  0  0  0  0  0  0  0  0  0  0
   46.5950   32.2980   36.4820 C   0  0  0  0  0  0  0  0  0  0  0  0
   45.3980   32.7080   35.9320 C   0  0  0  0  0  0  0  0  0  0  0  0
   44.9310   33.6200   36.2740 H   0  0  0  0  0  0  0  0  0  0  0  0
   44.8340   31.9270   34.9530 C   0  0  0  0  0  0  0  0  0  0  0  0
   43.8800   32.3120   34.5590 H   0  0  0  0  0  0  0  0  0  0  0  0
   45.3570   30.7520   34.4570 C   0  0  0  0  0  0  0  0  0  0  0  0
   46.5480   30.3970   35.0430 C   0  0  0  0  0  0  0  0  0  0  0  0
   47.1560   31.1270   36.0150 C   0  0  0  0  0  0  0  0  0  0  0  0
   48.0970   30.8050   36.4460 H   0  0  0  0  0  0  0  0  0  0  0  0
   47.3470   28.9000   34.5050 S   0  0  0  0  0  0  0  0  0  0  0  0
   46.3110   28.1930   33.2430 C   0  0  0  0  0  0  0  0  0  0  0  0
   46.6470   27.0400   32.6300 C   0  0  0  0  0  0  0  0  0  0  0  0
   47.5780   26.5230   32.9100 H   0  0  0  0  0  0  0  0  0  0  0  0
   45.8900   26.4300   31.6400 C   0  0  0  0  0  0  0  0  0  0  0  0
   46.1340   25.5070   31.1320 H   0  0  0  0  0  0  0  0  0  0  0  0
   44.7160   27.0900   31.2930 C   0  0  0  0  0  0  0  0  0  0  0  0
   44.0920   26.6560   30.5290 H   0  0  0  0  0  0  0  0  0  0  0  0
   44.3950   28.2640   31.9320 C   0  0  0  0  0  0  0  0  0  0  0  0
   43.4490   28.7130   31.5910 H   0  0  0  0  0  0  0  0  0  0  0  0
   45.1720   28.8410   32.9130 C   0  0  0  0  0  0  0  0  0  0  0  0
   44.6640   30.0500   33.4440 N   0  0  0  0  0  0  0  0  0  0  0  0
   43.7690   30.4660   33.1160 H   0  0  0  0  0  0  0  0  0  0  0  0
   47.2210   32.8940   43.2800 C   0  0  0  0  0  0  0  0  0  0  0  0
   46.2690   33.7900   43.8000 C   0  0  0  0  0  0  0  0  0  0  0  0
   45.7240   34.7300   42.9360 C   0  0  0  0  0  0  0  0  0  0  0  0
   46.1260   34.7480   41.6330 N   0  0  0  0  0  0  0  0  0  0  0  0
   47.0480   33.8740   41.1510 C   0  0  0  0  0  0  0  0  0  0  0  0
   47.5900   32.9500   41.9820 N   0  0  0  0  0  0  0  0  0  0  0  0
   47.6520   32.1580   43.9430 H   0  0  0  0  0  0  0  0  0  0  0  0
   45.9490   33.7760   44.8340 H   0  0  0  0  0  0  0  0  0  0  0  0
   44.7020   35.7370   43.3730 C   0  0  0  0  0  0  0  0  0  0  0  0
   45.1690   37.0080   43.2260 F   0  0  0  0  0  0  0  0  0  0  0  0
   43.5680   35.5860   42.5770 F   0  0  0  0  0  0  0  0  0  0  0  0
   44.3910   35.4510   44.6720 F   0  0  0  0  0  0  0  0  0  0  0  0
  2  1  1  0  0  0  0
  2  3  1  0  0  0  0
  3 37  1  0  0  0  0
  4  3  2  0  0  0  0
  4  8  1  0  0  0  0
  5  4  1  0  0  0  0
  6  7  1  0  0  0  0
  6  5  2  0  0  0  0
  7  2  2  0  0  0  0
  9  5  1  0  0  0  0
 10  6  1  0  0  0  0
 11  7  1  0  0  0  0
 12 13  1  0  0  0  0
 12 11  2  0  0  0  0
 14 12  1  0  0  0  0
 15 14  1  0  0  0  0
 16 14  2  0  0  0  0
 16 17  1  0  0  0  0
 17 18  2  0  0  0  0
 18 19  1  0  0  0  0
 18 11  1  0  0  0  0
 20 17  1  0  0  0  0
 21 20  1  0  0  0  0
 22 23  1  0  0  0  0
 22 21  2  0  0  0  0
 24 22  1  0  0  0  0
 25 24  1  0  0  0  0
 26 24  2  0  0  0  0
 26 28  1  0  0  0  0
 27 26  1  0  0  0  0
 28 30  2  0  0  0  0
 29 28  1  0  0  0  0
 30 21  1  0  0  0  0
 30 31  1  0  0  0  0
 31 16  1  0  0  0  0
 32 31  1  0  0  0  0
 33 34  1  0  0  0  0
 33 39  1  0  0  0  0
 34 40  1  0  0  0  0
 35 41  1  0  0  0  0
 35 34  2  0  0  0  0
 36 35  1  0  0  0  0
 37 36  2  0  0  0  0
 37 38  1  0  0  0  0
 38 33  2  0  0  0  0
 41 44  1  0  0  0  0
 42 41  1  0  0  0  0
 43 41  1  0  0  0  0
M  END
>  <minimizedAffinity>
-6.29112005

>  <minimizedRMSD>
2.22449374

$$$$
