
 OpenBabel03242523583D

 34 37  0  0  0  0  0  0  0  0999 V2000
   46.4780   34.6080   42.0870 C   0  0  0  0  0  0  0  0  0  0  0  0
   47.7400   35.1340   41.9030 C   0  0  0  0  0  0  0  0  0  0  0  0
   48.2420   35.6980   42.6740 H   0  0  0  0  0  0  0  0  0  0  0  0
   48.3650   34.9180   40.6750 C   0  0  0  0  0  0  0  0  0  0  0  0
   49.3680   35.3600   40.5840 H   0  0  0  0  0  0  0  0  0  0  0  0
   47.8050   34.2130   39.6310 C   0  0  0  0  0  0  0  0  0  0  0  0
   46.5490   33.7160   39.8760 C   0  0  0  0  0  0  0  0  0  0  0  0
   45.9210   33.9090   41.0530 C   0  0  0  0  0  0  0  0  0  0  0  0
   44.9310   33.4870   41.1740 H   0  0  0  0  0  0  0  0  0  0  0  0
   45.7570   32.7920   38.5750 S   0  0  0  0  0  0  0  0  0  0  0  0
   46.8870   32.7630   37.2150 C   0  0  0  0  0  0  0  0  0  0  0  0
   46.5180   32.1060   36.0710 C   0  0  0  0  0  0  0  0  0  0  0  0
   45.5450   31.6190   36.0180 H   0  0  0  0  0  0  0  0  0  0  0  0
   47.3310   32.0290   34.9610 C   0  0  0  0  0  0  0  0  0  0  0  0
   47.0210   31.5150   34.0870 H   0  0  0  0  0  0  0  0  0  0  0  0
   48.5570   32.6540   35.0500 C   0  0  0  0  0  0  0  0  0  0  0  0
   49.2330   32.6240   34.2090 H   0  0  0  0  0  0  0  0  0  0  0  0
   48.8960   33.3050   36.2190 C   0  0  0  0  0  0  0  0  0  0  0  0
   49.8910   33.7770   36.2090 H   0  0  0  0  0  0  0  0  0  0  0  0
   48.0990   33.3950   37.3430 C   0  0  0  0  0  0  0  0  0  0  0  0
   48.5750   34.0910   38.4600 N   0  0  0  0  0  0  0  0  0  0  0  0
   49.5230   34.5190   38.4030 H   0  0  0  0  0  0  0  0  0  0  0  0
   44.4510   36.0540   44.9160 C   0  0  0  0  0  0  0  0  0  0  0  0
   45.0280   35.9420   43.6180 C   0  0  0  0  0  0  0  0  0  0  0  0
   45.8300   34.8390   43.3740 C   0  0  0  0  0  0  0  0  0  0  0  0
   46.0260   33.9380   44.3550 N   0  0  0  0  0  0  0  0  0  0  0  0
   45.4650   34.0690   45.5800 C   0  0  0  0  0  0  0  0  0  0  0  0
   44.6780   35.1320   45.8530 N   0  0  0  0  0  0  0  0  0  0  0  0
   43.8310   36.9060   45.1070 H   0  0  0  0  0  0  0  0  0  0  0  0
   44.8520   36.6700   42.8670 H   0  0  0  0  0  0  0  0  0  0  0  0
   45.8000   32.9690   46.5240 C   0  0  0  0  0  0  0  0  0  0  0  0
   44.9750   32.9540   47.6080 F   0  0  0  0  0  0  0  0  0  0  0  0
   47.1200   33.0710   46.9290 F   0  0  0  0  0  0  0  0  0  0  0  0
   45.7310   31.7480   45.8400 F   0  0  0  0  0  0  0  0  0  0  0  0
  1 25  1  0  0  0  0
  2  1  1  0  0  0  0
  2  3  1  0  0  0  0
  4  2  2  0  0  0  0
  5  4  1  0  0  0  0
  6  7  2  0  0  0  0
  6  4  1  0  0  0  0
  7  8  1  0  0  0  0
  8  9  1  0  0  0  0
  8  1  2  0  0  0  0
 10  7  1  0  0  0  0
 11 20  1  0  0  0  0
 11 10  1  0  0  0  0
 12 11  2  0  0  0  0
 13 12  1  0  0  0  0
 14 16  2  0  0  0  0
 14 12  1  0  0  0  0
 15 14  1  0  0  0  0
 16 18  1  0  0  0  0
 17 16  1  0  0  0  0
 18 20  2  0  0  0  0
 19 18  1  0  0  0  0
 20 21  1  0  0  0  0
 21  6  1  0  0  0  0
 22 21  1  0  0  0  0
 23 29  1  0  0  0  0
 23 28  1  0  0  0  0
 24 23  2  0  0  0  0
 25 24  1  0  0  0  0
 25 26  2  0  0  0  0
 26 27  1  0  0  0  0
 27 28  2  0  0  0  0
 27 31  1  0  0  0  0
 30 24  1  0  0  0  0
 31 33  1  0  0  0  0
 31 32  1  0  0  0  0
 34 31  1  0  0  0  0
M  END
>  <minimizedAffinity>
-7.36543941

>  <minimizedRMSD>
1.59859204

$$$$
