
 OpenBabel03242518113D

 44 48  0  0  0  0  0  0  0  0999 V2000
   49.0330   33.1820   41.9170 C   0  0  0  0  0  0  0  0  0  0  0  0
   48.7390   32.3600   40.7760 C   0  0  0  0  0  0  0  0  0  0  0  0
   49.7440   31.6220   40.2090 C   0  0  0  0  0  0  0  0  0  0  0  0
   51.0670   31.7150   40.8040 C   0  0  0  0  0  0  0  0  0  0  0  0
   50.8730   32.8640   42.1820 S   0  0  0  0  0  0  0  0  0  0  0  0
   47.7160   32.3930   40.4500 H   0  0  0  0  0  0  0  0  0  0  0  0
   49.5660   30.9950   39.3550 H   0  0  0  0  0  0  0  0  0  0  0  0
   52.2260   31.0950   40.4430 C   0  0  0  0  0  0  0  0  0  0  0  0
   52.8050   30.1750   41.2880 C   0  0  0  0  0  0  0  0  0  0  0  0
   52.3560   29.9280   42.2420 H   0  0  0  0  0  0  0  0  0  0  0  0
   53.9970   29.5320   40.9270 C   0  0  0  0  0  0  0  0  0  0  0  0
   54.4010   28.8190   41.6350 H   0  0  0  0  0  0  0  0  0  0  0  0
   54.6420   29.7810   39.7340 C   0  0  0  0  0  0  0  0  0  0  0  0
   54.0300   30.7020   38.9270 C   0  0  0  0  0  0  0  0  0  0  0  0
   52.8750   31.3370   39.2540 C   0  0  0  0  0  0  0  0  0  0  0  0
   52.4130   32.0620   38.5940 H   0  0  0  0  0  0  0  0  0  0  0  0
   54.7970   31.0810   37.3640 S   0  0  0  0  0  0  0  0  0  0  0  0
   56.2700   30.0810   37.2650 C   0  0  0  0  0  0  0  0  0  0  0  0
   57.0490   30.1890   36.1460 C   0  0  0  0  0  0  0  0  0  0  0  0
   56.7570   30.8740   35.3480 H   0  0  0  0  0  0  0  0  0  0  0  0
   58.2030   29.4470   35.9980 C   0  0  0  0  0  0  0  0  0  0  0  0
   58.7630   29.5800   35.1010 H   0  0  0  0  0  0  0  0  0  0  0  0
   58.5410   28.5950   37.0180 C   0  0  0  0  0  0  0  0  0  0  0  0
   59.4350   28.0030   36.9340 H   0  0  0  0  0  0  0  0  0  0  0  0
   57.7190   28.5280   38.1230 C   0  0  0  0  0  0  0  0  0  0  0  0
   58.0610   27.8230   38.8930 H   0  0  0  0  0  0  0  0  0  0  0  0
   56.5590   29.2470   38.3170 C   0  0  0  0  0  0  0  0  0  0  0  0
   55.8280   29.0700   39.4940 N   0  0  0  0  0  0  0  0  0  0  0  0
   56.1920   28.3920   40.1920 H   0  0  0  0  0  0  0  0  0  0  0  0
   48.3140   34.0700   42.7660 C   0  0  0  0  0  0  0  0  0  0  0  0
   47.5290   33.5400   43.3250 H   0  0  0  0  0  0  0  0  0  0  0  0
   49.0270   34.4740   43.5330 H   0  0  0  0  0  0  0  0  0  0  0  0
   47.6960   35.2760   42.1010 C   0  0  0  0  0  0  0  0  0  0  0  0
   47.9700   36.1930   42.6940 H   0  0  0  0  0  0  0  0  0  0  0  0
   48.1090   35.4290   41.1130 H   0  0  0  0  0  0  0  0  0  0  0  0
   46.2540   35.1380   42.1040 C   0  0  0  0  0  0  0  0  0  0  0  0
   45.4600   35.6850   43.1130 C   0  0  0  0  0  0  0  0  0  0  0  0
   44.0800   35.5120   43.0510 C   0  0  0  0  0  0  0  0  0  0  0  0
   43.5780   34.8180   42.0100 N   0  0  0  0  0  0  0  0  0  0  0  0
   44.3590   34.3020   41.0540 C   0  0  0  0  0  0  0  0  0  0  0  0
   45.6720   34.4600   41.1030 N   0  0  0  0  0  0  0  0  0  0  0  0
   45.9900   36.2170   43.8880 H   0  0  0  0  0  0  0  0  0  0  0  0
   43.5120   35.9430   43.8380 H   0  0  0  0  0  0  0  0  0  0  0  0
   43.8810   33.7510   40.2400 H   0  0  0  0  0  0  0  0  0  0  0  0
  1  5  1  0  0  0  0
  1 30  1  0  0  0  0
  2  1  2  0  0  0  0
  3  2  1  0  0  0  0
  3  4  2  0  0  0  0
  4  5  1  0  0  0  0
  6  2  1  0  0  0  0
  7  3  1  0  0  0  0
  8  4  1  0  0  0  0
  8  9  1  0  0  0  0
  9 10  1  0  0  0  0
 11  9  2  0  0  0  0
 11 12  1  0  0  0  0
 13 11  1  0  0  0  0
 14 15  1  0  0  0  0
 14 13  2  0  0  0  0
 15  8  2  0  0  0  0
 16 15  1  0  0  0  0
 17 14  1  0  0  0  0
 18 17  1  0  0  0  0
 18 27  1  0  0  0  0
 19 18  2  0  0  0  0
 20 19  1  0  0  0  0
 21 19  1  0  0  0  0
 21 23  2  0  0  0  0
 22 21  1  0  0  0  0
 23 25  1  0  0  0  0
 24 23  1  0  0  0  0
 25 27  2  0  0  0  0
 25 26  1  0  0  0  0
 27 28  1  0  0  0  0
 28 13  1  0  0  0  0
 28 29  1  0  0  0  0
 30 31  1  0  0  0  0
 30 32  1  0  0  0  0
 33 36  1  0  0  0  0
 33 34  1  0  0  0  0
 33 30  1  0  0  0  0
 35 33  1  0  0  0  0
 36 37  1  0  0  0  0
 37 42  1  0  0  0  0
 38 37  2  0  0  0  0
 38 43  1  0  0  0  0
 39 38  1  0  0  0  0
 40 41  1  0  0  0  0
 40 39  2  0  0  0  0
 41 36  2  0  0  0  0
 44 40  1  0  0  0  0
M  END
>  <minimizedAffinity>
-4.96477079

>  <minimizedRMSD>
1.71640909

$$$$
