
 OpenBabel03252500093D

 44 48  0  0  0  0  0  0  0  0999 V2000
   43.5640   31.6920   41.8560 Cl  0  0  0  0  0  0  0  0  0  0  0  0
   42.8220   30.5960   40.7500 C   0  0  0  0  0  0  0  0  0  0  0  0
   42.1440   31.0420   39.6440 C   0  0  0  0  0  0  0  0  0  0  0  0
   41.5380   30.1810   38.7370 C   0  0  0  0  0  0  0  0  0  0  0  0
   41.6550   28.8360   39.0100 C   0  0  0  0  0  0  0  0  0  0  0  0
   42.3330   28.3750   40.1180 C   0  0  0  0  0  0  0  0  0  0  0  0
   42.9180   29.2430   40.9890 C   0  0  0  0  0  0  0  0  0  0  0  0
   41.0030   30.5490   37.8640 H   0  0  0  0  0  0  0  0  0  0  0  0
   41.1740   28.1750   38.2900 H   0  0  0  0  0  0  0  0  0  0  0  0
   42.3730   27.2960   40.2510 H   0  0  0  0  0  0  0  0  0  0  0  0
   43.6110   28.6530   42.1280 C   0  0  0  0  0  0  0  0  0  0  0  0
   44.9800   28.5070   42.0370 C   0  0  0  0  0  0  0  0  0  0  0  0
   45.4980   28.8250   41.1450 H   0  0  0  0  0  0  0  0  0  0  0  0
   45.6440   27.9520   43.1030 C   0  0  0  0  0  0  0  0  0  0  0  0
   46.7330   27.8660   42.9640 H   0  0  0  0  0  0  0  0  0  0  0  0
   45.0650   27.5190   44.2770 C   0  0  0  0  0  0  0  0  0  0  0  0
   43.7030   27.6900   44.3090 C   0  0  0  0  0  0  0  0  0  0  0  0
   42.9900   28.2320   43.2870 C   0  0  0  0  0  0  0  0  0  0  0  0
   41.9140   28.3470   43.3600 H   0  0  0  0  0  0  0  0  0  0  0  0
   42.8150   27.1780   45.7630 S   0  0  0  0  0  0  0  0  0  0  0  0
   44.0220   26.5210   46.8940 C   0  0  0  0  0  0  0  0  0  0  0  0
   43.6590   26.0440   48.1010 C   0  0  0  0  0  0  0  0  0  0  0  0
   42.5990   26.0590   48.3990 H   0  0  0  0  0  0  0  0  0  0  0  0
   44.5420   25.5190   49.0340 C   0  0  0  0  0  0  0  0  0  0  0  0
   44.2810   25.1290   50.0090 H   0  0  0  0  0  0  0  0  0  0  0  0
   45.8790   25.5050   48.6490 C   0  0  0  0  0  0  0  0  0  0  0  0
   46.6040   25.1060   49.3380 H   0  0  0  0  0  0  0  0  0  0  0  0
   46.2240   25.9960   47.4140 C   0  0  0  0  0  0  0  0  0  0  0  0
   47.3030   25.9440   47.1980 H   0  0  0  0  0  0  0  0  0  0  0  0
   45.3180   26.5120   46.5120 C   0  0  0  0  0  0  0  0  0  0  0  0
   45.8780   26.9660   45.2950 N   0  0  0  0  0  0  0  0  0  0  0  0
   46.9000   26.9120   45.1000 H   0  0  0  0  0  0  0  0  0  0  0  0
   42.8970   34.4490   38.4270 C   0  0  0  0  0  0  0  0  0  0  0  0
   41.8620   35.2110   39.0000 C   0  0  0  0  0  0  0  0  0  0  0  0
   40.9310   34.5500   39.7890 C   0  0  0  0  0  0  0  0  0  0  0  0
   41.0520   33.2050   39.9760 N   0  0  0  0  0  0  0  0  0  0  0  0
   42.0580   32.4870   39.4120 C   0  0  0  0  0  0  0  0  0  0  0  0
   42.9770   33.1180   38.6390 N   0  0  0  0  0  0  0  0  0  0  0  0
   43.6270   34.9530   37.8110 H   0  0  0  0  0  0  0  0  0  0  0  0
   41.7650   36.2800   38.8530 H   0  0  0  0  0  0  0  0  0  0  0  0
   39.7850   35.2540   40.4520 C   0  0  0  0  0  0  0  0  0  0  0  0
   38.6120   35.0050   39.8050 F   0  0  0  0  0  0  0  0  0  0  0  0
   39.6780   34.7840   41.7600 F   0  0  0  0  0  0  0  0  0  0  0  0
   40.0890   36.5860   40.4680 F   0  0  0  0  0  0  0  0  0  0  0  0
  2  7  1  0  0  0  0
  2  1  1  0  0  0  0
  3  2  2  0  0  0  0
  4  5  2  0  0  0  0
  4  3  1  0  0  0  0
  5  6  1  0  0  0  0
  6 10  1  0  0  0  0
  6  7  2  0  0  0  0
  7 11  1  0  0  0  0
  8  4  1  0  0  0  0
  9  5  1  0  0  0  0
 11 18  1  0  0  0  0
 12 11  2  0  0  0  0
 12 14  1  0  0  0  0
 13 12  1  0  0  0  0
 14 16  2  0  0  0  0
 15 14  1  0  0  0  0
 16 17  1  0  0  0  0
 16 31  1  0  0  0  0
 17 20  1  0  0  0  0
 18 19  1  0  0  0  0
 18 17  2  0  0  0  0
 20 21  1  0  0  0  0
 21 22  1  0  0  0  0
 22 23  1  0  0  0  0
 22 24  2  0  0  0  0
 24 25  1  0  0  0  0
 26 24  1  0  0  0  0
 26 27  1  0  0  0  0
 28 26  2  0  0  0  0
 29 28  1  0  0  0  0
 30 21  2  0  0  0  0
 30 28  1  0  0  0  0
 31 30  1  0  0  0  0
 32 31  1  0  0  0  0
 33 38  2  0  0  0  0
 33 34  1  0  0  0  0
 34 35  2  0  0  0  0
 35 36  1  0  0  0  0
 35 41  1  0  0  0  0
 37  3  1  0  0  0  0
 37 36  2  0  0  0  0
 38 37  1  0  0  0  0
 39 33  1  0  0  0  0
 40 34  1  0  0  0  0
 41 44  1  0  0  0  0
 41 43  1  0  0  0  0
 42 41  1  0  0  0  0
M  END
>  <minimizedAffinity>
-4.73913908

>  <minimizedRMSD>
9.43589211

$$$$
