
 OpenBabel03252500093D

 44 48  0  0  0  0  0  0  0  0999 V2000
   44.6330   32.2070   40.1040 Cl  0  0  0  0  0  0  0  0  0  0  0  0
   45.9010   32.9160   39.1720 C   0  0  0  0  0  0  0  0  0  0  0  0
   46.8960   33.6540   39.7590 C   0  0  0  0  0  0  0  0  0  0  0  0
   47.9280   34.2350   39.0330 C   0  0  0  0  0  0  0  0  0  0  0  0
   47.9000   34.0280   37.6720 C   0  0  0  0  0  0  0  0  0  0  0  0
   46.9050   33.2890   37.0690 C   0  0  0  0  0  0  0  0  0  0  0  0
   45.9060   32.7310   37.8080 C   0  0  0  0  0  0  0  0  0  0  0  0
   48.7120   34.8180   39.5130 H   0  0  0  0  0  0  0  0  0  0  0  0
   48.7160   34.4900   37.1170 H   0  0  0  0  0  0  0  0  0  0  0  0
   46.9650   33.1800   35.9880 H   0  0  0  0  0  0  0  0  0  0  0  0
   44.9030   31.9680   37.0730 C   0  0  0  0  0  0  0  0  0  0  0  0
   45.2730   31.4350   35.8550 C   0  0  0  0  0  0  0  0  0  0  0  0
   46.2740   31.5910   35.4780 H   0  0  0  0  0  0  0  0  0  0  0  0
   44.3380   30.7150   35.1530 C   0  0  0  0  0  0  0  0  0  0  0  0
   44.6980   30.3190   34.1900 H   0  0  0  0  0  0  0  0  0  0  0  0
   43.0420   30.4670   35.5550 C   0  0  0  0  0  0  0  0  0  0  0  0
   42.7350   31.0210   36.7730 C   0  0  0  0  0  0  0  0  0  0  0  0
   43.6150   31.7450   37.5140 C   0  0  0  0  0  0  0  0  0  0  0  0
   43.3250   32.1620   38.4720 H   0  0  0  0  0  0  0  0  0  0  0  0
   41.0960   30.7860   37.4250 S   0  0  0  0  0  0  0  0  0  0  0  0
   40.2060   29.8120   36.2310 C   0  0  0  0  0  0  0  0  0  0  0  0
   38.9210   29.4600   36.4360 C   0  0  0  0  0  0  0  0  0  0  0  0
   38.4070   29.7790   37.3570 H   0  0  0  0  0  0  0  0  0  0  0  0
   38.1650   28.7040   35.5520 C   0  0  0  0  0  0  0  0  0  0  0  0
   37.1330   28.4080   35.6890 H   0  0  0  0  0  0  0  0  0  0  0  0
   38.8210   28.3080   34.3920 C   0  0  0  0  0  0  0  0  0  0  0  0
   38.2780   27.7190   33.6720 H   0  0  0  0  0  0  0  0  0  0  0  0
   40.1310   28.6780   34.2050 C   0  0  0  0  0  0  0  0  0  0  0  0
   40.5660   28.3180   33.2590 H   0  0  0  0  0  0  0  0  0  0  0  0
   40.8530   29.4310   35.1060 C   0  0  0  0  0  0  0  0  0  0  0  0
   42.1870   29.7050   34.7250 N   0  0  0  0  0  0  0  0  0  0  0  0
   42.5890   29.3600   33.8290 H   0  0  0  0  0  0  0  0  0  0  0  0
   47.6710   33.2910   43.3540 C   0  0  0  0  0  0  0  0  0  0  0  0
   46.7810   34.2030   43.9510 C   0  0  0  0  0  0  0  0  0  0  0  0
   45.9360   34.9220   43.1170 C   0  0  0  0  0  0  0  0  0  0  0  0
   45.9990   34.7200   41.7700 N   0  0  0  0  0  0  0  0  0  0  0  0
   46.8670   33.8340   41.2140 C   0  0  0  0  0  0  0  0  0  0  0  0
   47.7000   33.1240   42.0150 N   0  0  0  0  0  0  0  0  0  0  0  0
   48.3350   32.7260   43.9930 H   0  0  0  0  0  0  0  0  0  0  0  0
   46.7300   34.3640   45.0200 H   0  0  0  0  0  0  0  0  0  0  0  0
   44.9450   35.9220   43.6350 C   0  0  0  0  0  0  0  0  0  0  0  0
   45.2770   37.1860   43.2540 F   0  0  0  0  0  0  0  0  0  0  0  0
   43.6930   35.6140   43.1050 F   0  0  0  0  0  0  0  0  0  0  0  0
   44.9130   35.7860   44.9930 F   0  0  0  0  0  0  0  0  0  0  0  0
  2  3  1  0  0  0  0
  2  1  1  0  0  0  0
  3 37  1  0  0  0  0
  4  8  1  0  0  0  0
  4  3  2  0  0  0  0
  5  4  1  0  0  0  0
  6  5  2  0  0  0  0
  6  7  1  0  0  0  0
  7  2  2  0  0  0  0
  9  5  1  0  0  0  0
 10  6  1  0  0  0  0
 11 18  1  0  0  0  0
 11  7  1  0  0  0  0
 12 11  2  0  0  0  0
 13 12  1  0  0  0  0
 14 16  2  0  0  0  0
 14 12  1  0  0  0  0
 15 14  1  0  0  0  0
 16 17  1  0  0  0  0
 17 20  1  0  0  0  0
 17 18  2  0  0  0  0
 18 19  1  0  0  0  0
 21 22  1  0  0  0  0
 21 20  1  0  0  0  0
 22 23  1  0  0  0  0
 24 25  1  0  0  0  0
 24 22  2  0  0  0  0
 26 24  1  0  0  0  0
 27 26  1  0  0  0  0
 28 26  2  0  0  0  0
 28 30  1  0  0  0  0
 29 28  1  0  0  0  0
 30 21  2  0  0  0  0
 31 30  1  0  0  0  0
 31 16  1  0  0  0  0
 32 31  1  0  0  0  0
 33 34  1  0  0  0  0
 33 39  1  0  0  0  0
 34 40  1  0  0  0  0
 35 41  1  0  0  0  0
 35 34  2  0  0  0  0
 36 35  1  0  0  0  0
 37 36  2  0  0  0  0
 37 38  1  0  0  0  0
 38 33  2  0  0  0  0
 41 44  1  0  0  0  0
 42 41  1  0  0  0  0
 43 41  1  0  0  0  0
M  END
>  <minimizedAffinity>
-6.44166899

>  <minimizedRMSD>
1.07345855

$$$$
