REMARK  Name = 
REMARK  4 active torsions:
REMARK  status: ('A' for Active; 'I' for Inactive)
REMARK    1  A    between atoms: C_1  and  C_2
REMARK    2  A    between atoms: C_1  and  C_8
REMARK    3  A    between atoms: C_8  and  C_9
REMARK    4  A    between atoms: C_12  and  C_23
REMARK                            x       y       z     vdW  Elec       q    Type
REMARK                         _______ _______ _______ _____ _____    ______ ____
ROOT
ATOM      1  C   UNL     1      49.494  33.311  41.489  0.00  0.00    +0.000 A 
ATOM      2  C   UNL     1      48.970  32.687  40.306  0.00  0.00    +0.000 A 
ATOM      3  C   UNL     1      49.652  31.639  39.747  0.00  0.00    +0.000 A 
ATOM      4  C   UNL     1      50.882  31.213  40.394  0.00  0.00    +0.000 A 
ATOM      5  S   UNL     1      51.066  32.318  41.809  0.00  0.00    +0.000 S 
ATOM      6  H   UNL     1      48.052  33.110  39.944  0.00  0.00    +0.000 HD
ATOM      7  H   UNL     1      49.294  31.145  38.862  0.00  0.00    +0.000 HD
ENDROOT
BRANCH   4   8
ATOM      8  C   UNL     1      51.741  30.212  40.051  0.00  0.00    +0.000 A 
ATOM      9  C   UNL     1      51.292  28.911  39.996  0.00  0.00    +0.000 A 
ATOM     10  H   UNL     1      50.264  28.662  40.221  0.00  0.00    +0.000 HD
ATOM     11  C   UNL     1      52.167  27.873  39.645  0.00  0.00    +0.000 A 
ATOM     12  H   UNL     1      51.753  26.873  39.620  0.00  0.00    +0.000 HD
ATOM     13  C   UNL     1      53.495  28.093  39.343  0.00  0.00    +0.000 A 
ATOM     14  C   UNL     1      53.895  29.401  39.410  0.00  0.00    +0.000 A 
ATOM     15  C   UNL     1      53.066  30.422  39.748  0.00  0.00    +0.000 A 
ATOM     16  H   UNL     1      53.412  31.449  39.793  0.00  0.00    +0.000 HD
ATOM     17  S   UNL     1      55.597  29.771  39.033  0.00  0.00    +0.000 S 
ATOM     18  C   UNL     1      56.380  28.219  38.640  0.00  0.00    +0.000 A 
ATOM     19  C   UNL     1      57.708  28.232  38.310  0.00  0.00    +0.000 A 
ATOM     20  H   UNL     1      58.252  29.179  38.296  0.00  0.00    +0.000 HD
ATOM     21  C   UNL     1      58.382  27.071  37.994  0.00  0.00    +0.000 A 
ATOM     22  H   UNL     1      59.416  27.152  37.746  0.00  0.00    +0.000 HD
ATOM     23  C   UNL     1      57.669  25.899  38.021  0.00  0.00    +0.000 A 
ATOM     24  H   UNL     1      58.165  24.977  37.779  0.00  0.00    +0.000 HD
ATOM     25  C   UNL     1      56.334  25.946  38.360  0.00  0.00    +0.000 A 
ATOM     26  H   UNL     1      55.837  24.967  38.358  0.00  0.00    +0.000 HD
ATOM     27  C   UNL     1      55.617  27.078  38.684  0.00  0.00    +0.000 A 
ATOM     28  N   UNL     1      54.263  26.967  39.007  0.00  0.00    +0.000 N 
ATOM     29  H   UNL     1      53.839  26.019  38.991  0.00  0.00    +0.000 HD
ENDBRANCH   4   8
BRANCH   1  30
ATOM     30  C   UNL     1      49.119  34.384  42.346  0.00  0.00    +0.000 C 
ATOM     31  H   UNL     1      48.764  34.013  43.318  0.00  0.00    +0.000 HD
ATOM     32  H   UNL     1      50.035  34.997  42.560  0.00  0.00    +0.000 HD
BRANCH  30  33
ATOM     33  C   UNL     1      48.096  35.350  41.799  0.00  0.00    +0.000 C 
ATOM     34  H   UNL     1      48.234  36.345  42.306  0.00  0.00    +0.000 HD
ATOM     35  H   UNL     1      48.257  35.530  40.744  0.00  0.00    +0.000 HD
BRANCH  33  36
ATOM     36  C   UNL     1      46.767  34.859  42.099  0.00  0.00    +0.000 A 
ATOM     37  C   UNL     1      46.326  34.670  43.410  0.00  0.00    +0.000 A 
ATOM     38  C   UNL     1      45.035  34.194  43.624  0.00  0.00    +0.000 A 
ATOM     39  N   UNL     1      44.271  33.938  42.543  0.00  0.00    +0.000 NA
ATOM     40  C   UNL     1      44.715  34.127  41.295  0.00  0.00    +0.000 A 
ATOM     41  N   UNL     1      45.940  34.578  41.081  0.00  0.00    +0.000 NA
ATOM     42  H   UNL     1      47.039  34.914  44.182  0.00  0.00    +0.000 HD
ATOM     43  H   UNL     1      44.739  34.064  44.636  0.00  0.00    +0.000 HD
ATOM     44  H   UNL     1      44.039  33.897  40.468  0.00  0.00    +0.000 HD
ENDBRANCH  33  36
ENDBRANCH  30  33
ENDBRANCH   1  30
TORSDOF 4
