
 OpenBabel03252500093D

 44 48  0  0  0  0  0  0  0  0999 V2000
   45.7090   32.2680   39.8510 Cl  0  0  0  0  0  0  0  0  0  0  0  0
   46.9420   33.3840   39.3910 C   0  0  0  0  0  0  0  0  0  0  0  0
   47.5550   34.1940   40.3110 C   0  0  0  0  0  0  0  0  0  0  0  0
   48.5510   35.1000   39.9680 C   0  0  0  0  0  0  0  0  0  0  0  0
   48.8960   35.1430   38.6360 C   0  0  0  0  0  0  0  0  0  0  0  0
   48.2870   34.3350   37.7000 C   0  0  0  0  0  0  0  0  0  0  0  0
   47.3140   33.4550   38.0670 C   0  0  0  0  0  0  0  0  0  0  0  0
   49.0290   35.7380   40.7100 H   0  0  0  0  0  0  0  0  0  0  0  0
   49.6770   35.8590   38.3840 H   0  0  0  0  0  0  0  0  0  0  0  0
   48.6240   34.4390   36.6720 H   0  0  0  0  0  0  0  0  0  0  0  0
   46.7340   32.6460   37.0010 C   0  0  0  0  0  0  0  0  0  0  0  0
   45.5480   33.0780   36.4470 C   0  0  0  0  0  0  0  0  0  0  0  0
   45.0820   33.9840   36.8030 H   0  0  0  0  0  0  0  0  0  0  0  0
   44.9910   32.3250   35.4410 C   0  0  0  0  0  0  0  0  0  0  0  0
   44.0450   32.7250   35.0430 H   0  0  0  0  0  0  0  0  0  0  0  0
   45.5130   31.1570   34.9240 C   0  0  0  0  0  0  0  0  0  0  0  0
   46.6940   30.7800   35.5160 C   0  0  0  0  0  0  0  0  0  0  0  0
   47.2920   31.4830   36.5130 C   0  0  0  0  0  0  0  0  0  0  0  0
   48.2260   31.1430   36.9490 H   0  0  0  0  0  0  0  0  0  0  0  0
   47.4900   29.2920   34.9530 S   0  0  0  0  0  0  0  0  0  0  0  0
   46.4650   28.6220   33.6620 C   0  0  0  0  0  0  0  0  0  0  0  0
   46.8010   27.4820   33.0250 C   0  0  0  0  0  0  0  0  0  0  0  0
   47.7240   26.9510   33.3050 H   0  0  0  0  0  0  0  0  0  0  0  0
   46.0530   26.9010   32.0110 C   0  0  0  0  0  0  0  0  0  0  0  0
   46.2970   25.9880   31.4830 H   0  0  0  0  0  0  0  0  0  0  0  0
   44.8890   27.5770   31.6650 C   0  0  0  0  0  0  0  0  0  0  0  0
   44.2720   27.1670   30.8820 H   0  0  0  0  0  0  0  0  0  0  0  0
   44.5670   28.7370   32.3270 C   0  0  0  0  0  0  0  0  0  0  0  0
   43.6290   29.2010   31.9840 H   0  0  0  0  0  0  0  0  0  0  0  0
   45.3350   29.2870   33.3320 C   0  0  0  0  0  0  0  0  0  0  0  0
   44.8280   30.4850   33.8850 N   0  0  0  0  0  0  0  0  0  0  0  0
   43.9400   30.9160   33.5540 H   0  0  0  0  0  0  0  0  0  0  0  0
   47.3180   33.0860   43.8290 C   0  0  0  0  0  0  0  0  0  0  0  0
   46.3340   33.9450   44.3520 C   0  0  0  0  0  0  0  0  0  0  0  0
   45.7710   34.8820   43.4970 C   0  0  0  0  0  0  0  0  0  0  0  0
   46.1880   34.9350   42.2000 N   0  0  0  0  0  0  0  0  0  0  0  0
   47.1410   34.0970   41.7150 C   0  0  0  0  0  0  0  0  0  0  0  0
   47.7010   33.1750   42.5370 N   0  0  0  0  0  0  0  0  0  0  0  0
   47.7640   32.3530   44.4860 H   0  0  0  0  0  0  0  0  0  0  0  0
   46.0010   33.9040   45.3820 H   0  0  0  0  0  0  0  0  0  0  0  0
   44.7130   35.8500   43.9380 C   0  0  0  0  0  0  0  0  0  0  0  0
   45.1160   37.1380   43.7510 F   0  0  0  0  0  0  0  0  0  0  0  0
   43.5690   35.6290   43.1730 F   0  0  0  0  0  0  0  0  0  0  0  0
   44.4470   35.5800   45.2500 F   0  0  0  0  0  0  0  0  0  0  0  0
  2  1  1  0  0  0  0
  2  3  1  0  0  0  0
  3 37  1  0  0  0  0
  4  3  2  0  0  0  0
  4  8  1  0  0  0  0
  5  4  1  0  0  0  0
  6  7  1  0  0  0  0
  6  5  2  0  0  0  0
  7  2  2  0  0  0  0
  9  5  1  0  0  0  0
 10  6  1  0  0  0  0
 11  7  1  0  0  0  0
 12 13  1  0  0  0  0
 12 11  2  0  0  0  0
 14 12  1  0  0  0  0
 15 14  1  0  0  0  0
 16 14  2  0  0  0  0
 16 17  1  0  0  0  0
 17 18  2  0  0  0  0
 18 19  1  0  0  0  0
 18 11  1  0  0  0  0
 20 17  1  0  0  0  0
 21 20  1  0  0  0  0
 22 23  1  0  0  0  0
 22 21  2  0  0  0  0
 24 22  1  0  0  0  0
 25 24  1  0  0  0  0
 26 24  2  0  0  0  0
 26 28  1  0  0  0  0
 27 26  1  0  0  0  0
 28 30  2  0  0  0  0
 29 28  1  0  0  0  0
 30 21  1  0  0  0  0
 30 31  1  0  0  0  0
 31 16  1  0  0  0  0
 32 31  1  0  0  0  0
 33 34  1  0  0  0  0
 33 39  1  0  0  0  0
 34 40  1  0  0  0  0
 35 41  1  0  0  0  0
 35 34  2  0  0  0  0
 36 35  1  0  0  0  0
 37 36  2  0  0  0  0
 37 38  1  0  0  0  0
 38 33  2  0  0  0  0
 41 44  1  0  0  0  0
 42 41  1  0  0  0  0
 43 41  1  0  0  0  0
M  END
>  <minimizedAffinity>
-6.37490559

>  <minimizedRMSD>
1.32573414

$$$$
