REMARK  Name = 
REMARK  3 active torsions:
REMARK  status: ('A' for Active; 'I' for Inactive)
REMARK    1  A    between atoms: C_3  and  C_14
REMARK    2  A    between atoms: C_5  and  C_9
REMARK    3  A    between atoms: C_13  and  C_23
REMARK                            x       y       z     vdW  Elec       q    Type
REMARK                         _______ _______ _______ _____ _____    ______ ____
ROOT
ATOM      1 CL   UNL     1      45.114  32.306  39.735  0.00  0.00    +0.000 Cl
ATOM      2  C   UNL     1      46.415  33.180  39.014  0.00  0.00    +0.000 A 
ATOM      3  C   UNL     1      47.276  33.935  39.767  0.00  0.00    +0.000 A 
ATOM      4  C   UNL     1      48.332  34.648  39.212  0.00  0.00    +0.000 A 
ATOM      5  C   UNL     1      48.471  34.555  37.845  0.00  0.00    +0.000 A 
ATOM      6  C   UNL     1      47.612  33.800  37.076  0.00  0.00    +0.000 A 
ATOM      7  C   UNL     1      46.586  33.111  37.649  0.00  0.00    +0.000 A 
ATOM      8  H   UNL     1      49.008  35.244  39.823  0.00  0.00    +0.000 HD
ATOM      9  H   UNL     1      49.303  35.120  37.426  0.00  0.00    +0.000 HD
ATOM     10  H   UNL     1      47.800  33.787  36.005  0.00  0.00    +0.000 HD
ENDROOT
BRANCH   7  11
ATOM     11  C   UNL     1      45.736  32.343  36.747  0.00  0.00    +0.000 A 
ATOM     12  C   UNL     1      44.415  32.173  37.106  0.00  0.00    +0.000 A 
ATOM     13  H   UNL     1      44.045  32.601  38.026  0.00  0.00    +0.000 HD
ATOM     14  C   UNL     1      43.604  31.451  36.265  0.00  0.00    +0.000 A 
ATOM     15  H   UNL     1      42.562  31.353  36.612  0.00  0.00    +0.000 HD
ATOM     16  C   UNL     1      43.988  30.869  35.075  0.00  0.00    +0.000 A 
ATOM     17  C   UNL     1      45.312  31.073  34.773  0.00  0.00    +0.000 A 
ATOM     18  C   UNL     1      46.164  31.778  35.563  0.00  0.00    +0.000 A 
ATOM     19  H   UNL     1      47.203  31.912  35.280  0.00  0.00    +0.000 HD
ATOM     20  S   UNL     1      45.956  30.382  33.265  0.00  0.00    +0.000 S 
ATOM     21  C   UNL     1      44.606  29.535  32.474  0.00  0.00    +0.000 A 
ATOM     22  C   UNL     1      44.775  28.899  31.297  0.00  0.00    +0.000 A 
ATOM     23  H   UNL     1      45.764  28.900  30.812  0.00  0.00    +0.000 HD
ATOM     24  C   UNL     1      43.771  28.218  30.623  0.00  0.00    +0.000 A 
ATOM     25  H   UNL     1      43.877  27.700  29.680  0.00  0.00    +0.000 HD
ATOM     26  C   UNL     1      42.527  28.222  31.244  0.00  0.00    +0.000 A 
ATOM     27  H   UNL     1      41.713  27.707  30.760  0.00  0.00    +0.000 HD
ATOM     28  C   UNL     1      42.378  28.876  32.442  0.00  0.00    +0.000 A 
ATOM     29  H   UNL     1      41.359  28.824  32.856  0.00  0.00    +0.000 HD
ATOM     30  C   UNL     1      43.400  29.543  33.085  0.00  0.00    +0.000 A 
ATOM     31  N   UNL     1      43.040  30.151  34.309  0.00  0.00    +0.000 N 
ATOM     32  H   UNL     1      42.074  30.097  34.693  0.00  0.00    +0.000 HD
ENDBRANCH   7  11
BRANCH   3  37
ATOM     33  C   UNL     1      47.582  33.225  43.381  0.00  0.00    +0.000 A 
ATOM     34  C   UNL     1      46.658  34.123  43.946  0.00  0.00    +0.000 A 
ATOM     35  C   UNL     1      45.950  34.951  43.086  0.00  0.00    +0.000 A 
ATOM     36  N   UNL     1      46.174  34.864  41.744  0.00  0.00    +0.000 NA
ATOM     37  C   UNL     1      47.072  33.990  41.218  0.00  0.00    +0.000 A 
ATOM     38  N   UNL     1      47.772  33.174  42.045  0.00  0.00    +0.000 NA
ATOM     39  H   UNL     1      48.139  32.576  44.041  0.00  0.00    +0.000 HD
ATOM     40  H   UNL     1      46.479  34.193  45.012  0.00  0.00    +0.000 HD
BRANCH  35  41
ATOM     41  C   UNL     1      44.939  35.948  43.569  0.00  0.00    +0.000 C 
ATOM     42  F   UNL     1      45.264  37.210  43.173  0.00  0.00    +0.000 F 
ATOM     43  F   UNL     1      43.700  35.617  43.023  0.00  0.00    +0.000 F 
ATOM     44  F   UNL     1      44.885  35.835  44.929  0.00  0.00    +0.000 F 
ENDBRANCH  35  41
ENDBRANCH   3  37
TORSDOF 3
