
     RDKit          3D

 44 48  0  0  0  0  0  0  0  0999 V2000
   48.0955   35.3497   41.7990 C   0  0  0  0  0  0  0  0  0  0  0  0
   46.7669   34.8586   42.0993 C   0  0  0  0  0  0  0  0  0  0  0  0
   46.3261   34.6697   43.4098 C   0  0  0  0  0  0  0  0  0  0  0  0
   45.0354   34.1937   43.6238 C   0  0  0  0  0  0  0  0  0  0  0  0
   44.2708   33.9375   42.5433 N   0  0  0  0  0  0  0  0  0  0  0  0
   44.7155   34.1266   41.2952 C   0  0  0  0  0  0  0  0  0  0  0  0
   45.9400   34.5783   41.0808 N   0  0  0  0  0  0  0  0  0  0  0  0
   49.1189   34.3842   42.3463 C   0  0  0  0  0  0  0  0  0  0  0  0
   49.4941   33.3109   41.4888 C   0  0  0  0  0  0  0  0  0  0  0  0
   48.9697   32.6872   40.3060 C   0  0  0  0  0  0  0  0  0  0  0  0
   49.6520   31.6386   39.7471 C   0  0  0  0  0  0  0  0  0  0  0  0
   50.8817   31.2130   40.3935 C   0  0  0  0  0  0  0  0  0  0  0  0
   51.0664   32.3181   41.8091 S   0  0  0  0  0  0  0  0  0  0  0  0
   48.2345   36.3453   42.3058 H   0  0  0  0  0  0  0  0  0  0  0  0
   48.2565   35.5303   40.7441 H   0  0  0  0  0  0  0  0  0  0  0  0
   47.0394   34.9138   44.1819 H   0  0  0  0  0  0  0  0  0  0  0  0
   44.7394   34.0639   44.6362 H   0  0  0  0  0  0  0  0  0  0  0  0
   44.0388   33.8971   40.4683 H   0  0  0  0  0  0  0  0  0  0  0  0
   48.7638   34.0134   43.3182 H   0  0  0  0  0  0  0  0  0  0  0  0
   50.0347   34.9973   42.5602 H   0  0  0  0  0  0  0  0  0  0  0  0
   48.0521   33.1096   39.9435 H   0  0  0  0  0  0  0  0  0  0  0  0
   49.2935   31.1455   38.8618 H   0  0  0  0  0  0  0  0  0  0  0  0
   51.7407   30.2120   40.0512 C   0  0  0  0  0  0  0  0  0  0  0  0
   51.9812   29.1813   40.9330 C   0  0  0  0  0  0  0  0  0  0  0  0
   51.4992   29.1473   41.9011 H   0  0  0  0  0  0  0  0  0  0  0  0
   52.8628   28.1463   40.5913 C   0  0  0  0  0  0  0  0  0  0  0  0
   53.0085   27.3667   41.3279 H   0  0  0  0  0  0  0  0  0  0  0  0
   53.5229   28.1041   39.3812 C   0  0  0  0  0  0  0  0  0  0  0  0
   53.2530   29.1487   38.5375 C   0  0  0  0  0  0  0  0  0  0  0  0
   52.4034   30.1615   38.8464 C   0  0  0  0  0  0  0  0  0  0  0  0
   52.2093   30.9764   38.1569 H   0  0  0  0  0  0  0  0  0  0  0  0
   54.0661   29.1694   36.9517 S   0  0  0  0  0  0  0  0  0  0  0  0
   55.0905   27.7123   36.8867 C   0  0  0  0  0  0  0  0  0  0  0  0
   55.8294   27.4937   35.7552 C   0  0  0  0  0  0  0  0  0  0  0  0
   55.7763   28.2056   34.9297 H   0  0  0  0  0  0  0  0  0  0  0  0
   56.6452   26.3886   35.6316 C   0  0  0  0  0  0  0  0  0  0  0  0
   57.1932   26.2789   34.7241 H   0  0  0  0  0  0  0  0  0  0  0  0
   56.6889   25.5134   36.6879 C   0  0  0  0  0  0  0  0  0  0  0  0
   57.3149   24.6422   36.6231 H   0  0  0  0  0  0  0  0  0  0  0  0
   55.9234   25.7846   37.8019 C   0  0  0  0  0  0  0  0  0  0  0  0
   56.0149   25.0365   38.6010 H   0  0  0  0  0  0  0  0  0  0  0  0
   55.0942   26.8729   37.9733 C   0  0  0  0  0  0  0  0  0  0  0  0
   54.3783   27.0124   39.1638 N   0  0  0  0  0  0  0  0  0  0  0  0
   54.4988   26.2783   39.8891 H   0  0  0  0  0  0  0  0  0  0  0  0
  1  2  1  0
  1  8  1  0
  2  3  2  0
  3  4  1  0
  5  4  2  0
  6  5  1  0
  7  6  2  0
  7  2  1  0
  9 13  1  0
  9  8  1  0
 10  9  2  0
 11 10  1  0
 11 12  2  0
 12 13  1  0
  1 14  1  0
  1 15  1  0
  3 16  1  0
  4 17  1  0
  6 18  1  0
  8 19  1  0
  8 20  1  0
 10 21  1  0
 11 22  1  0
 23 24  2  0
 24 25  1  0
 24 26  1  0
 26 27  1  0
 26 28  2  0
 28 29  1  0
 29 30  2  0
 30 31  1  0
 29 32  1  0
 32 33  1  0
 33 34  2  0
 34 35  1  0
 34 36  1  0
 36 37  1  0
 36 38  2  0
 38 39  1  0
 38 40  1  0
 40 41  1  0
 40 42  2  0
 42 43  1  0
 43 44  1  0
 30 23  1  0
 42 33  1  0
 43 28  1  0
 12 23  1  0
M  ISO  8  14   8  15   8  16  14  17  14  18  14  19   8  20   8  21  14
M  ISO  8  22  14  25  16  27  16  31  16  35  16  37  16  39  16  41  16
M  ISO  1  44   5
M  END
>  <DihAtoms>  (1) 
10,11,22,23

>  <DihDeg>  (1) 
-179.98896010917167

$$$$
