REMARK  Name = 
REMARK  4 active torsions:
REMARK  status: ('A' for Active; 'I' for Inactive)
REMARK    1  A    between atoms: C_1  and  C_2
REMARK    2  A    between atoms: C_1  and  C_8
REMARK    3  A    between atoms: C_8  and  C_9
REMARK    4  A    between atoms: C_12  and  C_23
REMARK                            x       y       z     vdW  Elec       q    Type
REMARK                         _______ _______ _______ _____ _____    ______ ____
ROOT
ATOM      1  C   UNL     1      49.494  33.311  41.489  0.00  0.00    +0.000 A 
ATOM      2  C   UNL     1      48.970  32.687  40.306  0.00  0.00    +0.000 A 
ATOM      3  C   UNL     1      49.652  31.639  39.747  0.00  0.00    +0.000 A 
ATOM      4  C   UNL     1      50.882  31.213  40.394  0.00  0.00    +0.000 A 
ATOM      5  S   UNL     1      51.066  32.318  41.809  0.00  0.00    +0.000 S 
ATOM      6  H   UNL     1      48.052  33.110  39.944  0.00  0.00    +0.000 HD
ATOM      7  H   UNL     1      49.294  31.145  38.862  0.00  0.00    +0.000 HD
ENDROOT
BRANCH   4   8
ATOM      8  C   UNL     1      51.741  30.212  40.051  0.00  0.00    +0.000 A 
ATOM      9  C   UNL     1      52.222  29.359  41.020  0.00  0.00    +0.000 A 
ATOM     10  H   UNL     1      51.932  29.466  42.056  0.00  0.00    +0.000 HD
ATOM     11  C   UNL     1      53.106  28.326  40.679  0.00  0.00    +0.000 A 
ATOM     12  H   UNL     1      53.448  27.690  41.486  0.00  0.00    +0.000 HD
ATOM     13  C   UNL     1      53.533  28.111  39.385  0.00  0.00    +0.000 A 
ATOM     14  C   UNL     1      53.028  28.983  38.457  0.00  0.00    +0.000 A 
ATOM     15  C   UNL     1      52.171  29.991  38.763  0.00  0.00    +0.000 A 
ATOM     16  H   UNL     1      51.788  30.667  38.006  0.00  0.00    +0.000 HD
ATOM     17  S   UNL     1      53.530  28.775  36.760  0.00  0.00    +0.000 S 
ATOM     18  C   UNL     1      54.639  27.380  36.725  0.00  0.00    +0.000 A 
ATOM     19  C   UNL     1      55.172  27.010  35.519  0.00  0.00    +0.000 A 
ATOM     20  H   UNL     1      54.910  27.568  34.619  0.00  0.00    +0.000 HD
ATOM     21  C   UNL     1      56.037  25.941  35.413  0.00  0.00    +0.000 A 
ATOM     22  H   UNL     1      56.415  25.706  34.445  0.00  0.00    +0.000 HD
ATOM     23  C   UNL     1      56.346  25.261  36.565  0.00  0.00    +0.000 A 
ATOM     24  H   UNL     1      57.017  24.423  36.516  0.00  0.00    +0.000 HD
ATOM     25  C   UNL     1      55.780  25.679  37.751  0.00  0.00    +0.000 A 
ATOM     26  H   UNL     1      56.077  25.082  38.623  0.00  0.00    +0.000 HD
ATOM     27  C   UNL     1      54.911  26.738  37.908  0.00  0.00    +0.000 A 
ATOM     28  N   UNL     1      54.419  27.042  39.178  0.00  0.00    +0.000 N 
ATOM     29  H   UNL     1      54.730  26.448  39.972  0.00  0.00    +0.000 HD
ENDBRANCH   4   8
BRANCH   1  30
ATOM     30  C   UNL     1      49.119  34.384  42.346  0.00  0.00    +0.000 C 
ATOM     31  H   UNL     1      48.764  34.013  43.318  0.00  0.00    +0.000 HD
ATOM     32  H   UNL     1      50.035  34.997  42.560  0.00  0.00    +0.000 HD
BRANCH  30  33
ATOM     33  C   UNL     1      48.096  35.350  41.799  0.00  0.00    +0.000 C 
ATOM     34  H   UNL     1      48.234  36.345  42.306  0.00  0.00    +0.000 HD
ATOM     35  H   UNL     1      48.257  35.530  40.744  0.00  0.00    +0.000 HD
BRANCH  33  36
ATOM     36  C   UNL     1      46.767  34.859  42.099  0.00  0.00    +0.000 A 
ATOM     37  C   UNL     1      46.326  34.670  43.410  0.00  0.00    +0.000 A 
ATOM     38  C   UNL     1      45.035  34.194  43.624  0.00  0.00    +0.000 A 
ATOM     39  N   UNL     1      44.271  33.938  42.543  0.00  0.00    +0.000 NA
ATOM     40  C   UNL     1      44.715  34.127  41.295  0.00  0.00    +0.000 A 
ATOM     41  N   UNL     1      45.940  34.578  41.081  0.00  0.00    +0.000 NA
ATOM     42  H   UNL     1      47.039  34.914  44.182  0.00  0.00    +0.000 HD
ATOM     43  H   UNL     1      44.739  34.064  44.636  0.00  0.00    +0.000 HD
ATOM     44  H   UNL     1      44.039  33.897  40.468  0.00  0.00    +0.000 HD
ENDBRANCH  33  36
ENDBRANCH  30  33
ENDBRANCH   1  30
TORSDOF 4
