
 OpenBabel03242512033D

 47 50  0  0  1  0  0  0  0  0999 V2000
   37.6150   31.3150   40.6080 C   0  0  2  0  0  0  0  0  0  0  0  0
   37.5820   32.7610   40.2140 C   0  0  0  0  0  0  0  0  0  0  0  0
   38.8700   33.2260   39.6520 C   0  0  0  0  0  0  0  0  0  0  0  0
   40.0290   32.9890   40.5930 C   0  0  0  0  0  0  0  0  0  0  0  0
   39.9760   31.6580   41.2940 C   0  0  0  0  0  0  0  0  0  0  0  0
   38.9690   30.7130   40.6840 C   0  0  1  0  0  0  0  0  0  0  0  0
   37.1570   31.2730   41.6440 H   0  0  0  0  0  0  0  0  0  0  0  0
   37.3360   33.4190   41.0690 H   0  0  0  0  0  0  0  0  0  0  0  0
   36.7850   32.9200   39.4720 H   0  0  0  0  0  0  0  0  0  0  0  0
   38.7950   34.3350   39.4910 H   0  0  0  0  0  0  0  0  0  0  0  0
   39.0270   32.7640   38.6570 H   0  0  0  0  0  0  0  0  0  0  0  0
   39.9490   33.7840   41.3910 H   0  0  0  0  0  0  0  0  0  0  0  0
   40.9880   33.1980   40.0870 H   0  0  0  0  0  0  0  0  0  0  0  0
   39.7620   31.7480   42.3670 H   0  0  0  0  0  0  0  0  0  0  0  0
   40.9810   31.1810   41.1640 H   0  0  0  0  0  0  0  0  0  0  0  0
   39.4210   30.3700   39.7440 H   0  0  0  0  0  0  0  0  0  0  0  0
   36.7250   30.4750   39.7860 C   0  0  0  0  0  0  0  0  0  0  0  0
   35.6360   29.9820   40.4830 C   0  0  0  0  0  0  0  0  0  0  0  0
   34.6970   29.1690   39.8270 C   0  0  0  0  0  0  0  0  0  0  0  0
   34.9550   28.9180   38.4740 N   0  0  0  0  0  0  0  0  0  0  0  0
   36.0360   29.4240   37.8400 C   0  0  0  0  0  0  0  0  0  0  0  0
   36.9070   30.1980   38.5100 N   0  0  0  0  0  0  0  0  0  0  0  0
   35.2690   30.0450   41.4970 H   0  0  0  0  0  0  0  0  0  0  0  0
   33.8140   28.7030   40.1760 H   0  0  0  0  0  0  0  0  0  0  0  0
   36.1870   29.1990   36.8020 H   0  0  0  0  0  0  0  0  0  0  0  0
   38.8880   29.4980   41.5730 C   0  0  2  0  0  0  0  0  0  0  0  0
   38.6420   29.7240   43.0500 C   0  0  0  0  0  0  0  0  0  0  0  0
   39.9560   29.2280   42.5760 C   0  0  1  0  0  0  0  0  0  0  0  0
   38.2600   28.6680   41.1740 H   0  0  0  0  0  0  0  0  0  0  0  0
   38.0470   28.9840   43.6340 H   0  0  0  0  0  0  0  0  0  0  0  0
   38.6160   30.7300   43.4680 H   0  0  0  0  0  0  0  0  0  0  0  0
   40.8140   29.9300   42.5190 H   0  0  0  0  0  0  0  0  0  0  0  0
   40.3500   27.7770   42.6090 C   0  0  0  0  0  0  0  0  0  0  0  0
   40.2810   27.3900   41.5720 H   0  0  0  0  0  0  0  0  0  0  0  0
   41.4000   27.7280   42.9150 H   0  0  0  0  0  0  0  0  0  0  0  0
   39.5070   26.9470   43.5340 C   0  0  0  0  0  0  0  0  0  0  0  0
   40.1460   26.4390   44.2920 H   0  0  0  0  0  0  0  0  0  0  0  0
   38.6870   27.4990   44.0000 H   0  0  0  0  0  0  0  0  0  0  0  0
   36.5030   27.1630   43.2500 Cl  0  0  0  0  0  0  0  0  0  0  0  0
   37.5440   25.9120   42.5710 C   0  0  0  0  0  0  0  0  0  0  0  0
   38.9170   25.8480   42.7230 C   0  0  0  0  0  0  0  0  0  0  0  0
   39.5910   24.8020   42.1290 C   0  0  0  0  0  0  0  0  0  0  0  0
   40.6620   24.7930   42.2760 H   0  0  0  0  0  0  0  0  0  0  0  0
   38.8770   23.8710   41.4120 C   0  0  0  0  0  0  0  0  0  0  0  0
   39.4430   23.0640   40.9600 H   0  0  0  0  0  0  0  0  0  0  0  0
   37.5070   23.9120   41.2450 C   0  0  0  0  0  3  0  0  0  0  0  0
   36.8380   24.9760   41.8520 C   0  0  0  0  0  3  0  0  0  0  0  0
  1  6  1  0  0  0  0
  1  7  1  1  0  0  0
  2  1  1  0  0  0  0
  2  8  1  0  0  0  0
  3  2  1  0  0  0  0
  3  4  1  0  0  0  0
  4  5  1  0  0  0  0
  4 12  1  0  0  0  0
  5 14  1  0  0  0  0
  6 16  1  6  0  0  0
  6  5  1  0  0  0  0
  6 26  1  0  0  0  0
  9  2  1  0  0  0  0
 10  3  1  0  0  0  0
 11  3  1  0  0  0  0
 13  4  1  0  0  0  0
 15  5  1  0  0  0  0
 17 18  1  0  0  0  0
 17  1  1  0  0  0  0
 18 23  1  0  0  0  0
 19 24  1  0  0  0  0
 19 18  2  0  0  0  0
 20 19  1  0  0  0  0
 21 20  2  0  0  0  0
 21 22  1  0  0  0  0
 22 17  2  0  0  0  0
 25 21  1  0  0  0  0
 26 29  1  6  0  0  0
 26 28  1  0  0  0  0
 26 27  1  0  0  0  0
 27 31  1  0  0  0  0
 27 30  1  0  0  0  0
 28 32  1  1  0  0  0
 28 33  1  0  0  0  0
 28 27  1  0  0  0  0
 33 35  1  0  0  0  0
 33 36  1  0  0  0  0
 34 33  1  0  0  0  0
 36 38  1  0  0  0  0
 36 37  1  0  0  0  0
 40 41  1  0  0  0  0
 40 39  1  0  0  0  0
 41 36  1  0  0  0  0
 42 43  1  0  0  0  0
 42 41  2  0  0  0  0
 44 42  1  0  0  0  0
 45 44  1  0  0  0  0
 46 44  2  0  0  0  0
 46 47  1  0  0  0  0
 47 40  2  0  0  0  0
M  END
>  <minimizedAffinity>
-5.98991156

$$$$

 OpenBabel03242512033D

 47 50  0  0  1  0  0  0  0  0999 V2000
   39.3800   26.3230   41.3350 C   0  0  2  0  0  0  0  0  0  0  0  0
   40.6050   25.4590   41.3520 C   0  0  0  0  0  0  0  0  0  0  0  0
   40.9590   25.0010   42.7140 C   0  0  0  0  0  0  0  0  0  0  0  0
   41.1410   26.1500   43.6800 C   0  0  0  0  0  0  0  0  0  0  0  0
   40.1190   27.2430   43.5180 C   0  0  0  0  0  0  0  0  0  0  0  0
   38.9480   26.8300   42.6610 C   0  0  1  0  0  0  0  0  0  0  0  0
   39.6470   27.2160   40.6910 H   0  0  0  0  0  0  0  0  0  0  0  0
   41.4880   25.9830   40.9370 H   0  0  0  0  0  0  0  0  0  0  0  0
   40.4440   24.5830   40.7060 H   0  0  0  0  0  0  0  0  0  0  0  0
   41.9410   24.4610   42.6510 H   0  0  0  0  0  0  0  0  0  0  0  0
   40.2070   24.2660   43.0630 H   0  0  0  0  0  0  0  0  0  0  0  0
   42.1480   26.6020   43.4370 H   0  0  0  0  0  0  0  0  0  0  0  0
   41.2470   25.7750   44.7130 H   0  0  0  0  0  0  0  0  0  0  0  0
   40.5430   28.1670   43.1050 H   0  0  0  0  0  0  0  0  0  0  0  0
   39.7090   27.4580   44.5390 H   0  0  0  0  0  0  0  0  0  0  0  0
   38.3490   26.1550   43.2870 H   0  0  0  0  0  0  0  0  0  0  0  0
   38.2450   25.6970   40.6300 C   0  0  0  0  0  0  0  0  0  0  0  0
   37.7080   24.6160   41.3070 C   0  0  0  0  0  0  0  0  0  0  0  0
   36.6160   23.9220   40.7590 C   0  0  0  0  0  0  0  0  0  0  0  0
   36.1500   24.4030   39.5290 N   0  0  0  0  0  0  0  0  0  0  0  0
   36.7120   25.4640   38.9090 C   0  0  0  0  0  0  0  0  0  0  0  0
   37.7560   26.0960   39.4730 N   0  0  0  0  0  0  0  0  0  0  0  0
   37.9160   24.0950   42.2290 H   0  0  0  0  0  0  0  0  0  0  0  0
   36.0720   23.0870   41.1130 H   0  0  0  0  0  0  0  0  0  0  0  0
   36.3180   25.7900   37.9670 H   0  0  0  0  0  0  0  0  0  0  0  0
   38.0950   28.0520   42.4350 C   0  0  2  0  0  0  0  0  0  0  0  0
   37.2980   28.5780   43.6110 C   0  0  0  0  0  0  0  0  0  0  0  0
   36.6090   27.9450   42.4610 C   0  0  1  0  0  0  0  0  0  0  0  0
   38.5960   28.8760   41.8770 H   0  0  0  0  0  0  0  0  0  0  0  0
   37.1210   29.6740   43.7150 H   0  0  0  0  0  0  0  0  0  0  0  0
   37.2720   28.0400   44.5580 H   0  0  0  0  0  0  0  0  0  0  0  0
   36.2330   26.9050   42.5560 H   0  0  0  0  0  0  0  0  0  0  0  0
   35.9640   28.7310   41.3520 C   0  0  0  0  0  0  0  0  0  0  0  0
   36.0930   28.1530   40.4150 H   0  0  0  0  0  0  0  0  0  0  0  0
   34.8930   28.7840   41.5660 H   0  0  0  0  0  0  0  0  0  0  0  0
   36.5250   30.1150   41.1930 C   0  0  0  0  0  0  0  0  0  0  0  0
   35.7610   30.8780   41.4690 H   0  0  0  0  0  0  0  0  0  0  0  0
   37.4670   30.2740   41.7240 H   0  0  0  0  0  0  0  0  0  0  0  0
   38.0880   32.6380   40.6090 Cl  0  0  0  0  0  0  0  0  0  0  0  0
   37.4890   31.4680   39.4350 C   0  0  0  0  0  0  0  0  0  0  0  0
   36.7760   30.3230   39.7410 C   0  0  0  0  0  0  0  0  0  0  0  0
   36.3750   29.5070   38.7050 C   0  0  0  0  0  0  0  0  0  0  0  0
   35.8210   28.6240   38.9930 H   0  0  0  0  0  0  0  0  0  0  0  0
   36.6990   29.8600   37.4160 C   0  0  0  0  0  0  0  0  0  0  0  0
   36.3660   29.1920   36.6290 H   0  0  0  0  0  0  0  0  0  0  0  0
   37.4080   30.9950   37.0830 C   0  0  0  0  0  3  0  0  0  0  0  0
   37.8070   31.8130   38.1420 C   0  0  0  0  0  3  0  0  0  0  0  0
  1  7  1  6  0  0  0
  1  2  1  0  0  0  0
  1  6  1  0  0  0  0
  2  3  1  0  0  0  0
  3 11  1  0  0  0  0
  3  4  1  0  0  0  0
  4 13  1  0  0  0  0
  5  4  1  0  0  0  0
  5 15  1  0  0  0  0
  6 16  1  1  0  0  0
  6  5  1  0  0  0  0
  8  2  1  0  0  0  0
  9  2  1  0  0  0  0
 10  3  1  0  0  0  0
 12  4  1  0  0  0  0
 14  5  1  0  0  0  0
 17 18  1  0  0  0  0
 17  1  1  0  0  0  0
 18 23  1  0  0  0  0
 19 24  1  0  0  0  0
 19 18  2  0  0  0  0
 20 19  1  0  0  0  0
 21 22  1  0  0  0  0
 21 20  2  0  0  0  0
 22 17  2  0  0  0  0
 25 21  1  0  0  0  0
 26 29  1  6  0  0  0
 26 28  1  0  0  0  0
 26  6  1  0  0  0  0
 26 27  1  0  0  0  0
 27 30  1  0  0  0  0
 27 31  1  0  0  0  0
 28 32  1  1  0  0  0
 28 27  1  0  0  0  0
 33 35  1  0  0  0  0
 33 28  1  0  0  0  0
 34 33  1  0  0  0  0
 36 33  1  0  0  0  0
 36 37  1  0  0  0  0
 36 38  1  0  0  0  0
 40 41  1  0  0  0  0
 40 39  1  0  0  0  0
 41 36  1  0  0  0  0
 42 43  1  0  0  0  0
 42 41  2  0  0  0  0
 44 42  1  0  0  0  0
 45 44  1  0  0  0  0
 46 44  2  0  0  0  0
 46 47  1  0  0  0  0
 47 40  2  0  0  0  0
M  END
>  <minimizedAffinity>
-5.80227423

$$$$

 OpenBabel03242512033D

 47 50  0  0  1  0  0  0  0  0999 V2000
   38.1690   29.9310   38.7040 C   0  0  2  0  0  0  0  0  0  0  0  0
   38.2490   30.1940   37.2300 C   0  0  0  0  0  0  0  0  0  0  0  0
   36.9220   30.1740   36.5760 C   0  0  0  0  0  0  0  0  0  0  0  0
   36.1800   28.8790   36.8150 C   0  0  0  0  0  0  0  0  0  0  0  0
   36.3100   28.3590   38.2210 C   0  0  0  0  0  0  0  0  0  0  0  0
   36.8740   29.3820   39.1760 C   0  0  1  0  0  0  0  0  0  0  0  0
   38.9720   29.1600   38.9190 H   0  0  0  0  0  0  0  0  0  0  0  0
   38.8870   29.4530   36.7100 H   0  0  0  0  0  0  0  0  0  0  0  0
   38.7230   31.1720   37.0590 H   0  0  0  0  0  0  0  0  0  0  0  0
   37.0820   30.2660   35.4680 H   0  0  0  0  0  0  0  0  0  0  0  0
   36.3410   31.0630   36.8930 H   0  0  0  0  0  0  0  0  0  0  0  0
   36.6620   28.1160   36.1360 H   0  0  0  0  0  0  0  0  0  0  0  0
   35.1400   28.9550   36.4520 H   0  0  0  0  0  0  0  0  0  0  0  0
   36.9210   27.4490   38.2860 H   0  0  0  0  0  0  0  0  0  0  0  0
   35.2740   28.1250   38.5780 H   0  0  0  0  0  0  0  0  0  0  0  0
   36.0590   30.0970   39.3550 H   0  0  0  0  0  0  0  0  0  0  0  0
   38.5600   31.0970   39.5180 C   0  0  0  0  0  0  0  0  0  0  0  0
   37.6550   32.1410   39.4510 C   0  0  0  0  0  0  0  0  0  0  0  0
   37.8920   33.3180   40.1810 C   0  0  0  0  0  0  0  0  0  0  0  0
   39.0700   33.3320   40.9400 N   0  0  0  0  0  0  0  0  0  0  0  0
   39.9210   32.2830   40.9690 C   0  0  0  0  0  0  0  0  0  0  0  0
   39.6510   31.1770   40.2540 N   0  0  0  0  0  0  0  0  0  0  0  0
   36.7240   32.3310   38.9380 H   0  0  0  0  0  0  0  0  0  0  0  0
   37.3340   34.2120   40.2630 H   0  0  0  0  0  0  0  0  0  0  0  0
   40.8100   32.3470   41.5660 H   0  0  0  0  0  0  0  0  0  0  0  0
   37.1150   28.6910   40.4940 C   0  0  2  0  0  0  0  0  0  0  0  0
   35.9160   28.4390   41.3840 C   0  0  0  0  0  0  0  0  0  0  0  0
   36.9430   29.4340   41.7740 C   0  0  1  0  0  0  0  0  0  0  0  0
   37.7810   27.8000   40.4400 H   0  0  0  0  0  0  0  0  0  0  0  0
   35.8830   27.5270   42.0250 H   0  0  0  0  0  0  0  0  0  0  0  0
   34.9310   28.8230   41.1220 H   0  0  0  0  0  0  0  0  0  0  0  0
   36.7310   30.5160   41.6420 H   0  0  0  0  0  0  0  0  0  0  0  0
   38.0460   29.1400   42.7540 C   0  0  0  0  0  0  0  0  0  0  0  0
   38.9860   29.0360   42.1750 H   0  0  0  0  0  0  0  0  0  0  0  0
   38.1500   30.0140   43.4040 H   0  0  0  0  0  0  0  0  0  0  0  0
   37.8020   27.9110   43.5810 C   0  0  0  0  0  0  0  0  0  0  0  0
   37.8290   28.1610   44.6670 H   0  0  0  0  0  0  0  0  0  0  0  0
   36.8900   27.3720   43.3130 H   0  0  0  0  0  0  0  0  0  0  0  0
   37.0120   25.2870   42.3010 Cl  0  0  0  0  0  0  0  0  0  0  0  0
   38.6340   25.7870   42.7780 C   0  0  0  0  0  0  0  0  0  0  0  0
   38.9560   26.9980   43.3620 C   0  0  0  0  0  0  0  0  0  0  0  0
   40.2760   27.2390   43.6800 C   0  0  0  0  0  0  0  0  0  0  0  0
   40.4790   28.1990   44.1350 H   0  0  0  0  0  0  0  0  0  0  0  0
   41.2140   26.2730   43.4030 C   0  0  0  0  0  0  0  0  0  0  0  0
   42.2410   26.5000   43.6680 H   0  0  0  0  0  0  0  0  0  0  0  0
   40.9200   25.0570   42.8210 C   0  0  0  0  0  3  0  0  0  0  0  0
   39.5800   24.8260   42.5060 C   0  0  0  0  0  3  0  0  0  0  0  0
  1  7  1  1  0  0  0
  1  6  1  0  0  0  0
  1 17  1  0  0  0  0
  2  1  1  0  0  0  0
  3  4  1  0  0  0  0
  3 11  1  0  0  0  0
  3  2  1  0  0  0  0
  4  5  1  0  0  0  0
  5 14  1  0  0  0  0
  5 15  1  0  0  0  0
  5  6  1  0  0  0  0
  6 16  1  1  0  0  0
  6 26  1  0  0  0  0
  8  2  1  0  0  0  0
  9  2  1  0  0  0  0
 10  3  1  0  0  0  0
 12  4  1  0  0  0  0
 13  4  1  0  0  0  0
 17 22  1  0  0  0  0
 18 17  2  0  0  0  0
 18 19  1  0  0  0  0
 19 24  1  0  0  0  0
 19 20  2  0  0  0  0
 20 21  1  0  0  0  0
 21 25  1  0  0  0  0
 22 21  2  0  0  0  0
 23 18  1  0  0  0  0
 26 29  1  6  0  0  0
 26 27  1  0  0  0  0
 26 28  1  0  0  0  0
 27 28  1  0  0  0  0
 27 30  1  0  0  0  0
 28 32  1  6  0  0  0
 28 33  1  0  0  0  0
 31 27  1  0  0  0  0
 33 35  1  0  0  0  0
 33 36  1  0  0  0  0
 34 33  1  0  0  0  0
 36 37  1  0  0  0  0
 38 36  1  0  0  0  0
 39 40  1  0  0  0  0
 40 41  1  0  0  0  0
 41 36  1  0  0  0  0
 41 42  2  0  0  0  0
 42 43  1  0  0  0  0
 44 45  1  0  0  0  0
 44 42  1  0  0  0  0
 46 44  2  0  0  0  0
 47 40  2  0  0  0  0
 47 46  1  0  0  0  0
M  END
>  <minimizedAffinity>
-5.77076149

$$$$

 OpenBabel03242512033D

 47 50  0  0  1  0  0  0  0  0999 V2000
   37.1360   29.6600   37.8930 C   0  0  2  0  0  0  0  0  0  0  0  0
   37.1960   30.9100   37.0670 C   0  0  0  0  0  0  0  0  0  0  0  0
   37.8480   32.0320   37.7790 C   0  0  0  0  0  0  0  0  0  0  0  0
   37.1860   32.3370   39.1030 C   0  0  0  0  0  0  0  0  0  0  0  0
   36.7900   31.1090   39.8790 C   0  0  0  0  0  0  0  0  0  0  0  0
   37.4160   29.8470   39.3380 C   0  0  1  0  0  0  0  0  0  0  0  0
   36.0730   29.2810   37.7910 H   0  0  0  0  0  0  0  0  0  0  0  0
   36.1900   31.2530   36.7570 H   0  0  0  0  0  0  0  0  0  0  0  0
   37.7440   30.7060   36.1350 H   0  0  0  0  0  0  0  0  0  0  0  0
   37.7510   32.9490   37.1390 H   0  0  0  0  0  0  0  0  0  0  0  0
   38.9310   31.8230   37.8830 H   0  0  0  0  0  0  0  0  0  0  0  0
   36.2320   32.8890   38.8520 H   0  0  0  0  0  0  0  0  0  0  0  0
   37.7840   33.0650   39.6780 H   0  0  0  0  0  0  0  0  0  0  0  0
   35.7030   30.9650   39.9270 H   0  0  0  0  0  0  0  0  0  0  0  0
   37.1840   31.2410   40.9190 H   0  0  0  0  0  0  0  0  0  0  0  0
   38.4700   29.8870   39.6450 H   0  0  0  0  0  0  0  0  0  0  0  0
   37.9630   28.5690   37.3460 C   0  0  0  0  0  0  0  0  0  0  0  0
   39.3220   28.7840   37.4940 C   0  0  0  0  0  0  0  0  0  0  0  0
   40.2350   27.8250   37.0240 C   0  0  0  0  0  0  0  0  0  0  0  0
   39.6690   26.6930   36.4250 N   0  0  0  0  0  0  0  0  0  0  0  0
   38.3320   26.5330   36.3050 C   0  0  0  0  0  0  0  0  0  0  0  0
   37.4970   27.4790   36.7700 N   0  0  0  0  0  0  0  0  0  0  0  0
   39.9450   29.5650   37.9030 H   0  0  0  0  0  0  0  0  0  0  0  0
   41.2920   27.8020   37.0410 H   0  0  0  0  0  0  0  0  0  0  0  0
   37.9500   25.6470   35.8360 H   0  0  0  0  0  0  0  0  0  0  0  0
   36.8110   28.6840   40.0820 C   0  0  2  0  0  0  0  0  0  0  0  0
   35.3130   28.6960   40.3070 C   0  0  0  0  0  0  0  0  0  0  0  0
   36.2440   28.8770   41.4460 C   0  0  1  0  0  0  0  0  0  0  0  0
   37.1680   27.6810   39.7520 H   0  0  0  0  0  0  0  0  0  0  0  0
   34.7450   27.7380   40.3160 H   0  0  0  0  0  0  0  0  0  0  0  0
   34.7100   29.5580   40.0220 H   0  0  0  0  0  0  0  0  0  0  0  0
   36.4060   29.8940   41.8610 H   0  0  0  0  0  0  0  0  0  0  0  0
   36.6260   27.7640   42.3830 C   0  0  0  0  0  0  0  0  0  0  0  0
   35.6970   27.2200   42.6490 H   0  0  0  0  0  0  0  0  0  0  0  0
   37.2700   27.0750   41.8290 H   0  0  0  0  0  0  0  0  0  0  0  0
   37.3280   28.2380   43.6230 C   0  0  0  0  0  0  0  0  0  0  0  0
   36.7900   29.1060   44.0680 H   0  0  0  0  0  0  0  0  0  0  0  0
   37.5030   27.4500   44.3600 H   0  0  0  0  0  0  0  0  0  0  0  0
   39.5230   26.1570   43.6800 Cl  0  0  0  0  0  0  0  0  0  0  0  0
   39.6800   27.8510   43.2150 C   0  0  0  0  0  0  0  0  0  0  0  0
   38.6510   28.7730   43.2020 C   0  0  0  0  0  0  0  0  0  0  0  0
   38.9370   30.0650   42.8130 C   0  0  0  0  0  0  0  0  0  0  0  0
   38.1000   30.7500   42.8200 H   0  0  0  0  0  0  0  0  0  0  0  0
   40.2260   30.3830   42.4550 C   0  0  0  0  0  0  0  0  0  0  0  0
   40.4100   31.4090   42.1560 H   0  0  0  0  0  0  0  0  0  0  0  0
   41.2710   29.4820   42.4600 C   0  0  0  0  0  3  0  0  0  0  0  0
   40.9670   28.1780   42.8560 C   0  0  0  0  0  3  0  0  0  0  0  0
  1  7  1  6  0  0  0
  1  6  1  0  0  0  0
  2  3  1  0  0  0  0
  2  1  1  0  0  0  0
  3 11  1  0  0  0  0
  3  4  1  0  0  0  0
  4 13  1  0  0  0  0
  4  5  1  0  0  0  0
  5 14  1  0  0  0  0
  5 15  1  0  0  0  0
  6 16  1  1  0  0  0
  6  5  1  0  0  0  0
  6 26  1  0  0  0  0
  8  2  1  0  0  0  0
  9  2  1  0  0  0  0
 10  3  1  0  0  0  0
 12  4  1  0  0  0  0
 17 18  1  0  0  0  0
 17  1  1  0  0  0  0
 18 23  1  0  0  0  0
 19 24  1  0  0  0  0
 19 18  2  0  0  0  0
 20 19  1  0  0  0  0
 21 20  2  0  0  0  0
 21 22  1  0  0  0  0
 22 17  2  0  0  0  0
 25 21  1  0  0  0  0
 26 29  1  6  0  0  0
 26 27  1  0  0  0  0
 26 28  1  0  0  0  0
 27 30  1  0  0  0  0
 27 28  1  0  0  0  0
 28 32  1  1  0  0  0
 28 33  1  0  0  0  0
 31 27  1  0  0  0  0
 33 34  1  0  0  0  0
 33 36  1  0  0  0  0
 35 33  1  0  0  0  0
 36 37  1  0  0  0  0
 36 38  1  0  0  0  0
 40 39  1  0  0  0  0
 41 40  1  0  0  0  0
 41 36  1  0  0  0  0
 42 43  1  0  0  0  0
 42 41  2  0  0  0  0
 44 46  2  0  0  0  0
 44 42  1  0  0  0  0
 45 44  1  0  0  0  0
 46 47  1  0  0  0  0
 47 40  2  0  0  0  0
M  END
>  <minimizedAffinity>
-5.72387028

$$$$

 OpenBabel03242512033D

 47 50  0  0  1  0  0  0  0  0999 V2000
   36.9150   26.2640   41.4420 C   0  0  2  0  0  0  0  0  0  0  0  0
   36.9840   24.9830   42.2170 C   0  0  0  0  0  0  0  0  0  0  0  0
   37.5010   23.8560   41.4090 C   0  0  0  0  0  0  0  0  0  0  0  0
   36.6980   23.6360   40.1470 C   0  0  0  0  0  0  0  0  0  0  0  0
   36.2990   24.9110   39.4540 C   0  0  0  0  0  0  0  0  0  0  0  0
   37.0440   26.1180   39.9710 C   0  0  1  0  0  0  0  0  0  0  0  0
   35.8890   26.6960   41.6600 H   0  0  0  0  0  0  0  0  0  0  0  0
   35.9950   24.6820   42.6130 H   0  0  0  0  0  0  0  0  0  0  0  0
   37.6300   25.1230   43.0970 H   0  0  0  0  0  0  0  0  0  0  0  0
   37.4140   22.9220   42.0250 H   0  0  0  0  0  0  0  0  0  0  0  0
   38.5790   24.0110   41.2060 H   0  0  0  0  0  0  0  0  0  0  0  0
   35.7430   23.1260   40.4720 H   0  0  0  0  0  0  0  0  0  0  0  0
   37.1970   22.9000   39.4930 H   0  0  0  0  0  0  0  0  0  0  0  0
   35.2220   25.1150   39.5170 H   0  0  0  0  0  0  0  0  0  0  0  0
   36.5830   24.7980   38.3760 H   0  0  0  0  0  0  0  0  0  0  0  0
   38.0590   26.0340   39.5610 H   0  0  0  0  0  0  0  0  0  0  0  0
   37.8510   27.2890   41.9400 C   0  0  0  0  0  0  0  0  0  0  0  0
   39.1790   26.9820   41.7020 C   0  0  0  0  0  0  0  0  0  0  0  0
   40.1860   27.8700   42.1160 C   0  0  0  0  0  0  0  0  0  0  0  0
   39.7400   29.0320   42.7590 N   0  0  0  0  0  0  0  0  0  0  0  0
   38.4290   29.2830   42.9670 C   0  0  0  0  0  0  0  0  0  0  0  0
   37.5010   28.4030   42.5520 N   0  0  0  0  0  0  0  0  0  0  0  0
   39.7170   26.1640   41.2470 H   0  0  0  0  0  0  0  0  0  0  0  0
   41.2380   27.8190   42.0300 H   0  0  0  0  0  0  0  0  0  0  0  0
   38.1420   30.1880   43.4660 H   0  0  0  0  0  0  0  0  0  0  0  0
   36.4360   27.3380   39.3280 C   0  0  2  0  0  0  0  0  0  0  0  0
   36.6880   27.5520   37.8500 C   0  0  0  0  0  0  0  0  0  0  0  0
   37.3080   28.4500   38.8530 C   0  0  1  0  0  0  0  0  0  0  0  0
   35.3710   27.5260   39.5940 H   0  0  0  0  0  0  0  0  0  0  0  0
   35.9050   28.0300   37.2170 H   0  0  0  0  0  0  0  0  0  0  0  0
   37.3580   26.8970   37.2940 H   0  0  0  0  0  0  0  0  0  0  0  0
   38.3800   28.3220   39.1100 H   0  0  0  0  0  0  0  0  0  0  0  0
   36.7490   29.8000   39.2070 C   0  0  0  0  0  0  0  0  0  0  0  0
   35.6620   29.6750   39.3850 H   0  0  0  0  0  0  0  0  0  0  0  0
   37.2080   30.1090   40.1510 H   0  0  0  0  0  0  0  0  0  0  0  0
   36.9890   30.8440   38.1550 C   0  0  0  0  0  0  0  0  0  0  0  0
   37.6660   30.4500   37.3620 H   0  0  0  0  0  0  0  0  0  0  0  0
   36.0720   31.2640   37.7320 H   0  0  0  0  0  0  0  0  0  0  0  0
   39.9810   30.6140   37.7720 Cl  0  0  0  0  0  0  0  0  0  0  0  0
   39.1180   31.8810   38.6440 C   0  0  0  0  0  0  0  0  0  0  0  0
   37.7460   31.9520   38.7980 C   0  0  0  0  0  0  0  0  0  0  0  0
   37.2230   33.0090   39.5120 C   0  0  0  0  0  0  0  0  0  0  0  0
   36.1460   33.0210   39.6060 H   0  0  0  0  0  0  0  0  0  0  0  0
   38.0810   33.9450   40.0400 C   0  0  0  0  0  0  0  0  0  0  0  0
   37.6310   34.7610   40.5950 H   0  0  0  0  0  0  0  0  0  0  0  0
   39.4530   33.8980   39.9010 C   0  0  0  0  0  3  0  0  0  0  0  0
   39.9690   32.8220   39.1760 C   0  0  0  0  0  3  0  0  0  0  0  0
  1  7  1  1  0  0  0
  1 17  1  0  0  0  0
  1  2  1  0  0  0  0
  2  8  1  0  0  0  0
  2  9  1  0  0  0  0
  3 10  1  0  0  0  0
  3  2  1  0  0  0  0
  4 12  1  0  0  0  0
  4  3  1  0  0  0  0
  5 14  1  0  0  0  0
  5  6  1  0  0  0  0
  5  4  1  0  0  0  0
  6 16  1  6  0  0  0
  6  1  1  0  0  0  0
 11  3  1  0  0  0  0
 13  4  1  0  0  0  0
 15  5  1  0  0  0  0
 17 22  1  0  0  0  0
 18 17  2  0  0  0  0
 18 19  1  0  0  0  0
 19 20  2  0  0  0  0
 20 21  1  0  0  0  0
 21 25  1  0  0  0  0
 22 21  2  0  0  0  0
 23 18  1  0  0  0  0
 24 19  1  0  0  0  0
 26 29  1  1  0  0  0
 26  6  1  0  0  0  0
 27 28  1  0  0  0  0
 27 26  1  0  0  0  0
 28 32  1  1  0  0  0
 28 33  1  0  0  0  0
 28 26  1  0  0  0  0
 30 27  1  0  0  0  0
 31 27  1  0  0  0  0
 33 34  1  0  0  0  0
 33 35  1  0  0  0  0
 36 41  1  0  0  0  0
 36 33  1  0  0  0  0
 37 36  1  0  0  0  0
 38 36  1  0  0  0  0
 39 40  1  0  0  0  0
 40 41  2  0  0  0  0
 40 47  1  0  0  0  0
 41 42  1  0  0  0  0
 42 43  1  0  0  0  0
 42 44  2  0  0  0  0
 44 45  1  0  0  0  0
 46 44  1  0  0  0  0
 47 46  2  0  0  0  0
M  END
>  <minimizedAffinity>
-5.6829958

$$$$

 OpenBabel03242512033D

 47 50  0  0  1  0  0  0  0  0999 V2000
   36.4340   28.5400   38.1300 C   0  0  2  0  0  0  0  0  0  0  0  0
   35.7070   29.2520   37.0300 C   0  0  0  0  0  0  0  0  0  0  0  0
   34.2720   28.8910   36.9700 C   0  0  0  0  0  0  0  0  0  0  0  0
   34.0570   27.4020   36.8320 C   0  0  0  0  0  0  0  0  0  0  0  0
   34.9830   26.5750   37.6830 C   0  0  0  0  0  0  0  0  0  0  0  0
   35.7060   27.3910   38.7260 C   0  0  1  0  0  0  0  0  0  0  0  0
   37.3840   28.1410   37.6580 H   0  0  0  0  0  0  0  0  0  0  0  0
   36.1450   29.0370   36.0360 H   0  0  0  0  0  0  0  0  0  0  0  0
   35.8010   30.3380   37.1730 H   0  0  0  0  0  0  0  0  0  0  0  0
   33.8330   29.3770   36.0580 H   0  0  0  0  0  0  0  0  0  0  0  0
   33.7480   29.3190   37.8480 H   0  0  0  0  0  0  0  0  0  0  0  0
   34.2910   27.1530   35.7550 H   0  0  0  0  0  0  0  0  0  0  0  0
   32.9880   27.1520   36.9480 H   0  0  0  0  0  0  0  0  0  0  0  0
   35.7290   26.0250   37.0940 H   0  0  0  0  0  0  0  0  0  0  0  0
   34.3460   25.8390   38.2370 H   0  0  0  0  0  0  0  0  0  0  0  0
   34.9550   27.6160   39.4950 H   0  0  0  0  0  0  0  0  0  0  0  0
   36.9100   29.4500   39.1880 C   0  0  0  0  0  0  0  0  0  0  0  0
   35.8950   29.9310   39.9970 C   0  0  0  0  0  0  0  0  0  0  0  0
   36.1990   30.8060   41.0530 C   0  0  0  0  0  0  0  0  0  0  0  0
   37.5550   31.1280   41.2000 N   0  0  0  0  0  0  0  0  0  0  0  0
   38.5070   30.6310   40.3810 C   0  0  0  0  0  0  0  0  0  0  0  0
   38.1670   29.7960   39.3830 N   0  0  0  0  0  0  0  0  0  0  0  0
   34.8230   29.8190   40.0460 H   0  0  0  0  0  0  0  0  0  0  0  0
   35.5800   31.2750   41.7700 H   0  0  0  0  0  0  0  0  0  0  0  0
   39.5310   30.9110   40.5360 H   0  0  0  0  0  0  0  0  0  0  0  0
   36.7200   26.4920   39.3870 C   0  0  2  0  0  0  0  0  0  0  0  0
   37.8100   25.9040   38.5160 C   0  0  0  0  0  0  0  0  0  0  0  0
   36.7470   25.0350   39.0750 C   0  0  1  0  0  0  0  0  0  0  0  0
   37.1260   26.8750   40.3510 H   0  0  0  0  0  0  0  0  0  0  0  0
   38.8260   25.7310   38.9400 H   0  0  0  0  0  0  0  0  0  0  0  0
   37.8080   26.0530   37.4360 H   0  0  0  0  0  0  0  0  0  0  0  0
   35.9170   24.6990   38.4190 H   0  0  0  0  0  0  0  0  0  0  0  0
   36.9340   24.1940   40.3080 C   0  0  0  0  0  0  0  0  0  0  0  0
   36.3150   23.2830   40.1860 H   0  0  0  0  0  0  0  0  0  0  0  0
   37.9830   23.8840   40.3380 H   0  0  0  0  0  0  0  0  0  0  0  0
   36.5730   24.9060   41.5800 C   0  0  0  0  0  0  0  0  0  0  0  0
   36.1100   25.8940   41.3560 H   0  0  0  0  0  0  0  0  0  0  0  0
   35.9550   24.3120   42.2580 H   0  0  0  0  0  0  0  0  0  0  0  0
   36.5880   27.6650   42.8190 Cl  0  0  0  0  0  0  0  0  0  0  0  0
   37.8910   26.4780   42.8620 C   0  0  0  0  0  0  0  0  0  0  0  0
   37.8470   25.2240   42.2820 C   0  0  0  0  0  0  0  0  0  0  0  0
   38.9530   24.4090   42.4030 C   0  0  0  0  0  0  0  0  0  0  0  0
   38.8720   23.4390   41.9330 H   0  0  0  0  0  0  0  0  0  0  0  0
   40.0490   24.8730   43.0920 C   0  0  0  0  0  0  0  0  0  0  0  0
   40.8980   24.2030   43.1650 H   0  0  0  0  0  0  0  0  0  0  0  0
   40.1190   26.1200   43.6800 C   0  0  0  0  0  3  0  0  0  0  0  0
   38.9920   26.9330   43.5490 C   0  0  0  0  0  3  0  0  0  0  0  0
  1  7  1  6  0  0  0
  1  6  1  0  0  0  0
  1 17  1  0  0  0  0
  2  9  1  0  0  0  0
  2  1  1  0  0  0  0
  3  2  1  0  0  0  0
  3 11  1  0  0  0  0
  4 13  1  0  0  0  0
  4  3  1  0  0  0  0
  4  5  1  0  0  0  0
  5 15  1  0  0  0  0
  5  6  1  0  0  0  0
  6 26  1  0  0  0  0
  6 16  1  1  0  0  0
  8  2  1  0  0  0  0
 10  3  1  0  0  0  0
 12  4  1  0  0  0  0
 14  5  1  0  0  0  0
 17 22  2  0  0  0  0
 17 18  1  0  0  0  0
 18 23  1  0  0  0  0
 18 19  2  0  0  0  0
 19 20  1  0  0  0  0
 19 24  1  0  0  0  0
 21 25  1  0  0  0  0
 21 20  2  0  0  0  0
 22 21  1  0  0  0  0
 26 29  1  1  0  0  0
 27 30  1  0  0  0  0
 27 28  1  0  0  0  0
 27 26  1  0  0  0  0
 28 32  1  6  0  0  0
 28 26  1  0  0  0  0
 28 33  1  0  0  0  0
 31 27  1  0  0  0  0
 33 35  1  0  0  0  0
 33 36  1  0  0  0  0
 34 33  1  0  0  0  0
 36 38  1  0  0  0  0
 36 41  1  0  0  0  0
 37 36  1  0  0  0  0
 39 40  1  0  0  0  0
 40 47  1  0  0  0  0
 41 42  1  0  0  0  0
 41 40  2  0  0  0  0
 42 44  2  0  0  0  0
 43 42  1  0  0  0  0
 44 45  1  0  0  0  0
 44 46  1  0  0  0  0
 47 46  2  0  0  0  0
M  END
>  <minimizedAffinity>
-5.64617014

$$$$

 OpenBabel03242512033D

 47 50  0  0  1  0  0  0  0  0999 V2000
   37.5880   26.4540   40.2970 C   0  0  2  0  0  0  0  0  0  0  0  0
   37.1000   25.1770   39.6830 C   0  0  0  0  0  0  0  0  0  0  0  0
   36.5500   24.2370   40.6850 C   0  0  0  0  0  0  0  0  0  0  0  0
   37.5390   23.9190   41.7820 C   0  0  0  0  0  0  0  0  0  0  0  0
   38.3230   25.1150   42.2540 C   0  0  0  0  0  0  0  0  0  0  0  0
   37.7440   26.4230   41.7730 C   0  0  1  0  0  0  0  0  0  0  0  0
   38.6090   26.6390   39.8430 H   0  0  0  0  0  0  0  0  0  0  0  0
   37.9030   24.6460   39.1350 H   0  0  0  0  0  0  0  0  0  0  0  0
   36.3260   25.4030   38.9350 H   0  0  0  0  0  0  0  0  0  0  0  0
   36.3150   23.2730   40.1590 H   0  0  0  0  0  0  0  0  0  0  0  0
   35.5920   24.6340   41.0750 H   0  0  0  0  0  0  0  0  0  0  0  0
   38.2820   23.1970   41.3320 H   0  0  0  0  0  0  0  0  0  0  0  0
   37.0520   23.3480   42.5910 H   0  0  0  0  0  0  0  0  0  0  0  0
   39.3810   25.0750   41.9630 H   0  0  0  0  0  0  0  0  0  0  0  0
   38.2560   25.1280   43.3730 H   0  0  0  0  0  0  0  0  0  0  0  0
   36.8420   26.5860   42.3780 H   0  0  0  0  0  0  0  0  0  0  0  0
   36.7940   27.6280   39.8900 C   0  0  0  0  0  0  0  0  0  0  0  0
   37.1470   28.1250   38.6470 C   0  0  0  0  0  0  0  0  0  0  0  0
   36.4710   29.2400   38.1250 C   0  0  0  0  0  0  0  0  0  0  0  0
   35.4620   29.7720   38.9380 N   0  0  0  0  0  0  0  0  0  0  0  0
   35.1580   29.2480   40.1450 C   0  0  0  0  0  0  0  0  0  0  0  0
   35.8320   28.1790   40.6040 N   0  0  0  0  0  0  0  0  0  0  0  0
   37.8750   27.8780   37.8900 H   0  0  0  0  0  0  0  0  0  0  0  0
   36.5880   29.7620   37.2120 H   0  0  0  0  0  0  0  0  0  0  0  0
   34.3760   29.6950   40.7290 H   0  0  0  0  0  0  0  0  0  0  0  0
   38.7060   27.5170   42.1610 C   0  0  2  0  0  0  0  0  0  0  0  0
   39.2320   27.5190   43.5810 C   0  0  0  0  0  0  0  0  0  0  0  0
   38.2930   28.5730   43.1280 C   0  0  1  0  0  0  0  0  0  0  0  0
   39.5180   27.7090   41.4220 H   0  0  0  0  0  0  0  0  0  0  0  0
   40.2670   27.8740   43.7890 H   0  0  0  0  0  0  0  0  0  0  0  0
   38.8580   26.8100   44.3190 H   0  0  0  0  0  0  0  0  0  0  0  0
   37.2260   28.5160   43.4270 H   0  0  0  0  0  0  0  0  0  0  0  0
   38.7390   29.9430   42.6970 C   0  0  0  0  0  0  0  0  0  0  0  0
   37.9240   30.6520   42.9480 H   0  0  0  0  0  0  0  0  0  0  0  0
   39.6120   30.2100   43.3000 H   0  0  0  0  0  0  0  0  0  0  0  0
   39.0770   30.0330   41.2370 C   0  0  0  0  0  0  0  0  0  0  0  0
   40.1660   29.8570   41.0780 H   0  0  0  0  0  0  0  0  0  0  0  0
   38.4660   29.3870   40.6010 H   0  0  0  0  0  0  0  0  0  0  0  0
   41.5760   31.7330   41.3540 Cl  0  0  0  0  0  0  0  0  0  0  0  0
   39.9650   32.2500   40.8570 C   0  0  0  0  0  0  0  0  0  0  0  0
   38.8450   31.4420   40.8170 C   0  0  0  0  0  0  0  0  0  0  0  0
   37.6520   31.9980   40.4060 C   0  0  0  0  0  0  0  0  0  0  0  0
   36.8040   31.3270   40.3910 H   0  0  0  0  0  0  0  0  0  0  0  0
   37.6240   33.3270   40.0530 C   0  0  0  0  0  0  0  0  0  0  0  0
   36.6670   33.7270   39.7360 H   0  0  0  0  0  0  0  0  0  0  0  0
   38.7270   34.1560   40.0850 C   0  0  0  0  0  3  0  0  0  0  0  0
   39.9270   33.5790   40.5040 C   0  0  0  0  0  3  0  0  0  0  0  0
  1  7  1  6  0  0  0
  1  6  1  0  0  0  0
  2  1  1  0  0  0  0
  2  3  1  0  0  0  0
  3 11  1  0  0  0  0
  3  4  1  0  0  0  0
  4  5  1  0  0  0  0
  4 13  1  0  0  0  0
  5 15  1  0  0  0  0
  6 26  1  0  0  0  0
  6  5  1  0  0  0  0
  6 16  1  1  0  0  0
  8  2  1  0  0  0  0
  9  2  1  0  0  0  0
 10  3  1  0  0  0  0
 12  4  1  0  0  0  0
 14  5  1  0  0  0  0
 17  1  1  0  0  0  0
 17 22  1  0  0  0  0
 18 17  2  0  0  0  0
 19 18  1  0  0  0  0
 19 20  2  0  0  0  0
 20 21  1  0  0  0  0
 21 22  2  0  0  0  0
 21 25  1  0  0  0  0
 23 18  1  0  0  0  0
 24 19  1  0  0  0  0
 26 29  1  6  0  0  0
 26 28  1  0  0  0  0
 26 27  1  0  0  0  0
 27 30  1  0  0  0  0
 27 31  1  0  0  0  0
 28 32  1  1  0  0  0
 28 27  1  0  0  0  0
 33 34  1  0  0  0  0
 33 28  1  0  0  0  0
 33 35  1  0  0  0  0
 36 33  1  0  0  0  0
 37 36  1  0  0  0  0
 38 36  1  0  0  0  0
 40 39  1  0  0  0  0
 41 40  1  0  0  0  0
 41 36  1  0  0  0  0
 42 41  2  0  0  0  0
 43 42  1  0  0  0  0
 44 46  2  0  0  0  0
 44 42  1  0  0  0  0
 45 44  1  0  0  0  0
 46 47  1  0  0  0  0
 47 40  2  0  0  0  0
M  END
>  <minimizedAffinity>
-5.63766479

$$$$

 OpenBabel03242512033D

 47 50  0  0  1  0  0  0  0  0999 V2000
   39.3490   26.2920   42.7150 C   0  0  2  0  0  0  0  0  0  0  0  0
   39.5170   24.8400   43.0480 C   0  0  0  0  0  0  0  0  0  0  0  0
   38.8530   23.9510   42.0690 C   0  0  0  0  0  0  0  0  0  0  0  0
   37.3820   24.2630   41.9120 C   0  0  0  0  0  0  0  0  0  0  0  0
   37.0760   25.7370   41.8870 C   0  0  0  0  0  0  0  0  0  0  0  0
   38.3070   26.5890   41.7010 C   0  0  1  0  0  0  0  0  0  0  0  0
   39.0430   26.7930   43.6840 H   0  0  0  0  0  0  0  0  0  0  0  0
   39.1110   24.5940   44.0490 H   0  0  0  0  0  0  0  0  0  0  0  0
   40.5890   24.5960   43.0900 H   0  0  0  0  0  0  0  0  0  0  0  0
   38.9300   22.8980   42.4520 H   0  0  0  0  0  0  0  0  0  0  0  0
   39.4010   23.9870   41.1070 H   0  0  0  0  0  0  0  0  0  0  0  0
   36.8750   23.8380   42.8270 H   0  0  0  0  0  0  0  0  0  0  0  0
   36.9530   23.6950   41.0680 H   0  0  0  0  0  0  0  0  0  0  0  0
   36.5490   26.0800   42.7870 H   0  0  0  0  0  0  0  0  0  0  0  0
   36.4230   25.9180   40.9940 H   0  0  0  0  0  0  0  0  0  0  0  0
   38.5860   26.4750   40.6440 H   0  0  0  0  0  0  0  0  0  0  0  0
   40.6190   26.9490   42.3540 C   0  0  0  0  0  0  0  0  0  0  0  0
   41.1540   27.7100   43.3790 C   0  0  0  0  0  0  0  0  0  0  0  0
   42.3670   28.3910   43.1830 C   0  0  0  0  0  0  0  0  0  0  0  0
   42.9500   28.2360   41.9190 N   0  0  0  0  0  0  0  0  0  0  0  0
   42.3840   27.4810   40.9510 C   0  0  0  0  0  0  0  0  0  0  0  0
   41.2220   26.8470   41.1860 N   0  0  0  0  0  0  0  0  0  0  0  0
   40.8700   27.9600   44.3900 H   0  0  0  0  0  0  0  0  0  0  0  0
   42.9300   29.0120   43.8270 H   0  0  0  0  0  0  0  0  0  0  0  0
   42.8720   27.3970   40.0000 H   0  0  0  0  0  0  0  0  0  0  0  0
   37.8950   28.0290   41.8670 C   0  0  2  0  0  0  0  0  0  0  0  0
   37.0380   28.3800   43.0660 C   0  0  0  0  0  0  0  0  0  0  0  0
   36.4680   28.4260   41.6980 C   0  0  1  0  0  0  0  0  0  0  0  0
   38.7130   28.7700   41.7160 H   0  0  0  0  0  0  0  0  0  0  0  0
   37.1520   29.3730   43.5580 H   0  0  0  0  0  0  0  0  0  0  0  0
   36.6590   27.6040   43.7310 H   0  0  0  0  0  0  0  0  0  0  0  0
   35.8090   27.6020   41.3540 H   0  0  0  0  0  0  0  0  0  0  0  0
   36.3230   29.6980   40.9090 C   0  0  0  0  0  0  0  0  0  0  0  0
   35.3850   29.6210   40.3230 H   0  0  0  0  0  0  0  0  0  0  0  0
   36.2030   30.5170   41.6240 H   0  0  0  0  0  0  0  0  0  0  0  0
   37.4850   29.9770   40.0000 C   0  0  0  0  0  0  0  0  0  0  0  0
   38.4160   29.5190   40.4070 H   0  0  0  0  0  0  0  0  0  0  0  0
   37.3130   29.6870   38.9600 H   0  0  0  0  0  0  0  0  0  0  0  0
   39.9070   30.7460   41.6420 Cl  0  0  0  0  0  0  0  0  0  0  0  0
   38.8260   31.8350   40.7740 C   0  0  0  0  0  0  0  0  0  0  0  0
   37.7270   31.4450   40.0320 C   0  0  0  0  0  0  0  0  0  0  0  0
   36.9770   32.4220   39.4120 C   0  0  0  0  0  0  0  0  0  0  0  0
   36.1280   32.0690   38.8440 H   0  0  0  0  0  0  0  0  0  0  0  0
   37.3510   33.7380   39.5530 C   0  0  0  0  0  0  0  0  0  0  0  0
   36.7370   34.4760   39.0500 H   0  0  0  0  0  0  0  0  0  0  0  0
   38.4430   34.1540   40.2870 C   0  0  0  0  0  3  0  0  0  0  0  0
   39.1920   33.1540   40.9100 C   0  0  0  0  0  3  0  0  0  0  0  0
  1  2  1  0  0  0  0
  1  7  1  1  0  0  0
  2  9  1  0  0  0  0
  2  8  1  0  0  0  0
  3 10  1  0  0  0  0
  3  2  1  0  0  0  0
  4  3  1  0  0  0  0
  4 12  1  0  0  0  0
  5  4  1  0  0  0  0
  5 14  1  0  0  0  0
  6 16  1  6  0  0  0
  6 26  1  0  0  0  0
  6  5  1  0  0  0  0
  6  1  1  0  0  0  0
 11  3  1  0  0  0  0
 13  4  1  0  0  0  0
 15  5  1  0  0  0  0
 17  1  1  0  0  0  0
 17 18  1  0  0  0  0
 18 23  1  0  0  0  0
 19 18  2  0  0  0  0
 19 24  1  0  0  0  0
 20 19  1  0  0  0  0
 21 22  1  0  0  0  0
 21 20  2  0  0  0  0
 22 17  2  0  0  0  0
 25 21  1  0  0  0  0
 26 29  1  6  0  0  0
 26 27  1  0  0  0  0
 27 30  1  0  0  0  0
 27 31  1  0  0  0  0
 28 32  1  6  0  0  0
 28 26  1  0  0  0  0
 28 27  1  0  0  0  0
 33 35  1  0  0  0  0
 33 28  1  0  0  0  0
 34 33  1  0  0  0  0
 36 41  1  0  0  0  0
 36 37  1  0  0  0  0
 36 33  1  0  0  0  0
 38 36  1  0  0  0  0
 40 47  1  0  0  0  0
 40 39  1  0  0  0  0
 41 40  2  0  0  0  0
 42 44  2  0  0  0  0
 42 41  1  0  0  0  0
 43 42  1  0  0  0  0
 44 46  1  0  0  0  0
 45 44  1  0  0  0  0
 46 47  2  0  0  0  0
M  END
>  <minimizedAffinity>
-5.58016396

$$$$

 OpenBabel03242512033D

 47 50  0  0  1  0  0  0  0  0999 V2000
   37.3100   29.3170   41.6800 C   0  0  2  0  0  0  0  0  0  0  0  0
   38.0380   29.3000   42.9910 C   0  0  0  0  0  0  0  0  0  0  0  0
   38.8460   28.0750   43.1760 C   0  0  0  0  0  0  0  0  0  0  0  0
   38.0230   26.8140   43.0450 C   0  0  0  0  0  0  0  0  0  0  0  0
   37.0170   26.8640   41.9260 C   0  0  0  0  0  0  0  0  0  0  0  0
   37.2530   28.0130   40.9750 C   0  0  1  0  0  0  0  0  0  0  0  0
   36.2480   29.6260   41.9270 H   0  0  0  0  0  0  0  0  0  0  0  0
   37.3460   29.3750   43.8520 H   0  0  0  0  0  0  0  0  0  0  0  0
   38.6950   30.1810   43.0550 H   0  0  0  0  0  0  0  0  0  0  0  0
   39.2630   28.0920   44.2190 H   0  0  0  0  0  0  0  0  0  0  0  0
   39.7100   28.0940   42.4830 H   0  0  0  0  0  0  0  0  0  0  0  0
   37.4390   26.7230   44.0070 H   0  0  0  0  0  0  0  0  0  0  0  0
   38.6750   25.9240   43.0300 H   0  0  0  0  0  0  0  0  0  0  0  0
   35.9810   26.9170   42.2840 H   0  0  0  0  0  0  0  0  0  0  0  0
   37.1460   25.9240   41.3300 H   0  0  0  0  0  0  0  0  0  0  0  0
   38.1280   27.7240   40.3780 H   0  0  0  0  0  0  0  0  0  0  0  0
   37.7900   30.3730   40.7690 C   0  0  0  0  0  0  0  0  0  0  0  0
   36.9300   31.4530   40.6790 C   0  0  0  0  0  0  0  0  0  0  0  0
   37.2590   32.5400   39.8520 C   0  0  0  0  0  0  0  0  0  0  0  0
   38.4740   32.4300   39.1640 N   0  0  0  0  0  0  0  0  0  0  0  0
   39.2780   31.3510   39.2870 C   0  0  0  0  0  0  0  0  0  0  0  0
   38.9210   30.3350   40.0920 N   0  0  0  0  0  0  0  0  0  0  0  0
   35.9740   31.7220   41.1020 H   0  0  0  0  0  0  0  0  0  0  0  0
   36.7460   33.4420   39.6490 H   0  0  0  0  0  0  0  0  0  0  0  0
   40.1980   31.3170   38.7370 H   0  0  0  0  0  0  0  0  0  0  0  0
   36.0920   28.0550   40.0150 C   0  0  2  0  0  0  0  0  0  0  0  0
   36.0360   26.9950   38.9340 C   0  0  0  0  0  0  0  0  0  0  0  0
   36.3130   28.4090   38.5840 C   0  0  1  0  0  0  0  0  0  0  0  0
   35.0960   28.2090   40.4910 H   0  0  0  0  0  0  0  0  0  0  0  0
   35.0500   26.6120   38.5830 H   0  0  0  0  0  0  0  0  0  0  0  0
   36.8510   26.2850   38.8010 H   0  0  0  0  0  0  0  0  0  0  0  0
   37.3530   28.7190   38.3530 H   0  0  0  0  0  0  0  0  0  0  0  0
   35.2620   29.3500   38.0630 C   0  0  0  0  0  0  0  0  0  0  0  0
   35.4340   30.3370   38.5380 H   0  0  0  0  0  0  0  0  0  0  0  0
   35.4260   29.4640   36.9870 H   0  0  0  0  0  0  0  0  0  0  0  0
   33.8580   28.8840   38.3210 C   0  0  0  0  0  0  0  0  0  0  0  0
   33.8520   27.8080   38.6090 H   0  0  0  0  0  0  0  0  0  0  0  0
   33.3130   29.5000   39.0410 H   0  0  0  0  0  0  0  0  0  0  0  0
   31.0560   29.9930   38.5830 Cl  0  0  0  0  0  0  0  0  0  0  0  0
   31.8450   29.4460   37.1040 C   0  0  0  0  0  0  0  0  0  0  0  0
   33.1300   28.9440   37.0240 C   0  0  0  0  0  0  0  0  0  0  0  0
   33.6040   28.5550   35.7890 C   0  0  0  0  0  0  0  0  0  0  0  0
   34.6140   28.1690   35.7770 H   0  0  0  0  0  0  0  0  0  0  0  0
   32.7850   28.6820   34.6920 C   0  0  0  0  0  0  0  0  0  0  0  0
   33.1940   28.3660   33.7380 H   0  0  0  0  0  0  0  0  0  0  0  0
   31.4990   29.1800   34.7430 C   0  0  0  0  0  3  0  0  0  0  0  0
   31.0320   29.5690   36.0000 C   0  0  0  0  0  3  0  0  0  0  0  0
  1  7  1  1  0  0  0
  1  2  1  0  0  0  0
  2  9  1  0  0  0  0
  2  3  1  0  0  0  0
  2  8  1  0  0  0  0
  3 10  1  0  0  0  0
  4  3  1  0  0  0  0
  4 12  1  0  0  0  0
  5 14  1  0  0  0  0
  5  4  1  0  0  0  0
  6 16  1  6  0  0  0
  6  1  1  0  0  0  0
  6  5  1  0  0  0  0
 11  3  1  0  0  0  0
 13  4  1  0  0  0  0
 15  5  1  0  0  0  0
 17  1  1  0  0  0  0
 18 17  1  0  0  0  0
 18 23  1  0  0  0  0
 19 18  2  0  0  0  0
 20 21  2  0  0  0  0
 20 19  1  0  0  0  0
 21 22  1  0  0  0  0
 22 17  2  0  0  0  0
 24 19  1  0  0  0  0
 25 21  1  0  0  0  0
 26 29  1  1  0  0  0
 26  6  1  0  0  0  0
 27 26  1  0  0  0  0
 28 32  1  6  0  0  0
 28 27  1  0  0  0  0
 28 26  1  0  0  0  0
 30 27  1  0  0  0  0
 31 27  1  0  0  0  0
 33 36  1  0  0  0  0
 33 34  1  0  0  0  0
 33 28  1  0  0  0  0
 35 33  1  0  0  0  0
 36 37  1  0  0  0  0
 36 38  1  0  0  0  0
 40 39  1  0  0  0  0
 41 40  1  0  0  0  0
 41 36  1  0  0  0  0
 42 41  2  0  0  0  0
 43 42  1  0  0  0  0
 44 46  2  0  0  0  0
 44 42  1  0  0  0  0
 45 44  1  0  0  0  0
 46 47  1  0  0  0  0
 47 40  2  0  0  0  0
M  END
>  <minimizedAffinity>
-5.53869247

$$$$
