
     RDKit          3D

 46 49  0  0  0  0  0  0  0  0999 V2000
   45.1364   36.0152   42.9097 C   0  0  0  0  0  0  0  0  0  0  0  0
   45.3747   34.6406   42.9039 C   0  0  0  0  0  0  0  0  0  0  0  0
   45.2117   33.9213   44.0670 C   0  0  0  0  0  0  0  0  0  0  0  0
   44.8121   34.6103   45.1954 N   0  0  0  0  0  0  0  0  0  0  0  0
   44.5889   35.9233   45.1819 C   0  0  0  0  0  0  0  0  0  0  0  0
   44.7538   36.6152   44.0368 N   0  0  0  0  0  0  0  0  0  0  0  0
   45.4180   32.5321   44.2162 C   0  0  0  0  0  0  0  0  0  0  0  0
   44.9391   31.5659   43.3256 C   0  0  0  0  0  0  0  0  0  0  0  0
   45.0789   30.2104   43.5141 C   0  0  0  0  0  0  0  0  0  0  0  0
   45.7275   29.7337   44.6428 C   0  0  0  0  0  0  0  0  0  0  0  0
   46.2238   30.7085   45.5608 C   0  0  0  0  0  0  0  0  0  0  0  0
   46.8632   30.2467   46.6742 C   0  0  0  0  0  0  0  0  0  0  0  0
   47.3729   31.1368   47.6064 C   0  0  0  0  0  0  0  0  0  0  0  0
   47.2243   32.5090   47.3899 C   0  0  0  0  0  0  0  0  0  0  0  0
   46.5549   32.9343   46.2237 C   0  0  0  0  0  0  0  0  0  0  0  0
   46.0582   32.0336   45.3215 C   0  0  0  0  0  0  0  0  0  0  0  0
   45.7558   34.0938   41.7291 O   0  0  0  0  0  0  0  0  0  0  0  0
   47.6751   32.4300   41.0939 O   0  0  0  0  0  0  0  0  0  0  0  0
   47.3797   33.8780   41.2344 P   0  0  1  0  0  0  0  0  0  0  0  0
   47.6452   34.6017   39.7475 O   0  0  0  0  0  0  0  0  0  0  0  0
   48.3593   34.5967   42.3915 O   0  0  0  0  0  0  0  0  0  0  0  0
   49.5319   35.2950   42.1517 C   0  0  0  0  0  0  0  0  0  0  0  0
   49.1988   36.2143   41.3798 O   0  0  0  0  0  0  0  0  0  0  0  0
   50.6365   34.7034   42.8643 N   0  0  0  0  0  0  0  0  0  0  0  0
   45.2548   36.6116   42.0173 H   0  0  0  0  0  0  0  0  0  0  0  0
   44.2767   36.4773   46.0541 H   0  0  0  0  0  0  0  0  0  0  0  0
   44.4279   31.8829   42.4338 H   0  0  0  0  0  0  0  0  0  0  0  0
   44.7007   29.4876   42.8122 H   0  0  0  0  0  0  0  0  0  0  0  0
   45.8818   28.6960   44.8740 H   0  0  0  0  0  0  0  0  0  0  0  0
   46.9853   29.1764   46.8517 H   0  0  0  0  0  0  0  0  0  0  0  0
   47.8712   30.7148   48.4742 H   0  0  0  0  0  0  0  0  0  0  0  0
   47.6506   33.0974   48.1610 H   0  0  0  0  0  0  0  0  0  0  0  0
   46.5682   34.0028   46.2360 H   0  0  0  0  0  0  0  0  0  0  0  0
   51.4904   34.2132   42.5150 H   0  0  0  0  0  0  0  0  0  0  0  0
   50.6040   34.7597   43.9100 H   0  0  0  0  0  0  0  0  0  0  0  0
   48.3252   36.5127   37.3001 Cl  0  0  0  0  0  0  0  0  0  0  0  0
   49.1771   35.0631   37.7341 C   0  0  0  0  0  0  0  0  0  0  0  0
   48.6443   34.4533   38.8432 C   0  0  0  0  0  0  0  0  0  0  0  0
   49.3013   33.2708   39.2357 C   0  0  0  0  0  0  0  0  0  0  0  0
   49.1250   32.5613   40.0647 H   0  0  0  0  0  0  0  0  0  0  0  0
   50.4118   32.7671   38.5390 C   0  0  0  0  0  0  0  0  0  0  0  0
   50.9934   31.8805   38.7409 H   0  0  0  0  0  0  0  0  0  0  0  0
   50.8834   33.4434   37.4331 C   0  0  0  0  0  0  0  0  0  0  0  0
   50.2596   34.6022   37.0275 C   0  0  0  0  0  0  0  0  0  0  0  0
   51.7229   33.1519   36.8251 H   0  0  0  0  0  0  0  0  0  0  0  0
   50.5280   35.2222   36.1843 H   0  0  0  0  0  0  0  0  0  0  0  0
  1  6  2  0
  2  1  1  0
  2  3  2  0
  3  7  1  0
  3  4  1  0
  5  4  2  0
  6  5  1  0
  7 16  2  0
  8  9  2  0
  8  7  1  0
  9 10  1  0
 10 11  2  0
 11 12  1  0
 12 13  2  0
 14 13  1  0
 15 14  2  0
 16 11  1  0
 16 15  1  0
 17  2  1  0
 19 18  2  0
 19 17  1  1
 19 21  1  0
 20 19  1  0
 22 21  1  0
 22 24  1  0
 23 22  2  0
  1 25  1  0
  5 26  1  0
  8 27  1  0
  9 28  1  0
 10 29  1  0
 12 30  1  0
 13 31  1  0
 14 32  1  0
 15 33  1  0
 24 34  1  0
 24 35  1  0
 36 37  1  0
 37 38  2  0
 38 39  1  0
 39 40  1  0
 39 41  2  0
 41 42  1  0
 41 43  1  0
 43 44  2  0
 44 37  1  0
 43 45  1  0
 44 46  1  0
 20 38  1  0
M  ISO  8  25  14  26  14  27  14  28  14  29  14  30  14  31  14  32  14
M  ISO  3  33  14  40  15  42  16
M  END
>  <DihAtoms>  (1) 
18,19,37,36

>  <DihDeg>  (1) 
-0.05902397920255854

$$$$
