
 OpenBabel03242518283D

 21 22  0  0  0  0  0  0  0  0999 V2000
   46.9940   34.7560   41.9760 C   0  0  0  0  0  0  0  0  0  0  0  0
   48.1670   35.1720   41.7840 O   0  0  0  0  0  0  0  0  0  0  0  0
   46.2490   34.8060   43.1930 C   0  0  0  0  0  0  0  0  0  0  0  0
   45.3490   35.8720   43.2610 C   0  0  0  0  0  0  0  0  0  0  0  0
   44.5800   35.9850   44.4300 C   0  0  0  0  0  0  0  0  0  0  0  0
   44.7430   35.0770   45.4200 N   0  0  0  0  0  0  0  0  0  0  0  0
   45.6350   34.0590   45.3000 C   0  0  0  0  0  0  0  0  0  0  0  0
   46.3900   33.9200   44.1900 N   0  0  0  0  0  0  0  0  0  0  0  0
   45.2140   36.6010   42.4720 H   0  0  0  0  0  0  0  0  0  0  0  0
   43.8730   36.7940   44.5210 H   0  0  0  0  0  0  0  0  0  0  0  0
   45.7110   33.3700   46.1320 H   0  0  0  0  0  0  0  0  0  0  0  0
   46.3250   34.1830   40.9050 O   0  0  0  0  0  0  0  0  0  0  0  0
   44.9720   31.9960   39.4690 Cl  0  0  0  0  0  0  0  0  0  0  0  0
   46.3990   32.8520   38.8930 C   0  0  0  0  0  0  0  0  0  0  0  0
   46.9180   33.8680   39.7000 C   0  0  0  0  0  0  0  0  0  0  0  0
   48.0470   34.5490   39.2480 C   0  0  0  0  0  0  0  0  0  0  0  0
   48.4910   35.3410   39.8270 H   0  0  0  0  0  0  0  0  0  0  0  0
   48.6240   34.2100   38.0300 C   0  0  0  0  0  0  0  0  0  0  0  0
   49.5070   34.7340   37.6660 H   0  0  0  0  0  0  0  0  0  0  0  0
   48.0950   33.2000   37.2450 C   0  0  0  0  0  0  0  0  0  0  0  0
   46.9760   32.5190   37.6820 C   0  0  0  0  0  0  0  0  0  0  0  0
  1  3  1  0  0  0  0
  2  1  2  0  0  0  0
  3  4  2  0  0  0  0
  3  8  1  0  0  0  0
  4  5  1  0  0  0  0
  5 10  1  0  0  0  0
  5  6  2  0  0  0  0
  7  6  1  0  0  0  0
  7 11  1  0  0  0  0
  8  7  2  0  0  0  0
  9  4  1  0  0  0  0
 12  1  1  0  0  0  0
 14 13  1  0  0  0  0
 14 15  1  0  0  0  0
 15 12  1  0  0  0  0
 16 15  2  0  0  0  0
 16 17  1  0  0  0  0
 18 16  1  0  0  0  0
 19 18  1  0  0  0  0
 20 21  1  0  0  0  0
 20 18  2  0  0  0  0
 21 14  2  0  0  0  0
M  END
>  <minimizedAffinity>
-4.27966976

>  <minimizedRMSD>
0.457068026

$$$$
