
 OpenBabel03252501023D

 31 33  0  0  1  0  0  0  0  0999 V2000
   48.2210   35.5830   42.0540 C   0  0  1  0  0  0  0  0  0  0  0  0
   49.4650   34.7990   41.8810 C   0  0  0  0  0  0  0  0  0  0  0  0
   48.5860   35.1750   40.6960 C   0  0  1  0  0  0  0  0  0  0  0  0
   48.2250   36.6650   42.2770 H   0  0  0  0  0  0  0  0  0  0  0  0
   50.4180   35.3890   41.9980 H   0  0  0  0  0  0  0  0  0  0  0  0
   49.5370   33.7220   42.0010 H   0  0  0  0  0  0  0  0  0  0  0  0
   49.0450   35.9390   40.0360 H   0  0  0  0  0  0  0  0  0  0  0  0
   46.2660   33.0480   44.0630 C   0  0  0  0  0  0  0  0  0  0  0  0
   47.3500   33.7110   43.4860 C   0  0  0  0  0  0  0  0  0  0  0  0
   47.0990   34.8400   42.6980 C   0  0  0  0  0  0  0  0  0  0  0  0
   45.8090   35.2430   42.5280 N   0  0  0  0  0  0  0  0  0  0  0  0
   44.7690   34.5880   43.0960 C   0  0  0  0  0  0  0  0  0  0  0  0
   45.0040   33.4930   43.8610 N   0  0  0  0  0  0  0  0  0  0  0  0
   46.3620   32.1690   44.6860 H   0  0  0  0  0  0  0  0  0  0  0  0
   48.3240   33.3360   43.6670 H   0  0  0  0  0  0  0  0  0  0  0  0
   43.7680   34.9630   42.9190 H   0  0  0  0  0  0  0  0  0  0  0  0
   47.8100   34.2780   40.0670 O   0  0  0  0  0  0  0  0  0  0  0  0
   49.0070   32.5560   38.4480 O   0  0  0  0  0  0  0  0  0  0  0  0
   48.1830   33.8220   38.5380 P   0  0  2  0  0  0  0  0  0  0  0  0
   49.0360   34.9890   37.6610 O   0  0  0  0  0  0  0  0  0  0  0  0
   48.4990   35.4430   36.9920 H   0  0  0  0  0  0  0  0  0  0  0  0
   46.7650   33.5030   37.6790 O   0  0  0  0  0  0  0  0  0  0  0  0
   45.1730   31.4580   39.0590 Cl  0  0  0  0  0  0  0  0  0  0  0  0
   45.7990   31.4080   37.4200 C   0  0  0  0  0  0  0  0  0  0  0  0
   46.5480   32.4360   36.8550 C   0  0  0  0  0  0  0  0  0  0  0  0
   46.9680   32.2500   35.5630 C   0  0  0  0  0  0  0  0  0  0  0  0
   47.5570   33.0840   35.1510 H   0  0  0  0  0  0  0  0  0  0  0  0
   46.6770   31.1210   34.8500 C   0  0  0  0  0  0  0  0  0  0  0  0
   47.0340   31.0410   33.8470 H   0  0  0  0  0  0  0  0  0  0  0  0
   45.9330   30.0890   35.3970 C   0  0  0  0  0  3  0  0  0  0  0  0
   45.4940   30.2570   36.7150 C   0  0  0  0  0  3  0  0  0  0  0  0
  1  4  1  1  0  0  0
  1 10  1  0  0  0  0
  2  5  1  0  0  0  0
  2  6  1  0  0  0  0
  2  1  1  0  0  0  0
  3  7  1  6  0  0  0
  3  2  1  0  0  0  0
  3  1  1  0  0  0  0
  8 14  1  0  0  0  0
  9 15  1  0  0  0  0
  9  8  2  0  0  0  0
 10  9  1  0  0  0  0
 11 10  2  0  0  0  0
 11 12  1  0  0  0  0
 12 13  2  0  0  0  0
 13  8  1  0  0  0  0
 16 12  1  0  0  0  0
 17  3  1  0  0  0  0
 19 18  2  1  0  0  0
 19 17  1  0  0  0  0
 20 19  1  0  0  0  0
 21 20  1  0  0  0  0
 22 19  1  0  0  0  0
 24 23  1  0  0  0  0
 25 24  1  0  0  0  0
 25 22  1  0  0  0  0
 26 25  2  0  0  0  0
 27 26  1  0  0  0  0
 28 30  2  0  0  0  0
 28 26  1  0  0  0  0
 29 28  1  0  0  0  0
 30 31  1  0  0  0  0
 31 24  2  0  0  0  0
M  END
>  <minimizedAffinity>
-4.44588423

>  <minimizedRMSD>
1.25655997

$$$$
