REMARK  Name = 
REMARK  4 active torsions:
REMARK  status: ('A' for Active; 'I' for Inactive)
REMARK    1  A    between atoms: C_2  and  N_11
REMARK    2  A    between atoms: C_3  and  C_7
REMARK    3  A    between atoms: C_9  and  C_10
REMARK    4  A    between atoms: C_10  and  C_24
REMARK                            x       y       z     vdW  Elec       q    Type
REMARK                         _______ _______ _______ _____ _____    ______ ____
ROOT
ATOM      1  C   UNL     1      46.576  35.064  41.927  0.00  0.00    +0.000 C 
ATOM      2  C   UNL     1      48.112  35.291  41.928  0.00  0.00    +0.000 C 
ATOM      3  C   UNL     1      47.355  34.074  41.307  0.00  0.00    +0.000 C 
ATOM      4  H   UNL     1      46.013  35.842  41.370  0.00  0.00    +0.000 HD
ATOM      5  H   UNL     1      48.442  36.043  41.191  0.00  0.00    +0.000 HD
ATOM      6  H   UNL     1      48.677  35.123  42.848  0.00  0.00    +0.000 HD
ATOM      7  H   UNL     1      47.607  33.116  41.856  0.00  0.00    +0.000 HD
ENDROOT
BRANCH   1  10
ATOM      8  C   UNL     1      44.669  35.379  45.145  0.00  0.00    +0.000 A 
ATOM      9  C   UNL     1      45.128  35.693  43.838  0.00  0.00    +0.000 A 
ATOM     10  C   UNL     1      46.073  34.859  43.339  0.00  0.00    +0.000 A 
ATOM     11  N   UNL     1      46.562  33.778  44.053  0.00  0.00    +0.000 NA
ATOM     12  C   UNL     1      46.089  33.524  45.298  0.00  0.00    +0.000 A 
ATOM     13  N   UNL     1      45.144  34.324  45.842  0.00  0.00    +0.000 NA
ATOM     14  H   UNL     1      43.912  36.010  45.594  0.00  0.00    +0.000 HD
ATOM     15  H   UNL     1      46.552  32.654  45.743  0.00  0.00    +0.000 HD
BRANCH   9  16
ATOM     16  N   UNL     1      44.662  36.808  43.126  0.00  0.00    +0.000 N 
ATOM     17  H   UNL     1      44.003  36.401  42.433  0.00  0.00    +0.000 HD
ATOM     18  H   UNL     1      44.909  37.834  43.247  0.00  0.00    +0.000 HD
ENDBRANCH   9  16
ENDBRANCH   1  10
BRANCH   3  19
ATOM     19  C   UNL     1      47.389  33.914  39.806  0.00  0.00    +0.000 C 
ATOM     20  H   UNL     1      46.367  33.797  39.380  0.00  0.00    +0.000 HD
ATOM     21  H   UNL     1      47.815  34.838  39.358  0.00  0.00    +0.000 HD
BRANCH  19  24
ATOM     22 CL   UNL     1      45.875  31.391  39.643  0.00  0.00    +0.000 Cl
ATOM     23  C   UNL     1      47.589  31.595  39.358  0.00  0.00    +0.000 A 
ATOM     24  C   UNL     1      48.285  32.802  39.441  0.00  0.00    +0.000 A 
ATOM     25  C   UNL     1      49.638  32.816  39.190  0.00  0.00    +0.000 A 
ATOM     26  H   UNL     1      50.057  33.801  39.285  0.00  0.00    +0.000 HD
ATOM     27  C   UNL     1      50.298  31.650  38.859  0.00  0.00    +0.000 A 
ATOM     28  H   UNL     1      51.359  31.759  38.680  0.00  0.00    +0.000 HD
ATOM     29  C   UNL     1      49.603  30.442  38.775  0.00  0.00    +0.000 A 
ATOM     30  C   UNL     1      48.247  30.413  39.025  0.00  0.00    +0.000 A 
ENDBRANCH  19  24
ENDBRANCH   3  19
TORSDOF 4
