
 OpenBabel03252509263D

 30 32  0  0  1  0  0  0  0  0999 V2000
   46.6660   35.1080   41.9490 C   0  0  1  0  0  0  0  0  0  0  0  0
   48.1830   35.4370   42.0000 C   0  0  0  0  0  0  0  0  0  0  0  0
   47.5300   34.1700   41.3610 C   0  0  2  0  0  0  0  0  0  0  0  0
   46.0710   35.8450   41.3690 H   0  0  0  0  0  0  0  0  0  0  0  0
   48.4860   36.2060   41.2690 H   0  0  0  0  0  0  0  0  0  0  0  0
   48.7260   35.3110   42.9390 H   0  0  0  0  0  0  0  0  0  0  0  0
   47.8260   33.2330   41.9240 H   0  0  0  0  0  0  0  0  0  0  0  0
   44.6630   35.3370   45.1150 C   0  0  0  0  0  0  0  0  0  0  0  0
   45.1480   35.6770   43.8240 C   0  0  0  0  0  0  0  0  0  0  0  0
   46.1310   34.8750   43.3450 C   0  0  0  0  0  0  0  0  0  0  0  0
   46.6310   33.8020   44.0630 N   0  0  0  0  0  0  0  0  0  0  0  0
   46.1320   33.5230   45.2920 C   0  0  0  0  0  0  0  0  0  0  0  0
   45.1500   34.2900   45.8160 N   0  0  0  0  0  0  0  0  0  0  0  0
   43.8760   35.9420   45.5490 H   0  0  0  0  0  0  0  0  0  0  0  0
   46.6080   32.6630   45.7420 H   0  0  0  0  0  0  0  0  0  0  0  0
   44.6700   36.7840   43.1090 N   0  0  0  0  0  0  0  0  0  0  0  0
   44.0420   36.3650   42.3950 H   0  0  0  0  0  0  0  0  0  0  0  0
   44.8830   37.8160   43.2460 H   0  0  0  0  0  0  0  0  0  0  0  0
   47.6240   34.0070   39.8630 C   0  0  0  0  0  0  0  0  0  0  0  0
   46.6480   34.1990   39.3640 H   0  0  0  0  0  0  0  0  0  0  0  0
   48.3370   34.7630   39.4660 H   0  0  0  0  0  0  0  0  0  0  0  0
   45.6100   32.3800   38.4570 Cl  0  0  0  0  0  0  0  0  0  0  0  0
   47.2370   31.8900   38.8710 C   0  0  0  0  0  0  0  0  0  0  0  0
   48.1750   32.6790   39.5380 C   0  0  0  0  0  0  0  0  0  0  0  0
   49.4240   32.1630   39.7980 C   0  0  0  0  0  0  0  0  0  0  0  0
   50.0520   32.8640   40.3150 H   0  0  0  0  0  0  0  0  0  0  0  0
   49.7440   30.8800   39.4040 C   0  0  0  0  0  0  0  0  0  0  0  0
   50.7470   30.5600   39.6530 H   0  0  0  0  0  0  0  0  0  0  0  0
   48.8070   30.0880   38.7370 C   0  0  0  0  0  3  0  0  0  0  0  0
   47.5520   30.5930   38.4690 C   0  0  0  0  0  3  0  0  0  0  0  0
  1  4  1  6  0  0  0
  1  2  1  0  0  0  0
  1 10  1  0  0  0  0
  2  6  1  0  0  0  0
  3  7  1  1  0  0  0
  3  1  1  0  0  0  0
  3  2  1  0  0  0  0
  5  2  1  0  0  0  0
  8 14  1  0  0  0  0
  8 13  1  0  0  0  0
  9  8  2  0  0  0  0
 10  9  1  0  0  0  0
 10 11  2  0  0  0  0
 11 12  1  0  0  0  0
 12 15  1  0  0  0  0
 12 13  2  0  0  0  0
 16 18  1  0  0  0  0
 16  9  1  0  0  0  0
 17 16  1  0  0  0  0
 19  3  1  0  0  0  0
 20 19  1  0  0  0  0
 21 19  1  0  0  0  0
 22 23  1  0  0  0  0
 23 24  1  0  0  0  0
 24 25  2  0  0  0  0
 24 19  1  0  0  0  0
 25 26  1  0  0  0  0
 27 28  1  0  0  0  0
 27 25  1  0  0  0  0
 29 27  2  0  0  0  0
 30 29  1  0  0  0  0
 30 23  2  0  0  0  0
M  END
>  <minimizedAffinity>
-4.60295439

>  <minimizedRMSD>
0.472805262

$$$$
