
     RDKit          3D

 35 37  0  0  0  0  0  0  0  0999 V2000
   44.4753   35.7471   45.0111 C   0  0  0  0  0  0  0  0  0  0  0  0
   45.1229   35.7109   43.7484 C   0  0  0  0  0  0  0  0  0  0  0  0
   46.0181   34.7208   43.4852 C   0  0  0  0  0  0  0  0  0  0  0  0
   46.2341   33.8129   44.4759 N   0  0  0  0  0  0  0  0  0  0  0  0
   45.6305   33.8464   45.6524 C   0  0  0  0  0  0  0  0  0  0  0  0
   44.7416   34.8106   45.9445 N   0  0  0  0  0  0  0  0  0  0  0  0
   45.9345   32.8467   46.6040 N   0  0  0  0  0  0  0  0  0  0  0  0
   45.1660   32.5686   47.8147 C   0  0  0  0  0  0  0  0  0  0  0  0
   46.2524   32.2401   48.8133 C   0  0  0  0  0  0  0  0  0  0  0  0
   47.5310   32.0618   48.0310 C   0  0  0  0  0  0  0  0  0  0  0  0
   47.0136   31.9032   46.6214 C   0  0  1  0  0  0  0  0  0  0  0  0
   44.7703   36.7544   42.8273 N   0  0  0  0  0  0  0  0  0  0  0  0
   46.4916   30.2005   46.3818 S   0  0  0  0  0  0  0  0  0  0  0  0
   43.7534   36.4980   45.3001 H   0  0  0  0  0  0  0  0  0  0  0  0
   46.5102   34.6933   42.5227 H   0  0  0  0  0  0  0  0  0  0  0  0
   44.4373   31.7572   47.6790 H   0  0  0  0  0  0  0  0  0  0  0  0
   44.7048   33.5403   48.1263 H   0  0  0  0  0  0  0  0  0  0  0  0
   46.0059   31.3733   49.4553 H   0  0  0  0  0  0  0  0  0  0  0  0
   46.4362   33.1053   49.5135 H   0  0  0  0  0  0  0  0  0  0  0  0
   47.9786   31.1047   48.3719 H   0  0  0  0  0  0  0  0  0  0  0  0
   48.2168   32.9307   48.1445 H   0  0  0  0  0  0  0  0  0  0  0  0
   47.8187   32.2039   45.9030 H   0  0  0  0  0  0  0  0  0  0  0  0
   45.5916   37.2135   42.3595 H   0  0  0  0  0  0  0  0  0  0  0  0
   43.8132   37.0928   42.5818 H   0  0  0  0  0  0  0  0  0  0  0  0
   47.5459   31.9526   44.0713 Cl  0  0  0  0  0  0  0  0  0  0  0  0
   46.3316   30.7175   43.7704 C   0  0  0  0  0  0  0  0  0  0  0  0
   45.8310   29.9085   44.7656 C   0  0  0  0  0  0  0  0  0  0  0  0
   44.8819   28.9748   44.4117 C   0  0  0  0  0  0  0  0  0  0  0  0
   44.5156   28.3599   45.2208 H   0  0  0  0  0  0  0  0  0  0  0  0
   44.4172   28.8166   43.1246 C   0  0  0  0  0  0  0  0  0  0  0  0
   43.6747   28.0803   42.8730 H   0  0  0  0  0  0  0  0  0  0  0  0
   44.9558   29.6554   42.1740 C   0  0  0  0  0  0  0  0  0  0  0  0
   45.9187   30.6266   42.4408 C   0  0  0  0  0  0  0  0  0  0  0  0
   44.6343   29.5901   41.1228 H   0  0  0  0  0  0  0  0  0  0  0  0
   46.3125   31.2633   41.6608 H   0  0  0  0  0  0  0  0  0  0  0  0
  1  6  2  0
  2  1  1  0
  3  2  2  0
  3  4  1  0
  4  5  2  0
  5  6  1  0
  5  7  1  0
  7 11  1  0
  7  8  1  0
  8  9  1  0
 10  9  1  0
 11 10  1  0
 12  2  1  0
 13 11  1  0
  1 14  1  0
  3 15  1  0
  8 16  1  0
  8 17  1  0
  9 18  1  0
  9 19  1  0
 10 20  1  0
 10 21  1  0
 11 22  1  6
 12 23  1  0
 12 24  1  0
 25 26  1  0
 26 27  2  0
 27 28  1  0
 28 29  1  0
 28 30  2  0
 30 31  1  0
 30 32  1  0
 32 33  2  0
 33 26  1  0
 32 34  1  0
 33 35  1  0
 13 27  1  0
M  ISO  8  14  14  15  14  16  13  17  13  18  13  19  13  20  13  21  13
M  ISO  3  22  13  29  15  31  16
M  END
>  <DihAtoms>  (1) 
10,12,26,25

>  <DihDeg>  (1) 
88.73577437495518

$$$$
