
     RDKit          3D

 33 35  0  0  0  0  0  0  0  0999 V2000
   48.0346   35.6136   42.0338 C   0  0  1  0  0  0  0  0  0  0  0  0
   49.4286   35.1181   41.9804 C   0  0  0  0  0  0  0  0  0  0  0  0
   48.5569   35.1884   40.7339 C   0  0  1  0  0  0  0  0  0  0  0  0
   46.5827   32.8172   44.1219 C   0  0  0  0  0  0  0  0  0  0  0  0
   47.5264   33.6535   43.5232 C   0  0  0  0  0  0  0  0  0  0  0  0
   47.0699   34.6926   42.7029 C   0  0  0  0  0  0  0  0  0  0  0  0
   45.7281   34.8421   42.5244 N   0  0  0  0  0  0  0  0  0  0  0  0
   44.8270   34.0206   43.1136 C   0  0  0  0  0  0  0  0  0  0  0  0
   45.2615   33.0122   43.9097 N   0  0  0  0  0  0  0  0  0  0  0  0
   48.0337   34.0914   40.1630 O   0  0  0  0  0  0  0  0  0  0  0  0
   48.7150   32.5360   38.1279 O   0  0  0  0  0  0  0  0  0  0  0  0
   48.1689   33.8851   38.5419 P   0  0  2  0  0  0  0  0  0  0  0  0
   49.1518   35.0317   37.7831 O   0  0  0  0  0  0  0  0  0  0  0  0
   46.6430   33.9973   37.8284 O   0  0  0  0  0  0  0  0  0  0  0  0
   47.7880   36.6827   42.1564 H   0  0  0  0  0  0  0  0  0  0  0  0
   50.2201   35.9136   42.0759 H   0  0  0  0  0  0  0  0  0  0  0  0
   49.7299   34.0980   42.2011 H   0  0  0  0  0  0  0  0  0  0  0  0
   48.8724   35.9792   40.0230 H   0  0  0  0  0  0  0  0  0  0  0  0
   46.8397   31.9909   44.7695 H   0  0  0  0  0  0  0  0  0  0  0  0
   48.5516   33.4736   43.7120 H   0  0  0  0  0  0  0  0  0  0  0  0
   43.7743   34.1962   42.9289 H   0  0  0  0  0  0  0  0  0  0  0  0
   48.6556   35.6955   37.2773 H   0  0  0  0  0  0  0  0  0  0  0  0
   45.1673   31.4588   37.8078 Cl  0  0  0  0  0  0  0  0  0  0  0  0
   45.6252   32.4469   36.4306 C   0  0  0  0  0  0  0  0  0  0  0  0
   46.3294   33.6428   36.5467 C   0  0  0  0  0  0  0  0  0  0  0  0
   46.6141   34.3022   35.3786 C   0  0  0  0  0  0  0  0  0  0  0  0
   47.1709   35.2418   35.5115 H   0  0  0  0  0  0  0  0  0  0  0  0
   46.2355   33.8273   34.1549 C   0  0  0  0  0  0  0  0  0  0  0  0
   46.4894   34.3907   33.2841 H   0  0  0  0  0  0  0  0  0  0  0  0
   45.5346   32.6397   34.0222 C   0  0  0  0  0  0  0  0  0  0  0  0
   45.2332   31.9500   35.2006 C   0  0  0  0  0  0  0  0  0  0  0  0
   45.2613   32.3120   33.0354 H   0  0  0  0  0  0  0  0  0  0  0  0
   44.6853   31.0252   35.0718 H   0  0  0  0  0  0  0  0  0  0  0  0
  1  6  1  0
  2  1  1  0
  3  2  1  0
  3  1  1  0
  5  4  2  0
  6  5  1  0
  7  6  2  0
  7  8  1  0
  8  9  2  0
  9  4  1  0
 10  3  1  0
 11 12  2  0
 12 10  1  1
 13 12  1  0
 14 12  1  0
  1 15  1  6
  2 16  1  0
  2 17  1  0
  3 18  1  6
  4 19  1  0
  5 20  1  0
  8 21  1  0
 13 22  1  0
 23 24  1  0
 24 25  2  0
 25 26  1  0
 26 27  1  0
 26 28  2  0
 28 29  1  0
 28 30  1  0
 30 31  2  0
 31 24  1  0
 30 32  1  0
 31 33  1  0
 14 25  1  0
M  ISO  8  15  13  16  13  17  13  18  13  19  14  20  14  21  14  22   3
M  ISO  2  27  15  29  16
M  END
>  <DihAtoms>  (1) 
11,13,24,23

>  <DihDeg>  (1) 
-179.99885676590443

$$$$
