
 OpenBabel03242513403D

 40 43  0  0  0  0  0  0  0  0999 V2000
   47.7840   31.0780   45.9780 C   0  0  0  0  0  0  0  0  0  0  0  0
   47.0200   32.0830   45.4450 C   0  0  0  0  0  0  0  0  0  0  0  0
   45.9510   32.5370   46.1930 C   0  0  0  0  0  0  0  0  0  0  0  0
   45.6410   32.0190   47.4290 C   0  0  0  0  0  0  0  0  0  0  0  0
   44.7000   32.2260   48.3880 N   0  0  0  0  0  0  0  0  0  0  0  0
   44.9010   31.3870   49.4300 C   0  0  0  0  0  0  0  0  0  0  0  0
   45.9830   30.6450   49.1160 N   0  0  0  0  0  0  0  0  0  0  0  0
   46.4460   31.0140   47.9060 C   0  0  0  0  0  0  0  0  0  0  0  0
   47.5130   30.5270   47.2140 C   0  0  0  0  0  0  0  0  0  0  0  0
   48.6210   30.7310   45.3820 H   0  0  0  0  0  0  0  0  0  0  0  0
   45.3150   33.3350   45.8090 H   0  0  0  0  0  0  0  0  0  0  0  0
   43.9590   32.9340   48.2910 H   0  0  0  0  0  0  0  0  0  0  0  0
   44.3350   31.2960   50.3470 H   0  0  0  0  0  0  0  0  0  0  0  0
   47.2680   34.4260   42.6540 C   0  0  0  0  0  0  0  0  0  0  0  0
   47.9100   33.6760   41.6640 C   0  0  0  0  0  0  0  0  0  0  0  0
   48.2460   32.3540   42.0030 C   0  0  0  0  0  0  0  0  0  0  0  0
   47.9440   31.8640   43.2360 N   0  0  0  0  0  0  0  0  0  0  0  0
   47.3190   32.6530   44.1430 C   0  0  0  0  0  0  0  0  0  0  0  0
   46.9850   33.9100   43.8630 N   0  0  0  0  0  0  0  0  0  0  0  0
   46.9570   35.4590   42.5210 H   0  0  0  0  0  0  0  0  0  0  0  0
   48.7390   31.7830   41.2380 H   0  0  0  0  0  0  0  0  0  0  0  0
   48.1880   34.3200   40.3530 C   0  0  0  0  0  0  0  0  0  0  0  0
   48.7230   35.5400   40.6640 F   0  0  0  0  0  0  0  0  0  0  0  0
   46.9950   34.4660   39.6950 F   0  0  0  0  0  0  0  0  0  0  0  0
   49.0560   33.4970   39.6510 F   0  0  0  0  0  0  0  0  0  0  0  0
   48.2890   29.5080   47.7520 O   0  0  0  0  0  0  0  0  0  0  0  0
   49.8940   28.3210   49.4100 O   0  0  0  0  0  0  0  0  0  0  0  0
   49.4630   29.7140   48.9490 P   0  0  2  0  0  0  0  0  0  0  0  0
   48.6920   30.4400   50.2860 O   0  0  0  0  0  0  0  0  0  0  0  0
   49.0500   31.3530   50.4370 H   0  0  0  0  0  0  0  0  0  0  0  0
   50.7850   30.6110   48.4790 O   0  0  0  0  0  0  0  0  0  0  0  0
   53.2010   29.2740   49.3800 Cl  0  0  0  0  0  0  0  0  0  0  0  0
   52.6210   30.8470   49.9040 C   0  0  0  0  0  0  0  0  0  0  0  0
   51.4550   31.3950   49.4100 C   0  0  0  0  0  0  0  0  0  0  0  0
   51.0670   32.6380   49.8720 C   0  0  0  0  0  0  0  0  0  0  0  0
   50.1470   33.0300   49.4610 H   0  0  0  0  0  0  0  0  0  0  0  0
   51.8330   33.3080   50.8040 C   0  0  0  0  0  0  0  0  0  0  0  0
   51.5270   34.2760   51.1630 H   0  0  0  0  0  0  0  0  0  0  0  0
   52.9950   32.7370   51.2810 C   0  0  0  0  0  0  0  0  0  0  0  0
   53.4320   31.4820   50.8470 C   0  0  0  0  0  0  0  0  0  0  0  0
  1  9  1  0  0  0  0
  2  1  2  0  0  0  0
  2  3  1  0  0  0  0
  3  4  2  0  0  0  0
  4  8  1  0  0  0  0
  4  5  1  0  0  0  0
  5  6  1  0  0  0  0
  6 13  1  0  0  0  0
  7  6  2  0  0  0  0
  8  7  1  0  0  0  0
  9 26  1  0  0  0  0
  9  8  2  0  0  0  0
 10  1  1  0  0  0  0
 11  3  1  0  0  0  0
 12  5  1  0  0  0  0
 14 19  1  0  0  0  0
 15 16  1  0  0  0  0
 15 14  2  0  0  0  0
 16 17  2  0  0  0  0
 17 18  1  0  0  0  0
 18  2  1  0  0  0  0
 19 18  2  0  0  0  0
 20 14  1  0  0  0  0
 21 16  1  0  0  0  0
 22 23  1  0  0  0  0
 22 15  1  0  0  0  0
 24 22  1  0  0  0  0
 25 22  1  0  0  0  0
 26 28  1  0  0  0  0
 28 27  2  1  0  0  0
 28 29  1  0  0  0  0
 29 30  1  0  0  0  0
 31 28  1  0  0  0  0
 31 34  1  0  0  0  0
 32 33  1  0  0  0  0
 33 40  1  0  0  0  0
 34 35  1  0  0  0  0
 34 33  2  0  0  0  0
 35 37  2  0  0  0  0
 36 35  1  0  0  0  0
 37 38  1  0  0  0  0
 37 39  1  0  0  0  0
 40 39  2  0  0  0  0
M  END
>  <minimizedAffinity>
-6.28583813

>  <minimizedRMSD>
2.6483674

$$$$
