
 OpenBabel03252509273D

 30 32  0  0  1  0  0  0  0  0999 V2000
   36.3390   29.7730   40.7930 C   0  0  1  0  0  0  0  0  0  0  0  0
   35.0600   28.9220   40.5670 C   0  0  0  0  0  0  0  0  0  0  0  0
   36.4550   28.3940   41.0330 C   0  0  2  0  0  0  0  0  0  0  0  0
   36.2320   30.5310   41.5970 H   0  0  0  0  0  0  0  0  0  0  0  0
   34.3200   29.0240   41.3800 H   0  0  0  0  0  0  0  0  0  0  0  0
   34.7440   28.6910   39.5470 H   0  0  0  0  0  0  0  0  0  0  0  0
   36.9120   27.7130   40.2530 H   0  0  0  0  0  0  0  0  0  0  0  0
   37.5770   32.1310   38.1470 C   0  0  0  0  0  0  0  0  0  0  0  0
   37.0620   31.6880   39.3950 C   0  0  0  0  0  0  0  0  0  0  0  0
   36.8210   30.3570   39.4830 C   0  0  0  0  0  0  0  0  0  0  0  0
   37.0550   29.4880   38.4310 N   0  0  0  0  0  0  0  0  0  0  0  0
   37.5480   29.9650   37.2610 C   0  0  0  0  0  0  0  0  0  0  0  0
   37.8070   31.2840   37.1210 N   0  0  0  0  0  0  0  0  0  0  0  0
   37.7900   33.1850   38.0200 H   0  0  0  0  0  0  0  0  0  0  0  0
   37.6850   29.1840   36.5250 H   0  0  0  0  0  0  0  0  0  0  0  0
   36.7880   32.5700   40.4510 N   0  0  0  0  0  0  0  0  0  0  0  0
   37.5810   32.4230   41.1070 H   0  0  0  0  0  0  0  0  0  0  0  0
   35.9720   33.2390   40.5740 H   0  0  0  0  0  0  0  0  0  0  0  0
   36.5660   27.8390   42.4330 C   0  0  0  0  0  0  0  0  0  0  0  0
   37.0010   28.5820   43.1390 H   0  0  0  0  0  0  0  0  0  0  0  0
   35.5460   27.6060   42.8070 H   0  0  0  0  0  0  0  0  0  0  0  0
   39.3760   28.3070   43.1850 Cl  0  0  0  0  0  0  0  0  0  0  0  0
   38.6550   26.7690   42.7630 C   0  0  0  0  0  0  0  0  0  0  0  0
   37.3200   26.5720   42.4100 C   0  0  0  0  0  0  0  0  0  0  0  0
   36.8870   25.3030   42.1010 C   0  0  0  0  0  0  0  0  0  0  0  0
   35.8430   25.2820   41.8460 H   0  0  0  0  0  0  0  0  0  0  0  0
   37.7640   24.2390   42.1390 C   0  0  0  0  0  0  0  0  0  0  0  0
   37.3340   23.2800   41.8810 H   0  0  0  0  0  0  0  0  0  0  0  0
   39.1000   24.4330   42.4930 C   0  0  0  0  0  3  0  0  0  0  0  0
   39.5480   25.7000   42.8050 C   0  0  0  0  0  3  0  0  0  0  0  0
  1  3  1  0  0  0  0
  1  4  1  1  0  0  0
  2  1  1  0  0  0  0
  2  3  1  0  0  0  0
  2  5  1  0  0  0  0
  3  7  1  6  0  0  0
  3 19  1  0  0  0  0
  6  2  1  0  0  0  0
  8  9  1  0  0  0  0
  9 10  2  0  0  0  0
  9 16  1  0  0  0  0
 10  1  1  0  0  0  0
 11 10  1  0  0  0  0
 12 11  2  0  0  0  0
 13 12  1  0  0  0  0
 13  8  2  0  0  0  0
 14  8  1  0  0  0  0
 15 12  1  0  0  0  0
 16 18  1  0  0  0  0
 16 17  1  0  0  0  0
 19 21  1  0  0  0  0
 19 20  1  0  0  0  0
 23 30  1  0  0  0  0
 23 22  1  0  0  0  0
 24 19  1  0  0  0  0
 24 23  2  0  0  0  0
 25 27  2  0  0  0  0
 25 24  1  0  0  0  0
 26 25  1  0  0  0  0
 27 29  1  0  0  0  0
 28 27  1  0  0  0  0
 29 30  2  0  0  0  0
M  END
>  <minimizedAffinity>
-5.71535587

$$$$

 OpenBabel03252509273D

 30 32  0  0  1  0  0  0  0  0999 V2000
   37.1440   26.6810   42.3380 C   0  0  1  0  0  0  0  0  0  0  0  0
   36.3990   27.4090   43.4890 C   0  0  0  0  0  0  0  0  0  0  0  0
   36.8640   28.0430   42.1400 C   0  0  2  0  0  0  0  0  0  0  0  0
   36.5560   25.8600   41.8780 H   0  0  0  0  0  0  0  0  0  0  0  0
   35.3220   27.1710   43.5300 H   0  0  0  0  0  0  0  0  0  0  0  0
   36.9470   27.6800   44.3940 H   0  0  0  0  0  0  0  0  0  0  0  0
   37.6660   28.8240   42.3130 H   0  0  0  0  0  0  0  0  0  0  0  0
   40.2340   24.6620   43.0230 C   0  0  0  0  0  0  0  0  0  0  0  0
   38.9010   24.9570   42.6310 C   0  0  0  0  0  0  0  0  0  0  0  0
   38.5210   26.2480   42.7920 C   0  0  0  0  0  0  0  0  0  0  0  0
   39.3690   27.2140   43.3080 N   0  0  0  0  0  0  0  0  0  0  0  0
   40.6320   26.8780   43.6670 C   0  0  0  0  0  0  0  0  0  0  0  0
   41.0630   25.6040   43.5250 N   0  0  0  0  0  0  0  0  0  0  0  0
   40.5930   23.6470   42.9150 H   0  0  0  0  0  0  0  0  0  0  0  0
   41.1870   27.7220   44.0530 H   0  0  0  0  0  0  0  0  0  0  0  0
   38.0270   23.9750   42.1430 N   0  0  0  0  0  0  0  0  0  0  0  0
   38.0100   24.1460   41.1180 H   0  0  0  0  0  0  0  0  0  0  0  0
   37.4960   23.2230   42.6740 H   0  0  0  0  0  0  0  0  0  0  0  0
   35.8000   28.5030   41.1720 C   0  0  0  0  0  0  0  0  0  0  0  0
   35.4940   27.6890   40.4770 H   0  0  0  0  0  0  0  0  0  0  0  0
   34.8920   28.7850   41.7480 H   0  0  0  0  0  0  0  0  0  0  0  0
   36.0820   27.9510   38.2920 Cl  0  0  0  0  0  0  0  0  0  0  0  0
   36.3980   29.4740   39.0950 C   0  0  0  0  0  0  0  0  0  0  0  0
   36.2570   29.7110   40.4630 C   0  0  0  0  0  0  0  0  0  0  0  0
   36.5420   30.9620   40.9600 C   0  0  0  0  0  0  0  0  0  0  0  0
   36.3950   31.0180   42.0230 H   0  0  0  0  0  0  0  0  0  0  0  0
   36.9620   31.9690   40.1150 C   0  0  0  0  0  0  0  0  0  0  0  0
   37.1620   32.9170   40.5960 H   0  0  0  0  0  0  0  0  0  0  0  0
   37.1030   31.7340   38.7470 C   0  0  0  0  0  3  0  0  0  0  0  0
   36.8220   30.4850   38.2350 C   0  0  0  0  0  3  0  0  0  0  0  0
  1  4  1  6  0  0  0
  1 10  1  0  0  0  0
  1  2  1  0  0  0  0
  2  5  1  0  0  0  0
  2  6  1  0  0  0  0
  3  7  1  1  0  0  0
  3  1  1  0  0  0  0
  3  2  1  0  0  0  0
  8 13  1  0  0  0  0
  9 10  1  0  0  0  0
  9  8  2  0  0  0  0
 10 11  2  0  0  0  0
 11 12  1  0  0  0  0
 12 15  1  0  0  0  0
 13 12  2  0  0  0  0
 14  8  1  0  0  0  0
 16  9  1  0  0  0  0
 16 18  1  0  0  0  0
 17 16  1  0  0  0  0
 19 21  1  0  0  0  0
 19  3  1  0  0  0  0
 20 19  1  0  0  0  0
 22 23  1  0  0  0  0
 23 24  1  0  0  0  0
 24 25  2  0  0  0  0
 24 19  1  0  0  0  0
 25 26  1  0  0  0  0
 27 28  1  0  0  0  0
 27 25  1  0  0  0  0
 29 27  2  0  0  0  0
 30 29  1  0  0  0  0
 30 23  2  0  0  0  0
M  END
>  <minimizedAffinity>
-5.6363821

$$$$

 OpenBabel03252509273D

 30 32  0  0  1  0  0  0  0  0999 V2000
   36.0530   28.8300   40.1670 C   0  0  1  0  0  0  0  0  0  0  0  0
   36.2190   27.4570   39.4600 C   0  0  0  0  0  0  0  0  0  0  0  0
   36.9650   27.9340   40.7470 C   0  0  2  0  0  0  0  0  0  0  0  0
   35.0290   29.0060   40.5590 H   0  0  0  0  0  0  0  0  0  0  0  0
   35.3820   26.7640   39.6520 H   0  0  0  0  0  0  0  0  0  0  0  0
   36.7920   27.3990   38.5320 H   0  0  0  0  0  0  0  0  0  0  0  0
   38.0760   28.0430   40.5560 H   0  0  0  0  0  0  0  0  0  0  0  0
   37.1500   32.1760   38.8680 C   0  0  0  0  0  0  0  0  0  0  0  0
   36.6050   31.2110   39.7560 C   0  0  0  0  0  0  0  0  0  0  0  0
   36.5500   29.9450   39.2740 C   0  0  0  0  0  0  0  0  0  0  0  0
   36.9880   29.6140   38.0030 N   0  0  0  0  0  0  0  0  0  0  0  0
   37.5000   30.5760   37.1960 C   0  0  0  0  0  0  0  0  0  0  0  0
   37.5800   31.8550   37.6290 N   0  0  0  0  0  0  0  0  0  0  0  0
   37.2220   33.2050   39.2010 H   0  0  0  0  0  0  0  0  0  0  0  0
   37.8050   30.1850   36.2350 H   0  0  0  0  0  0  0  0  0  0  0  0
   36.1260   31.5480   41.0310 N   0  0  0  0  0  0  0  0  0  0  0  0
   36.8760   31.2220   41.6710 H   0  0  0  0  0  0  0  0  0  0  0  0
   35.2160   32.0240   41.3020 H   0  0  0  0  0  0  0  0  0  0  0  0
   36.6620   27.2200   42.0430 C   0  0  0  0  0  0  0  0  0  0  0  0
   36.1950   27.9000   42.7900 H   0  0  0  0  0  0  0  0  0  0  0  0
   35.9230   26.4140   41.8420 H   0  0  0  0  0  0  0  0  0  0  0  0
   36.7170   24.3810   41.2580 Cl  0  0  0  0  0  0  0  0  0  0  0  0
   37.9310   25.2240   42.1950 C   0  0  0  0  0  0  0  0  0  0  0  0
   37.8830   26.5710   42.5540 C   0  0  0  0  0  0  0  0  0  0  0  0
   38.9110   27.1050   43.2960 C   0  0  0  0  0  0  0  0  0  0  0  0
   38.7590   28.1480   43.5090 H   0  0  0  0  0  0  0  0  0  0  0  0
   39.9770   26.3170   43.6800 C   0  0  0  0  0  0  0  0  0  0  0  0
   40.7370   26.8230   44.2600 H   0  0  0  0  0  0  0  0  0  0  0  0
   40.0270   24.9690   43.3200 C   0  0  0  0  0  3  0  0  0  0  0  0
   39.0030   24.4200   42.5770 C   0  0  0  0  0  3  0  0  0  0  0  0
  1  4  1  1  0  0  0
  1  3  1  0  0  0  0
  2  5  1  0  0  0  0
  2  1  1  0  0  0  0
  2  3  1  0  0  0  0
  3  7  1  6  0  0  0
  3 19  1  0  0  0  0
  6  2  1  0  0  0  0
  8 14  1  0  0  0  0
  8  9  1  0  0  0  0
  9 16  1  0  0  0  0
 10  9  2  0  0  0  0
 10  1  1  0  0  0  0
 11 10  1  0  0  0  0
 12 13  1  0  0  0  0
 12 11  2  0  0  0  0
 13  8  2  0  0  0  0
 15 12  1  0  0  0  0
 16 18  1  0  0  0  0
 16 17  1  0  0  0  0
 19 24  1  0  0  0  0
 19 20  1  0  0  0  0
 21 19  1  0  0  0  0
 22 23  1  0  0  0  0
 23 24  2  0  0  0  0
 23 30  1  0  0  0  0
 24 25  1  0  0  0  0
 25 26  1  0  0  0  0
 25 27  2  0  0  0  0
 27 28  1  0  0  0  0
 29 27  1  0  0  0  0
 30 29  2  0  0  0  0
M  END
>  <minimizedAffinity>
-5.57729006

$$$$

 OpenBabel03252509273D

 30 32  0  0  1  0  0  0  0  0999 V2000
   37.5450   32.1580   39.8440 C   0  0  1  0  0  0  0  0  0  0  0  0
   37.0200   31.2400   38.7060 C   0  0  0  0  0  0  0  0  0  0  0  0
   37.4220   30.7920   40.1480 C   0  0  2  0  0  0  0  0  0  0  0  0
   36.8130   32.9280   40.1660 H   0  0  0  0  0  0  0  0  0  0  0  0
   35.9310   31.3250   38.5460 H   0  0  0  0  0  0  0  0  0  0  0  0
   37.6880   30.9710   37.8850 H   0  0  0  0  0  0  0  0  0  0  0  0
   38.3310   30.1160   40.1240 H   0  0  0  0  0  0  0  0  0  0  0  0
   40.7690   34.0790   39.8960 C   0  0  0  0  0  0  0  0  0  0  0  0
   39.4740   33.6490   40.2890 C   0  0  0  0  0  0  0  0  0  0  0  0
   38.8940   32.7340   39.4750 C   0  0  0  0  0  0  0  0  0  0  0  0
   39.5170   32.2530   38.3360 N   0  0  0  0  0  0  0  0  0  0  0  0
   40.7550   32.6980   38.0060 C   0  0  0  0  0  0  0  0  0  0  0  0
   41.3790   33.6100   38.7860 N   0  0  0  0  0  0  0  0  0  0  0  0
   41.2820   34.8090   40.5110 H   0  0  0  0  0  0  0  0  0  0  0  0
   41.1260   32.2440   37.0980 H   0  0  0  0  0  0  0  0  0  0  0  0
   38.8240   34.1610   41.4220 N   0  0  0  0  0  0  0  0  0  0  0  0
   38.9230   33.4040   42.1270 H   0  0  0  0  0  0  0  0  0  0  0  0
   38.3390   35.0970   41.5540 H   0  0  0  0  0  0  0  0  0  0  0  0
   36.3320   30.2750   41.0550 C   0  0  0  0  0  0  0  0  0  0  0  0
   35.9550   31.0680   41.7400 H   0  0  0  0  0  0  0  0  0  0  0  0
   35.4680   29.9580   40.4310 H   0  0  0  0  0  0  0  0  0  0  0  0
   35.8260   27.8480   39.4640 Cl  0  0  0  0  0  0  0  0  0  0  0  0
   36.5770   27.9180   41.0430 C   0  0  0  0  0  0  0  0  0  0  0  0
   36.8070   29.0820   41.7780 C   0  0  0  0  0  0  0  0  0  0  0  0
   37.4090   28.9880   43.0120 C   0  0  0  0  0  0  0  0  0  0  0  0
   37.5300   29.9500   43.4770 H   0  0  0  0  0  0  0  0  0  0  0  0
   37.7810   27.7590   43.5150 C   0  0  0  0  0  0  0  0  0  0  0  0
   38.2470   27.7840   44.4910 H   0  0  0  0  0  0  0  0  0  0  0  0
   37.5530   26.5940   42.7810 C   0  0  0  0  0  3  0  0  0  0  0  0
   36.9490   26.6720   41.5440 C   0  0  0  0  0  3  0  0  0  0  0  0
  1  3  1  0  0  0  0
  1  4  1  1  0  0  0
  2  1  1  0  0  0  0
  2  3  1  0  0  0  0
  3  7  1  1  0  0  0
  3 19  1  0  0  0  0
  5  2  1  0  0  0  0
  6  2  1  0  0  0  0
  8  9  1  0  0  0  0
  8 14  1  0  0  0  0
  9 16  1  0  0  0  0
 10  1  1  0  0  0  0
 10  9  2  0  0  0  0
 11 10  1  0  0  0  0
 12 11  2  0  0  0  0
 12 13  1  0  0  0  0
 13  8  2  0  0  0  0
 15 12  1  0  0  0  0
 16 18  1  0  0  0  0
 16 17  1  0  0  0  0
 19 20  1  0  0  0  0
 19 24  1  0  0  0  0
 21 19  1  0  0  0  0
 22 23  1  0  0  0  0
 23 30  2  0  0  0  0
 23 24  1  0  0  0  0
 24 25  2  0  0  0  0
 25 26  1  0  0  0  0
 25 27  1  0  0  0  0
 27 28  1  0  0  0  0
 29 27  2  0  0  0  0
 30 29  1  0  0  0  0
M  END
>  <minimizedAffinity>
-5.55501699

$$$$

 OpenBabel03252509273D

 30 32  0  0  1  0  0  0  0  0999 V2000
   37.0270   31.2860   40.5100 C   0  0  1  0  0  0  0  0  0  0  0  0
   36.7680   30.6270   39.1280 C   0  0  0  0  0  0  0  0  0  0  0  0
   37.1230   29.8870   40.4560 C   0  0  2  0  0  0  0  0  0  0  0  0
   36.1460   31.8270   40.9150 H   0  0  0  0  0  0  0  0  0  0  0  0
   35.6990   30.5860   38.8580 H   0  0  0  0  0  0  0  0  0  0  0  0
   37.5390   30.6840   38.3560 H   0  0  0  0  0  0  0  0  0  0  0  0
   38.1350   29.3840   40.3830 H   0  0  0  0  0  0  0  0  0  0  0  0
   39.4120   34.1550   40.0940 C   0  0  0  0  0  0  0  0  0  0  0  0
   38.1980   33.4190   40.0370 C   0  0  0  0  0  0  0  0  0  0  0  0
   38.2780   32.1340   40.4630 C   0  0  0  0  0  0  0  0  0  0  0  0
   39.4600   31.5750   40.9190 N   0  0  0  0  0  0  0  0  0  0  0  0
   40.5900   32.3230   40.9520 C   0  0  0  0  0  0  0  0  0  0  0  0
   40.5650   33.6110   40.5400 N   0  0  0  0  0  0  0  0  0  0  0  0
   39.4070   35.1880   39.7680 H   0  0  0  0  0  0  0  0  0  0  0  0
   41.4390   31.7680   41.3290 H   0  0  0  0  0  0  0  0  0  0  0  0
   37.0080   33.9700   39.5410 N   0  0  0  0  0  0  0  0  0  0  0  0
   36.4540   34.1710   40.3970 H   0  0  0  0  0  0  0  0  0  0  0  0
   36.7180   34.1500   38.5350 H   0  0  0  0  0  0  0  0  0  0  0  0
   36.0700   28.9940   41.0680 C   0  0  0  0  0  0  0  0  0  0  0  0
   35.8490   29.2790   42.1220 H   0  0  0  0  0  0  0  0  0  0  0  0
   35.1220   29.1190   40.5010 H   0  0  0  0  0  0  0  0  0  0  0  0
   36.9140   27.9220   43.6790 Cl  0  0  0  0  0  0  0  0  0  0  0  0
   36.8760   27.0520   42.1610 C   0  0  0  0  0  0  0  0  0  0  0  0
   36.4710   27.5820   40.9360 C   0  0  0  0  0  0  0  0  0  0  0  0
   36.4920   26.7800   39.8180 C   0  0  0  0  0  0  0  0  0  0  0  0
   36.1590   27.3020   38.9390 H   0  0  0  0  0  0  0  0  0  0  0  0
   36.9090   25.4680   39.9090 C   0  0  0  0  0  0  0  0  0  0  0  0
   36.8910   24.9160   38.9790 H   0  0  0  0  0  0  0  0  0  0  0  0
   37.3130   24.9360   41.1340 C   0  0  0  0  0  3  0  0  0  0  0  0
   37.2990   25.7280   42.2620 C   0  0  0  0  0  3  0  0  0  0  0  0
  1  4  1  1  0  0  0
  2  3  1  0  0  0  0
  2  1  1  0  0  0  0
  3  7  1  1  0  0  0
  3  1  1  0  0  0  0
  3 19  1  0  0  0  0
  5  2  1  0  0  0  0
  6  2  1  0  0  0  0
  8 13  1  0  0  0  0
  9  8  2  0  0  0  0
  9 10  1  0  0  0  0
 10  1  1  0  0  0  0
 10 11  2  0  0  0  0
 11 12  1  0  0  0  0
 12 15  1  0  0  0  0
 13 12  2  0  0  0  0
 14  8  1  0  0  0  0
 16  9  1  0  0  0  0
 16 17  1  0  0  0  0
 18 16  1  0  0  0  0
 19 20  1  0  0  0  0
 21 19  1  0  0  0  0
 23 30  1  0  0  0  0
 23 22  1  0  0  0  0
 24 19  1  0  0  0  0
 24 23  2  0  0  0  0
 25 27  2  0  0  0  0
 25 24  1  0  0  0  0
 26 25  1  0  0  0  0
 27 29  1  0  0  0  0
 28 27  1  0  0  0  0
 29 30  2  0  0  0  0
M  END
>  <minimizedAffinity>
-5.52145576

$$$$

 OpenBabel03252509273D

 30 32  0  0  1  0  0  0  0  0999 V2000
   37.8520   32.1470   39.9720 C   0  0  1  0  0  0  0  0  0  0  0  0
   36.9140   31.3360   39.0380 C   0  0  0  0  0  0  0  0  0  0  0  0
   37.6460   30.7990   40.3090 C   0  0  2  0  0  0  0  0  0  0  0  0
   37.3470   32.9920   40.4840 H   0  0  0  0  0  0  0  0  0  0  0  0
   35.8450   31.5610   39.1930 H   0  0  0  0  0  0  0  0  0  0  0  0
   37.2820   31.0100   38.0630 H   0  0  0  0  0  0  0  0  0  0  0  0
   38.4160   30.0160   40.0330 H   0  0  0  0  0  0  0  0  0  0  0  0
   41.1120   33.7590   39.0420 C   0  0  0  0  0  0  0  0  0  0  0  0
   39.9280   33.4880   39.7780 C   0  0  0  0  0  0  0  0  0  0  0  0
   39.1050   32.5600   39.2310 C   0  0  0  0  0  0  0  0  0  0  0  0
   39.3930   31.9230   38.0360 N   0  0  0  0  0  0  0  0  0  0  0  0
   40.5380   32.2200   37.3740 C   0  0  0  0  0  0  0  0  0  0  0  0
   41.3960   33.1370   37.8770 N   0  0  0  0  0  0  0  0  0  0  0  0
   41.8080   34.4910   39.4320 H   0  0  0  0  0  0  0  0  0  0  0  0
   40.6420   31.6530   36.4590 H   0  0  0  0  0  0  0  0  0  0  0  0
   39.6140   34.1580   40.9700 N   0  0  0  0  0  0  0  0  0  0  0  0
   39.8320   33.4610   41.7100 H   0  0  0  0  0  0  0  0  0  0  0  0
   39.2410   35.1430   41.1090 H   0  0  0  0  0  0  0  0  0  0  0  0
   36.8000   30.3960   41.4930 C   0  0  0  0  0  0  0  0  0  0  0  0
   36.8040   31.1760   42.2880 H   0  0  0  0  0  0  0  0  0  0  0  0
   35.7460   30.2900   41.1580 H   0  0  0  0  0  0  0  0  0  0  0  0
   39.3650   30.6330   42.9230 Cl  0  0  0  0  0  0  0  0  0  0  0  0
   38.4460   29.1650   42.6730 C   0  0  0  0  0  0  0  0  0  0  0  0
   37.2320   29.0780   41.9910 C   0  0  0  0  0  0  0  0  0  0  0  0
   36.6170   27.8530   41.8700 C   0  0  0  0  0  0  0  0  0  0  0  0
   35.6920   27.9170   41.3260 H   0  0  0  0  0  0  0  0  0  0  0  0
   37.1950   26.7250   42.4150 C   0  0  0  0  0  0  0  0  0  0  0  0
   36.6390   25.8090   42.2690 H   0  0  0  0  0  0  0  0  0  0  0  0
   38.4090   26.8110   43.0980 C   0  0  0  0  0  3  0  0  0  0  0  0
   39.0370   28.0320   43.2270 C   0  0  0  0  0  3  0  0  0  0  0  0
  1  3  1  0  0  0  0
  1  4  1  1  0  0  0
  2  5  1  0  0  0  0
  2  1  1  0  0  0  0
  2  3  1  0  0  0  0
  3  7  1  6  0  0  0
  3 19  1  0  0  0  0
  6  2  1  0  0  0  0
  8 14  1  0  0  0  0
  8  9  1  0  0  0  0
  9 16  1  0  0  0  0
 10  9  2  0  0  0  0
 10  1  1  0  0  0  0
 11 10  1  0  0  0  0
 12 13  1  0  0  0  0
 12 11  2  0  0  0  0
 13  8  2  0  0  0  0
 15 12  1  0  0  0  0
 16 18  1  0  0  0  0
 16 17  1  0  0  0  0
 19 24  1  0  0  0  0
 19 20  1  0  0  0  0
 21 19  1  0  0  0  0
 23 22  1  0  0  0  0
 23 30  1  0  0  0  0
 24 23  2  0  0  0  0
 25 24  1  0  0  0  0
 25 27  2  0  0  0  0
 26 25  1  0  0  0  0
 27 29  1  0  0  0  0
 28 27  1  0  0  0  0
 29 30  2  0  0  0  0
M  END
>  <minimizedAffinity>
-5.31185818

$$$$

 OpenBabel03252509273D

 30 32  0  0  1  0  0  0  0  0999 V2000
   38.5240   30.1590   41.0920 C   0  0  1  0  0  0  0  0  0  0  0  0
   38.9400   29.8470   42.5550 C   0  0  0  0  0  0  0  0  0  0  0  0
   37.4820   29.9080   41.9990 C   0  0  2  0  0  0  0  0  0  0  0  0
   38.8930   29.4140   40.3570 H   0  0  0  0  0  0  0  0  0  0  0  0
   39.3310   28.8240   42.6880 H   0  0  0  0  0  0  0  0  0  0  0  0
   39.2720   30.6620   43.2030 H   0  0  0  0  0  0  0  0  0  0  0  0
   36.9060   30.7660   42.4620 H   0  0  0  0  0  0  0  0  0  0  0  0
   38.3480   33.8180   40.2700 C   0  0  0  0  0  0  0  0  0  0  0  0
   37.9060   32.4940   40.5330 C   0  0  0  0  0  0  0  0  0  0  0  0
   38.8900   31.5830   40.7340 C   0  0  0  0  0  0  0  0  0  0  0  0
   40.2330   31.9160   40.6810 N   0  0  0  0  0  0  0  0  0  0  0  0
   40.6000   33.1960   40.4260 C   0  0  0  0  0  0  0  0  0  0  0  0
   39.6580   34.1440   40.2200 N   0  0  0  0  0  0  0  0  0  0  0  0
   37.6060   34.5890   40.1040 H   0  0  0  0  0  0  0  0  0  0  0  0
   41.6740   33.3200   40.4140 H   0  0  0  0  0  0  0  0  0  0  0  0
   36.5480   32.1450   40.5510 N   0  0  0  0  0  0  0  0  0  0  0  0
   36.3270   32.0610   41.5630 H   0  0  0  0  0  0  0  0  0  0  0  0
   35.8810   31.9960   39.7370 H   0  0  0  0  0  0  0  0  0  0  0  0
   36.6880   28.6240   41.9600 C   0  0  0  0  0  0  0  0  0  0  0  0
   37.3200   27.7400   42.2020 H   0  0  0  0  0  0  0  0  0  0  0  0
   35.8960   28.6700   42.7390 H   0  0  0  0  0  0  0  0  0  0  0  0
   37.8820   26.4320   40.3960 Cl  0  0  0  0  0  0  0  0  0  0  0  0
   36.5570   27.4620   39.8990 C   0  0  0  0  0  0  0  0  0  0  0  0
   36.0080   28.4950   40.6580 C   0  0  0  0  0  0  0  0  0  0  0  0
   34.9640   29.2270   40.1410 C   0  0  0  0  0  0  0  0  0  0  0  0
   34.6300   29.9910   40.8190 H   0  0  0  0  0  0  0  0  0  0  0  0
   34.4680   28.9420   38.8850 C   0  0  0  0  0  0  0  0  0  0  0  0
   33.6480   29.5690   38.5630 H   0  0  0  0  0  0  0  0  0  0  0  0
   35.0160   27.9080   38.1240 C   0  0  0  0  0  3  0  0  0  0  0  0
   36.0630   27.1670   38.6300 C   0  0  0  0  0  3  0  0  0  0  0  0
  1  4  1  6  0  0  0
  1  3  1  0  0  0  0
  1  2  1  0  0  0  0
  2  5  1  0  0  0  0
  2  6  1  0  0  0  0
  3  7  1  1  0  0  0
  3  2  1  0  0  0  0
  8  9  1  0  0  0  0
  9 16  1  0  0  0  0
  9 10  2  0  0  0  0
 10  1  1  0  0  0  0
 11 10  1  0  0  0  0
 12 11  2  0  0  0  0
 13  8  2  0  0  0  0
 13 12  1  0  0  0  0
 14  8  1  0  0  0  0
 15 12  1  0  0  0  0
 16 17  1  0  0  0  0
 18 16  1  0  0  0  0
 19  3  1  0  0  0  0
 19 20  1  0  0  0  0
 19 21  1  0  0  0  0
 23 22  1  0  0  0  0
 23 24  1  0  0  0  0
 24 19  1  0  0  0  0
 25 24  2  0  0  0  0
 25 26  1  0  0  0  0
 27 25  1  0  0  0  0
 28 27  1  0  0  0  0
 29 30  1  0  0  0  0
 29 27  2  0  0  0  0
 30 23  2  0  0  0  0
M  END
>  <minimizedAffinity>
-5.23566818

$$$$

 OpenBabel03252509273D

 30 32  0  0  1  0  0  0  0  0999 V2000
   37.1100   28.3100   42.3120 C   0  0  1  0  0  0  0  0  0  0  0  0
   36.3140   27.3960   43.2820 C   0  0  0  0  0  0  0  0  0  0  0  0
   37.7420   27.1210   42.7100 C   0  0  2  0  0  0  0  0  0  0  0  0
   37.3500   29.3070   42.7380 H   0  0  0  0  0  0  0  0  0  0  0  0
   36.3060   27.7650   44.3210 H   0  0  0  0  0  0  0  0  0  0  0  0
   35.4870   26.7960   42.8940 H   0  0  0  0  0  0  0  0  0  0  0  0
   37.7400   26.2160   42.0300 H   0  0  0  0  0  0  0  0  0  0  0  0
   35.2560   29.5420   39.2890 C   0  0  0  0  0  0  0  0  0  0  0  0
   35.8210   29.5450   40.5920 C   0  0  0  0  0  0  0  0  0  0  0  0
   36.4150   28.3870   40.9700 C   0  0  0  0  0  0  0  0  0  0  0  0
   36.4650   27.2750   40.1470 N   0  0  0  0  0  0  0  0  0  0  0  0
   35.9090   27.3250   38.9120 C   0  0  0  0  0  0  0  0  0  0  0  0
   35.3050   28.4580   38.4850 N   0  0  0  0  0  0  0  0  0  0  0  0
   34.7690   30.4410   38.9330 H   0  0  0  0  0  0  0  0  0  0  0  0
   36.0180   26.3930   38.3740 H   0  0  0  0  0  0  0  0  0  0  0  0
   35.7400   30.6580   41.4430 N   0  0  0  0  0  0  0  0  0  0  0  0
   36.6900   31.0760   41.3940 H   0  0  0  0  0  0  0  0  0  0  0  0
   34.9150   31.0100   42.0120 H   0  0  0  0  0  0  0  0  0  0  0  0
   38.9010   27.1230   43.6780 C   0  0  0  0  0  0  0  0  0  0  0  0
   38.7920   27.9160   44.4520 H   0  0  0  0  0  0  0  0  0  0  0  0
   38.9160   26.1520   44.2190 H   0  0  0  0  0  0  0  0  0  0  0  0
   39.9720   24.4390   43.1060 Cl  0  0  0  0  0  0  0  0  0  0  0  0
   40.6990   25.9660   42.6550 C   0  0  0  0  0  0  0  0  0  0  0  0
   40.1710   27.2260   42.9370 C   0  0  0  0  0  0  0  0  0  0  0  0
   40.8520   28.3470   42.5200 C   0  0  0  0  0  0  0  0  0  0  0  0
   40.3460   29.2540   42.7970 H   0  0  0  0  0  0  0  0  0  0  0  0
   42.0410   28.2250   41.8330 C   0  0  0  0  0  0  0  0  0  0  0  0
   42.5030   29.1600   41.5460 H   0  0  0  0  0  0  0  0  0  0  0  0
   42.5700   26.9650   41.5490 C   0  0  0  0  0  3  0  0  0  0  0  0
   41.9000   25.8330   41.9610 C   0  0  0  0  0  3  0  0  0  0  0  0
  1  3  1  0  0  0  0
  1  4  1  1  0  0  0
  1  2  1  0  0  0  0
  2  5  1  0  0  0  0
  3  7  1  6  0  0  0
  3  2  1  0  0  0  0
  3 19  1  0  0  0  0
  6  2  1  0  0  0  0
  8  9  1  0  0  0  0
  9 10  2  0  0  0  0
  9 16  1  0  0  0  0
 10  1  1  0  0  0  0
 11 10  1  0  0  0  0
 12 11  2  0  0  0  0
 13 12  1  0  0  0  0
 13  8  2  0  0  0  0
 14  8  1  0  0  0  0
 15 12  1  0  0  0  0
 16 18  1  0  0  0  0
 17 16  1  0  0  0  0
 19 21  1  0  0  0  0
 19 20  1  0  0  0  0
 23 24  1  0  0  0  0
 23 22  1  0  0  0  0
 24 19  1  0  0  0  0
 25 26  1  0  0  0  0
 25 24  2  0  0  0  0
 27 25  1  0  0  0  0
 28 27  1  0  0  0  0
 29 27  2  0  0  0  0
 29 30  1  0  0  0  0
 30 23  2  0  0  0  0
M  END
>  <minimizedAffinity>
-4.95384741

$$$$

 OpenBabel03252509273D

 30 32  0  0  1  0  0  0  0  0999 V2000
   35.8070   28.9810   38.4660 C   0  0  1  0  0  0  0  0  0  0  0  0
   36.0950   28.7070   36.9650 C   0  0  0  0  0  0  0  0  0  0  0  0
   36.6400   27.8880   38.1780 C   0  0  2  0  0  0  0  0  0  0  0  0
   34.7350   28.8820   38.7370 H   0  0  0  0  0  0  0  0  0  0  0  0
   35.2510   28.2300   36.4390 H   0  0  0  0  0  0  0  0  0  0  0  0
   36.7970   29.3500   36.4290 H   0  0  0  0  0  0  0  0  0  0  0  0
   37.7650   27.9870   38.2630 H   0  0  0  0  0  0  0  0  0  0  0  0
   36.9700   31.9210   40.4890 C   0  0  0  0  0  0  0  0  0  0  0  0
   36.3140   30.7010   40.1780 C   0  0  0  0  0  0  0  0  0  0  0  0
   36.4100   30.3040   38.8850 C   0  0  0  0  0  0  0  0  0  0  0  0
   37.0960   31.0370   37.9320 N   0  0  0  0  0  0  0  0  0  0  0  0
   37.7040   32.1970   38.2830 C   0  0  0  0  0  0  0  0  0  0  0  0
   37.6400   32.6370   39.5600 N   0  0  0  0  0  0  0  0  0  0  0  0
   36.9280   32.2870   41.5080 H   0  0  0  0  0  0  0  0  0  0  0  0
   38.2030   32.6680   37.4480 H   0  0  0  0  0  0  0  0  0  0  0  0
   35.5870   29.9740   41.1320 N   0  0  0  0  0  0  0  0  0  0  0  0
   36.2180   29.1840   41.3740 H   0  0  0  0  0  0  0  0  0  0  0  0
   34.6210   30.1640   41.5300 H   0  0  0  0  0  0  0  0  0  0  0  0
   36.1650   26.4630   38.3370 C   0  0  0  0  0  0  0  0  0  0  0  0
   35.0760   26.3660   38.1300 H   0  0  0  0  0  0  0  0  0  0  0  0
   36.6880   25.8270   37.5900 H   0  0  0  0  0  0  0  0  0  0  0  0
   35.5390   23.5930   38.5530 Cl  0  0  0  0  0  0  0  0  0  0  0  0
   36.2470   24.5990   39.7980 C   0  0  0  0  0  0  0  0  0  0  0  0
   36.5350   25.9580   39.6720 C   0  0  0  0  0  0  0  0  0  0  0  0
   37.0930   26.6280   40.7360 C   0  0  0  0  0  0  0  0  0  0  0  0
   37.2660   27.6660   40.5160 H   0  0  0  0  0  0  0  0  0  0  0  0
   37.3640   25.9630   41.9140 C   0  0  0  0  0  0  0  0  0  0  0  0
   37.8020   26.5700   42.6940 H   0  0  0  0  0  0  0  0  0  0  0  0
   37.0770   24.6020   42.0420 C   0  0  0  0  0  3  0  0  0  0  0  0
   36.5170   23.9190   40.9840 C   0  0  0  0  0  3  0  0  0  0  0  0
  1  4  1  1  0  0  0
  1 10  1  0  0  0  0
  2  3  1  0  0  0  0
  2  1  1  0  0  0  0
  3  7  1  1  0  0  0
  3 19  1  0  0  0  0
  3  1  1  0  0  0  0
  5  2  1  0  0  0  0
  6  2  1  0  0  0  0
  8 14  1  0  0  0  0
  9  8  1  0  0  0  0
  9 16  1  0  0  0  0
 10  9  2  0  0  0  0
 11 12  2  0  0  0  0
 11 10  1  0  0  0  0
 12 13  1  0  0  0  0
 13  8  2  0  0  0  0
 15 12  1  0  0  0  0
 16 17  1  0  0  0  0
 16 18  1  0  0  0  0
 19 24  1  0  0  0  0
 20 19  1  0  0  0  0
 21 19  1  0  0  0  0
 22 23  1  0  0  0  0
 23 30  1  0  0  0  0
 24 23  2  0  0  0  0
 24 25  1  0  0  0  0
 25 27  2  0  0  0  0
 26 25  1  0  0  0  0
 27 29  1  0  0  0  0
 27 28  1  0  0  0  0
 30 29  2  0  0  0  0
M  END
>  <minimizedAffinity>
-4.90230417

$$$$
