
 OpenBabel03242520083D

 49 53  0  0  1  0  0  0  0  0999 V2000
   35.2530   29.8640   40.2780 N   0  0  0  0  0  0  0  0  0  0  0  0
   36.1650   30.5830   41.0650 C   0  0  1  0  0  0  0  0  0  0  0  0
   36.9290   29.5970   41.9110 C   0  0  0  0  0  0  0  0  0  0  0  0
   37.6970   28.8150   40.9790 N   0  0  0  0  0  0  0  0  0  0  0  0
   36.8560   27.9800   40.1450 C   0  0  0  0  0  0  0  0  0  0  0  0
   35.6010   28.6510   39.6660 C   0  0  2  0  0  0  0  0  0  0  0  0
   34.3100   29.9010   40.7290 H   0  0  0  0  0  0  0  0  0  0  0  0
   35.6530   31.2770   41.7290 H   0  0  0  0  0  0  0  0  0  0  0  0
   37.5700   30.0580   42.6590 H   0  0  0  0  0  0  0  0  0  0  0  0
   36.1570   28.8980   42.3470 H   0  0  0  0  0  0  0  0  0  0  0  0
   38.4190   29.3350   40.4670 H   0  0  0  0  0  0  0  0  0  0  0  0
   37.5330   27.6500   39.3120 H   0  0  0  0  0  0  0  0  0  0  0  0
   36.6890   27.0550   40.7350 H   0  0  0  0  0  0  0  0  0  0  0  0
   34.7800   27.9250   39.9260 H   0  0  0  0  0  0  0  0  0  0  0  0
   39.0080   32.3260   39.8650 C   0  0  0  0  0  0  0  0  0  0  0  0
   38.1680   32.4620   38.7710 C   0  0  0  0  0  0  0  0  0  0  0  0
   37.0040   31.8400   39.0590 C   0  0  0  0  0  0  0  0  0  0  0  0
   37.1240   31.3300   40.3050 N   0  0  0  0  0  0  0  0  0  0  0  0
   38.3350   31.6340   40.7710 N   0  0  0  0  0  0  0  0  0  0  0  0
   38.3810   32.9720   37.8390 H   0  0  0  0  0  0  0  0  0  0  0  0
   36.1140   31.7320   38.4580 H   0  0  0  0  0  0  0  0  0  0  0  0
   42.3750   33.0690   41.1380 C   0  0  0  0  0  0  0  0  0  0  0  0
   42.9130   33.8770   40.1320 C   0  0  0  0  0  0  0  0  0  0  0  0
   42.1260   34.1560   39.0410 C   0  0  0  0  0  0  0  0  0  0  0  0
   40.8610   33.6280   38.9990 N   0  0  0  0  0  0  0  0  0  0  0  0
   40.3790   32.8530   39.9890 C   0  0  0  0  0  0  0  0  0  0  0  0
   41.1190   32.5600   41.0680 N   0  0  0  0  0  0  0  0  0  0  0  0
   43.0410   32.8830   41.9740 H   0  0  0  0  0  0  0  0  0  0  0  0
   43.9140   34.2740   40.2020 H   0  0  0  0  0  0  0  0  0  0  0  0
   42.4620   34.7770   38.2090 H   0  0  0  0  0  0  0  0  0  0  0  0
   35.7000   28.7500   38.1550 C   0  0  1  0  0  0  0  0  0  0  0  0
   35.2770   27.4910   37.3950 C   0  0  0  0  0  0  0  0  0  0  0  0
   34.5240   28.7590   37.2770 C   0  0  1  0  0  0  0  0  0  0  0  0
   36.6360   29.2070   37.7150 H   0  0  0  0  0  0  0  0  0  0  0  0
   35.8540   27.1850   36.4960 H   0  0  0  0  0  0  0  0  0  0  0  0
   34.8010   26.6700   37.9710 H   0  0  0  0  0  0  0  0  0  0  0  0
   34.5850   29.3650   36.3260 H   0  0  0  0  0  0  0  0  0  0  0  0
   33.1300   28.9060   37.8830 C   0  0  0  0  0  0  0  0  0  0  0  0
   33.1590   29.4970   38.8210 H   0  0  0  0  0  0  0  0  0  0  0  0
   32.7410   27.8780   38.0050 H   0  0  0  0  0  0  0  0  0  0  0  0
   30.4450   30.0340   38.8470 Cl  0  0  0  0  0  0  0  0  0  0  0  0
   30.9920   30.1210   37.1870 C   0  0  0  0  0  0  0  0  0  0  0  0
   32.2200   29.5750   36.8820 C   0  0  0  0  0  0  0  0  0  0  0  0
   32.5930   29.6800   35.5380 C   0  0  0  0  0  0  0  0  0  0  0  0
   33.5680   29.2520   35.2770 H   0  0  0  0  0  0  0  0  0  0  0  0
   31.8810   30.2530   34.5340 C   0  0  0  0  0  0  0  0  0  0  0  0
   32.2700   30.2760   33.5260 H   0  0  0  0  0  0  0  0  0  0  0  0
   30.6590   30.7840   34.8900 C   0  0  0  0  0  3  0  0  0  0  0  0
   30.2230   30.7160   36.2090 C   0  0  0  0  0  3  0  0  0  0  0  0
  1  7  1  0  0  0  0
  1  2  1  0  0  0  0
  2  8  1  1  0  0  0
  2  3  1  0  0  0  0
  3 10  1  0  0  0  0
  3  9  1  0  0  0  0
  4  3  1  0  0  0  0
  5 13  1  0  0  0  0
  5  4  1  0  0  0  0
  6 14  1  1  0  0  0
  6  5  1  0  0  0  0
  6  1  1  0  0  0  0
 11  4  1  0  0  0  0
 12  5  1  0  0  0  0
 15 26  1  0  0  0  0
 15 19  2  0  0  0  0
 16 17  2  0  0  0  0
 16 15  1  0  0  0  0
 17 18  1  0  0  0  0
 18 19  1  0  0  0  0
 18  2  1  0  0  0  0
 20 16  1  0  0  0  0
 21 17  1  0  0  0  0
 22 28  1  0  0  0  0
 23 29  1  0  0  0  0
 23 22  2  0  0  0  0
 24 23  1  0  0  0  0
 25 24  2  0  0  0  0
 25 26  1  0  0  0  0
 26 27  2  0  0  0  0
 27 22  1  0  0  0  0
 30 24  1  0  0  0  0
 31 34  1  6  0  0  0
 31  6  1  0  0  0  0
 32 36  1  0  0  0  0
 32 31  1  0  0  0  0
 33 37  1  6  0  0  0
 33 32  1  0  0  0  0
 33 38  1  0  0  0  0
 33 31  1  0  0  0  0
 35 32  1  0  0  0  0
 38 40  1  0  0  0  0
 38 39  1  0  0  0  0
 42 41  1  0  0  0  0
 43 42  1  0  0  0  0
 43 38  1  0  0  0  0
 44 43  2  0  0  0  0
 45 44  1  0  0  0  0
 46 48  2  0  0  0  0
 46 44  1  0  0  0  0
 47 46  1  0  0  0  0
 48 49  1  0  0  0  0
 49 42  2  0  0  0  0
M  END
>  <minimizedAffinity>
-6.03944778

$$$$

 OpenBabel03242520083D

 49 53  0  0  1  0  0  0  0  0999 V2000
   40.1400   31.7770   38.3180 N   0  0  0  0  0  0  0  0  0  0  0  0
   40.8950   30.6110   38.1290 C   0  0  1  0  0  0  0  0  0  0  0  0
   42.3520   30.9940   38.1240 C   0  0  0  0  0  0  0  0  0  0  0  0
   42.6230   31.4630   39.4570 N   0  0  0  0  0  0  0  0  0  0  0  0
   41.9380   32.7070   39.7470 C   0  0  0  0  0  0  0  0  0  0  0  0
   40.5290   32.7700   39.2300 C   0  0  2  0  0  0  0  0  0  0  0  0
   39.7910   32.1120   37.3900 H   0  0  0  0  0  0  0  0  0  0  0  0
   40.6630   30.1400   37.1750 H   0  0  0  0  0  0  0  0  0  0  0  0
   43.0230   30.1830   37.8480 H   0  0  0  0  0  0  0  0  0  0  0  0
   42.4330   31.8960   37.4500 H   0  0  0  0  0  0  0  0  0  0  0  0
   42.5430   30.7530   40.1920 H   0  0  0  0  0  0  0  0  0  0  0  0
   42.0100   32.8080   40.8630 H   0  0  0  0  0  0  0  0  0  0  0  0
   42.6070   33.5040   39.3630 H   0  0  0  0  0  0  0  0  0  0  0  0
   40.4830   33.7440   38.6660 H   0  0  0  0  0  0  0  0  0  0  0  0
   39.6960   28.5440   40.7460 C   0  0  0  0  0  0  0  0  0  0  0  0
   40.9550   27.9920   40.5680 C   0  0  0  0  0  0  0  0  0  0  0  0
   41.5730   28.6760   39.5800 C   0  0  0  0  0  0  0  0  0  0  0  0
   40.7120   29.6280   39.1580 N   0  0  0  0  0  0  0  0  0  0  0  0
   39.5910   29.5320   39.8720 N   0  0  0  0  0  0  0  0  0  0  0  0
   41.3910   27.1620   41.1100 H   0  0  0  0  0  0  0  0  0  0  0  0
   42.5580   28.5400   39.1600 H   0  0  0  0  0  0  0  0  0  0  0  0
   37.4830   28.4130   43.6780 C   0  0  0  0  0  0  0  0  0  0  0  0
   36.7760   27.2230   43.4780 C   0  0  0  0  0  0  0  0  0  0  0  0
   37.0620   26.4870   42.3530 C   0  0  0  0  0  0  0  0  0  0  0  0
   38.0200   26.9580   41.4930 N   0  0  0  0  0  0  0  0  0  0  0  0
   38.6790   28.1100   41.7210 C   0  0  0  0  0  0  0  0  0  0  0  0
   38.4260   28.8540   42.8090 N   0  0  0  0  0  0  0  0  0  0  0  0
   37.2170   28.9510   44.5820 H   0  0  0  0  0  0  0  0  0  0  0  0
   36.0280   26.8860   44.1780 H   0  0  0  0  0  0  0  0  0  0  0  0
   36.5610   25.5480   42.1150 H   0  0  0  0  0  0  0  0  0  0  0  0
   39.6170   32.8640   40.4380 C   0  0  1  0  0  0  0  0  0  0  0  0
   38.8090   34.1600   40.5400 C   0  0  0  0  0  0  0  0  0  0  0  0
   38.1530   32.8500   40.3350 C   0  0  1  0  0  0  0  0  0  0  0  0
   40.0350   32.5550   41.4420 H   0  0  0  0  0  0  0  0  0  0  0  0
   38.6610   34.6260   41.5370 H   0  0  0  0  0  0  0  0  0  0  0  0
   38.8310   34.8560   39.6750 H   0  0  0  0  0  0  0  0  0  0  0  0
   37.5740   32.3720   41.1790 H   0  0  0  0  0  0  0  0  0  0  0  0
   37.4920   32.4990   39.0040 C   0  0  0  0  0  0  0  0  0  0  0  0
   38.2420   32.4250   38.1900 H   0  0  0  0  0  0  0  0  0  0  0  0
   36.7150   33.2670   38.8380 H   0  0  0  0  0  0  0  0  0  0  0  0
   37.2100   30.6880   36.5440 Cl  0  0  0  0  0  0  0  0  0  0  0  0
   36.5600   30.2900   38.1190 C   0  0  0  0  0  0  0  0  0  0  0  0
   36.7550   31.1900   39.1450 C   0  0  0  0  0  0  0  0  0  0  0  0
   36.2090   30.8070   40.3740 C   0  0  0  0  0  0  0  0  0  0  0  0
   36.3540   31.5110   41.2030 H   0  0  0  0  0  0  0  0  0  0  0  0
   35.5250   29.6650   40.6460 C   0  0  0  0  0  0  0  0  0  0  0  0
   35.1460   29.4740   41.6400 H   0  0  0  0  0  0  0  0  0  0  0  0
   35.3560   28.7980   39.5880 C   0  0  0  0  0  3  0  0  0  0  0  0
   35.8730   29.1140   38.3350 C   0  0  0  0  0  3  0  0  0  0  0  0
  1  6  1  0  0  0  0
  2  8  1  6  0  0  0
  2  1  1  0  0  0  0
  2 18  1  0  0  0  0
  3  2  1  0  0  0  0
  3  4  1  0  0  0  0
  4  5  1  0  0  0  0
  4 11  1  0  0  0  0
  5 12  1  0  0  0  0
  6 14  1  6  0  0  0
  6  5  1  0  0  0  0
  6 31  1  0  0  0  0
  7  1  1  0  0  0  0
  9  3  1  0  0  0  0
 10  3  1  0  0  0  0
 13  5  1  0  0  0  0
 15 26  1  0  0  0  0
 16 15  1  0  0  0  0
 16 20  1  0  0  0  0
 17 16  2  0  0  0  0
 18 17  1  0  0  0  0
 18 19  1  0  0  0  0
 19 15  2  0  0  0  0
 21 17  1  0  0  0  0
 22 28  1  0  0  0  0
 23 22  1  0  0  0  0
 23 29  1  0  0  0  0
 24 23  2  0  0  0  0
 25 26  2  0  0  0  0
 25 24  1  0  0  0  0
 26 27  1  0  0  0  0
 27 22  2  0  0  0  0
 30 24  1  0  0  0  0
 31 32  1  0  0  0  0
 31 34  1  1  0  0  0
 32 35  1  0  0  0  0
 33 31  1  0  0  0  0
 33 32  1  0  0  0  0
 33 37  1  1  0  0  0
 36 32  1  0  0  0  0
 38 43  1  0  0  0  0
 38 33  1  0  0  0  0
 39 38  1  0  0  0  0
 40 38  1  0  0  0  0
 41 42  1  0  0  0  0
 42 49  2  0  0  0  0
 42 43  1  0  0  0  0
 43 44  2  0  0  0  0
 44 46  1  0  0  0  0
 44 45  1  0  0  0  0
 46 47  1  0  0  0  0
 48 46  2  0  0  0  0
 49 48  1  0  0  0  0
M  END
>  <minimizedAffinity>
-6.03001261

$$$$

 OpenBabel03242520083D

 49 53  0  0  1  0  0  0  0  0999 V2000
   38.2760   30.1040   39.8290 N   0  0  0  0  0  0  0  0  0  0  0  0
   38.4670   31.2780   39.0860 C   0  0  1  0  0  0  0  0  0  0  0  0
   37.1370   31.9760   38.9650 C   0  0  0  0  0  0  0  0  0  0  0  0
   36.7970   32.3740   40.3050 N   0  0  0  0  0  0  0  0  0  0  0  0
   36.5160   31.2360   41.1570 C   0  0  0  0  0  0  0  0  0  0  0  0
   37.4480   30.0730   40.9610 C   0  0  2  0  0  0  0  0  0  0  0  0
   38.1920   29.2940   39.1730 H   0  0  0  0  0  0  0  0  0  0  0  0
   38.8280   31.0560   38.0830 H   0  0  0  0  0  0  0  0  0  0  0  0
   37.1440   32.8290   38.2910 H   0  0  0  0  0  0  0  0  0  0  0  0
   36.3930   31.1770   38.6750 H   0  0  0  0  0  0  0  0  0  0  0  0
   37.4220   33.0720   40.7220 H   0  0  0  0  0  0  0  0  0  0  0  0
   36.5400   31.6560   42.1980 H   0  0  0  0  0  0  0  0  0  0  0  0
   35.4450   31.0020   40.9870 H   0  0  0  0  0  0  0  0  0  0  0  0
   36.7640   29.1890   40.8220 H   0  0  0  0  0  0  0  0  0  0  0  0
   41.1080   32.8660   40.8360 C   0  0  0  0  0  0  0  0  0  0  0  0
   40.4370   33.9810   40.3590 C   0  0  0  0  0  0  0  0  0  0  0  0
   39.3710   33.5530   39.6480 C   0  0  0  0  0  0  0  0  0  0  0  0
   39.3840   32.2020   39.6860 N   0  0  0  0  0  0  0  0  0  0  0  0
   40.4360   31.8100   40.4050 N   0  0  0  0  0  0  0  0  0  0  0  0
   40.6970   35.0210   40.5140 H   0  0  0  0  0  0  0  0  0  0  0  0
   38.6170   34.1230   39.1260 H   0  0  0  0  0  0  0  0  0  0  0  0
   43.7090   31.8930   43.2430 C   0  0  0  0  0  0  0  0  0  0  0  0
   44.6190   32.9510   43.1580 C   0  0  0  0  0  0  0  0  0  0  0  0
   44.3350   33.9750   42.2870 C   0  0  0  0  0  0  0  0  0  0  0  0
   43.1800   33.9020   41.5520 N   0  0  0  0  0  0  0  0  0  0  0  0
   42.3280   32.8650   41.6620 C   0  0  0  0  0  0  0  0  0  0  0  0
   42.5740   31.8490   42.5030 N   0  0  0  0  0  0  0  0  0  0  0  0
   43.9850   31.1140   43.9470 H   0  0  0  0  0  0  0  0  0  0  0  0
   45.5190   32.9710   43.7530 H   0  0  0  0  0  0  0  0  0  0  0  0
   44.9870   34.8390   42.1540 H   0  0  0  0  0  0  0  0  0  0  0  0
   38.2140   29.8950   42.2580 C   0  0  1  0  0  0  0  0  0  0  0  0
   37.7700   28.7070   43.1140 C   0  0  0  0  0  0  0  0  0  0  0  0
   39.1160   28.7630   42.5030 C   0  0  1  0  0  0  0  0  0  0  0  0
   38.4070   30.8140   42.8900 H   0  0  0  0  0  0  0  0  0  0  0  0
   37.7340   28.8220   44.2190 H   0  0  0  0  0  0  0  0  0  0  0  0
   37.0430   27.9920   42.6750 H   0  0  0  0  0  0  0  0  0  0  0  0
   40.0220   28.9480   43.1520 H   0  0  0  0  0  0  0  0  0  0  0  0
   39.4970   27.8380   41.3500 C   0  0  0  0  0  0  0  0  0  0  0  0
   40.5880   27.8680   41.1540 H   0  0  0  0  0  0  0  0  0  0  0  0
   38.8710   28.1460   40.4930 H   0  0  0  0  0  0  0  0  0  0  0  0
   37.0170   26.6730   39.9690 Cl  0  0  0  0  0  0  0  0  0  0  0  0
   37.9820   25.7910   41.1330 C   0  0  0  0  0  0  0  0  0  0  0  0
   39.0730   26.4280   41.6830 C   0  0  0  0  0  0  0  0  0  0  0  0
   39.7970   25.6640   42.6040 C   0  0  0  0  0  0  0  0  0  0  0  0
   40.6700   26.1550   43.0520 H   0  0  0  0  0  0  0  0  0  0  0  0
   39.5350   24.3910   42.9970 C   0  0  0  0  0  0  0  0  0  0  0  0
   40.1670   23.8960   43.7210 H   0  0  0  0  0  0  0  0  0  0  0  0
   38.4330   23.7980   42.4190 C   0  0  0  0  0  3  0  0  0  0  0  0
   37.6650   24.4980   41.4930 C   0  0  0  0  0  3  0  0  0  0  0  0
  1  6  1  0  0  0  0
  2  8  1  6  0  0  0
  2 18  1  0  0  0  0
  2  1  1  0  0  0  0
  3  2  1  0  0  0  0
  3  4  1  0  0  0  0
  4 11  1  0  0  0  0
  4  5  1  0  0  0  0
  5 12  1  0  0  0  0
  6 14  1  6  0  0  0
  6  5  1  0  0  0  0
  6 31  1  0  0  0  0
  7  1  1  0  0  0  0
  9  3  1  0  0  0  0
 10  3  1  0  0  0  0
 13  5  1  0  0  0  0
 15 26  1  0  0  0  0
 16 20  1  0  0  0  0
 16 15  1  0  0  0  0
 17 18  1  0  0  0  0
 17 16  2  0  0  0  0
 18 19  1  0  0  0  0
 19 15  2  0  0  0  0
 21 17  1  0  0  0  0
 22 28  1  0  0  0  0
 23 22  1  0  0  0  0
 23 29  1  0  0  0  0
 24 23  2  0  0  0  0
 25 26  2  0  0  0  0
 25 24  1  0  0  0  0
 26 27  1  0  0  0  0
 27 22  2  0  0  0  0
 30 24  1  0  0  0  0
 31 33  1  0  0  0  0
 31 34  1  1  0  0  0
 31 32  1  0  0  0  0
 32 35  1  0  0  0  0
 33 32  1  0  0  0  0
 33 37  1  1  0  0  0
 36 32  1  0  0  0  0
 38 43  1  0  0  0  0
 38 33  1  0  0  0  0
 39 38  1  0  0  0  0
 40 38  1  0  0  0  0
 41 42  1  0  0  0  0
 42 49  2  0  0  0  0
 42 43  1  0  0  0  0
 43 44  2  0  0  0  0
 44 46  1  0  0  0  0
 44 45  1  0  0  0  0
 46 47  1  0  0  0  0
 48 46  2  0  0  0  0
 49 48  1  0  0  0  0
M  END
>  <minimizedAffinity>
-5.97366381

$$$$

 OpenBabel03242520083D

 49 53  0  0  1  0  0  0  0  0999 V2000
   37.8430   29.3560   39.7440 N   0  0  0  0  0  0  0  0  0  0  0  0
   37.9400   30.5870   39.0780 C   0  0  1  0  0  0  0  0  0  0  0  0
   36.6410   31.3260   39.2710 C   0  0  0  0  0  0  0  0  0  0  0  0
   36.5750   31.6110   40.6800 N   0  0  0  0  0  0  0  0  0  0  0  0
   36.4120   30.4090   41.4720 C   0  0  0  0  0  0  0  0  0  0  0  0
   37.2410   29.2450   41.0070 C   0  0  2  0  0  0  0  0  0  0  0  0
   37.6040   28.6100   39.0510 H   0  0  0  0  0  0  0  0  0  0  0  0
   38.0970   30.4460   38.0100 H   0  0  0  0  0  0  0  0  0  0  0  0
   36.5570   32.2350   38.6810 H   0  0  0  0  0  0  0  0  0  0  0  0
   35.8230   30.5750   39.0630 H   0  0  0  0  0  0  0  0  0  0  0  0
   37.2950   32.2540   41.0270 H   0  0  0  0  0  0  0  0  0  0  0  0
   36.6470   30.7340   42.5210 H   0  0  0  0  0  0  0  0  0  0  0  0
   35.3190   30.2180   41.4910 H   0  0  0  0  0  0  0  0  0  0  0  0
   36.5080   28.3940   40.9280 H   0  0  0  0  0  0  0  0  0  0  0  0
   40.7100   32.0120   40.7670 C   0  0  0  0  0  0  0  0  0  0  0  0
   40.3680   33.0700   39.9400 C   0  0  0  0  0  0  0  0  0  0  0  0
   39.3000   32.6940   39.2030 C   0  0  0  0  0  0  0  0  0  0  0  0
   38.9910   31.4300   39.5670 N   0  0  0  0  0  0  0  0  0  0  0  0
   39.8510   31.0390   40.5080 N   0  0  0  0  0  0  0  0  0  0  0  0
   40.8520   34.0370   39.8760 H   0  0  0  0  0  0  0  0  0  0  0  0
   38.7540   33.2440   38.4520 H   0  0  0  0  0  0  0  0  0  0  0  0
   43.8320   32.7790   42.5480 C   0  0  0  0  0  0  0  0  0  0  0  0
   43.8250   31.8530   43.5950 C   0  0  0  0  0  0  0  0  0  0  0  0
   42.7630   30.9850   43.6800 C   0  0  0  0  0  0  0  0  0  0  0  0
   41.7730   31.0760   42.7350 N   0  0  0  0  0  0  0  0  0  0  0  0
   41.8160   31.9830   41.7410 C   0  0  0  0  0  0  0  0  0  0  0  0
   42.8380   32.8450   41.6290 N   0  0  0  0  0  0  0  0  0  0  0  0
   44.6950   33.4370   42.5320 H   0  0  0  0  0  0  0  0  0  0  0  0
   44.6240   31.8140   44.3200 H   0  0  0  0  0  0  0  0  0  0  0  0
   42.6730   30.2310   44.4620 H   0  0  0  0  0  0  0  0  0  0  0  0
   38.2290   28.9330   42.1150 C   0  0  1  0  0  0  0  0  0  0  0  0
   37.6430   28.9500   43.5280 C   0  0  0  0  0  0  0  0  0  0  0  0
   38.1650   27.7070   42.9190 C   0  0  1  0  0  0  0  0  0  0  0  0
   39.2420   29.4360   42.0790 H   0  0  0  0  0  0  0  0  0  0  0  0
   38.2480   29.3740   44.3580 H   0  0  0  0  0  0  0  0  0  0  0  0
   36.5410   29.0390   43.6340 H   0  0  0  0  0  0  0  0  0  0  0  0
   39.1400   27.2680   43.2830 H   0  0  0  0  0  0  0  0  0  0  0  0
   37.2240   26.5790   42.5020 C   0  0  0  0  0  0  0  0  0  0  0  0
   36.2630   26.9770   42.1190 H   0  0  0  0  0  0  0  0  0  0  0  0
   37.1250   25.9230   43.3870 H   0  0  0  0  0  0  0  0  0  0  0  0
   39.5740   24.7770   43.3050 Cl  0  0  0  0  0  0  0  0  0  0  0  0
   38.9550   24.8920   41.6720 C   0  0  0  0  0  0  0  0  0  0  0  0
   37.8930   25.7400   41.4410 C   0  0  0  0  0  0  0  0  0  0  0  0
   37.4510   25.7810   40.1150 C   0  0  0  0  0  0  0  0  0  0  0  0
   36.6060   26.4500   39.9130 H   0  0  0  0  0  0  0  0  0  0  0  0
   37.9530   25.0850   39.0630 C   0  0  0  0  0  0  0  0  0  0  0  0
   37.5300   25.1970   38.0750 H   0  0  0  0  0  0  0  0  0  0  0  0
   39.0150   24.2510   39.3450 C   0  0  0  0  0  3  0  0  0  0  0  0
   39.5080   24.1590   40.6420 C   0  0  0  0  0  3  0  0  0  0  0  0
  1  6  1  0  0  0  0
  2  8  1  6  0  0  0
  2  3  1  0  0  0  0
  2 18  1  0  0  0  0
  2  1  1  0  0  0  0
  3  4  1  0  0  0  0
  4 11  1  0  0  0  0
  4  5  1  0  0  0  0
  5 13  1  0  0  0  0
  5 12  1  0  0  0  0
  6 14  1  6  0  0  0
  6  5  1  0  0  0  0
  6 31  1  0  0  0  0
  7  1  1  0  0  0  0
  9  3  1  0  0  0  0
 10  3  1  0  0  0  0
 15 26  1  0  0  0  0
 16 15  1  0  0  0  0
 17 18  1  0  0  0  0
 17 16  2  0  0  0  0
 18 19  1  0  0  0  0
 19 15  2  0  0  0  0
 20 16  1  0  0  0  0
 21 17  1  0  0  0  0
 22 23  1  0  0  0  0
 23 24  2  0  0  0  0
 23 29  1  0  0  0  0
 24 30  1  0  0  0  0
 25 24  1  0  0  0  0
 26 25  2  0  0  0  0
 27 26  1  0  0  0  0
 27 22  2  0  0  0  0
 28 22  1  0  0  0  0
 31 34  1  6  0  0  0
 31 33  1  0  0  0  0
 31 32  1  0  0  0  0
 32 36  1  0  0  0  0
 32 35  1  0  0  0  0
 33 37  1  1  0  0  0
 33 32  1  0  0  0  0
 38 33  1  0  0  0  0
 38 40  1  0  0  0  0
 39 38  1  0  0  0  0
 42 41  1  0  0  0  0
 43 42  1  0  0  0  0
 43 38  1  0  0  0  0
 44 43  2  0  0  0  0
 45 44  1  0  0  0  0
 46 48  2  0  0  0  0
 46 44  1  0  0  0  0
 47 46  1  0  0  0  0
 48 49  1  0  0  0  0
 49 42  2  0  0  0  0
M  END
>  <minimizedAffinity>
-5.80123806

$$$$

 OpenBabel03242520083D

 49 53  0  0  1  0  0  0  0  0999 V2000
   38.9280   26.2820   41.0080 N   0  0  0  0  0  0  0  0  0  0  0  0
   39.0550   25.4150   39.9130 C   0  0  1  0  0  0  0  0  0  0  0  0
   39.1330   24.0060   40.4400 C   0  0  0  0  0  0  0  0  0  0  0  0
   37.8470   23.7530   41.0330 N   0  0  0  0  0  0  0  0  0  0  0  0
   37.6260   24.5560   42.2190 C   0  0  0  0  0  0  0  0  0  0  0  0
   38.1020   25.9760   42.1000 C   0  0  2  0  0  0  0  0  0  0  0  0
   39.8660   26.6850   41.2360 H   0  0  0  0  0  0  0  0  0  0  0  0
   39.9650   25.6200   39.3510 H   0  0  0  0  0  0  0  0  0  0  0  0
   39.3710   23.2620   39.6830 H   0  0  0  0  0  0  0  0  0  0  0  0
   39.8730   24.0340   41.2930 H   0  0  0  0  0  0  0  0  0  0  0  0
   37.0600   23.7430   40.3750 H   0  0  0  0  0  0  0  0  0  0  0  0
   36.5230   24.4690   42.4100 H   0  0  0  0  0  0  0  0  0  0  0  0
   38.0870   23.9820   43.0490 H   0  0  0  0  0  0  0  0  0  0  0  0
   38.7330   26.1360   43.0200 H   0  0  0  0  0  0  0  0  0  0  0  0
   36.1820   26.2810   38.0270 C   0  0  0  0  0  0  0  0  0  0  0  0
   36.4910   25.0630   37.4420 C   0  0  0  0  0  0  0  0  0  0  0  0
   37.5910   24.5730   38.0540 C   0  0  0  0  0  0  0  0  0  0  0  0
   37.9540   25.4710   38.9970 N   0  0  0  0  0  0  0  0  0  0  0  0
   37.0940   26.4890   38.9640 N   0  0  0  0  0  0  0  0  0  0  0  0
   35.9610   24.5680   36.6380 H   0  0  0  0  0  0  0  0  0  0  0  0
   38.1270   23.6540   37.8750 H   0  0  0  0  0  0  0  0  0  0  0  0
   33.6940   28.9840   38.0930 C   0  0  0  0  0  0  0  0  0  0  0  0
   32.9510   28.7480   36.9320 C   0  0  0  0  0  0  0  0  0  0  0  0
   33.3070   27.6770   36.1470 C   0  0  0  0  0  0  0  0  0  0  0  0
   34.3670   26.9030   36.5460 N   0  0  0  0  0  0  0  0  0  0  0  0
   35.0570   27.1640   37.6720 C   0  0  0  0  0  0  0  0  0  0  0  0
   34.7380   28.2010   38.4600 N   0  0  0  0  0  0  0  0  0  0  0  0
   33.3670   29.8420   38.6720 H   0  0  0  0  0  0  0  0  0  0  0  0
   32.1240   29.3810   36.6520 H   0  0  0  0  0  0  0  0  0  0  0  0
   32.7860   27.4170   35.2250 H   0  0  0  0  0  0  0  0  0  0  0  0
   36.8760   26.8650   42.1920 C   0  0  1  0  0  0  0  0  0  0  0  0
   36.5280   27.3440   43.6020 C   0  0  0  0  0  0  0  0  0  0  0  0
   36.9470   28.2880   42.5430 C   0  0  1  0  0  0  0  0  0  0  0  0
   35.9520   26.5520   41.6180 H   0  0  0  0  0  0  0  0  0  0  0  0
   35.4600   27.3980   43.9050 H   0  0  0  0  0  0  0  0  0  0  0  0
   37.2550   27.1400   44.4150 H   0  0  0  0  0  0  0  0  0  0  0  0
   36.1880   28.9810   42.0730 H   0  0  0  0  0  0  0  0  0  0  0  0
   38.3030   28.9850   42.6000 C   0  0  0  0  0  0  0  0  0  0  0  0
   39.1070   28.3370   42.1950 H   0  0  0  0  0  0  0  0  0  0  0  0
   38.4480   29.2840   43.6550 H   0  0  0  0  0  0  0  0  0  0  0  0
   40.6900   30.9100   42.7040 Cl  0  0  0  0  0  0  0  0  0  0  0  0
   39.2380   31.2170   41.7770 C   0  0  0  0  0  0  0  0  0  0  0  0
   38.2350   30.2720   41.8140 C   0  0  0  0  0  0  0  0  0  0  0  0
   37.1050   30.5830   41.0510 C   0  0  0  0  0  0  0  0  0  0  0  0
   36.2970   29.8410   41.0680 H   0  0  0  0  0  0  0  0  0  0  0  0
   36.9070   31.6950   40.2980 C   0  0  0  0  0  0  0  0  0  0  0  0
   35.9880   31.8310   39.7460 H   0  0  0  0  0  0  0  0  0  0  0  0
   37.9380   32.6110   40.2940 C   0  0  0  0  0  3  0  0  0  0  0  0
   39.0940   32.3680   41.0300 C   0  0  0  0  0  3  0  0  0  0  0  0
  1  7  1  0  0  0  0
  1  6  1  0  0  0  0
  2  8  1  6  0  0  0
  2  3  1  0  0  0  0
  2  1  1  0  0  0  0
  3  4  1  0  0  0  0
  3 10  1  0  0  0  0
  4  5  1  0  0  0  0
  5 12  1  0  0  0  0
  5 13  1  0  0  0  0
  6 31  1  0  0  0  0
  6  5  1  0  0  0  0
  6 14  1  1  0  0  0
  9  3  1  0  0  0  0
 11  4  1  0  0  0  0
 15 19  2  0  0  0  0
 16 15  1  0  0  0  0
 16 17  2  0  0  0  0
 17 18  1  0  0  0  0
 18  2  1  0  0  0  0
 19 18  1  0  0  0  0
 20 16  1  0  0  0  0
 21 17  1  0  0  0  0
 22 27  1  0  0  0  0
 22 28  1  0  0  0  0
 23 22  2  0  0  0  0
 24 25  2  0  0  0  0
 24 23  1  0  0  0  0
 25 26  1  0  0  0  0
 26 15  1  0  0  0  0
 26 27  2  0  0  0  0
 29 23  1  0  0  0  0
 30 24  1  0  0  0  0
 31 34  1  6  0  0  0
 31 33  1  0  0  0  0
 31 32  1  0  0  0  0
 32 35  1  0  0  0  0
 32 36  1  0  0  0  0
 33 37  1  6  0  0  0
 33 38  1  0  0  0  0
 33 32  1  0  0  0  0
 38 40  1  0  0  0  0
 39 38  1  0  0  0  0
 42 43  1  0  0  0  0
 42 41  1  0  0  0  0
 43 38  1  0  0  0  0
 44 45  1  0  0  0  0
 44 43  2  0  0  0  0
 46 44  1  0  0  0  0
 47 46  1  0  0  0  0
 48 46  2  0  0  0  0
 48 49  1  0  0  0  0
 49 42  2  0  0  0  0
M  END
>  <minimizedAffinity>
-5.74305344

$$$$

 OpenBabel03242520083D

 49 53  0  0  1  0  0  0  0  0999 V2000
   37.7260   29.7980   42.0490 N   0  0  0  0  0  0  0  0  0  0  0  0
   36.7170   29.9600   41.0890 C   0  0  1  0  0  0  0  0  0  0  0  0
   36.6640   31.4170   40.7080 C   0  0  0  0  0  0  0  0  0  0  0  0
   37.9180   31.6810   40.0530 N   0  0  0  0  0  0  0  0  0  0  0  0
   39.0380   31.6000   40.9680 C   0  0  0  0  0  0  0  0  0  0  0  0
   38.9580   30.4620   41.9450 C   0  0  2  0  0  0  0  0  0  0  0  0
   37.2930   29.7730   43.0000 H   0  0  0  0  0  0  0  0  0  0  0  0
   35.7440   29.6770   41.4870 H   0  0  0  0  0  0  0  0  0  0  0  0
   35.8240   31.6790   40.0700 H   0  0  0  0  0  0  0  0  0  0  0  0
   36.6890   31.9920   41.6800 H   0  0  0  0  0  0  0  0  0  0  0  0
   38.0570   31.1840   39.1660 H   0  0  0  0  0  0  0  0  0  0  0  0
   39.9390   31.5520   40.2990 H   0  0  0  0  0  0  0  0  0  0  0  0
   39.1060   32.6050   41.4340 H   0  0  0  0  0  0  0  0  0  0  0  0
   39.1360   30.9420   42.9480 H   0  0  0  0  0  0  0  0  0  0  0  0
   36.8010   28.7160   37.7710 C   0  0  0  0  0  0  0  0  0  0  0  0
   37.5400   27.7340   38.4100 C   0  0  0  0  0  0  0  0  0  0  0  0
   37.6130   28.0530   39.7210 C   0  0  0  0  0  0  0  0  0  0  0  0
   36.9320   29.2090   39.8860 N   0  0  0  0  0  0  0  0  0  0  0  0
   36.4530   29.5900   38.7030 N   0  0  0  0  0  0  0  0  0  0  0  0
   37.9900   26.8550   37.9640 H   0  0  0  0  0  0  0  0  0  0  0  0
   38.1020   27.5330   40.5300 H   0  0  0  0  0  0  0  0  0  0  0  0
   35.7490   27.7690   34.3800 C   0  0  0  0  0  0  0  0  0  0  0  0
   35.8840   28.9660   33.6700 C   0  0  0  0  0  0  0  0  0  0  0  0
   36.3280   30.0720   34.3520 C   0  0  0  0  0  0  0  0  0  0  0  0
   36.6130   29.9410   35.6870 N   0  0  0  0  0  0  0  0  0  0  0  0
   36.4700   28.7700   36.3360 C   0  0  0  0  0  0  0  0  0  0  0  0
   36.0390   27.6700   35.7010 N   0  0  0  0  0  0  0  0  0  0  0  0
   35.3950   26.9300   33.7890 H   0  0  0  0  0  0  0  0  0  0  0  0
   35.6480   29.0280   32.6180 H   0  0  0  0  0  0  0  0  0  0  0  0
   36.4630   31.0460   33.8810 H   0  0  0  0  0  0  0  0  0  0  0  0
   40.1160   29.5310   41.6390 C   0  0  1  0  0  0  0  0  0  0  0  0
   41.1790   29.4390   42.7350 C   0  0  0  0  0  0  0  0  0  0  0  0
   40.3440   28.2760   42.3640 C   0  0  1  0  0  0  0  0  0  0  0  0
   40.5830   29.5880   40.6100 H   0  0  0  0  0  0  0  0  0  0  0  0
   42.2500   29.3790   42.4440 H   0  0  0  0  0  0  0  0  0  0  0  0
   40.9660   29.9260   43.7090 H   0  0  0  0  0  0  0  0  0  0  0  0
   40.7990   27.4150   41.7900 H   0  0  0  0  0  0  0  0  0  0  0  0
   39.2700   27.7430   43.3090 C   0  0  0  0  0  0  0  0  0  0  0  0
   38.4660   28.4910   43.4670 H   0  0  0  0  0  0  0  0  0  0  0  0
   39.7980   27.4420   44.2320 H   0  0  0  0  0  0  0  0  0  0  0  0
   36.2540   27.2490   43.5760 Cl  0  0  0  0  0  0  0  0  0  0  0  0
   37.3520   26.1370   42.7900 C   0  0  0  0  0  0  0  0  0  0  0  0
   38.6860   26.4750   42.7360 C   0  0  0  0  0  0  0  0  0  0  0  0
   39.5050   25.5400   42.0930 C   0  0  0  0  0  0  0  0  0  0  0  0
   40.5700   25.7930   42.0410 H   0  0  0  0  0  0  0  0  0  0  0  0
   39.1200   24.3640   41.5330 C   0  0  0  0  0  0  0  0  0  0  0  0
   39.8450   23.7160   41.0610 H   0  0  0  0  0  0  0  0  0  0  0  0
   37.7750   24.0710   41.6140 C   0  0  0  0  0  3  0  0  0  0  0  0
   36.9010   24.9550   42.2390 C   0  0  0  0  0  3  0  0  0  0  0  0
  1  7  1  0  0  0  0
  2  8  1  1  0  0  0
  2  1  1  0  0  0  0
  3  2  1  0  0  0  0
  3 10  1  0  0  0  0
  4  3  1  0  0  0  0
  4  5  1  0  0  0  0
  5 13  1  0  0  0  0
  5  6  1  0  0  0  0
  6  1  1  0  0  0  0
  6 14  1  1  0  0  0
  9  3  1  0  0  0  0
 11  4  1  0  0  0  0
 12  5  1  0  0  0  0
 15 16  1  0  0  0  0
 15 19  2  0  0  0  0
 16 17  2  0  0  0  0
 17 18  1  0  0  0  0
 17 21  1  0  0  0  0
 18  2  1  0  0  0  0
 19 18  1  0  0  0  0
 20 16  1  0  0  0  0
 22 27  1  0  0  0  0
 23 24  1  0  0  0  0
 23 22  2  0  0  0  0
 24 25  2  0  0  0  0
 25 26  1  0  0  0  0
 26 15  1  0  0  0  0
 27 26  2  0  0  0  0
 28 22  1  0  0  0  0
 29 23  1  0  0  0  0
 30 24  1  0  0  0  0
 31 34  1  6  0  0  0
 31  6  1  0  0  0  0
 31 33  1  0  0  0  0
 31 32  1  0  0  0  0
 32 36  1  0  0  0  0
 33 37  1  6  0  0  0
 33 32  1  0  0  0  0
 33 38  1  0  0  0  0
 35 32  1  0  0  0  0
 38 39  1  0  0  0  0
 38 40  1  0  0  0  0
 42 41  1  0  0  0  0
 43 42  1  0  0  0  0
 43 38  1  0  0  0  0
 44 43  2  0  0  0  0
 45 44  1  0  0  0  0
 46 48  2  0  0  0  0
 46 44  1  0  0  0  0
 47 46  1  0  0  0  0
 48 49  1  0  0  0  0
 49 42  2  0  0  0  0
M  END
>  <minimizedAffinity>
-5.73112011

$$$$

 OpenBabel03242520083D

 49 53  0  0  1  0  0  0  0  0999 V2000
   39.0000   27.9560   41.2550 N   0  0  0  0  0  0  0  0  0  0  0  0
   39.3600   26.7580   41.8890 C   0  0  1  0  0  0  0  0  0  0  0  0
   39.2970   26.9820   43.3780 C   0  0  0  0  0  0  0  0  0  0  0  0
   37.9060   27.2120   43.6660 N   0  0  0  0  0  0  0  0  0  0  0  0
   37.4320   28.4610   43.1060 C   0  0  0  0  0  0  0  0  0  0  0  0
   37.9430   28.7510   41.7230 C   0  0  2  0  0  0  0  0  0  0  0  0
   39.8670   28.4630   40.9640 H   0  0  0  0  0  0  0  0  0  0  0  0
   40.3770   26.4660   41.6330 H   0  0  0  0  0  0  0  0  0  0  0  0
   39.6890   26.1570   43.9680 H   0  0  0  0  0  0  0  0  0  0  0  0
   39.8230   27.9630   43.5670 H   0  0  0  0  0  0  0  0  0  0  0  0
   37.2890   26.4090   43.4960 H   0  0  0  0  0  0  0  0  0  0  0  0
   36.3130   28.3830   43.1610 H   0  0  0  0  0  0  0  0  0  0  0  0
   37.6840   29.2330   43.8620 H   0  0  0  0  0  0  0  0  0  0  0  0
   38.3500   29.7990   41.7900 H   0  0  0  0  0  0  0  0  0  0  0  0
   37.0230   24.5020   40.4750 C   0  0  0  0  0  0  0  0  0  0  0  0
   37.4080   23.7750   41.5900 C   0  0  0  0  0  0  0  0  0  0  0  0
   38.3220   24.5030   42.2670 C   0  0  0  0  0  0  0  0  0  0  0  0
   38.4970   25.6550   41.5830 N   0  0  0  0  0  0  0  0  0  0  0  0
   37.7070   25.6340   40.5100 N   0  0  0  0  0  0  0  0  0  0  0  0
   37.0550   22.7950   41.8900 H   0  0  0  0  0  0  0  0  0  0  0  0
   38.8490   24.2700   43.1800 H   0  0  0  0  0  0  0  0  0  0  0  0
   34.6720   22.5000   38.4820 C   0  0  0  0  0  0  0  0  0  0  0  0
   34.2270   23.4130   37.5210 C   0  0  0  0  0  0  0  0  0  0  0  0
   34.7310   24.6910   37.5660 C   0  0  0  0  0  0  0  0  0  0  0  0
   35.6380   24.9970   38.5470 N   0  0  0  0  0  0  0  0  0  0  0  0
   36.0420   24.0890   39.4550 C   0  0  0  0  0  0  0  0  0  0  0  0
   35.5710   22.8330   39.4400 N   0  0  0  0  0  0  0  0  0  0  0  0
   34.2410   21.5070   38.3970 H   0  0  0  0  0  0  0  0  0  0  0  0
   33.5100   23.1320   36.7650 H   0  0  0  0  0  0  0  0  0  0  0  0
   34.4410   25.4680   36.8590 H   0  0  0  0  0  0  0  0  0  0  0  0
   36.7410   28.7550   40.7970 C   0  0  1  0  0  0  0  0  0  0  0  0
   36.0430   30.1080   40.6490 C   0  0  0  0  0  0  0  0  0  0  0  0
   36.7280   29.4590   39.5100 C   0  0  1  0  0  0  0  0  0  0  0  0
   35.9940   27.9110   40.8960 H   0  0  0  0  0  0  0  0  0  0  0  0
   34.9340   30.1400   40.5940 H   0  0  0  0  0  0  0  0  0  0  0  0
   36.5340   30.9980   41.0940 H   0  0  0  0  0  0  0  0  0  0  0  0
   36.1210   29.0050   38.6720 H   0  0  0  0  0  0  0  0  0  0  0  0
   38.0280   30.0250   38.9450 C   0  0  0  0  0  0  0  0  0  0  0  0
   38.0440   29.9710   37.8380 H   0  0  0  0  0  0  0  0  0  0  0  0
   38.8440   29.4660   39.4400 H   0  0  0  0  0  0  0  0  0  0  0  0
   40.5390   30.8240   40.5170 Cl  0  0  0  0  0  0  0  0  0  0  0  0
   39.2600   31.9430   40.1020 C   0  0  0  0  0  0  0  0  0  0  0  0
   38.1820   31.4580   39.3920 C   0  0  0  0  0  0  0  0  0  0  0  0
   37.1990   32.4080   39.0950 C   0  0  0  0  0  0  0  0  0  0  0  0
   36.3340   32.0400   38.5300 H   0  0  0  0  0  0  0  0  0  0  0  0
   37.2050   33.7240   39.4300 C   0  0  0  0  0  0  0  0  0  0  0  0
   36.3840   34.3680   39.1460 H   0  0  0  0  0  0  0  0  0  0  0  0
   38.3030   34.1600   40.1400 C   0  0  0  0  0  3  0  0  0  0  0  0
   39.3210   33.2710   40.4700 C   0  0  0  0  0  3  0  0  0  0  0  0
  1  6  1  0  0  0  0
  1  2  1  0  0  0  0
  2  8  1  6  0  0  0
  2  3  1  0  0  0  0
  3 10  1  0  0  0  0
  3  4  1  0  0  0  0
  3  9  1  0  0  0  0
  5 12  1  0  0  0  0
  5  4  1  0  0  0  0
  5 13  1  0  0  0  0
  6 14  1  1  0  0  0
  6  5  1  0  0  0  0
  7  1  1  0  0  0  0
 11  4  1  0  0  0  0
 15 19  2  0  0  0  0
 15 16  1  0  0  0  0
 16 20  1  0  0  0  0
 16 17  2  0  0  0  0
 17 21  1  0  0  0  0
 18  2  1  0  0  0  0
 18 17  1  0  0  0  0
 19 18  1  0  0  0  0
 22 27  1  0  0  0  0
 23 24  1  0  0  0  0
 23 22  2  0  0  0  0
 24 25  2  0  0  0  0
 25 26  1  0  0  0  0
 26 15  1  0  0  0  0
 27 26  2  0  0  0  0
 28 22  1  0  0  0  0
 29 23  1  0  0  0  0
 30 24  1  0  0  0  0
 31 34  1  1  0  0  0
 31  6  1  0  0  0  0
 32 31  1  0  0  0  0
 32 36  1  0  0  0  0
 33 37  1  6  0  0  0
 33 32  1  0  0  0  0
 33 31  1  0  0  0  0
 35 32  1  0  0  0  0
 38 43  1  0  0  0  0
 38 40  1  0  0  0  0
 38 33  1  0  0  0  0
 39 38  1  0  0  0  0
 42 49  1  0  0  0  0
 42 41  1  0  0  0  0
 43 42  2  0  0  0  0
 44 43  1  0  0  0  0
 44 46  2  0  0  0  0
 45 44  1  0  0  0  0
 46 48  1  0  0  0  0
 47 46  1  0  0  0  0
 48 49  2  0  0  0  0
M  END
>  <minimizedAffinity>
-5.71622229

$$$$

 OpenBabel03242520083D

 49 53  0  0  1  0  0  0  0  0999 V2000
   39.8480   32.3270   38.9640 N   0  0  0  0  0  0  0  0  0  0  0  0
   40.8010   31.4490   39.5000 C   0  0  1  0  0  0  0  0  0  0  0  0
   41.9370   32.2720   40.0510 C   0  0  0  0  0  0  0  0  0  0  0  0
   41.3720   33.0060   41.1520 N   0  0  0  0  0  0  0  0  0  0  0  0
   40.4080   33.9940   40.7100 C   0  0  0  0  0  0  0  0  0  0  0  0
   39.4990   33.5230   39.6110 C   0  0  2  0  0  0  0  0  0  0  0  0
   39.9800   32.3840   37.9280 H   0  0  0  0  0  0  0  0  0  0  0  0
   41.2010   30.7850   38.7350 H   0  0  0  0  0  0  0  0  0  0  0  0
   42.7960   31.6850   40.3690 H   0  0  0  0  0  0  0  0  0  0  0  0
   42.1810   33.0350   39.2560 H   0  0  0  0  0  0  0  0  0  0  0  0
   41.0580   32.4310   41.9420 H   0  0  0  0  0  0  0  0  0  0  0  0
   39.8630   34.2870   41.6470 H   0  0  0  0  0  0  0  0  0  0  0  0
   41.0080   34.8930   40.4590 H   0  0  0  0  0  0  0  0  0  0  0  0
   39.5660   34.3300   38.8280 H   0  0  0  0  0  0  0  0  0  0  0  0
   39.9940   28.8340   41.7510 C   0  0  0  0  0  0  0  0  0  0  0  0
   39.3110   29.8800   42.3510 C   0  0  0  0  0  0  0  0  0  0  0  0
   39.5120   30.9890   41.6060 C   0  0  0  0  0  0  0  0  0  0  0  0
   40.3030   30.6340   40.5700 N   0  0  0  0  0  0  0  0  0  0  0  0
   40.5810   29.3350   40.6760 N   0  0  0  0  0  0  0  0  0  0  0  0
   38.7140   29.8440   43.2540 H   0  0  0  0  0  0  0  0  0  0  0  0
   39.1450   31.9930   41.7540 H   0  0  0  0  0  0  0  0  0  0  0  0
   41.2270   25.5140   42.7340 C   0  0  0  0  0  0  0  0  0  0  0  0
   40.0560   24.8500   43.1120 C   0  0  0  0  0  0  0  0  0  0  0  0
   38.8700   25.5380   43.0280 C   0  0  0  0  0  0  0  0  0  0  0  0
   38.9010   26.8340   42.5800 N   0  0  0  0  0  0  0  0  0  0  0  0
   40.0500   27.4390   42.2240 C   0  0  0  0  0  0  0  0  0  0  0  0
   41.2260   26.7960   42.2940 N   0  0  0  0  0  0  0  0  0  0  0  0
   42.1320   24.9210   42.8200 H   0  0  0  0  0  0  0  0  0  0  0  0
   40.0740   23.8290   43.4610 H   0  0  0  0  0  0  0  0  0  0  0  0
   37.9090   25.1020   43.3020 H   0  0  0  0  0  0  0  0  0  0  0  0
   38.0910   33.5080   40.1750 C   0  0  1  0  0  0  0  0  0  0  0  0
   37.0310   34.1610   39.2860 C   0  0  0  0  0  0  0  0  0  0  0  0
   37.0050   32.7130   39.5910 C   0  0  1  0  0  0  0  0  0  0  0  0
   37.9540   33.7910   41.2620 H   0  0  0  0  0  0  0  0  0  0  0  0
   36.2310   34.7700   39.7590 H   0  0  0  0  0  0  0  0  0  0  0  0
   37.3250   34.4570   38.2580 H   0  0  0  0  0  0  0  0  0  0  0  0
   36.2230   32.2990   40.2930 H   0  0  0  0  0  0  0  0  0  0  0  0
   37.3220   31.6760   38.5160 C   0  0  0  0  0  0  0  0  0  0  0  0
   38.3840   31.7350   38.2010 H   0  0  0  0  0  0  0  0  0  0  0  0
   36.5960   31.8500   37.7010 H   0  0  0  0  0  0  0  0  0  0  0  0
   38.8080   29.2700   37.3260 Cl  0  0  0  0  0  0  0  0  0  0  0  0
   37.6170   29.1390   38.6020 C   0  0  0  0  0  0  0  0  0  0  0  0
   37.0200   30.2980   39.0500 C   0  0  0  0  0  0  0  0  0  0  0  0
   36.0790   30.1180   40.0700 C   0  0  0  0  0  0  0  0  0  0  0  0
   35.5940   31.0290   40.4390 H   0  0  0  0  0  0  0  0  0  0  0  0
   35.7100   28.9440   40.6440 C   0  0  0  0  0  0  0  0  0  0  0  0
   34.9670   28.9250   41.4300 H   0  0  0  0  0  0  0  0  0  0  0  0
   36.3350   27.8150   40.1610 C   0  0  0  0  0  3  0  0  0  0  0  0
   37.2820   27.9170   39.1470 C   0  0  0  0  0  3  0  0  0  0  0  0
  1  2  1  0  0  0  0
  1  6  1  0  0  0  0
  2  8  1  6  0  0  0
  2  3  1  0  0  0  0
  2 18  1  0  0  0  0
  3  9  1  0  0  0  0
  3  4  1  0  0  0  0
  4 11  1  0  0  0  0
  5  4  1  0  0  0  0
  5 12  1  0  0  0  0
  6 14  1  6  0  0  0
  6 31  1  0  0  0  0
  6  5  1  0  0  0  0
  7  1  1  0  0  0  0
 10  3  1  0  0  0  0
 13  5  1  0  0  0  0
 15 26  1  0  0  0  0
 15 16  1  0  0  0  0
 16 20  1  0  0  0  0
 17 21  1  0  0  0  0
 17 16  2  0  0  0  0
 18 19  1  0  0  0  0
 18 17  1  0  0  0  0
 19 15  2  0  0  0  0
 22 28  1  0  0  0  0
 22 23  1  0  0  0  0
 23 29  1  0  0  0  0
 24 23  2  0  0  0  0
 24 30  1  0  0  0  0
 25 24  1  0  0  0  0
 26 27  1  0  0  0  0
 26 25  2  0  0  0  0
 27 22  2  0  0  0  0
 31 34  1  1  0  0  0
 32 33  1  0  0  0  0
 32 35  1  0  0  0  0
 32 31  1  0  0  0  0
 33 31  1  0  0  0  0
 33 37  1  1  0  0  0
 36 32  1  0  0  0  0
 38 43  1  0  0  0  0
 38 33  1  0  0  0  0
 39 38  1  0  0  0  0
 40 38  1  0  0  0  0
 41 42  1  0  0  0  0
 42 43  2  0  0  0  0
 42 49  1  0  0  0  0
 43 44  1  0  0  0  0
 44 45  1  0  0  0  0
 44 46  2  0  0  0  0
 46 47  1  0  0  0  0
 48 46  1  0  0  0  0
 49 48  2  0  0  0  0
M  END
>  <minimizedAffinity>
-5.70091963

$$$$

 OpenBabel03242520083D

 49 53  0  0  1  0  0  0  0  0999 V2000
   37.8610   29.2380   40.1700 N   0  0  0  0  0  0  0  0  0  0  0  0
   38.1430   30.2680   39.2610 C   0  0  1  0  0  0  0  0  0  0  0  0
   36.8850   31.0740   39.0640 C   0  0  0  0  0  0  0  0  0  0  0  0
   36.6290   31.6910   40.3390 N   0  0  0  0  0  0  0  0  0  0  0  0
   36.2660   30.7210   41.3520 C   0  0  0  0  0  0  0  0  0  0  0  0
   37.0720   29.4540   41.3100 C   0  0  2  0  0  0  0  0  0  0  0  0
   37.6770   28.3560   39.6400 H   0  0  0  0  0  0  0  0  0  0  0  0
   38.4470   29.8700   38.2940 H   0  0  0  0  0  0  0  0  0  0  0  0
   36.9530   31.8170   38.2730 H   0  0  0  0  0  0  0  0  0  0  0  0
   36.0570   30.3220   38.9070 H   0  0  0  0  0  0  0  0  0  0  0  0
   37.3320   32.3750   40.6380 H   0  0  0  0  0  0  0  0  0  0  0  0
   36.3650   31.2820   42.3200 H   0  0  0  0  0  0  0  0  0  0  0  0
   35.1720   30.5760   41.2370 H   0  0  0  0  0  0  0  0  0  0  0  0
   36.3010   28.6330   41.3130 H   0  0  0  0  0  0  0  0  0  0  0  0
   40.8610   31.8730   40.8730 C   0  0  0  0  0  0  0  0  0  0  0  0
   40.4900   32.8710   39.9860 C   0  0  0  0  0  0  0  0  0  0  0  0
   39.4380   32.4200   39.2680 C   0  0  0  0  0  0  0  0  0  0  0  0
   39.1650   31.1710   39.7040 N   0  0  0  0  0  0  0  0  0  0  0  0
   40.0320   30.8610   40.6680 N   0  0  0  0  0  0  0  0  0  0  0  0
   40.9440   33.8470   39.8680 H   0  0  0  0  0  0  0  0  0  0  0  0
   38.8780   32.9100   38.4860 H   0  0  0  0  0  0  0  0  0  0  0  0
   43.1060   31.0900   43.6760 C   0  0  0  0  0  0  0  0  0  0  0  0
   44.0380   32.1310   43.6230 C   0  0  0  0  0  0  0  0  0  0  0  0
   43.8900   33.0790   42.6390 C   0  0  0  0  0  0  0  0  0  0  0  0
   42.8400   32.9510   41.7670 N   0  0  0  0  0  0  0  0  0  0  0  0
   41.9620   31.9340   41.8500 C   0  0  0  0  0  0  0  0  0  0  0  0
   42.0770   30.9910   42.7980 N   0  0  0  0  0  0  0  0  0  0  0  0
   43.2730   30.3730   44.4730 H   0  0  0  0  0  0  0  0  0  0  0  0
   44.8520   32.1960   44.3290 H   0  0  0  0  0  0  0  0  0  0  0  0
   44.5690   33.9240   42.5220 H   0  0  0  0  0  0  0  0  0  0  0  0
   37.8590   29.3850   42.6050 C   0  0  1  0  0  0  0  0  0  0  0  0
   37.2780   28.4500   43.6670 C   0  0  0  0  0  0  0  0  0  0  0  0
   38.5880   28.1860   43.0330 C   0  0  1  0  0  0  0  0  0  0  0  0
   38.2170   30.3580   43.0590 H   0  0  0  0  0  0  0  0  0  0  0  0
   37.3090   28.7590   44.7340 H   0  0  0  0  0  0  0  0  0  0  0  0
   36.4320   27.7930   43.3750 H   0  0  0  0  0  0  0  0  0  0  0  0
   39.5400   28.3350   43.6240 H   0  0  0  0  0  0  0  0  0  0  0  0
   38.7730   27.0260   42.0580 C   0  0  0  0  0  0  0  0  0  0  0  0
   38.4100   27.2910   41.0440 H   0  0  0  0  0  0  0  0  0  0  0  0
   38.2570   26.1610   42.5140 H   0  0  0  0  0  0  0  0  0  0  0  0
   39.6590   24.3440   43.2550 Cl  0  0  0  0  0  0  0  0  0  0  0  0
   40.7570   25.4780   42.5000 C   0  0  0  0  0  0  0  0  0  0  0  0
   40.2330   26.6510   42.0010 C   0  0  0  0  0  0  0  0  0  0  0  0
   41.1680   27.5100   41.4130 C   0  0  0  0  0  0  0  0  0  0  0  0
   40.7680   28.4480   41.0090 H   0  0  0  0  0  0  0  0  0  0  0  0
   42.5050   27.3040   41.2910 C   0  0  0  0  0  0  0  0  0  0  0  0
   43.1350   28.0420   40.8150 H   0  0  0  0  0  0  0  0  0  0  0  0
   42.9800   26.1170   41.8060 C   0  0  0  0  0  3  0  0  0  0  0  0
   42.1080   25.2140   42.4060 C   0  0  0  0  0  3  0  0  0  0  0  0
  1  6  1  0  0  0  0
  2  8  1  6  0  0  0
  2 18  1  0  0  0  0
  2  1  1  0  0  0  0
  3  2  1  0  0  0  0
  3  4  1  0  0  0  0
  4 11  1  0  0  0  0
  4  5  1  0  0  0  0
  5 12  1  0  0  0  0
  6 14  1  1  0  0  0
  6  5  1  0  0  0  0
  6 31  1  0  0  0  0
  7  1  1  0  0  0  0
  9  3  1  0  0  0  0
 10  3  1  0  0  0  0
 13  5  1  0  0  0  0
 15 26  1  0  0  0  0
 16 15  1  0  0  0  0
 17 18  1  0  0  0  0
 17 16  2  0  0  0  0
 18 19  1  0  0  0  0
 19 15  2  0  0  0  0
 20 16  1  0  0  0  0
 21 17  1  0  0  0  0
 22 28  1  0  0  0  0
 23 22  1  0  0  0  0
 23 29  1  0  0  0  0
 24 23  2  0  0  0  0
 25 26  2  0  0  0  0
 25 24  1  0  0  0  0
 26 27  1  0  0  0  0
 27 22  2  0  0  0  0
 30 24  1  0  0  0  0
 31 33  1  0  0  0  0
 31 34  1  1  0  0  0
 31 32  1  0  0  0  0
 32 35  1  0  0  0  0
 33 37  1  1  0  0  0
 33 32  1  0  0  0  0
 36 32  1  0  0  0  0
 38 40  1  0  0  0  0
 38 33  1  0  0  0  0
 39 38  1  0  0  0  0
 42 41  1  0  0  0  0
 43 38  1  0  0  0  0
 43 42  2  0  0  0  0
 44 43  1  0  0  0  0
 45 44  1  0  0  0  0
 46 44  2  0  0  0  0
 46 48  1  0  0  0  0
 47 46  1  0  0  0  0
 48 49  2  0  0  0  0
 49 42  1  0  0  0  0
M  END
>  <minimizedAffinity>
-5.69057989

$$$$
