
 OpenBabel03252509263D

 30 32  0  0  1  0  0  0  0  0999 V2000
   47.0240   35.1480   41.7710 C   0  0  1  0  0  0  0  0  0  0  0  0
   48.5160   35.5680   41.8620 C   0  0  0  0  0  0  0  0  0  0  0  0
   47.9470   34.3280   41.1010 C   0  0  2  0  0  0  0  0  0  0  0  0
   46.3820   35.8960   41.2600 H   0  0  0  0  0  0  0  0  0  0  0  0
   48.7680   36.4220   41.2100 H   0  0  0  0  0  0  0  0  0  0  0  0
   49.0670   35.3890   42.7880 H   0  0  0  0  0  0  0  0  0  0  0  0
   48.3040   33.3630   41.5740 H   0  0  0  0  0  0  0  0  0  0  0  0
   44.9690   34.8920   44.9020 C   0  0  0  0  0  0  0  0  0  0  0  0
   45.4230   35.3830   43.6490 C   0  0  0  0  0  0  0  0  0  0  0  0
   46.5050   34.7480   43.1350 C   0  0  0  0  0  0  0  0  0  0  0  0
   47.1290   33.6980   43.7860 N   0  0  0  0  0  0  0  0  0  0  0  0
   46.6550   33.2690   44.9810 C   0  0  0  0  0  0  0  0  0  0  0  0
   45.5760   33.8660   45.5370 N   0  0  0  0  0  0  0  0  0  0  0  0
   44.1060   35.3590   45.3600 H   0  0  0  0  0  0  0  0  0  0  0  0
   47.2310   32.4450   45.3790 H   0  0  0  0  0  0  0  0  0  0  0  0
   44.8160   36.4700   43.0040 N   0  0  0  0  0  0  0  0  0  0  0  0
   44.2560   36.0280   42.2480 H   0  0  0  0  0  0  0  0  0  0  0  0
   44.8950   37.5080   43.2180 H   0  0  0  0  0  0  0  0  0  0  0  0
   48.0510   34.3160   39.5950 C   0  0  0  0  0  0  0  0  0  0  0  0
   47.7870   35.3030   39.1550 H   0  0  0  0  0  0  0  0  0  0  0  0
   49.1080   34.1150   39.3120 H   0  0  0  0  0  0  0  0  0  0  0  0
   49.7330   31.9470   39.0990 Cl  0  0  0  0  0  0  0  0  0  0  0  0
   48.0150   32.0820   38.8020 C   0  0  0  0  0  0  0  0  0  0  0  0
   47.2390   33.2150   39.0460 C   0  0  0  0  0  0  0  0  0  0  0  0
   45.8920   33.1810   38.7650 C   0  0  0  0  0  0  0  0  0  0  0  0
   45.4060   34.1120   38.9950 H   0  0  0  0  0  0  0  0  0  0  0  0
   45.3170   32.0390   38.2470 C   0  0  0  0  0  0  0  0  0  0  0  0
   44.2540   32.1050   38.0580 H   0  0  0  0  0  0  0  0  0  0  0  0
   46.0920   30.9030   38.0030 C   0  0  0  0  0  3  0  0  0  0  0  0
   47.4430   30.9230   38.2800 C   0  0  0  0  0  3  0  0  0  0  0  0
  1  4  1  6  0  0  0
  1  2  1  0  0  0  0
  1 10  1  0  0  0  0
  2  6  1  0  0  0  0
  3  7  1  1  0  0  0
  3  1  1  0  0  0  0
  3  2  1  0  0  0  0
  5  2  1  0  0  0  0
  8 14  1  0  0  0  0
  8 13  1  0  0  0  0
  9  8  2  0  0  0  0
 10  9  1  0  0  0  0
 10 11  2  0  0  0  0
 11 12  1  0  0  0  0
 12 15  1  0  0  0  0
 12 13  2  0  0  0  0
 16 18  1  0  0  0  0
 16  9  1  0  0  0  0
 17 16  1  0  0  0  0
 19  3  1  0  0  0  0
 20 19  1  0  0  0  0
 21 19  1  0  0  0  0
 23 24  1  0  0  0  0
 23 22  1  0  0  0  0
 24 19  1  0  0  0  0
 25 26  1  0  0  0  0
 25 24  2  0  0  0  0
 27 25  1  0  0  0  0
 28 27  1  0  0  0  0
 29 27  2  0  0  0  0
 29 30  1  0  0  0  0
 30 23  2  0  0  0  0
M  END
>  <minimizedAffinity>
-4.7110939

>  <minimizedRMSD>
2.02903247

$$$$
