
 OpenBabel03242517123D

 47 50  0  0  1  0  0  0  0  0999 V2000
   36.2180   27.5170   38.4690 C   0  0  2  0  0  0  0  0  0  0  0  0
   35.3680   28.4650   39.2360 C   0  0  2  0  0  0  0  0  0  0  0  0
   34.0800   28.7690   38.5600 C   0  0  0  0  0  0  0  0  0  0  0  0
   34.2090   29.1980   37.1250 C   0  0  0  0  0  0  0  0  0  0  0  0
   35.3220   28.5230   36.3790 C   0  0  0  0  0  0  0  0  0  0  0  0
   35.7600   27.2410   37.0630 C   0  0  0  0  0  0  0  0  0  0  0  0
   37.2570   27.9630   38.3900 H   0  0  0  0  0  0  0  0  0  0  0  0
   35.1260   28.0070   40.2180 H   0  0  0  0  0  0  0  0  0  0  0  0
   33.3170   27.9640   38.7010 H   0  0  0  0  0  0  0  0  0  0  0  0
   33.6460   29.6660   39.0930 H   0  0  0  0  0  0  0  0  0  0  0  0
   34.3270   30.2880   37.0020 H   0  0  0  0  0  0  0  0  0  0  0  0
   33.2400   28.9400   36.6210 H   0  0  0  0  0  0  0  0  0  0  0  0
   36.2060   29.1930   36.3280 H   0  0  0  0  0  0  0  0  0  0  0  0
   34.9980   28.2390   35.3490 H   0  0  0  0  0  0  0  0  0  0  0  0
   36.6710   26.9070   36.4750 H   0  0  0  0  0  0  0  0  0  0  0  0
   35.0320   26.4550   36.9270 H   0  0  0  0  0  0  0  0  0  0  0  0
   36.2750   30.0490   40.9790 C   0  0  1  0  0  0  0  0  0  0  0  0
   36.1380   29.7380   39.5210 C   0  0  1  0  0  0  0  0  0  0  0  0
   37.4020   29.6110   38.9650 O   0  0  0  0  0  0  0  0  0  0  0  0
   38.3090   29.3670   40.0090 C   0  0  0  0  0  0  0  0  0  0  0  0
   37.7900   30.3410   41.0700 C   0  0  2  0  0  0  0  0  0  0  0  0
   35.9990   29.1850   41.5820 H   0  0  0  0  0  0  0  0  0  0  0  0
   35.6310   30.5910   39.0090 H   0  0  0  0  0  0  0  0  0  0  0  0
   39.3200   29.6570   39.6720 H   0  0  0  0  0  0  0  0  0  0  0  0
   38.2240   28.3590   40.4240 H   0  0  0  0  0  0  0  0  0  0  0  0
   37.9710   31.3510   40.6670 H   0  0  0  0  0  0  0  0  0  0  0  0
   35.6040   31.1990   41.3570 O   0  0  0  0  0  0  0  0  0  0  0  0
   35.7180   31.8860   40.6350 H   0  0  0  0  0  0  0  0  0  0  0  0
   38.2500   30.0320   42.3100 O   0  0  0  0  0  0  0  0  0  0  0  0
   36.6730   27.4970   43.4070 Cl  0  0  0  0  0  0  0  0  0  0  0  0
   38.3900   27.6880   43.2810 C   0  0  0  0  0  0  0  0  0  0  0  0
   38.7850   28.8890   42.7720 C   0  0  0  0  0  0  0  0  0  0  0  0
   40.1730   29.0290   42.6760 C   0  0  0  0  0  0  0  0  0  0  0  0
   40.7800   29.8560   42.3160 H   0  0  0  0  0  0  0  0  0  0  0  0
   41.0730   28.0330   43.0660 C   0  0  0  0  0  0  0  0  0  0  0  0
   42.1490   28.0440   43.0330 H   0  0  0  0  0  0  0  0  0  0  0  0
   40.5910   26.8240   43.5820 C   0  0  0  0  0  3  0  0  0  0  0  0
   39.2290   26.6780   43.6800 C   0  0  0  0  0  3  0  0  0  0  0  0
   36.3970   26.2290   39.1630 C   0  0  0  0  0  0  0  0  0  0  0  0
   35.8910   25.1190   38.4830 C   0  0  0  0  0  0  0  0  0  0  0  0
   36.0060   23.8350   39.0390 C   0  0  0  0  0  0  0  0  0  0  0  0
   36.6410   23.7730   40.2750 N   0  0  0  0  0  0  0  0  0  0  0  0
   37.1150   24.8740   40.9000 C   0  0  0  0  0  0  0  0  0  0  0  0
   37.0000   26.1120   40.3530 N   0  0  0  0  0  0  0  0  0  0  0  0
   35.3760   25.0110   37.5440 H   0  0  0  0  0  0  0  0  0  0  0  0
   35.6700   22.9120   38.6360 H   0  0  0  0  0  0  0  0  0  0  0  0
   37.5960   24.7700   41.8510 H   0  0  0  0  0  0  0  0  0  0  0  0
  1  7  1  6  0  0  0
  1 39  1  0  0  0  0
  1  2  1  0  0  0  0
  2 18  1  0  0  0  0
  2  8  1  1  0  0  0
  3  9  1  0  0  0  0
  3 10  1  0  0  0  0
  3  2  1  0  0  0  0
  4  3  1  0  0  0  0
  5  6  1  0  0  0  0
  5  4  1  0  0  0  0
  6  1  1  0  0  0  0
 11  4  1  0  0  0  0
 12  4  1  0  0  0  0
 13  5  1  0  0  0  0
 14  5  1  0  0  0  0
 15  6  1  0  0  0  0
 16  6  1  0  0  0  0
 17 21  1  0  0  0  0
 17 27  1  0  0  0  0
 17 22  1  1  0  0  0
 18 23  1  6  0  0  0
 18 17  1  0  0  0  0
 19 18  1  0  0  0  0
 19 20  1  0  0  0  0
 20 25  1  0  0  0  0
 20 21  1  0  0  0  0
 21 26  1  6  0  0  0
 21 29  1  0  0  0  0
 24 20  1  0  0  0  0
 28 27  1  0  0  0  0
 29 32  1  0  0  0  0
 31 30  1  0  0  0  0
 31 38  1  0  0  0  0
 32 31  2  0  0  0  0
 33 32  1  0  0  0  0
 33 35  2  0  0  0  0
 34 33  1  0  0  0  0
 35 37  1  0  0  0  0
 36 35  1  0  0  0  0
 37 38  2  0  0  0  0
 39 44  1  0  0  0  0
 40 41  1  0  0  0  0
 40 39  2  0  0  0  0
 41 42  2  0  0  0  0
 42 43  1  0  0  0  0
 43 47  1  0  0  0  0
 44 43  2  0  0  0  0
 45 40  1  0  0  0  0
 46 41  1  0  0  0  0
M  END
>  <minimizedAffinity>
-6.61767387

$$$$

 OpenBabel03242517123D

 47 50  0  0  1  0  0  0  0  0999 V2000
   39.8410   31.9560   39.9270 C   0  0  2  0  0  0  0  0  0  0  0  0
   38.5060   31.3180   39.7880 C   0  0  2  0  0  0  0  0  0  0  0  0
   37.5400   32.1500   39.0240 C   0  0  0  0  0  0  0  0  0  0  0  0
   37.4140   33.5680   39.5050 C   0  0  0  0  0  0  0  0  0  0  0  0
   38.6930   34.1610   40.0170 C   0  0  0  0  0  0  0  0  0  0  0  0
   39.9060   33.4010   39.5120 C   0  0  0  0  0  0  0  0  0  0  0  0
   40.1340   31.9210   41.0220 H   0  0  0  0  0  0  0  0  0  0  0  0
   38.6280   30.3620   39.2370 H   0  0  0  0  0  0  0  0  0  0  0  0
   37.6920   32.0830   37.9180 H   0  0  0  0  0  0  0  0  0  0  0  0
   36.5220   31.6930   39.1970 H   0  0  0  0  0  0  0  0  0  0  0  0
   36.6400   33.7010   40.2810 H   0  0  0  0  0  0  0  0  0  0  0  0
   37.0690   34.1780   38.6290 H   0  0  0  0  0  0  0  0  0  0  0  0
   38.7130   34.1200   41.1270 H   0  0  0  0  0  0  0  0  0  0  0  0
   38.8120   35.2150   39.6710 H   0  0  0  0  0  0  0  0  0  0  0  0
   40.7790   33.8680   40.0640 H   0  0  0  0  0  0  0  0  0  0  0  0
   40.0900   33.6060   38.4680 H   0  0  0  0  0  0  0  0  0  0  0  0
   36.7010   30.1490   41.1090 C   0  0  1  0  0  0  0  0  0  0  0  0
   37.9510   30.9720   41.1540 C   0  0  1  0  0  0  0  0  0  0  0  0
   38.9260   30.2730   41.8510 O   0  0  0  0  0  0  0  0  0  0  0  0
   38.5620   28.9180   41.8600 C   0  0  0  0  0  0  0  0  0  0  0  0
   37.0550   29.0300   42.1140 C   0  0  2  0  0  0  0  0  0  0  0  0
   36.5410   29.7510   40.1080 H   0  0  0  0  0  0  0  0  0  0  0  0
   37.7500   31.9160   41.7150 H   0  0  0  0  0  0  0  0  0  0  0  0
   39.0660   28.4230   42.7090 H   0  0  0  0  0  0  0  0  0  0  0  0
   38.6920   28.4320   40.8900 H   0  0  0  0  0  0  0  0  0  0  0  0
   36.9510   29.4360   43.1330 H   0  0  0  0  0  0  0  0  0  0  0  0
   35.5920   30.8160   41.6000 O   0  0  0  0  0  0  0  0  0  0  0  0
   35.8700   31.3490   42.4020 H   0  0  0  0  0  0  0  0  0  0  0  0
   36.4000   27.8860   41.7870 O   0  0  0  0  0  0  0  0  0  0  0  0
   37.1890   27.4080   38.7430 Cl  0  0  0  0  0  0  0  0  0  0  0  0
   37.2730   26.2620   40.0390 C   0  0  0  0  0  0  0  0  0  0  0  0
   36.8670   26.7490   41.2460 C   0  0  0  0  0  0  0  0  0  0  0  0
   36.9400   25.8120   42.2820 C   0  0  0  0  0  0  0  0  0  0  0  0
   36.6910   25.9000   43.3360 H   0  0  0  0  0  0  0  0  0  0  0  0
   37.3860   24.5000   42.0990 C   0  0  0  0  0  0  0  0  0  0  0  0
   37.4790   23.7110   42.8260 H   0  0  0  0  0  0  0  0  0  0  0  0
   37.7870   24.0720   40.8280 C   0  0  0  0  0  3  0  0  0  0  0  0
   37.7180   24.9850   39.8050 C   0  0  0  0  0  3  0  0  0  0  0  0
   40.8990   31.2180   39.2150 C   0  0  0  0  0  0  0  0  0  0  0  0
   40.9850   31.4850   37.8470 C   0  0  0  0  0  0  0  0  0  0  0  0
   41.9560   30.8480   37.0600 C   0  0  0  0  0  0  0  0  0  0  0  0
   42.7880   29.9630   37.7380 N   0  0  0  0  0  0  0  0  0  0  0  0
   42.6700   29.7310   39.0650 C   0  0  0  0  0  0  0  0  0  0  0  0
   41.7260   30.3550   39.8180 N   0  0  0  0  0  0  0  0  0  0  0  0
   40.4170   32.1230   37.1910 H   0  0  0  0  0  0  0  0  0  0  0  0
   42.1330   30.9550   36.0190 H   0  0  0  0  0  0  0  0  0  0  0  0
   43.3370   29.0400   39.5380 H   0  0  0  0  0  0  0  0  0  0  0  0
  1  7  1  1  0  0  0
  2  8  1  6  0  0  0
  2  1  1  0  0  0  0
  2 18  1  0  0  0  0
  3 10  1  0  0  0  0
  3  4  1  0  0  0  0
  3  2  1  0  0  0  0
  4  5  1  0  0  0  0
  4 11  1  0  0  0  0
  5 13  1  0  0  0  0
  6  1  1  0  0  0  0
  6  5  1  0  0  0  0
  6 15  1  0  0  0  0
  9  3  1  0  0  0  0
 12  4  1  0  0  0  0
 14  5  1  0  0  0  0
 16  6  1  0  0  0  0
 17 22  1  6  0  0  0
 17 18  1  0  0  0  0
 17 27  1  0  0  0  0
 17 21  1  0  0  0  0
 18 23  1  1  0  0  0
 18 19  1  0  0  0  0
 19 20  1  0  0  0  0
 20 21  1  0  0  0  0
 20 24  1  0  0  0  0
 21 26  1  1  0  0  0
 25 20  1  0  0  0  0
 27 28  1  0  0  0  0
 29 21  1  0  0  0  0
 30 31  1  0  0  0  0
 31 32  1  0  0  0  0
 32 29  1  0  0  0  0
 32 33  2  0  0  0  0
 33 34  1  0  0  0  0
 35 33  1  0  0  0  0
 35 36  1  0  0  0  0
 37 35  2  0  0  0  0
 38 31  2  0  0  0  0
 38 37  1  0  0  0  0
 39 44  1  0  0  0  0
 39  1  1  0  0  0  0
 40 39  2  0  0  0  0
 41 42  2  0  0  0  0
 41 40  1  0  0  0  0
 42 43  1  0  0  0  0
 43 47  1  0  0  0  0
 43 44  2  0  0  0  0
 45 40  1  0  0  0  0
 46 41  1  0  0  0  0
M  END
>  <minimizedAffinity>
-6.25245714

$$$$

 OpenBabel03242517123D

 47 50  0  0  1  0  0  0  0  0999 V2000
   38.2720   31.4830   39.0230 C   0  0  2  0  0  0  0  0  0  0  0  0
   38.5600   30.2430   39.7910 C   0  0  2  0  0  0  0  0  0  0  0  0
   38.2860   29.0040   39.0180 C   0  0  0  0  0  0  0  0  0  0  0  0
   36.9230   28.9450   38.3870 C   0  0  0  0  0  0  0  0  0  0  0  0
   36.4080   30.2710   37.9100 C   0  0  0  0  0  0  0  0  0  0  0  0
   37.5290   31.2780   37.7310 C   0  0  0  0  0  0  0  0  0  0  0  0
   37.6230   32.1520   39.6680 H   0  0  0  0  0  0  0  0  0  0  0  0
   39.6370   30.2350   40.0580 H   0  0  0  0  0  0  0  0  0  0  0  0
   39.1050   28.7530   38.2980 H   0  0  0  0  0  0  0  0  0  0  0  0
   38.2960   28.1560   39.7640 H   0  0  0  0  0  0  0  0  0  0  0  0
   36.1560   28.4950   39.0390 H   0  0  0  0  0  0  0  0  0  0  0  0
   37.0050   28.2600   37.5010 H   0  0  0  0  0  0  0  0  0  0  0  0
   35.6980   30.6920   38.6530 H   0  0  0  0  0  0  0  0  0  0  0  0
   35.9080   30.1720   36.9170 H   0  0  0  0  0  0  0  0  0  0  0  0
   36.9970   32.2510   37.4940 H   0  0  0  0  0  0  0  0  0  0  0  0
   38.1190   31.0570   36.8530 H   0  0  0  0  0  0  0  0  0  0  0  0
   37.2460   28.9040   41.4780 C   0  0  1  0  0  0  0  0  0  0  0  0
   37.7830   30.2470   41.0910 C   0  0  1  0  0  0  0  0  0  0  0  0
   38.6250   30.7030   42.0950 O   0  0  0  0  0  0  0  0  0  0  0  0
   39.0220   29.5950   42.8600 C   0  0  0  0  0  0  0  0  0  0  0  0
   37.7020   28.8250   42.9530 C   0  0  2  0  0  0  0  0  0  0  0  0
   37.7050   28.1200   40.8770 H   0  0  0  0  0  0  0  0  0  0  0  0
   36.9380   30.9710   41.0080 H   0  0  0  0  0  0  0  0  0  0  0  0
   39.3390   29.9510   43.8570 H   0  0  0  0  0  0  0  0  0  0  0  0
   39.7380   28.9510   42.3440 H   0  0  0  0  0  0  0  0  0  0  0  0
   37.0270   29.4550   43.5560 H   0  0  0  0  0  0  0  0  0  0  0  0
   35.8630   28.8450   41.4640 O   0  0  0  0  0  0  0  0  0  0  0  0
   35.5040   29.7070   41.8300 H   0  0  0  0  0  0  0  0  0  0  0  0
   37.8940   27.5290   43.3130 O   0  0  0  0  0  0  0  0  0  0  0  0
   40.6120   26.8600   41.8010 Cl  0  0  0  0  0  0  0  0  0  0  0  0
   39.1610   25.9150   41.8140 C   0  0  0  0  0  0  0  0  0  0  0  0
   38.1480   26.4520   42.5520 C   0  0  0  0  0  0  0  0  0  0  0  0
   36.9820   25.6780   42.5520 C   0  0  0  0  0  0  0  0  0  0  0  0
   36.0250   25.8390   43.0400 H   0  0  0  0  0  0  0  0  0  0  0  0
   36.8660   24.4680   41.8620 C   0  0  0  0  0  0  0  0  0  0  0  0
   36.0190   23.8050   41.8000 H   0  0  0  0  0  0  0  0  0  0  0  0
   37.9500   23.9800   41.1240 C   0  0  0  0  0  3  0  0  0  0  0  0
   39.0980   24.7340   41.1180 C   0  0  0  0  0  3  0  0  0  0  0  0
   39.4870   32.2700   38.7430 C   0  0  0  0  0  0  0  0  0  0  0  0
   40.2010   31.8690   37.6120 C   0  0  0  0  0  0  0  0  0  0  0  0
   41.3730   32.5440   37.2380 C   0  0  0  0  0  0  0  0  0  0  0  0
   41.7420   33.6020   38.0610 N   0  0  0  0  0  0  0  0  0  0  0  0
   41.0230   33.9570   39.1490 C   0  0  0  0  0  0  0  0  0  0  0  0
   39.8890   33.2970   39.5020 N   0  0  0  0  0  0  0  0  0  0  0  0
   40.0500   31.0790   36.8960 H   0  0  0  0  0  0  0  0  0  0  0  0
   42.0090   32.3480   36.4100 H   0  0  0  0  0  0  0  0  0  0  0  0
   41.3520   34.7800   39.7500 H   0  0  0  0  0  0  0  0  0  0  0  0
  1  7  1  1  0  0  0
  1  2  1  0  0  0  0
  2  8  1  1  0  0  0
  2 18  1  0  0  0  0
  3 10  1  0  0  0  0
  3  2  1  0  0  0  0
  4  3  1  0  0  0  0
  4 11  1  0  0  0  0
  5  4  1  0  0  0  0
  5 13  1  0  0  0  0
  6  5  1  0  0  0  0
  6  1  1  0  0  0  0
  9  3  1  0  0  0  0
 12  4  1  0  0  0  0
 14  5  1  0  0  0  0
 15  6  1  0  0  0  0
 16  6  1  0  0  0  0
 17 22  1  6  0  0  0
 17 21  1  0  0  0  0
 18 23  1  6  0  0  0
 18 17  1  0  0  0  0
 18 19  1  0  0  0  0
 19 20  1  0  0  0  0
 20 21  1  0  0  0  0
 20 24  1  0  0  0  0
 21 29  1  0  0  0  0
 21 26  1  1  0  0  0
 25 20  1  0  0  0  0
 27 17  1  0  0  0  0
 27 28  1  0  0  0  0
 30 31  1  0  0  0  0
 31 32  1  0  0  0  0
 32 29  1  0  0  0  0
 33 32  2  0  0  0  0
 33 34  1  0  0  0  0
 35 33  1  0  0  0  0
 36 35  1  0  0  0  0
 37 35  2  0  0  0  0
 38 37  1  0  0  0  0
 38 31  2  0  0  0  0
 39  1  1  0  0  0  0
 39 44  1  0  0  0  0
 40 39  2  0  0  0  0
 41 40  1  0  0  0  0
 41 42  2  0  0  0  0
 42 43  1  0  0  0  0
 43 44  2  0  0  0  0
 43 47  1  0  0  0  0
 45 40  1  0  0  0  0
 46 41  1  0  0  0  0
M  END
>  <minimizedAffinity>
-6.19102335

$$$$

 OpenBabel03242517123D

 47 50  0  0  1  0  0  0  0  0999 V2000
   37.4740   31.1220   38.2640 C   0  0  2  0  0  0  0  0  0  0  0  0
   37.8170   29.7590   38.7460 C   0  0  2  0  0  0  0  0  0  0  0  0
   38.3470   28.8780   37.6730 C   0  0  0  0  0  0  0  0  0  0  0  0
   37.4960   28.8150   36.4340 C   0  0  0  0  0  0  0  0  0  0  0  0
   36.8090   30.1050   36.0940 C   0  0  0  0  0  0  0  0  0  0  0  0
   37.4740   31.2900   36.7680 C   0  0  0  0  0  0  0  0  0  0  0  0
   36.4250   31.3650   38.6170 H   0  0  0  0  0  0  0  0  0  0  0  0
   38.6070   29.8470   39.5210 H   0  0  0  0  0  0  0  0  0  0  0  0
   39.4240   29.0730   37.4450 H   0  0  0  0  0  0  0  0  0  0  0  0
   38.3320   27.8270   38.0880 H   0  0  0  0  0  0  0  0  0  0  0  0
   36.7330   28.0190   36.4660 H   0  0  0  0  0  0  0  0  0  0  0  0
   38.1800   28.5450   35.5860 H   0  0  0  0  0  0  0  0  0  0  0  0
   35.7540   30.0740   36.4370 H   0  0  0  0  0  0  0  0  0  0  0  0
   36.8490   30.3010   34.9960 H   0  0  0  0  0  0  0  0  0  0  0  0
   36.7920   32.1660   36.5320 H   0  0  0  0  0  0  0  0  0  0  0  0
   38.4160   31.5310   36.3000 H   0  0  0  0  0  0  0  0  0  0  0  0
   36.9510   27.9630   40.2930 C   0  0  1  0  0  0  0  0  0  0  0  0
   36.6130   29.1260   39.4130 C   0  0  1  0  0  0  0  0  0  0  0  0
   35.9810   30.0990   40.1730 O   0  0  0  0  0  0  0  0  0  0  0  0
   36.2870   29.8580   41.5220 C   0  0  0  0  0  0  0  0  0  0  0  0
   36.1670   28.3320   41.5730 C   0  0  2  0  0  0  0  0  0  0  0  0
   38.0230   27.9230   40.4800 H   0  0  0  0  0  0  0  0  0  0  0  0
   35.8940   28.7950   38.6260 H   0  0  0  0  0  0  0  0  0  0  0  0
   35.5110   30.3320   42.1490 H   0  0  0  0  0  0  0  0  0  0  0  0
   37.3180   30.1110   41.7800 H   0  0  0  0  0  0  0  0  0  0  0  0
   35.1020   28.1070   41.4010 H   0  0  0  0  0  0  0  0  0  0  0  0
   36.4470   26.7610   39.8260 O   0  0  0  0  0  0  0  0  0  0  0  0
   35.5290   26.9230   39.4570 H   0  0  0  0  0  0  0  0  0  0  0  0
   36.7850   27.8110   42.6640 O   0  0  0  0  0  0  0  0  0  0  0  0
   36.8960   24.6680   42.1910 Cl  0  0  0  0  0  0  0  0  0  0  0  0
   38.2140   25.7110   42.6060 C   0  0  0  0  0  0  0  0  0  0  0  0
   37.8690   27.0220   42.7470 C   0  0  0  0  0  0  0  0  0  0  0  0
   38.9440   27.8530   43.0830 C   0  0  0  0  0  0  0  0  0  0  0  0
   38.9840   28.9240   43.2590 H   0  0  0  0  0  0  0  0  0  0  0  0
   40.2500   27.3840   43.2570 C   0  0  0  0  0  0  0  0  0  0  0  0
   41.1370   27.9380   43.5130 H   0  0  0  0  0  0  0  0  0  0  0  0
   40.5270   26.0220   43.0960 C   0  0  0  0  0  3  0  0  0  0  0  0
   39.4780   25.1990   42.7670 C   0  0  0  0  0  3  0  0  0  0  0  0
   38.3350   32.1640   38.8510 C   0  0  0  0  0  0  0  0  0  0  0  0
   37.6690   33.1030   39.6410 C   0  0  0  0  0  0  0  0  0  0  0  0
   38.3810   34.1420   40.2590 C   0  0  0  0  0  0  0  0  0  0  0  0
   39.7510   34.1510   40.0220 N   0  0  0  0  0  0  0  0  0  0  0  0
   40.3580   33.2230   39.2480 C   0  0  0  0  0  0  0  0  0  0  0  0
   39.6580   32.2200   38.6550 N   0  0  0  0  0  0  0  0  0  0  0  0
   36.6320   33.2310   39.9040 H   0  0  0  0  0  0  0  0  0  0  0  0
   38.0060   34.9170   40.8810 H   0  0  0  0  0  0  0  0  0  0  0  0
   41.4160   33.2770   39.0980 H   0  0  0  0  0  0  0  0  0  0  0  0
  1  7  1  1  0  0  0
  1  2  1  0  0  0  0
  1 39  1  0  0  0  0
  2 18  1  0  0  0  0
  2  8  1  1  0  0  0
  3 10  1  0  0  0  0
  3  2  1  0  0  0  0
  4 11  1  0  0  0  0
  4  3  1  0  0  0  0
  5  4  1  0  0  0  0
  5 13  1  0  0  0  0
  5  6  1  0  0  0  0
  6  1  1  0  0  0  0
  9  3  1  0  0  0  0
 12  4  1  0  0  0  0
 14  5  1  0  0  0  0
 15  6  1  0  0  0  0
 16  6  1  0  0  0  0
 17 22  1  1  0  0  0
 17 21  1  0  0  0  0
 18 23  1  6  0  0  0
 18 19  1  0  0  0  0
 18 17  1  0  0  0  0
 19 20  1  0  0  0  0
 20 21  1  0  0  0  0
 20 25  1  0  0  0  0
 20 24  1  0  0  0  0
 21 26  1  6  0  0  0
 21 29  1  0  0  0  0
 27 17  1  0  0  0  0
 28 27  1  0  0  0  0
 29 32  1  0  0  0  0
 30 31  1  0  0  0  0
 31 32  2  0  0  0  0
 31 38  1  0  0  0  0
 32 33  1  0  0  0  0
 33 35  2  0  0  0  0
 33 34  1  0  0  0  0
 35 36  1  0  0  0  0
 37 35  1  0  0  0  0
 38 37  2  0  0  0  0
 39 40  1  0  0  0  0
 40 45  1  0  0  0  0
 40 41  2  0  0  0  0
 41 46  1  0  0  0  0
 42 41  1  0  0  0  0
 43 42  2  0  0  0  0
 44 39  2  0  0  0  0
 44 43  1  0  0  0  0
 47 43  1  0  0  0  0
M  END
>  <minimizedAffinity>
-6.17445326

$$$$

 OpenBabel03242517123D

 47 50  0  0  1  0  0  0  0  0999 V2000
   38.5620   30.4390   38.7760 C   0  0  2  0  0  0  0  0  0  0  0  0
   37.5670   30.3650   39.8770 C   0  0  2  0  0  0  0  0  0  0  0  0
   36.9230   31.6730   40.1690 C   0  0  0  0  0  0  0  0  0  0  0  0
   37.8820   32.8100   40.3830 C   0  0  0  0  0  0  0  0  0  0  0  0
   39.1190   32.7410   39.5370 C   0  0  0  0  0  0  0  0  0  0  0  0
   38.9280   31.8310   38.3370 C   0  0  0  0  0  0  0  0  0  0  0  0
   39.5200   29.9510   39.1360 H   0  0  0  0  0  0  0  0  0  0  0  0
   36.7620   29.6600   39.5780 H   0  0  0  0  0  0  0  0  0  0  0  0
   36.1100   31.9260   39.4440 H   0  0  0  0  0  0  0  0  0  0  0  0
   36.3930   31.5510   41.1580 H   0  0  0  0  0  0  0  0  0  0  0  0
   38.1940   32.9300   41.4350 H   0  0  0  0  0  0  0  0  0  0  0  0
   37.3300   33.7520   40.1220 H   0  0  0  0  0  0  0  0  0  0  0  0
   39.9640   32.3340   40.1320 H   0  0  0  0  0  0  0  0  0  0  0  0
   39.3850   33.7470   39.1340 H   0  0  0  0  0  0  0  0  0  0  0  0
   39.9570   31.7720   37.8640 H   0  0  0  0  0  0  0  0  0  0  0  0
   38.3000   32.2940   37.5900 H   0  0  0  0  0  0  0  0  0  0  0  0
   37.3090   28.9050   41.9190 C   0  0  1  0  0  0  0  0  0  0  0  0
   38.2120   29.7950   41.1230 C   0  0  1  0  0  0  0  0  0  0  0  0
   39.3320   29.0730   40.7360 O   0  0  0  0  0  0  0  0  0  0  0  0
   39.0150   27.7080   40.8240 C   0  0  0  0  0  0  0  0  0  0  0  0
   38.2280   27.6820   42.1380 C   0  0  2  0  0  0  0  0  0  0  0  0
   36.4250   28.6410   41.3410 H   0  0  0  0  0  0  0  0  0  0  0  0
   38.5620   30.6360   41.7670 H   0  0  0  0  0  0  0  0  0  0  0  0
   39.9540   27.1340   40.9200 H   0  0  0  0  0  0  0  0  0  0  0  0
   38.3380   27.3720   40.0340 H   0  0  0  0  0  0  0  0  0  0  0  0
   38.9540   27.9350   42.9290 H   0  0  0  0  0  0  0  0  0  0  0  0
   36.9950   29.4210   43.1640 O   0  0  0  0  0  0  0  0  0  0  0  0
   37.8160   29.8550   43.5450 H   0  0  0  0  0  0  0  0  0  0  0  0
   37.4820   26.5540   42.2610 O   0  0  0  0  0  0  0  0  0  0  0  0
   39.7450   24.4420   42.9920 Cl  0  0  0  0  0  0  0  0  0  0  0  0
   38.4900   24.2660   41.8120 C   0  0  0  0  0  0  0  0  0  0  0  0
   37.6570   25.3400   41.7130 C   0  0  0  0  0  0  0  0  0  0  0  0
   36.6500   25.1830   40.7550 C   0  0  0  0  0  0  0  0  0  0  0  0
   35.8490   25.8530   40.4520 H   0  0  0  0  0  0  0  0  0  0  0  0
   36.5080   24.0340   39.9730 C   0  0  0  0  0  0  0  0  0  0  0  0
   35.7730   23.8180   39.2160 H   0  0  0  0  0  0  0  0  0  0  0  0
   37.4040   22.9700   40.1310 C   0  0  0  0  0  3  0  0  0  0  0  0
   38.3970   23.1150   41.0690 C   0  0  0  0  0  3  0  0  0  0  0  0
   38.1530   29.6680   37.5880 C   0  0  0  0  0  0  0  0  0  0  0  0
   37.0970   30.2220   36.8620 C   0  0  0  0  0  0  0  0  0  0  0  0
   36.6190   29.5840   35.7070 C   0  0  0  0  0  0  0  0  0  0  0  0
   37.2650   28.4000   35.3690 N   0  0  0  0  0  0  0  0  0  0  0  0
   38.2830   27.8960   36.1010 C   0  0  0  0  0  0  0  0  0  0  0  0
   38.7390   28.5230   37.2170 N   0  0  0  0  0  0  0  0  0  0  0  0
   36.5000   31.1080   37.0020 H   0  0  0  0  0  0  0  0  0  0  0  0
   35.8300   29.8900   35.0650 H   0  0  0  0  0  0  0  0  0  0  0  0
   38.7460   26.9800   35.7950 H   0  0  0  0  0  0  0  0  0  0  0  0
  1  7  1  1  0  0  0
  1  2  1  0  0  0  0
  2  8  1  6  0  0  0
  2  3  1  0  0  0  0
  2 18  1  0  0  0  0
  3  4  1  0  0  0  0
  3 10  1  0  0  0  0
  4 11  1  0  0  0  0
  5 13  1  0  0  0  0
  5  4  1  0  0  0  0
  6  1  1  0  0  0  0
  6  5  1  0  0  0  0
  9  3  1  0  0  0  0
 12  4  1  0  0  0  0
 14  5  1  0  0  0  0
 15  6  1  0  0  0  0
 16  6  1  0  0  0  0
 17 22  1  6  0  0  0
 17 21  1  0  0  0  0
 17 27  1  0  0  0  0
 18 23  1  1  0  0  0
 18 17  1  0  0  0  0
 19 20  1  0  0  0  0
 19 18  1  0  0  0  0
 20 24  1  0  0  0  0
 20 21  1  0  0  0  0
 21 29  1  0  0  0  0
 21 26  1  1  0  0  0
 25 20  1  0  0  0  0
 27 28  1  0  0  0  0
 31 30  1  0  0  0  0
 32 31  1  0  0  0  0
 32 29  1  0  0  0  0
 33 32  2  0  0  0  0
 34 33  1  0  0  0  0
 35 37  2  0  0  0  0
 35 33  1  0  0  0  0
 36 35  1  0  0  0  0
 37 38  1  0  0  0  0
 38 31  2  0  0  0  0
 39  1  1  0  0  0  0
 40 45  1  0  0  0  0
 40 39  2  0  0  0  0
 41 40  1  0  0  0  0
 42 41  2  0  0  0  0
 42 43  1  0  0  0  0
 43 44  2  0  0  0  0
 44 39  1  0  0  0  0
 46 41  1  0  0  0  0
 47 43  1  0  0  0  0
M  END
>  <minimizedAffinity>
-6.10463905

$$$$

 OpenBabel03242517123D

 47 50  0  0  1  0  0  0  0  0999 V2000
   38.0520   25.6390   42.0240 C   0  0  2  0  0  0  0  0  0  0  0  0
   38.4010   26.9950   41.5270 C   0  0  2  0  0  0  0  0  0  0  0  0
   39.8570   27.2860   41.6040 C   0  0  0  0  0  0  0  0  0  0  0  0
   40.4790   27.0260   42.9470 C   0  0  0  0  0  0  0  0  0  0  0  0
   39.8950   25.8540   43.6790 C   0  0  0  0  0  0  0  0  0  0  0  0
   39.1590   24.9150   42.7410 C   0  0  0  0  0  0  0  0  0  0  0  0
   37.2020   25.7460   42.7660 H   0  0  0  0  0  0  0  0  0  0  0  0
   38.1060   27.0670   40.4590 H   0  0  0  0  0  0  0  0  0  0  0  0
   40.4350   26.8240   40.7650 H   0  0  0  0  0  0  0  0  0  0  0  0
   39.9670   28.3990   41.4440 H   0  0  0  0  0  0  0  0  0  0  0  0
   40.4500   27.8990   43.6210 H   0  0  0  0  0  0  0  0  0  0  0  0
   41.5680   26.8200   42.7660 H   0  0  0  0  0  0  0  0  0  0  0  0
   39.1660   26.2060   44.4390 H   0  0  0  0  0  0  0  0  0  0  0  0
   40.6960   25.2490   44.1700 H   0  0  0  0  0  0  0  0  0  0  0  0
   38.6710   24.1570   43.4290 H   0  0  0  0  0  0  0  0  0  0  0  0
   39.8480   24.3460   42.1360 H   0  0  0  0  0  0  0  0  0  0  0  0
   38.0350   29.4490   41.9890 C   0  0  1  0  0  0  0  0  0  0  0  0
   37.6050   28.0440   42.2750 C   0  0  1  0  0  0  0  0  0  0  0  0
   36.2700   27.9000   41.9280 O   0  0  0  0  0  0  0  0  0  0  0  0
   35.9420   28.9370   41.0400 C   0  0  0  0  0  0  0  0  0  0  0  0
   36.6710   30.1140   41.6960 C   0  0  2  0  0  0  0  0  0  0  0  0
   38.6890   29.4790   41.1190 H   0  0  0  0  0  0  0  0  0  0  0  0
   37.6890   27.8500   43.3710 H   0  0  0  0  0  0  0  0  0  0  0  0
   34.8490   29.0910   41.0670 H   0  0  0  0  0  0  0  0  0  0  0  0
   36.3730   28.8020   40.0450 H   0  0  0  0  0  0  0  0  0  0  0  0
   36.1600   30.2890   42.6560 H   0  0  0  0  0  0  0  0  0  0  0  0
   38.5830   30.0860   43.0890 O   0  0  0  0  0  0  0  0  0  0  0  0
   38.0560   29.8280   43.9020 H   0  0  0  0  0  0  0  0  0  0  0  0
   36.8350   31.1520   40.8350 O   0  0  0  0  0  0  0  0  0  0  0  0
   38.1560   29.5880   38.4010 Cl  0  0  0  0  0  0  0  0  0  0  0  0
   38.6770   31.0900   39.0870 C   0  0  0  0  0  0  0  0  0  0  0  0
   37.9150   31.5260   40.1290 C   0  0  0  0  0  0  0  0  0  0  0  0
   38.3490   32.7400   40.6730 C   0  0  0  0  0  0  0  0  0  0  0  0
   37.9530   33.3290   41.4960 H   0  0  0  0  0  0  0  0  0  0  0  0
   39.4590   33.4410   40.1940 C   0  0  0  0  0  0  0  0  0  0  0  0
   39.8690   34.3740   40.5410 H   0  0  0  0  0  0  0  0  0  0  0  0
   40.1940   32.9290   39.1190 C   0  0  0  0  0  3  0  0  0  0  0  0
   39.7760   31.7380   38.5790 C   0  0  0  0  0  3  0  0  0  0  0  0
   37.5340   24.7620   40.9600 C   0  0  0  0  0  0  0  0  0  0  0  0
   37.9670   23.4360   41.0260 C   0  0  0  0  0  0  0  0  0  0  0  0
   37.5380   22.5010   40.0710 C   0  0  0  0  0  0  0  0  0  0  0  0
   36.6810   22.9960   39.0940 N   0  0  0  0  0  0  0  0  0  0  0  0
   36.2860   24.2880   39.0640 C   0  0  0  0  0  0  0  0  0  0  0  0
   36.7070   25.1850   39.9950 N   0  0  0  0  0  0  0  0  0  0  0  0
   38.6250   22.9160   41.7020 H   0  0  0  0  0  0  0  0  0  0  0  0
   37.7860   21.4710   40.0020 H   0  0  0  0  0  0  0  0  0  0  0  0
   35.6240   24.6170   38.2900 H   0  0  0  0  0  0  0  0  0  0  0  0
  1  6  1  0  0  0  0
  1  7  1  1  0  0  0
  2  8  1  6  0  0  0
  2  3  1  0  0  0  0
  2  1  1  0  0  0  0
  2 18  1  0  0  0  0
  3  4  1  0  0  0  0
  4 11  1  0  0  0  0
  4  5  1  0  0  0  0
  5 14  1  0  0  0  0
  5 13  1  0  0  0  0
  6 15  1  0  0  0  0
  6  5  1  0  0  0  0
  9  3  1  0  0  0  0
 10  3  1  0  0  0  0
 12  4  1  0  0  0  0
 16  6  1  0  0  0  0
 17 22  1  6  0  0  0
 17 18  1  0  0  0  0
 17 27  1  0  0  0  0
 18 23  1  1  0  0  0
 19 18  1  0  0  0  0
 20 24  1  0  0  0  0
 20 21  1  0  0  0  0
 20 19  1  0  0  0  0
 21 17  1  0  0  0  0
 21 26  1  1  0  0  0
 25 20  1  0  0  0  0
 27 28  1  0  0  0  0
 29 21  1  0  0  0  0
 30 31  1  0  0  0  0
 31 32  1  0  0  0  0
 32 33  2  0  0  0  0
 32 29  1  0  0  0  0
 33 34  1  0  0  0  0
 35 36  1  0  0  0  0
 35 33  1  0  0  0  0
 37 35  2  0  0  0  0
 38 31  2  0  0  0  0
 38 37  1  0  0  0  0
 39 40  1  0  0  0  0
 39  1  1  0  0  0  0
 40 45  1  0  0  0  0
 41 40  2  0  0  0  0
 42 41  1  0  0  0  0
 43 42  2  0  0  0  0
 43 44  1  0  0  0  0
 44 39  2  0  0  0  0
 46 41  1  0  0  0  0
 47 43  1  0  0  0  0
M  END
>  <minimizedAffinity>
-5.89542198

$$$$

 OpenBabel03242517123D

 47 50  0  0  1  0  0  0  0  0999 V2000
   37.9270   25.3050   41.6490 C   0  0  2  0  0  0  0  0  0  0  0  0
   38.8630   26.4120   41.3220 C   0  0  2  0  0  0  0  0  0  0  0  0
   40.2830   25.9750   41.2650 C   0  0  0  0  0  0  0  0  0  0  0  0
   40.7530   25.2070   42.4690 C   0  0  0  0  0  0  0  0  0  0  0  0
   39.7070   24.3230   43.0820 C   0  0  0  0  0  0  0  0  0  0  0  0
   38.5790   24.0300   42.1090 C   0  0  0  0  0  0  0  0  0  0  0  0
   37.2580   25.6510   42.4960 H   0  0  0  0  0  0  0  0  0  0  0  0
   38.6000   26.8130   40.3210 H   0  0  0  0  0  0  0  0  0  0  0  0
   40.5410   25.4670   40.3030 H   0  0  0  0  0  0  0  0  0  0  0  0
   40.9050   26.9180   41.2620 H   0  0  0  0  0  0  0  0  0  0  0  0
   41.1680   25.8480   43.2650 H   0  0  0  0  0  0  0  0  0  0  0  0
   41.6040   24.5600   42.1280 H   0  0  0  0  0  0  0  0  0  0  0  0
   39.2610   24.8220   43.9680 H   0  0  0  0  0  0  0  0  0  0  0  0
   40.1390   23.3370   43.3750 H   0  0  0  0  0  0  0  0  0  0  0  0
   37.8130   23.4690   42.7300 H   0  0  0  0  0  0  0  0  0  0  0  0
   38.8910   23.3330   41.3460 H   0  0  0  0  0  0  0  0  0  0  0  0
   38.5950   28.8970   41.6720 C   0  0  1  0  0  0  0  0  0  0  0  0
   38.6910   27.5470   42.3110 C   0  0  1  0  0  0  0  0  0  0  0  0
   37.5370   27.3100   43.0420 O   0  0  0  0  0  0  0  0  0  0  0  0
   36.5400   28.1760   42.5660 C   0  0  0  0  0  0  0  0  0  0  0  0
   37.3470   29.4650   42.3840 C   0  0  2  0  0  0  0  0  0  0  0  0
   38.4340   28.8020   40.5990 H   0  0  0  0  0  0  0  0  0  0  0  0
   39.5480   27.5380   43.0260 H   0  0  0  0  0  0  0  0  0  0  0  0
   35.7760   28.3010   43.3540 H   0  0  0  0  0  0  0  0  0  0  0  0
   36.1570   27.8910   41.5830 H   0  0  0  0  0  0  0  0  0  0  0  0
   37.6430   29.7810   43.3980 H   0  0  0  0  0  0  0  0  0  0  0  0
   39.6630   29.7220   41.9780 O   0  0  0  0  0  0  0  0  0  0  0  0
   39.9050   29.5860   42.9420 H   0  0  0  0  0  0  0  0  0  0  0  0
   36.7110   30.3510   41.5740 O   0  0  0  0  0  0  0  0  0  0  0  0
   38.5870   32.8230   40.8780 Cl  0  0  0  0  0  0  0  0  0  0  0  0
   37.7860   31.7700   39.7610 C   0  0  0  0  0  0  0  0  0  0  0  0
   37.0420   30.7900   40.3490 C   0  0  0  0  0  0  0  0  0  0  0  0
   36.4010   29.9480   39.4340 C   0  0  0  0  0  0  0  0  0  0  0  0
   35.7510   29.0920   39.5940 H   0  0  0  0  0  0  0  0  0  0  0  0
   36.5110   30.0960   38.0480 C   0  0  0  0  0  0  0  0  0  0  0  0
   36.0600   29.5050   37.2690 H   0  0  0  0  0  0  0  0  0  0  0  0
   37.2930   31.1280   37.5190 C   0  0  0  0  0  3  0  0  0  0  0  0
   37.9270   31.9600   38.4090 C   0  0  0  0  0  3  0  0  0  0  0  0
   37.0150   24.9880   40.5360 C   0  0  0  0  0  0  0  0  0  0  0  0
   36.8970   25.9870   39.5680 C   0  0  0  0  0  0  0  0  0  0  0  0
   36.0620   25.8000   38.4550 C   0  0  0  0  0  0  0  0  0  0  0  0
   35.3920   24.5830   38.4080 N   0  0  0  0  0  0  0  0  0  0  0  0
   35.5330   23.6420   39.3680 C   0  0  0  0  0  0  0  0  0  0  0  0
   36.3450   23.8330   40.4410 N   0  0  0  0  0  0  0  0  0  0  0  0
   37.3350   26.9660   39.4720 H   0  0  0  0  0  0  0  0  0  0  0  0
   35.8800   26.4690   37.6500 H   0  0  0  0  0  0  0  0  0  0  0  0
   34.9930   22.7210   39.2840 H   0  0  0  0  0  0  0  0  0  0  0  0
  1  6  1  0  0  0  0
  1  7  1  1  0  0  0
  2  8  1  6  0  0  0
  2  1  1  0  0  0  0
  2 18  1  0  0  0  0
  3  2  1  0  0  0  0
  3  4  1  0  0  0  0
  4  5  1  0  0  0  0
  4 11  1  0  0  0  0
  5 14  1  0  0  0  0
  5 13  1  0  0  0  0
  6 15  1  0  0  0  0
  6  5  1  0  0  0  0
  9  3  1  0  0  0  0
 10  3  1  0  0  0  0
 12  4  1  0  0  0  0
 16  6  1  0  0  0  0
 17 22  1  6  0  0  0
 17 27  1  0  0  0  0
 17 18  1  0  0  0  0
 17 21  1  0  0  0  0
 18 23  1  1  0  0  0
 18 19  1  0  0  0  0
 20 19  1  0  0  0  0
 20 24  1  0  0  0  0
 21 20  1  0  0  0  0
 21 26  1  1  0  0  0
 25 20  1  0  0  0  0
 27 28  1  0  0  0  0
 29 21  1  0  0  0  0
 31 32  1  0  0  0  0
 31 30  1  0  0  0  0
 32 29  1  0  0  0  0
 33 34  1  0  0  0  0
 33 32  2  0  0  0  0
 35 33  1  0  0  0  0
 36 35  1  0  0  0  0
 37 35  2  0  0  0  0
 37 38  1  0  0  0  0
 38 31  2  0  0  0  0
 39  1  1  0  0  0  0
 40 39  2  0  0  0  0
 41 40  1  0  0  0  0
 42 41  2  0  0  0  0
 42 43  1  0  0  0  0
 43 44  2  0  0  0  0
 44 39  1  0  0  0  0
 45 40  1  0  0  0  0
 46 41  1  0  0  0  0
 47 43  1  0  0  0  0
M  END
>  <minimizedAffinity>
-5.893929

$$$$

 OpenBabel03242517123D

 47 50  0  0  1  0  0  0  0  0999 V2000
   36.6480   27.9150   39.4700 C   0  0  2  0  0  0  0  0  0  0  0  0
   36.0070   29.1510   39.9890 C   0  0  2  0  0  0  0  0  0  0  0  0
   34.5500   29.2160   39.6990 C   0  0  0  0  0  0  0  0  0  0  0  0
   34.1850   28.9810   38.2600 C   0  0  0  0  0  0  0  0  0  0  0  0
   35.0590   27.9840   37.5590 C   0  0  0  0  0  0  0  0  0  0  0  0
   35.7960   27.0930   38.5420 C   0  0  0  0  0  0  0  0  0  0  0  0
   37.5680   28.2190   38.8820 H   0  0  0  0  0  0  0  0  0  0  0  0
   36.1250   29.1740   41.0930 H   0  0  0  0  0  0  0  0  0  0  0  0
   33.9410   28.5980   40.4050 H   0  0  0  0  0  0  0  0  0  0  0  0
   34.2330   30.2800   39.9090 H   0  0  0  0  0  0  0  0  0  0  0  0
   34.1660   29.9040   37.6560 H   0  0  0  0  0  0  0  0  0  0  0  0
   33.1320   28.5930   38.2520 H   0  0  0  0  0  0  0  0  0  0  0  0
   35.8230   28.5110   36.9490 H   0  0  0  0  0  0  0  0  0  0  0  0
   34.4520   27.3070   36.9100 H   0  0  0  0  0  0  0  0  0  0  0  0
   36.5000   26.4840   37.8940 H   0  0  0  0  0  0  0  0  0  0  0  0
   35.1310   26.3720   38.9930 H   0  0  0  0  0  0  0  0  0  0  0  0
   37.2460   31.2880   40.5050 C   0  0  1  0  0  0  0  0  0  0  0  0
   36.7170   30.3730   39.4440 C   0  0  1  0  0  0  0  0  0  0  0  0
   37.7710   29.9420   38.6530 O   0  0  0  0  0  0  0  0  0  0  0  0
   38.9590   30.1330   39.3760 C   0  0  0  0  0  0  0  0  0  0  0  0
   38.6920   31.5050   40.0040 C   0  0  2  0  0  0  0  0  0  0  0  0
   37.2290   30.7980   41.4770 H   0  0  0  0  0  0  0  0  0  0  0  0
   36.0140   30.9380   38.7870 H   0  0  0  0  0  0  0  0  0  0  0  0
   39.8010   30.1870   38.6630 H   0  0  0  0  0  0  0  0  0  0  0  0
   39.0830   29.4200   40.1950 H   0  0  0  0  0  0  0  0  0  0  0  0
   38.6630   32.2190   39.1660 H   0  0  0  0  0  0  0  0  0  0  0  0
   36.6200   32.5230   40.5210 O   0  0  0  0  0  0  0  0  0  0  0  0
   36.4620   32.8120   39.5740 H   0  0  0  0  0  0  0  0  0  0  0  0
   39.5170   31.7500   41.0550 O   0  0  0  0  0  0  0  0  0  0  0  0
   41.9320   30.9910   42.9800 Cl  0  0  0  0  0  0  0  0  0  0  0  0
   41.9140   32.2150   41.7560 C   0  0  0  0  0  0  0  0  0  0  0  0
   40.7330   32.3190   41.0820 C   0  0  0  0  0  0  0  0  0  0  0  0
   40.7340   33.3120   40.0970 C   0  0  0  0  0  0  0  0  0  0  0  0
   39.9550   33.6270   39.4080 H   0  0  0  0  0  0  0  0  0  0  0  0
   41.8390   34.1240   39.8280 C   0  0  0  0  0  0  0  0  0  0  0  0
   41.9380   34.9090   39.0980 H   0  0  0  0  0  0  0  0  0  0  0  0
   43.0190   33.9600   40.5630 C   0  0  0  0  0  3  0  0  0  0  0  0
   43.0270   32.9870   41.5320 C   0  0  0  0  0  3  0  0  0  0  0  0
   37.1440   27.0390   40.5470 C   0  0  0  0  0  0  0  0  0  0  0  0
   36.9530   25.6730   40.3290 C   0  0  0  0  0  0  0  0  0  0  0  0
   37.3880   24.7370   41.2800 C   0  0  0  0  0  0  0  0  0  0  0  0
   37.9970   25.2720   42.4100 N   0  0  0  0  0  0  0  0  0  0  0  0
   38.1620   26.6020   42.5830 C   0  0  0  0  0  0  0  0  0  0  0  0
   37.7380   27.5000   41.6550 N   0  0  0  0  0  0  0  0  0  0  0  0
   36.4980   25.1190   39.5260 H   0  0  0  0  0  0  0  0  0  0  0  0
   37.3080   23.6780   41.2450 H   0  0  0  0  0  0  0  0  0  0  0  0
   38.6380   26.9610   43.4720 H   0  0  0  0  0  0  0  0  0  0  0  0
  1  7  1  6  0  0  0
  1  2  1  0  0  0  0
  1 39  1  0  0  0  0
  2  8  1  1  0  0  0
  3 10  1  0  0  0  0
  3  2  1  0  0  0  0
  3  9  1  0  0  0  0
  4  3  1  0  0  0  0
  5  4  1  0  0  0  0
  5  6  1  0  0  0  0
  6 16  1  0  0  0  0
  6  1  1  0  0  0  0
 11  4  1  0  0  0  0
 12  4  1  0  0  0  0
 13  5  1  0  0  0  0
 14  5  1  0  0  0  0
 15  6  1  0  0  0  0
 17 27  1  0  0  0  0
 17 22  1  1  0  0  0
 18 23  1  6  0  0  0
 18  2  1  0  0  0  0
 18 17  1  0  0  0  0
 19 20  1  0  0  0  0
 19 18  1  0  0  0  0
 20 21  1  0  0  0  0
 20 25  1  0  0  0  0
 21 26  1  6  0  0  0
 21 17  1  0  0  0  0
 21 29  1  0  0  0  0
 24 20  1  0  0  0  0
 28 27  1  0  0  0  0
 29 32  1  0  0  0  0
 31 30  1  0  0  0  0
 32 31  2  0  0  0  0
 33 32  1  0  0  0  0
 34 33  1  0  0  0  0
 35 33  2  0  0  0  0
 35 37  1  0  0  0  0
 36 35  1  0  0  0  0
 37 38  2  0  0  0  0
 38 31  1  0  0  0  0
 39 44  1  0  0  0  0
 40 39  2  0  0  0  0
 40 41  1  0  0  0  0
 41 42  2  0  0  0  0
 42 43  1  0  0  0  0
 43 47  1  0  0  0  0
 44 43  2  0  0  0  0
 45 40  1  0  0  0  0
 46 41  1  0  0  0  0
M  END
>  <minimizedAffinity>
-5.88675308

$$$$

 OpenBabel03242517123D

 47 50  0  0  1  0  0  0  0  0999 V2000
   37.3450   28.9520   36.6720 C   0  0  2  0  0  0  0  0  0  0  0  0
   36.3950   28.4820   37.7150 C   0  0  2  0  0  0  0  0  0  0  0  0
   35.2840   27.6640   37.1630 C   0  0  0  0  0  0  0  0  0  0  0  0
   34.5530   28.2920   36.0090 C   0  0  0  0  0  0  0  0  0  0  0  0
   35.4240   29.1080   35.1000 C   0  0  0  0  0  0  0  0  0  0  0  0
   36.8900   28.7460   35.2530 C   0  0  0  0  0  0  0  0  0  0  0  0
   37.4900   30.0680   36.8070 H   0  0  0  0  0  0  0  0  0  0  0  0
   36.9490   27.8450   38.4350 H   0  0  0  0  0  0  0  0  0  0  0  0
   35.5870   26.6070   36.9560 H   0  0  0  0  0  0  0  0  0  0  0  0
   34.5130   27.5810   37.9840 H   0  0  0  0  0  0  0  0  0  0  0  0
   33.7000   28.9190   36.3200 H   0  0  0  0  0  0  0  0  0  0  0  0
   34.1090   27.4530   35.4110 H   0  0  0  0  0  0  0  0  0  0  0  0
   35.3200   30.1870   35.3430 H   0  0  0  0  0  0  0  0  0  0  0  0
   35.1630   28.9300   34.0300 H   0  0  0  0  0  0  0  0  0  0  0  0
   37.4350   29.5090   34.6140 H   0  0  0  0  0  0  0  0  0  0  0  0
   37.1080   27.7910   34.7990 H   0  0  0  0  0  0  0  0  0  0  0  0
   35.4520   29.3290   39.8970 C   0  0  1  0  0  0  0  0  0  0  0  0
   35.8550   29.6630   38.4950 C   0  0  1  0  0  0  0  0  0  0  0  0
   36.8360   30.6430   38.5280 O   0  0  0  0  0  0  0  0  0  0  0  0
   37.4080   30.6360   39.8100 C   0  0  0  0  0  0  0  0  0  0  0  0
   36.1580   30.4600   40.6780 C   0  0  2  0  0  0  0  0  0  0  0  0
   35.8340   28.3500   40.1820 H   0  0  0  0  0  0  0  0  0  0  0  0
   34.9770   30.0870   37.9510 H   0  0  0  0  0  0  0  0  0  0  0  0
   37.8750   31.6210   39.9930 H   0  0  0  0  0  0  0  0  0  0  0  0
   38.0520   29.7720   39.9890 H   0  0  0  0  0  0  0  0  0  0  0  0
   35.5700   31.3840   40.5510 H   0  0  0  0  0  0  0  0  0  0  0  0
   34.0920   29.4540   40.1180 O   0  0  0  0  0  0  0  0  0  0  0  0
   33.7630   30.2670   39.6310 H   0  0  0  0  0  0  0  0  0  0  0  0
   36.4670   30.0390   41.9320 O   0  0  0  0  0  0  0  0  0  0  0  0
   39.4940   30.6110   42.7210 Cl  0  0  0  0  0  0  0  0  0  0  0  0
   38.6810   29.0820   42.7290 C   0  0  0  0  0  0  0  0  0  0  0  0
   37.3760   29.1380   42.3400 C   0  0  0  0  0  0  0  0  0  0  0  0
   36.7330   27.8960   42.3510 C   0  0  0  0  0  0  0  0  0  0  0  0
   35.7120   27.6240   42.0970 H   0  0  0  0  0  0  0  0  0  0  0  0
   37.3670   26.7080   42.7250 C   0  0  0  0  0  0  0  0  0  0  0  0
   36.9630   25.7110   42.7660 H   0  0  0  0  0  0  0  0  0  0  0  0
   38.7120   26.7290   43.1130 C   0  0  0  0  0  3  0  0  0  0  0  0
   39.3510   27.9450   43.1050 C   0  0  0  0  0  3  0  0  0  0  0  0
   38.6870   28.3630   36.8220 C   0  0  0  0  0  0  0  0  0  0  0  0
   39.6520   29.2220   37.3510 C   0  0  0  0  0  0  0  0  0  0  0  0
   40.9680   28.7760   37.5460 C   0  0  0  0  0  0  0  0  0  0  0  0
   41.2130   27.4570   37.1790 N   0  0  0  0  0  0  0  0  0  0  0  0
   40.2490   26.6570   36.6690 C   0  0  0  0  0  0  0  0  0  0  0  0
   38.9780   27.1000   36.4840 N   0  0  0  0  0  0  0  0  0  0  0  0
   39.6190   30.2520   37.6660 H   0  0  0  0  0  0  0  0  0  0  0  0
   41.7950   29.3160   37.9360 H   0  0  0  0  0  0  0  0  0  0  0  0
   40.4910   25.6490   36.4020 H   0  0  0  0  0  0  0  0  0  0  0  0
  1  7  1  1  0  0  0
  1 39  1  0  0  0  0
  1  2  1  0  0  0  0
  2  8  1  1  0  0  0
  2 18  1  0  0  0  0
  3  2  1  0  0  0  0
  3 10  1  0  0  0  0
  4 11  1  0  0  0  0
  4  3  1  0  0  0  0
  5  6  1  0  0  0  0
  5 13  1  0  0  0  0
  5  4  1  0  0  0  0
  6  1  1  0  0  0  0
  9  3  1  0  0  0  0
 12  4  1  0  0  0  0
 14  5  1  0  0  0  0
 15  6  1  0  0  0  0
 16  6  1  0  0  0  0
 17 27  1  0  0  0  0
 17 22  1  1  0  0  0
 17 21  1  0  0  0  0
 18 23  1  6  0  0  0
 18 19  1  0  0  0  0
 18 17  1  0  0  0  0
 19 20  1  0  0  0  0
 20 25  1  0  0  0  0
 20 24  1  0  0  0  0
 20 21  1  0  0  0  0
 21 26  1  1  0  0  0
 21 29  1  0  0  0  0
 28 27  1  0  0  0  0
 29 32  1  0  0  0  0
 30 31  1  0  0  0  0
 31 38  1  0  0  0  0
 32 33  1  0  0  0  0
 32 31  2  0  0  0  0
 33 35  2  0  0  0  0
 34 33  1  0  0  0  0
 35 36  1  0  0  0  0
 35 37  1  0  0  0  0
 38 37  2  0  0  0  0
 39 40  1  0  0  0  0
 40 41  2  0  0  0  0
 40 45  1  0  0  0  0
 41 46  1  0  0  0  0
 42 41  1  0  0  0  0
 43 42  2  0  0  0  0
 44 43  1  0  0  0  0
 44 39  2  0  0  0  0
 47 43  1  0  0  0  0
M  END
>  <minimizedAffinity>
-5.87307978

$$$$
