
     RDKit          3D

 32 34  0  0  0  0  0  0  0  0999 V2000
   44.6688   35.3793   45.1446 C   0  0  0  0  0  0  0  0  0  0  0  0
   45.1278   35.6927   43.8383 C   0  0  0  0  0  0  0  0  0  0  0  0
   46.0729   34.8594   43.3389 C   0  0  0  0  0  0  0  0  0  0  0  0
   46.5616   33.7777   44.0526 N   0  0  0  0  0  0  0  0  0  0  0  0
   46.0892   33.5236   45.2980 C   0  0  0  0  0  0  0  0  0  0  0  0
   45.1437   34.3236   45.8421 N   0  0  0  0  0  0  0  0  0  0  0  0
   46.5763   35.0641   41.9270 C   0  0  1  0  0  0  0  0  0  0  0  0
   48.1118   35.2909   41.9281 C   0  0  0  0  0  0  0  0  0  0  0  0
   47.3545   34.0739   41.3070 C   0  0  2  0  0  0  0  0  0  0  0  0
   47.3890   33.9136   39.8061 C   0  0  0  0  0  0  0  0  0  0  0  0
   44.6623   36.8082   43.1262 N   0  0  0  0  0  0  0  0  0  0  0  0
   43.9123   36.0096   45.5944 H   0  0  0  0  0  0  0  0  0  0  0  0
   46.5524   32.6541   45.7427 H   0  0  0  0  0  0  0  0  0  0  0  0
   46.0125   35.8423   41.3695 H   0  0  0  0  0  0  0  0  0  0  0  0
   48.4423   36.0431   41.1908 H   0  0  0  0  0  0  0  0  0  0  0  0
   48.6767   35.1232   42.8477 H   0  0  0  0  0  0  0  0  0  0  0  0
   47.6073   33.1159   41.8565 H   0  0  0  0  0  0  0  0  0  0  0  0
   46.3673   33.7966   39.3805 H   0  0  0  0  0  0  0  0  0  0  0  0
   47.8151   34.8383   39.3576 H   0  0  0  0  0  0  0  0  0  0  0  0
   44.0031   36.4007   42.4331 H   0  0  0  0  0  0  0  0  0  0  0  0
   44.9092   37.8342   43.2474 H   0  0  0  0  0  0  0  0  0  0  0  0
   48.6441   34.4278   37.1906 Cl  0  0  0  0  0  0  0  0  0  0  0  0
   48.8909   33.0229   38.2041 C   0  0  0  0  0  0  0  0  0  0  0  0
   48.2845   32.8019   39.4408 C   0  0  0  0  0  0  0  0  0  0  0  0
   48.5718   31.6475   40.1330 C   0  0  0  0  0  0  0  0  0  0  0  0
   48.0443   31.5936   41.0678 H   0  0  0  0  0  0  0  0  0  0  0  0
   49.4493   30.7205   39.6093 C   0  0  0  0  0  0  0  0  0  0  0  0
   49.6132   29.8456   40.2236 H   0  0  0  0  0  0  0  0  0  0  0  0
   50.0573   30.9402   38.3717 C   0  0  0  0  0  0  0  0  0  0  0  0
   49.7788   32.0924   37.6668 C   0  0  0  0  0  0  0  0  0  0  0  0
   50.7268   30.1398   38.0672 H   0  0  0  0  0  0  0  0  0  0  0  0
   50.2780   32.2079   36.7163 H   0  0  0  0  0  0  0  0  0  0  0  0
  1  6  2  0
  2  1  1  0
  3  2  2  0
  3  4  1  0
  4  5  2  0
  5  6  1  0
  7  3  1  0
  8  7  1  0
  9  8  1  0
  9  7  1  0
 10  9  1  0
 11  2  1  0
  1 12  1  0
  5 13  1  0
  7 14  1  6
  8 15  1  0
  8 16  1  0
  9 17  1  1
 10 18  1  0
 10 19  1  0
 11 20  1  0
 11 21  1  0
 22 23  1  0
 23 24  2  0
 24 25  1  0
 25 26  1  0
 25 27  2  0
 27 28  1  0
 27 29  1  0
 29 30  2  0
 30 23  1  0
 29 31  1  0
 30 32  1  0
 10 24  1  0
M  ISO  8  12  14  13  14  14  13  15  13  16  13  17  13  18   8  19   8
M  ISO  2  26  15  28  16
M  END
>  <DihAtoms>  (1) 
8,9,23,22

>  <DihDeg>  (1) 
76.02839714149951

$$$$
