
 OpenBabel03242517053D

 33 35  0  0  0  0  0  0  0  0999 V2000
   37.4010   25.4830   41.1150 C   0  0  0  0  0  0  0  0  0  0  0  0
   37.9380   24.3150   41.6440 C   0  0  0  0  0  0  0  0  0  0  0  0
   37.7330   23.1310   40.9450 C   0  0  0  0  0  0  0  0  0  0  0  0
   37.0290   23.1290   39.7860 C   0  0  0  0  0  0  0  0  0  0  0  0
   36.4880   24.2700   39.2440 C   0  0  0  0  0  0  0  0  0  0  0  0
   36.6980   25.4630   39.9530 C   0  0  0  0  0  0  0  0  0  0  0  0
   38.5020   24.2890   42.5620 H   0  0  0  0  0  0  0  0  0  0  0  0
   38.1140   22.1770   41.2810 H   0  0  0  0  0  0  0  0  0  0  0  0
   36.8620   22.2100   39.2320 H   0  0  0  0  0  0  0  0  0  0  0  0
   35.9240   24.3450   38.3390 H   0  0  0  0  0  0  0  0  0  0  0  0
   37.2760   28.2510   43.6780 C   0  0  0  0  0  0  0  0  0  0  0  0
   36.9380   27.0400   43.0180 C   0  0  0  0  0  0  0  0  0  0  0  0
   37.6430   26.7010   41.8950 C   0  0  0  0  0  0  0  0  0  0  0  0
   38.6320   27.5430   41.4690 N   0  0  0  0  0  0  0  0  0  0  0  0
   38.9430   28.6910   42.1050 C   0  0  0  0  0  0  0  0  0  0  0  0
   38.2550   29.0450   43.2220 N   0  0  0  0  0  0  0  0  0  0  0  0
   36.7190   28.5200   44.5670 H   0  0  0  0  0  0  0  0  0  0  0  0
   36.1530   26.3800   43.3640 H   0  0  0  0  0  0  0  0  0  0  0  0
   39.7480   29.2550   41.6540 H   0  0  0  0  0  0  0  0  0  0  0  0
   36.2760   27.4690   38.3480 C   0  0  0  0  0  0  0  0  0  0  0  0
   36.9070   27.1820   37.3440 O   0  0  0  0  0  0  0  0  0  0  0  0
   36.1980   26.7120   39.5290 N   0  0  0  0  0  0  0  0  0  0  0  0
   35.6660   27.0450   40.3850 H   0  0  0  0  0  0  0  0  0  0  0  0
   35.5690   28.6740   38.3020 O   0  0  0  0  0  0  0  0  0  0  0  0
   37.1720   30.5400   36.5460 Cl  0  0  0  0  0  0  0  0  0  0  0  0
   36.8380   30.7370   38.2520 C   0  0  0  0  0  0  0  0  0  0  0  0
   36.0890   29.8010   38.9260 C   0  0  0  0  0  0  0  0  0  0  0  0
   35.8300   29.9680   40.2870 C   0  0  0  0  0  0  0  0  0  0  0  0
   35.2440   29.2330   40.8060 H   0  0  0  0  0  0  0  0  0  0  0  0
   36.3190   31.0680   40.9620 C   0  0  0  0  0  0  0  0  0  0  0  0
   36.0810   31.1370   42.0150 H   0  0  0  0  0  0  0  0  0  0  0  0
   37.0800   32.0230   40.2880 C   0  0  0  0  0  3  0  0  0  0  0  0
   37.3260   31.8340   38.9280 C   0  0  0  0  0  3  0  0  0  0  0  0
  1  2  1  0  0  0  0
  1 13  1  0  0  0  0
  2  7  1  0  0  0  0
  3  8  1  0  0  0  0
  3  2  2  0  0  0  0
  4  3  1  0  0  0  0
  5  4  2  0  0  0  0
  5  6  1  0  0  0  0
  6  1  2  0  0  0  0
  9  4  1  0  0  0  0
 10  5  1  0  0  0  0
 11 17  1  0  0  0  0
 12 18  1  0  0  0  0
 12 11  2  0  0  0  0
 13 12  1  0  0  0  0
 14 13  2  0  0  0  0
 14 15  1  0  0  0  0
 15 16  2  0  0  0  0
 16 11  1  0  0  0  0
 19 15  1  0  0  0  0
 20 22  1  0  0  0  0
 21 20  2  0  0  0  0
 22  6  1  0  0  0  0
 22 23  1  0  0  0  0
 24 20  1  0  0  0  0
 24 27  1  0  0  0  0
 25 26  1  0  0  0  0
 26 27  2  0  0  0  0
 26 33  1  0  0  0  0
 27 28  1  0  0  0  0
 28 29  1  0  0  0  0
 28 30  2  0  0  0  0
 30 31  1  0  0  0  0
 32 30  1  0  0  0  0
 33 32  2  0  0  0  0
M  END
>  <minimizedAffinity>
-5.72365236

$$$$

 OpenBabel03242517053D

 33 35  0  0  0  0  0  0  0  0999 V2000
   37.5600   30.8910   38.1790 C   0  0  0  0  0  0  0  0  0  0  0  0
   37.3600   31.0050   36.8090 C   0  0  0  0  0  0  0  0  0  0  0  0
   36.6000   30.0270   36.1780 C   0  0  0  0  0  0  0  0  0  0  0  0
   36.0760   28.9980   36.8900 C   0  0  0  0  0  0  0  0  0  0  0  0
   36.2600   28.8630   38.2450 C   0  0  0  0  0  0  0  0  0  0  0  0
   37.0280   29.8530   38.8770 C   0  0  0  0  0  0  0  0  0  0  0  0
   37.7640   31.8130   36.2200 H   0  0  0  0  0  0  0  0  0  0  0  0
   36.3930   30.0360   35.1170 H   0  0  0  0  0  0  0  0  0  0  0  0
   35.4800   28.2290   36.4080 H   0  0  0  0  0  0  0  0  0  0  0  0
   35.8790   28.0830   38.8690 H   0  0  0  0  0  0  0  0  0  0  0  0
   40.3750   33.1870   39.2040 C   0  0  0  0  0  0  0  0  0  0  0  0
   39.7070   32.1230   38.5410 C   0  0  0  0  0  0  0  0  0  0  0  0
   38.3730   31.9460   38.7920 C   0  0  0  0  0  0  0  0  0  0  0  0
   37.7560   32.8000   39.6630 N   0  0  0  0  0  0  0  0  0  0  0  0
   38.4020   33.8060   40.2860 C   0  0  0  0  0  0  0  0  0  0  0  0
   39.7260   33.9980   40.0510 N   0  0  0  0  0  0  0  0  0  0  0  0
   41.4300   33.3280   39.0060 H   0  0  0  0  0  0  0  0  0  0  0  0
   40.2050   31.4520   37.8530 H   0  0  0  0  0  0  0  0  0  0  0  0
   37.7860   34.4000   40.9470 H   0  0  0  0  0  0  0  0  0  0  0  0
   36.7360   29.2480   41.3920 C   0  0  0  0  0  0  0  0  0  0  0  0
   35.7250   28.5660   41.4170 O   0  0  0  0  0  0  0  0  0  0  0  0
   37.3110   29.8470   40.2580 N   0  0  0  0  0  0  0  0  0  0  0  0
   38.1700   30.4680   40.3160 H   0  0  0  0  0  0  0  0  0  0  0  0
   37.3710   29.4450   42.6220 O   0  0  0  0  0  0  0  0  0  0  0  0
   39.9520   30.9520   42.1680 Cl  0  0  0  0  0  0  0  0  0  0  0  0
   39.7870   29.3110   42.7520 C   0  0  0  0  0  0  0  0  0  0  0  0
   38.5410   28.7510   42.9100 C   0  0  0  0  0  0  0  0  0  0  0  0
   38.4210   27.4420   43.3760 C   0  0  0  0  0  0  0  0  0  0  0  0
   37.4450   27.0120   43.4970 H   0  0  0  0  0  0  0  0  0  0  0  0
   39.5470   26.7020   43.6800 C   0  0  0  0  0  0  0  0  0  0  0  0
   39.3840   25.6940   44.0360 H   0  0  0  0  0  0  0  0  0  0  0  0
   40.8160   27.2600   43.5220 C   0  0  0  0  0  3  0  0  0  0  0  0
   40.9090   28.5710   43.0550 C   0  0  0  0  0  3  0  0  0  0  0  0
  1 13  1  0  0  0  0
  1  6  1  0  0  0  0
  2  1  2  0  0  0  0
  3  2  1  0  0  0  0
  3  4  2  0  0  0  0
  4  5  1  0  0  0  0
  5 10  1  0  0  0  0
  5  6  2  0  0  0  0
  6 22  1  0  0  0  0
  7  2  1  0  0  0  0
  8  3  1  0  0  0  0
  9  4  1  0  0  0  0
 11 16  1  0  0  0  0
 12 13  1  0  0  0  0
 12 11  2  0  0  0  0
 13 14  2  0  0  0  0
 14 15  1  0  0  0  0
 15 19  1  0  0  0  0
 16 15  2  0  0  0  0
 17 11  1  0  0  0  0
 18 12  1  0  0  0  0
 20 21  2  0  0  0  0
 20 24  1  0  0  0  0
 22 23  1  0  0  0  0
 22 20  1  0  0  0  0
 24 27  1  0  0  0  0
 25 26  1  0  0  0  0
 26 27  2  0  0  0  0
 26 33  1  0  0  0  0
 27 28  1  0  0  0  0
 28 29  1  0  0  0  0
 28 30  2  0  0  0  0
 30 31  1  0  0  0  0
 32 30  1  0  0  0  0
 33 32  2  0  0  0  0
M  END
>  <minimizedAffinity>
-5.60628986

$$$$

 OpenBabel03242517053D

 33 35  0  0  0  0  0  0  0  0999 V2000
   37.3280   29.9940   39.2490 C   0  0  0  0  0  0  0  0  0  0  0  0
   37.2440   30.8080   38.1260 C   0  0  0  0  0  0  0  0  0  0  0  0
   37.3240   32.1830   38.3110 C   0  0  0  0  0  0  0  0  0  0  0  0
   37.4810   32.7020   39.5540 C   0  0  0  0  0  0  0  0  0  0  0  0
   37.5670   31.9180   40.6800 C   0  0  0  0  0  0  0  0  0  0  0  0
   37.4840   30.5300   40.4880 C   0  0  0  0  0  0  0  0  0  0  0  0
   37.1200   30.4220   37.1270 H   0  0  0  0  0  0  0  0  0  0  0  0
   37.2690   32.8910   37.4950 H   0  0  0  0  0  0  0  0  0  0  0  0
   37.5460   33.7740   39.7110 H   0  0  0  0  0  0  0  0  0  0  0  0
   37.6900   32.2540   41.6870 H   0  0  0  0  0  0  0  0  0  0  0  0
   36.1350   26.5230   38.3690 C   0  0  0  0  0  0  0  0  0  0  0  0
   36.0890   27.9280   38.5750 C   0  0  0  0  0  0  0  0  0  0  0  0
   37.2320   28.5530   38.9970 C   0  0  0  0  0  0  0  0  0  0  0  0
   38.3510   27.7950   39.1970 N   0  0  0  0  0  0  0  0  0  0  0  0
   38.3820   26.4620   38.9980 C   0  0  0  0  0  0  0  0  0  0  0  0
   37.2580   25.8220   38.5790 N   0  0  0  0  0  0  0  0  0  0  0  0
   35.2310   26.0280   38.0350 H   0  0  0  0  0  0  0  0  0  0  0  0
   35.1970   28.5180   38.4140 H   0  0  0  0  0  0  0  0  0  0  0  0
   39.3360   25.9960   39.1950 H   0  0  0  0  0  0  0  0  0  0  0  0
   38.3890   29.4020   42.6520 C   0  0  0  0  0  0  0  0  0  0  0  0
   39.3840   30.0500   42.9300 O   0  0  0  0  0  0  0  0  0  0  0  0
   37.5470   29.5990   41.5440 N   0  0  0  0  0  0  0  0  0  0  0  0
   36.7210   28.9650   41.3380 H   0  0  0  0  0  0  0  0  0  0  0  0
   38.0720   28.3620   43.5310 O   0  0  0  0  0  0  0  0  0  0  0  0
   40.7840   27.0370   43.6790 Cl  0  0  0  0  0  0  0  0  0  0  0  0
   39.2990   26.3180   43.1000 C   0  0  0  0  0  0  0  0  0  0  0  0
   38.1310   27.0460   43.0900 C   0  0  0  0  0  0  0  0  0  0  0  0
   36.9530   26.4620   42.6250 C   0  0  0  0  0  0  0  0  0  0  0  0
   36.0460   27.0370   42.6210 H   0  0  0  0  0  0  0  0  0  0  0  0
   36.9490   25.1570   42.1740 C   0  0  0  0  0  0  0  0  0  0  0  0
   36.0020   24.7660   41.8270 H   0  0  0  0  0  0  0  0  0  0  0  0
   38.1280   24.4110   42.1800 C   0  0  0  0  0  3  0  0  0  0  0  0
   39.2930   25.0160   42.6480 C   0  0  0  0  0  3  0  0  0  0  0  0
  1  6  1  0  0  0  0
  2  3  1  0  0  0  0
  2  1  2  0  0  0  0
  3  4  2  0  0  0  0
  4  9  1  0  0  0  0
  4  5  1  0  0  0  0
  5 10  1  0  0  0  0
  6  5  2  0  0  0  0
  6 22  1  0  0  0  0
  7  2  1  0  0  0  0
  8  3  1  0  0  0  0
 11 12  2  0  0  0  0
 11 16  1  0  0  0  0
 12 13  1  0  0  0  0
 13 14  2  0  0  0  0
 13  1  1  0  0  0  0
 15 19  1  0  0  0  0
 15 14  1  0  0  0  0
 16 15  2  0  0  0  0
 17 11  1  0  0  0  0
 18 12  1  0  0  0  0
 20 21  2  0  0  0  0
 20 24  1  0  0  0  0
 22 20  1  0  0  0  0
 23 22  1  0  0  0  0
 26 25  1  0  0  0  0
 27 26  1  0  0  0  0
 27 24  1  0  0  0  0
 28 27  2  0  0  0  0
 29 28  1  0  0  0  0
 30 32  2  0  0  0  0
 30 28  1  0  0  0  0
 31 30  1  0  0  0  0
 32 33  1  0  0  0  0
 33 26  2  0  0  0  0
M  END
>  <minimizedAffinity>
-5.59264946

$$$$

 OpenBabel03242517053D

 33 35  0  0  0  0  0  0  0  0999 V2000
   40.4780   29.9150   42.2040 C   0  0  0  0  0  0  0  0  0  0  0  0
   41.6720   29.4620   42.7500 C   0  0  0  0  0  0  0  0  0  0  0  0
   42.7910   30.2790   42.6360 C   0  0  0  0  0  0  0  0  0  0  0  0
   42.7060   31.4790   42.0100 C   0  0  0  0  0  0  0  0  0  0  0  0
   41.5360   31.9480   41.4620 C   0  0  0  0  0  0  0  0  0  0  0  0
   40.4100   31.1200   41.5790 C   0  0  0  0  0  0  0  0  0  0  0  0
   41.7680   28.5130   43.2540 H   0  0  0  0  0  0  0  0  0  0  0  0
   43.7600   30.0080   43.0320 H   0  0  0  0  0  0  0  0  0  0  0  0
   43.5730   32.1250   41.9150 H   0  0  0  0  0  0  0  0  0  0  0  0
   41.3940   32.8790   40.9550 H   0  0  0  0  0  0  0  0  0  0  0  0
   37.9730   27.1190   41.8100 C   0  0  0  0  0  0  0  0  0  0  0  0
   39.1270   27.9100   41.5620 C   0  0  0  0  0  0  0  0  0  0  0  0
   39.3320   29.0120   42.3480 C   0  0  0  0  0  0  0  0  0  0  0  0
   38.4190   29.2920   43.3250 N   0  0  0  0  0  0  0  0  0  0  0  0
   37.3270   28.5340   43.5500 C   0  0  0  0  0  0  0  0  0  0  0  0
   37.1050   27.4350   42.7810 N   0  0  0  0  0  0  0  0  0  0  0  0
   37.8100   26.2470   41.1880 H   0  0  0  0  0  0  0  0  0  0  0  0
   39.8430   27.6790   40.7850 H   0  0  0  0  0  0  0  0  0  0  0  0
   36.6950   28.8770   44.3570 H   0  0  0  0  0  0  0  0  0  0  0  0
   38.4650   32.6590   40.7900 C   0  0  0  0  0  0  0  0  0  0  0  0
   38.8690   33.7870   41.0210 O   0  0  0  0  0  0  0  0  0  0  0  0
   39.1430   31.4590   41.0600 N   0  0  0  0  0  0  0  0  0  0  0  0
   38.7120   30.5070   40.8750 H   0  0  0  0  0  0  0  0  0  0  0  0
   37.2010   32.5720   40.2010 O   0  0  0  0  0  0  0  0  0  0  0  0
   37.8170   31.7280   37.3640 Cl  0  0  0  0  0  0  0  0  0  0  0  0
   36.9110   30.8190   38.5520 C   0  0  0  0  0  0  0  0  0  0  0  0
   36.7070   31.3310   39.8130 C   0  0  0  0  0  0  0  0  0  0  0  0
   35.9820   30.5980   40.7520 C   0  0  0  0  0  0  0  0  0  0  0  0
   35.8280   31.0050   41.7340 H   0  0  0  0  0  0  0  0  0  0  0  0
   35.4670   29.3590   40.4260 C   0  0  0  0  0  0  0  0  0  0  0  0
   34.9150   28.8440   41.2000 H   0  0  0  0  0  0  0  0  0  0  0  0
   35.6670   28.8310   39.1500 C   0  0  0  0  0  3  0  0  0  0  0  0
   36.3950   29.5830   38.2290 C   0  0  0  0  0  3  0  0  0  0  0  0
  1 13  1  0  0  0  0
  1  2  1  0  0  0  0
  2  7  1  0  0  0  0
  3  2  2  0  0  0  0
  3  8  1  0  0  0  0
  4  3  1  0  0  0  0
  5  6  1  0  0  0  0
  5  4  2  0  0  0  0
  6  1  2  0  0  0  0
  9  4  1  0  0  0  0
 10  5  1  0  0  0  0
 11 16  1  0  0  0  0
 12 11  2  0  0  0  0
 12 13  1  0  0  0  0
 13 14  2  0  0  0  0
 14 15  1  0  0  0  0
 15 19  1  0  0  0  0
 16 15  2  0  0  0  0
 17 11  1  0  0  0  0
 18 12  1  0  0  0  0
 20 21  2  0  0  0  0
 20 22  1  0  0  0  0
 22  6  1  0  0  0  0
 23 22  1  0  0  0  0
 24 20  1  0  0  0  0
 25 26  1  0  0  0  0
 26 27  1  0  0  0  0
 27 24  1  0  0  0  0
 27 28  2  0  0  0  0
 28 29  1  0  0  0  0
 30 28  1  0  0  0  0
 30 31  1  0  0  0  0
 32 30  2  0  0  0  0
 33 26  2  0  0  0  0
 33 32  1  0  0  0  0
M  END
>  <minimizedAffinity>
-5.49043036

$$$$

 OpenBabel03242517053D

 33 35  0  0  0  0  0  0  0  0999 V2000
   37.4040   25.5710   40.9920 C   0  0  0  0  0  0  0  0  0  0  0  0
   37.8880   24.4510   41.6570 C   0  0  0  0  0  0  0  0  0  0  0  0
   37.6640   23.2060   41.0810 C   0  0  0  0  0  0  0  0  0  0  0  0
   36.9930   23.1010   39.9060 C   0  0  0  0  0  0  0  0  0  0  0  0
   36.5050   24.1940   39.2310 C   0  0  0  0  0  0  0  0  0  0  0  0
   36.7330   25.4490   39.8160 C   0  0  0  0  0  0  0  0  0  0  0  0
   38.4250   24.5060   42.5900 H   0  0  0  0  0  0  0  0  0  0  0  0
   38.0050   22.2820   41.5260 H   0  0  0  0  0  0  0  0  0  0  0  0
   36.8130   22.1340   39.4470 H   0  0  0  0  0  0  0  0  0  0  0  0
   35.9700   24.1890   38.3050 H   0  0  0  0  0  0  0  0  0  0  0  0
   37.4170   28.5230   43.3450 C   0  0  0  0  0  0  0  0  0  0  0  0
   37.0760   27.2470   42.8200 C   0  0  0  0  0  0  0  0  0  0  0  0
   37.6630   26.8580   41.6460 C   0  0  0  0  0  0  0  0  0  0  0  0
   38.5420   27.7130   41.0430 N   0  0  0  0  0  0  0  0  0  0  0  0
   38.8570   28.9210   41.5510 C   0  0  0  0  0  0  0  0  0  0  0  0
   38.2860   29.3270   42.7160 N   0  0  0  0  0  0  0  0  0  0  0  0
   36.9530   28.8320   44.2730 H   0  0  0  0  0  0  0  0  0  0  0  0
   36.3780   26.5780   43.3050 H   0  0  0  0  0  0  0  0  0  0  0  0
   39.5680   29.4880   40.9670 H   0  0  0  0  0  0  0  0  0  0  0  0
   36.5300   27.3480   38.0480 C   0  0  0  0  0  0  0  0  0  0  0  0
   37.3060   27.0160   37.1680 O   0  0  0  0  0  0  0  0  0  0  0  0
   36.2860   26.6600   39.2480 N   0  0  0  0  0  0  0  0  0  0  0  0
   35.6270   27.0300   39.9940 H   0  0  0  0  0  0  0  0  0  0  0  0
   35.8210   28.5320   37.8240 O   0  0  0  0  0  0  0  0  0  0  0  0
   35.2630   29.5180   40.6260 Cl  0  0  0  0  0  0  0  0  0  0  0  0
   36.2250   30.3220   39.4060 C   0  0  0  0  0  0  0  0  0  0  0  0
   36.3940   29.7510   38.1660 C   0  0  0  0  0  0  0  0  0  0  0  0
   37.1630   30.4020   37.2010 C   0  0  0  0  0  0  0  0  0  0  0  0
   37.2900   29.9490   36.2350 H   0  0  0  0  0  0  0  0  0  0  0  0
   37.7580   31.6150   37.4820 C   0  0  0  0  0  0  0  0  0  0  0  0
   38.3400   32.0660   36.6890 H   0  0  0  0  0  0  0  0  0  0  0  0
   37.5930   32.2030   38.7360 C   0  0  0  0  0  3  0  0  0  0  0  0
   36.8190   31.5340   39.6840 C   0  0  0  0  0  3  0  0  0  0  0  0
  1 13  1  0  0  0  0
  1  2  1  0  0  0  0
  2  7  1  0  0  0  0
  3  8  1  0  0  0  0
  3  2  2  0  0  0  0
  4  3  1  0  0  0  0
  5  6  1  0  0  0  0
  5  4  2  0  0  0  0
  6  1  2  0  0  0  0
  9  4  1  0  0  0  0
 10  5  1  0  0  0  0
 11 17  1  0  0  0  0
 12 18  1  0  0  0  0
 12 11  1  0  0  0  0
 13 12  2  0  0  0  0
 14 15  2  0  0  0  0
 14 13  1  0  0  0  0
 15 16  1  0  0  0  0
 16 11  2  0  0  0  0
 19 15  1  0  0  0  0
 20 22  1  0  0  0  0
 21 20  2  0  0  0  0
 22  6  1  0  0  0  0
 22 23  1  0  0  0  0
 24 20  1  0  0  0  0
 24 27  1  0  0  0  0
 26 33  1  0  0  0  0
 26 25  1  0  0  0  0
 27 26  2  0  0  0  0
 28 30  2  0  0  0  0
 28 27  1  0  0  0  0
 29 28  1  0  0  0  0
 30 32  1  0  0  0  0
 31 30  1  0  0  0  0
 32 33  2  0  0  0  0
M  END
>  <minimizedAffinity>
-5.47722769

$$$$

 OpenBabel03242517053D

 33 35  0  0  0  0  0  0  0  0999 V2000
   36.4920   26.0950   39.4520 C   0  0  0  0  0  0  0  0  0  0  0  0
   36.0350   25.0200   38.7000 C   0  0  0  0  0  0  0  0  0  0  0  0
   36.0350   23.7630   39.2940 C   0  0  0  0  0  0  0  0  0  0  0  0
   36.4710   23.6050   40.5680 C   0  0  0  0  0  0  0  0  0  0  0  0
   36.9280   24.6520   41.3320 C   0  0  0  0  0  0  0  0  0  0  0  0
   36.9260   25.9190   40.7280 C   0  0  0  0  0  0  0  0  0  0  0  0
   35.6820   25.1180   37.6860 H   0  0  0  0  0  0  0  0  0  0  0  0
   35.6960   22.8720   38.7840 H   0  0  0  0  0  0  0  0  0  0  0  0
   36.4750   22.6280   41.0420 H   0  0  0  0  0  0  0  0  0  0  0  0
   37.2850   24.6030   42.3390 H   0  0  0  0  0  0  0  0  0  0  0  0
   35.4570   29.2970   37.7410 C   0  0  0  0  0  0  0  0  0  0  0  0
   35.3300   28.0390   38.3890 C   0  0  0  0  0  0  0  0  0  0  0  0
   36.4750   27.3960   38.7760 C   0  0  0  0  0  0  0  0  0  0  0  0
   37.6760   27.9950   38.5180 N   0  0  0  0  0  0  0  0  0  0  0  0
   37.7840   29.1890   37.9020 C   0  0  0  0  0  0  0  0  0  0  0  0
   36.6590   29.8440   37.5100 N   0  0  0  0  0  0  0  0  0  0  0  0
   34.5520   29.8060   37.4350 H   0  0  0  0  0  0  0  0  0  0  0  0
   34.3740   27.5730   38.5880 H   0  0  0  0  0  0  0  0  0  0  0  0
   38.7970   29.5400   37.7660 H   0  0  0  0  0  0  0  0  0  0  0  0
   37.0790   27.7240   42.5970 C   0  0  0  0  0  0  0  0  0  0  0  0
   36.2420   27.3760   43.4130 O   0  0  0  0  0  0  0  0  0  0  0  0
   37.3730   27.0860   41.3800 N   0  0  0  0  0  0  0  0  0  0  0  0
   38.0850   27.4710   40.6930 H   0  0  0  0  0  0  0  0  0  0  0  0
   37.8060   28.8730   42.9190 O   0  0  0  0  0  0  0  0  0  0  0  0
   40.4880   30.1720   42.4120 Cl  0  0  0  0  0  0  0  0  0  0  0  0
   38.9500   30.6430   41.7240 C   0  0  0  0  0  0  0  0  0  0  0  0
   37.8040   29.9560   42.0470 C   0  0  0  0  0  0  0  0  0  0  0  0
   36.5830   30.3410   41.4930 C   0  0  0  0  0  0  0  0  0  0  0  0
   35.6930   29.7990   41.7500 H   0  0  0  0  0  0  0  0  0  0  0  0
   36.5170   31.4090   40.6200 C   0  0  0  0  0  0  0  0  0  0  0  0
   35.5400   31.6550   40.2270 H   0  0  0  0  0  0  0  0  0  0  0  0
   37.6740   32.1130   40.2860 C   0  0  0  0  0  3  0  0  0  0  0  0
   38.8820   31.7090   40.8530 C   0  0  0  0  0  3  0  0  0  0  0  0
  1  6  1  0  0  0  0
  2  3  1  0  0  0  0
  2  1  2  0  0  0  0
  3  4  2  0  0  0  0
  4  9  1  0  0  0  0
  4  5  1  0  0  0  0
  5 10  1  0  0  0  0
  6  5  2  0  0  0  0
  6 22  1  0  0  0  0
  7  2  1  0  0  0  0
  8  3  1  0  0  0  0
 11 12  1  0  0  0  0
 12 18  1  0  0  0  0
 12 13  2  0  0  0  0
 13  1  1  0  0  0  0
 14 13  1  0  0  0  0
 15 14  2  0  0  0  0
 16 11  2  0  0  0  0
 16 15  1  0  0  0  0
 17 11  1  0  0  0  0
 19 15  1  0  0  0  0
 20 24  1  0  0  0  0
 20 21  2  0  0  0  0
 22 20  1  0  0  0  0
 23 22  1  0  0  0  0
 26 27  1  0  0  0  0
 26 25  1  0  0  0  0
 27 24  1  0  0  0  0
 28 29  1  0  0  0  0
 28 27  2  0  0  0  0
 30 28  1  0  0  0  0
 31 30  1  0  0  0  0
 32 30  2  0  0  0  0
 32 33  1  0  0  0  0
 33 26  2  0  0  0  0
M  END
>  <minimizedAffinity>
-5.45026779

$$$$

 OpenBabel03242517053D

 33 35  0  0  0  0  0  0  0  0999 V2000
   37.6260   31.8120   39.8960 C   0  0  0  0  0  0  0  0  0  0  0  0
   37.2240   33.0990   39.5600 C   0  0  0  0  0  0  0  0  0  0  0  0
   38.0320   34.1580   39.9590 C   0  0  0  0  0  0  0  0  0  0  0  0
   39.1740   33.9290   40.6530 C   0  0  0  0  0  0  0  0  0  0  0  0
   39.5920   32.6660   40.9970 C   0  0  0  0  0  0  0  0  0  0  0  0
   38.7740   31.6000   40.5930 C   0  0  0  0  0  0  0  0  0  0  0  0
   36.3220   33.3090   39.0090 H   0  0  0  0  0  0  0  0  0  0  0  0
   37.7980   35.1910   39.7400 H   0  0  0  0  0  0  0  0  0  0  0  0
   39.8120   34.7470   40.9690 H   0  0  0  0  0  0  0  0  0  0  0  0
   40.4770   32.4090   41.5400 H   0  0  0  0  0  0  0  0  0  0  0  0
   35.7920   29.1950   37.8870 C   0  0  0  0  0  0  0  0  0  0  0  0
   36.7060   30.2430   38.1780 C   0  0  0  0  0  0  0  0  0  0  0  0
   36.7350   30.7340   39.4560 C   0  0  0  0  0  0  0  0  0  0  0  0
   35.8860   30.1930   40.3800 N   0  0  0  0  0  0  0  0  0  0  0  0
   35.0220   29.1990   40.0910 C   0  0  0  0  0  0  0  0  0  0  0  0
   34.9780   28.6970   38.8280 N   0  0  0  0  0  0  0  0  0  0  0  0
   35.7680   28.8070   36.8770 H   0  0  0  0  0  0  0  0  0  0  0  0
   37.3740   30.6650   37.4390 H   0  0  0  0  0  0  0  0  0  0  0  0
   34.4140   28.8700   40.9210 H   0  0  0  0  0  0  0  0  0  0  0  0
   39.0050   29.4380   42.0230 C   0  0  0  0  0  0  0  0  0  0  0  0
   38.6940   29.7920   43.1480 O   0  0  0  0  0  0  0  0  0  0  0  0
   39.0640   30.2500   40.8790 N   0  0  0  0  0  0  0  0  0  0  0  0
   39.3880   29.8830   39.9360 H   0  0  0  0  0  0  0  0  0  0  0  0
   39.3320   28.0860   41.8770 O   0  0  0  0  0  0  0  0  0  0  0  0
   36.7940   26.8610   42.9690 Cl  0  0  0  0  0  0  0  0  0  0  0  0
   37.4350   26.6740   41.3520 C   0  0  0  0  0  0  0  0  0  0  0  0
   38.6090   27.2950   40.9930 C   0  0  0  0  0  0  0  0  0  0  0  0
   39.1110   27.1380   39.7010 C   0  0  0  0  0  0  0  0  0  0  0  0
   40.0280   27.6260   39.4290 H   0  0  0  0  0  0  0  0  0  0  0  0
   38.4360   26.3630   38.7780 C   0  0  0  0  0  0  0  0  0  0  0  0
   38.8800   26.2830   37.7950 H   0  0  0  0  0  0  0  0  0  0  0  0
   37.2450   25.7300   39.1320 C   0  0  0  0  0  3  0  0  0  0  0  0
   36.7640   25.9010   40.4290 C   0  0  0  0  0  3  0  0  0  0  0  0
  1  6  1  0  0  0  0
  2  1  2  0  0  0  0
  2  3  1  0  0  0  0
  3  4  2  0  0  0  0
  4  9  1  0  0  0  0
  4  5  1  0  0  0  0
  5 10  1  0  0  0  0
  6 22  1  0  0  0  0
  6  5  2  0  0  0  0
  7  2  1  0  0  0  0
  8  3  1  0  0  0  0
 11 12  2  0  0  0  0
 11 16  1  0  0  0  0
 12 13  1  0  0  0  0
 13  1  1  0  0  0  0
 13 14  2  0  0  0  0
 15 14  1  0  0  0  0
 15 19  1  0  0  0  0
 16 15  2  0  0  0  0
 17 11  1  0  0  0  0
 18 12  1  0  0  0  0
 20 21  2  0  0  0  0
 22 20  1  0  0  0  0
 23 22  1  0  0  0  0
 24 20  1  0  0  0  0
 26 25  1  0  0  0  0
 27 26  1  0  0  0  0
 27 24  1  0  0  0  0
 28 27  2  0  0  0  0
 29 28  1  0  0  0  0
 30 32  2  0  0  0  0
 30 28  1  0  0  0  0
 31 30  1  0  0  0  0
 32 33  1  0  0  0  0
 33 26  2  0  0  0  0
M  END
>  <minimizedAffinity>
-5.37679863

$$$$

 OpenBabel03242517053D

 33 35  0  0  0  0  0  0  0  0999 V2000
   40.6590   32.1750   41.2070 C   0  0  0  0  0  0  0  0  0  0  0  0
   41.7500   32.9910   40.9330 C   0  0  0  0  0  0  0  0  0  0  0  0
   42.8860   32.8430   41.7200 C   0  0  0  0  0  0  0  0  0  0  0  0
   42.9160   31.9270   42.7200 C   0  0  0  0  0  0  0  0  0  0  0  0
   41.8510   31.1090   43.0090 C   0  0  0  0  0  0  0  0  0  0  0  0
   40.7060   31.2620   42.2130 C   0  0  0  0  0  0  0  0  0  0  0  0
   41.7530   33.7260   40.1450 H   0  0  0  0  0  0  0  0  0  0  0  0
   43.7800   33.4340   41.5790 H   0  0  0  0  0  0  0  0  0  0  0  0
   43.7980   31.8020   43.3400 H   0  0  0  0  0  0  0  0  0  0  0  0
   41.8020   30.3670   43.7780 H   0  0  0  0  0  0  0  0  0  0  0  0
   37.4890   33.4700   39.6190 C   0  0  0  0  0  0  0  0  0  0  0  0
   38.5820   33.3910   40.5220 C   0  0  0  0  0  0  0  0  0  0  0  0
   39.4860   32.3770   40.3500 C   0  0  0  0  0  0  0  0  0  0  0  0
   39.2890   31.4980   39.3230 N   0  0  0  0  0  0  0  0  0  0  0  0
   38.2460   31.5830   38.4720 C   0  0  0  0  0  0  0  0  0  0  0  0
   37.3380   32.5830   38.6260 N   0  0  0  0  0  0  0  0  0  0  0  0
   36.7740   34.2720   39.7540 H   0  0  0  0  0  0  0  0  0  0  0  0
   38.7290   34.0930   41.3330 H   0  0  0  0  0  0  0  0  0  0  0  0
   38.2200   30.8190   37.7080 H   0  0  0  0  0  0  0  0  0  0  0  0
   39.2460   29.1830   42.7800 C   0  0  0  0  0  0  0  0  0  0  0  0
   40.0600   28.3080   43.0240 O   0  0  0  0  0  0  0  0  0  0  0  0
   39.5310   30.5030   42.3930 N   0  0  0  0  0  0  0  0  0  0  0  0
   38.7700   31.2020   42.1510 H   0  0  0  0  0  0  0  0  0  0  0  0
   37.9020   28.8180   42.9000 O   0  0  0  0  0  0  0  0  0  0  0  0
   37.9240   26.1430   41.4930 Cl  0  0  0  0  0  0  0  0  0  0  0  0
   37.0240   27.5660   41.0210 C   0  0  0  0  0  0  0  0  0  0  0  0
   37.1110   28.7220   41.7620 C   0  0  0  0  0  0  0  0  0  0  0  0
   36.3890   29.8510   41.3750 C   0  0  0  0  0  0  0  0  0  0  0  0
   36.4620   30.7490   41.9590 H   0  0  0  0  0  0  0  0  0  0  0  0
   35.5850   29.8170   40.2530 C   0  0  0  0  0  0  0  0  0  0  0  0
   35.0520   30.7260   40.0090 H   0  0  0  0  0  0  0  0  0  0  0  0
   35.4900   28.6500   39.4950 C   0  0  0  0  0  3  0  0  0  0  0  0
   36.2220   27.5350   39.9010 C   0  0  0  0  0  3  0  0  0  0  0  0
  1  6  1  0  0  0  0
  2  1  2  0  0  0  0
  2  3  1  0  0  0  0
  3  4  2  0  0  0  0
  4  5  1  0  0  0  0
  4  9  1  0  0  0  0
  5 10  1  0  0  0  0
  6 22  1  0  0  0  0
  6  5  2  0  0  0  0
  7  2  1  0  0  0  0
  8  3  1  0  0  0  0
 11 17  1  0  0  0  0
 11 12  1  0  0  0  0
 12 18  1  0  0  0  0
 13 12  2  0  0  0  0
 13  1  1  0  0  0  0
 14 13  1  0  0  0  0
 15 16  1  0  0  0  0
 15 14  2  0  0  0  0
 16 11  2  0  0  0  0
 19 15  1  0  0  0  0
 20 24  1  0  0  0  0
 20 21  2  0  0  0  0
 22 20  1  0  0  0  0
 23 22  1  0  0  0  0
 26 25  1  0  0  0  0
 26 27  1  0  0  0  0
 27 24  1  0  0  0  0
 28 27  2  0  0  0  0
 28 29  1  0  0  0  0
 30 28  1  0  0  0  0
 31 30  1  0  0  0  0
 32 33  1  0  0  0  0
 32 30  2  0  0  0  0
 33 26  2  0  0  0  0
M  END
>  <minimizedAffinity>
-5.34812403

$$$$

 OpenBabel03242517053D

 33 35  0  0  0  0  0  0  0  0999 V2000
   36.1010   27.2950   39.1640 C   0  0  0  0  0  0  0  0  0  0  0  0
   35.4690   26.9620   37.9720 C   0  0  0  0  0  0  0  0  0  0  0  0
   34.4020   27.7520   37.5590 C   0  0  0  0  0  0  0  0  0  0  0  0
   34.0010   28.8110   38.3050 C   0  0  0  0  0  0  0  0  0  0  0  0
   34.6090   29.1590   39.4870 C   0  0  0  0  0  0  0  0  0  0  0  0
   35.6860   28.3590   39.9010 C   0  0  0  0  0  0  0  0  0  0  0  0
   35.7690   26.1270   37.3600 H   0  0  0  0  0  0  0  0  0  0  0  0
   33.8540   27.5680   36.6460 H   0  0  0  0  0  0  0  0  0  0  0  0
   33.1700   29.4350   37.9930 H   0  0  0  0  0  0  0  0  0  0  0  0
   34.3490   29.9760   40.1260 H   0  0  0  0  0  0  0  0  0  0  0  0
   38.2370   24.3810   40.2590 C   0  0  0  0  0  0  0  0  0  0  0  0
   37.0710   25.1090   39.9000 C   0  0  0  0  0  0  0  0  0  0  0  0
   37.2160   26.4260   39.5550 C   0  0  0  0  0  0  0  0  0  0  0  0
   38.4700   26.9680   39.5730 N   0  0  0  0  0  0  0  0  0  0  0  0
   39.5690   26.2670   39.9160 C   0  0  0  0  0  0  0  0  0  0  0  0
   39.4470   24.9580   40.2620 N   0  0  0  0  0  0  0  0  0  0  0  0
   38.1230   23.3400   40.5320 H   0  0  0  0  0  0  0  0  0  0  0  0
   36.0820   24.6690   39.8900 H   0  0  0  0  0  0  0  0  0  0  0  0
   40.4930   26.8270   39.8840 H   0  0  0  0  0  0  0  0  0  0  0  0
   37.0340   29.6920   41.6830 C   0  0  0  0  0  0  0  0  0  0  0  0
   37.1380   30.8080   41.2020 O   0  0  0  0  0  0  0  0  0  0  0  0
   36.4040   28.5840   41.0930 N   0  0  0  0  0  0  0  0  0  0  0  0
   36.3900   27.6260   41.5500 H   0  0  0  0  0  0  0  0  0  0  0  0
   37.6060   29.5160   42.9470 O   0  0  0  0  0  0  0  0  0  0  0  0
   40.3340   30.6700   42.3480 Cl  0  0  0  0  0  0  0  0  0  0  0  0
   39.9790   29.0370   42.8630 C   0  0  0  0  0  0  0  0  0  0  0  0
   38.6810   28.6490   43.1000 C   0  0  0  0  0  0  0  0  0  0  0  0
   38.4100   27.3430   43.5100 C   0  0  0  0  0  0  0  0  0  0  0  0
   37.3940   27.0490   43.6930 H   0  0  0  0  0  0  0  0  0  0  0  0
   39.4370   26.4360   43.6800 C   0  0  0  0  0  0  0  0  0  0  0  0
   39.1580   25.4410   43.9990 H   0  0  0  0  0  0  0  0  0  0  0  0
   40.7570   26.8190   43.4420 C   0  0  0  0  0  3  0  0  0  0  0  0
   41.0030   28.1290   43.0330 C   0  0  0  0  0  3  0  0  0  0  0  0
  1 13  1  0  0  0  0
  1  6  1  0  0  0  0
  2  1  2  0  0  0  0
  3  2  1  0  0  0  0
  3  4  2  0  0  0  0
  4  5  1  0  0  0  0
  5  6  2  0  0  0  0
  5 10  1  0  0  0  0
  6 22  1  0  0  0  0
  7  2  1  0  0  0  0
  8  3  1  0  0  0  0
  9  4  1  0  0  0  0
 11 16  1  0  0  0  0
 11 17  1  0  0  0  0
 12 11  2  0  0  0  0
 13 14  2  0  0  0  0
 13 12  1  0  0  0  0
 14 15  1  0  0  0  0
 15 16  2  0  0  0  0
 18 12  1  0  0  0  0
 19 15  1  0  0  0  0
 20 24  1  0  0  0  0
 21 20  2  0  0  0  0
 22 23  1  0  0  0  0
 22 20  1  0  0  0  0
 24 27  1  0  0  0  0
 25 26  1  0  0  0  0
 26 33  2  0  0  0  0
 26 27  1  0  0  0  0
 27 28  2  0  0  0  0
 28 30  1  0  0  0  0
 28 29  1  0  0  0  0
 30 31  1  0  0  0  0
 32 30  2  0  0  0  0
 33 32  1  0  0  0  0
M  END
>  <minimizedAffinity>
-5.33603573

$$$$
