
 OpenBabel03242514193D

 49 51  0  0  0  0  0  0  0  0999 V2000
   46.1600   34.5610   43.6180 C   0  0  0  0  0  0  0  0  0  0  0  0
   46.1630   33.7860   44.7520 C   0  0  0  0  0  0  0  0  0  0  0  0
   45.3300   34.1750   45.7680 C   0  0  0  0  0  0  0  0  0  0  0  0
   44.5570   35.2730   45.6230 N   0  0  0  0  0  0  0  0  0  0  0  0
   44.5570   36.0180   44.5250 C   0  0  0  0  0  0  0  0  0  0  0  0
   45.3600   35.6440   43.5460 N   0  0  0  0  0  0  0  0  0  0  0  0
   45.1870   33.7070   46.7310 H   0  0  0  0  0  0  0  0  0  0  0  0
   43.9410   36.9030   44.3910 H   0  0  0  0  0  0  0  0  0  0  0  0
   47.0020   34.1070   42.5030 C   0  0  0  0  0  0  0  0  0  0  0  0
   48.3860   34.6810   42.5930 C   0  0  0  0  0  0  0  0  0  0  0  0
   48.7030   35.5690   41.4760 C   0  0  0  0  0  0  0  0  0  0  0  0
   48.5080   34.8880   40.1380 C   0  0  0  0  0  0  0  0  0  0  0  0
   47.2560   34.1030   40.0490 C   0  0  0  0  0  0  0  0  0  0  0  0
   46.3280   34.3900   41.2080 C   0  0  0  0  0  0  0  0  0  0  0  0
   47.1830   33.0220   42.6210 H   0  0  0  0  0  0  0  0  0  0  0  0
   49.1690   33.9050   42.6720 H   0  0  0  0  0  0  0  0  0  0  0  0
   48.4540   35.2520   43.5420 H   0  0  0  0  0  0  0  0  0  0  0  0
   49.7510   35.9260   41.5070 H   0  0  0  0  0  0  0  0  0  0  0  0
   48.0370   36.4660   41.5370 H   0  0  0  0  0  0  0  0  0  0  0  0
   48.4690   35.7300   39.3890 H   0  0  0  0  0  0  0  0  0  0  0  0
   49.4380   34.3250   39.8830 H   0  0  0  0  0  0  0  0  0  0  0  0
   46.6920   34.3180   39.1110 H   0  0  0  0  0  0  0  0  0  0  0  0
   47.4920   33.0210   40.0930 H   0  0  0  0  0  0  0  0  0  0  0  0
   45.4120   33.7750   41.0670 H   0  0  0  0  0  0  0  0  0  0  0  0
   46.0950   35.4750   41.1580 H   0  0  0  0  0  0  0  0  0  0  0  0
   46.8420   32.6860   45.0790 O   0  0  0  0  0  0  0  0  0  0  0  0
   47.2450   32.1380   46.2670 C   0  0  0  0  0  0  0  0  0  0  0  0
   46.7870   32.4800   47.1930 H   0  0  0  0  0  0  0  0  0  0  0  0
   48.3530   32.3420   46.3700 H   0  0  0  0  0  0  0  0  0  0  0  0
   47.1240   30.6240   46.3020 C   0  0  0  0  0  0  0  0  0  0  0  0
   48.0020   30.1420   45.8060 H   0  0  0  0  0  0  0  0  0  0  0  0
   47.1070   30.3220   47.3590 H   0  0  0  0  0  0  0  0  0  0  0  0
   45.9600   30.1470   45.5810 N   0  0  0  0  0  0  0  0  0  0  0  0
   46.1600   29.3170   44.9820 H   0  0  0  0  0  0  0  0  0  0  0  0
   44.8200   29.5820   46.7710 S   0  0  0  0  0  0  0  0  0  0  0  0
   43.5720   29.0770   46.1150 O   0  0  0  0  0  0  0  0  0  0  0  0
   42.9230   29.6550   45.6820 H   0  0  0  0  0  0  0  0  0  0  0  0
   44.5090   30.7430   47.6710 O   0  0  0  0  0  0  0  0  0  0  0  0
   45.1300   31.0360   48.3980 H   0  0  0  0  0  0  0  0  0  0  0  0
   45.4920   28.3800   47.7220 O   0  0  0  0  0  0  0  0  0  0  0  0
   44.1260   26.7330   49.6890 Cl  0  0  0  0  0  0  0  0  0  0  0  0
   44.8320   26.1410   48.1930 C   0  0  0  0  0  0  0  0  0  0  0  0
   45.4490   27.0510   47.3600 C   0  0  0  0  0  0  0  0  0  0  0  0
   46.0100   26.5860   46.1750 C   0  0  0  0  0  0  0  0  0  0  0  0
   46.5010   27.2640   45.4970 H   0  0  0  0  0  0  0  0  0  0  0  0
   45.9440   25.2520   45.8550 C   0  0  0  0  0  0  0  0  0  0  0  0
   46.3580   24.8220   44.9490 H   0  0  0  0  0  0  0  0  0  0  0  0
   45.3110   24.3560   46.7220 C   0  0  0  0  0  0  0  0  0  0  0  0
   44.7490   24.7950   47.9000 C   0  0  0  0  0  0  0  0  0  0  0  0
  1  2  1  0  0  0  0
  2 26  1  0  0  0  0
  2  3  2  0  0  0  0
  3  7  1  0  0  0  0
  4  3  1  0  0  0  0
  5  4  2  0  0  0  0
  6  1  2  0  0  0  0
  6  5  1  0  0  0  0
  8  5  1  0  0  0  0
  9 10  1  0  0  0  0
  9 15  1  0  0  0  0
  9  1  1  0  0  0  0
 10 16  1  0  0  0  0
 10 17  1  0  0  0  0
 11 18  1  0  0  0  0
 11 19  1  0  0  0  0
 11 10  1  0  0  0  0
 12 11  1  0  0  0  0
 13 23  1  0  0  0  0
 13 12  1  0  0  0  0
 13 14  1  0  0  0  0
 14  9  1  0  0  0  0
 20 12  1  0  0  0  0
 21 12  1  0  0  0  0
 22 13  1  0  0  0  0
 24 14  1  0  0  0  0
 25 14  1  0  0  0  0
 26 27  1  0  0  0  0
 27 30  1  0  0  0  0
 27 29  1  0  0  0  0
 27 28  1  0  0  0  0
 30 32  1  0  0  0  0
 31 30  1  0  0  0  0
 33 30  1  0  0  0  0
 33 35  1  0  0  0  0
 34 33  1  0  0  0  0
 35 38  1  0  0  0  0
 35 40  1  0  0  0  0
 36 35  1  0  0  0  0
 37 36  1  0  0  0  0
 38 39  1  0  0  0  0
 42 41  1  0  0  0  0
 43 40  1  0  0  0  0
 43 42  2  0  0  0  0
 44 43  1  0  0  0  0
 45 44  1  0  0  0  0
 46 44  2  0  0  0  0
 46 48  1  0  0  0  0
 47 46  1  0  0  0  0
 48 49  2  0  0  0  0
 49 42  1  0  0  0  0
M  END
>  <minimizedAffinity>
-5.85254717

>  <minimizedRMSD>
1.11597669

$$$$
