
 OpenBabel03252509293D

 21 22  0  0  0  0  0  0  0  0999 V2000
   46.9310   35.0300   41.9840 C   0  0  0  0  0  0  0  0  0  0  0  0
   48.0360   34.9080   42.1130 H   0  0  0  0  0  0  0  0  0  0  0  0
   46.8280   36.0470   41.5480 H   0  0  0  0  0  0  0  0  0  0  0  0
   44.5260   35.8860   44.7130 C   0  0  0  0  0  0  0  0  0  0  0  0
   45.2420   35.9530   43.5000 C   0  0  0  0  0  0  0  0  0  0  0  0
   46.1960   34.9530   43.2460 C   0  0  0  0  0  0  0  0  0  0  0  0
   46.3750   33.9750   44.1870 N   0  0  0  0  0  0  0  0  0  0  0  0
   45.6650   33.9540   45.3340 C   0  0  0  0  0  0  0  0  0  0  0  0
   44.7490   34.9020   45.5910 N   0  0  0  0  0  0  0  0  0  0  0  0
   43.8090   36.7160   44.8050 H   0  0  0  0  0  0  0  0  0  0  0  0
   45.0880   36.7330   42.7700 H   0  0  0  0  0  0  0  0  0  0  0  0
   45.7830   33.1950   46.0940 H   0  0  0  0  0  0  0  0  0  0  0  0
   49.1320   33.1830   41.0800 Cl  0  0  0  0  0  0  0  0  0  0  0  0
   47.4520   33.1900   40.5430 C   0  0  0  0  0  0  0  0  0  0  0  0
   46.4370   34.0540   40.9670 C   0  0  0  0  0  0  0  0  0  0  0  0
   45.1790   33.9040   40.4260 C   0  0  0  0  0  0  0  0  0  0  0  0
   44.4770   34.6200   40.8250 H   0  0  0  0  0  0  0  0  0  0  0  0
   44.9130   32.9420   39.4980 C   0  0  0  0  0  0  0  0  0  0  0  0
   43.8800   32.9020   39.1270 H   0  0  0  0  0  0  0  0  0  0  0  0
   45.9050   32.0620   39.0500 C   0  0  0  0  0  3  0  0  0  0  0  0
   47.1660   32.2070   39.5890 C   0  0  0  0  0  3  0  0  0  0  0  0
  1  2  1  0  0  0  0
  1  6  1  0  0  0  0
  3  1  1  0  0  0  0
  4 10  1  0  0  0  0
  4  9  1  0  0  0  0
  5  4  2  0  0  0  0
  6  5  1  0  0  0  0
  6  7  2  0  0  0  0
  7  8  1  0  0  0  0
  8  9  2  0  0  0  0
  8 12  1  0  0  0  0
 11  5  1  0  0  0  0
 14 15  1  0  0  0  0
 14 13  1  0  0  0  0
 15  1  1  0  0  0  0
 16 17  1  0  0  0  0
 16 15  2  0  0  0  0
 18 16  1  0  0  0  0
 19 18  1  0  0  0  0
 20 18  2  0  0  0  0
 20 21  1  0  0  0  0
 21 14  2  0  0  0  0
M  END
>  <minimizedAffinity>
-3.96186519

>  <minimizedRMSD>
0.763286948

$$$$
