
 OpenBabel03242520273D

 38 40  0  0  0  0  0  0  0  0999 V2000
   36.5580   30.3520   37.7780 C   0  0  0  0  0  0  0  0  0  0  0  0
   36.8970   30.6840   39.1270 C   0  0  0  0  0  0  0  0  0  0  0  0
   36.1500   30.0940   40.1380 C   0  0  0  0  0  0  0  0  0  0  0  0
   35.1360   29.2310   39.7950 N   0  0  0  0  0  0  0  0  0  0  0  0
   34.8450   28.9410   38.5220 C   0  0  0  0  0  0  0  0  0  0  0  0
   35.5510   29.4980   37.5170 N   0  0  0  0  0  0  0  0  0  0  0  0
   37.0910   30.7680   36.9460 H   0  0  0  0  0  0  0  0  0  0  0  0
   34.0200   28.2470   38.4760 H   0  0  0  0  0  0  0  0  0  0  0  0
   37.9630   31.5840   39.2860 N   0  0  0  0  0  0  0  0  0  0  0  0
   37.7850   32.9780   39.6430 C   0  0  0  0  0  0  0  0  0  0  0  0
   39.1270   33.6130   39.8670 C   0  0  0  0  0  0  0  0  0  0  0  0
   40.0320   33.4240   38.7810 N   0  0  0  0  0  0  0  0  0  0  0  0
   40.1680   32.0650   38.3510 C   0  0  0  0  0  0  0  0  0  0  0  0
   39.3160   31.0780   39.0780 C   0  0  0  0  0  0  0  0  0  0  0  0
   37.2340   32.9860   40.6050 H   0  0  0  0  0  0  0  0  0  0  0  0
   37.1750   33.5300   38.9080 H   0  0  0  0  0  0  0  0  0  0  0  0
   39.5820   33.1470   40.7800 H   0  0  0  0  0  0  0  0  0  0  0  0
   39.0360   34.6830   40.0800 H   0  0  0  0  0  0  0  0  0  0  0  0
   39.6270   33.9490   37.9500 H   0  0  0  0  0  0  0  0  0  0  0  0
   40.0320   31.9260   37.2520 H   0  0  0  0  0  0  0  0  0  0  0  0
   41.2240   31.7780   38.5370 H   0  0  0  0  0  0  0  0  0  0  0  0
   39.2900   30.1420   38.4660 H   0  0  0  0  0  0  0  0  0  0  0  0
   39.7370   30.8000   40.0600 H   0  0  0  0  0  0  0  0  0  0  0  0
   36.4930   30.4280   41.4270 O   0  0  0  0  0  0  0  0  0  0  0  0
   38.8670   30.2560   42.5770 O   0  0  0  0  0  0  0  0  0  0  0  0
   37.6270   29.4300   42.2730 P   0  0  1  0  0  0  0  0  0  0  0  0
   36.8900   28.9040   43.6800 O   0  0  0  0  0  0  0  0  0  0  0  0
   36.0150   28.5260   43.4350 H   0  0  0  0  0  0  0  0  0  0  0  0
   38.0250   28.1690   41.2380 O   0  0  0  0  0  0  0  0  0  0  0  0
   37.9380   27.0940   38.5400 Cl  0  0  0  0  0  0  0  0  0  0  0  0
   37.5040   26.2840   40.0440 C   0  0  0  0  0  0  0  0  0  0  0  0
   37.5700   26.8620   41.3170 C   0  0  0  0  0  0  0  0  0  0  0  0
   37.1990   26.1110   42.4110 C   0  0  0  0  0  0  0  0  0  0  0  0
   37.2870   26.6470   43.3260 H   0  0  0  0  0  0  0  0  0  0  0  0
   36.7750   24.8150   42.2280 C   0  0  0  0  0  0  0  0  0  0  0  0
   36.4930   24.2640   43.1170 H   0  0  0  0  0  0  0  0  0  0  0  0
   36.6940   24.2080   41.0040 C   0  0  0  0  0  3  0  0  0  0  0  0
   37.0660   24.9640   39.9120 C   0  0  0  0  0  3  0  0  0  0  0  0
  1  2  1  0  0  0  0
  2  9  1  0  0  0  0
  2  3  2  0  0  0  0
  3 24  1  0  0  0  0
  4  3  1  0  0  0  0
  5  4  2  0  0  0  0
  6  1  2  0  0  0  0
  6  5  1  0  0  0  0
  7  1  1  0  0  0  0
  8  5  1  0  0  0  0
  9 10  1  0  0  0  0
 10 11  1  0  0  0  0
 10 15  1  0  0  0  0
 11 18  1  0  0  0  0
 11 17  1  0  0  0  0
 12 11  1  0  0  0  0
 13 21  1  0  0  0  0
 13 12  1  0  0  0  0
 13 14  1  0  0  0  0
 14  9  1  0  0  0  0
 14 23  1  0  0  0  0
 16 10  1  0  0  0  0
 19 12  1  0  0  0  0
 20 13  1  0  0  0  0
 22 14  1  0  0  0  0
 24 26  1  0  0  0  0
 26 25  2  1  0  0  0
 26 27  1  0  0  0  0
 28 27  1  0  0  0  0
 29 32  1  0  0  0  0
 29 26  1  0  0  0  0
 30 31  1  0  0  0  0
 31 32  1  0  0  0  0
 32 33  2  0  0  0  0
 33 34  1  0  0  0  0
 35 33  1  0  0  0  0
 35 36  1  0  0  0  0
 37 35  2  0  0  0  0
 38 31  2  0  0  0  0
 38 37  1  0  0  0  0
M  END
>  <minimizedAffinity>
-5.85319376

$$$$

 OpenBabel03242520273D

 38 40  0  0  0  0  0  0  0  0999 V2000
   36.7990   30.4290   37.9790 C   0  0  0  0  0  0  0  0  0  0  0  0
   37.7980   30.2290   38.9830 C   0  0  0  0  0  0  0  0  0  0  0  0
   37.6400   29.1450   39.8360 C   0  0  0  0  0  0  0  0  0  0  0  0
   36.5460   28.3290   39.6740 N   0  0  0  0  0  0  0  0  0  0  0  0
   35.6290   28.5440   38.7240 C   0  0  0  0  0  0  0  0  0  0  0  0
   35.7530   29.5880   37.8800 N   0  0  0  0  0  0  0  0  0  0  0  0
   36.8550   31.2440   37.2850 H   0  0  0  0  0  0  0  0  0  0  0  0
   34.8570   27.7900   38.7710 H   0  0  0  0  0  0  0  0  0  0  0  0
   38.8450   31.1640   38.9980 N   0  0  0  0  0  0  0  0  0  0  0  0
   38.8150   32.3850   39.7790 C   0  0  0  0  0  0  0  0  0  0  0  0
   40.1420   33.0790   39.6760 C   0  0  0  0  0  0  0  0  0  0  0  0
   40.5720   33.2850   38.3310 N   0  0  0  0  0  0  0  0  0  0  0  0
   40.5350   32.1130   37.5110 C   0  0  0  0  0  0  0  0  0  0  0  0
   40.0210   30.8820   38.1790 C   0  0  0  0  0  0  0  0  0  0  0  0
   38.6670   32.0760   40.8340 H   0  0  0  0  0  0  0  0  0  0  0  0
   37.9720   33.0440   39.5060 H   0  0  0  0  0  0  0  0  0  0  0  0
   40.9080   32.4390   40.1880 H   0  0  0  0  0  0  0  0  0  0  0  0
   40.1380   34.0370   40.2050 H   0  0  0  0  0  0  0  0  0  0  0  0
   39.8840   33.9650   37.8920 H   0  0  0  0  0  0  0  0  0  0  0  0
   39.9960   32.2570   36.5440 H   0  0  0  0  0  0  0  0  0  0  0  0
   41.5840   31.9020   37.2120 H   0  0  0  0  0  0  0  0  0  0  0  0
   39.7650   30.1450   37.3770 H   0  0  0  0  0  0  0  0  0  0  0  0
   40.7800   30.3990   38.8190 H   0  0  0  0  0  0  0  0  0  0  0  0
   38.6120   28.9730   40.7930 O   0  0  0  0  0  0  0  0  0  0  0  0
   39.2650   30.4590   42.8780 O   0  0  0  0  0  0  0  0  0  0  0  0
   38.2590   29.4120   42.4300 P   0  0  1  0  0  0  0  0  0  0  0  0
   36.6990   30.0140   42.4690 O   0  0  0  0  0  0  0  0  0  0  0  0
   36.1160   29.3630   42.0170 H   0  0  0  0  0  0  0  0  0  0  0  0
   38.4410   28.0200   43.3530 O   0  0  0  0  0  0  0  0  0  0  0  0
   40.9060   26.5180   43.6800 Cl  0  0  0  0  0  0  0  0  0  0  0  0
   39.3570   25.9390   43.0710 C   0  0  0  0  0  0  0  0  0  0  0  0
   38.2030   26.7190   42.9380 C   0  0  0  0  0  0  0  0  0  0  0  0
   37.0560   26.1350   42.4470 C   0  0  0  0  0  0  0  0  0  0  0  0
   36.2410   26.8170   42.3870 H   0  0  0  0  0  0  0  0  0  0  0  0
   37.0710   24.8040   42.0990 C   0  0  0  0  0  0  0  0  0  0  0  0
   36.1460   24.3890   41.7170 H   0  0  0  0  0  0  0  0  0  0  0  0
   38.1750   24.0020   42.2100 C   0  0  0  0  0  3  0  0  0  0  0  0
   39.3210   24.5920   42.7030 C   0  0  0  0  0  3  0  0  0  0  0  0
  1  2  1  0  0  0  0
  2  9  1  0  0  0  0
  2  3  2  0  0  0  0
  3 24  1  0  0  0  0
  4  3  1  0  0  0  0
  5  8  1  0  0  0  0
  5  4  2  0  0  0  0
  6  1  2  0  0  0  0
  6  5  1  0  0  0  0
  7  1  1  0  0  0  0
  9 10  1  0  0  0  0
 10 15  1  0  0  0  0
 11 10  1  0  0  0  0
 11 17  1  0  0  0  0
 11 18  1  0  0  0  0
 12 11  1  0  0  0  0
 13 14  1  0  0  0  0
 13 12  1  0  0  0  0
 14 23  1  0  0  0  0
 14  9  1  0  0  0  0
 16 10  1  0  0  0  0
 19 12  1  0  0  0  0
 20 13  1  0  0  0  0
 21 13  1  0  0  0  0
 22 14  1  0  0  0  0
 24 26  1  0  0  0  0
 26 27  1  0  0  0  0
 26 25  2  1  0  0  0
 26 29  1  0  0  0  0
 28 27  1  0  0  0  0
 31 30  1  0  0  0  0
 32 31  1  0  0  0  0
 32 29  1  0  0  0  0
 33 32  2  0  0  0  0
 34 33  1  0  0  0  0
 35 37  2  0  0  0  0
 35 33  1  0  0  0  0
 36 35  1  0  0  0  0
 37 38  1  0  0  0  0
 38 31  2  0  0  0  0
M  END
>  <minimizedAffinity>
-5.74580336

$$$$

 OpenBabel03242520273D

 38 40  0  0  0  0  0  0  0  0999 V2000
   41.3020   30.3540   39.1370 C   0  0  0  0  0  0  0  0  0  0  0  0
   40.0320   30.2610   39.7890 C   0  0  0  0  0  0  0  0  0  0  0  0
   39.6860   29.0340   40.3420 C   0  0  0  0  0  0  0  0  0  0  0  0
   40.5700   27.9880   40.2380 N   0  0  0  0  0  0  0  0  0  0  0  0
   41.7510   28.1090   39.6230 C   0  0  0  0  0  0  0  0  0  0  0  0
   42.1170   29.2850   39.0740 N   0  0  0  0  0  0  0  0  0  0  0  0
   41.6360   31.2680   38.6880 H   0  0  0  0  0  0  0  0  0  0  0  0
   42.2880   27.1730   39.6540 H   0  0  0  0  0  0  0  0  0  0  0  0
   39.2610   31.4340   39.7960 N   0  0  0  0  0  0  0  0  0  0  0  0
   39.3420   32.4360   40.8390 C   0  0  0  0  0  0  0  0  0  0  0  0
   38.4940   33.6170   40.4670 C   0  0  0  0  0  0  0  0  0  0  0  0
   37.1520   33.2690   40.1280 N   0  0  0  0  0  0  0  0  0  0  0  0
   37.0380   32.2220   39.1580 C   0  0  0  0  0  0  0  0  0  0  0  0
   38.3320   31.6430   38.6900 C   0  0  0  0  0  0  0  0  0  0  0  0
   40.4000   32.7670   40.8730 H   0  0  0  0  0  0  0  0  0  0  0  0
   39.0890   32.0340   41.8360 H   0  0  0  0  0  0  0  0  0  0  0  0
   38.9580   34.1090   39.5710 H   0  0  0  0  0  0  0  0  0  0  0  0
   38.4820   34.3720   41.2600 H   0  0  0  0  0  0  0  0  0  0  0  0
   36.7030   32.8900   41.0130 H   0  0  0  0  0  0  0  0  0  0  0  0
   36.3580   31.3940   39.4680 H   0  0  0  0  0  0  0  0  0  0  0  0
   36.5440   32.6670   38.2680 H   0  0  0  0  0  0  0  0  0  0  0  0
   38.1020   30.6700   38.1880 H   0  0  0  0  0  0  0  0  0  0  0  0
   38.8300   32.2770   37.9340 H   0  0  0  0  0  0  0  0  0  0  0  0
   38.4610   28.9680   40.9630 O   0  0  0  0  0  0  0  0  0  0  0  0
   39.4670   29.9730   43.1900 O   0  0  0  0  0  0  0  0  0  0  0  0
   38.3980   29.0140   42.6920 P   0  0  1  0  0  0  0  0  0  0  0  0
   36.8690   29.5290   43.1320 O   0  0  0  0  0  0  0  0  0  0  0  0
   36.2160   28.9740   42.6490 H   0  0  0  0  0  0  0  0  0  0  0  0
   38.7380   27.4580   43.2280 O   0  0  0  0  0  0  0  0  0  0  0  0
   41.0210   25.6820   42.9590 Cl  0  0  0  0  0  0  0  0  0  0  0  0
   39.3470   25.3720   42.5050 C   0  0  0  0  0  0  0  0  0  0  0  0
   38.2900   26.2750   42.6630 C   0  0  0  0  0  0  0  0  0  0  0  0
   37.0260   25.9000   42.2650 C   0  0  0  0  0  0  0  0  0  0  0  0
   36.3000   26.6600   42.4290 H   0  0  0  0  0  0  0  0  0  0  0  0
   36.8320   24.6500   41.7220 C   0  0  0  0  0  0  0  0  0  0  0  0
   35.8210   24.4000   41.4230 H   0  0  0  0  0  0  0  0  0  0  0  0
   37.8340   23.7330   41.5480 C   0  0  0  0  0  3  0  0  0  0  0  0
   39.0980   24.1150   41.9490 C   0  0  0  0  0  3  0  0  0  0  0  0
  1  2  1  0  0  0  0
  2  9  1  0  0  0  0
  2  3  2  0  0  0  0
  3 24  1  0  0  0  0
  4  3  1  0  0  0  0
  5  8  1  0  0  0  0
  5  4  2  0  0  0  0
  6  1  2  0  0  0  0
  6  5  1  0  0  0  0
  7  1  1  0  0  0  0
  9 10  1  0  0  0  0
 10 15  1  0  0  0  0
 10 16  1  0  0  0  0
 11 10  1  0  0  0  0
 11 18  1  0  0  0  0
 12 11  1  0  0  0  0
 12 19  1  0  0  0  0
 13 20  1  0  0  0  0
 13 12  1  0  0  0  0
 14 13  1  0  0  0  0
 14  9  1  0  0  0  0
 17 11  1  0  0  0  0
 21 13  1  0  0  0  0
 22 14  1  0  0  0  0
 23 14  1  0  0  0  0
 24 26  1  0  0  0  0
 26 27  1  0  0  0  0
 26 25  2  1  0  0  0
 26 29  1  0  0  0  0
 28 27  1  0  0  0  0
 31 32  1  0  0  0  0
 31 30  1  0  0  0  0
 32 29  1  0  0  0  0
 33 34  1  0  0  0  0
 33 32  2  0  0  0  0
 35 33  1  0  0  0  0
 36 35  1  0  0  0  0
 37 35  2  0  0  0  0
 37 38  1  0  0  0  0
 38 31  2  0  0  0  0
M  END
>  <minimizedAffinity>
-5.59127569

$$$$

 OpenBabel03242520273D

 38 40  0  0  0  0  0  0  0  0999 V2000
   40.3410   25.0850   42.4380 C   0  0  0  0  0  0  0  0  0  0  0  0
   39.1070   25.4690   41.8250 C   0  0  0  0  0  0  0  0  0  0  0  0
   38.5600   26.6900   42.1980 C   0  0  0  0  0  0  0  0  0  0  0  0
   39.2240   27.4580   43.1250 N   0  0  0  0  0  0  0  0  0  0  0  0
   40.3770   27.0700   43.6790 C   0  0  0  0  0  0  0  0  0  0  0  0
   40.9350   25.8900   43.3380 N   0  0  0  0  0  0  0  0  0  0  0  0
   40.8230   24.1580   42.1980 H   0  0  0  0  0  0  0  0  0  0  0  0
   40.7270   27.8160   44.3760 H   0  0  0  0  0  0  0  0  0  0  0  0
   38.5740   24.5570   40.9000 N   0  0  0  0  0  0  0  0  0  0  0  0
   37.5420   23.5950   41.2310 C   0  0  0  0  0  0  0  0  0  0  0  0
   37.1070   22.8790   39.9850 C   0  0  0  0  0  0  0  0  0  0  0  0
   38.1890   22.3090   39.2510 N   0  0  0  0  0  0  0  0  0  0  0  0
   39.2630   23.2150   38.9780 C   0  0  0  0  0  0  0  0  0  0  0  0
   39.0950   24.5890   39.5370 C   0  0  0  0  0  0  0  0  0  0  0  0
   36.6810   24.1800   41.6120 H   0  0  0  0  0  0  0  0  0  0  0  0
   37.8500   22.9000   42.0310 H   0  0  0  0  0  0  0  0  0  0  0  0
   36.5920   23.6220   39.3200 H   0  0  0  0  0  0  0  0  0  0  0  0
   36.3690   22.1000   40.2050 H   0  0  0  0  0  0  0  0  0  0  0  0
   38.6050   21.5460   39.8620 H   0  0  0  0  0  0  0  0  0  0  0  0
   40.2670   22.8230   39.2680 H   0  0  0  0  0  0  0  0  0  0  0  0
   39.3160   23.3210   37.8740 H   0  0  0  0  0  0  0  0  0  0  0  0
   40.0980   25.0840   39.5170 H   0  0  0  0  0  0  0  0  0  0  0  0
   38.4240   25.2160   38.9230 H   0  0  0  0  0  0  0  0  0  0  0  0
   37.3730   27.0380   41.5960 O   0  0  0  0  0  0  0  0  0  0  0  0
   35.4710   28.7900   41.0540 O   0  0  0  0  0  0  0  0  0  0  0  0
   36.8690   28.6930   41.6430 P   0  0  1  0  0  0  0  0  0  0  0  0
   36.8880   29.1860   43.2410 O   0  0  0  0  0  0  0  0  0  0  0  0
   37.7650   28.9470   43.6170 H   0  0  0  0  0  0  0  0  0  0  0  0
   37.9480   29.5540   40.6850 O   0  0  0  0  0  0  0  0  0  0  0  0
   39.8670   31.0040   42.3150 Cl  0  0  0  0  0  0  0  0  0  0  0  0
   38.7660   31.6530   41.1020 C   0  0  0  0  0  0  0  0  0  0  0  0
   37.8620   30.8950   40.3470 C   0  0  0  0  0  0  0  0  0  0  0  0
   37.0580   31.5340   39.4300 C   0  0  0  0  0  0  0  0  0  0  0  0
   36.4110   30.8650   38.9140 H   0  0  0  0  0  0  0  0  0  0  0  0
   37.1610   32.8980   39.2750 C   0  0  0  0  0  0  0  0  0  0  0  0
   36.5080   33.3560   38.5420 H   0  0  0  0  0  0  0  0  0  0  0  0
   38.0280   33.6800   39.9890 C   0  0  0  0  0  3  0  0  0  0  0  0
   38.8310   33.0340   40.9070 C   0  0  0  0  0  3  0  0  0  0  0  0
  1  6  1  0  0  0  0
  2  3  1  0  0  0  0
  2  1  2  0  0  0  0
  3  4  2  0  0  0  0
  4  5  1  0  0  0  0
  5  8  1  0  0  0  0
  6  5  2  0  0  0  0
  7  1  1  0  0  0  0
  9 10  1  0  0  0  0
  9  2  1  0  0  0  0
 10 15  1  0  0  0  0
 10 16  1  0  0  0  0
 11 18  1  0  0  0  0
 11 10  1  0  0  0  0
 12 19  1  0  0  0  0
 12 11  1  0  0  0  0
 13 12  1  0  0  0  0
 13 20  1  0  0  0  0
 13 14  1  0  0  0  0
 14  9  1  0  0  0  0
 17 11  1  0  0  0  0
 21 13  1  0  0  0  0
 22 14  1  0  0  0  0
 23 14  1  0  0  0  0
 24 26  1  0  0  0  0
 24  3  1  0  0  0  0
 26 25  2  6  0  0  0
 26 27  1  0  0  0  0
 27 28  1  0  0  0  0
 29 26  1  0  0  0  0
 31 30  1  0  0  0  0
 32 29  1  0  0  0  0
 32 31  2  0  0  0  0
 33 32  1  0  0  0  0
 34 33  1  0  0  0  0
 35 33  2  0  0  0  0
 35 37  1  0  0  0  0
 36 35  1  0  0  0  0
 37 38  2  0  0  0  0
 38 31  1  0  0  0  0
M  END
>  <minimizedAffinity>
-5.51767445

$$$$

 OpenBabel03242520273D

 38 40  0  0  0  0  0  0  0  0999 V2000
   36.7190   29.6160   36.8500 C   0  0  0  0  0  0  0  0  0  0  0  0
   37.3460   29.5130   38.1320 C   0  0  0  0  0  0  0  0  0  0  0  0
   37.0430   28.3990   38.9050 C   0  0  0  0  0  0  0  0  0  0  0  0
   36.1690   27.4640   38.4050 N   0  0  0  0  0  0  0  0  0  0  0  0
   35.6000   27.5900   37.2010 C   0  0  0  0  0  0  0  0  0  0  0  0
   35.8720   28.6590   36.4260 N   0  0  0  0  0  0  0  0  0  0  0  0
   36.9060   30.4460   36.1990 H   0  0  0  0  0  0  0  0  0  0  0  0
   34.9500   26.7510   37.0040 H   0  0  0  0  0  0  0  0  0  0  0  0
   38.2110   30.5640   38.4750 N   0  0  0  0  0  0  0  0  0  0  0  0
   37.7710   31.7790   39.1300 C   0  0  0  0  0  0  0  0  0  0  0  0
   38.9630   32.6230   39.4770 C   0  0  0  0  0  0  0  0  0  0  0  0
   39.8280   32.8650   38.3680 N   0  0  0  0  0  0  0  0  0  0  0  0
   40.2160   31.6900   37.6500 C   0  0  0  0  0  0  0  0  0  0  0  0
   39.6260   30.4130   38.1500 C   0  0  0  0  0  0  0  0  0  0  0  0
   37.2820   31.4650   40.0750 H   0  0  0  0  0  0  0  0  0  0  0  0
   37.0210   32.3330   38.5390 H   0  0  0  0  0  0  0  0  0  0  0  0
   39.5540   32.0810   40.2620 H   0  0  0  0  0  0  0  0  0  0  0  0
   38.6660   33.5780   39.9200 H   0  0  0  0  0  0  0  0  0  0  0  0
   39.2790   33.4560   37.6770 H   0  0  0  0  0  0  0  0  0  0  0  0
   40.0530   31.7610   36.5480 H   0  0  0  0  0  0  0  0  0  0  0  0
   41.3180   31.6000   37.7600 H   0  0  0  0  0  0  0  0  0  0  0  0
   39.7590   29.6440   37.3480 H   0  0  0  0  0  0  0  0  0  0  0  0
   40.1480   30.0280   39.0440 H   0  0  0  0  0  0  0  0  0  0  0  0
   37.6570   28.3220   40.1320 O   0  0  0  0  0  0  0  0  0  0  0  0
   37.3570   29.9300   42.2080 O   0  0  0  0  0  0  0  0  0  0  0  0
   36.7400   28.7070   41.5490 P   0  0  1  0  0  0  0  0  0  0  0  0
   35.1660   29.0060   41.0700 O   0  0  0  0  0  0  0  0  0  0  0  0
   34.8760   28.2530   40.5080 H   0  0  0  0  0  0  0  0  0  0  0  0
   36.8650   27.3850   42.5790 O   0  0  0  0  0  0  0  0  0  0  0  0
   36.5750   24.8450   41.2000 Cl  0  0  0  0  0  0  0  0  0  0  0  0
   37.9280   25.3950   42.1870 C   0  0  0  0  0  0  0  0  0  0  0  0
   38.0050   26.6380   42.8260 C   0  0  0  0  0  0  0  0  0  0  0  0
   39.1260   26.9380   43.5680 C   0  0  0  0  0  0  0  0  0  0  0  0
   39.0790   27.9050   44.0100 H   0  0  0  0  0  0  0  0  0  0  0  0
   40.1410   26.0140   43.6630 C   0  0  0  0  0  0  0  0  0  0  0  0
   41.0020   26.2950   44.2580 H   0  0  0  0  0  0  0  0  0  0  0  0
   40.1110   24.7870   43.0570 C   0  0  0  0  0  3  0  0  0  0  0  0
   38.9860   24.4910   42.3140 C   0  0  0  0  0  3  0  0  0  0  0  0
  1  2  1  0  0  0  0
  2  9  1  0  0  0  0
  2  3  2  0  0  0  0
  3 24  1  0  0  0  0
  4  3  1  0  0  0  0
  5  4  2  0  0  0  0
  6  1  2  0  0  0  0
  6  5  1  0  0  0  0
  7  1  1  0  0  0  0
  8  5  1  0  0  0  0
  9 10  1  0  0  0  0
 10 11  1  0  0  0  0
 10 15  1  0  0  0  0
 11 18  1  0  0  0  0
 11 17  1  0  0  0  0
 12 11  1  0  0  0  0
 13 21  1  0  0  0  0
 13 14  1  0  0  0  0
 13 12  1  0  0  0  0
 14  9  1  0  0  0  0
 14 23  1  0  0  0  0
 16 10  1  0  0  0  0
 19 12  1  0  0  0  0
 20 13  1  0  0  0  0
 22 14  1  0  0  0  0
 24 26  1  0  0  0  0
 26 25  2  1  0  0  0
 26 29  1  0  0  0  0
 27 26  1  0  0  0  0
 28 27  1  0  0  0  0
 29 32  1  0  0  0  0
 30 31  1  0  0  0  0
 31 38  2  0  0  0  0
 31 32  1  0  0  0  0
 32 33  2  0  0  0  0
 33 35  1  0  0  0  0
 33 34  1  0  0  0  0
 35 36  1  0  0  0  0
 37 35  2  0  0  0  0
 38 37  1  0  0  0  0
M  END
>  <minimizedAffinity>
-5.40918064

$$$$

 OpenBabel03242520273D

 38 40  0  0  0  0  0  0  0  0999 V2000
   37.2130   29.7580   36.2390 C   0  0  0  0  0  0  0  0  0  0  0  0
   37.7400   29.8010   37.5690 C   0  0  0  0  0  0  0  0  0  0  0  0
   36.9580   29.2650   38.5840 C   0  0  0  0  0  0  0  0  0  0  0  0
   35.7350   28.7260   38.2640 N   0  0  0  0  0  0  0  0  0  0  0  0
   35.2720   28.7010   37.0100 C   0  0  0  0  0  0  0  0  0  0  0  0
   36.0050   29.2130   36.0010 N   0  0  0  0  0  0  0  0  0  0  0  0
   37.7590   30.1510   35.4060 H   0  0  0  0  0  0  0  0  0  0  0  0
   34.2980   28.2360   36.9800 H   0  0  0  0  0  0  0  0  0  0  0  0
   39.0060   30.3900   37.7050 N   0  0  0  0  0  0  0  0  0  0  0  0
   40.2450   29.6380   37.6760 C   0  0  0  0  0  0  0  0  0  0  0  0
   41.4080   30.5870   37.7070 C   0  0  0  0  0  0  0  0  0  0  0  0
   41.3470   31.5250   38.7800 N   0  0  0  0  0  0  0  0  0  0  0  0
   40.1040   32.2270   38.8850 C   0  0  0  0  0  0  0  0  0  0  0  0
   39.0660   31.8380   37.8850 C   0  0  0  0  0  0  0  0  0  0  0  0
   40.2620   29.1010   36.7060 H   0  0  0  0  0  0  0  0  0  0  0  0
   40.2990   28.8790   38.4760 H   0  0  0  0  0  0  0  0  0  0  0  0
   41.4100   31.1640   36.7450 H   0  0  0  0  0  0  0  0  0  0  0  0
   42.3630   30.0530   37.7480 H   0  0  0  0  0  0  0  0  0  0  0  0
   41.4380   30.9670   39.6800 H   0  0  0  0  0  0  0  0  0  0  0  0
   39.6560   32.1990   39.9060 H   0  0  0  0  0  0  0  0  0  0  0  0
   40.3300   33.3010   38.7120 H   0  0  0  0  0  0  0  0  0  0  0  0
   38.0830   32.2230   38.2540 H   0  0  0  0  0  0  0  0  0  0  0  0
   39.2350   32.3030   36.8970 H   0  0  0  0  0  0  0  0  0  0  0  0
   37.4840   29.3180   39.8530 O   0  0  0  0  0  0  0  0  0  0  0  0
   37.0070   31.7640   40.7330 O   0  0  0  0  0  0  0  0  0  0  0  0
   36.7030   30.3070   41.0400 P   0  0  1  0  0  0  0  0  0  0  0  0
   35.0610   29.9990   40.9560 O   0  0  0  0  0  0  0  0  0  0  0  0
   34.9370   29.0240   40.9950 H   0  0  0  0  0  0  0  0  0  0  0  0
   37.3660   29.8910   42.5270 O   0  0  0  0  0  0  0  0  0  0  0  0
   36.3930   27.3360   43.5100 Cl  0  0  0  0  0  0  0  0  0  0  0  0
   38.0620   27.8200   43.2170 C   0  0  0  0  0  0  0  0  0  0  0  0
   38.4640   29.0730   42.7400 C   0  0  0  0  0  0  0  0  0  0  0  0
   39.8070   29.3180   42.5560 C   0  0  0  0  0  0  0  0  0  0  0  0
   40.0000   30.2990   42.1920 H   0  0  0  0  0  0  0  0  0  0  0  0
   40.7200   28.3280   42.8440 C   0  0  0  0  0  0  0  0  0  0  0  0
   41.7640   28.5670   42.6840 H   0  0  0  0  0  0  0  0  0  0  0  0
   40.3740   27.0890   43.3130 C   0  0  0  0  0  3  0  0  0  0  0  0
   39.0270   26.8500   43.4950 C   0  0  0  0  0  3  0  0  0  0  0  0
  1  2  1  0  0  0  0
  2  9  1  0  0  0  0
  2  3  2  0  0  0  0
  3 24  1  0  0  0  0
  4  3  1  0  0  0  0
  5  4  2  0  0  0  0
  6  1  2  0  0  0  0
  6  5  1  0  0  0  0
  7  1  1  0  0  0  0
  8  5  1  0  0  0  0
  9 14  1  0  0  0  0
 10  9  1  0  0  0  0
 10 11  1  0  0  0  0
 10 16  1  0  0  0  0
 11 18  1  0  0  0  0
 11 12  1  0  0  0  0
 12 13  1  0  0  0  0
 12 19  1  0  0  0  0
 13 20  1  0  0  0  0
 14 22  1  0  0  0  0
 14 13  1  0  0  0  0
 15 10  1  0  0  0  0
 17 11  1  0  0  0  0
 21 13  1  0  0  0  0
 23 14  1  0  0  0  0
 24 26  1  0  0  0  0
 26 25  2  6  0  0  0
 26 29  1  0  0  0  0
 27 28  1  0  0  0  0
 27 26  1  0  0  0  0
 29 32  1  0  0  0  0
 31 38  1  0  0  0  0
 31 30  1  0  0  0  0
 32 31  2  0  0  0  0
 33 32  1  0  0  0  0
 33 35  2  0  0  0  0
 34 33  1  0  0  0  0
 35 37  1  0  0  0  0
 36 35  1  0  0  0  0
 37 38  2  0  0  0  0
M  END
>  <minimizedAffinity>
-5.38732481

$$$$

 OpenBabel03242520273D

 38 40  0  0  0  0  0  0  0  0999 V2000
   36.9590   26.5950   40.3600 C   0  0  0  0  0  0  0  0  0  0  0  0
   37.3960   27.7870   39.7000 C   0  0  0  0  0  0  0  0  0  0  0  0
   37.6430   28.9020   40.4890 C   0  0  0  0  0  0  0  0  0  0  0  0
   37.4600   28.8060   41.8480 N   0  0  0  0  0  0  0  0  0  0  0  0
   37.0520   27.6760   42.4350 C   0  0  0  0  0  0  0  0  0  0  0  0
   36.8020   26.5750   41.6970 N   0  0  0  0  0  0  0  0  0  0  0  0
   36.7490   25.6960   39.8170 H   0  0  0  0  0  0  0  0  0  0  0  0
   36.9730   27.8160   43.5030 H   0  0  0  0  0  0  0  0  0  0  0  0
   37.5260   27.6990   38.3050 N   0  0  0  0  0  0  0  0  0  0  0  0
   38.7030   27.1710   37.6440 C   0  0  0  0  0  0  0  0  0  0  0  0
   38.4540   27.0900   36.1660 C   0  0  0  0  0  0  0  0  0  0  0  0
   37.9970   28.3170   35.5990 N   0  0  0  0  0  0  0  0  0  0  0  0
   36.8840   28.9060   36.2800 C   0  0  0  0  0  0  0  0  0  0  0  0
   36.4110   28.1670   37.4870 C   0  0  0  0  0  0  0  0  0  0  0  0
   38.8410   26.1400   38.0280 H   0  0  0  0  0  0  0  0  0  0  0  0
   39.6180   27.7390   37.8870 H   0  0  0  0  0  0  0  0  0  0  0  0
   37.6640   26.3140   35.9890 H   0  0  0  0  0  0  0  0  0  0  0  0
   39.3440   26.7520   35.6250 H   0  0  0  0  0  0  0  0  0  0  0  0
   38.7930   29.0140   35.6950 H   0  0  0  0  0  0  0  0  0  0  0  0
   37.0360   29.9800   36.5460 H   0  0  0  0  0  0  0  0  0  0  0  0
   36.0400   28.9180   35.5580 H   0  0  0  0  0  0  0  0  0  0  0  0
   35.7650   28.8640   38.0770 H   0  0  0  0  0  0  0  0  0  0  0  0
   35.7810   27.2970   37.2300 H   0  0  0  0  0  0  0  0  0  0  0  0
   38.0610   30.0350   39.8320 O   0  0  0  0  0  0  0  0  0  0  0  0
   36.9350   32.2110   38.8400 O   0  0  0  0  0  0  0  0  0  0  0  0
   37.2600   31.5340   40.1610 P   0  0  1  0  0  0  0  0  0  0  0  0
   35.8680   31.1880   41.0230 O   0  0  0  0  0  0  0  0  0  0  0  0
   36.1200   30.6090   41.7770 H   0  0  0  0  0  0  0  0  0  0  0  0
   38.3430   32.4790   41.0310 O   0  0  0  0  0  0  0  0  0  0  0  0
   40.3310   33.8640   39.4280 Cl  0  0  0  0  0  0  0  0  0  0  0  0
   40.6020   32.7290   40.7480 C   0  0  0  0  0  0  0  0  0  0  0  0
   39.5950   32.0940   41.4830 C   0  0  0  0  0  0  0  0  0  0  0  0
   39.9510   31.2270   42.4920 C   0  0  0  0  0  0  0  0  0  0  0  0
   39.1090   30.8000   42.9840 H   0  0  0  0  0  0  0  0  0  0  0  0
   41.2840   31.0050   42.7540 C   0  0  0  0  0  0  0  0  0  0  0  0
   41.5150   30.3150   43.5560 H   0  0  0  0  0  0  0  0  0  0  0  0
   42.3030   31.6020   42.0620 C   0  0  0  0  0  3  0  0  0  0  0  0
   41.9410   32.4700   41.0530 C   0  0  0  0  0  3  0  0  0  0  0  0
  1  6  1  0  0  0  0
  2  1  2  0  0  0  0
  2  3  1  0  0  0  0
  3  4  2  0  0  0  0
  4  5  1  0  0  0  0
  5  8  1  0  0  0  0
  6  5  2  0  0  0  0
  7  1  1  0  0  0  0
  9  2  1  0  0  0  0
 10 16  1  0  0  0  0
 10 15  1  0  0  0  0
 10  9  1  0  0  0  0
 11 10  1  0  0  0  0
 12 19  1  0  0  0  0
 12 11  1  0  0  0  0
 12 13  1  0  0  0  0
 13 20  1  0  0  0  0
 13 14  1  0  0  0  0
 14 22  1  0  0  0  0
 14  9  1  0  0  0  0
 17 11  1  0  0  0  0
 18 11  1  0  0  0  0
 21 13  1  0  0  0  0
 23 14  1  0  0  0  0
 24 26  1  0  0  0  0
 24  3  1  0  0  0  0
 26 25  2  6  0  0  0
 26 27  1  0  0  0  0
 26 29  1  0  0  0  0
 27 28  1  0  0  0  0
 29 32  1  0  0  0  0
 30 31  1  0  0  0  0
 31 38  2  0  0  0  0
 31 32  1  0  0  0  0
 32 33  2  0  0  0  0
 33 35  1  0  0  0  0
 33 34  1  0  0  0  0
 35 36  1  0  0  0  0
 37 35  2  0  0  0  0
 38 37  1  0  0  0  0
M  END
>  <minimizedAffinity>
-5.16738272

$$$$

 OpenBabel03242520273D

 38 40  0  0  0  0  0  0  0  0999 V2000
   36.4680   26.9880   39.6650 C   0  0  0  0  0  0  0  0  0  0  0  0
   37.2830   28.1090   40.0200 C   0  0  0  0  0  0  0  0  0  0  0  0
   37.2820   29.1980   39.1580 C   0  0  0  0  0  0  0  0  0  0  0  0
   36.5070   29.1450   38.0240 N   0  0  0  0  0  0  0  0  0  0  0  0
   35.7550   28.0810   37.7220 C   0  0  0  0  0  0  0  0  0  0  0  0
   35.7340   27.0070   38.5370 N   0  0  0  0  0  0  0  0  0  0  0  0
   36.4180   26.1130   40.2820 H   0  0  0  0  0  0  0  0  0  0  0  0
   35.2290   28.2450   36.7930 H   0  0  0  0  0  0  0  0  0  0  0  0
   38.0060   27.9840   41.2160 N   0  0  0  0  0  0  0  0  0  0  0  0
   39.3450   27.4330   41.2860 C   0  0  0  0  0  0  0  0  0  0  0  0
   39.8740   27.5770   42.6840 C   0  0  0  0  0  0  0  0  0  0  0  0
   38.9980   27.0500   43.6790 N   0  0  0  0  0  0  0  0  0  0  0  0
   37.6470   27.5140   43.5860 C   0  0  0  0  0  0  0  0  0  0  0  0
   37.3660   28.4380   42.4470 C   0  0  0  0  0  0  0  0  0  0  0  0
   39.9730   28.0510   40.6130 H   0  0  0  0  0  0  0  0  0  0  0  0
   39.3950   26.3920   40.9220 H   0  0  0  0  0  0  0  0  0  0  0  0
   40.0110   28.6710   42.8910 H   0  0  0  0  0  0  0  0  0  0  0  0
   40.8610   27.1170   42.7910 H   0  0  0  0  0  0  0  0  0  0  0  0
   38.9520   26.0010   43.5210 H   0  0  0  0  0  0  0  0  0  0  0  0
   36.8890   26.6950   43.5880 H   0  0  0  0  0  0  0  0  0  0  0  0
   37.4410   28.0820   44.5190 H   0  0  0  0  0  0  0  0  0  0  0  0
   36.2570   28.4790   42.3140 H   0  0  0  0  0  0  0  0  0  0  0  0
   37.6980   29.4710   42.6500 H   0  0  0  0  0  0  0  0  0  0  0  0
   38.0730   30.2640   39.5190 O   0  0  0  0  0  0  0  0  0  0  0  0
   36.8040   32.4440   38.7310 O   0  0  0  0  0  0  0  0  0  0  0  0
   37.3110   31.7470   39.9830 P   0  0  1  0  0  0  0  0  0  0  0  0
   36.0530   31.3710   41.0190 O   0  0  0  0  0  0  0  0  0  0  0  0
   36.4100   30.7810   41.7200 H   0  0  0  0  0  0  0  0  0  0  0  0
   38.4950   32.6890   40.7140 O   0  0  0  0  0  0  0  0  0  0  0  0
   40.7180   34.1610   39.5600 Cl  0  0  0  0  0  0  0  0  0  0  0  0
   40.7740   32.9040   40.7940 C   0  0  0  0  0  0  0  0  0  0  0  0
   39.6600   32.2320   41.3100 C   0  0  0  0  0  0  0  0  0  0  0  0
   39.8500   31.2680   42.2750 C   0  0  0  0  0  0  0  0  0  0  0  0
   38.9390   30.8210   42.5950 H   0  0  0  0  0  0  0  0  0  0  0  0
   41.1260   30.9900   42.7100 C   0  0  0  0  0  0  0  0  0  0  0  0
   41.2260   30.2240   43.4700 H   0  0  0  0  0  0  0  0  0  0  0  0
   42.2450   31.6200   42.2360 C   0  0  0  0  0  3  0  0  0  0  0  0
   42.0490   32.5850   41.2690 C   0  0  0  0  0  3  0  0  0  0  0  0
  1  2  1  0  0  0  0
  1  7  1  0  0  0  0
  2  9  1  0  0  0  0
  3 24  1  0  0  0  0
  3  2  2  0  0  0  0
  4  3  1  0  0  0  0
  5  4  2  0  0  0  0
  5  6  1  0  0  0  0
  6  1  2  0  0  0  0
  8  5  1  0  0  0  0
  9 10  1  0  0  0  0
  9 14  1  0  0  0  0
 10 11  1  0  0  0  0
 11 18  1  0  0  0  0
 11 17  1  0  0  0  0
 11 12  1  0  0  0  0
 13 20  1  0  0  0  0
 13 12  1  0  0  0  0
 13 21  1  0  0  0  0
 14 23  1  0  0  0  0
 14 13  1  0  0  0  0
 15 10  1  0  0  0  0
 16 10  1  0  0  0  0
 19 12  1  0  0  0  0
 22 14  1  0  0  0  0
 24 26  1  0  0  0  0
 26 25  2  6  0  0  0
 26 29  1  0  0  0  0
 26 27  1  0  0  0  0
 27 28  1  0  0  0  0
 29 32  1  0  0  0  0
 30 31  1  0  0  0  0
 31 38  2  0  0  0  0
 31 32  1  0  0  0  0
 32 33  2  0  0  0  0
 33 34  1  0  0  0  0
 33 35  1  0  0  0  0
 35 36  1  0  0  0  0
 37 35  2  0  0  0  0
 38 37  1  0  0  0  0
M  END
>  <minimizedAffinity>
-5.11924696

$$$$

 OpenBabel03242520273D

 38 40  0  0  0  0  0  0  0  0999 V2000
   37.7250   26.1950   41.1400 C   0  0  0  0  0  0  0  0  0  0  0  0
   38.0320   27.4520   40.5300 C   0  0  0  0  0  0  0  0  0  0  0  0
   37.6610   28.6030   41.2130 C   0  0  0  0  0  0  0  0  0  0  0  0
   37.0270   28.4770   42.4260 N   0  0  0  0  0  0  0  0  0  0  0  0
   36.7550   27.2860   42.9700 C   0  0  0  0  0  0  0  0  0  0  0  0
   37.1020   26.1500   42.3320 N   0  0  0  0  0  0  0  0  0  0  0  0
   37.9820   25.2660   40.6720 H   0  0  0  0  0  0  0  0  0  0  0  0
   36.2570   27.4130   43.9190 H   0  0  0  0  0  0  0  0  0  0  0  0
   38.6820   27.3850   39.2870 N   0  0  0  0  0  0  0  0  0  0  0  0
   40.1210   27.4640   39.1330 C   0  0  0  0  0  0  0  0  0  0  0  0
   40.4860   27.2180   37.6980 C   0  0  0  0  0  0  0  0  0  0  0  0
   39.7790   28.0520   36.7820 N   0  0  0  0  0  0  0  0  0  0  0  0
   38.3580   28.0590   36.9610 C   0  0  0  0  0  0  0  0  0  0  0  0
   37.8550   27.2280   38.0950 C   0  0  0  0  0  0  0  0  0  0  0  0
   40.5460   26.6410   39.7440 H   0  0  0  0  0  0  0  0  0  0  0  0
   40.5390   28.4110   39.5180 H   0  0  0  0  0  0  0  0  0  0  0  0
   40.2380   26.1510   37.4550 H   0  0  0  0  0  0  0  0  0  0  0  0
   41.5620   27.3290   37.5310 H   0  0  0  0  0  0  0  0  0  0  0  0
   40.0960   29.0480   36.9680 H   0  0  0  0  0  0  0  0  0  0  0  0
   37.9190   29.0820   37.0340 H   0  0  0  0  0  0  0  0  0  0  0  0
   37.9190   27.6360   36.0330 H   0  0  0  0  0  0  0  0  0  0  0  0
   36.8050   27.5510   38.3070 H   0  0  0  0  0  0  0  0  0  0  0  0
   37.8080   26.1540   37.8440 H   0  0  0  0  0  0  0  0  0  0  0  0
   37.9650   29.7990   40.6070 O   0  0  0  0  0  0  0  0  0  0  0  0
   35.9650   30.0860   38.9030 O   0  0  0  0  0  0  0  0  0  0  0  0
   36.6720   30.8020   40.0440 P   0  0  1  0  0  0  0  0  0  0  0  0
   35.6350   31.0640   41.3300 O   0  0  0  0  0  0  0  0  0  0  0  0
   36.1760   31.3710   42.0910 H   0  0  0  0  0  0  0  0  0  0  0  0
   37.3730   32.2190   39.4750 O   0  0  0  0  0  0  0  0  0  0  0  0
   38.8960   34.1510   41.0200 Cl  0  0  0  0  0  0  0  0  0  0  0  0
   39.4080   33.2640   39.5860 C   0  0  0  0  0  0  0  0  0  0  0  0
   38.6210   32.3420   38.8860 C   0  0  0  0  0  0  0  0  0  0  0  0
   39.1500   31.7190   37.7770 C   0  0  0  0  0  0  0  0  0  0  0  0
   38.4680   31.0410   37.3230 H   0  0  0  0  0  0  0  0  0  0  0  0
   40.4360   32.0150   37.3850 C   0  0  0  0  0  0  0  0  0  0  0  0
   40.8090   31.5010   36.5080 H   0  0  0  0  0  0  0  0  0  0  0  0
   41.2430   32.9090   38.0370 C   0  0  0  0  0  3  0  0  0  0  0  0
   40.7070   33.5300   39.1470 C   0  0  0  0  0  3  0  0  0  0  0  0
  1  6  1  0  0  0  0
  2  1  2  0  0  0  0
  2  3  1  0  0  0  0
  3  4  2  0  0  0  0
  4  5  1  0  0  0  0
  5  8  1  0  0  0  0
  6  5  2  0  0  0  0
  7  1  1  0  0  0  0
  9  2  1  0  0  0  0
 10  9  1  0  0  0  0
 10 16  1  0  0  0  0
 10 15  1  0  0  0  0
 11 10  1  0  0  0  0
 12 13  1  0  0  0  0
 12 19  1  0  0  0  0
 12 11  1  0  0  0  0
 13 20  1  0  0  0  0
 13 14  1  0  0  0  0
 14 22  1  0  0  0  0
 14  9  1  0  0  0  0
 17 11  1  0  0  0  0
 18 11  1  0  0  0  0
 21 13  1  0  0  0  0
 23 14  1  0  0  0  0
 24  3  1  0  0  0  0
 26 25  2  6  0  0  0
 26 24  1  0  0  0  0
 26 27  1  0  0  0  0
 27 28  1  0  0  0  0
 29 26  1  0  0  0  0
 31 30  1  0  0  0  0
 32 29  1  0  0  0  0
 32 31  2  0  0  0  0
 33 32  1  0  0  0  0
 34 33  1  0  0  0  0
 35 33  2  0  0  0  0
 35 37  1  0  0  0  0
 36 35  1  0  0  0  0
 37 38  2  0  0  0  0
 38 31  1  0  0  0  0
M  END
>  <minimizedAffinity>
-5.1018486

$$$$
