
     RDKit          3D

 23 24  0  0  0  0  0  0  0  0999 V2000
   44.5567   36.0121   44.4986 C   0  0  0  0  0  0  0  0  0  0  0  0
   45.3003   35.9250   43.3031 C   0  0  0  0  0  0  0  0  0  0  0  0
   46.2001   34.8549   43.1672 C   0  0  0  0  0  0  0  0  0  0  0  0
   46.3044   33.9609   44.1981 N   0  0  0  0  0  0  0  0  0  0  0  0
   45.5705   34.0865   45.3241 C   0  0  0  0  0  0  0  0  0  0  0  0
   44.7065   35.1030   45.4695 N   0  0  0  0  0  0  0  0  0  0  0  0
   46.9635   34.7726   41.9224 C   0  0  0  0  0  0  0  0  0  0  0  0
   43.8874   36.8848   44.4955 H   0  0  0  0  0  0  0  0  0  0  0  0
   45.2047   36.6413   42.4999 H   0  0  0  0  0  0  0  0  0  0  0  0
   45.6306   33.3974   46.1543 H   0  0  0  0  0  0  0  0  0  0  0  0
   48.0143   34.4200   42.0756 H   0  0  0  0  0  0  0  0  0  0  0  0
   47.0879   35.7883   41.4876 H   0  0  0  0  0  0  0  0  0  0  0  0
   46.0194   32.1649   43.0976 Cl  0  0  0  0  0  0  0  0  0  0  0  0
   45.8541   32.7094   41.4287 C   0  0  0  0  0  0  0  0  0  0  0  0
   46.2979   33.9223   40.8914 C   0  0  0  0  0  0  0  0  0  0  0  0
   46.0766   34.1676   39.5536 C   0  0  0  0  0  0  0  0  0  0  0  0
   46.4585   35.1291   39.2482 H   0  0  0  0  0  0  0  0  0  0  0  0
   45.4419   33.2603   38.7587 C   0  0  0  0  0  0  0  0  0  0  0  0
   45.3131   33.5482   37.7057 H   0  0  0  0  0  0  0  0  0  0  0  0
   44.9852   32.0363   39.2634 C   0  0  0  0  0  0  0  0  0  0  0  0
   45.2040   31.7864   40.6014 C   0  0  0  0  0  0  0  0  0  0  0  0
   44.4890   31.3651   38.5706 H   0  0  0  0  0  0  0  0  0  0  0  0
   44.8346   30.8245   40.9566 H   0  0  0  0  0  0  0  0  0  0  0  0
  1  6  2  0
  2  1  1  0
  3  2  2  0
  3  4  1  0
  4  5  2  0
  5  6  1  0
  7  3  1  0
  1  8  1  0
  2  9  1  0
  5 10  1  0
  7 11  1  0
  7 12  1  0
 13 14  1  0
 14 15  2  0
 15 16  1  0
 16 17  1  0
 16 18  2  0
 18 19  1  0
 18 20  1  0
 20 21  2  0
 21 14  1  0
 20 22  1  0
 21 23  1  0
  7 15  1  0
M  ISO  7   8  14   9  14  10  14  11   8  12   8  17  15  19  16
M  END
>  <DihAtoms>  (1) 
2,6,14,13

>  <DihDeg>  (1) 
-76.74659286798168

$$$$
