
 OpenBabel03252509283D

 21 22  0  0  0  0  0  0  0  0999 V2000
   46.9440   34.9390   41.9050 C   0  0  0  0  0  0  0  0  0  0  0  0
   48.0210   34.6760   42.0480 H   0  0  0  0  0  0  0  0  0  0  0  0
   46.9760   35.9630   41.4750 H   0  0  0  0  0  0  0  0  0  0  0  0
   44.5610   36.0340   44.5680 C   0  0  0  0  0  0  0  0  0  0  0  0
   45.2970   36.0160   43.3650 C   0  0  0  0  0  0  0  0  0  0  0  0
   46.1870   34.9490   43.1570 C   0  0  0  0  0  0  0  0  0  0  0  0
   46.2880   33.9910   44.1290 N   0  0  0  0  0  0  0  0  0  0  0  0
   45.5620   34.0530   45.2650 C   0  0  0  0  0  0  0  0  0  0  0  0
   44.7070   35.0650   45.4790 N   0  0  0  0  0  0  0  0  0  0  0  0
   43.8990   36.9110   44.6230 H   0  0  0  0  0  0  0  0  0  0  0  0
   45.2040   36.7820   42.6090 H   0  0  0  0  0  0  0  0  0  0  0  0
   45.6210   33.3110   46.0500 H   0  0  0  0  0  0  0  0  0  0  0  0
   49.0130   33.1020   40.7160 Cl  0  0  0  0  0  0  0  0  0  0  0  0
   47.2980   33.1810   40.3180 C   0  0  0  0  0  0  0  0  0  0  0  0
   46.3430   34.0390   40.8750 C   0  0  0  0  0  0  0  0  0  0  0  0
   45.0420   33.9520   40.4300 C   0  0  0  0  0  0  0  0  0  0  0  0
   44.3940   34.6580   40.9260 H   0  0  0  0  0  0  0  0  0  0  0  0
   44.6760   33.0560   39.4700 C   0  0  0  0  0  0  0  0  0  0  0  0
   43.6160   33.0640   39.1820 H   0  0  0  0  0  0  0  0  0  0  0  0
   45.6060   32.1830   38.8910 C   0  0  0  0  0  3  0  0  0  0  0  0
   46.9090   32.2660   39.3340 C   0  0  0  0  0  3  0  0  0  0  0  0
  1  2  1  0  0  0  0
  1  6  1  0  0  0  0
  3  1  1  0  0  0  0
  4 10  1  0  0  0  0
  4  9  1  0  0  0  0
  5  4  2  0  0  0  0
  6  5  1  0  0  0  0
  6  7  2  0  0  0  0
  7  8  1  0  0  0  0
  8  9  2  0  0  0  0
  8 12  1  0  0  0  0
 11  5  1  0  0  0  0
 14 13  1  0  0  0  0
 14 15  1  0  0  0  0
 15  1  1  0  0  0  0
 16 15  2  0  0  0  0
 16 17  1  0  0  0  0
 18 16  1  0  0  0  0
 19 18  1  0  0  0  0
 20 21  1  0  0  0  0
 20 18  2  0  0  0  0
 21 14  2  0  0  0  0
M  END
>  <minimizedAffinity>
-4.01511908

>  <minimizedRMSD>
0.279810488

$$$$
