
 OpenBabel03252509293D

 21 22  0  0  0  0  0  0  0  0999 V2000
   46.4350   35.3540   42.1710 C   0  0  0  0  0  0  0  0  0  0  0  0
   47.4250   35.8740   42.1750 H   0  0  0  0  0  0  0  0  0  0  0  0
   45.7380   36.1150   41.7590 H   0  0  0  0  0  0  0  0  0  0  0  0
   44.5640   35.3430   45.4070 C   0  0  0  0  0  0  0  0  0  0  0  0
   44.9960   35.7250   44.1190 C   0  0  0  0  0  0  0  0  0  0  0  0
   45.9960   34.9510   43.5070 C   0  0  0  0  0  0  0  0  0  0  0  0
   46.4920   33.8750   44.1920 N   0  0  0  0  0  0  0  0  0  0  0  0
   46.0470   33.5500   45.4240 C   0  0  0  0  0  0  0  0  0  0  0  0
   45.0910   34.2780   46.0220 N   0  0  0  0  0  0  0  0  0  0  0  0
   43.7820   36.0180   45.7860 H   0  0  0  0  0  0  0  0  0  0  0  0
   44.5930   36.5780   43.5940 H   0  0  0  0  0  0  0  0  0  0  0  0
   46.4190   32.7060   45.9880 H   0  0  0  0  0  0  0  0  0  0  0  0
   43.7840   34.9970   40.7860 Cl  0  0  0  0  0  0  0  0  0  0  0  0
   45.2470   34.0420   40.5580 C   0  0  0  0  0  0  0  0  0  0  0  0
   46.4740   34.2130   41.2080 C   0  0  0  0  0  0  0  0  0  0  0  0
   47.5080   33.3590   40.8950 C   0  0  0  0  0  0  0  0  0  0  0  0
   48.4040   33.5810   41.4530 H   0  0  0  0  0  0  0  0  0  0  0  0
   47.3560   32.3640   39.9760 C   0  0  0  0  0  0  0  0  0  0  0  0
   48.2390   31.7340   39.7960 H   0  0  0  0  0  0  0  0  0  0  0  0
   46.1420   32.1630   39.3070 C   0  0  0  0  0  3  0  0  0  0  0  0
   45.1040   33.0160   39.6170 C   0  0  0  0  0  3  0  0  0  0  0  0
  1  2  1  0  0  0  0
  1  6  1  0  0  0  0
  3  1  1  0  0  0  0
  4 10  1  0  0  0  0
  4  9  1  0  0  0  0
  5  4  2  0  0  0  0
  6  5  1  0  0  0  0
  6  7  2  0  0  0  0
  7  8  1  0  0  0  0
  8 12  1  0  0  0  0
  8  9  2  0  0  0  0
 11  5  1  0  0  0  0
 14 13  1  0  0  0  0
 14 15  1  0  0  0  0
 15  1  1  0  0  0  0
 16 15  2  0  0  0  0
 16 17  1  0  0  0  0
 18 16  1  0  0  0  0
 19 18  1  0  0  0  0
 20 21  1  0  0  0  0
 20 18  2  0  0  0  0
 21 14  2  0  0  0  0
M  END
>  <minimizedAffinity>
-3.8610239

>  <minimizedRMSD>
1.04004109

$$$$
