
 OpenBabel03252508573D

 24 25  0  0  0  0  0  0  0  0999 V2000
   37.4030   28.3730   43.5150 C   0  0  0  0  0  0  0  0  0  0  0  0
   37.3080   28.8380   44.5260 H   0  0  0  0  0  0  0  0  0  0  0  0
   36.4990   27.8760   43.1720 H   0  0  0  0  0  0  0  0  0  0  0  0
   39.3790   31.0640   41.7850 C   0  0  0  0  0  0  0  0  0  0  0  0
   39.0420   30.0160   42.6540 C   0  0  0  0  0  0  0  0  0  0  0  0
   37.7550   29.4830   42.5980 C   0  0  0  0  0  0  0  0  0  0  0  0
   36.8930   30.0140   41.6970 N   0  0  0  0  0  0  0  0  0  0  0  0
   37.2400   31.0270   40.8680 C   0  0  0  0  0  0  0  0  0  0  0  0
   38.4660   31.5460   40.9110 N   0  0  0  0  0  0  0  0  0  0  0  0
   40.4030   31.3800   41.9370 H   0  0  0  0  0  0  0  0  0  0  0  0
   39.7360   29.5850   43.3790 H   0  0  0  0  0  0  0  0  0  0  0  0
   36.4980   31.4070   40.1690 H   0  0  0  0  0  0  0  0  0  0  0  0
   38.5810   27.4320   43.6140 C   0  0  0  0  0  0  0  0  0  0  0  0
   39.4850   27.9140   43.1910 H   0  0  0  0  0  0  0  0  0  0  0  0
   38.7720   27.1060   44.6490 H   0  0  0  0  0  0  0  0  0  0  0  0
   40.9130   25.6020   43.4250 Cl  0  0  0  0  0  0  0  0  0  0  0  0
   39.3120   25.3350   42.7350 C   0  0  0  0  0  0  0  0  0  0  0  0
   38.2300   26.2130   42.8400 C   0  0  0  0  0  0  0  0  0  0  0  0
   37.0310   25.8730   42.2500 C   0  0  0  0  0  0  0  0  0  0  0  0
   36.2630   26.6200   42.3920 H   0  0  0  0  0  0  0  0  0  0  0  0
   36.9180   24.6800   41.5680 C   0  0  0  0  0  0  0  0  0  0  0  0
   35.9510   24.4710   41.1260 H   0  0  0  0  0  0  0  0  0  0  0  0
   38.0000   23.8170   41.4700 C   0  0  0  0  0  3  0  0  0  0  0  0
   39.2070   24.1400   42.0550 C   0  0  0  0  0  3  0  0  0  0  0  0
  1 13  1  0  0  0  0
  1  2  1  0  0  0  0
  3  1  1  0  0  0  0
  4 10  1  0  0  0  0
  4  5  1  0  0  0  0
  5 11  1  0  0  0  0
  6  5  2  0  0  0  0
  6  1  1  0  0  0  0
  7  6  1  0  0  0  0
  8  9  1  0  0  0  0
  8  7  2  0  0  0  0
  9  4  2  0  0  0  0
 12  8  1  0  0  0  0
 13 15  1  0  0  0  0
 14 13  1  0  0  0  0
 17 18  1  0  0  0  0
 17 16  1  0  0  0  0
 18 13  1  0  0  0  0
 19 20  1  0  0  0  0
 19 18  2  0  0  0  0
 21 19  1  0  0  0  0
 22 21  1  0  0  0  0
 23 21  2  0  0  0  0
 23 24  1  0  0  0  0
 24 17  2  0  0  0  0
M  END
>  <minimizedAffinity>
-4.73683071

$$$$

 OpenBabel03252508573D

 24 25  0  0  0  0  0  0  0  0999 V2000
   37.9140   28.8960   43.3050 C   0  0  0  0  0  0  0  0  0  0  0  0
   39.0020   28.9100   43.0550 H   0  0  0  0  0  0  0  0  0  0  0  0
   37.6460   29.5350   44.1430 H   0  0  0  0  0  0  0  0  0  0  0  0
   35.5450   28.9650   40.3860 C   0  0  0  0  0  0  0  0  0  0  0  0
   36.2090   28.5410   41.5460 C   0  0  0  0  0  0  0  0  0  0  0  0
   37.2160   29.3460   42.0770 C   0  0  0  0  0  0  0  0  0  0  0  0
   37.5000   30.5050   41.4340 N   0  0  0  0  0  0  0  0  0  0  0  0
   36.8450   30.8940   40.3140 C   0  0  0  0  0  0  0  0  0  0  0  0
   35.8810   30.1350   39.7960 N   0  0  0  0  0  0  0  0  0  0  0  0
   34.7920   28.2470   40.0850 H   0  0  0  0  0  0  0  0  0  0  0  0
   35.9810   27.6090   42.0670 H   0  0  0  0  0  0  0  0  0  0  0  0
   37.1240   31.8360   39.8480 H   0  0  0  0  0  0  0  0  0  0  0  0
   37.5760   27.4440   43.5520 C   0  0  0  0  0  0  0  0  0  0  0  0
   37.2320   27.3100   44.5970 H   0  0  0  0  0  0  0  0  0  0  0  0
   36.8170   27.0640   42.8490 H   0  0  0  0  0  0  0  0  0  0  0  0
   36.9670   24.9620   42.0390 Cl  0  0  0  0  0  0  0  0  0  0  0  0
   38.5560   25.4860   42.5970 C   0  0  0  0  0  0  0  0  0  0  0  0
   38.8160   26.6610   43.3070 C   0  0  0  0  0  0  0  0  0  0  0  0
   40.1130   26.9470   43.6800 C   0  0  0  0  0  0  0  0  0  0  0  0
   40.2010   27.8780   44.2220 H   0  0  0  0  0  0  0  0  0  0  0  0
   41.1270   26.0740   43.3500 C   0  0  0  0  0  0  0  0  0  0  0  0
   42.1230   26.3540   43.6720 H   0  0  0  0  0  0  0  0  0  0  0  0
   40.8570   24.9100   42.6460 C   0  0  0  0  0  3  0  0  0  0  0  0
   39.5660   24.6080   42.2630 C   0  0  0  0  0  3  0  0  0  0  0  0
  1 13  1  0  0  0  0
  1  3  1  0  0  0  0
  2  1  1  0  0  0  0
  4  5  1  0  0  0  0
  5 11  1  0  0  0  0
  5  6  2  0  0  0  0
  6  1  1  0  0  0  0
  7  6  1  0  0  0  0
  8  7  2  0  0  0  0
  9  8  1  0  0  0  0
  9  4  2  0  0  0  0
 10  4  1  0  0  0  0
 12  8  1  0  0  0  0
 13 14  1  0  0  0  0
 15 13  1  0  0  0  0
 16 17  1  0  0  0  0
 17 18  1  0  0  0  0
 18 13  1  0  0  0  0
 18 19  2  0  0  0  0
 19 20  1  0  0  0  0
 21 22  1  0  0  0  0
 21 19  1  0  0  0  0
 23 21  2  0  0  0  0
 24 17  2  0  0  0  0
 24 23  1  0  0  0  0
M  END
>  <minimizedAffinity>
-4.64952564

$$$$

 OpenBabel03252508573D

 24 25  0  0  0  0  0  0  0  0999 V2000
   36.4630   30.8720   40.1290 C   0  0  0  0  0  0  0  0  0  0  0  0
   35.5510   31.5140   40.0940 H   0  0  0  0  0  0  0  0  0  0  0  0
   36.6020   30.2550   39.2440 H   0  0  0  0  0  0  0  0  0  0  0  0
   38.5110   34.0230   40.0480 C   0  0  0  0  0  0  0  0  0  0  0  0
   37.4350   33.1370   39.9010 C   0  0  0  0  0  0  0  0  0  0  0  0
   37.6030   31.8060   40.2830 C   0  0  0  0  0  0  0  0  0  0  0  0
   38.8100   31.4420   40.7800 N   0  0  0  0  0  0  0  0  0  0  0  0
   39.8370   32.3160   40.9130 C   0  0  0  0  0  0  0  0  0  0  0  0
   39.6900   33.5900   40.5510 N   0  0  0  0  0  0  0  0  0  0  0  0
   38.2440   35.0180   39.7130 H   0  0  0  0  0  0  0  0  0  0  0  0
   36.4610   33.4280   39.5030 H   0  0  0  0  0  0  0  0  0  0  0  0
   40.7790   31.9570   41.3180 H   0  0  0  0  0  0  0  0  0  0  0  0
   36.3300   30.0530   41.3920 C   0  0  0  0  0  0  0  0  0  0  0  0
   37.1080   30.3570   42.1210 H   0  0  0  0  0  0  0  0  0  0  0  0
   35.3300   30.1380   41.8440 H   0  0  0  0  0  0  0  0  0  0  0  0
   37.4050   28.4760   43.6690 Cl  0  0  0  0  0  0  0  0  0  0  0  0
   37.0120   27.8640   42.0620 C   0  0  0  0  0  0  0  0  0  0  0  0
   36.5050   28.6280   41.0070 C   0  0  0  0  0  0  0  0  0  0  0  0
   36.2410   28.0140   39.8010 C   0  0  0  0  0  0  0  0  0  0  0  0
   35.8520   28.6950   39.0560 H   0  0  0  0  0  0  0  0  0  0  0  0
   36.4790   26.6650   39.6530 C   0  0  0  0  0  0  0  0  0  0  0  0
   36.2530   26.2410   38.6820 H   0  0  0  0  0  0  0  0  0  0  0  0
   36.9830   25.9170   40.7070 C   0  0  0  0  0  3  0  0  0  0  0  0
   37.2530   26.5130   41.9220 C   0  0  0  0  0  3  0  0  0  0  0  0
  1  6  1  0  0  0  0
  1 13  1  0  0  0  0
  2  1  1  0  0  0  0
  3  1  1  0  0  0  0
  4  9  1  0  0  0  0
  5  4  2  0  0  0  0
  5  6  1  0  0  0  0
  6  7  2  0  0  0  0
  7  8  1  0  0  0  0
  8 12  1  0  0  0  0
  9  8  2  0  0  0  0
 10  4  1  0  0  0  0
 11  5  1  0  0  0  0
 13 15  1  0  0  0  0
 13 14  1  0  0  0  0
 17 16  1  0  0  0  0
 18 13  1  0  0  0  0
 18 17  2  0  0  0  0
 19 18  1  0  0  0  0
 20 19  1  0  0  0  0
 21 19  2  0  0  0  0
 21 23  1  0  0  0  0
 22 21  1  0  0  0  0
 23 24  2  0  0  0  0
 24 17  1  0  0  0  0
M  END
>  <minimizedAffinity>
-4.5106616

$$$$

 OpenBabel03252508573D

 24 25  0  0  0  0  0  0  0  0999 V2000
   39.7880   30.6650   41.1200 C   0  0  0  0  0  0  0  0  0  0  0  0
   39.3640   29.7760   40.5940 H   0  0  0  0  0  0  0  0  0  0  0  0
   40.8500   30.8180   40.9400 H   0  0  0  0  0  0  0  0  0  0  0  0
   37.1770   32.6960   39.3340 C   0  0  0  0  0  0  0  0  0  0  0  0
   37.9130   31.5970   39.8020 C   0  0  0  0  0  0  0  0  0  0  0  0
   39.0140   31.8280   40.6260 C   0  0  0  0  0  0  0  0  0  0  0  0
   39.3130   33.1130   40.9310 N   0  0  0  0  0  0  0  0  0  0  0  0
   38.5880   34.1600   40.4680 C   0  0  0  0  0  0  0  0  0  0  0  0
   37.5340   33.9540   39.6800 N   0  0  0  0  0  0  0  0  0  0  0  0
   36.3550   32.3740   38.7070 H   0  0  0  0  0  0  0  0  0  0  0  0
   37.6720   30.5610   39.5580 H   0  0  0  0  0  0  0  0  0  0  0  0
   38.8840   35.1660   40.7520 H   0  0  0  0  0  0  0  0  0  0  0  0
   39.4720   30.4550   42.5830 C   0  0  0  0  0  0  0  0  0  0  0  0
   40.4120   30.3240   43.1560 H   0  0  0  0  0  0  0  0  0  0  0  0
   38.8790   31.2820   43.0060 H   0  0  0  0  0  0  0  0  0  0  0  0
   41.1280   28.0900   43.2790 Cl  0  0  0  0  0  0  0  0  0  0  0  0
   39.3870   28.1050   43.0010 C   0  0  0  0  0  0  0  0  0  0  0  0
   38.6300   29.2340   42.6760 C   0  0  0  0  0  0  0  0  0  0  0  0
   37.2700   29.0990   42.4870 C   0  0  0  0  0  0  0  0  0  0  0  0
   36.7830   30.0320   42.2410 H   0  0  0  0  0  0  0  0  0  0  0  0
   36.6820   27.8600   42.6210 C   0  0  0  0  0  0  0  0  0  0  0  0
   35.6110   27.8180   42.4600 H   0  0  0  0  0  0  0  0  0  0  0  0
   37.4430   26.7460   42.9440 C   0  0  0  0  0  3  0  0  0  0  0  0
   38.8050   26.8620   43.1370 C   0  0  0  0  0  3  0  0  0  0  0  0
  1 13  1  0  0  0  0
  2  1  1  0  0  0  0
  3  1  1  0  0  0  0
  4  9  2  0  0  0  0
  4  5  1  0  0  0  0
  5  6  2  0  0  0  0
  6  7  1  0  0  0  0
  6  1  1  0  0  0  0
  8 12  1  0  0  0  0
  8  7  2  0  0  0  0
  9  8  1  0  0  0  0
 10  4  1  0  0  0  0
 11  5  1  0  0  0  0
 13 18  1  0  0  0  0
 13 15  1  0  0  0  0
 13 14  1  0  0  0  0
 17 24  1  0  0  0  0
 17 16  1  0  0  0  0
 18 17  2  0  0  0  0
 19 21  2  0  0  0  0
 19 18  1  0  0  0  0
 20 19  1  0  0  0  0
 21 23  1  0  0  0  0
 22 21  1  0  0  0  0
 23 24  2  0  0  0  0
M  END
>  <minimizedAffinity>
-4.50030518

$$$$

 OpenBabel03252508573D

 24 25  0  0  0  0  0  0  0  0999 V2000
   35.3860   29.2130   40.2900 C   0  0  0  0  0  0  0  0  0  0  0  0
   35.2670   29.3430   41.3930 H   0  0  0  0  0  0  0  0  0  0  0  0
   34.4460   29.1970   39.7440 H   0  0  0  0  0  0  0  0  0  0  0  0
   37.3880   31.4970   38.0740 C   0  0  0  0  0  0  0  0  0  0  0  0
   36.6040   30.4160   38.5020 C   0  0  0  0  0  0  0  0  0  0  0  0
   36.2170   30.3550   39.8410 C   0  0  0  0  0  0  0  0  0  0  0  0
   36.6260   31.3540   40.6600 N   0  0  0  0  0  0  0  0  0  0  0  0
   37.3850   32.3890   40.2240 C   0  0  0  0  0  0  0  0  0  0  0  0
   37.7610   32.4590   38.9470 N   0  0  0  0  0  0  0  0  0  0  0  0
   37.6150   31.4170   37.0180 H   0  0  0  0  0  0  0  0  0  0  0  0
   36.2720   29.6110   37.8440 H   0  0  0  0  0  0  0  0  0  0  0  0
   37.6780   33.1570   40.9350 H   0  0  0  0  0  0  0  0  0  0  0  0
   36.1790   27.9380   40.1190 C   0  0  0  0  0  0  0  0  0  0  0  0
   35.4890   27.0830   39.9740 H   0  0  0  0  0  0  0  0  0  0  0  0
   36.8940   27.9970   39.2830 H   0  0  0  0  0  0  0  0  0  0  0  0
   39.0450   27.5290   39.4580 Cl  0  0  0  0  0  0  0  0  0  0  0  0
   38.3350   27.5580   41.0720 C   0  0  0  0  0  0  0  0  0  0  0  0
   36.9820   27.7540   41.3560 C   0  0  0  0  0  0  0  0  0  0  0  0
   36.5650   27.7550   42.6720 C   0  0  0  0  0  0  0  0  0  0  0  0
   35.5010   27.9160   42.7780 H   0  0  0  0  0  0  0  0  0  0  0  0
   37.4840   27.5630   43.6800 C   0  0  0  0  0  0  0  0  0  0  0  0
   37.0960   27.5730   44.6910 H   0  0  0  0  0  0  0  0  0  0  0  0
   38.8260   27.3690   43.3860 C   0  0  0  0  0  3  0  0  0  0  0  0
   39.2620   27.3660   42.0760 C   0  0  0  0  0  3  0  0  0  0  0  0
  1  2  1  0  0  0  0
  3  1  1  0  0  0  0
  4  5  2  0  0  0  0
  4  9  1  0  0  0  0
  5  6  1  0  0  0  0
  6  1  1  0  0  0  0
  6  7  2  0  0  0  0
  8  7  1  0  0  0  0
  8 12  1  0  0  0  0
  9  8  2  0  0  0  0
 10  4  1  0  0  0  0
 11  5  1  0  0  0  0
 13  1  1  0  0  0  0
 13 18  1  0  0  0  0
 14 13  1  0  0  0  0
 15 13  1  0  0  0  0
 16 17  1  0  0  0  0
 17 18  2  0  0  0  0
 17 24  1  0  0  0  0
 18 19  1  0  0  0  0
 19 20  1  0  0  0  0
 19 21  2  0  0  0  0
 21 22  1  0  0  0  0
 23 21  1  0  0  0  0
 24 23  2  0  0  0  0
M  END
>  <minimizedAffinity>
-4.49576616

$$$$

 OpenBabel03252508573D

 24 25  0  0  0  0  0  0  0  0999 V2000
   35.7440   30.1250   40.4680 C   0  0  0  0  0  0  0  0  0  0  0  0
   34.9660   30.9140   40.6040 H   0  0  0  0  0  0  0  0  0  0  0  0
   35.3620   29.1100   40.5540 H   0  0  0  0  0  0  0  0  0  0  0  0
   36.4940   29.6570   36.8130 C   0  0  0  0  0  0  0  0  0  0  0  0
   35.9680   29.4500   38.0970 C   0  0  0  0  0  0  0  0  0  0  0  0
   36.3030   30.3450   39.1130 C   0  0  0  0  0  0  0  0  0  0  0  0
   37.1270   31.3730   38.7990 N   0  0  0  0  0  0  0  0  0  0  0  0
   37.6240   31.5540   37.5520 C   0  0  0  0  0  0  0  0  0  0  0  0
   37.3120   30.7070   36.5710 N   0  0  0  0  0  0  0  0  0  0  0  0
   36.1540   28.8920   36.1270 H   0  0  0  0  0  0  0  0  0  0  0  0
   35.3020   28.6230   38.3520 H   0  0  0  0  0  0  0  0  0  0  0  0
   38.2800   32.4010   37.3690 H   0  0  0  0  0  0  0  0  0  0  0  0
   36.8120   30.4320   41.4910 C   0  0  0  0  0  0  0  0  0  0  0  0
   37.6710   30.9330   41.0010 H   0  0  0  0  0  0  0  0  0  0  0  0
   36.4330   31.0500   42.3210 H   0  0  0  0  0  0  0  0  0  0  0  0
   39.5280   30.6530   42.6730 Cl  0  0  0  0  0  0  0  0  0  0  0  0
   38.5110   29.2120   42.6450 C   0  0  0  0  0  0  0  0  0  0  0  0
   37.2340   29.1350   42.0830 C   0  0  0  0  0  0  0  0  0  0  0  0
   36.5490   27.9390   42.1350 C   0  0  0  0  0  0  0  0  0  0  0  0
   35.5730   27.9910   41.6730 H   0  0  0  0  0  0  0  0  0  0  0  0
   37.1310   26.8440   42.7360 C   0  0  0  0  0  0  0  0  0  0  0  0
   36.5430   25.9330   42.7440 H   0  0  0  0  0  0  0  0  0  0  0  0
   38.4000   26.9320   43.2890 C   0  0  0  0  0  3  0  0  0  0  0  0
   39.1000   28.1200   43.2480 C   0  0  0  0  0  3  0  0  0  0  0  0
  1  3  1  0  0  0  0
  1  2  1  0  0  0  0
  1 13  1  0  0  0  0
  4  5  1  0  0  0  0
  5 11  1  0  0  0  0
  5  6  2  0  0  0  0
  6  1  1  0  0  0  0
  7  6  1  0  0  0  0
  8  7  2  0  0  0  0
  9  4  2  0  0  0  0
  9  8  1  0  0  0  0
 10  4  1  0  0  0  0
 12  8  1  0  0  0  0
 13 18  1  0  0  0  0
 13 15  1  0  0  0  0
 14 13  1  0  0  0  0
 17 16  1  0  0  0  0
 17 24  1  0  0  0  0
 18 19  1  0  0  0  0
 18 17  2  0  0  0  0
 19 21  2  0  0  0  0
 20 19  1  0  0  0  0
 21 22  1  0  0  0  0
 21 23  1  0  0  0  0
 24 23  2  0  0  0  0
M  END
>  <minimizedAffinity>
-4.49350595

$$$$

 OpenBabel03252508573D

 24 25  0  0  0  0  0  0  0  0999 V2000
   36.1640   28.2080   41.3380 C   0  0  0  0  0  0  0  0  0  0  0  0
   35.1250   28.5710   41.5240 H   0  0  0  0  0  0  0  0  0  0  0  0
   36.2260   27.4000   40.6140 H   0  0  0  0  0  0  0  0  0  0  0  0
   37.0710   31.7740   40.5640 C   0  0  0  0  0  0  0  0  0  0  0  0
   36.3600   30.6550   41.0230 C   0  0  0  0  0  0  0  0  0  0  0  0
   36.9170   29.3880   40.8500 C   0  0  0  0  0  0  0  0  0  0  0  0
   38.1260   29.3090   40.2430 N   0  0  0  0  0  0  0  0  0  0  0  0
   38.7950   30.4040   39.8080 C   0  0  0  0  0  0  0  0  0  0  0  0
   38.2750   31.6210   39.9660 N   0  0  0  0  0  0  0  0  0  0  0  0
   36.5250   32.6880   40.7600 H   0  0  0  0  0  0  0  0  0  0  0  0
   35.3870   30.7170   41.5140 H   0  0  0  0  0  0  0  0  0  0  0  0
   39.7610   30.2690   39.3280 H   0  0  0  0  0  0  0  0  0  0  0  0
   36.7020   27.8150   42.6940 C   0  0  0  0  0  0  0  0  0  0  0  0
   37.4020   28.5920   43.0620 H   0  0  0  0  0  0  0  0  0  0  0  0
   35.9000   27.6450   43.4310 H   0  0  0  0  0  0  0  0  0  0  0  0
   39.6070   28.1200   43.2340 Cl  0  0  0  0  0  0  0  0  0  0  0  0
   38.7770   26.6340   42.7710 C   0  0  0  0  0  0  0  0  0  0  0  0
   37.4070   26.5170   42.5240 C   0  0  0  0  0  0  0  0  0  0  0  0
   36.8910   25.2880   42.1700 C   0  0  0  0  0  0  0  0  0  0  0  0
   35.8230   25.3090   42.0030 H   0  0  0  0  0  0  0  0  0  0  0  0
   37.7290   24.1990   42.0650 C   0  0  0  0  0  0  0  0  0  0  0  0
   37.2650   23.2620   41.7820 H   0  0  0  0  0  0  0  0  0  0  0  0
   39.0890   24.3270   42.3120 C   0  0  0  0  0  3  0  0  0  0  0  0
   39.6220   25.5490   42.6680 C   0  0  0  0  0  3  0  0  0  0  0  0
  1  2  1  0  0  0  0
  1 13  1  0  0  0  0
  3  1  1  0  0  0  0
  4 10  1  0  0  0  0
  4  5  1  0  0  0  0
  5 11  1  0  0  0  0
  6  5  2  0  0  0  0
  6  1  1  0  0  0  0
  7  6  1  0  0  0  0
  8  9  1  0  0  0  0
  8  7  2  0  0  0  0
  9  4  2  0  0  0  0
 12  8  1  0  0  0  0
 13 14  1  0  0  0  0
 13 15  1  0  0  0  0
 17 16  1  0  0  0  0
 18 13  1  0  0  0  0
 18 17  2  0  0  0  0
 19 18  1  0  0  0  0
 20 19  1  0  0  0  0
 21 19  2  0  0  0  0
 21 23  1  0  0  0  0
 22 21  1  0  0  0  0
 23 24  2  0  0  0  0
 24 17  1  0  0  0  0
M  END
>  <minimizedAffinity>
-4.49199247

$$$$

 OpenBabel03252508573D

 24 25  0  0  0  0  0  0  0  0999 V2000
   37.1910   28.2380   42.9860 C   0  0  0  0  0  0  0  0  0  0  0  0
   36.5890   28.1860   43.9240 H   0  0  0  0  0  0  0  0  0  0  0  0
   37.8050   29.1320   42.9040 H   0  0  0  0  0  0  0  0  0  0  0  0
   38.4550   24.7720   42.2640 C   0  0  0  0  0  0  0  0  0  0  0  0
   37.6440   25.9160   42.2590 C   0  0  0  0  0  0  0  0  0  0  0  0
   38.0490   27.0300   42.9950 C   0  0  0  0  0  0  0  0  0  0  0  0
   39.2150   26.9420   43.6790 N   0  0  0  0  0  0  0  0  0  0  0  0
   39.9830   25.8250   43.6690 C   0  0  0  0  0  0  0  0  0  0  0  0
   39.6080   24.7540   42.9710 N   0  0  0  0  0  0  0  0  0  0  0  0
   38.0220   23.9870   41.6560 H   0  0  0  0  0  0  0  0  0  0  0  0
   36.7050   25.9900   41.7070 H   0  0  0  0  0  0  0  0  0  0  0  0
   40.9070   25.8220   44.2410 H   0  0  0  0  0  0  0  0  0  0  0  0
   36.1910   28.1170   41.8590 C   0  0  0  0  0  0  0  0  0  0  0  0
   36.3480   27.1620   41.3180 H   0  0  0  0  0  0  0  0  0  0  0  0
   35.1500   28.1880   42.2130 H   0  0  0  0  0  0  0  0  0  0  0  0
   36.1950   27.2370   39.0220 Cl  0  0  0  0  0  0  0  0  0  0  0  0
   36.4230   28.8850   39.6100 C   0  0  0  0  0  0  0  0  0  0  0  0
   36.4150   29.2720   40.9520 C   0  0  0  0  0  0  0  0  0  0  0  0
   36.6040   30.6020   41.2680 C   0  0  0  0  0  0  0  0  0  0  0  0
   36.5790   30.7910   42.3320 H   0  0  0  0  0  0  0  0  0  0  0  0
   36.7990   31.5220   40.2610 C   0  0  0  0  0  0  0  0  0  0  0  0
   36.9430   32.5500   40.5730 H   0  0  0  0  0  0  0  0  0  0  0  0
   36.8050   31.1260   38.9320 C   0  0  0  0  0  3  0  0  0  0  0  0
   36.6160   29.8000   38.5960 C   0  0  0  0  0  3  0  0  0  0  0  0
  1  6  1  0  0  0  0
  1  2  1  0  0  0  0
  3  1  1  0  0  0  0
  4  9  1  0  0  0  0
  5  4  2  0  0  0  0
  5  6  1  0  0  0  0
  6  7  2  0  0  0  0
  8  7  1  0  0  0  0
  8 12  1  0  0  0  0
  9  8  2  0  0  0  0
 10  4  1  0  0  0  0
 11  5  1  0  0  0  0
 13 15  1  0  0  0  0
 13  1  1  0  0  0  0
 14 13  1  0  0  0  0
 16 17  1  0  0  0  0
 17 18  1  0  0  0  0
 18 19  2  0  0  0  0
 18 13  1  0  0  0  0
 19 20  1  0  0  0  0
 21 22  1  0  0  0  0
 21 19  1  0  0  0  0
 23 21  2  0  0  0  0
 24 23  1  0  0  0  0
 24 17  2  0  0  0  0
M  END
>  <minimizedAffinity>
-4.46216249

$$$$

 OpenBabel03252508573D

 24 25  0  0  0  0  0  0  0  0999 V2000
   39.4890   29.6930   42.0430 C   0  0  0  0  0  0  0  0  0  0  0  0
   39.6850   28.9720   41.2140 H   0  0  0  0  0  0  0  0  0  0  0  0
   40.3810   29.9870   42.5920 H   0  0  0  0  0  0  0  0  0  0  0  0
   36.9830   31.8900   40.3030 C   0  0  0  0  0  0  0  0  0  0  0  0
   37.5720   30.7700   40.9070 C   0  0  0  0  0  0  0  0  0  0  0  0
   38.8710   30.8790   41.4030 C   0  0  0  0  0  0  0  0  0  0  0  0
   39.4960   32.0730   41.2720 N   0  0  0  0  0  0  0  0  0  0  0  0
   38.9080   33.1430   40.6840 C   0  0  0  0  0  0  0  0  0  0  0  0
   37.6680   33.0530   40.2050 N   0  0  0  0  0  0  0  0  0  0  0  0
   35.9800   31.6660   39.9630 H   0  0  0  0  0  0  0  0  0  0  0  0
   37.0690   29.8070   41.0150 H   0  0  0  0  0  0  0  0  0  0  0  0
   39.4680   34.0710   40.6110 H   0  0  0  0  0  0  0  0  0  0  0  0
   38.4600   29.0240   42.9240 C   0  0  0  0  0  0  0  0  0  0  0  0
   38.4750   29.4800   43.9340 H   0  0  0  0  0  0  0  0  0  0  0  0
   37.4450   29.0750   42.4980 H   0  0  0  0  0  0  0  0  0  0  0  0
   36.5740   27.3870   41.3170 Cl  0  0  0  0  0  0  0  0  0  0  0  0
   37.9460   26.7910   42.2500 C   0  0  0  0  0  0  0  0  0  0  0  0
   38.8210   27.5840   42.9980 C   0  0  0  0  0  0  0  0  0  0  0  0
   39.8570   26.9800   43.6800 C   0  0  0  0  0  0  0  0  0  0  0  0
   40.4720   27.6850   44.2240 H   0  0  0  0  0  0  0  0  0  0  0  0
   40.0130   25.6130   43.6150 C   0  0  0  0  0  0  0  0  0  0  0  0
   40.8450   25.1990   44.1730 H   0  0  0  0  0  0  0  0  0  0  0  0
   39.1390   24.8360   42.8700 C   0  0  0  0  0  3  0  0  0  0  0  0
   38.0970   25.4220   42.1800 C   0  0  0  0  0  3  0  0  0  0  0  0
  1  3  1  0  0  0  0
  1 13  1  0  0  0  0
  2  1  1  0  0  0  0
  4  5  1  0  0  0  0
  5 11  1  0  0  0  0
  5  6  2  0  0  0  0
  6  1  1  0  0  0  0
  7  6  1  0  0  0  0
  8  7  2  0  0  0  0
  9  4  2  0  0  0  0
  9  8  1  0  0  0  0
 10  4  1  0  0  0  0
 12  8  1  0  0  0  0
 13 18  1  0  0  0  0
 13 14  1  0  0  0  0
 15 13  1  0  0  0  0
 16 17  1  0  0  0  0
 17 18  1  0  0  0  0
 18 19  2  0  0  0  0
 19 20  1  0  0  0  0
 21 19  1  0  0  0  0
 21 22  1  0  0  0  0
 23 21  2  0  0  0  0
 24 17  2  0  0  0  0
 24 23  1  0  0  0  0
M  END
>  <minimizedAffinity>
-4.41385698

$$$$
