
 OpenBabel03252501363D

 25 26  0  0  0  0  0  0  0  0999 V2000
   39.4290   32.0660   38.1420 C   0  0  0  0  0  0  0  0  0  0  0  0
   40.1960   31.6760   39.0680 O   0  0  0  0  0  0  0  0  0  0  0  0
   40.1020   32.1750   36.8810 N   0  0  0  0  0  0  0  0  0  0  0  0
   39.6100   32.4750   36.0310 H   0  0  0  0  0  0  0  0  0  0  0  0
   41.4970   31.7980   37.0700 C   0  0  0  0  0  0  0  0  0  0  0  0
   42.5370   32.6920   37.1050 C   0  0  0  0  0  0  0  0  0  0  0  0
   43.8020   32.1380   37.2990 C   0  0  0  0  0  0  0  0  0  0  0  0
   43.9140   30.8090   37.4340 N   0  0  0  0  0  0  0  0  0  0  0  0
   42.8530   29.9690   37.3920 C   0  0  0  0  0  0  0  0  0  0  0  0
   41.6100   30.4610   37.2060 N   0  0  0  0  0  0  0  0  0  0  0  0
   44.6300   32.8350   37.3290 H   0  0  0  0  0  0  0  0  0  0  0  0
   43.0550   28.9080   37.5130 H   0  0  0  0  0  0  0  0  0  0  0  0
   42.2430   34.0560   36.9460 N   0  0  0  0  0  0  0  0  0  0  0  0
   42.2310   34.1290   35.9010 H   0  0  0  0  0  0  0  0  0  0  0  0
   42.0740   34.8280   37.6360 H   0  0  0  0  0  0  0  0  0  0  0  0
   38.0650   32.3770   38.2620 O   0  0  0  0  0  0  0  0  0  0  0  0
   36.9720   30.2080   36.4930 Cl  0  0  0  0  0  0  0  0  0  0  0  0
   36.6560   30.4140   38.1940 C   0  0  0  0  0  0  0  0  0  0  0  0
   37.2250   31.4600   38.8920 C   0  0  0  0  0  0  0  0  0  0  0  0
   37.0320   31.7010   40.2380 C   0  0  0  0  0  0  0  0  0  0  0  0
   37.4920   32.5290   40.7600 H   0  0  0  0  0  0  0  0  0  0  0  0
   36.2080   30.8370   40.9590 C   0  0  0  0  0  0  0  0  0  0  0  0
   36.0260   30.9830   42.0090 H   0  0  0  0  0  0  0  0  0  0  0  0
   35.6330   29.7900   40.2800 C   0  0  0  0  0  3  0  0  0  0  0  0
   35.8320   29.5540   38.9230 C   0  0  0  0  0  3  0  0  0  0  0  0
  1 16  1  0  0  0  0
  1  2  2  0  0  0  0
  3  5  1  0  0  0  0
  3  1  1  0  0  0  0
  4  3  1  0  0  0  0
  5  6  2  0  0  0  0
  5 10  1  0  0  0  0
  6  7  1  0  0  0  0
  7 11  1  0  0  0  0
  7  8  2  0  0  0  0
  9  8  1  0  0  0  0
  9 12  1  0  0  0  0
 10  9  2  0  0  0  0
 13  6  1  0  0  0  0
 13 15  1  0  0  0  0
 14 13  1  0  0  0  0
 16 19  1  0  0  0  0
 17 18  1  0  0  0  0
 18 19  2  0  0  0  0
 18 25  1  0  0  0  0
 19 20  1  0  0  0  0
 20 21  1  0  0  0  0
 20 22  2  0  0  0  0
 22 23  1  0  0  0  0
 24 22  1  0  0  0  0
 25 24  2  0  0  0  0
M  END
>  <minimizedAffinity>
-5.43362808

$$$$

 OpenBabel03252501363D

 25 26  0  0  0  0  0  0  0  0999 V2000
   37.4110   28.1240   42.1530 C   0  0  0  0  0  0  0  0  0  0  0  0
   37.8280   28.2520   40.9660 O   0  0  0  0  0  0  0  0  0  0  0  0
   37.2650   29.3820   42.8220 N   0  0  0  0  0  0  0  0  0  0  0  0
   36.9310   29.4430   43.7910 H   0  0  0  0  0  0  0  0  0  0  0  0
   37.6600   30.4420   41.9020 C   0  0  0  0  0  0  0  0  0  0  0  0
   36.8040   31.0540   41.0210 C   0  0  0  0  0  0  0  0  0  0  0  0
   37.3700   32.0500   40.2250 C   0  0  0  0  0  0  0  0  0  0  0  0
   38.6730   32.3330   40.3680 N   0  0  0  0  0  0  0  0  0  0  0  0
   39.4740   31.6970   41.2550 C   0  0  0  0  0  0  0  0  0  0  0  0
   38.9700   30.7280   42.0460 N   0  0  0  0  0  0  0  0  0  0  0  0
   36.7030   32.5390   39.5270 H   0  0  0  0  0  0  0  0  0  0  0  0
   40.5160   32.0060   41.2900 H   0  0  0  0  0  0  0  0  0  0  0  0
   35.4650   30.6340   41.0000 N   0  0  0  0  0  0  0  0  0  0  0  0
   35.5300   29.8160   40.3490 H   0  0  0  0  0  0  0  0  0  0  0  0
   34.6030   30.9950   41.4770 H   0  0  0  0  0  0  0  0  0  0  0  0
   37.1070   26.9180   42.8060 O   0  0  0  0  0  0  0  0  0  0  0  0
   39.8950   26.2150   43.6790 Cl  0  0  0  0  0  0  0  0  0  0  0  0
   38.8830   25.2910   42.6030 C   0  0  0  0  0  0  0  0  0  0  0  0
   37.6140   25.7300   42.2820 C   0  0  0  0  0  0  0  0  0  0  0  0
   36.7430   25.0660   41.4410 C   0  0  0  0  0  0  0  0  0  0  0  0
   35.7540   25.4340   41.2080 H   0  0  0  0  0  0  0  0  0  0  0  0
   37.1580   23.8640   40.8660 C   0  0  0  0  0  0  0  0  0  0  0  0
   36.5160   23.3100   40.2040 H   0  0  0  0  0  0  0  0  0  0  0  0
   38.4180   23.4120   41.1740 C   0  0  0  0  0  3  0  0  0  0  0  0
   39.2890   24.0880   42.0230 C   0  0  0  0  0  3  0  0  0  0  0  0
  1 16  1  0  0  0  0
  1  3  1  0  0  0  0
  2  1  2  0  0  0  0
  3  4  1  0  0  0  0
  5 10  1  0  0  0  0
  5  3  1  0  0  0  0
  6  5  2  0  0  0  0
  7  8  2  0  0  0  0
  7  6  1  0  0  0  0
  8  9  1  0  0  0  0
  9 12  1  0  0  0  0
  9 10  2  0  0  0  0
 11  7  1  0  0  0  0
 13  6  1  0  0  0  0
 13 15  1  0  0  0  0
 14 13  1  0  0  0  0
 18 17  1  0  0  0  0
 19 18  1  0  0  0  0
 19 16  1  0  0  0  0
 20 19  2  0  0  0  0
 21 20  1  0  0  0  0
 22 24  2  0  0  0  0
 22 20  1  0  0  0  0
 23 22  1  0  0  0  0
 24 25  1  0  0  0  0
 25 18  2  0  0  0  0
M  END
>  <minimizedAffinity>
-5.37738323

$$$$

 OpenBabel03252501363D

 25 26  0  0  0  0  0  0  0  0999 V2000
   38.1210   28.9340   42.4870 C   0  0  0  0  0  0  0  0  0  0  0  0
   38.5930   30.0790   42.7400 O   0  0  0  0  0  0  0  0  0  0  0  0
   37.5960   28.8390   41.1570 N   0  0  0  0  0  0  0  0  0  0  0  0
   37.1830   27.9700   40.8010 H   0  0  0  0  0  0  0  0  0  0  0  0
   37.7720   30.1290   40.4990 C   0  0  0  0  0  0  0  0  0  0  0  0
   36.8720   31.1620   40.5810 C   0  0  0  0  0  0  0  0  0  0  0  0
   37.2190   32.3190   39.8850 C   0  0  0  0  0  0  0  0  0  0  0  0
   38.3730   32.3450   39.2030 N   0  0  0  0  0  0  0  0  0  0  0  0
   39.2270   31.2950   39.1550 C   0  0  0  0  0  0  0  0  0  0  0  0
   38.9320   30.1550   39.8140 N   0  0  0  0  0  0  0  0  0  0  0  0
   36.5160   33.1410   39.9430 H   0  0  0  0  0  0  0  0  0  0  0  0
   40.1360   31.4220   38.5730 H   0  0  0  0  0  0  0  0  0  0  0  0
   35.7070   30.9670   41.3410 N   0  0  0  0  0  0  0  0  0  0  0  0
   35.0910   30.5020   40.6320 H   0  0  0  0  0  0  0  0  0  0  0  0
   35.4640   31.1990   42.3350 H   0  0  0  0  0  0  0  0  0  0  0  0
   38.0790   27.8350   43.3600 O   0  0  0  0  0  0  0  0  0  0  0  0
   37.0460   25.3590   42.0070 Cl  0  0  0  0  0  0  0  0  0  0  0  0
   38.6690   25.6240   42.5830 C   0  0  0  0  0  0  0  0  0  0  0  0
   39.0130   26.8150   43.1910 C   0  0  0  0  0  0  0  0  0  0  0  0
   40.2710   27.1120   43.6780 C   0  0  0  0  0  0  0  0  0  0  0  0
   40.5120   28.0540   44.1500 H   0  0  0  0  0  0  0  0  0  0  0  0
   41.2770   26.1540   43.5550 C   0  0  0  0  0  0  0  0  0  0  0  0
   42.2720   26.3380   43.9190 H   0  0  0  0  0  0  0  0  0  0  0  0
   40.9530   24.9620   42.9530 C   0  0  0  0  0  3  0  0  0  0  0  0
   39.6820   24.6700   42.4660 C   0  0  0  0  0  3  0  0  0  0  0  0
  1  2  2  0  0  0  0
  1 16  1  0  0  0  0
  3  1  1  0  0  0  0
  4  3  1  0  0  0  0
  5  6  1  0  0  0  0
  5  3  1  0  0  0  0
  6 13  1  0  0  0  0
  7 11  1  0  0  0  0
  7  6  2  0  0  0  0
  8  7  1  0  0  0  0
  9  8  2  0  0  0  0
  9 10  1  0  0  0  0
 10  5  2  0  0  0  0
 12  9  1  0  0  0  0
 13 15  1  0  0  0  0
 14 13  1  0  0  0  0
 17 18  1  0  0  0  0
 18 19  1  0  0  0  0
 19 16  1  0  0  0  0
 19 20  2  0  0  0  0
 20 21  1  0  0  0  0
 22 20  1  0  0  0  0
 22 23  1  0  0  0  0
 24 22  2  0  0  0  0
 25 18  2  0  0  0  0
 25 24  1  0  0  0  0
M  END
>  <minimizedAffinity>
-5.33295679

$$$$

 OpenBabel03252501363D

 25 26  0  0  0  0  0  0  0  0999 V2000
   37.5060   31.1350   40.7800 C   0  0  0  0  0  0  0  0  0  0  0  0
   37.3420   31.7280   39.6770 O   0  0  0  0  0  0  0  0  0  0  0  0
   38.8270   31.3090   41.3060 N   0  0  0  0  0  0  0  0  0  0  0  0
   39.1120   30.8910   42.2000 H   0  0  0  0  0  0  0  0  0  0  0  0
   39.5880   32.1340   40.3750 C   0  0  0  0  0  0  0  0  0  0  0  0
   39.5980   33.5060   40.3950 C   0  0  0  0  0  0  0  0  0  0  0  0
   40.3930   34.1150   39.4240 C   0  0  0  0  0  0  0  0  0  0  0  0
   41.0730   33.3440   38.5630 N   0  0  0  0  0  0  0  0  0  0  0  0
   41.0270   31.9910   38.5880 C   0  0  0  0  0  0  0  0  0  0  0  0
   40.2720   31.3580   39.5100 N   0  0  0  0  0  0  0  0  0  0  0  0
   40.4080   35.1980   39.4300 H   0  0  0  0  0  0  0  0  0  0  0  0
   41.6180   31.4620   37.8450 H   0  0  0  0  0  0  0  0  0  0  0  0
   38.8260   34.1600   41.3670 N   0  0  0  0  0  0  0  0  0  0  0  0
   37.8940   34.1850   40.8880 H   0  0  0  0  0  0  0  0  0  0  0  0
   39.0580   34.5380   42.3180 H   0  0  0  0  0  0  0  0  0  0  0  0
   36.5490   30.3720   41.4690 O   0  0  0  0  0  0  0  0  0  0  0  0
   35.9220   28.3110   39.3740 Cl  0  0  0  0  0  0  0  0  0  0  0  0
   36.6280   28.0140   40.9390 C   0  0  0  0  0  0  0  0  0  0  0  0
   36.8650   29.0580   41.8120 C   0  0  0  0  0  0  0  0  0  0  0  0
   37.4200   28.9190   43.0690 C   0  0  0  0  0  0  0  0  0  0  0  0
   37.5940   29.7550   43.7310 H   0  0  0  0  0  0  0  0  0  0  0  0
   37.7720   27.6410   43.5040 C   0  0  0  0  0  0  0  0  0  0  0  0
   38.2070   27.4810   44.4750 H   0  0  0  0  0  0  0  0  0  0  0  0
   37.5430   26.5900   42.6490 C   0  0  0  0  0  3  0  0  0  0  0  0
   36.9830   26.7400   41.3840 C   0  0  0  0  0  3  0  0  0  0  0  0
  1  3  1  0  0  0  0
  1 16  1  0  0  0  0
  2  1  2  0  0  0  0
  3  4  1  0  0  0  0
  5  6  1  0  0  0  0
  5  3  1  0  0  0  0
  6 13  1  0  0  0  0
  7 11  1  0  0  0  0
  7  6  2  0  0  0  0
  8  9  2  0  0  0  0
  8  7  1  0  0  0  0
  9 10  1  0  0  0  0
 10  5  2  0  0  0  0
 12  9  1  0  0  0  0
 13 15  1  0  0  0  0
 14 13  1  0  0  0  0
 16 19  1  0  0  0  0
 17 18  1  0  0  0  0
 18 25  2  0  0  0  0
 18 19  1  0  0  0  0
 19 20  2  0  0  0  0
 20 22  1  0  0  0  0
 20 21  1  0  0  0  0
 22 23  1  0  0  0  0
 24 22  2  0  0  0  0
 25 24  1  0  0  0  0
M  END
>  <minimizedAffinity>
-5.15293741

$$$$

 OpenBabel03252501363D

 25 26  0  0  0  0  0  0  0  0999 V2000
   38.7030   31.5250   40.2650 C   0  0  0  0  0  0  0  0  0  0  0  0
   39.4750   32.5010   40.4890 O   0  0  0  0  0  0  0  0  0  0  0  0
   39.1600   30.7010   39.1860 N   0  0  0  0  0  0  0  0  0  0  0  0
   38.6410   29.8660   38.8880 H   0  0  0  0  0  0  0  0  0  0  0  0
   40.4000   31.2660   38.6670 C   0  0  0  0  0  0  0  0  0  0  0  0
   40.4780   32.0410   37.5380 C   0  0  0  0  0  0  0  0  0  0  0  0
   41.7550   32.4920   37.2040 C   0  0  0  0  0  0  0  0  0  0  0  0
   42.7890   32.1490   37.9860 N   0  0  0  0  0  0  0  0  0  0  0  0
   42.6560   31.3800   39.0930 C   0  0  0  0  0  0  0  0  0  0  0  0
   41.4390   30.9220   39.4530 N   0  0  0  0  0  0  0  0  0  0  0  0
   41.8280   33.1040   36.3140 H   0  0  0  0  0  0  0  0  0  0  0  0
   43.5600   31.1620   39.6550 H   0  0  0  0  0  0  0  0  0  0  0  0
   39.2930   32.3050   36.8320 N   0  0  0  0  0  0  0  0  0  0  0  0
   39.2340   31.4510   36.2280 H   0  0  0  0  0  0  0  0  0  0  0  0
   38.6180   33.1080   36.8590 H   0  0  0  0  0  0  0  0  0  0  0  0
   37.5170   31.2230   40.9540 O   0  0  0  0  0  0  0  0  0  0  0  0
   35.2140   29.4750   40.1360 Cl  0  0  0  0  0  0  0  0  0  0  0  0
   36.4170   29.1060   41.3420 C   0  0  0  0  0  0  0  0  0  0  0  0
   37.4280   30.0030   41.6230 C   0  0  0  0  0  0  0  0  0  0  0  0
   38.4210   29.7960   42.5590 C   0  0  0  0  0  0  0  0  0  0  0  0
   39.2020   30.5180   42.7580 H   0  0  0  0  0  0  0  0  0  0  0  0
   38.4200   28.6030   43.2820 C   0  0  0  0  0  0  0  0  0  0  0  0
   39.1710   28.3960   44.0220 H   0  0  0  0  0  0  0  0  0  0  0  0
   37.4200   27.6980   43.0150 C   0  0  0  0  0  3  0  0  0  0  0  0
   36.4220   27.9150   42.0700 C   0  0  0  0  0  3  0  0  0  0  0  0
  1  2  2  0  0  0  0
  1 16  1  0  0  0  0
  3  1  1  0  0  0  0
  4  3  1  0  0  0  0
  5  3  1  0  0  0  0
  5 10  1  0  0  0  0
  6  5  2  0  0  0  0
  7  6  1  0  0  0  0
  7  8  2  0  0  0  0
  8  9  1  0  0  0  0
  9 10  2  0  0  0  0
  9 12  1  0  0  0  0
 11  7  1  0  0  0  0
 13 15  1  0  0  0  0
 13  6  1  0  0  0  0
 14 13  1  0  0  0  0
 16 19  1  0  0  0  0
 17 18  1  0  0  0  0
 18 19  2  0  0  0  0
 18 25  1  0  0  0  0
 19 20  1  0  0  0  0
 20 21  1  0  0  0  0
 20 22  2  0  0  0  0
 22 23  1  0  0  0  0
 24 22  1  0  0  0  0
 25 24  2  0  0  0  0
M  END
>  <minimizedAffinity>
-5.06599331

$$$$

 OpenBabel03252501363D

 25 26  0  0  0  0  0  0  0  0999 V2000
   39.3140   32.2260   40.2010 C   0  0  0  0  0  0  0  0  0  0  0  0
   40.2220   31.3590   40.0550 O   0  0  0  0  0  0  0  0  0  0  0  0
   39.5880   33.4330   39.4780 N   0  0  0  0  0  0  0  0  0  0  0  0
   38.9400   34.2300   39.4930 H   0  0  0  0  0  0  0  0  0  0  0  0
   40.8640   33.2780   38.7890 C   0  0  0  0  0  0  0  0  0  0  0  0
   41.0000   32.7350   37.5370 C   0  0  0  0  0  0  0  0  0  0  0  0
   42.3050   32.6760   37.0450 C   0  0  0  0  0  0  0  0  0  0  0  0
   43.3060   33.1400   37.8060 N   0  0  0  0  0  0  0  0  0  0  0  0
   43.1160   33.6680   39.0380 C   0  0  0  0  0  0  0  0  0  0  0  0
   41.8710   33.7450   39.5540 N   0  0  0  0  0  0  0  0  0  0  0  0
   42.4230   32.2480   36.0580 H   0  0  0  0  0  0  0  0  0  0  0  0
   43.9980   34.0160   39.5690 H   0  0  0  0  0  0  0  0  0  0  0  0
   39.8420   32.2950   36.8760 N   0  0  0  0  0  0  0  0  0  0  0  0
   39.7490   31.3290   37.2720 H   0  0  0  0  0  0  0  0  0  0  0  0
   39.2100   32.7550   36.1770 H   0  0  0  0  0  0  0  0  0  0  0  0
   38.1460   32.0930   40.9680 O   0  0  0  0  0  0  0  0  0  0  0  0
   38.8320   29.9800   42.9910 Cl  0  0  0  0  0  0  0  0  0  0  0  0
   37.6300   29.8600   41.7360 C   0  0  0  0  0  0  0  0  0  0  0  0
   37.4140   30.9110   40.8670 C   0  0  0  0  0  0  0  0  0  0  0  0
   36.4850   30.9060   39.8460 C   0  0  0  0  0  0  0  0  0  0  0  0
   36.3370   31.7450   39.1800 H   0  0  0  0  0  0  0  0  0  0  0  0
   35.7000   29.7670   39.6630 C   0  0  0  0  0  0  0  0  0  0  0  0
   34.9640   29.7140   38.8810 H   0  0  0  0  0  0  0  0  0  0  0  0
   35.9020   28.7100   40.5180 C   0  0  0  0  0  3  0  0  0  0  0  0
   36.8410   28.7240   41.5450 C   0  0  0  0  0  3  0  0  0  0  0  0
  1 16  1  0  0  0  0
  2  1  2  0  0  0  0
  3  4  1  0  0  0  0
  3  1  1  0  0  0  0
  5  3  1  0  0  0  0
  5 10  1  0  0  0  0
  6  5  2  0  0  0  0
  7  6  1  0  0  0  0
  7  8  2  0  0  0  0
  8  9  1  0  0  0  0
  9 10  2  0  0  0  0
  9 12  1  0  0  0  0
 11  7  1  0  0  0  0
 13 14  1  0  0  0  0
 13  6  1  0  0  0  0
 15 13  1  0  0  0  0
 18 17  1  0  0  0  0
 19 16  1  0  0  0  0
 19 18  2  0  0  0  0
 20 19  1  0  0  0  0
 21 20  1  0  0  0  0
 22 20  2  0  0  0  0
 22 24  1  0  0  0  0
 23 22  1  0  0  0  0
 24 25  2  0  0  0  0
 25 18  1  0  0  0  0
M  END
>  <minimizedAffinity>
-5.0631423

$$$$

 OpenBabel03252501363D

 25 26  0  0  0  0  0  0  0  0999 V2000
   37.2980   28.5180   41.4270 C   0  0  0  0  0  0  0  0  0  0  0  0
   37.9870   28.6480   40.3750 O   0  0  0  0  0  0  0  0  0  0  0  0
   36.9520   29.7780   42.0150 N   0  0  0  0  0  0  0  0  0  0  0  0
   36.3900   29.8370   42.8720 H   0  0  0  0  0  0  0  0  0  0  0  0
   37.5220   30.8410   41.1960 C   0  0  0  0  0  0  0  0  0  0  0  0
   38.7950   31.3300   41.3500 C   0  0  0  0  0  0  0  0  0  0  0  0
   39.1600   32.3460   40.4660 C   0  0  0  0  0  0  0  0  0  0  0  0
   38.2710   32.7640   39.5540 N   0  0  0  0  0  0  0  0  0  0  0  0
   37.0250   32.2450   39.4450 C   0  0  0  0  0  0  0  0  0  0  0  0
   36.6280   31.2610   40.2780 N   0  0  0  0  0  0  0  0  0  0  0  0
   40.1630   32.7390   40.5790 H   0  0  0  0  0  0  0  0  0  0  0  0
   36.3830   32.6570   38.6700 H   0  0  0  0  0  0  0  0  0  0  0  0
   39.6000   30.7780   42.3590 N   0  0  0  0  0  0  0  0  0  0  0  0
   39.2930   31.3500   43.1830 H   0  0  0  0  0  0  0  0  0  0  0  0
   40.3180   30.0140   42.3530 H   0  0  0  0  0  0  0  0  0  0  0  0
   36.8860   27.3100   42.0120 O   0  0  0  0  0  0  0  0  0  0  0  0
   36.5530   24.5470   40.8800 Cl  0  0  0  0  0  0  0  0  0  0  0  0
   37.8240   25.0830   41.9440 C   0  0  0  0  0  0  0  0  0  0  0  0
   37.8590   26.3880   42.3940 C   0  0  0  0  0  0  0  0  0  0  0  0
   38.8250   26.9010   43.2370 C   0  0  0  0  0  0  0  0  0  0  0  0
   38.8270   27.9290   43.5730 H   0  0  0  0  0  0  0  0  0  0  0  0
   39.8450   26.0560   43.6750 C   0  0  0  0  0  0  0  0  0  0  0  0
   40.6200   26.4090   44.3320 H   0  0  0  0  0  0  0  0  0  0  0  0
   39.8260   24.7540   43.2380 C   0  0  0  0  0  3  0  0  0  0  0  0
   38.8480   24.2450   42.3880 C   0  0  0  0  0  3  0  0  0  0  0  0
  1 16  1  0  0  0  0
  1  3  1  0  0  0  0
  2  1  2  0  0  0  0
  3  4  1  0  0  0  0
  5  6  1  0  0  0  0
  5  3  1  0  0  0  0
  6 13  1  0  0  0  0
  7 11  1  0  0  0  0
  7  6  2  0  0  0  0
  8  7  1  0  0  0  0
  9  8  2  0  0  0  0
  9 10  1  0  0  0  0
 10  5  2  0  0  0  0
 12  9  1  0  0  0  0
 13 14  1  0  0  0  0
 15 13  1  0  0  0  0
 16 19  1  0  0  0  0
 17 18  1  0  0  0  0
 18 25  2  0  0  0  0
 18 19  1  0  0  0  0
 19 20  2  0  0  0  0
 20 21  1  0  0  0  0
 20 22  1  0  0  0  0
 22 23  1  0  0  0  0
 24 22  2  0  0  0  0
 25 24  1  0  0  0  0
M  END
>  <minimizedAffinity>
-4.98750973

$$$$

 OpenBabel03252501363D

 25 26  0  0  0  0  0  0  0  0999 V2000
   37.8230   30.8070   40.6820 C   0  0  0  0  0  0  0  0  0  0  0  0
   39.0600   30.5980   40.8320 O   0  0  0  0  0  0  0  0  0  0  0  0
   37.5540   31.9760   39.8990 N   0  0  0  0  0  0  0  0  0  0  0  0
   36.5950   32.2740   39.6860 H   0  0  0  0  0  0  0  0  0  0  0  0
   38.8260   32.5770   39.5170 C   0  0  0  0  0  0  0  0  0  0  0  0
   39.4110   33.6260   40.1800 C   0  0  0  0  0  0  0  0  0  0  0  0
   40.6330   34.0590   39.6640 C   0  0  0  0  0  0  0  0  0  0  0  0
   41.1380   33.4400   38.5870 N   0  0  0  0  0  0  0  0  0  0  0  0
   40.5180   32.4070   37.9700 C   0  0  0  0  0  0  0  0  0  0  0  0
   39.3350   31.9540   38.4350 N   0  0  0  0  0  0  0  0  0  0  0  0
   41.1030   34.8870   40.1800 H   0  0  0  0  0  0  0  0  0  0  0  0
   41.0160   31.9770   37.1050 H   0  0  0  0  0  0  0  0  0  0  0  0
   38.7440   34.1600   41.2940 N   0  0  0  0  0  0  0  0  0  0  0  0
   38.0940   34.8340   40.8240 H   0  0  0  0  0  0  0  0  0  0  0  0
   38.8280   33.9760   42.3240 H   0  0  0  0  0  0  0  0  0  0  0  0
   36.7750   30.0260   41.1970 O   0  0  0  0  0  0  0  0  0  0  0  0
   37.6540   28.5780   43.6800 Cl  0  0  0  0  0  0  0  0  0  0  0  0
   37.2490   27.8540   42.1470 C   0  0  0  0  0  0  0  0  0  0  0  0
   36.8590   28.6390   41.0810 C   0  0  0  0  0  0  0  0  0  0  0  0
   36.5200   28.1550   39.8330 C   0  0  0  0  0  0  0  0  0  0  0  0
   36.2170   28.7940   39.0150 H   0  0  0  0  0  0  0  0  0  0  0  0
   36.5710   26.7770   39.6150 C   0  0  0  0  0  0  0  0  0  0  0  0
   36.3180   26.3520   38.6610 H   0  0  0  0  0  0  0  0  0  0  0  0
   36.9580   25.9810   40.6660 C   0  0  0  0  0  3  0  0  0  0  0  0
   37.2980   26.4770   41.9200 C   0  0  0  0  0  3  0  0  0  0  0  0
  1  2  2  0  0  0  0
  1 16  1  0  0  0  0
  3  1  1  0  0  0  0
  4  3  1  0  0  0  0
  5  3  1  0  0  0  0
  5  6  1  0  0  0  0
  6 13  1  0  0  0  0
  7 11  1  0  0  0  0
  7  6  2  0  0  0  0
  8  7  1  0  0  0  0
  9 10  1  0  0  0  0
  9  8  2  0  0  0  0
 10  5  2  0  0  0  0
 12  9  1  0  0  0  0
 13 15  1  0  0  0  0
 14 13  1  0  0  0  0
 18 17  1  0  0  0  0
 19 16  1  0  0  0  0
 19 18  2  0  0  0  0
 20 19  1  0  0  0  0
 21 20  1  0  0  0  0
 22 20  2  0  0  0  0
 22 24  1  0  0  0  0
 23 22  1  0  0  0  0
 24 25  2  0  0  0  0
 25 18  1  0  0  0  0
M  END
>  <minimizedAffinity>
-4.97646332

$$$$

 OpenBabel03252501363D

 25 26  0  0  0  0  0  0  0  0999 V2000
   38.9360   28.8410   42.6710 C   0  0  0  0  0  0  0  0  0  0  0  0
   38.2160   29.7460   43.1810 O   0  0  0  0  0  0  0  0  0  0  0  0
   39.4340   29.2000   41.3760 N   0  0  0  0  0  0  0  0  0  0  0  0
   40.0380   28.5690   40.8360 H   0  0  0  0  0  0  0  0  0  0  0  0
   38.9360   30.5290   41.0440 C   0  0  0  0  0  0  0  0  0  0  0  0
   39.5470   31.6970   41.4260 C   0  0  0  0  0  0  0  0  0  0  0  0
   38.9200   32.8700   41.0070 C   0  0  0  0  0  0  0  0  0  0  0  0
   37.7960   32.7810   40.2800 N   0  0  0  0  0  0  0  0  0  0  0  0
   37.2340   31.6010   39.9290 C   0  0  0  0  0  0  0  0  0  0  0  0
   37.8070   30.4410   40.3130 N   0  0  0  0  0  0  0  0  0  0  0  0
   39.3940   33.7970   41.3030 H   0  0  0  0  0  0  0  0  0  0  0  0
   36.3230   31.6420   39.3380 H   0  0  0  0  0  0  0  0  0  0  0  0
   40.7230   31.6100   42.1890 N   0  0  0  0  0  0  0  0  0  0  0  0
   40.3210   31.5190   43.1520 H   0  0  0  0  0  0  0  0  0  0  0  0
   41.7380   31.6260   41.9270 H   0  0  0  0  0  0  0  0  0  0  0  0
   39.2510   27.6000   43.2470 O   0  0  0  0  0  0  0  0  0  0  0  0
   36.2880   27.2020   43.5470 Cl  0  0  0  0  0  0  0  0  0  0  0  0
   37.3970   26.1400   42.7230 C   0  0  0  0  0  0  0  0  0  0  0  0
   38.7420   26.4430   42.6590 C   0  0  0  0  0  0  0  0  0  0  0  0
   39.6920   25.6630   42.0290 C   0  0  0  0  0  0  0  0  0  0  0  0
   40.7410   25.9260   41.9950 H   0  0  0  0  0  0  0  0  0  0  0  0
   39.2820   24.4830   41.4080 C   0  0  0  0  0  0  0  0  0  0  0  0
   39.9840   23.8420   40.9060 H   0  0  0  0  0  0  0  0  0  0  0  0
   37.9460   24.1660   41.4620 C   0  0  0  0  0  3  0  0  0  0  0  0
   36.9950   24.9570   42.1000 C   0  0  0  0  0  3  0  0  0  0  0  0
  1  2  2  0  0  0  0
  1 16  1  0  0  0  0
  3  1  1  0  0  0  0
  4  3  1  0  0  0  0
  5  3  1  0  0  0  0
  5  6  1  0  0  0  0
  6 13  1  0  0  0  0
  7 11  1  0  0  0  0
  7  6  2  0  0  0  0
  8  7  1  0  0  0  0
  9  8  2  0  0  0  0
  9 10  1  0  0  0  0
 10  5  2  0  0  0  0
 12  9  1  0  0  0  0
 13 14  1  0  0  0  0
 15 13  1  0  0  0  0
 18 17  1  0  0  0  0
 19 18  1  0  0  0  0
 19 16  1  0  0  0  0
 20 19  2  0  0  0  0
 21 20  1  0  0  0  0
 22 24  2  0  0  0  0
 22 20  1  0  0  0  0
 23 22  1  0  0  0  0
 24 25  1  0  0  0  0
 25 18  2  0  0  0  0
M  END
>  <minimizedAffinity>
-4.84883165

$$$$
