REMARK  Name = 
REMARK  3 active torsions:
REMARK  status: ('A' for Active; 'I' for Inactive)
REMARK    1  A    between atoms: C_3  and  C_7
REMARK    2  A    between atoms: C_7  and  C_8
REMARK    3  A    between atoms: C_8  and  C_18
REMARK                            x       y       z     vdW  Elec       q    Type
REMARK                         _______ _______ _______ _____ _____    ______ ____
ROOT
ATOM      1  C   UNL     1      46.780  34.771  41.724  0.00  0.00    +0.000 C 
ATOM      2  H   UNL     1      46.900  33.678  41.532  0.00  0.00    +0.000 HD
ATOM      3  H   UNL     1      46.214  35.294  40.957  0.00  0.00    +0.000 HD
ENDROOT
BRANCH   1   6
ATOM      4  C   UNL     1      44.558  36.043  44.477  0.00  0.00    +0.000 A 
ATOM      5  C   UNL     1      45.219  35.945  43.244  0.00  0.00    +0.000 A 
ATOM      6  C   UNL     1      46.085  34.873  43.029  0.00  0.00    +0.000 A 
ATOM      7  N   UNL     1      46.240  33.978  44.034  0.00  0.00    +0.000 NA
ATOM      8  C   UNL     1      45.591  34.093  45.218  0.00  0.00    +0.000 A 
ATOM      9  N   UNL     1      44.761  35.112  45.437  0.00  0.00    +0.000 NA
ATOM     10  H   UNL     1      43.922  36.919  44.508  0.00  0.00    +0.000 HD
ATOM     11  H   UNL     1      45.094  36.664  42.432  0.00  0.00    +0.000 HD
ATOM     12  H   UNL     1      45.762  33.339  45.982  0.00  0.00    +0.000 HD
ENDBRANCH   1   6
BRANCH   1  13
ATOM     13  C   UNL     1      48.184  35.309  41.877  0.00  0.00    +0.000 C 
ATOM     14  H   UNL     1      48.148  36.369  42.199  0.00  0.00    +0.000 HD
ATOM     15  H   UNL     1      48.786  34.716  42.584  0.00  0.00    +0.000 HD
BRANCH  13  18
ATOM     16 CL   UNL     1      48.854  32.475  41.289  0.00  0.00    +0.000 Cl
ATOM     17  C   UNL     1      49.170  33.865  40.250  0.00  0.00    +0.000 A 
ATOM     18  C   UNL     1      48.843  35.190  40.550  0.00  0.00    +0.000 A 
ATOM     19  C   UNL     1      49.150  36.180  39.640  0.00  0.00    +0.000 A 
ATOM     20  H   UNL     1      48.854  37.165  39.972  0.00  0.00    +0.000 HD
ATOM     21  C   UNL     1      49.771  35.850  38.455  0.00  0.00    +0.000 A 
ATOM     22  H   UNL     1      49.987  36.671  37.782  0.00  0.00    +0.000 HD
ATOM     23  C   UNL     1      50.092  34.531  38.167  0.00  0.00    +0.000 A 
ATOM     24  C   UNL     1      49.792  33.527  39.067  0.00  0.00    +0.000 A 
ENDBRANCH  13  18
ENDBRANCH   1  13
TORSDOF 3
