
 OpenBabel03252508463D

 45 47  0  0  0  0  0  0  0  0999 V2000
   42.6850   31.3750   42.5850 N   0  0  0  0  0  0  0  0  0  0  0  0
   43.0190   31.5790   43.5550 H   0  0  0  0  0  0  0  0  0  0  0  0
   42.9630   32.4310   41.6680 C   0  0  0  0  0  0  0  0  0  0  0  0
   41.9890   32.9000   41.3390 H   0  0  0  0  0  0  0  0  0  0  0  0
   43.4060   32.0660   40.6990 H   0  0  0  0  0  0  0  0  0  0  0  0
   43.6050   34.8410   41.8690 C   0  0  0  0  0  0  0  0  0  0  0  0
   43.8430   33.5140   42.1900 C   0  0  0  0  0  0  0  0  0  0  0  0
   44.9120   33.2210   43.0030 C   0  0  0  0  0  0  0  0  0  0  0  0
   45.7110   34.2180   43.4760 C   0  0  0  0  0  0  0  0  0  0  0  0
   45.4950   35.5450   43.1710 C   0  0  0  0  0  0  0  0  0  0  0  0
   44.4100   35.8000   42.3490 C   0  0  0  0  0  0  0  0  0  0  0  0
   45.0640   32.1670   43.2310 H   0  0  0  0  0  0  0  0  0  0  0  0
   46.5400   33.9110   44.1160 H   0  0  0  0  0  0  0  0  0  0  0  0
   46.1480   36.3150   43.5620 H   0  0  0  0  0  0  0  0  0  0  0  0
   44.2160   36.8380   42.0910 H   0  0  0  0  0  0  0  0  0  0  0  0
   40.1550   35.6820   40.5510 C   0  0  0  0  0  0  0  0  0  0  0  0
   41.1930   35.4660   41.4780 C   0  0  0  0  0  0  0  0  0  0  0  0
   42.4520   35.0940   41.0010 C   0  0  0  0  0  0  0  0  0  0  0  0
   42.5960   34.9620   39.6580 N   0  0  0  0  0  0  0  0  0  0  0  0
   41.5760   35.1770   38.7840 C   0  0  0  0  0  0  0  0  0  0  0  0
   40.3720   35.5340   39.2480 N   0  0  0  0  0  0  0  0  0  0  0  0
   39.2100   35.9660   40.9660 H   0  0  0  0  0  0  0  0  0  0  0  0
   41.0760   35.5740   42.5590 H   0  0  0  0  0  0  0  0  0  0  0  0
   41.8450   35.0330   37.7450 H   0  0  0  0  0  0  0  0  0  0  0  0
   41.0050   31.0050   42.6830 S   0  0  0  0  0  0  0  0  0  0  0  0
   40.1610   32.2380   42.4920 O   0  0  0  0  0  0  0  0  0  0  0  0
   39.3930   32.3260   41.8680 H   0  0  0  0  0  0  0  0  0  0  0  0
   40.6690   30.3440   43.9660 O   0  0  0  0  0  0  0  0  0  0  0  0
   39.9390   30.6200   44.5420 H   0  0  0  0  0  0  0  0  0  0  0  0
   40.6680   29.9440   41.4160 O   0  0  0  0  0  0  0  0  0  0  0  0
   39.2850   29.7960   41.3640 C   0  0  0  0  0  0  0  0  0  0  0  0
   38.7150   30.5230   41.9340 H   0  0  0  0  0  0  0  0  0  0  0  0
   38.9860   29.9200   40.2910 H   0  0  0  0  0  0  0  0  0  0  0  0
   38.9200   28.3650   41.7270 C   0  0  0  0  0  0  0  0  0  0  0  0
   38.7250   28.3630   42.8300 H   0  0  0  0  0  0  0  0  0  0  0  0
   39.7180   27.6570   41.4530 H   0  0  0  0  0  0  0  0  0  0  0  0
   38.0800   25.3880   41.7060 Cl  0  0  0  0  0  0  0  0  0  0  0  0
   37.2360   26.7020   40.9230 C   0  0  0  0  0  0  0  0  0  0  0  0
   37.6910   28.0150   40.9810 C   0  0  0  0  0  0  0  0  0  0  0  0
   36.9390   28.9600   40.3130 C   0  0  0  0  0  0  0  0  0  0  0  0
   37.2390   30.0170   40.3180 H   0  0  0  0  0  0  0  0  0  0  0  0
   35.7960   28.6080   39.6260 C   0  0  0  0  0  0  0  0  0  0  0  0
   35.1630   29.3230   39.0770 H   0  0  0  0  0  0  0  0  0  0  0  0
   35.3380   27.3080   39.5630 C   0  0  0  0  0  3  0  0  0  0  0  0
   36.0720   26.3630   40.2190 C   0  0  0  0  0  3  0  0  0  0  0  0
  1 25  1  0  0  0  0
  1  2  1  0  0  0  0
  3  7  1  0  0  0  0
  3  1  1  0  0  0  0
  4  3  1  0  0  0  0
  5  3  1  0  0  0  0
  6  7  2  0  0  0  0
  6 11  1  0  0  0  0
  7  8  1  0  0  0  0
  8 12  1  0  0  0  0
  8  9  2  0  0  0  0
  9 13  1  0  0  0  0
 10  9  1  0  0  0  0
 10 14  1  0  0  0  0
 11 10  2  0  0  0  0
 15 11  1  0  0  0  0
 16 22  1  0  0  0  0
 16 17  1  0  0  0  0
 17 23  1  0  0  0  0
 18 17  2  0  0  0  0
 18  6  1  0  0  0  0
 19 18  1  0  0  0  0
 20 21  1  0  0  0  0
 20 19  2  0  0  0  0
 21 16  2  0  0  0  0
 24 20  1  0  0  0  0
 25 28  1  0  0  0  0
 26 25  1  0  0  0  0
 27 26  1  0  0  0  0
 28 29  1  0  0  0  0
 30 25  1  0  0  0  0
 31 30  1  0  0  0  0
 31 34  1  0  0  0  0
 31 32  1  0  0  0  0
 33 31  1  0  0  0  0
 34 35  1  0  0  0  0
 36 34  1  0  0  0  0
 38 39  1  0  0  0  0
 38 37  1  0  0  0  0
 39 34  1  0  0  0  0
 40 41  1  0  0  0  0
 40 39  2  0  0  0  0
 42 40  1  0  0  0  0
 43 42  1  0  0  0  0
 44 42  2  0  0  0  0
 44 45  1  0  0  0  0
 45 38  2  0  0  0  0
M  END
>  <minimizedAffinity>
-5.65793324

>  <minimizedRMSD>
2.26517129

$$$$
