REMARK  Name = 
REMARK  10 active torsions:
REMARK  status: ('A' for Active; 'I' for Inactive)
REMARK    1  A    between atoms: C_1  and  C_9
REMARK    2  A    between atoms: C_2  and  C_13
REMARK    3  A    between atoms: C_13  and  N_14
REMARK    4  A    between atoms: N_14  and  S_15
REMARK    5  A    between atoms: S_15  and  O_16
REMARK    6  A    between atoms: S_15  and  O_17
REMARK    7  A    between atoms: S_15  and  O_18
REMARK    8  A    between atoms: O_18  and  C_19
REMARK    9  A    between atoms: C_19  and  C_20
REMARK   10  A    between atoms: C_20  and  C_39
REMARK                            x       y       z     vdW  Elec       q    Type
REMARK                         _______ _______ _______ _____ _____    ______ ____
ROOT
ATOM      1  N   UNL     1      42.719  31.506  42.555  0.00  0.00    +0.000 NA
ATOM      2  H   UNL     1      42.994  31.727  43.540  0.00  0.00    +0.000 HD
ENDROOT
BRANCH   1   3
ATOM      3  C   UNL     1      43.054  32.544  41.637  0.00  0.00    +0.000 C 
ATOM      4  H   UNL     1      42.103  33.014  41.248  0.00  0.00    +0.000 HD
ATOM      5  H   UNL     1      43.547  32.160  40.701  0.00  0.00    +0.000 HD
BRANCH   3   7
ATOM      6  C   UNL     1      43.663  34.959  41.882  0.00  0.00    +0.000 A 
ATOM      7  C   UNL     1      43.912  33.630  42.189  0.00  0.00    +0.000 A 
ATOM      8  C   UNL     1      44.971  33.339  43.015  0.00  0.00    +0.000 A 
ATOM      9  C   UNL     1      45.750  34.339  43.515  0.00  0.00    +0.000 A 
ATOM     10  C   UNL     1      45.523  35.667  43.225  0.00  0.00    +0.000 A 
ATOM     11  C   UNL     1      44.448  35.921  42.389  0.00  0.00    +0.000 A 
ATOM     12  H   UNL     1      45.133  32.284  43.231  0.00  0.00    +0.000 HD
ATOM     13  H   UNL     1      46.572  34.033  44.164  0.00  0.00    +0.000 HD
ATOM     14  H   UNL     1      46.160  36.439  43.637  0.00  0.00    +0.000 HD
ATOM     15  H   UNL     1      44.245  36.960  42.142  0.00  0.00    +0.000 HD
BRANCH   6  18
ATOM     16  C   UNL     1      40.231  35.799  40.518  0.00  0.00    +0.000 A 
ATOM     17  C   UNL     1      41.257  35.585  41.459  0.00  0.00    +0.000 A 
ATOM     18  C   UNL     1      42.521  35.210  40.999  0.00  0.00    +0.000 A 
ATOM     19  N   UNL     1      42.682  35.073  39.659  0.00  0.00    +0.000 NA
ATOM     20  C   UNL     1      41.673  35.286  38.771  0.00  0.00    +0.000 A 
ATOM     21  N   UNL     1      40.464  35.646  39.219  0.00  0.00    +0.000 NA
ATOM     22  H   UNL     1      39.281  36.085  40.921  0.00  0.00    +0.000 HD
ATOM     23  H   UNL     1      41.126  35.696  42.538  0.00  0.00    +0.000 HD
ATOM     24  H   UNL     1      41.955  35.138  37.736  0.00  0.00    +0.000 HD
ENDBRANCH   6  18
ENDBRANCH   3   7
ENDBRANCH   1   3
BRANCH   1  25
ATOM     25  S   UNL     1      41.035  31.140  42.559  0.00  0.00    +0.000 S 
BRANCH  25  26
ATOM     26  O   UNL     1      40.203  32.391  42.447  0.00  0.00    +0.000 OA
ATOM     27  H   UNL     1      39.459  32.540  41.806  0.00  0.00    +0.000 HD
ENDBRANCH  25  26
BRANCH  25  28
ATOM     28  O   UNL     1      40.649  30.370  43.765  0.00  0.00    +0.000 OA
ATOM     29  H   UNL     1      39.899  30.599  44.336  0.00  0.00    +0.000 HD
ENDBRANCH  25  28
BRANCH  25  30
ATOM     30  O   UNL     1      40.741  30.198  41.191  0.00  0.00    +0.000 OA
BRANCH  30  31
ATOM     31  C   UNL     1      40.091  29.045  41.621  0.00  0.00    +0.000 C 
ATOM     32  H   UNL     1      39.817  29.026  42.672  0.00  0.00    +0.000 HD
ATOM     33  H   UNL     1      39.136  28.975  41.037  0.00  0.00    +0.000 HD
BRANCH  31  34
ATOM     34  C   UNL     1      40.908  27.828  41.216  0.00  0.00    +0.000 C 
ATOM     35  H   UNL     1      41.894  27.926  41.740  0.00  0.00    +0.000 HD
ATOM     36  H   UNL     1      41.032  27.763  40.124  0.00  0.00    +0.000 HD
BRANCH  34  39
ATOM     37 CL   UNL     1      42.111  25.074  40.483  0.00  0.00    +0.000 Cl
ATOM     38  C   UNL     1      40.656  25.349  41.411  0.00  0.00    +0.000 A 
ATOM     39  C   UNL     1      40.185  26.627  41.690  0.00  0.00    +0.000 A 
ATOM     40  C   UNL     1      39.020  26.709  42.425  0.00  0.00    +0.000 A 
ATOM     41  H   UNL     1      38.591  27.688  42.683  0.00  0.00    +0.000 HD
ATOM     42  C   UNL     1      38.365  25.574  42.856  0.00  0.00    +0.000 A 
ATOM     43  H   UNL     1      37.434  25.587  43.444  0.00  0.00    +0.000 HD
ATOM     44  C   UNL     1      38.826  24.303  42.584  0.00  0.00    +0.000 A 
ATOM     45  C   UNL     1      39.978  24.206  41.857  0.00  0.00    +0.000 A 
ENDBRANCH  34  39
ENDBRANCH  31  34
ENDBRANCH  30  31
ENDBRANCH  25  30
ENDBRANCH   1  25
TORSDOF 10
