
 OpenBabel03252508463D

 45 47  0  0  0  0  0  0  0  0999 V2000
   42.6870   31.4360   42.5730 N   0  0  0  0  0  0  0  0  0  0  0  0
   42.9900   31.6380   43.5540 H   0  0  0  0  0  0  0  0  0  0  0  0
   43.0100   32.4850   41.6640 C   0  0  0  0  0  0  0  0  0  0  0  0
   42.0550   32.9720   41.3070 H   0  0  0  0  0  0  0  0  0  0  0  0
   43.4740   32.1110   40.7090 H   0  0  0  0  0  0  0  0  0  0  0  0
   43.6780   34.8850   41.8990 C   0  0  0  0  0  0  0  0  0  0  0  0
   43.8950   33.5520   42.2110 C   0  0  0  0  0  0  0  0  0  0  0  0
   44.9480   33.2380   43.0360 C   0  0  0  0  0  0  0  0  0  0  0  0
   45.7520   34.2200   43.5310 C   0  0  0  0  0  0  0  0  0  0  0  0
   45.5570   35.5530   43.2370 C   0  0  0  0  0  0  0  0  0  0  0  0
   44.4870   35.8300   42.4020 C   0  0  0  0  0  0  0  0  0  0  0  0
   45.0850   32.1800   43.2550 H   0  0  0  0  0  0  0  0  0  0  0  0
   46.5680   33.8970   44.1800 H   0  0  0  0  0  0  0  0  0  0  0  0
   46.2130   36.3100   43.6450 H   0  0  0  0  0  0  0  0  0  0  0  0
   44.3090   36.8730   42.1520 H   0  0  0  0  0  0  0  0  0  0  0  0
   40.2590   35.7820   40.5390 C   0  0  0  0  0  0  0  0  0  0  0  0
   41.2800   35.5440   41.4800 C   0  0  0  0  0  0  0  0  0  0  0  0
   42.5410   35.1610   41.0170 C   0  0  0  0  0  0  0  0  0  0  0  0
   42.7040   35.0400   39.6760 N   0  0  0  0  0  0  0  0  0  0  0  0
   41.6990   35.2770   38.7890 C   0  0  0  0  0  0  0  0  0  0  0  0
   40.4930   35.6440   39.2390 N   0  0  0  0  0  0  0  0  0  0  0  0
   39.3110   36.0730   40.9440 H   0  0  0  0  0  0  0  0  0  0  0  0
   41.1480   35.6420   42.5600 H   0  0  0  0  0  0  0  0  0  0  0  0
   41.9820   35.1400   37.7520 H   0  0  0  0  0  0  0  0  0  0  0  0
   40.9990   31.0900   42.6150 S   0  0  0  0  0  0  0  0  0  0  0  0
   40.1790   32.3430   42.4500 O   0  0  0  0  0  0  0  0  0  0  0  0
   39.4290   32.4680   41.8110 H   0  0  0  0  0  0  0  0  0  0  0  0
   40.6190   30.3870   43.8630 O   0  0  0  0  0  0  0  0  0  0  0  0
   39.8790   30.6530   44.4300 H   0  0  0  0  0  0  0  0  0  0  0  0
   40.6780   30.0830   41.3000 O   0  0  0  0  0  0  0  0  0  0  0  0
   39.9360   29.0090   41.7800 C   0  0  0  0  0  0  0  0  0  0  0  0
   39.5530   29.1180   42.7910 H   0  0  0  0  0  0  0  0  0  0  0  0
   39.0450   28.9040   41.1070 H   0  0  0  0  0  0  0  0  0  0  0  0
   40.7350   27.7270   41.6010 C   0  0  0  0  0  0  0  0  0  0  0  0
   41.5110   27.7280   42.4110 H   0  0  0  0  0  0  0  0  0  0  0  0
   41.1910   27.6650   40.6010 H   0  0  0  0  0  0  0  0  0  0  0  0
   41.6570   25.4130   43.4350 Cl  0  0  0  0  0  0  0  0  0  0  0  0
   40.1320   25.5100   42.5870 C   0  0  0  0  0  0  0  0  0  0  0  0
   39.8030   26.5910   41.7760 C   0  0  0  0  0  0  0  0  0  0  0  0
   38.5720   26.5440   41.1530 C   0  0  0  0  0  0  0  0  0  0  0  0
   38.2460   27.3650   40.5000 H   0  0  0  0  0  0  0  0  0  0  0  0
   37.7200   25.4740   41.3340 C   0  0  0  0  0  0  0  0  0  0  0  0
   36.7310   25.3890   40.8590 H   0  0  0  0  0  0  0  0  0  0  0  0
   38.0400   24.3980   42.1350 C   0  0  0  0  0  3  0  0  0  0  0  0
   39.2550   24.4310   42.7580 C   0  0  0  0  0  3  0  0  0  0  0  0
  1 25  1  0  0  0  0
  1  2  1  0  0  0  0
  3  7  1  0  0  0  0
  3  1  1  0  0  0  0
  4  3  1  0  0  0  0
  5  3  1  0  0  0  0
  6  7  2  0  0  0  0
  6 11  1  0  0  0  0
  7  8  1  0  0  0  0
  8 12  1  0  0  0  0
  8  9  2  0  0  0  0
  9 13  1  0  0  0  0
 10  9  1  0  0  0  0
 10 14  1  0  0  0  0
 11 10  2  0  0  0  0
 15 11  1  0  0  0  0
 16 22  1  0  0  0  0
 16 17  1  0  0  0  0
 17 23  1  0  0  0  0
 18 17  2  0  0  0  0
 18  6  1  0  0  0  0
 19 18  1  0  0  0  0
 20 21  1  0  0  0  0
 20 19  2  0  0  0  0
 21 16  2  0  0  0  0
 24 20  1  0  0  0  0
 25 28  1  0  0  0  0
 26 25  1  0  0  0  0
 27 26  1  0  0  0  0
 28 29  1  0  0  0  0
 30 31  1  0  0  0  0
 30 25  1  0  0  0  0
 31 32  1  0  0  0  0
 33 31  1  0  0  0  0
 34 39  1  0  0  0  0
 34 31  1  0  0  0  0
 34 35  1  0  0  0  0
 36 34  1  0  0  0  0
 38 45  1  0  0  0  0
 38 37  1  0  0  0  0
 39 38  2  0  0  0  0
 40 42  2  0  0  0  0
 40 39  1  0  0  0  0
 41 40  1  0  0  0  0
 42 44  1  0  0  0  0
 43 42  1  0  0  0  0
 44 45  2  0  0  0  0
M  END
>  <minimizedAffinity>
-5.16896868

>  <minimizedRMSD>
0.458750218

$$$$
