
 OpenBabel03252508463D

 45 47  0  0  0  0  0  0  0  0999 V2000
   42.6850   31.4060   42.5830 N   0  0  0  0  0  0  0  0  0  0  0  0
   42.9920   31.6050   43.5630 H   0  0  0  0  0  0  0  0  0  0  0  0
   42.9970   32.4620   41.6770 C   0  0  0  0  0  0  0  0  0  0  0  0
   42.0370   32.9510   41.3340 H   0  0  0  0  0  0  0  0  0  0  0  0
   43.4510   32.0950   40.7140 H   0  0  0  0  0  0  0  0  0  0  0  0
   43.6760   34.8600   41.9070 C   0  0  0  0  0  0  0  0  0  0  0  0
   43.8870   33.5260   42.2210 C   0  0  0  0  0  0  0  0  0  0  0  0
   44.9390   33.2090   43.0470 C   0  0  0  0  0  0  0  0  0  0  0  0
   45.7470   34.1890   43.5400 C   0  0  0  0  0  0  0  0  0  0  0  0
   45.5580   35.5220   43.2430 C   0  0  0  0  0  0  0  0  0  0  0  0
   44.4890   35.8020   42.4070 C   0  0  0  0  0  0  0  0  0  0  0  0
   45.0700   32.1510   43.2690 H   0  0  0  0  0  0  0  0  0  0  0  0
   46.5610   33.8630   44.1890 H   0  0  0  0  0  0  0  0  0  0  0  0
   46.2180   36.2770   43.6490 H   0  0  0  0  0  0  0  0  0  0  0  0
   44.3160   36.8450   42.1540 H   0  0  0  0  0  0  0  0  0  0  0  0
   40.2580   35.7590   40.5450 C   0  0  0  0  0  0  0  0  0  0  0  0
   41.2780   35.5170   41.4860 C   0  0  0  0  0  0  0  0  0  0  0  0
   42.5400   35.1390   41.0240 C   0  0  0  0  0  0  0  0  0  0  0  0
   42.7050   35.0260   39.6820 N   0  0  0  0  0  0  0  0  0  0  0  0
   41.7020   35.2650   38.7950 C   0  0  0  0  0  0  0  0  0  0  0  0
   40.4950   35.6280   39.2450 N   0  0  0  0  0  0  0  0  0  0  0  0
   39.3090   36.0460   40.9500 H   0  0  0  0  0  0  0  0  0  0  0  0
   41.1430   35.6080   42.5670 H   0  0  0  0  0  0  0  0  0  0  0  0
   41.9870   35.1350   37.7580 H   0  0  0  0  0  0  0  0  0  0  0  0
   40.9990   31.0500   42.6330 S   0  0  0  0  0  0  0  0  0  0  0  0
   40.1710   32.2970   42.4610 O   0  0  0  0  0  0  0  0  0  0  0  0
   39.4180   32.4120   41.8230 H   0  0  0  0  0  0  0  0  0  0  0  0
   40.6280   30.3530   43.8870 O   0  0  0  0  0  0  0  0  0  0  0  0
   39.8880   30.6190   44.4550 H   0  0  0  0  0  0  0  0  0  0  0  0
   40.6810   30.0320   41.3260 O   0  0  0  0  0  0  0  0  0  0  0  0
   40.0880   28.8820   41.8390 C   0  0  0  0  0  0  0  0  0  0  0  0
   39.7520   28.9490   42.8700 H   0  0  0  0  0  0  0  0  0  0  0  0
   39.1780   28.6810   41.2150 H   0  0  0  0  0  0  0  0  0  0  0  0
   41.0120   27.6960   41.6090 C   0  0  0  0  0  0  0  0  0  0  0  0
   41.9320   27.8960   42.2160 H   0  0  0  0  0  0  0  0  0  0  0  0
   41.2480   27.5630   40.5420 H   0  0  0  0  0  0  0  0  0  0  0  0
   42.2190   26.2810   44.0810 Cl  0  0  0  0  0  0  0  0  0  0  0  0
   40.7850   25.7900   43.2100 C   0  0  0  0  0  0  0  0  0  0  0  0
   40.3160   26.4870   42.1020 C   0  0  0  0  0  0  0  0  0  0  0  0
   39.1780   25.9910   41.4970 C   0  0  0  0  0  0  0  0  0  0  0  0
   38.7520   26.4920   40.6180 H   0  0  0  0  0  0  0  0  0  0  0  0
   38.5490   24.8620   41.9780 C   0  0  0  0  0  0  0  0  0  0  0  0
   37.6410   24.4270   41.5300 H   0  0  0  0  0  0  0  0  0  0  0  0
   39.0080   24.1660   43.0750 C   0  0  0  0  0  3  0  0  0  0  0  0
   40.1320   24.6440   43.6840 C   0  0  0  0  0  3  0  0  0  0  0  0
  1 25  1  0  0  0  0
  1  2  1  0  0  0  0
  3  7  1  0  0  0  0
  3  1  1  0  0  0  0
  4  3  1  0  0  0  0
  5  3  1  0  0  0  0
  6  7  2  0  0  0  0
  6 11  1  0  0  0  0
  7  8  1  0  0  0  0
  8 12  1  0  0  0  0
  8  9  2  0  0  0  0
  9 13  1  0  0  0  0
 10  9  1  0  0  0  0
 10 14  1  0  0  0  0
 11 10  2  0  0  0  0
 15 11  1  0  0  0  0
 16 22  1  0  0  0  0
 16 17  1  0  0  0  0
 17 23  1  0  0  0  0
 18 17  2  0  0  0  0
 18  6  1  0  0  0  0
 19 18  1  0  0  0  0
 20 21  1  0  0  0  0
 20 19  2  0  0  0  0
 21 16  2  0  0  0  0
 24 20  1  0  0  0  0
 25 28  1  0  0  0  0
 26 25  1  0  0  0  0
 27 26  1  0  0  0  0
 28 29  1  0  0  0  0
 30 31  1  0  0  0  0
 30 25  1  0  0  0  0
 31 32  1  0  0  0  0
 33 31  1  0  0  0  0
 34 31  1  0  0  0  0
 34 39  1  0  0  0  0
 34 35  1  0  0  0  0
 36 34  1  0  0  0  0
 38 45  1  0  0  0  0
 38 37  1  0  0  0  0
 39 38  2  0  0  0  0
 40 42  2  0  0  0  0
 40 39  1  0  0  0  0
 41 40  1  0  0  0  0
 42 44  1  0  0  0  0
 43 42  1  0  0  0  0
 44 45  2  0  0  0  0
M  END
>  <minimizedAffinity>
-5.10170269

>  <minimizedRMSD>
0.281704873

$$$$
