
 OpenBabel03242521573D

 48 52  0  0  0  0  0  0  0  0999 V2000
   36.5880   26.9810   39.8800 C   0  0  0  0  0  0  0  0  0  0  0  0
   36.6130   25.5880   39.8390 C   0  0  0  0  0  0  0  0  0  0  0  0
   36.8950   24.7980   40.9600 C   0  0  0  0  0  0  0  0  0  0  0  0
   37.1610   25.3770   42.1690 C   0  0  0  0  0  0  0  0  0  0  0  0
   37.1480   26.7810   42.2350 C   0  0  0  0  0  0  0  0  0  0  0  0
   37.4730   27.3220   43.4420 C   0  0  0  0  0  0  0  0  0  0  0  0
   37.5440   28.7150   43.5240 C   0  0  0  0  0  0  0  0  0  0  0  0
   37.2800   29.4890   42.3400 C   0  0  0  0  0  0  0  0  0  0  0  0
   36.9650   28.7940   41.1950 C   0  0  0  0  0  0  0  0  0  0  0  0
   36.8640   27.4820   41.0600 C   0  0  0  0  0  0  0  0  0  0  0  0
   36.4000   25.1100   38.8680 H   0  0  0  0  0  0  0  0  0  0  0  0
   36.8960   23.7210   40.8400 H   0  0  0  0  0  0  0  0  0  0  0  0
   37.3740   24.7780   43.0460 H   0  0  0  0  0  0  0  0  0  0  0  0
   37.6680   26.6910   44.2990 H   0  0  0  0  0  0  0  0  0  0  0  0
   37.8000   29.0670   44.5080 H   0  0  0  0  0  0  0  0  0  0  0  0
   37.4060   30.4980   42.6990 H   0  0  0  0  0  0  0  0  0  0  0  0
   38.6130   29.9730   40.0430 C   0  0  0  0  0  0  0  0  0  0  0  0
   37.1970   29.9460   40.3530 C   0  0  0  0  0  0  0  0  0  0  0  0
   36.6000   31.0440   39.8940 C   0  0  0  0  0  0  0  0  0  0  0  0
   37.2100   32.0820   39.2190 C   0  0  0  0  0  0  0  0  0  0  0  0
   38.5520   32.0850   38.9410 C   0  0  0  0  0  0  0  0  0  0  0  0
   39.2620   30.9890   39.3740 C   0  0  0  0  0  0  0  0  0  0  0  0
   35.5370   30.9350   40.1690 H   0  0  0  0  0  0  0  0  0  0  0  0
   36.5200   32.8740   38.9420 H   0  0  0  0  0  0  0  0  0  0  0  0
   38.9690   32.9270   38.4110 H   0  0  0  0  0  0  0  0  0  0  0  0
   39.5680   28.9680   40.3670 O   0  0  0  0  0  0  0  0  0  0  0  0
   39.4780   28.1350   39.7940 H   0  0  0  0  0  0  0  0  0  0  0  0
   40.6010   31.0620   39.0670 O   0  0  0  0  0  0  0  0  0  0  0  0
   41.9490   32.7510   37.1360 Cl  0  0  0  0  0  0  0  0  0  0  0  0
   42.1000   32.7370   38.8980 C   0  0  0  0  0  0  0  0  0  0  0  0
   41.4260   31.9010   39.7900 C   0  0  0  0  0  0  0  0  0  0  0  0
   41.6920   32.0570   41.1340 C   0  0  0  0  0  0  0  0  0  0  0  0
   41.1140   31.3710   41.7330 H   0  0  0  0  0  0  0  0  0  0  0  0
   42.5910   33.0050   41.5670 C   0  0  0  0  0  0  0  0  0  0  0  0
   42.7160   33.0350   42.6200 H   0  0  0  0  0  0  0  0  0  0  0  0
   43.2650   33.8380   40.6980 C   0  0  0  0  0  3  0  0  0  0  0  0
   43.0140   33.6980   39.3490 C   0  0  0  0  0  3  0  0  0  0  0  0
   34.6450   29.0520   37.4580 C   0  0  0  0  0  0  0  0  0  0  0  0
   35.6290   29.2430   36.4600 C   0  0  0  0  0  0  0  0  0  0  0  0
   36.8480   28.6340   36.6790 C   0  0  0  0  0  0  0  0  0  0  0  0
   36.9410   27.9450   37.8120 N   0  0  0  0  0  0  0  0  0  0  0  0
   36.0420   27.7480   38.7700 C   0  0  0  0  0  0  0  0  0  0  0  0
   34.8980   28.3230   38.5490 N   0  0  0  0  0  0  0  0  0  0  0  0
   33.6800   29.5280   37.2930 H   0  0  0  0  0  0  0  0  0  0  0  0
   35.4520   29.8240   35.5770 H   0  0  0  0  0  0  0  0  0  0  0  0
   37.8980   28.6820   35.7300 N   0  0  0  0  0  0  0  0  0  0  0  0
   37.7060   29.1090   34.8020 H   0  0  0  0  0  0  0  0  0  0  0  0
   38.8140   28.2910   35.9920 H   0  0  0  0  0  0  0  0  0  0  0  0
  1 10  1  0  0  0  0
  2  1  2  0  0  0  0
  2  3  1  0  0  0  0
  3  4  2  0  0  0  0
  4  5  1  0  0  0  0
  4 13  1  0  0  0  0
  5  6  1  0  0  0  0
  6  7  2  0  0  0  0
  6 14  1  0  0  0  0
  7 15  1  0  0  0  0
  8 16  1  0  0  0  0
  8  7  1  0  0  0  0
  9  8  2  0  0  0  0
 10  9  1  0  0  0  0
 10  5  2  0  0  0  0
 11  2  1  0  0  0  0
 12  3  1  0  0  0  0
 17 18  1  0  0  0  0
 17 26  1  0  0  0  0
 18  9  1  0  0  0  0
 19 23  1  0  0  0  0
 19 18  2  0  0  0  0
 20 19  1  0  0  0  0
 21 20  2  0  0  0  0
 21 22  1  0  0  0  0
 22 17  2  0  0  0  0
 24 20  1  0  0  0  0
 25 21  1  0  0  0  0
 27 26  1  0  0  0  0
 28 22  1  0  0  0  0
 28 31  1  0  0  0  0
 29 30  1  0  0  0  0
 30 37  2  0  0  0  0
 30 31  1  0  0  0  0
 31 32  2  0  0  0  0
 32 34  1  0  0  0  0
 32 33  1  0  0  0  0
 34 35  1  0  0  0  0
 36 34  2  0  0  0  0
 37 36  1  0  0  0  0
 38 43  1  0  0  0  0
 39 40  1  0  0  0  0
 39 38  2  0  0  0  0
 40 41  2  0  0  0  0
 41 42  1  0  0  0  0
 42  1  1  0  0  0  0
 43 42  2  0  0  0  0
 44 38  1  0  0  0  0
 45 39  1  0  0  0  0
 46 48  1  0  0  0  0
 46 40  1  0  0  0  0
 47 46  1  0  0  0  0
M  END
>  <minimizedAffinity>
-7.47054243

$$$$

 OpenBabel03242521573D

 48 52  0  0  0  0  0  0  0  0999 V2000
   36.5900   26.8930   39.9170 C   0  0  0  0  0  0  0  0  0  0  0  0
   36.5880   25.5000   39.8650 C   0  0  0  0  0  0  0  0  0  0  0  0
   36.8000   24.6960   40.9920 C   0  0  0  0  0  0  0  0  0  0  0  0
   37.0230   25.2610   42.2170 C   0  0  0  0  0  0  0  0  0  0  0  0
   37.0370   26.6640   42.2920 C   0  0  0  0  0  0  0  0  0  0  0  0
   37.3180   27.1900   43.5170 C   0  0  0  0  0  0  0  0  0  0  0  0
   37.4150   28.5810   43.6140 C   0  0  0  0  0  0  0  0  0  0  0  0
   37.2230   29.3680   42.4250 C   0  0  0  0  0  0  0  0  0  0  0  0
   36.9460   28.6880   41.2620 C   0  0  0  0  0  0  0  0  0  0  0  0
   36.8220   27.3800   41.1110 C   0  0  0  0  0  0  0  0  0  0  0  0
   36.4080   25.0340   38.8820 H   0  0  0  0  0  0  0  0  0  0  0  0
   36.7840   23.6200   40.8630 H   0  0  0  0  0  0  0  0  0  0  0  0
   37.1820   24.6520   43.0970 H   0  0  0  0  0  0  0  0  0  0  0  0
   37.4590   26.5490   44.3780 H   0  0  0  0  0  0  0  0  0  0  0  0
   37.6330   28.9200   44.6110 H   0  0  0  0  0  0  0  0  0  0  0  0
   37.3540   30.3720   42.7980 H   0  0  0  0  0  0  0  0  0  0  0  0
   38.6810   29.8980   40.2830 C   0  0  0  0  0  0  0  0  0  0  0  0
   37.2410   29.8410   40.4400 C   0  0  0  0  0  0  0  0  0  0  0  0
   36.6720   30.9220   39.9110 C   0  0  0  0  0  0  0  0  0  0  0  0
   37.3280   31.9710   39.2980 C   0  0  0  0  0  0  0  0  0  0  0  0
   38.6910   32.0030   39.1650 C   0  0  0  0  0  0  0  0  0  0  0  0
   39.3750   30.9260   39.6800 C   0  0  0  0  0  0  0  0  0  0  0  0
   35.5880   30.7900   40.0720 H   0  0  0  0  0  0  0  0  0  0  0  0
   36.6530   32.7450   38.9420 H   0  0  0  0  0  0  0  0  0  0  0  0
   39.1430   32.8520   38.6760 H   0  0  0  0  0  0  0  0  0  0  0  0
   39.6180   28.9180   40.7160 O   0  0  0  0  0  0  0  0  0  0  0  0
   39.6080   28.0790   40.1430 H   0  0  0  0  0  0  0  0  0  0  0  0
   40.7380   31.0280   39.5180 O   0  0  0  0  0  0  0  0  0  0  0  0
   42.5680   33.0940   38.6340 Cl  0  0  0  0  0  0  0  0  0  0  0  0
   42.2200   31.5260   37.8940 C   0  0  0  0  0  0  0  0  0  0  0  0
   41.3260   30.5590   38.3600 C   0  0  0  0  0  0  0  0  0  0  0  0
   41.2050   29.3980   37.6260 C   0  0  0  0  0  0  0  0  0  0  0  0
   40.4980   28.7180   38.0770 H   0  0  0  0  0  0  0  0  0  0  0  0
   41.9420   29.2110   36.4790 C   0  0  0  0  0  0  0  0  0  0  0  0
   41.7670   28.2810   35.9980 H   0  0  0  0  0  0  0  0  0  0  0  0
   42.8280   30.1560   36.0060 C   0  0  0  0  0  3  0  0  0  0  0  0
   42.9650   31.3250   36.7250 C   0  0  0  0  0  3  0  0  0  0  0  0
   34.8080   29.0280   37.4260 C   0  0  0  0  0  0  0  0  0  0  0  0
   35.8380   29.1950   36.4710 C   0  0  0  0  0  0  0  0  0  0  0  0
   37.0300   28.5510   36.7380 C   0  0  0  0  0  0  0  0  0  0  0  0
   37.0550   27.8560   37.8700 N   0  0  0  0  0  0  0  0  0  0  0  0
   36.1130   27.6790   38.7890 C   0  0  0  0  0  0  0  0  0  0  0  0
   34.9960   28.2870   38.5230 N   0  0  0  0  0  0  0  0  0  0  0  0
   33.8640   29.5310   37.2240 H   0  0  0  0  0  0  0  0  0  0  0  0
   35.7140   29.7850   35.5850 H   0  0  0  0  0  0  0  0  0  0  0  0
   38.1190   28.5750   35.8330 N   0  0  0  0  0  0  0  0  0  0  0  0
   37.9780   29.0110   34.9010 H   0  0  0  0  0  0  0  0  0  0  0  0
   39.0120   28.1570   36.1320 H   0  0  0  0  0  0  0  0  0  0  0  0
  1 10  1  0  0  0  0
  2  1  2  0  0  0  0
  2  3  1  0  0  0  0
  3  4  2  0  0  0  0
  4  5  1  0  0  0  0
  4 13  1  0  0  0  0
  5  6  1  0  0  0  0
  6  7  2  0  0  0  0
  6 14  1  0  0  0  0
  7 15  1  0  0  0  0
  8 16  1  0  0  0  0
  8  7  1  0  0  0  0
  9  8  2  0  0  0  0
 10  9  1  0  0  0  0
 10  5  2  0  0  0  0
 11  2  1  0  0  0  0
 12  3  1  0  0  0  0
 17 18  1  0  0  0  0
 17 26  1  0  0  0  0
 18  9  1  0  0  0  0
 19 23  1  0  0  0  0
 19 18  2  0  0  0  0
 20 19  1  0  0  0  0
 21 20  2  0  0  0  0
 21 22  1  0  0  0  0
 22 17  2  0  0  0  0
 24 20  1  0  0  0  0
 25 21  1  0  0  0  0
 27 26  1  0  0  0  0
 28 22  1  0  0  0  0
 30 31  1  0  0  0  0
 30 29  1  0  0  0  0
 31 28  1  0  0  0  0
 32 33  1  0  0  0  0
 32 31  2  0  0  0  0
 34 32  1  0  0  0  0
 35 34  1  0  0  0  0
 36 34  2  0  0  0  0
 36 37  1  0  0  0  0
 37 30  2  0  0  0  0
 38 43  1  0  0  0  0
 39 40  1  0  0  0  0
 39 38  2  0  0  0  0
 40 41  2  0  0  0  0
 41 42  1  0  0  0  0
 42  1  1  0  0  0  0
 43 42  2  0  0  0  0
 44 38  1  0  0  0  0
 45 39  1  0  0  0  0
 46 48  1  0  0  0  0
 46 40  1  0  0  0  0
 47 46  1  0  0  0  0
M  END
>  <minimizedAffinity>
-7.36101484

$$$$

 OpenBabel03242521573D

 48 52  0  0  0  0  0  0  0  0999 V2000
   40.1660   32.0780   40.4580 C   0  0  0  0  0  0  0  0  0  0  0  0
   40.3170   33.3230   39.8500 C   0  0  0  0  0  0  0  0  0  0  0  0
   41.4130   34.1610   40.0940 C   0  0  0  0  0  0  0  0  0  0  0  0
   42.4000   33.7800   40.9580 C   0  0  0  0  0  0  0  0  0  0  0  0
   42.2660   32.5320   41.5890 C   0  0  0  0  0  0  0  0  0  0  0  0
   43.2410   32.2110   42.4850 C   0  0  0  0  0  0  0  0  0  0  0  0
   43.1010   31.0110   43.1860 C   0  0  0  0  0  0  0  0  0  0  0  0
   41.9440   30.1960   42.9300 C   0  0  0  0  0  0  0  0  0  0  0  0
   41.0470   30.6570   41.9950 C   0  0  0  0  0  0  0  0  0  0  0  0
   41.1340   31.7700   41.2860 C   0  0  0  0  0  0  0  0  0  0  0  0
   39.5260   33.6400   39.1500 H   0  0  0  0  0  0  0  0  0  0  0  0
   41.4510   35.1150   39.5800 H   0  0  0  0  0  0  0  0  0  0  0  0
   43.2560   34.4150   41.1500 H   0  0  0  0  0  0  0  0  0  0  0  0
   44.0880   32.8660   42.6420 H   0  0  0  0  0  0  0  0  0  0  0  0
   43.9110   30.8250   43.8700 H   0  0  0  0  0  0  0  0  0  0  0  0
   42.1050   29.3620   43.5970 H   0  0  0  0  0  0  0  0  0  0  0  0
   40.1860   28.5160   41.6690 C   0  0  0  0  0  0  0  0  0  0  0  0
   40.0190   29.7380   42.4300 C   0  0  0  0  0  0  0  0  0  0  0  0
   38.9120   29.6790   43.1670 C   0  0  0  0  0  0  0  0  0  0  0  0
   38.0230   28.6240   43.2210 C   0  0  0  0  0  0  0  0  0  0  0  0
   38.2020   27.4800   42.4880 C   0  0  0  0  0  0  0  0  0  0  0  0
   39.3230   27.4400   41.6910 C   0  0  0  0  0  0  0  0  0  0  0  0
   38.8700   30.6400   43.7090 H   0  0  0  0  0  0  0  0  0  0  0  0
   37.1900   28.8030   43.8940 H   0  0  0  0  0  0  0  0  0  0  0  0
   37.4700   26.6920   42.5730 H   0  0  0  0  0  0  0  0  0  0  0  0
   41.2560   28.2130   40.7800 O   0  0  0  0  0  0  0  0  0  0  0  0
   42.1270   28.0100   41.2610 H   0  0  0  0  0  0  0  0  0  0  0  0
   39.4350   26.2670   40.9810 O   0  0  0  0  0  0  0  0  0  0  0  0
   39.1540   23.9750   42.7330 Cl  0  0  0  0  0  0  0  0  0  0  0  0
   38.1200   24.4840   41.3910 C   0  0  0  0  0  0  0  0  0  0  0  0
   38.2970   25.6020   40.5730 C   0  0  0  0  0  0  0  0  0  0  0  0
   37.3670   25.8150   39.5780 C   0  0  0  0  0  0  0  0  0  0  0  0
   37.5920   26.7070   39.0130 H   0  0  0  0  0  0  0  0  0  0  0  0
   36.3080   24.9530   39.4070 C   0  0  0  0  0  0  0  0  0  0  0  0
   35.6580   25.2170   38.6110 H   0  0  0  0  0  0  0  0  0  0  0  0
   36.1200   23.8450   40.2060 C   0  0  0  0  0  3  0  0  0  0  0  0
   37.0380   23.6120   41.2080 C   0  0  0  0  0  3  0  0  0  0  0  0
   38.1210   29.3600   38.9200 C   0  0  0  0  0  0  0  0  0  0  0  0
   36.8980   29.5640   39.6020 C   0  0  0  0  0  0  0  0  0  0  0  0
   36.8630   30.6150   40.4960 C   0  0  0  0  0  0  0  0  0  0  0  0
   37.9970   31.3010   40.6050 N   0  0  0  0  0  0  0  0  0  0  0  0
   39.1600   31.1380   39.9860 C   0  0  0  0  0  0  0  0  0  0  0  0
   39.1760   30.1480   39.1440 N   0  0  0  0  0  0  0  0  0  0  0  0
   38.1560   28.5340   38.2120 H   0  0  0  0  0  0  0  0  0  0  0  0
   36.0370   28.9450   39.4410 H   0  0  0  0  0  0  0  0  0  0  0  0
   35.6850   30.9760   41.1920 N   0  0  0  0  0  0  0  0  0  0  0  0
   34.7980   30.4920   40.9480 H   0  0  0  0  0  0  0  0  0  0  0  0
   35.7480   31.7060   41.9160 H   0  0  0  0  0  0  0  0  0  0  0  0
  1 10  1  0  0  0  0
  2  3  1  0  0  0  0
  2  1  2  0  0  0  0
  3  4  2  0  0  0  0
  4 13  1  0  0  0  0
  4  5  1  0  0  0  0
  5  6  1  0  0  0  0
  6 14  1  0  0  0  0
  6  7  2  0  0  0  0
  7 15  1  0  0  0  0
  8  7  1  0  0  0  0
  8 16  1  0  0  0  0
  9 18  1  0  0  0  0
  9  8  2  0  0  0  0
 10  5  2  0  0  0  0
 10  9  1  0  0  0  0
 11  2  1  0  0  0  0
 12  3  1  0  0  0  0
 17 22  2  0  0  0  0
 17 18  1  0  0  0  0
 18 19  2  0  0  0  0
 19 20  1  0  0  0  0
 19 23  1  0  0  0  0
 20 24  1  0  0  0  0
 21 25  1  0  0  0  0
 21 20  2  0  0  0  0
 22 21  1  0  0  0  0
 26 27  1  0  0  0  0
 26 17  1  0  0  0  0
 28 22  1  0  0  0  0
 30 29  1  0  0  0  0
 31 28  1  0  0  0  0
 31 30  2  0  0  0  0
 32 31  1  0  0  0  0
 33 32  1  0  0  0  0
 34 32  2  0  0  0  0
 34 36  1  0  0  0  0
 35 34  1  0  0  0  0
 36 37  2  0  0  0  0
 37 30  1  0  0  0  0
 38 43  2  0  0  0  0
 38 39  1  0  0  0  0
 39 40  2  0  0  0  0
 40 41  1  0  0  0  0
 40 46  1  0  0  0  0
 42  1  1  0  0  0  0
 42 41  2  0  0  0  0
 43 42  1  0  0  0  0
 44 38  1  0  0  0  0
 45 39  1  0  0  0  0
 46 48  1  0  0  0  0
 47 46  1  0  0  0  0
M  END
>  <minimizedAffinity>
-7.01605701

$$$$

 OpenBabel03242521573D

 48 52  0  0  0  0  0  0  0  0999 V2000
   36.9250   26.8390   39.6010 C   0  0  0  0  0  0  0  0  0  0  0  0
   37.1270   25.4910   39.3110 C   0  0  0  0  0  0  0  0  0  0  0  0
   37.2880   24.5150   40.3020 C   0  0  0  0  0  0  0  0  0  0  0  0
   37.2520   24.8550   41.6250 C   0  0  0  0  0  0  0  0  0  0  0  0
   37.0560   26.2090   41.9430 C   0  0  0  0  0  0  0  0  0  0  0  0
   37.0810   26.5170   43.2700 C   0  0  0  0  0  0  0  0  0  0  0  0
   36.9650   27.8650   43.6190 C   0  0  0  0  0  0  0  0  0  0  0  0
   36.8350   28.8400   42.5690 C   0  0  0  0  0  0  0  0  0  0  0  0
   36.8260   28.3700   41.2760 C   0  0  0  0  0  0  0  0  0  0  0  0
   36.9120   27.1100   40.8840 C   0  0  0  0  0  0  0  0  0  0  0  0
   37.1580   25.2060   38.2460 H   0  0  0  0  0  0  0  0  0  0  0  0
   37.4430   23.4890   39.9880 H   0  0  0  0  0  0  0  0  0  0  0  0
   37.3680   24.1090   42.4010 H   0  0  0  0  0  0  0  0  0  0  0  0
   37.1870   25.7430   44.0180 H   0  0  0  0  0  0  0  0  0  0  0  0
   36.9880   28.0290   44.6830 H   0  0  0  0  0  0  0  0  0  0  0  0
   36.7670   29.7620   43.1260 H   0  0  0  0  0  0  0  0  0  0  0  0
   38.5030   29.8950   40.7340 C   0  0  0  0  0  0  0  0  0  0  0  0
   37.0690   29.6860   40.7270 C   0  0  0  0  0  0  0  0  0  0  0  0
   36.4380   30.7990   40.3590 C   0  0  0  0  0  0  0  0  0  0  0  0
   37.0320   32.0010   40.0300 C   0  0  0  0  0  0  0  0  0  0  0  0
   38.3910   32.1750   40.0480 C   0  0  0  0  0  0  0  0  0  0  0  0
   39.1360   31.0780   40.4150 C   0  0  0  0  0  0  0  0  0  0  0  0
   35.3650   30.5450   40.3780 H   0  0  0  0  0  0  0  0  0  0  0  0
   36.3140   32.7710   39.7610 H   0  0  0  0  0  0  0  0  0  0  0  0
   38.7930   33.1400   39.7810 H   0  0  0  0  0  0  0  0  0  0  0  0
   39.4970   28.9300   41.0650 O   0  0  0  0  0  0  0  0  0  0  0  0
   39.6230   28.2270   40.3440 H   0  0  0  0  0  0  0  0  0  0  0  0
   40.4900   31.3250   40.4180 O   0  0  0  0  0  0  0  0  0  0  0  0
   41.1970   29.7140   38.1150 Cl  0  0  0  0  0  0  0  0  0  0  0  0
   41.3890   31.4560   38.3550 C   0  0  0  0  0  0  0  0  0  0  0  0
   41.0300   32.1900   39.4870 C   0  0  0  0  0  0  0  0  0  0  0  0
   41.2680   33.5480   39.4660 C   0  0  0  0  0  0  0  0  0  0  0  0
   40.9460   34.0190   40.3820 H   0  0  0  0  0  0  0  0  0  0  0  0
   41.8380   34.1450   38.3650 C   0  0  0  0  0  0  0  0  0  0  0  0
   41.9730   35.1930   38.4620 H   0  0  0  0  0  0  0  0  0  0  0  0
   42.1980   33.4330   37.2400 C   0  0  0  0  0  3  0  0  0  0  0  0
   41.9690   32.0740   37.2390 C   0  0  0  0  0  3  0  0  0  0  0  0
   36.5290   29.2300   36.7620 C   0  0  0  0  0  0  0  0  0  0  0  0
   35.1170   29.2770   36.6820 C   0  0  0  0  0  0  0  0  0  0  0  0
   34.4260   28.5230   37.6090 C   0  0  0  0  0  0  0  0  0  0  0  0
   35.1850   27.8400   38.4600 N   0  0  0  0  0  0  0  0  0  0  0  0
   36.5070   27.7690   38.5630 C   0  0  0  0  0  0  0  0  0  0  0  0
   37.1440   28.4880   37.6880 N   0  0  0  0  0  0  0  0  0  0  0  0
   37.0820   29.8230   36.0360 H   0  0  0  0  0  0  0  0  0  0  0  0
   34.6000   29.8640   35.9490 H   0  0  0  0  0  0  0  0  0  0  0  0
   33.0120   28.5350   37.6890 N   0  0  0  0  0  0  0  0  0  0  0  0
   32.4890   29.2060   37.0920 H   0  0  0  0  0  0  0  0  0  0  0  0
   32.5530   27.8780   38.3370 H   0  0  0  0  0  0  0  0  0  0  0  0
  1 10  1  0  0  0  0
  2  1  2  0  0  0  0
  2  3  1  0  0  0  0
  3  4  2  0  0  0  0
  4  5  1  0  0  0  0
  4 13  1  0  0  0  0
  5  6  1  0  0  0  0
  6  7  2  0  0  0  0
  6 14  1  0  0  0  0
  7 15  1  0  0  0  0
  8 16  1  0  0  0  0
  8  7  1  0  0  0  0
  9  8  2  0  0  0  0
 10  9  1  0  0  0  0
 10  5  2  0  0  0  0
 11  2  1  0  0  0  0
 12  3  1  0  0  0  0
 17 26  1  0  0  0  0
 18 17  1  0  0  0  0
 18  9  1  0  0  0  0
 19 23  1  0  0  0  0
 19 18  2  0  0  0  0
 20 21  2  0  0  0  0
 20 19  1  0  0  0  0
 21 22  1  0  0  0  0
 22 28  1  0  0  0  0
 22 17  2  0  0  0  0
 24 20  1  0  0  0  0
 25 21  1  0  0  0  0
 27 26  1  0  0  0  0
 29 30  1  0  0  0  0
 30 31  1  0  0  0  0
 31 28  1  0  0  0  0
 32 31  2  0  0  0  0
 32 33  1  0  0  0  0
 34 35  1  0  0  0  0
 34 32  1  0  0  0  0
 36 34  2  0  0  0  0
 37 36  1  0  0  0  0
 37 30  2  0  0  0  0
 38 43  1  0  0  0  0
 39 38  2  0  0  0  0
 39 40  1  0  0  0  0
 40 46  1  0  0  0  0
 40 41  2  0  0  0  0
 41 42  1  0  0  0  0
 42  1  1  0  0  0  0
 43 42  2  0  0  0  0
 44 38  1  0  0  0  0
 45 39  1  0  0  0  0
 46 48  1  0  0  0  0
 47 46  1  0  0  0  0
M  END
>  <minimizedAffinity>
-6.97712135

$$$$

 OpenBabel03242521573D

 48 52  0  0  0  0  0  0  0  0999 V2000
   36.3510   26.1120   38.7630 C   0  0  0  0  0  0  0  0  0  0  0  0
   36.9470   25.0480   39.4390 C   0  0  0  0  0  0  0  0  0  0  0  0
   37.3880   25.1410   40.7660 C   0  0  0  0  0  0  0  0  0  0  0  0
   37.2480   26.3060   41.4650 C   0  0  0  0  0  0  0  0  0  0  0  0
   36.6560   27.3950   40.8020 C   0  0  0  0  0  0  0  0  0  0  0  0
   36.5840   28.5550   41.5130 C   0  0  0  0  0  0  0  0  0  0  0  0
   36.0710   29.6790   40.8600 C   0  0  0  0  0  0  0  0  0  0  0  0
   35.6600   29.5490   39.4870 C   0  0  0  0  0  0  0  0  0  0  0  0
   35.7960   28.3090   38.9070 C   0  0  0  0  0  0  0  0  0  0  0  0
   36.2540   27.2070   39.4770 C   0  0  0  0  0  0  0  0  0  0  0  0
   37.0650   24.1020   38.8840 H   0  0  0  0  0  0  0  0  0  0  0  0
   37.8430   24.2650   41.2150 H   0  0  0  0  0  0  0  0  0  0  0  0
   37.5780   26.3890   42.4920 H   0  0  0  0  0  0  0  0  0  0  0  0
   36.9140   28.5970   42.5420 H   0  0  0  0  0  0  0  0  0  0  0  0
   36.0410   30.5530   41.4860 H   0  0  0  0  0  0  0  0  0  0  0  0
   35.3190   30.5470   39.2600 H   0  0  0  0  0  0  0  0  0  0  0  0
   34.2200   28.8280   37.2710 C   0  0  0  0  0  0  0  0  0  0  0  0
   35.6370   28.8430   37.5730 C   0  0  0  0  0  0  0  0  0  0  0  0
   36.3380   29.2000   36.4980 C   0  0  0  0  0  0  0  0  0  0  0  0
   35.8230   29.5140   35.2570 C   0  0  0  0  0  0  0  0  0  0  0  0
   34.4780   29.4890   34.9950 C   0  0  0  0  0  0  0  0  0  0  0  0
   33.6640   29.1320   36.0460 C   0  0  0  0  0  0  0  0  0  0  0  0
   37.3930   29.1880   36.8210 H   0  0  0  0  0  0  0  0  0  0  0  0
   36.5890   29.7770   34.5320 H   0  0  0  0  0  0  0  0  0  0  0  0
   34.1390   29.7450   34.0040 H   0  0  0  0  0  0  0  0  0  0  0  0
   33.1670   28.5050   38.1730 O   0  0  0  0  0  0  0  0  0  0  0  0
   32.9940   29.2330   38.8590 H   0  0  0  0  0  0  0  0  0  0  0  0
   32.3290   29.1230   35.7110 O   0  0  0  0  0  0  0  0  0  0  0  0
   30.7110   29.9460   37.9710 Cl  0  0  0  0  0  0  0  0  0  0  0  0
   30.9120   30.7350   36.4000 C   0  0  0  0  0  0  0  0  0  0  0  0
   31.7080   30.2980   35.3390 C   0  0  0  0  0  0  0  0  0  0  0  0
   31.7220   31.0680   34.1950 C   0  0  0  0  0  0  0  0  0  0  0  0
   32.3720   30.6470   33.4440 H   0  0  0  0  0  0  0  0  0  0  0  0
   30.9750   32.2210   34.1150 C   0  0  0  0  0  0  0  0  0  0  0  0
   31.0640   32.7310   33.1880 H   0  0  0  0  0  0  0  0  0  0  0  0
   30.1850   32.6650   35.1540 C   0  0  0  0  0  3  0  0  0  0  0  0
   30.1560   31.9100   36.3070 C   0  0  0  0  0  3  0  0  0  0  0  0
   35.2680   25.6030   35.2270 C   0  0  0  0  0  0  0  0  0  0  0  0
   33.9140   25.2540   35.4380 C   0  0  0  0  0  0  0  0  0  0  0  0
   33.4800   25.2480   36.7480 C   0  0  0  0  0  0  0  0  0  0  0  0
   34.4020   25.5700   37.6500 N   0  0  0  0  0  0  0  0  0  0  0  0
   35.6780   25.9000   37.4900 C   0  0  0  0  0  0  0  0  0  0  0  0
   36.0720   25.9060   36.2520 N   0  0  0  0  0  0  0  0  0  0  0  0
   35.6190   25.6120   34.1970 H   0  0  0  0  0  0  0  0  0  0  0  0
   33.2500   25.0060   34.6340 H   0  0  0  0  0  0  0  0  0  0  0  0
   32.1330   24.9870   37.0960 N   0  0  0  0  0  0  0  0  0  0  0  0
   31.4340   24.8910   36.3330 H   0  0  0  0  0  0  0  0  0  0  0  0
   31.8930   24.9020   38.0940 H   0  0  0  0  0  0  0  0  0  0  0  0
  1  2  2  0  0  0  0
  1 10  1  0  0  0  0
  2  3  1  0  0  0  0
  3 12  1  0  0  0  0
  3  4  2  0  0  0  0
  4 13  1  0  0  0  0
  5  4  1  0  0  0  0
  5  6  1  0  0  0  0
  6 14  1  0  0  0  0
  7 15  1  0  0  0  0
  7  6  2  0  0  0  0
  8  7  1  0  0  0  0
  9 10  1  0  0  0  0
  9  8  2  0  0  0  0
 10  5  2  0  0  0  0
 11  2  1  0  0  0  0
 16  8  1  0  0  0  0
 17 18  1  0  0  0  0
 17 26  1  0  0  0  0
 18  9  1  0  0  0  0
 19 23  1  0  0  0  0
 19 18  2  0  0  0  0
 20 19  1  0  0  0  0
 21 20  2  0  0  0  0
 21 22  1  0  0  0  0
 22 17  2  0  0  0  0
 24 20  1  0  0  0  0
 25 21  1  0  0  0  0
 26 27  1  0  0  0  0
 28 22  1  0  0  0  0
 30 29  1  0  0  0  0
 31 28  1  0  0  0  0
 31 30  2  0  0  0  0
 32 31  1  0  0  0  0
 33 32  1  0  0  0  0
 34 32  2  0  0  0  0
 34 36  1  0  0  0  0
 35 34  1  0  0  0  0
 36 37  2  0  0  0  0
 37 30  1  0  0  0  0
 38 39  2  0  0  0  0
 38 43  1  0  0  0  0
 39 40  1  0  0  0  0
 40 46  1  0  0  0  0
 40 41  2  0  0  0  0
 42 41  1  0  0  0  0
 42  1  1  0  0  0  0
 43 42  2  0  0  0  0
 44 38  1  0  0  0  0
 45 39  1  0  0  0  0
 46 48  1  0  0  0  0
 47 46  1  0  0  0  0
M  END
>  <minimizedAffinity>
-6.88232327

$$$$

 OpenBabel03242521573D

 48 52  0  0  0  0  0  0  0  0999 V2000
   37.0740   29.3390   36.7380 C   0  0  0  0  0  0  0  0  0  0  0  0
   37.3370   28.9000   35.4410 C   0  0  0  0  0  0  0  0  0  0  0  0
   36.3470   28.3750   34.6000 C   0  0  0  0  0  0  0  0  0  0  0  0
   35.0540   28.2700   35.0300 C   0  0  0  0  0  0  0  0  0  0  0  0
   34.7660   28.7000   36.3360 C   0  0  0  0  0  0  0  0  0  0  0  0
   33.4790   28.5290   36.7470 C   0  0  0  0  0  0  0  0  0  0  0  0
   33.1730   28.8750   38.0660 C   0  0  0  0  0  0  0  0  0  0  0  0
   34.2260   29.3790   38.9070 C   0  0  0  0  0  0  0  0  0  0  0  0
   35.4760   29.4940   38.3440 C   0  0  0  0  0  0  0  0  0  0  0  0
   35.8220   29.2030   37.1010 C   0  0  0  0  0  0  0  0  0  0  0  0
   38.3780   28.9790   35.0850 H   0  0  0  0  0  0  0  0  0  0  0  0
   36.6380   28.0550   33.6060 H   0  0  0  0  0  0  0  0  0  0  0  0
   34.2780   27.8720   34.3880 H   0  0  0  0  0  0  0  0  0  0  0  0
   32.7270   28.1390   36.0730 H   0  0  0  0  0  0  0  0  0  0  0  0
   32.1380   28.7170   38.3140 H   0  0  0  0  0  0  0  0  0  0  0  0
   33.7070   29.5540   39.8360 H   0  0  0  0  0  0  0  0  0  0  0  0
   36.2680   28.2990   40.1810 C   0  0  0  0  0  0  0  0  0  0  0  0
   36.1160   29.6330   39.6330 C   0  0  0  0  0  0  0  0  0  0  0  0
   36.4740   30.5480   40.5310 C   0  0  0  0  0  0  0  0  0  0  0  0
   36.9260   30.3000   41.8120 C   0  0  0  0  0  0  0  0  0  0  0  0
   37.0570   29.0300   42.3080 C   0  0  0  0  0  0  0  0  0  0  0  0
   36.7130   28.0080   41.4540 C   0  0  0  0  0  0  0  0  0  0  0  0
   36.3310   31.5200   40.0290 H   0  0  0  0  0  0  0  0  0  0  0  0
   37.1580   31.2070   42.3640 H   0  0  0  0  0  0  0  0  0  0  0  0
   37.4150   28.9040   43.3180 H   0  0  0  0  0  0  0  0  0  0  0  0
   35.9920   27.0740   39.5110 O   0  0  0  0  0  0  0  0  0  0  0  0
   36.6840   26.8420   38.8060 H   0  0  0  0  0  0  0  0  0  0  0  0
   36.8640   26.7620   42.0180 O   0  0  0  0  0  0  0  0  0  0  0  0
   37.3070   24.0240   41.1770 Cl  0  0  0  0  0  0  0  0  0  0  0  0
   38.3460   25.0690   42.1560 C   0  0  0  0  0  0  0  0  0  0  0  0
   38.0880   26.3890   42.5350 C   0  0  0  0  0  0  0  0  0  0  0  0
   39.0380   27.0260   43.3050 C   0  0  0  0  0  0  0  0  0  0  0  0
   38.7450   28.0390   43.5330 H   0  0  0  0  0  0  0  0  0  0  0  0
   40.1930   26.3760   43.6780 C   0  0  0  0  0  0  0  0  0  0  0  0
   40.8500   26.9650   44.2680 H   0  0  0  0  0  0  0  0  0  0  0  0
   40.4610   25.0750   43.3110 C   0  0  0  0  0  3  0  0  0  0  0  0
   39.5240   24.4170   42.5420 C   0  0  0  0  0  3  0  0  0  0  0  0
   39.2130   31.8620   38.4680 C   0  0  0  0  0  0  0  0  0  0  0  0
   40.0930   30.9970   39.1600 C   0  0  0  0  0  0  0  0  0  0  0  0
   39.9060   29.6450   38.9600 C   0  0  0  0  0  0  0  0  0  0  0  0
   38.9090   29.3280   38.1390 N   0  0  0  0  0  0  0  0  0  0  0  0
   38.0640   30.1090   37.4770 C   0  0  0  0  0  0  0  0  0  0  0  0
   38.2550   31.3790   37.6710 N   0  0  0  0  0  0  0  0  0  0  0  0
   39.3540   32.9300   38.6190 H   0  0  0  0  0  0  0  0  0  0  0  0
   40.8680   31.3590   39.8060 H   0  0  0  0  0  0  0  0  0  0  0  0
   40.7590   28.6710   39.5330 N   0  0  0  0  0  0  0  0  0  0  0  0
   41.6060   28.9930   40.0410 H   0  0  0  0  0  0  0  0  0  0  0  0
   40.5100   27.6770   39.4250 H   0  0  0  0  0  0  0  0  0  0  0  0
  1 10  1  0  0  0  0
  1 42  1  0  0  0  0
  2  1  2  0  0  0  0
  3  4  2  0  0  0  0
  3  2  1  0  0  0  0
  4  5  1  0  0  0  0
  5  6  2  0  0  0  0
  5 10  1  0  0  0  0
  6  7  1  0  0  0  0
  7 15  1  0  0  0  0
  7  8  2  0  0  0  0
  8 16  1  0  0  0  0
  9  8  1  0  0  0  0
  9 18  1  0  0  0  0
 10  9  2  0  0  0  0
 11  2  1  0  0  0  0
 12  3  1  0  0  0  0
 13  4  1  0  0  0  0
 14  6  1  0  0  0  0
 17 22  1  0  0  0  0
 18 17  2  0  0  0  0
 18 19  1  0  0  0  0
 19 20  2  0  0  0  0
 20 21  1  0  0  0  0
 20 24  1  0  0  0  0
 21 25  1  0  0  0  0
 22 28  1  0  0  0  0
 22 21  2  0  0  0  0
 23 19  1  0  0  0  0
 26 17  1  0  0  0  0
 27 26  1  0  0  0  0
 28 31  1  0  0  0  0
 29 30  1  0  0  0  0
 30 31  2  0  0  0  0
 30 37  1  0  0  0  0
 31 32  1  0  0  0  0
 32 33  1  0  0  0  0
 32 34  2  0  0  0  0
 34 35  1  0  0  0  0
 36 34  1  0  0  0  0
 37 36  2  0  0  0  0
 38 44  1  0  0  0  0
 38 39  1  0  0  0  0
 39 45  1  0  0  0  0
 40 39  2  0  0  0  0
 40 46  1  0  0  0  0
 41 40  1  0  0  0  0
 42 43  1  0  0  0  0
 42 41  2  0  0  0  0
 43 38  2  0  0  0  0
 46 47  1  0  0  0  0
 48 46  1  0  0  0  0
M  END
>  <minimizedAffinity>
-6.80035782

$$$$

 OpenBabel03242521573D

 48 52  0  0  0  0  0  0  0  0999 V2000
   37.5180   30.7730   40.3260 C   0  0  0  0  0  0  0  0  0  0  0  0
   36.3630   30.6250   39.5590 C   0  0  0  0  0  0  0  0  0  0  0  0
   35.4090   29.6300   39.8040 C   0  0  0  0  0  0  0  0  0  0  0  0
   35.5770   28.7420   40.8300 C   0  0  0  0  0  0  0  0  0  0  0  0
   36.7380   28.8670   41.6120 C   0  0  0  0  0  0  0  0  0  0  0  0
   36.8980   27.9310   42.5890 C   0  0  0  0  0  0  0  0  0  0  0  0
   38.0770   27.9770   43.3380 C   0  0  0  0  0  0  0  0  0  0  0  0
   39.0460   28.9960   43.0320 C   0  0  0  0  0  0  0  0  0  0  0  0
   38.7380   29.8690   42.0150 C   0  0  0  0  0  0  0  0  0  0  0  0
   37.6350   29.8870   41.2860 C   0  0  0  0  0  0  0  0  0  0  0  0
   36.2170   31.3360   38.7290 H   0  0  0  0  0  0  0  0  0  0  0  0
   34.5390   29.5850   39.1580 H   0  0  0  0  0  0  0  0  0  0  0  0
   34.8440   27.9720   41.0340 H   0  0  0  0  0  0  0  0  0  0  0  0
   36.1370   27.1830   42.7720 H   0  0  0  0  0  0  0  0  0  0  0  0
   38.1280   27.2120   44.0920 H   0  0  0  0  0  0  0  0  0  0  0  0
   39.8240   28.7880   43.7500 H   0  0  0  0  0  0  0  0  0  0  0  0
   40.7460   29.5380   40.8800 C   0  0  0  0  0  0  0  0  0  0  0  0
   40.1040   30.3320   41.9090 C   0  0  0  0  0  0  0  0  0  0  0  0
   40.9930   31.1170   42.5140 C   0  0  0  0  0  0  0  0  0  0  0  0
   42.3420   31.1880   42.2320 C   0  0  0  0  0  0  0  0  0  0  0  0
   42.9270   30.4240   41.2570 C   0  0  0  0  0  0  0  0  0  0  0  0
   42.0890   29.5760   40.5680 C   0  0  0  0  0  0  0  0  0  0  0  0
   40.4180   31.6800   43.2690 H   0  0  0  0  0  0  0  0  0  0  0  0
   42.8700   31.9020   42.8570 H   0  0  0  0  0  0  0  0  0  0  0  0
   43.9870   30.5260   41.0860 H   0  0  0  0  0  0  0  0  0  0  0  0
   40.1140   28.5940   40.0220 O   0  0  0  0  0  0  0  0  0  0  0  0
   39.5450   29.0310   39.3030 H   0  0  0  0  0  0  0  0  0  0  0  0
   42.7430   28.8370   39.6100 O   0  0  0  0  0  0  0  0  0  0  0  0
   41.9070   26.8660   37.6560 Cl  0  0  0  0  0  0  0  0  0  0  0  0
   42.6020   28.4700   37.3900 C   0  0  0  0  0  0  0  0  0  0  0  0
   42.9890   29.3890   38.3690 C   0  0  0  0  0  0  0  0  0  0  0  0
   43.5110   30.5910   37.9410 C   0  0  0  0  0  0  0  0  0  0  0  0
   43.7680   31.2270   38.7740 H   0  0  0  0  0  0  0  0  0  0  0  0
   43.6410   30.8650   36.5990 C   0  0  0  0  0  0  0  0  0  0  0  0
   44.0540   31.8190   36.3890 H   0  0  0  0  0  0  0  0  0  0  0  0
   43.2630   29.9690   35.6210 C   0  0  0  0  0  3  0  0  0  0  0  0
   42.7380   28.7590   36.0260 C   0  0  0  0  0  3  0  0  0  0  0  0
   39.4440   33.9510   40.6750 C   0  0  0  0  0  0  0  0  0  0  0  0
   40.1980   33.9080   39.4780 C   0  0  0  0  0  0  0  0  0  0  0  0
   39.9690   32.8290   38.6490 C   0  0  0  0  0  0  0  0  0  0  0  0
   39.0650   31.9590   39.0900 N   0  0  0  0  0  0  0  0  0  0  0  0
   38.3430   31.9650   40.2050 C   0  0  0  0  0  0  0  0  0  0  0  0
   38.5660   32.9890   40.9730 N   0  0  0  0  0  0  0  0  0  0  0  0
   39.6170   34.7990   41.3340 H   0  0  0  0  0  0  0  0  0  0  0  0
   40.9090   34.6660   39.2170 H   0  0  0  0  0  0  0  0  0  0  0  0
   40.6000   32.6980   37.3880 N   0  0  0  0  0  0  0  0  0  0  0  0
   41.1790   33.4880   37.0410 H   0  0  0  0  0  0  0  0  0  0  0  0
   40.4620   31.8250   36.8600 H   0  0  0  0  0  0  0  0  0  0  0  0
  1 10  1  0  0  0  0
  2  3  1  0  0  0  0
  2  1  2  0  0  0  0
  3  4  2  0  0  0  0
  4 13  1  0  0  0  0
  4  5  1  0  0  0  0
  5  6  1  0  0  0  0
  6 14  1  0  0  0  0
  6  7  2  0  0  0  0
  7 15  1  0  0  0  0
  8  7  1  0  0  0  0
  8 16  1  0  0  0  0
  9  8  2  0  0  0  0
 10  5  2  0  0  0  0
 10  9  1  0  0  0  0
 11  2  1  0  0  0  0
 12  3  1  0  0  0  0
 17 18  1  0  0  0  0
 18  9  1  0  0  0  0
 18 19  2  0  0  0  0
 19 23  1  0  0  0  0
 20 19  1  0  0  0  0
 20 24  1  0  0  0  0
 21 20  2  0  0  0  0
 22 17  2  0  0  0  0
 22 21  1  0  0  0  0
 25 21  1  0  0  0  0
 26 17  1  0  0  0  0
 27 26  1  0  0  0  0
 28 22  1  0  0  0  0
 30 29  1  0  0  0  0
 30 31  1  0  0  0  0
 31 28  1  0  0  0  0
 32 31  2  0  0  0  0
 32 33  1  0  0  0  0
 34 32  1  0  0  0  0
 35 34  1  0  0  0  0
 36 37  1  0  0  0  0
 36 34  2  0  0  0  0
 37 30  2  0  0  0  0
 38 43  1  0  0  0  0
 38 44  1  0  0  0  0
 39 38  2  0  0  0  0
 40 41  2  0  0  0  0
 40 39  1  0  0  0  0
 41 42  1  0  0  0  0
 42  1  1  0  0  0  0
 42 43  2  0  0  0  0
 45 39  1  0  0  0  0
 46 40  1  0  0  0  0
 47 46  1  0  0  0  0
 48 46  1  0  0  0  0
M  END
>  <minimizedAffinity>
-6.74691248

$$$$

 OpenBabel03242521573D

 48 52  0  0  0  0  0  0  0  0999 V2000
   36.9670   26.2700   38.9850 C   0  0  0  0  0  0  0  0  0  0  0  0
   36.8430   25.3610   37.9360 C   0  0  0  0  0  0  0  0  0  0  0  0
   35.8540   25.4680   36.9490 C   0  0  0  0  0  0  0  0  0  0  0  0
   34.9510   26.4930   36.9780 C   0  0  0  0  0  0  0  0  0  0  0  0
   35.0520   27.4180   38.0310 C   0  0  0  0  0  0  0  0  0  0  0  0
   34.1010   28.3930   38.0570 C   0  0  0  0  0  0  0  0  0  0  0  0
   34.1240   29.2860   39.1310 C   0  0  0  0  0  0  0  0  0  0  0  0
   35.1360   29.1210   40.1410 C   0  0  0  0  0  0  0  0  0  0  0  0
   36.0260   28.0860   39.9720 C   0  0  0  0  0  0  0  0  0  0  0  0
   36.0670   27.2230   38.9710 C   0  0  0  0  0  0  0  0  0  0  0  0
   37.5670   24.5300   37.9030 H   0  0  0  0  0  0  0  0  0  0  0  0
   35.8280   24.7160   36.1690 H   0  0  0  0  0  0  0  0  0  0  0  0
   34.1870   26.5910   36.2180 H   0  0  0  0  0  0  0  0  0  0  0  0
   33.3590   28.4670   37.2720 H   0  0  0  0  0  0  0  0  0  0  0  0
   33.3470   30.0290   39.0800 H   0  0  0  0  0  0  0  0  0  0  0  0
   34.9090   29.9290   40.8200 H   0  0  0  0  0  0  0  0  0  0  0  0
   37.4530   29.2290   41.4180 C   0  0  0  0  0  0  0  0  0  0  0  0
   36.4750   28.1620   41.3450 C   0  0  0  0  0  0  0  0  0  0  0  0
   36.4080   27.5120   42.5060 C   0  0  0  0  0  0  0  0  0  0  0  0
   37.1520   27.7840   43.6360 C   0  0  0  0  0  0  0  0  0  0  0  0
   38.0740   28.7970   43.6780 C   0  0  0  0  0  0  0  0  0  0  0  0
   38.2190   29.5330   42.5240 C   0  0  0  0  0  0  0  0  0  0  0  0
   35.6440   26.7300   42.3580 H   0  0  0  0  0  0  0  0  0  0  0  0
   36.9250   27.1200   44.4650 H   0  0  0  0  0  0  0  0  0  0  0  0
   38.6240   28.9580   44.5920 H   0  0  0  0  0  0  0  0  0  0  0  0
   37.7900   30.1390   40.3760 O   0  0  0  0  0  0  0  0  0  0  0  0
   37.0710   30.8360   40.2090 H   0  0  0  0  0  0  0  0  0  0  0  0
   39.1630   30.5270   42.6360 O   0  0  0  0  0  0  0  0  0  0  0  0
   40.1820   32.5010   40.7740 Cl  0  0  0  0  0  0  0  0  0  0  0  0
   41.0340   31.1570   41.5470 C   0  0  0  0  0  0  0  0  0  0  0  0
   40.4970   30.2280   42.4420 C   0  0  0  0  0  0  0  0  0  0  0  0
   41.3410   29.2540   42.9300 C   0  0  0  0  0  0  0  0  0  0  0  0
   40.8300   28.5970   43.6170 H   0  0  0  0  0  0  0  0  0  0  0  0
   42.6610   29.2070   42.5410 C   0  0  0  0  0  0  0  0  0  0  0  0
   43.2140   28.4150   42.9810 H   0  0  0  0  0  0  0  0  0  0  0  0
   43.2050   30.1160   41.6590 C   0  0  0  0  0  3  0  0  0  0  0  0
   42.3780   31.1000   41.1580 C   0  0  0  0  0  3  0  0  0  0  0  0
   40.1400   26.8900   40.8500 C   0  0  0  0  0  0  0  0  0  0  0  0
   40.0680   25.8460   41.8020 C   0  0  0  0  0  0  0  0  0  0  0  0
   38.9720   25.0110   41.7130 C   0  0  0  0  0  0  0  0  0  0  0  0
   38.1180   25.3030   40.7380 N   0  0  0  0  0  0  0  0  0  0  0  0
   38.1510   26.2730   39.8310 C   0  0  0  0  0  0  0  0  0  0  0  0
   39.1900   27.0470   39.9240 N   0  0  0  0  0  0  0  0  0  0  0  0
   41.0020   27.5520   40.9120 H   0  0  0  0  0  0  0  0  0  0  0  0
   40.8160   25.6990   42.5560 H   0  0  0  0  0  0  0  0  0  0  0  0
   38.8110   23.8850   42.5560 N   0  0  0  0  0  0  0  0  0  0  0  0
   39.5900   23.6290   43.1940 H   0  0  0  0  0  0  0  0  0  0  0  0
   37.9270   23.3580   42.5050 H   0  0  0  0  0  0  0  0  0  0  0  0
  1 42  1  0  0  0  0
  2  1  2  0  0  0  0
  3  4  2  0  0  0  0
  3  2  1  0  0  0  0
  4  5  1  0  0  0  0
  5  6  2  0  0  0  0
  5 10  1  0  0  0  0
  6  7  1  0  0  0  0
  7  8  2  0  0  0  0
  8 16  1  0  0  0  0
  9  8  1  0  0  0  0
  9 18  1  0  0  0  0
 10  1  1  0  0  0  0
 10  9  2  0  0  0  0
 11  2  1  0  0  0  0
 12  3  1  0  0  0  0
 13  4  1  0  0  0  0
 14  6  1  0  0  0  0
 15  7  1  0  0  0  0
 17 22  1  0  0  0  0
 18 17  2  0  0  0  0
 18 19  1  0  0  0  0
 19 20  2  0  0  0  0
 20 21  1  0  0  0  0
 20 24  1  0  0  0  0
 21 25  1  0  0  0  0
 22 28  1  0  0  0  0
 22 21  2  0  0  0  0
 23 19  1  0  0  0  0
 26 17  1  0  0  0  0
 27 26  1  0  0  0  0
 29 30  1  0  0  0  0
 30 31  1  0  0  0  0
 31 28  1  0  0  0  0
 31 32  2  0  0  0  0
 32 33  1  0  0  0  0
 34 32  1  0  0  0  0
 34 35  1  0  0  0  0
 36 34  2  0  0  0  0
 37 30  2  0  0  0  0
 37 36  1  0  0  0  0
 38 44  1  0  0  0  0
 38 39  1  0  0  0  0
 39 45  1  0  0  0  0
 40 39  2  0  0  0  0
 40 46  1  0  0  0  0
 41 40  1  0  0  0  0
 42 43  1  0  0  0  0
 42 41  2  0  0  0  0
 43 38  2  0  0  0  0
 46 47  1  0  0  0  0
 48 46  1  0  0  0  0
M  END
>  <minimizedAffinity>
-6.73083591

$$$$

 OpenBabel03242521573D

 48 52  0  0  0  0  0  0  0  0999 V2000
   37.7850   31.7000   40.4030 C   0  0  0  0  0  0  0  0  0  0  0  0
   37.3230   32.8840   39.8310 C   0  0  0  0  0  0  0  0  0  0  0  0
   38.1240   34.0240   39.6860 C   0  0  0  0  0  0  0  0  0  0  0  0
   39.4230   34.0180   40.1120 C   0  0  0  0  0  0  0  0  0  0  0  0
   39.9100   32.8380   40.6990 C   0  0  0  0  0  0  0  0  0  0  0  0
   41.1910   32.8890   41.1600 C   0  0  0  0  0  0  0  0  0  0  0  0
   41.6830   31.7590   41.8180 C   0  0  0  0  0  0  0  0  0  0  0  0
   40.8160   30.6210   41.9740 C   0  0  0  0  0  0  0  0  0  0  0  0
   39.5470   30.7250   41.4520 C   0  0  0  0  0  0  0  0  0  0  0  0
   39.0310   31.7560   40.8050 C   0  0  0  0  0  0  0  0  0  0  0  0
   36.2760   32.9000   39.4840 H   0  0  0  0  0  0  0  0  0  0  0  0
   37.6840   34.9040   39.2310 H   0  0  0  0  0  0  0  0  0  0  0  0
   40.0550   34.8900   40.0000 H   0  0  0  0  0  0  0  0  0  0  0  0
   41.7970   33.7740   41.0200 H   0  0  0  0  0  0  0  0  0  0  0  0
   42.7010   31.8720   42.1480 H   0  0  0  0  0  0  0  0  0  0  0  0
   41.4500   29.9260   42.5020 H   0  0  0  0  0  0  0  0  0  0  0  0
   39.3480   28.4030   41.4000 C   0  0  0  0  0  0  0  0  0  0  0  0
   39.0750   29.5800   42.2000 C   0  0  0  0  0  0  0  0  0  0  0  0
   38.3650   29.2550   43.2780 C   0  0  0  0  0  0  0  0  0  0  0  0
   37.9290   27.9900   43.6160 C   0  0  0  0  0  0  0  0  0  0  0  0
   38.1970   26.8930   42.8400 C   0  0  0  0  0  0  0  0  0  0  0  0
   38.9300   27.1230   41.6990 C   0  0  0  0  0  0  0  0  0  0  0  0
   38.2100   30.2030   43.8220 H   0  0  0  0  0  0  0  0  0  0  0  0
   37.3640   27.9680   44.5440 H   0  0  0  0  0  0  0  0  0  0  0  0
   37.8270   25.9310   43.1590 H   0  0  0  0  0  0  0  0  0  0  0  0
   40.0880   28.3610   40.1840 O   0  0  0  0  0  0  0  0  0  0  0  0
   41.0870   28.4750   40.3220 H   0  0  0  0  0  0  0  0  0  0  0  0
   39.1570   25.9810   40.9660 O   0  0  0  0  0  0  0  0  0  0  0  0
   39.6320   25.6580   38.1250 Cl  0  0  0  0  0  0  0  0  0  0  0  0
   38.2720   25.0810   39.0990 C   0  0  0  0  0  0  0  0  0  0  0  0
   38.0880   25.2610   40.4710 C   0  0  0  0  0  0  0  0  0  0  0  0
   36.9500   24.7260   41.0360 C   0  0  0  0  0  0  0  0  0  0  0  0
   36.9110   24.9140   42.0980 H   0  0  0  0  0  0  0  0  0  0  0  0
   36.0380   24.0410   40.2650 C   0  0  0  0  0  0  0  0  0  0  0  0
   35.2020   23.6740   40.8070 H   0  0  0  0  0  0  0  0  0  0  0  0
   36.2060   23.8550   38.9100 C   0  0  0  0  0  3  0  0  0  0  0  0
   37.3370   24.3830   38.3240 C   0  0  0  0  0  3  0  0  0  0  0  0
   35.4470   28.8040   40.6830 C   0  0  0  0  0  0  0  0  0  0  0  0
   35.7640   28.1220   39.4840 C   0  0  0  0  0  0  0  0  0  0  0  0
   36.7550   28.6830   38.7050 C   0  0  0  0  0  0  0  0  0  0  0  0
   37.2840   29.8050   39.1840 N   0  0  0  0  0  0  0  0  0  0  0  0
   37.0110   30.4730   40.2990 C   0  0  0  0  0  0  0  0  0  0  0  0
   36.0800   29.9300   41.0250 N   0  0  0  0  0  0  0  0  0  0  0  0
   34.6680   28.3670   41.3050 H   0  0  0  0  0  0  0  0  0  0  0  0
   35.2700   27.2180   39.1870 H   0  0  0  0  0  0  0  0  0  0  0  0
   37.2200   28.0690   37.5170 N   0  0  0  0  0  0  0  0  0  0  0  0
   36.8690   27.1200   37.2810 H   0  0  0  0  0  0  0  0  0  0  0  0
   37.8920   28.5840   36.9300 H   0  0  0  0  0  0  0  0  0  0  0  0
  1 10  1  0  0  0  0
  2  1  2  0  0  0  0
  3  2  1  0  0  0  0
  3  4  2  0  0  0  0
  4  5  1  0  0  0  0
  5 10  2  0  0  0  0
  5  6  1  0  0  0  0
  6  7  2  0  0  0  0
  7  8  1  0  0  0  0
  7 15  1  0  0  0  0
  8 16  1  0  0  0  0
  9  8  2  0  0  0  0
  9 18  1  0  0  0  0
 10  9  1  0  0  0  0
 11  2  1  0  0  0  0
 12  3  1  0  0  0  0
 13  4  1  0  0  0  0
 14  6  1  0  0  0  0
 17 22  2  0  0  0  0
 17 18  1  0  0  0  0
 18 19  2  0  0  0  0
 19 20  1  0  0  0  0
 19 23  1  0  0  0  0
 20 24  1  0  0  0  0
 21 25  1  0  0  0  0
 21 20  2  0  0  0  0
 22 21  1  0  0  0  0
 26 27  1  0  0  0  0
 26 17  1  0  0  0  0
 28 22  1  0  0  0  0
 29 30  1  0  0  0  0
 30 31  1  0  0  0  0
 31 28  1  0  0  0  0
 31 32  2  0  0  0  0
 32 33  1  0  0  0  0
 34 35  1  0  0  0  0
 34 32  1  0  0  0  0
 36 34  2  0  0  0  0
 37 36  1  0  0  0  0
 37 30  2  0  0  0  0
 38 43  1  0  0  0  0
 38 44  1  0  0  0  0
 39 38  2  0  0  0  0
 40 41  2  0  0  0  0
 40 39  1  0  0  0  0
 41 42  1  0  0  0  0
 42  1  1  0  0  0  0
 42 43  2  0  0  0  0
 45 39  1  0  0  0  0
 46 40  1  0  0  0  0
 47 46  1  0  0  0  0
 48 46  1  0  0  0  0
M  END
>  <minimizedAffinity>
-6.69014072

$$$$
