
 OpenBabel03252506483D

 42 45  0  0  1  0  0  0  0  0999 V2000
   40.0880   31.8190   39.1660 N   0  0  1  0  0  0  0  0  0  0  0  0
   39.5480   33.1070   39.4890 C   0  0  0  0  0  0  0  0  0  0  0  0
   38.1760   33.0440   40.0920 C   0  0  0  0  0  0  0  0  0  0  0  0
   37.2170   32.5610   39.0350 C   0  0  0  0  0  0  0  0  0  0  0  0
   37.8490   31.4970   38.1830 C   0  0  0  0  0  0  0  0  0  0  0  0
   39.0360   30.8660   38.9350 C   0  0  2  0  0  0  0  0  0  0  0  0
   40.2270   33.6750   40.1610 H   0  0  0  0  0  0  0  0  0  0  0  0
   39.4620   33.6830   38.5350 H   0  0  0  0  0  0  0  0  0  0  0  0
   37.9390   34.1270   40.3500 H   0  0  0  0  0  0  0  0  0  0  0  0
   38.1220   32.5200   41.0320 H   0  0  0  0  0  0  0  0  0  0  0  0
   37.0510   33.4750   38.3670 H   0  0  0  0  0  0  0  0  0  0  0  0
   36.2180   32.3050   39.3780 H   0  0  0  0  0  0  0  0  0  0  0  0
   38.2870   31.9400   37.2570 H   0  0  0  0  0  0  0  0  0  0  0  0
   37.1550   30.6720   37.9740 H   0  0  0  0  0  0  0  0  0  0  0  0
   39.4310   30.1640   38.1370 H   0  0  0  0  0  0  0  0  0  0  0  0
   42.4760   32.0450   38.2040 C   0  0  1  0  0  0  0  0  0  0  0  0
   41.6850   33.2710   37.9410 C   0  0  0  0  0  0  0  0  0  0  0  0
   40.9970   31.9680   38.0910 C   0  0  2  0  0  0  0  0  0  0  0  0
   42.8780   31.9500   39.2480 H   0  0  0  0  0  0  0  0  0  0  0  0
   41.8570   33.7370   36.9370 H   0  0  0  0  0  0  0  0  0  0  0  0
   41.6020   34.0450   38.7450 H   0  0  0  0  0  0  0  0  0  0  0  0
   40.6560   31.4750   37.1400 H   0  0  0  0  0  0  0  0  0  0  0  0
   42.8570   30.5570   36.2090 C   0  0  0  0  0  0  0  0  0  0  0  0
   43.3270   31.5060   37.1340 C   0  0  0  0  0  0  0  0  0  0  0  0
   44.6660   31.9400   36.9970 C   0  0  0  0  0  0  0  0  0  0  0  0
   45.4130   31.4180   35.9880 N   0  0  0  0  0  0  0  0  0  0  0  0
   44.9310   30.5090   35.1180 C   0  0  0  0  0  0  0  0  0  0  0  0
   43.6380   30.0630   35.2170 N   0  0  0  0  0  0  0  0  0  0  0  0
   41.8430   30.2030   36.2810 H   0  0  0  0  0  0  0  0  0  0  0  0
   45.0870   32.6620   37.6690 H   0  0  0  0  0  0  0  0  0  0  0  0
   45.5400   30.1010   34.3170 H   0  0  0  0  0  0  0  0  0  0  0  0
   38.5520   30.1970   40.0660 N   0  0  0  0  0  0  0  0  0  0  0  0
   39.3160   30.7310   40.5840 H   0  0  0  0  0  0  0  0  0  0  0  0
   39.6540   30.7760   42.8990 Cl  0  0  0  0  0  0  0  0  0  0  0  0
   38.4120   29.5990   42.5420 C   0  0  0  0  0  0  0  0  0  0  0  0
   38.0740   29.5350   41.1820 C   0  0  0  0  0  0  0  0  0  0  0  0
   37.0800   28.5990   40.8620 C   0  0  0  0  0  0  0  0  0  0  0  0
   36.6510   28.3650   39.8690 H   0  0  0  0  0  0  0  0  0  0  0  0
   36.4570   27.7850   41.7810 C   0  0  0  0  0  0  0  0  0  0  0  0
   35.6890   27.0480   41.6110 H   0  0  0  0  0  0  0  0  0  0  0  0
   36.8920   27.9600   43.0710 C   0  0  0  0  0  3  0  0  0  0  0  0
   37.8470   28.8310   43.5180 C   0  0  0  0  0  3  0  0  0  0  0  0
  1  2  1  6  0  0  0
  2  3  1  0  0  0  0
  2  7  1  0  0  0  0
  3  9  1  0  0  0  0
  3 10  1  0  0  0  0
  4 12  1  0  0  0  0
  4  3  1  0  0  0  0
  5  6  1  0  0  0  0
  5  4  1  0  0  0  0
  6 15  1  6  0  0  0
  6  1  1  0  0  0  0
  6 32  1  0  0  0  0
  8  2  1  0  0  0  0
 11  4  1  0  0  0  0
 13  5  1  0  0  0  0
 14  5  1  0  0  0  0
 16 19  1  1  0  0  0
 17 18  1  0  0  0  0
 17 16  1  0  0  0  0
 17 21  1  0  0  0  0
 18 22  1  6  0  0  0
 18 16  1  0  0  0  0
 18  1  1  0  0  0  0
 20 17  1  0  0  0  0
 23 29  1  0  0  0  0
 23 24  1  0  0  0  0
 24 16  1  0  0  0  0
 25 24  2  0  0  0  0
 25 30  1  0  0  0  0
 26 25  1  0  0  0  0
 27 28  1  0  0  0  0
 27 26  2  0  0  0  0
 28 23  2  0  0  0  0
 31 27  1  0  0  0  0
 32 33  1  0  0  0  0
 32 36  1  0  0  0  0
 35 34  1  0  0  0  0
 35 42  1  0  0  0  0
 36 35  2  0  0  0  0
 37 36  1  0  0  0  0
 37 39  2  0  0  0  0
 38 37  1  0  0  0  0
 39 41  1  0  0  0  0
 40 39  1  0  0  0  0
 41 42  2  0  0  0  0
M  END
>  <minimizedAffinity>
-5.74145603

$$$$

 OpenBabel03252506483D

 42 45  0  0  1  0  0  0  0  0999 V2000
   37.5000   30.1320   40.1590 N   0  0  1  0  0  0  0  0  0  0  0  0
   36.1690   30.5730   40.4610 C   0  0  0  0  0  0  0  0  0  0  0  0
   35.1380   29.4920   40.3270 C   0  0  0  0  0  0  0  0  0  0  0  0
   35.0210   29.1300   38.8690 C   0  0  0  0  0  0  0  0  0  0  0  0
   36.3680   29.1420   38.2040 C   0  0  0  0  0  0  0  0  0  0  0  0
   37.4740   29.0040   39.2670 C   0  0  2  0  0  0  0  0  0  0  0  0
   36.1120   31.0220   41.4770 H   0  0  0  0  0  0  0  0  0  0  0  0
   35.9070   31.3720   39.7250 H   0  0  0  0  0  0  0  0  0  0  0  0
   34.1730   29.9890   40.6700 H   0  0  0  0  0  0  0  0  0  0  0  0
   35.2710   28.6590   40.9960 H   0  0  0  0  0  0  0  0  0  0  0  0
   34.4110   29.9840   38.4140 H   0  0  0  0  0  0  0  0  0  0  0  0
   34.4350   28.2430   38.6440 H   0  0  0  0  0  0  0  0  0  0  0  0
   36.5550   30.1240   37.7070 H   0  0  0  0  0  0  0  0  0  0  0  0
   36.4990   28.2900   37.5240 H   0  0  0  0  0  0  0  0  0  0  0  0
   38.3960   29.1110   38.6140 H   0  0  0  0  0  0  0  0  0  0  0  0
   39.6470   31.5660   40.0640 C   0  0  1  0  0  0  0  0  0  0  0  0
   38.5220   32.3400   40.6420 C   0  0  0  0  0  0  0  0  0  0  0  0
   38.2470   31.2390   39.6920 C   0  0  2  0  0  0  0  0  0  0  0  0
   40.1350   30.8370   40.7640 H   0  0  0  0  0  0  0  0  0  0  0  0
   38.4800   33.4150   40.3310 H   0  0  0  0  0  0  0  0  0  0  0  0
   38.2820   32.2170   41.7290 H   0  0  0  0  0  0  0  0  0  0  0  0
   37.9910   31.5450   38.6400 H   0  0  0  0  0  0  0  0  0  0  0  0
   41.0860   31.5350   37.9980 C   0  0  0  0  0  0  0  0  0  0  0  0
   40.5350   32.2230   39.0940 C   0  0  0  0  0  0  0  0  0  0  0  0
   40.8620   33.5910   39.2340 C   0  0  0  0  0  0  0  0  0  0  0  0
   41.6820   34.1560   38.3090 N   0  0  0  0  0  0  0  0  0  0  0  0
   42.1940   33.4680   37.2700 C   0  0  0  0  0  0  0  0  0  0  0  0
   41.9000   32.1400   37.0990 N   0  0  0  0  0  0  0  0  0  0  0  0
   40.8590   30.4920   37.8580 H   0  0  0  0  0  0  0  0  0  0  0  0
   40.4750   34.1740   40.0480 H   0  0  0  0  0  0  0  0  0  0  0  0
   42.8480   33.9340   36.5390 H   0  0  0  0  0  0  0  0  0  0  0  0
   37.3700   27.7440   39.8690 N   0  0  0  0  0  0  0  0  0  0  0  0
   36.9630   27.4420   38.9310 H   0  0  0  0  0  0  0  0  0  0  0  0
   36.7290   27.4260   42.8800 Cl  0  0  0  0  0  0  0  0  0  0  0  0
   37.0140   26.0950   41.7820 C   0  0  0  0  0  0  0  0  0  0  0  0
   37.2680   26.5000   40.4640 C   0  0  0  0  0  0  0  0  0  0  0  0
   37.5010   25.4540   39.5580 C   0  0  0  0  0  0  0  0  0  0  0  0
   37.7240   25.5210   38.4760 H   0  0  0  0  0  0  0  0  0  0  0  0
   37.4890   24.1200   39.8940 C   0  0  0  0  0  0  0  0  0  0  0  0
   37.6570   23.2670   39.2560 H   0  0  0  0  0  0  0  0  0  0  0  0
   37.2260   23.8780   41.2190 C   0  0  0  0  0  3  0  0  0  0  0  0
   36.9830   24.7970   42.2030 C   0  0  0  0  0  3  0  0  0  0  0  0
  1  2  1  6  0  0  0
  2  7  1  0  0  0  0
  3  2  1  0  0  0  0
  3  9  1  0  0  0  0
  3 10  1  0  0  0  0
  4  3  1  0  0  0  0
  5  4  1  0  0  0  0
  5  6  1  0  0  0  0
  6 15  1  6  0  0  0
  6 32  1  0  0  0  0
  6  1  1  0  0  0  0
  8  2  1  0  0  0  0
 11  4  1  0  0  0  0
 12  4  1  0  0  0  0
 13  5  1  0  0  0  0
 14  5  1  0  0  0  0
 16 17  1  0  0  0  0
 16 19  1  1  0  0  0
 17 21  1  0  0  0  0
 18 22  1  6  0  0  0
 18 16  1  0  0  0  0
 18  1  1  0  0  0  0
 18 17  1  0  0  0  0
 20 17  1  0  0  0  0
 23 24  1  0  0  0  0
 24 25  2  0  0  0  0
 24 16  1  0  0  0  0
 25 30  1  0  0  0  0
 26 25  1  0  0  0  0
 27 26  2  0  0  0  0
 28 27  1  0  0  0  0
 28 23  2  0  0  0  0
 29 23  1  0  0  0  0
 31 27  1  0  0  0  0
 32 36  1  0  0  0  0
 33 32  1  0  0  0  0
 35 42  1  0  0  0  0
 35 34  1  0  0  0  0
 36 35  2  0  0  0  0
 37 39  2  0  0  0  0
 37 36  1  0  0  0  0
 38 37  1  0  0  0  0
 39 41  1  0  0  0  0
 40 39  1  0  0  0  0
 41 42  2  0  0  0  0
M  END
>  <minimizedAffinity>
-5.42606497

$$$$

 OpenBabel03252506483D

 42 45  0  0  1  0  0  0  0  0999 V2000
   37.3950   30.0680   40.0210 N   0  0  1  0  0  0  0  0  0  0  0  0
   36.0870   30.5160   40.4000 C   0  0  0  0  0  0  0  0  0  0  0  0
   35.0350   29.4520   40.2830 C   0  0  0  0  0  0  0  0  0  0  0  0
   34.8450   29.1370   38.8220 C   0  0  0  0  0  0  0  0  0  0  0  0
   36.1580   29.1540   38.0930 C   0  0  0  0  0  0  0  0  0  0  0  0
   37.3110   28.9690   39.0970 C   0  0  2  0  0  0  0  0  0  0  0  0
   36.0840   30.9330   41.4310 H   0  0  0  0  0  0  0  0  0  0  0  0
   35.8000   31.3410   39.7030 H   0  0  0  0  0  0  0  0  0  0  0  0
   34.0940   29.9500   40.6880 H   0  0  0  0  0  0  0  0  0  0  0  0
   35.1880   28.5970   40.9190 H   0  0  0  0  0  0  0  0  0  0  0  0
   34.2250   30.0130   38.4230 H   0  0  0  0  0  0  0  0  0  0  0  0
   34.2360   28.2650   38.5980 H   0  0  0  0  0  0  0  0  0  0  0  0
   36.3350   30.1490   37.6190 H   0  0  0  0  0  0  0  0  0  0  0  0
   36.2450   28.3220   37.3820 H   0  0  0  0  0  0  0  0  0  0  0  0
   38.2020   29.0860   38.4050 H   0  0  0  0  0  0  0  0  0  0  0  0
   39.4890   31.5820   40.0100 C   0  0  1  0  0  0  0  0  0  0  0  0
   38.2960   32.3370   40.4630 C   0  0  0  0  0  0  0  0  0  0  0  0
   38.1340   31.1800   39.5530 C   0  0  2  0  0  0  0  0  0  0  0  0
   39.9500   30.9090   40.7810 H   0  0  0  0  0  0  0  0  0  0  0  0
   38.2380   33.3930   40.0930 H   0  0  0  0  0  0  0  0  0  0  0  0
   37.9790   32.2580   41.5340 H   0  0  0  0  0  0  0  0  0  0  0  0
   37.9470   31.4230   38.4710 H   0  0  0  0  0  0  0  0  0  0  0  0
   41.0330   31.5210   38.0220 C   0  0  0  0  0  0  0  0  0  0  0  0
   40.4230   32.2250   39.0750 C   0  0  0  0  0  0  0  0  0  0  0  0
   40.7360   33.5980   39.2060 C   0  0  0  0  0  0  0  0  0  0  0  0
   41.6010   34.1500   38.3150 N   0  0  0  0  0  0  0  0  0  0  0  0
   42.1680   33.4460   37.3160 C   0  0  0  0  0  0  0  0  0  0  0  0
   41.8900   32.1130   37.1550 N   0  0  0  0  0  0  0  0  0  0  0  0
   40.8180   30.4740   37.8900 H   0  0  0  0  0  0  0  0  0  0  0  0
   40.3060   34.1930   39.9880 H   0  0  0  0  0  0  0  0  0  0  0  0
   42.8570   33.9010   36.6110 H   0  0  0  0  0  0  0  0  0  0  0  0
   37.2190   27.6920   39.6640 N   0  0  0  0  0  0  0  0  0  0  0  0
   38.2850   27.7170   39.6430 H   0  0  0  0  0  0  0  0  0  0  0  0
   35.7210   25.3850   38.2480 Cl  0  0  0  0  0  0  0  0  0  0  0  0
   36.5030   25.2480   39.8050 C   0  0  0  0  0  0  0  0  0  0  0  0
   37.1280   26.4310   40.2250 C   0  0  0  0  0  0  0  0  0  0  0  0
   37.7650   26.3540   41.4720 C   0  0  0  0  0  0  0  0  0  0  0  0
   38.3170   27.1480   42.0110 H   0  0  0  0  0  0  0  0  0  0  0  0
   37.7990   25.2240   42.2570 C   0  0  0  0  0  0  0  0  0  0  0  0
   38.2660   25.0910   43.2190 H   0  0  0  0  0  0  0  0  0  0  0  0
   37.1450   24.1460   41.7150 C   0  0  0  0  0  3  0  0  0  0  0  0
   36.4870   24.0840   40.5180 C   0  0  0  0  0  3  0  0  0  0  0  0
  1  2  1  6  0  0  0
  2  7  1  0  0  0  0
  3  2  1  0  0  0  0
  3  9  1  0  0  0  0
  3 10  1  0  0  0  0
  4  3  1  0  0  0  0
  5  4  1  0  0  0  0
  5  6  1  0  0  0  0
  6 15  1  6  0  0  0
  6 32  1  0  0  0  0
  6  1  1  0  0  0  0
  8  2  1  0  0  0  0
 11  4  1  0  0  0  0
 12  4  1  0  0  0  0
 13  5  1  0  0  0  0
 14  5  1  0  0  0  0
 16 17  1  0  0  0  0
 16 19  1  1  0  0  0
 17 21  1  0  0  0  0
 18 22  1  6  0  0  0
 18 16  1  0  0  0  0
 18  1  1  0  0  0  0
 18 17  1  0  0  0  0
 20 17  1  0  0  0  0
 23 24  1  0  0  0  0
 24 25  2  0  0  0  0
 24 16  1  0  0  0  0
 25 30  1  0  0  0  0
 26 25  1  0  0  0  0
 27 26  2  0  0  0  0
 28 27  1  0  0  0  0
 28 23  2  0  0  0  0
 29 23  1  0  0  0  0
 31 27  1  0  0  0  0
 32 36  1  0  0  0  0
 33 32  1  0  0  0  0
 34 35  1  0  0  0  0
 35 36  2  0  0  0  0
 35 42  1  0  0  0  0
 36 37  1  0  0  0  0
 37 38  1  0  0  0  0
 37 39  2  0  0  0  0
 39 40  1  0  0  0  0
 41 39  1  0  0  0  0
 42 41  2  0  0  0  0
M  END
>  <minimizedAffinity>
-5.25986814

$$$$

 OpenBabel03252506483D

 42 45  0  0  1  0  0  0  0  0999 V2000
   39.6380   32.0610   40.2370 N   0  0  1  0  0  0  0  0  0  0  0  0
   38.5460   32.9900   40.2430 C   0  0  0  0  0  0  0  0  0  0  0  0
   37.2000   32.3290   40.1990 C   0  0  0  0  0  0  0  0  0  0  0  0
   37.0410   31.6720   38.8530 C   0  0  0  0  0  0  0  0  0  0  0  0
   38.3340   31.0560   38.4010 C   0  0  0  0  0  0  0  0  0  0  0  0
   39.2510   30.8230   39.6160 C   0  0  2  0  0  0  0  0  0  0  0  0
   38.6000   33.6730   41.1190 H   0  0  0  0  0  0  0  0  0  0  0  0
   38.6350   33.6170   39.3220 H   0  0  0  0  0  0  0  0  0  0  0  0
   36.4660   33.1950   40.2860 H   0  0  0  0  0  0  0  0  0  0  0  0
   36.9810   31.6990   41.0450 H   0  0  0  0  0  0  0  0  0  0  0  0
   36.8120   32.5390   38.1410 H   0  0  0  0  0  0  0  0  0  0  0  0
   36.1840   31.0120   38.7430 H   0  0  0  0  0  0  0  0  0  0  0  0
   38.8940   31.7550   37.7360 H   0  0  0  0  0  0  0  0  0  0  0  0
   38.1820   30.0670   37.9470 H   0  0  0  0  0  0  0  0  0  0  0  0
   40.1840   30.4400   39.0950 H   0  0  0  0  0  0  0  0  0  0  0  0
   42.1520   32.6570   40.1800 C   0  0  1  0  0  0  0  0  0  0  0  0
   41.3240   33.8780   40.3370 C   0  0  0  0  0  0  0  0  0  0  0  0
   40.7620   32.6900   39.6540 C   0  0  2  0  0  0  0  0  0  0  0  0
   42.2910   32.0510   41.1150 H   0  0  0  0  0  0  0  0  0  0  0  0
   41.6880   34.7710   39.7670 H   0  0  0  0  0  0  0  0  0  0  0  0
   40.9640   34.1610   41.3580 H   0  0  0  0  0  0  0  0  0  0  0  0
   40.7210   32.7380   38.5310 H   0  0  0  0  0  0  0  0  0  0  0  0
   43.8430   31.5160   38.7040 C   0  0  0  0  0  0  0  0  0  0  0  0
   43.2930   32.6880   39.2550 C   0  0  0  0  0  0  0  0  0  0  0  0
   43.8780   33.9190   38.8800 C   0  0  0  0  0  0  0  0  0  0  0  0
   44.9280   33.8980   38.0170 N   0  0  0  0  0  0  0  0  0  0  0  0
   45.4310   32.7560   37.5070 C   0  0  0  0  0  0  0  0  0  0  0  0
   44.8910   31.5420   37.8460 N   0  0  0  0  0  0  0  0  0  0  0  0
   43.4230   30.5600   38.9660 H   0  0  0  0  0  0  0  0  0  0  0  0
   43.5070   34.8500   39.2630 H   0  0  0  0  0  0  0  0  0  0  0  0
   46.2700   32.7560   36.8180 H   0  0  0  0  0  0  0  0  0  0  0  0
   38.6610   29.8700   40.4550 N   0  0  0  0  0  0  0  0  0  0  0  0
   37.8880   29.8510   39.7210 H   0  0  0  0  0  0  0  0  0  0  0  0
   37.4880   27.2280   39.3480 Cl  0  0  0  0  0  0  0  0  0  0  0  0
   37.4690   27.6900   41.0340 C   0  0  0  0  0  0  0  0  0  0  0  0
   38.0780   28.9280   41.2830 C   0  0  0  0  0  0  0  0  0  0  0  0
   38.0790   29.3280   42.6280 C   0  0  0  0  0  0  0  0  0  0  0  0
   38.4920   30.2560   43.0690 H   0  0  0  0  0  0  0  0  0  0  0  0
   37.5360   28.5920   43.6560 C   0  0  0  0  0  0  0  0  0  0  0  0
   37.5000   28.8330   44.7060 H   0  0  0  0  0  0  0  0  0  0  0  0
   36.9750   27.4040   43.2590 C   0  0  0  0  0  3  0  0  0  0  0  0
   36.9060   26.8960   41.9910 C   0  0  0  0  0  3  0  0  0  0  0  0
  1  2  1  6  0  0  0
  2  7  1  0  0  0  0
  3  2  1  0  0  0  0
  3  9  1  0  0  0  0
  3 10  1  0  0  0  0
  4  3  1  0  0  0  0
  5  4  1  0  0  0  0
  5  6  1  0  0  0  0
  6 15  1  6  0  0  0
  6  1  1  0  0  0  0
  6 32  1  0  0  0  0
  8  2  1  0  0  0  0
 11  4  1  0  0  0  0
 12  4  1  0  0  0  0
 13  5  1  0  0  0  0
 14  5  1  0  0  0  0
 16 17  1  0  0  0  0
 16 19  1  1  0  0  0
 17 21  1  0  0  0  0
 18 22  1  6  0  0  0
 18 16  1  0  0  0  0
 18  1  1  0  0  0  0
 18 17  1  0  0  0  0
 20 17  1  0  0  0  0
 23 29  1  0  0  0  0
 23 24  1  0  0  0  0
 24 16  1  0  0  0  0
 25 24  2  0  0  0  0
 25 30  1  0  0  0  0
 26 25  1  0  0  0  0
 27 28  1  0  0  0  0
 27 26  2  0  0  0  0
 28 23  2  0  0  0  0
 31 27  1  0  0  0  0
 32 36  1  0  0  0  0
 33 32  1  0  0  0  0
 34 35  1  0  0  0  0
 35 36  2  0  0  0  0
 35 42  1  0  0  0  0
 36 37  1  0  0  0  0
 37 38  1  0  0  0  0
 37 39  2  0  0  0  0
 39 40  1  0  0  0  0
 41 39  1  0  0  0  0
 42 41  2  0  0  0  0
M  END
>  <minimizedAffinity>
-5.22293425

$$$$

 OpenBabel03252506483D

 42 45  0  0  1  0  0  0  0  0999 V2000
   35.6050   28.8820   37.9100 N   0  0  1  0  0  0  0  0  0  0  0  0
   36.6970   28.3450   37.1520 C   0  0  0  0  0  0  0  0  0  0  0  0
   38.0320   28.5430   37.8080 C   0  0  0  0  0  0  0  0  0  0  0  0
   38.3460   30.0170   37.8030 C   0  0  0  0  0  0  0  0  0  0  0  0
   37.1110   30.8290   38.0690 C   0  0  0  0  0  0  0  0  0  0  0  0
   36.0510   29.9520   38.7610 C   0  0  2  0  0  0  0  0  0  0  0  0
   36.5450   27.2660   36.9300 H   0  0  0  0  0  0  0  0  0  0  0  0
   36.7260   28.8880   36.1750 H   0  0  0  0  0  0  0  0  0  0  0  0
   38.7590   28.0000   37.1200 H   0  0  0  0  0  0  0  0  0  0  0  0
   38.1410   28.0550   38.7610 H   0  0  0  0  0  0  0  0  0  0  0  0
   38.6680   30.2330   36.7260 H   0  0  0  0  0  0  0  0  0  0  0  0
   39.2030   30.3240   38.3970 H   0  0  0  0  0  0  0  0  0  0  0  0
   36.6420   31.1610   37.1120 H   0  0  0  0  0  0  0  0  0  0  0  0
   37.3060   31.6610   38.7580 H   0  0  0  0  0  0  0  0  0  0  0  0
   35.1850   30.6830   38.8110 H   0  0  0  0  0  0  0  0  0  0  0  0
   33.1890   28.6710   37.0160 C   0  0  1  0  0  0  0  0  0  0  0  0
   34.1700   28.2400   35.9900 C   0  0  0  0  0  0  0  0  0  0  0  0
   34.5650   29.2320   37.0160 C   0  0  2  0  0  0  0  0  0  0  0  0
   32.9820   27.9210   37.8250 H   0  0  0  0  0  0  0  0  0  0  0  0
   33.9190   28.5410   34.9410 H   0  0  0  0  0  0  0  0  0  0  0  0
   34.5750   27.1960   36.0330 H   0  0  0  0  0  0  0  0  0  0  0  0
   34.6010   30.3040   36.6800 H   0  0  0  0  0  0  0  0  0  0  0  0
   31.8660   29.9120   35.2690 C   0  0  0  0  0  0  0  0  0  0  0  0
   32.0520   29.5050   36.6030 C   0  0  0  0  0  0  0  0  0  0  0  0
   31.0910   29.9260   37.5510 C   0  0  0  0  0  0  0  0  0  0  0  0
   30.0540   30.6920   37.1210 N   0  0  0  0  0  0  0  0  0  0  0  0
   29.9050   31.0640   35.8350 C   0  0  0  0  0  0  0  0  0  0  0  0
   30.8150   30.6760   34.8850 N   0  0  0  0  0  0  0  0  0  0  0  0
   32.5770   29.6100   34.5190 H   0  0  0  0  0  0  0  0  0  0  0  0
   31.1740   29.6510   38.5850 H   0  0  0  0  0  0  0  0  0  0  0  0
   29.0700   31.6760   35.5070 H   0  0  0  0  0  0  0  0  0  0  0  0
   36.5260   29.5770   40.0240 N   0  0  0  0  0  0  0  0  0  0  0  0
   35.5230   29.2610   40.1960 H   0  0  0  0  0  0  0  0  0  0  0  0
   38.8350   31.1000   41.4130 Cl  0  0  0  0  0  0  0  0  0  0  0  0
   38.0210   29.7080   42.0880 C   0  0  0  0  0  0  0  0  0  0  0  0
   36.9960   29.2070   41.2710 C   0  0  0  0  0  0  0  0  0  0  0  0
   36.3230   28.0880   41.7840 C   0  0  0  0  0  0  0  0  0  0  0  0
   35.4900   27.5190   41.3290 H   0  0  0  0  0  0  0  0  0  0  0  0
   36.6120   27.4970   42.9930 C   0  0  0  0  0  0  0  0  0  0  0  0
   36.1410   26.6420   43.4500 H   0  0  0  0  0  0  0  0  0  0  0  0
   37.6380   28.0970   43.6790 C   0  0  0  0  0  3  0  0  0  0  0  0
   38.3740   29.1850   43.2970 C   0  0  0  0  0  3  0  0  0  0  0  0
  1  2  1  6  0  0  0
  1  6  1  0  0  0  0
  2  3  1  0  0  0  0
  3 10  1  0  0  0  0
  4  3  1  0  0  0  0
  4  5  1  0  0  0  0
  4 12  1  0  0  0  0
  5 14  1  0  0  0  0
  5  6  1  0  0  0  0
  6 15  1  1  0  0  0
  6 32  1  0  0  0  0
  7  2  1  0  0  0  0
  8  2  1  0  0  0  0
  9  3  1  0  0  0  0
 11  4  1  0  0  0  0
 13  5  1  0  0  0  0
 16 18  1  0  0  0  0
 16 19  1  1  0  0  0
 17 21  1  0  0  0  0
 17 16  1  0  0  0  0
 17 18  1  0  0  0  0
 18 22  1  6  0  0  0
 18  1  1  0  0  0  0
 20 17  1  0  0  0  0
 23 24  1  0  0  0  0
 24 16  1  0  0  0  0
 24 25  2  0  0  0  0
 25 30  1  0  0  0  0
 26 25  1  0  0  0  0
 27 26  2  0  0  0  0
 28 23  2  0  0  0  0
 28 27  1  0  0  0  0
 29 23  1  0  0  0  0
 31 27  1  0  0  0  0
 32 33  1  0  0  0  0
 32 36  1  0  0  0  0
 34 35  1  0  0  0  0
 35 42  1  0  0  0  0
 36 37  1  0  0  0  0
 36 35  2  0  0  0  0
 37 39  2  0  0  0  0
 38 37  1  0  0  0  0
 39 40  1  0  0  0  0
 39 41  1  0  0  0  0
 42 41  2  0  0  0  0
M  END
>  <minimizedAffinity>
-5.1034894

$$$$

 OpenBabel03252506483D

 42 45  0  0  1  0  0  0  0  0999 V2000
   37.8080   28.7380   41.0660 N   0  0  1  0  0  0  0  0  0  0  0  0
   37.2920   29.5000   42.1660 C   0  0  0  0  0  0  0  0  0  0  0  0
   37.6630   28.9390   43.5070 C   0  0  0  0  0  0  0  0  0  0  0  0
   36.9510   27.6220   43.6800 C   0  0  0  0  0  0  0  0  0  0  0  0
   36.9180   26.8560   42.3880 C   0  0  0  0  0  0  0  0  0  0  0  0
   38.0270   27.3700   41.4510 C   0  0  2  0  0  0  0  0  0  0  0  0
   37.6080   30.5650   42.1050 H   0  0  0  0  0  0  0  0  0  0  0  0
   36.1770   29.4760   42.0960 H   0  0  0  0  0  0  0  0  0  0  0  0
   37.2430   29.6950   44.2470 H   0  0  0  0  0  0  0  0  0  0  0  0
   38.7210   28.9170   43.7070 H   0  0  0  0  0  0  0  0  0  0  0  0
   35.8730   27.9150   43.9270 H   0  0  0  0  0  0  0  0  0  0  0  0
   37.2590   27.0230   44.5320 H   0  0  0  0  0  0  0  0  0  0  0  0
   35.9620   27.0390   41.8440 H   0  0  0  0  0  0  0  0  0  0  0  0
   37.1260   25.7880   42.5380 H   0  0  0  0  0  0  0  0  0  0  0  0
   37.8090   26.7550   40.5230 H   0  0  0  0  0  0  0  0  0  0  0  0
   37.2460   29.7060   38.7360 C   0  0  1  0  0  0  0  0  0  0  0  0
   36.3200   30.2370   39.7650 C   0  0  0  0  0  0  0  0  0  0  0  0
   36.9480   28.9100   39.9560 C   0  0  2  0  0  0  0  0  0  0  0  0
   38.2630   30.1820   38.7170 H   0  0  0  0  0  0  0  0  0  0  0  0
   35.2560   30.3460   39.4310 H   0  0  0  0  0  0  0  0  0  0  0  0
   36.6450   31.1080   40.3890 H   0  0  0  0  0  0  0  0  0  0  0  0
   36.2960   28.0190   39.7480 H   0  0  0  0  0  0  0  0  0  0  0  0
   35.3190   29.2690   37.1760 C   0  0  0  0  0  0  0  0  0  0  0  0
   36.7010   29.2940   37.4350 C   0  0  0  0  0  0  0  0  0  0  0  0
   37.5660   28.9100   36.3850 C   0  0  0  0  0  0  0  0  0  0  0  0
   37.0160   28.5430   35.1980 N   0  0  0  0  0  0  0  0  0  0  0  0
   35.6860   28.5300   34.9820 C   0  0  0  0  0  0  0  0  0  0  0  0
   34.8140   28.8960   35.9750 N   0  0  0  0  0  0  0  0  0  0  0  0
   34.6290   29.5550   37.9510 H   0  0  0  0  0  0  0  0  0  0  0  0
   38.6310   28.9070   36.5160 H   0  0  0  0  0  0  0  0  0  0  0  0
   35.2610   28.2340   34.0280 H   0  0  0  0  0  0  0  0  0  0  0  0
   39.2730   27.0820   42.0210 N   0  0  0  0  0  0  0  0  0  0  0  0
   38.8580   27.5180   42.9010 H   0  0  0  0  0  0  0  0  0  0  0  0
   39.9900   24.2420   43.0190 Cl  0  0  0  0  0  0  0  0  0  0  0  0
   41.0550   25.6240   43.1190 C   0  0  0  0  0  0  0  0  0  0  0  0
   40.5040   26.7970   42.5830 C   0  0  0  0  0  0  0  0  0  0  0  0
   41.3350   27.9260   42.6480 C   0  0  0  0  0  0  0  0  0  0  0  0
   41.1250   28.9540   42.2980 H   0  0  0  0  0  0  0  0  0  0  0  0
   42.6000   27.9270   43.1880 C   0  0  0  0  0  0  0  0  0  0  0  0
   43.2920   28.7490   43.2720 H   0  0  0  0  0  0  0  0  0  0  0  0
   43.0040   26.7070   43.6740 C   0  0  0  0  0  3  0  0  0  0  0  0
   42.2990   25.5350   43.6730 C   0  0  0  0  0  3  0  0  0  0  0  0
  1  6  1  0  0  0  0
  1  2  1  1  0  0  0
  2  3  1  0  0  0  0
  3  4  1  0  0  0  0
  3 10  1  0  0  0  0
  3  9  1  0  0  0  0
  4 11  1  0  0  0  0
  4 12  1  0  0  0  0
  5 14  1  0  0  0  0
  5  4  1  0  0  0  0
  6 15  1  6  0  0  0
  6 32  1  0  0  0  0
  6  5  1  0  0  0  0
  7  2  1  0  0  0  0
  8  2  1  0  0  0  0
 13  5  1  0  0  0  0
 16 19  1  6  0  0  0
 16 17  1  0  0  0  0
 16 18  1  0  0  0  0
 17 18  1  0  0  0  0
 17 21  1  0  0  0  0
 18 22  1  6  0  0  0
 18  1  1  0  0  0  0
 20 17  1  0  0  0  0
 23 24  1  0  0  0  0
 23 29  1  0  0  0  0
 24 16  1  0  0  0  0
 25 30  1  0  0  0  0
 25 24  2  0  0  0  0
 26 25  1  0  0  0  0
 27 26  2  0  0  0  0
 27 28  1  0  0  0  0
 28 23  2  0  0  0  0
 31 27  1  0  0  0  0
 32 36  1  0  0  0  0
 32 33  1  0  0  0  0
 34 35  1  0  0  0  0
 35 42  1  0  0  0  0
 36 37  1  0  0  0  0
 36 35  2  0  0  0  0
 37 39  2  0  0  0  0
 38 37  1  0  0  0  0
 39 40  1  0  0  0  0
 39 41  1  0  0  0  0
 42 41  2  0  0  0  0
M  END
>  <minimizedAffinity>
-5.09176397

$$$$

 OpenBabel03252506483D

 42 45  0  0  1  0  0  0  0  0999 V2000
   38.9040   28.4860   41.7010 N   0  0  1  0  0  0  0  0  0  0  0  0
   38.9320   28.3770   43.1310 C   0  0  0  0  0  0  0  0  0  0  0  0
   38.0650   27.2740   43.6620 C   0  0  0  0  0  0  0  0  0  0  0  0
   36.6260   27.6410   43.4060 C   0  0  0  0  0  0  0  0  0  0  0  0
   36.4720   28.3100   42.0700 C   0  0  0  0  0  0  0  0  0  0  0  0
   37.6740   27.9610   41.1730 C   0  0  2  0  0  0  0  0  0  0  0  0
   39.9710   28.2510   43.5070 H   0  0  0  0  0  0  0  0  0  0  0  0
   38.5380   29.3360   43.5470 H   0  0  0  0  0  0  0  0  0  0  0  0
   38.2630   27.2840   44.7830 H   0  0  0  0  0  0  0  0  0  0  0  0
   38.3480   26.2860   43.3410 H   0  0  0  0  0  0  0  0  0  0  0  0
   36.3890   28.4250   44.2060 H   0  0  0  0  0  0  0  0  0  0  0  0
   35.8950   26.8570   43.5850 H   0  0  0  0  0  0  0  0  0  0  0  0
   36.4960   29.4200   42.1780 H   0  0  0  0  0  0  0  0  0  0  0  0
   35.5840   27.9540   41.5320 H   0  0  0  0  0  0  0  0  0  0  0  0
   37.4380   28.5960   40.2630 H   0  0  0  0  0  0  0  0  0  0  0  0
   40.5240   30.4350   41.1950 C   0  0  1  0  0  0  0  0  0  0  0  0
   39.7050   30.7290   42.3960 C   0  0  0  0  0  0  0  0  0  0  0  0
   39.1760   29.8280   41.3460 C   0  0  2  0  0  0  0  0  0  0  0  0
   41.3830   29.7320   41.3630 H   0  0  0  0  0  0  0  0  0  0  0  0
   39.3670   31.7930   42.4870 H   0  0  0  0  0  0  0  0  0  0  0  0
   40.0240   30.3130   43.3850 H   0  0  0  0  0  0  0  0  0  0  0  0
   38.4150   30.2730   40.6480 H   0  0  0  0  0  0  0  0  0  0  0  0
   40.8570   32.8540   40.5810 C   0  0  0  0  0  0  0  0  0  0  0  0
   40.7470   31.5020   40.2100 C   0  0  0  0  0  0  0  0  0  0  0  0
   40.8640   31.1940   38.8350 C   0  0  0  0  0  0  0  0  0  0  0  0
   41.0750   32.2140   37.9610 N   0  0  0  0  0  0  0  0  0  0  0  0
   41.1760   33.5000   38.3510 C   0  0  0  0  0  0  0  0  0  0  0  0
   41.0680   33.8400   39.6750 N   0  0  0  0  0  0  0  0  0  0  0  0
   40.7730   33.1270   41.6190 H   0  0  0  0  0  0  0  0  0  0  0  0
   40.7900   30.1830   38.4840 H   0  0  0  0  0  0  0  0  0  0  0  0
   41.3450   34.3040   37.6410 H   0  0  0  0  0  0  0  0  0  0  0  0
   37.6550   26.5870   40.9030 N   0  0  0  0  0  0  0  0  0  0  0  0
   38.1030   26.4950   41.8660 H   0  0  0  0  0  0  0  0  0  0  0  0
   39.9660   24.7230   41.7770 Cl  0  0  0  0  0  0  0  0  0  0  0  0
   38.5470   24.1970   40.9020 C   0  0  0  0  0  0  0  0  0  0  0  0
   37.6370   25.2300   40.6360 C   0  0  0  0  0  0  0  0  0  0  0  0
   36.4870   24.8410   39.9340 C   0  0  0  0  0  0  0  0  0  0  0  0
   35.6350   25.4680   39.6090 H   0  0  0  0  0  0  0  0  0  0  0  0
   36.2310   23.5540   39.5180 C   0  0  0  0  0  0  0  0  0  0  0  0
   35.3750   23.1820   38.9780 H   0  0  0  0  0  0  0  0  0  0  0  0
   37.2120   22.6530   39.8490 C   0  0  0  0  0  3  0  0  0  0  0  0
   38.3740   22.8960   40.5270 C   0  0  0  0  0  3  0  0  0  0  0  0
  1  2  1  1  0  0  0
  2  7  1  0  0  0  0
  2  8  1  0  0  0  0
  2  3  1  0  0  0  0
  3  9  1  0  0  0  0
  4 12  1  0  0  0  0
  4  3  1  0  0  0  0
  4 11  1  0  0  0  0
  5 13  1  0  0  0  0
  5  4  1  0  0  0  0
  6 15  1  6  0  0  0
  6  1  1  0  0  0  0
  6  5  1  0  0  0  0
 10  3  1  0  0  0  0
 14  5  1  0  0  0  0
 16 18  1  0  0  0  0
 16 19  1  1  0  0  0
 16 17  1  0  0  0  0
 17 20  1  0  0  0  0
 17 21  1  0  0  0  0
 18 22  1  6  0  0  0
 18  1  1  0  0  0  0
 18 17  1  0  0  0  0
 23 29  1  0  0  0  0
 24 23  1  0  0  0  0
 24 16  1  0  0  0  0
 25 24  2  0  0  0  0
 26 27  2  0  0  0  0
 26 25  1  0  0  0  0
 27 28  1  0  0  0  0
 28 23  2  0  0  0  0
 30 25  1  0  0  0  0
 31 27  1  0  0  0  0
 32  6  1  0  0  0  0
 32 33  1  0  0  0  0
 35 34  1  0  0  0  0
 36 35  1  0  0  0  0
 36 32  1  0  0  0  0
 37 36  2  0  0  0  0
 38 37  1  0  0  0  0
 39 41  2  0  0  0  0
 39 37  1  0  0  0  0
 40 39  1  0  0  0  0
 41 42  1  0  0  0  0
 42 35  2  0  0  0  0
M  END
>  <minimizedAffinity>
-5.09068108

$$$$

 OpenBabel03252506483D

 42 45  0  0  1  0  0  0  0  0999 V2000
   35.4530   29.5670   37.6570 N   0  0  1  0  0  0  0  0  0  0  0  0
   36.1790   29.2480   36.4620 C   0  0  0  0  0  0  0  0  0  0  0  0
   35.3160   28.6760   35.3760 C   0  0  0  0  0  0  0  0  0  0  0  0
   34.8370   27.3180   35.8210 C   0  0  0  0  0  0  0  0  0  0  0  0
   34.5130   27.3170   37.2880 C   0  0  0  0  0  0  0  0  0  0  0  0
   34.2680   28.7610   37.7670 C   0  0  2  0  0  0  0  0  0  0  0  0
   36.7320   30.1320   36.0750 H   0  0  0  0  0  0  0  0  0  0  0  0
   36.9350   28.4690   36.7280 H   0  0  0  0  0  0  0  0  0  0  0  0
   36.0280   28.5550   34.4960 H   0  0  0  0  0  0  0  0  0  0  0  0
   34.5470   29.3380   35.0190 H   0  0  0  0  0  0  0  0  0  0  0  0
   35.7440   26.6370   35.6740 H   0  0  0  0  0  0  0  0  0  0  0  0
   34.0660   26.8600   35.2070 H   0  0  0  0  0  0  0  0  0  0  0  0
   35.3820   26.9510   37.8840 H   0  0  0  0  0  0  0  0  0  0  0  0
   33.5870   26.7690   37.5040 H   0  0  0  0  0  0  0  0  0  0  0  0
   34.1230   28.5830   38.8780 H   0  0  0  0  0  0  0  0  0  0  0  0
   36.1190   30.0660   40.1040 C   0  0  1  0  0  0  0  0  0  0  0  0
   37.0750   30.6930   39.1600 C   0  0  0  0  0  0  0  0  0  0  0  0
   36.3370   29.4740   38.7590 C   0  0  2  0  0  0  0  0  0  0  0  0
   35.1460   30.6120   40.2310 H   0  0  0  0  0  0  0  0  0  0  0  0
   38.1480   30.6560   39.4810 H   0  0  0  0  0  0  0  0  0  0  0  0
   36.8170   31.6820   38.7040 H   0  0  0  0  0  0  0  0  0  0  0  0
   36.9150   28.5100   38.7940 H   0  0  0  0  0  0  0  0  0  0  0  0
   36.1240   28.1670   41.7570 C   0  0  0  0  0  0  0  0  0  0  0  0
   36.6420   29.3920   41.3010 C   0  0  0  0  0  0  0  0  0  0  0  0
   37.7030   29.9640   42.0390 C   0  0  0  0  0  0  0  0  0  0  0  0
   38.1570   29.3020   43.1350 N   0  0  0  0  0  0  0  0  0  0  0  0
   37.6390   28.1280   43.5450 C   0  0  0  0  0  0  0  0  0  0  0  0
   36.6090   27.5400   42.8570 N   0  0  0  0  0  0  0  0  0  0  0  0
   35.3160   27.7000   41.2210 H   0  0  0  0  0  0  0  0  0  0  0  0
   38.1440   30.8980   41.7450 H   0  0  0  0  0  0  0  0  0  0  0  0
   38.0120   27.6100   44.4240 H   0  0  0  0  0  0  0  0  0  0  0  0
   33.1220   29.2600   37.1350 N   0  0  0  0  0  0  0  0  0  0  0  0
   33.3170   30.1410   37.7030 H   0  0  0  0  0  0  0  0  0  0  0  0
   30.5830   30.0220   38.7320 Cl  0  0  0  0  0  0  0  0  0  0  0  0
   30.7330   30.1440   36.9950 C   0  0  0  0  0  0  0  0  0  0  0  0
   31.9900   29.7520   36.5120 C   0  0  0  0  0  0  0  0  0  0  0  0
   32.1430   29.8380   35.1200 C   0  0  0  0  0  0  0  0  0  0  0  0
   33.0320   29.5850   34.5090 H   0  0  0  0  0  0  0  0  0  0  0  0
   31.1610   30.2680   34.2570 C   0  0  0  0  0  0  0  0  0  0  0  0
   31.2060   30.3600   33.1840 H   0  0  0  0  0  0  0  0  0  0  0  0
   29.9860   30.6170   34.8750 C   0  0  0  0  0  3  0  0  0  0  0  0
   29.7040   30.5820   36.2120 C   0  0  0  0  0  3  0  0  0  0  0  0
  1  2  1  6  0  0  0
  1  6  1  0  0  0  0
  1 18  1  0  0  0  0
  2  8  1  0  0  0  0
  3  4  1  0  0  0  0
  3  2  1  0  0  0  0
  4  5  1  0  0  0  0
  5 14  1  0  0  0  0
  5  6  1  0  0  0  0
  5 13  1  0  0  0  0
  6 15  1  1  0  0  0
  7  2  1  0  0  0  0
  9  3  1  0  0  0  0
 10  3  1  0  0  0  0
 11  4  1  0  0  0  0
 12  4  1  0  0  0  0
 16 19  1  1  0  0  0
 16 24  1  0  0  0  0
 17 20  1  0  0  0  0
 17 16  1  0  0  0  0
 18 22  1  1  0  0  0
 18 17  1  0  0  0  0
 18 16  1  0  0  0  0
 21 17  1  0  0  0  0
 23 28  1  0  0  0  0
 24 23  2  0  0  0  0
 24 25  1  0  0  0  0
 25 26  2  0  0  0  0
 26 27  1  0  0  0  0
 27 31  1  0  0  0  0
 28 27  2  0  0  0  0
 29 23  1  0  0  0  0
 30 25  1  0  0  0  0
 32 33  1  0  0  0  0
 32  6  1  0  0  0  0
 35 34  1  0  0  0  0
 36 35  1  0  0  0  0
 36 32  1  0  0  0  0
 37 36  2  0  0  0  0
 38 37  1  0  0  0  0
 39 41  2  0  0  0  0
 39 37  1  0  0  0  0
 40 39  1  0  0  0  0
 41 42  1  0  0  0  0
 42 35  2  0  0  0  0
M  END
>  <minimizedAffinity>
-5.05818987

$$$$

 OpenBabel03252506483D

 42 45  0  0  1  0  0  0  0  0999 V2000
   35.2850   28.6770   37.8960 N   0  0  1  0  0  0  0  0  0  0  0  0
   36.2940   28.2420   36.9760 C   0  0  0  0  0  0  0  0  0  0  0  0
   37.6770   28.2500   37.5590 C   0  0  0  0  0  0  0  0  0  0  0  0
   38.0760   29.6820   37.8040 C   0  0  0  0  0  0  0  0  0  0  0  0
   36.9100   30.4870   38.3030 C   0  0  0  0  0  0  0  0  0  0  0  0
   35.8450   29.5460   38.8960 C   0  0  2  0  0  0  0  0  0  0  0  0
   36.0650   27.2320   36.5710 H   0  0  0  0  0  0  0  0  0  0  0  0
   36.2950   28.9560   36.1160 H   0  0  0  0  0  0  0  0  0  0  0  0
   38.3260   27.8130   36.7320 H   0  0  0  0  0  0  0  0  0  0  0  0
   37.8150   27.5870   38.3960 H   0  0  0  0  0  0  0  0  0  0  0  0
   38.3430   30.0820   36.7650 H   0  0  0  0  0  0  0  0  0  0  0  0
   38.9850   29.8310   38.3810 H   0  0  0  0  0  0  0  0  0  0  0  0
   36.4030   31.0140   37.4600 H   0  0  0  0  0  0  0  0  0  0  0  0
   37.1970   31.1650   39.1180 H   0  0  0  0  0  0  0  0  0  0  0  0
   35.0290   30.2940   39.1420 H   0  0  0  0  0  0  0  0  0  0  0  0
   32.8080   28.7570   37.1630 C   0  0  1  0  0  0  0  0  0  0  0  0
   33.6900   28.4690   36.0070 C   0  0  0  0  0  0  0  0  0  0  0  0
   34.2140   29.2370   37.1590 C   0  0  2  0  0  0  0  0  0  0  0  0
   32.6050   27.8840   37.8400 H   0  0  0  0  0  0  0  0  0  0  0  0
   33.3920   28.9680   35.0500 H   0  0  0  0  0  0  0  0  0  0  0  0
   34.0290   27.4160   35.8330 H   0  0  0  0  0  0  0  0  0  0  0  0
   34.2970   30.3490   37.0170 H   0  0  0  0  0  0  0  0  0  0  0  0
   30.8710   30.0940   38.0600 C   0  0  0  0  0  0  0  0  0  0  0  0
   31.7020   29.7100   36.9920 C   0  0  0  0  0  0  0  0  0  0  0  0
   31.4410   30.2840   35.7260 C   0  0  0  0  0  0  0  0  0  0  0  0
   30.4120   31.1650   35.6180 N   0  0  0  0  0  0  0  0  0  0  0  0
   29.6340   31.5110   36.6620 C   0  0  0  0  0  0  0  0  0  0  0  0
   29.8550   30.9770   37.9050 N   0  0  0  0  0  0  0  0  0  0  0  0
   31.0400   29.6780   39.0380 H   0  0  0  0  0  0  0  0  0  0  0  0
   32.0380   30.0340   34.8700 H   0  0  0  0  0  0  0  0  0  0  0  0
   28.8150   32.2170   36.5590 H   0  0  0  0  0  0  0  0  0  0  0  0
   36.3750   28.9180   40.0310 N   0  0  0  0  0  0  0  0  0  0  0  0
   35.5490   28.2530   39.9240 H   0  0  0  0  0  0  0  0  0  0  0  0
   36.6920   25.8440   40.1950 Cl  0  0  0  0  0  0  0  0  0  0  0  0
   37.1220   26.9530   41.4760 C   0  0  0  0  0  0  0  0  0  0  0  0
   36.8990   28.2990   41.1510 C   0  0  0  0  0  0  0  0  0  0  0  0
   37.2340   29.2160   42.1590 C   0  0  0  0  0  0  0  0  0  0  0  0
   37.1460   30.3190   42.1410 H   0  0  0  0  0  0  0  0  0  0  0  0
   37.7470   28.8640   43.3860 C   0  0  0  0  0  0  0  0  0  0  0  0
   38.0270   29.5080   44.2050 H   0  0  0  0  0  0  0  0  0  0  0  0
   37.9100   27.5120   43.5590 C   0  0  0  0  0  3  0  0  0  0  0  0
   37.6260   26.5160   42.6660 C   0  0  0  0  0  3  0  0  0  0  0  0
  1  2  1  6  0  0  0
  1  6  1  0  0  0  0
  2  3  1  0  0  0  0
  3  4  1  0  0  0  0
  3 10  1  0  0  0  0
  4  5  1  0  0  0  0
  4 12  1  0  0  0  0
  5  6  1  0  0  0  0
  5 14  1  0  0  0  0
  6 15  1  1  0  0  0
  6 32  1  0  0  0  0
  7  2  1  0  0  0  0
  8  2  1  0  0  0  0
  9  3  1  0  0  0  0
 11  4  1  0  0  0  0
 13  5  1  0  0  0  0
 16 19  1  1  0  0  0
 17 18  1  0  0  0  0
 17 16  1  0  0  0  0
 18 22  1  6  0  0  0
 18 16  1  0  0  0  0
 18  1  1  0  0  0  0
 20 17  1  0  0  0  0
 21 17  1  0  0  0  0
 23 29  1  0  0  0  0
 24 16  1  0  0  0  0
 24 23  2  0  0  0  0
 25 24  1  0  0  0  0
 26 25  2  0  0  0  0
 26 27  1  0  0  0  0
 27 28  2  0  0  0  0
 28 23  1  0  0  0  0
 30 25  1  0  0  0  0
 31 27  1  0  0  0  0
 32 36  1  0  0  0  0
 33 32  1  0  0  0  0
 34 35  1  0  0  0  0
 35 42  1  0  0  0  0
 36 35  2  0  0  0  0
 36 37  1  0  0  0  0
 37 39  2  0  0  0  0
 38 37  1  0  0  0  0
 39 41  1  0  0  0  0
 39 40  1  0  0  0  0
 42 41  2  0  0  0  0
M  END
>  <minimizedAffinity>
-5.04246378

$$$$
