
 OpenBabel03252508103D

 47 50  0  0  0  0  0  0  0  0999 V2000
   45.0310   35.4920   43.3940 C   0  0  0  0  0  0  0  0  0  0  0  0
   45.4760   34.1780   43.4270 C   0  0  0  0  0  0  0  0  0  0  0  0
   45.4750   33.4800   44.6040 C   0  0  0  0  0  0  0  0  0  0  0  0
   45.0140   34.1470   45.7210 N   0  0  0  0  0  0  0  0  0  0  0  0
   44.5930   35.3950   45.6870 C   0  0  0  0  0  0  0  0  0  0  0  0
   44.6050   36.0650   44.5160 N   0  0  0  0  0  0  0  0  0  0  0  0
   45.0400   36.0520   42.4520 H   0  0  0  0  0  0  0  0  0  0  0  0
   44.2290   35.9000   46.5960 H   0  0  0  0  0  0  0  0  0  0  0  0
   45.8990   32.1380   44.8080 C   0  0  0  0  0  0  0  0  0  0  0  0
   45.6150   31.1020   43.9210 C   0  0  0  0  0  0  0  0  0  0  0  0
   45.9580   29.7970   44.1310 C   0  0  0  0  0  0  0  0  0  0  0  0
   46.6310   29.4480   45.2900 C   0  0  0  0  0  0  0  0  0  0  0  0
   46.9330   30.4940   46.2120 C   0  0  0  0  0  0  0  0  0  0  0  0
   47.5930   30.1590   47.3600 C   0  0  0  0  0  0  0  0  0  0  0  0
   47.9120   31.1240   48.2910 C   0  0  0  0  0  0  0  0  0  0  0  0
   47.5470   32.4650   48.0350 C   0  0  0  0  0  0  0  0  0  0  0  0
   46.8690   32.7520   46.8360 C   0  0  0  0  0  0  0  0  0  0  0  0
   46.5660   31.7740   45.9440 C   0  0  0  0  0  0  0  0  0  0  0  0
   45.0790   31.4080   43.0360 H   0  0  0  0  0  0  0  0  0  0  0  0
   45.7340   28.9970   43.4490 H   0  0  0  0  0  0  0  0  0  0  0  0
   46.9560   28.4480   45.5610 H   0  0  0  0  0  0  0  0  0  0  0  0
   47.8870   29.1310   47.5800 H   0  0  0  0  0  0  0  0  0  0  0  0
   48.4420   30.8400   49.2030 H   0  0  0  0  0  0  0  0  0  0  0  0
   47.8370   33.1520   48.8150 H   0  0  0  0  0  0  0  0  0  0  0  0
   46.7140   33.8090   46.8390 H   0  0  0  0  0  0  0  0  0  0  0  0
   45.8980   33.6420   42.2450 O   0  0  0  0  0  0  0  0  0  0  0  0
   48.2360   32.5530   41.7210 O   0  0  0  0  0  0  0  0  0  0  0  0
   47.4350   33.8080   41.6010 P   0  0  1  0  0  0  0  0  0  0  0  0
   47.3710   34.2070   39.9690 O   0  0  0  0  0  0  0  0  0  0  0  0
   46.3740   33.4420   39.3960 C   0  0  0  0  0  0  0  0  0  0  0  0
   45.4260   34.0340   39.4130 H   0  0  0  0  0  0  0  0  0  0  0  0
   46.1660   32.5190   40.0170 H   0  0  0  0  0  0  0  0  0  0  0  0
   44.7340   31.6370   37.4200 Cl  0  0  0  0  0  0  0  0  0  0  0  0
   46.3020   32.2830   36.9690 C   0  0  0  0  0  0  0  0  0  0  0  0
   46.6900   33.0960   38.0140 C   0  0  0  0  0  0  0  0  0  0  0  0
   47.9230   33.7530   37.7580 C   0  0  0  0  0  0  0  0  0  0  0  0
   48.4990   34.4600   38.3910 H   0  0  0  0  0  0  0  0  0  0  0  0
   48.6860   33.6200   36.6050 C   0  0  0  0  0  0  0  0  0  0  0  0
   49.6090   34.0620   36.3270 H   0  0  0  0  0  0  0  0  0  0  0  0
   48.1940   32.7640   35.6170 C   0  0  0  0  0  0  0  0  0  0  0  0
   47.0150   32.1100   35.8070 C   0  0  0  0  0  0  0  0  0  0  0  0
   48.2210   35.0540   42.4360 O   0  0  0  0  0  0  0  0  0  0  0  0
   49.5040   35.5120   42.2240 C   0  0  0  0  0  0  0  0  0  0  0  0
   49.3910   36.5070   41.5220 O   0  0  0  0  0  0  0  0  0  0  0  0
   50.4900   34.6850   42.8890 N   0  0  0  0  0  0  0  0  0  0  0  0
   50.6690   34.4990   43.9020 H   0  0  0  0  0  0  0  0  0  0  0  0
   51.3150   34.0450   42.6650 H   0  0  0  0  0  0  0  0  0  0  0  0
  1  2  2  0  0  0  0
  1  6  1  0  0  0  0
  2  3  1  0  0  0  0
  3  9  1  0  0  0  0
  3  4  2  0  0  0  0
  5  4  1  0  0  0  0
  5  8  1  0  0  0  0
  6  5  2  0  0  0  0
  7  1  1  0  0  0  0
  9 18  1  0  0  0  0
 10 11  1  0  0  0  0
 10  9  2  0  0  0  0
 11 12  2  0  0  0  0
 12 21  1  0  0  0  0
 12 13  1  0  0  0  0
 13 14  1  0  0  0  0
 14 22  1  0  0  0  0
 14 15  2  0  0  0  0
 15 23  1  0  0  0  0
 16 15  1  0  0  0  0
 16 24  1  0  0  0  0
 17 25  1  0  0  0  0
 17 16  2  0  0  0  0
 18 13  2  0  0  0  0
 18 17  1  0  0  0  0
 19 10  1  0  0  0  0
 20 11  1  0  0  0  0
 26  2  1  0  0  0  0
 28 27  2  1  0  0  0
 28 26  1  0  0  0  0
 28 42  1  0  0  0  0
 29 28  1  0  0  0  0
 30 31  1  0  0  0  0
 30 29  1  0  0  0  0
 30 32  1  0  0  0  0
 34 33  1  0  0  0  0
 34 35  1  0  0  0  0
 35 30  1  0  0  0  0
 36 35  2  0  0  0  0
 36 37  1  0  0  0  0
 38 36  1  0  0  0  0
 39 38  1  0  0  0  0
 40 41  1  0  0  0  0
 40 38  2  0  0  0  0
 41 34  2  0  0  0  0
 43 42  1  0  0  0  0
 43 45  1  0  0  0  0
 44 43  2  0  0  0  0
 45 46  1  0  0  0  0
 47 45  1  0  0  0  0
M  END
>  <minimizedAffinity>
-6.44514704

>  <minimizedRMSD>
1.6497854

$$$$
