
 OpenBabel03252508463D

 45 47  0  0  0  0  0  0  0  0999 V2000
   42.6880   31.4260   42.6020 N   0  0  0  0  0  0  0  0  0  0  0  0
   42.9790   31.6590   43.5790 H   0  0  0  0  0  0  0  0  0  0  0  0
   42.9930   32.4600   41.6690 C   0  0  0  0  0  0  0  0  0  0  0  0
   42.0290   32.9250   41.3050 H   0  0  0  0  0  0  0  0  0  0  0  0
   43.4600   32.0730   40.7210 H   0  0  0  0  0  0  0  0  0  0  0  0
   43.6130   34.8770   41.8650 C   0  0  0  0  0  0  0  0  0  0  0  0
   43.8630   33.5520   42.1900 C   0  0  0  0  0  0  0  0  0  0  0  0
   44.9330   33.2710   43.0040 C   0  0  0  0  0  0  0  0  0  0  0  0
   45.7230   34.2760   43.4760 C   0  0  0  0  0  0  0  0  0  0  0  0
   45.4960   35.6000   43.1680 C   0  0  0  0  0  0  0  0  0  0  0  0
   44.4090   35.8440   42.3440 C   0  0  0  0  0  0  0  0  0  0  0  0
   45.0950   32.2190   43.2350 H   0  0  0  0  0  0  0  0  0  0  0  0
   46.5540   33.9780   44.1170 H   0  0  0  0  0  0  0  0  0  0  0  0
   46.1420   36.3760   43.5580 H   0  0  0  0  0  0  0  0  0  0  0  0
   44.2060   36.8800   42.0840 H   0  0  0  0  0  0  0  0  0  0  0  0
   40.1560   35.6780   40.5420 C   0  0  0  0  0  0  0  0  0  0  0  0
   41.1950   35.4720   41.4710 C   0  0  0  0  0  0  0  0  0  0  0  0
   42.4590   35.1170   40.9960 C   0  0  0  0  0  0  0  0  0  0  0  0
   42.6080   34.9910   39.6530 N   0  0  0  0  0  0  0  0  0  0  0  0
   41.5870   35.1950   38.7770 C   0  0  0  0  0  0  0  0  0  0  0  0
   40.3780   35.5360   39.2400 N   0  0  0  0  0  0  0  0  0  0  0  0
   39.2070   35.9480   40.9570 H   0  0  0  0  0  0  0  0  0  0  0  0
   41.0740   35.5750   42.5520 H   0  0  0  0  0  0  0  0  0  0  0  0
   41.8600   35.0570   37.7380 H   0  0  0  0  0  0  0  0  0  0  0  0
   41.0090   31.0400   42.6410 S   0  0  0  0  0  0  0  0  0  0  0  0
   40.1600   32.2760   42.4970 O   0  0  0  0  0  0  0  0  0  0  0  0
   39.4060   32.3940   41.8610 H   0  0  0  0  0  0  0  0  0  0  0  0
   40.6480   30.3080   43.8780 O   0  0  0  0  0  0  0  0  0  0  0  0
   39.9030   30.5470   44.4510 H   0  0  0  0  0  0  0  0  0  0  0  0
   40.7090   30.0480   41.3100 O   0  0  0  0  0  0  0  0  0  0  0  0
   40.0780   28.9030   41.7880 C   0  0  0  0  0  0  0  0  0  0  0  0
   40.3770   28.5840   42.7830 H   0  0  0  0  0  0  0  0  0  0  0  0
   38.9820   29.1360   41.8400 H   0  0  0  0  0  0  0  0  0  0  0  0
   40.2110   27.7900   40.7610 C   0  0  0  0  0  0  0  0  0  0  0  0
   41.3100   27.6000   40.6490 H   0  0  0  0  0  0  0  0  0  0  0  0
   39.7460   28.0610   39.8010 H   0  0  0  0  0  0  0  0  0  0  0  0
   37.2970   27.2890   39.8520 Cl  0  0  0  0  0  0  0  0  0  0  0  0
   38.2210   26.2890   40.9470 C   0  0  0  0  0  0  0  0  0  0  0  0
   39.5300   26.5950   41.3060 C   0  0  0  0  0  0  0  0  0  0  0  0
   40.1480   25.7310   42.1860 C   0  0  0  0  0  0  0  0  0  0  0  0
   41.1810   25.9110   42.5120 H   0  0  0  0  0  0  0  0  0  0  0  0
   39.4890   24.6220   42.6790 C   0  0  0  0  0  0  0  0  0  0  0  0
   39.9380   23.9040   43.3840 H   0  0  0  0  0  0  0  0  0  0  0  0
   38.1930   24.3120   42.3280 C   0  0  0  0  0  3  0  0  0  0  0  0
   37.5680   25.1590   41.4570 C   0  0  0  0  0  3  0  0  0  0  0  0
  1 25  1  0  0  0  0
  1  2  1  0  0  0  0
  3  7  1  0  0  0  0
  3  1  1  0  0  0  0
  4  3  1  0  0  0  0
  5  3  1  0  0  0  0
  6  7  2  0  0  0  0
  6 11  1  0  0  0  0
  7  8  1  0  0  0  0
  8 12  1  0  0  0  0
  8  9  2  0  0  0  0
  9 13  1  0  0  0  0
 10  9  1  0  0  0  0
 10 14  1  0  0  0  0
 11 10  2  0  0  0  0
 15 11  1  0  0  0  0
 16 22  1  0  0  0  0
 16 17  1  0  0  0  0
 17 23  1  0  0  0  0
 18 17  2  0  0  0  0
 18  6  1  0  0  0  0
 19 18  1  0  0  0  0
 20 21  1  0  0  0  0
 20 19  2  0  0  0  0
 21 16  2  0  0  0  0
 24 20  1  0  0  0  0
 25 28  1  0  0  0  0
 26 25  1  0  0  0  0
 27 26  1  0  0  0  0
 28 29  1  0  0  0  0
 30 31  1  0  0  0  0
 30 25  1  0  0  0  0
 31 33  1  0  0  0  0
 31 32  1  0  0  0  0
 34 39  1  0  0  0  0
 34 31  1  0  0  0  0
 35 34  1  0  0  0  0
 36 34  1  0  0  0  0
 37 38  1  0  0  0  0
 38 39  2  0  0  0  0
 38 45  1  0  0  0  0
 39 40  1  0  0  0  0
 40 41  1  0  0  0  0
 40 42  2  0  0  0  0
 42 43  1  0  0  0  0
 44 42  1  0  0  0  0
 45 44  2  0  0  0  0
M  END
>  <minimizedAffinity>
-5.12398481

>  <minimizedRMSD>
0.412233144

$$$$
