
     RDKit          3D

 29 30  0  0  0  0  0  0  0  0999 V2000
   44.5135   35.6168   44.7872 C   0  0  0  0  0  0  0  0  0  0  0  0
   44.9185   35.8177   43.4533 C   0  0  0  0  0  0  0  0  0  0  0  0
   45.9776   35.0179   42.9811 C   0  0  0  0  0  0  0  0  0  0  0  0
   46.5348   34.1098   43.8409 N   0  0  0  0  0  0  0  0  0  0  0  0
   46.1005   33.9647   45.1103 C   0  0  0  0  0  0  0  0  0  0  0  0
   45.0940   34.7162   45.5791 N   0  0  0  0  0  0  0  0  0  0  0  0
   46.6648   33.0477   45.9744 O   0  0  0  0  0  0  0  0  0  0  0  0
   46.9927   32.2862   48.4337 O   0  0  0  0  0  0  0  0  0  0  0  0
   45.9037   32.4059   47.3549 P   0  0  1  0  0  0  0  0  0  0  0  0
   44.6238   33.3601   47.8552 O   0  0  0  0  0  0  0  0  0  0  0  0
   45.3318   30.8348   47.0757 O   0  0  0  0  0  0  0  0  0  0  0  0
   45.1224   30.2512   48.3111 C   0  0  0  0  0  0  0  0  0  0  0  0
   43.7001   36.2292   45.1560 H   0  0  0  0  0  0  0  0  0  0  0  0
   44.4906   36.5213   42.7793 H   0  0  0  0  0  0  0  0  0  0  0  0
   46.3840   35.0730   41.9764 H   0  0  0  0  0  0  0  0  0  0  0  0
   44.6940   33.4872   48.8341 H   0  0  0  0  0  0  0  0  0  0  0  0
   46.0301   30.2989   48.9372 H   0  0  0  0  0  0  0  0  0  0  0  0
   44.3398   30.8440   48.8210 H   0  0  0  0  0  0  0  0  0  0  0  0
   47.2034   28.1271   48.8942 Cl  0  0  0  0  0  0  0  0  0  0  0  0
   45.5585   27.8560   48.3481 C   0  0  0  0  0  0  0  0  0  0  0  0
   44.6264   28.8693   48.0890 C   0  0  0  0  0  0  0  0  0  0  0  0
   43.3599   28.5303   47.6633 C   0  0  0  0  0  0  0  0  0  0  0  0
   42.6823   29.3519   47.4787 H   0  0  0  0  0  0  0  0  0  0  0  0
   42.9748   27.2184   47.4816 C   0  0  0  0  0  0  0  0  0  0  0  0
   41.9852   26.9554   47.1481 H   0  0  0  0  0  0  0  0  0  0  0  0
   43.8621   26.1714   47.7245 C   0  0  0  0  0  0  0  0  0  0  0  0
   45.1160   26.5639   48.1485 C   0  0  0  0  0  0  0  0  0  0  0  0
   43.6418   25.1197   47.6079 H   0  0  0  0  0  0  0  0  0  0  0  0
   45.8344   25.7552   48.3471 H   0  0  0  0  0  0  0  0  0  0  0  0
  1  6  2  0
  2  1  1  0
  3  2  2  0
  3  4  1  0
  4  5  2  0
  5  6  1  0
  5  7  1  0
  9  7  1  6
  9 10  1  0
  9  8  2  0
 11  9  1  0
 11 12  1  0
  1 13  1  0
  2 14  1  0
  3 15  1  0
 10 16  1  0
 12 17  1  0
 12 18  1  0
 19 20  1  0
 20 21  2  0
 21 22  1  0
 22 23  1  0
 22 24  2  0
 24 25  1  0
 24 26  1  0
 26 27  2  0
 27 20  1  0
 26 28  1  0
 27 29  1  0
 12 21  1  0
M  ISO  8  13  14  14  14  15  14  16   3  17   8  18   8  23  15  25  16
M  END
>  <DihAtoms>  (1) 
10,11,20,19

>  <DihDeg>  (1) 
76.0901109356461

$$$$
