
     RDKit          3D

 34 36  0  0  0  0  0  0  0  0999 V2000
   44.4779   35.7347   45.0003 C   0  0  0  0  0  0  0  0  0  0  0  0
   45.1130   35.7071   43.7592 C   0  0  0  0  0  0  0  0  0  0  0  0
   46.0380   34.6991   43.4938 C   0  0  0  0  0  0  0  0  0  0  0  0
   46.2574   33.7971   44.4858 N   0  0  0  0  0  0  0  0  0  0  0  0
   45.6391   33.8428   45.6636 C   0  0  0  0  0  0  0  0  0  0  0  0
   44.7513   34.7998   45.9362 N   0  0  0  0  0  0  0  0  0  0  0  0
   45.9535   32.8380   46.6159 N   0  0  0  0  0  0  0  0  0  0  0  0
   45.1627   32.5751   47.8298 C   0  0  0  0  0  0  0  0  0  0  0  0
   46.2422   32.2311   48.8200 C   0  0  0  0  0  0  0  0  0  0  0  0
   47.5142   32.0353   48.0419 C   0  0  0  0  0  0  0  0  0  0  0  0
   47.0274   31.8976   46.6362 C   0  0  2  0  0  0  0  0  0  0  0  0
   44.7333   36.7544   42.8454 N   0  0  0  0  0  0  0  0  0  0  0  0
   43.7424   36.4630   45.3283 H   0  0  0  0  0  0  0  0  0  0  0  0
   46.4942   34.7208   42.5370 H   0  0  0  0  0  0  0  0  0  0  0  0
   44.4710   31.7193   47.6560 H   0  0  0  0  0  0  0  0  0  0  0  0
   44.6806   33.5086   48.1210 H   0  0  0  0  0  0  0  0  0  0  0  0
   46.3228   32.9693   49.6406 H   0  0  0  0  0  0  0  0  0  0  0  0
   45.9681   31.2482   49.2759 H   0  0  0  0  0  0  0  0  0  0  0  0
   48.0821   33.0089   48.0880 H   0  0  0  0  0  0  0  0  0  0  0  0
   48.1279   31.1811   48.3873 H   0  0  0  0  0  0  0  0  0  0  0  0
   46.5322   30.8825   46.5660 H   0  0  0  0  0  0  0  0  0  0  0  0
   44.3396   36.5509   41.8848 H   0  0  0  0  0  0  0  0  0  0  0  0
   44.8245   37.7746   43.0776 H   0  0  0  0  0  0  0  0  0  0  0  0
   47.7767   34.7412   45.8983 Cl  0  0  0  0  0  0  0  0  0  0  0  0
   48.5164   33.3000   45.1914 C   0  0  0  0  0  0  0  0  0  0  0  0
   48.0825   32.0463   45.6390 C   0  0  0  0  0  0  0  0  0  0  0  0
   48.7477   31.0286   44.9984 C   0  0  0  0  0  0  0  0  0  0  0  0
   48.4832   29.9958   45.2559 H   0  0  0  0  0  0  0  0  0  0  0  0
   49.7193   31.1649   44.0386 C   0  0  0  0  0  0  0  0  0  0  0  0
   50.1994   30.3123   43.5785 H   0  0  0  0  0  0  0  0  0  0  0  0
   50.0834   32.4348   43.6601 C   0  0  0  0  0  0  0  0  0  0  0  0
   49.4753   33.5107   44.2427 C   0  0  0  0  0  0  0  0  0  0  0  0
   50.8338   32.6077   42.9177 H   0  0  0  0  0  0  0  0  0  0  0  0
   49.7616   34.5104   43.9448 H   0  0  0  0  0  0  0  0  0  0  0  0
  1  6  2  0
  2  1  1  0
  3  2  2  0
  3  4  1  0
  4  5  2  0
  5  6  1  0
  5  7  1  0
  7 11  1  0
  7  8  1  0
  8  9  1  0
 10  9  1  0
 11 10  1  0
 12  2  1  0
  1 13  1  0
  3 14  1  0
  8 15  1  0
  8 16  1  0
  9 17  1  0
  9 18  1  0
 10 19  1  0
 10 20  1  0
 11 21  1  1
 12 22  1  0
 12 23  1  0
 24 25  1  0
 25 26  2  0
 26 27  1  0
 27 28  1  0
 27 29  2  0
 29 30  1  0
 29 31  1  0
 31 32  2  0
 32 25  1  0
 31 33  1  0
 32 34  1  0
 11 26  1  0
M  ISO  8  13  14  14  14  15  13  16  13  17  13  18  13  19  13  20  13
M  ISO  3  21  13  28  15  30  16
M  END
>  <DihAtoms>  (1) 
6,10,25,24

>  <DihDeg>  (1) 
-129.73063844672953

$$$$
