
 OpenBabel03252508363D

 31 33  0  0  0  0  0  0  0  0999 V2000
   37.9530   28.0360   41.1380 C   0  0  0  0  0  0  0  0  0  0  0  0
   37.8590   29.1110   41.9860 C   0  0  0  0  0  0  0  0  0  0  0  0
   37.3490   28.8880   43.2370 C   0  0  0  0  0  0  0  0  0  0  0  0
   36.9310   27.6510   43.6800 C   0  0  0  0  0  0  0  0  0  0  0  0
   37.0410   26.5870   42.7970 C   0  0  0  0  0  0  0  0  0  0  0  0
   37.5490   26.7750   41.5320 C   0  0  0  0  0  0  0  0  0  0  0  0
   37.2900   29.7680   43.8780 H   0  0  0  0  0  0  0  0  0  0  0  0
   36.5370   27.5390   44.6800 H   0  0  0  0  0  0  0  0  0  0  0  0
   36.7200   25.6110   43.1260 H   0  0  0  0  0  0  0  0  0  0  0  0
   37.8980   32.5630   40.4620 C   0  0  0  0  0  0  0  0  0  0  0  0
   37.4150   31.3260   40.9320 C   0  0  0  0  0  0  0  0  0  0  0  0
   38.3080   30.4050   41.4860 C   0  0  0  0  0  0  0  0  0  0  0  0
   39.6180   30.7850   41.5330 N   0  0  0  0  0  0  0  0  0  0  0  0
   40.0490   31.9650   41.0800 C   0  0  0  0  0  0  0  0  0  0  0  0
   39.1820   32.8580   40.5420 N   0  0  0  0  0  0  0  0  0  0  0  0
   36.9600   33.4660   39.9080 N   0  0  0  0  0  0  0  0  0  0  0  0
   36.3700   31.0760   40.8710 H   0  0  0  0  0  0  0  0  0  0  0  0
   41.1140   32.1480   41.1740 H   0  0  0  0  0  0  0  0  0  0  0  0
   36.5950   33.5460   38.9170 H   0  0  0  0  0  0  0  0  0  0  0  0
   36.7460   34.0170   40.7710 H   0  0  0  0  0  0  0  0  0  0  0  0
   40.1190   25.1800   41.5280 Cl  0  0  0  0  0  0  0  0  0  0  0  0
   38.7720   24.8390   40.4390 C   0  0  0  0  0  0  0  0  0  0  0  0
   37.6760   25.6620   40.5740 C   0  0  0  0  0  0  0  0  0  0  0  0
   36.5450   25.5050   39.7800 C   0  0  0  0  0  0  0  0  0  0  0  0
   35.6590   26.1290   39.8510 H   0  0  0  0  0  0  0  0  0  0  0  0
   36.4970   24.4960   38.8190 C   0  0  0  0  0  0  0  0  0  0  0  0
   35.6270   24.3520   38.1860 H   0  0  0  0  0  0  0  0  0  0  0  0
   37.6090   23.6920   38.7110 C   0  0  0  0  0  3  0  0  0  0  0  0
   38.7450   23.8400   39.4990 C   0  0  0  0  0  3  0  0  0  0  0  0
   38.8940   28.3400   38.7160 N   0  0  0  0  0  0  0  0  0  0  0  0
   38.4790   28.1970   39.8070 C   0  0  0  0  0  0  0  0  0  0  0  0
  1  6  2  0  0  0  0
  1  2  1  0  0  0  0
  2  3  2  0  0  0  0
  3  4  1  0  0  0  0
  3  7  1  0  0  0  0
  4  8  1  0  0  0  0
  5  9  1  0  0  0  0
  5  4  2  0  0  0  0
  6  5  1  0  0  0  0
 10 15  2  0  0  0  0
 10 11  1  0  0  0  0
 11 12  2  0  0  0  0
 12 13  1  0  0  0  0
 12  2  1  0  0  0  0
 14 18  1  0  0  0  0
 14 13  2  0  0  0  0
 15 14  1  0  0  0  0
 16 10  1  0  0  0  0
 16 20  1  0  0  0  0
 17 11  1  0  0  0  0
 19 16  1  0  0  0  0
 22 23  1  0  0  0  0
 22 21  1  0  0  0  0
 23  6  1  0  0  0  0
 24 25  1  0  0  0  0
 24 23  2  0  0  0  0
 26 24  1  0  0  0  0
 27 26  1  0  0  0  0
 28 26  2  0  0  0  0
 28 29  1  0  0  0  0
 29 22  2  0  0  0  0
 30 31  3  0  0  0  0
 31  1  1  0  0  0  0
M  END
>  <minimizedAffinity>
-5.69028521

$$$$

 OpenBabel03252508363D

 31 33  0  0  0  0  0  0  0  0999 V2000
   38.8730   29.7650   39.3500 C   0  0  0  0  0  0  0  0  0  0  0  0
   38.9240   30.4450   38.1590 C   0  0  0  0  0  0  0  0  0  0  0  0
   37.7380   30.7060   37.5260 C   0  0  0  0  0  0  0  0  0  0  0  0
   36.5100   30.3240   38.0230 C   0  0  0  0  0  0  0  0  0  0  0  0
   36.4950   29.6400   39.2290 C   0  0  0  0  0  0  0  0  0  0  0  0
   37.6690   29.3610   39.8920 C   0  0  0  0  0  0  0  0  0  0  0  0
   37.8240   31.2460   36.5830 H   0  0  0  0  0  0  0  0  0  0  0  0
   35.6080   30.5600   37.4770 H   0  0  0  0  0  0  0  0  0  0  0  0
   35.5430   29.3330   39.6340 H   0  0  0  0  0  0  0  0  0  0  0  0
   41.8930   32.5010   37.0640 C   0  0  0  0  0  0  0  0  0  0  0  0
   40.6120   32.1760   37.5510 C   0  0  0  0  0  0  0  0  0  0  0  0
   40.2390   30.8340   37.6610 C   0  0  0  0  0  0  0  0  0  0  0  0
   41.1700   29.9130   37.2780 N   0  0  0  0  0  0  0  0  0  0  0  0
   42.3790   30.2490   36.8190 C   0  0  0  0  0  0  0  0  0  0  0  0
   42.7400   31.5520   36.7120 N   0  0  0  0  0  0  0  0  0  0  0  0
   42.2300   33.8720   36.9690 N   0  0  0  0  0  0  0  0  0  0  0  0
   39.9140   32.9420   37.8400 H   0  0  0  0  0  0  0  0  0  0  0  0
   43.0280   29.4250   36.5470 H   0  0  0  0  0  0  0  0  0  0  0  0
   42.0590   34.5630   36.1840 H   0  0  0  0  0  0  0  0  0  0  0  0
   42.6910   33.9840   37.9010 H   0  0  0  0  0  0  0  0  0  0  0  0
   37.7370   26.3370   39.8240 Cl  0  0  0  0  0  0  0  0  0  0  0  0
   37.7100   27.2660   41.3240 C   0  0  0  0  0  0  0  0  0  0  0  0
   37.6800   28.6350   41.1750 C   0  0  0  0  0  0  0  0  0  0  0  0
   37.6570   29.4880   42.2740 C   0  0  0  0  0  0  0  0  0  0  0  0
   37.6330   30.5710   42.2050 H   0  0  0  0  0  0  0  0  0  0  0  0
   37.6640   28.9650   43.5660 C   0  0  0  0  0  0  0  0  0  0  0  0
   37.6470   29.6070   44.4420 H   0  0  0  0  0  0  0  0  0  0  0  0
   37.6950   27.5940   43.6790 C   0  0  0  0  0  3  0  0  0  0  0  0
   37.7170   26.7330   42.5890 C   0  0  0  0  0  3  0  0  0  0  0  0
   41.0590   29.1930   40.6680 N   0  0  0  0  0  0  0  0  0  0  0  0
   40.0810   29.4560   40.0690 C   0  0  0  0  0  0  0  0  0  0  0  0
  1  6  1  0  0  0  0
  1 31  1  0  0  0  0
  2  1  2  0  0  0  0
  3  4  2  0  0  0  0
  3  2  1  0  0  0  0
  4  5  1  0  0  0  0
  5  9  1  0  0  0  0
  5  6  2  0  0  0  0
  6 23  1  0  0  0  0
  7  3  1  0  0  0  0
  8  4  1  0  0  0  0
 10 11  1  0  0  0  0
 11 12  2  0  0  0  0
 11 17  1  0  0  0  0
 12  2  1  0  0  0  0
 13 12  1  0  0  0  0
 14 13  2  0  0  0  0
 15 14  1  0  0  0  0
 15 10  2  0  0  0  0
 16 10  1  0  0  0  0
 16 20  1  0  0  0  0
 18 14  1  0  0  0  0
 19 16  1  0  0  0  0
 21 22  1  0  0  0  0
 22 29  1  0  0  0  0
 23 22  2  0  0  0  0
 23 24  1  0  0  0  0
 24 26  2  0  0  0  0
 25 24  1  0  0  0  0
 26 28  1  0  0  0  0
 26 27  1  0  0  0  0
 29 28  2  0  0  0  0
 31 30  3  0  0  0  0
M  END
>  <minimizedAffinity>
-5.65872049

$$$$

 OpenBabel03252508363D

 31 33  0  0  0  0  0  0  0  0999 V2000
   39.3150   31.1310   40.5990 C   0  0  0  0  0  0  0  0  0  0  0  0
   39.2990   32.3900   40.0550 C   0  0  0  0  0  0  0  0  0  0  0  0
   38.0780   32.9790   39.8570 C   0  0  0  0  0  0  0  0  0  0  0  0
   36.8810   32.3750   40.1740 C   0  0  0  0  0  0  0  0  0  0  0  0
   36.9350   31.1030   40.7230 C   0  0  0  0  0  0  0  0  0  0  0  0
   38.1430   30.4810   40.9360 C   0  0  0  0  0  0  0  0  0  0  0  0
   38.1100   33.9790   39.4210 H   0  0  0  0  0  0  0  0  0  0  0  0
   35.9490   32.8920   39.9940 H   0  0  0  0  0  0  0  0  0  0  0  0
   36.0070   30.6140   40.9790 H   0  0  0  0  0  0  0  0  0  0  0  0
   42.2170   33.8310   38.1440 C   0  0  0  0  0  0  0  0  0  0  0  0
   40.9660   33.2380   38.4070 C   0  0  0  0  0  0  0  0  0  0  0  0
   40.5830   33.0010   39.7300 C   0  0  0  0  0  0  0  0  0  0  0  0
   41.4740   33.3710   40.6940 N   0  0  0  0  0  0  0  0  0  0  0  0
   42.6550   33.9310   40.4160 C   0  0  0  0  0  0  0  0  0  0  0  0
   43.0260   34.1610   39.1330 N   0  0  0  0  0  0  0  0  0  0  0  0
   42.5650   34.0530   36.7900 N   0  0  0  0  0  0  0  0  0  0  0  0
   40.2990   32.9650   37.6080 H   0  0  0  0  0  0  0  0  0  0  0  0
   43.2740   34.1790   41.2710 H   0  0  0  0  0  0  0  0  0  0  0  0
   43.0340   33.4090   36.0930 H   0  0  0  0  0  0  0  0  0  0  0  0
   42.2200   35.0360   36.7000 H   0  0  0  0  0  0  0  0  0  0  0  0
   38.2650   28.1190   39.0510 Cl  0  0  0  0  0  0  0  0  0  0  0  0
   38.2900   27.9510   40.8080 C   0  0  0  0  0  0  0  0  0  0  0  0
   38.2280   29.1290   41.5180 C   0  0  0  0  0  0  0  0  0  0  0  0
   38.2400   29.1430   42.9090 C   0  0  0  0  0  0  0  0  0  0  0  0
   38.1930   30.0460   43.5100 H   0  0  0  0  0  0  0  0  0  0  0  0
   38.3170   27.9480   43.6210 C   0  0  0  0  0  0  0  0  0  0  0  0
   38.3280   27.9300   44.7070 H   0  0  0  0  0  0  0  0  0  0  0  0
   38.3780   26.7900   42.8810 C   0  0  0  0  0  3  0  0  0  0  0  0
   38.3660   26.7630   41.4910 C   0  0  0  0  0  3  0  0  0  0  0  0
   41.5780   29.8990   41.0450 N   0  0  0  0  0  0  0  0  0  0  0  0
   40.5620   30.4520   40.8350 C   0  0  0  0  0  0  0  0  0  0  0  0
  1 31  1  0  0  0  0
  1  6  1  0  0  0  0
  2  1  2  0  0  0  0
  3  2  1  0  0  0  0
  3  4  2  0  0  0  0
  4  5  1  0  0  0  0
  5  6  2  0  0  0  0
  5  9  1  0  0  0  0
  6 23  1  0  0  0  0
  7  3  1  0  0  0  0
  8  4  1  0  0  0  0
 10 11  2  0  0  0  0
 10 15  1  0  0  0  0
 11 12  1  0  0  0  0
 12  2  1  0  0  0  0
 12 13  2  0  0  0  0
 14 13  1  0  0  0  0
 14 18  1  0  0  0  0
 15 14  2  0  0  0  0
 16 10  1  0  0  0  0
 17 11  1  0  0  0  0
 19 16  1  0  0  0  0
 20 16  1  0  0  0  0
 21 22  1  0  0  0  0
 22 29  2  0  0  0  0
 22 23  1  0  0  0  0
 23 24  2  0  0  0  0
 24 25  1  0  0  0  0
 24 26  1  0  0  0  0
 26 27  1  0  0  0  0
 28 26  2  0  0  0  0
 29 28  1  0  0  0  0
 31 30  3  0  0  0  0
M  END
>  <minimizedAffinity>
-5.64129543

$$$$

 OpenBabel03252508363D

 31 33  0  0  0  0  0  0  0  0999 V2000
   38.1060   29.0730   40.5440 C   0  0  0  0  0  0  0  0  0  0  0  0
   37.7880   30.3760   40.2540 C   0  0  0  0  0  0  0  0  0  0  0  0
   36.4690   30.7370   40.3220 C   0  0  0  0  0  0  0  0  0  0  0  0
   35.4580   29.8650   40.6640 C   0  0  0  0  0  0  0  0  0  0  0  0
   35.8150   28.5560   40.9520 C   0  0  0  0  0  0  0  0  0  0  0  0
   37.1310   28.1590   40.8930 C   0  0  0  0  0  0  0  0  0  0  0  0
   36.2600   31.7800   40.0830 H   0  0  0  0  0  0  0  0  0  0  0  0
   34.4350   30.2110   40.7010 H   0  0  0  0  0  0  0  0  0  0  0  0
   35.0370   27.8590   41.2220 H   0  0  0  0  0  0  0  0  0  0  0  0
   40.2860   32.3890   38.2650 C   0  0  0  0  0  0  0  0  0  0  0  0
   39.2210   31.5150   38.5610 C   0  0  0  0  0  0  0  0  0  0  0  0
   38.8820   31.2730   39.8950 C   0  0  0  0  0  0  0  0  0  0  0  0
   39.6270   31.9200   40.8370 N   0  0  0  0  0  0  0  0  0  0  0  0
   40.6320   32.7440   40.5280 C   0  0  0  0  0  0  0  0  0  0  0  0
   40.9620   32.9780   39.2340 N   0  0  0  0  0  0  0  0  0  0  0  0
   40.5970   32.6050   36.9020 N   0  0  0  0  0  0  0  0  0  0  0  0
   38.6650   31.0290   37.7790 H   0  0  0  0  0  0  0  0  0  0  0  0
   41.1480   33.1970   41.3680 H   0  0  0  0  0  0  0  0  0  0  0  0
   41.2300   32.0590   36.2520 H   0  0  0  0  0  0  0  0  0  0  0  0
   40.0150   33.4600   36.7440 H   0  0  0  0  0  0  0  0  0  0  0  0
   38.1290   27.5350   43.6800 Cl  0  0  0  0  0  0  0  0  0  0  0  0
   38.0130   26.3200   42.4040 C   0  0  0  0  0  0  0  0  0  0  0  0
   37.5370   26.7740   41.1940 C   0  0  0  0  0  0  0  0  0  0  0  0
   37.3940   25.9240   40.1020 C   0  0  0  0  0  0  0  0  0  0  0  0
   37.0240   26.2370   39.1300 H   0  0  0  0  0  0  0  0  0  0  0  0
   37.7330   24.5770   40.2130 C   0  0  0  0  0  0  0  0  0  0  0  0
   37.6320   23.8920   39.3770 H   0  0  0  0  0  0  0  0  0  0  0  0
   38.2050   24.1570   41.4360 C   0  0  0  0  0  3  0  0  0  0  0  0
   38.3520   24.9970   42.5330 C   0  0  0  0  0  3  0  0  0  0  0  0
   40.5940   28.2690   40.4640 N   0  0  0  0  0  0  0  0  0  0  0  0
   39.4730   28.6240   40.4920 C   0  0  0  0  0  0  0  0  0  0  0  0
  1  6  1  0  0  0  0
  2  3  1  0  0  0  0
  2  1  2  0  0  0  0
  3  4  2  0  0  0  0
  4  8  1  0  0  0  0
  4  5  1  0  0  0  0
  5  9  1  0  0  0  0
  6  5  2  0  0  0  0
  6 23  1  0  0  0  0
  7  3  1  0  0  0  0
 10 11  2  0  0  0  0
 10 15  1  0  0  0  0
 11 12  1  0  0  0  0
 12  2  1  0  0  0  0
 12 13  2  0  0  0  0
 14 13  1  0  0  0  0
 14 18  1  0  0  0  0
 15 14  2  0  0  0  0
 16 10  1  0  0  0  0
 17 11  1  0  0  0  0
 19 16  1  0  0  0  0
 20 16  1  0  0  0  0
 22 29  1  0  0  0  0
 22 21  1  0  0  0  0
 23 22  2  0  0  0  0
 24 26  2  0  0  0  0
 24 23  1  0  0  0  0
 25 24  1  0  0  0  0
 26 28  1  0  0  0  0
 27 26  1  0  0  0  0
 28 29  2  0  0  0  0
 30 31  3  0  0  0  0
 31  1  1  0  0  0  0
M  END
>  <minimizedAffinity>
-5.62203884

$$$$

 OpenBabel03252508363D

 31 33  0  0  0  0  0  0  0  0999 V2000
   38.7630   28.4990   41.0240 C   0  0  0  0  0  0  0  0  0  0  0  0
   39.3250   29.7500   41.0870 C   0  0  0  0  0  0  0  0  0  0  0  0
   40.3380   29.9440   41.9880 C   0  0  0  0  0  0  0  0  0  0  0  0
   40.8140   28.9570   42.8230 C   0  0  0  0  0  0  0  0  0  0  0  0
   40.2240   27.7060   42.7320 C   0  0  0  0  0  0  0  0  0  0  0  0
   39.2040   27.4740   41.8380 C   0  0  0  0  0  0  0  0  0  0  0  0
   40.7550   30.9520   42.0060 H   0  0  0  0  0  0  0  0  0  0  0  0
   41.6170   29.1730   43.5140 H   0  0  0  0  0  0  0  0  0  0  0  0
   40.5830   26.9190   43.3790 H   0  0  0  0  0  0  0  0  0  0  0  0
   38.8240   32.0090   38.1060 C   0  0  0  0  0  0  0  0  0  0  0  0
   39.3690   31.0100   38.9370 C   0  0  0  0  0  0  0  0  0  0  0  0
   38.7980   30.7720   40.1890 C   0  0  0  0  0  0  0  0  0  0  0  0
   37.7240   31.5440   40.5230 N   0  0  0  0  0  0  0  0  0  0  0  0
   37.2270   32.4850   39.7150 C   0  0  0  0  0  0  0  0  0  0  0  0
   37.7820   32.7170   38.5000 N   0  0  0  0  0  0  0  0  0  0  0  0
   39.4330   32.2180   36.8460 N   0  0  0  0  0  0  0  0  0  0  0  0
   40.2180   30.4280   38.6250 H   0  0  0  0  0  0  0  0  0  0  0  0
   36.3720   33.0320   40.0950 H   0  0  0  0  0  0  0  0  0  0  0  0
   40.2530   32.8330   36.5790 H   0  0  0  0  0  0  0  0  0  0  0  0
   38.8280   31.5860   36.2740 H   0  0  0  0  0  0  0  0  0  0  0  0
   36.5840   27.0300   43.2840 Cl  0  0  0  0  0  0  0  0  0  0  0  0
   37.3720   25.7840   42.3130 C   0  0  0  0  0  0  0  0  0  0  0  0
   38.5590   26.1540   41.7220 C   0  0  0  0  0  0  0  0  0  0  0  0
   39.2850   25.2700   40.9290 C   0  0  0  0  0  0  0  0  0  0  0  0
   40.2250   25.5170   40.4450 H   0  0  0  0  0  0  0  0  0  0  0  0
   38.8170   23.9750   40.7140 C   0  0  0  0  0  0  0  0  0  0  0  0
   39.3630   23.2650   40.1000 H   0  0  0  0  0  0  0  0  0  0  0  0
   37.6270   23.6390   41.3190 C   0  0  0  0  0  3  0  0  0  0  0  0
   36.8940   24.5130   42.1130 C   0  0  0  0  0  3  0  0  0  0  0  0
   36.8150   28.0150   39.3470 N   0  0  0  0  0  0  0  0  0  0  0  0
   37.6940   28.2230   40.1000 C   0  0  0  0  0  0  0  0  0  0  0  0
  1  2  2  0  0  0  0
  1  6  1  0  0  0  0
  2  3  1  0  0  0  0
  3  7  1  0  0  0  0
  3  4  2  0  0  0  0
  4  8  1  0  0  0  0
  5  4  1  0  0  0  0
  5  9  1  0  0  0  0
  6  5  2  0  0  0  0
 10 15  2  0  0  0  0
 10 11  1  0  0  0  0
 11 12  2  0  0  0  0
 12 13  1  0  0  0  0
 12  2  1  0  0  0  0
 14 18  1  0  0  0  0
 14 13  2  0  0  0  0
 15 14  1  0  0  0  0
 16 10  1  0  0  0  0
 17 11  1  0  0  0  0
 19 16  1  0  0  0  0
 20 16  1  0  0  0  0
 22 21  1  0  0  0  0
 23  6  1  0  0  0  0
 23 22  2  0  0  0  0
 24 23  1  0  0  0  0
 25 24  1  0  0  0  0
 26 24  2  0  0  0  0
 26 28  1  0  0  0  0
 27 26  1  0  0  0  0
 28 29  2  0  0  0  0
 29 22  1  0  0  0  0
 30 31  3  0  0  0  0
 31  1  1  0  0  0  0
M  END
>  <minimizedAffinity>
-5.59531641

$$$$

 OpenBabel03252508363D

 31 33  0  0  0  0  0  0  0  0999 V2000
   37.2440   29.4650   39.6300 C   0  0  0  0  0  0  0  0  0  0  0  0
   36.7780   30.3520   38.6920 C   0  0  0  0  0  0  0  0  0  0  0  0
   36.9250   31.6880   38.9550 C   0  0  0  0  0  0  0  0  0  0  0  0
   37.5110   32.1780   40.1010 C   0  0  0  0  0  0  0  0  0  0  0  0
   37.9730   31.2550   41.0270 C   0  0  0  0  0  0  0  0  0  0  0  0
   37.8410   29.9040   40.7960 C   0  0  0  0  0  0  0  0  0  0  0  0
   36.5400   32.3580   38.1850 H   0  0  0  0  0  0  0  0  0  0  0  0
   37.5990   33.2450   40.2510 H   0  0  0  0  0  0  0  0  0  0  0  0
   38.4350   31.6200   41.9310 H   0  0  0  0  0  0  0  0  0  0  0  0
   36.2070   29.2160   35.1390 C   0  0  0  0  0  0  0  0  0  0  0  0
   36.8450   29.7590   36.2720 C   0  0  0  0  0  0  0  0  0  0  0  0
   36.1620   29.8000   37.4900 C   0  0  0  0  0  0  0  0  0  0  0  0
   34.8940   29.2970   37.4920 N   0  0  0  0  0  0  0  0  0  0  0  0
   34.3120   28.7880   36.4020 C   0  0  0  0  0  0  0  0  0  0  0  0
   34.9750   28.7490   35.2200 N   0  0  0  0  0  0  0  0  0  0  0  0
   36.9330   29.1950   33.9250 N   0  0  0  0  0  0  0  0  0  0  0  0
   37.8480   30.1430   36.2160 H   0  0  0  0  0  0  0  0  0  0  0  0
   33.3010   28.4200   36.5330 H   0  0  0  0  0  0  0  0  0  0  0  0
   37.0270   29.9350   33.1740 H   0  0  0  0  0  0  0  0  0  0  0  0
   37.3380   28.2340   34.0030 H   0  0  0  0  0  0  0  0  0  0  0  0
   40.6950   28.9320   40.5480 Cl  0  0  0  0  0  0  0  0  0  0  0  0
   39.5850   28.3550   41.7930 C   0  0  0  0  0  0  0  0  0  0  0  0
   38.3220   28.9020   41.7630 C   0  0  0  0  0  0  0  0  0  0  0  0
   37.3470   28.5370   42.6870 C   0  0  0  0  0  0  0  0  0  0  0  0
   36.3400   28.9400   42.7010 H   0  0  0  0  0  0  0  0  0  0  0  0
   37.6350   27.5970   43.6750 C   0  0  0  0  0  0  0  0  0  0  0  0
   36.8940   27.2940   44.4070 H   0  0  0  0  0  0  0  0  0  0  0  0
   38.9070   27.0700   43.6760 C   0  0  0  0  0  3  0  0  0  0  0  0
   39.8880   27.4270   42.7590 C   0  0  0  0  0  3  0  0  0  0  0  0
   37.0240   26.8850   39.2660 N   0  0  0  0  0  0  0  0  0  0  0  0
   37.1230   28.0460   39.4200 C   0  0  0  0  0  0  0  0  0  0  0  0
  1  6  1  0  0  0  0
  2  3  1  0  0  0  0
  2  1  2  0  0  0  0
  3  4  2  0  0  0  0
  4  8  1  0  0  0  0
  4  5  1  0  0  0  0
  5  9  1  0  0  0  0
  6  5  2  0  0  0  0
  6 23  1  0  0  0  0
  7  3  1  0  0  0  0
 10 15  2  0  0  0  0
 10 11  1  0  0  0  0
 11 12  2  0  0  0  0
 12 13  1  0  0  0  0
 12  2  1  0  0  0  0
 14 18  1  0  0  0  0
 14 13  2  0  0  0  0
 15 14  1  0  0  0  0
 16 20  1  0  0  0  0
 16 10  1  0  0  0  0
 17 11  1  0  0  0  0
 19 16  1  0  0  0  0
 21 22  1  0  0  0  0
 22 29  1  0  0  0  0
 23 22  2  0  0  0  0
 23 24  1  0  0  0  0
 24 25  1  0  0  0  0
 24 26  2  0  0  0  0
 26 28  1  0  0  0  0
 26 27  1  0  0  0  0
 29 28  2  0  0  0  0
 30 31  3  0  0  0  0
 31  1  1  0  0  0  0
M  END
>  <minimizedAffinity>
-5.56178951

$$$$

 OpenBabel03252508363D

 31 33  0  0  0  0  0  0  0  0999 V2000
   37.8210   28.8960   40.2080 C   0  0  0  0  0  0  0  0  0  0  0  0
   37.7900   30.2660   40.1200 C   0  0  0  0  0  0  0  0  0  0  0  0
   36.6020   30.8910   40.3870 C   0  0  0  0  0  0  0  0  0  0  0  0
   35.4500   30.2210   40.7360 C   0  0  0  0  0  0  0  0  0  0  0  0
   35.5170   28.8380   40.8170 C   0  0  0  0  0  0  0  0  0  0  0  0
   36.6940   28.1760   40.5550 C   0  0  0  0  0  0  0  0  0  0  0  0
   36.6210   31.9790   40.3040 H   0  0  0  0  0  0  0  0  0  0  0  0
   34.5420   30.7720   40.9350 H   0  0  0  0  0  0  0  0  0  0  0  0
   34.6240   28.2950   41.0890 H   0  0  0  0  0  0  0  0  0  0  0  0
   40.4530   32.0600   38.1370 C   0  0  0  0  0  0  0  0  0  0  0  0
   39.2420   31.4100   38.4480 C   0  0  0  0  0  0  0  0  0  0  0  0
   39.0270   30.9450   39.7470 C   0  0  0  0  0  0  0  0  0  0  0  0
   40.0330   31.1600   40.6430 N   0  0  0  0  0  0  0  0  0  0  0  0
   41.1720   31.7790   40.3210 C   0  0  0  0  0  0  0  0  0  0  0  0
   41.3810   32.2310   39.0600 N   0  0  0  0  0  0  0  0  0  0  0  0
   40.6310   32.5150   36.8090 N   0  0  0  0  0  0  0  0  0  0  0  0
   38.4800   31.2660   37.7030 H   0  0  0  0  0  0  0  0  0  0  0  0
   41.8940   31.8890   41.1220 H   0  0  0  0  0  0  0  0  0  0  0  0
   41.0060   32.0070   35.9590 H   0  0  0  0  0  0  0  0  0  0  0  0
   40.2810   33.4930   36.9320 H   0  0  0  0  0  0  0  0  0  0  0  0
   36.2020   26.5750   38.0360 Cl  0  0  0  0  0  0  0  0  0  0  0  0
   36.5990   25.8320   39.5870 C   0  0  0  0  0  0  0  0  0  0  0  0
   36.7920   26.7070   40.6330 C   0  0  0  0  0  0  0  0  0  0  0  0
   37.1100   26.2580   41.9110 C   0  0  0  0  0  0  0  0  0  0  0  0
   37.2710   26.9090   42.7640 H   0  0  0  0  0  0  0  0  0  0  0  0
   37.2410   24.8930   42.1610 C   0  0  0  0  0  0  0  0  0  0  0  0
   37.4880   24.5150   43.1480 H   0  0  0  0  0  0  0  0  0  0  0  0
   37.0420   24.0470   41.0940 C   0  0  0  0  0  3  0  0  0  0  0  0
   36.7240   24.4840   39.8140 C   0  0  0  0  0  3  0  0  0  0  0  0
   40.0350   27.5850   39.7390 N   0  0  0  0  0  0  0  0  0  0  0  0
   39.0360   28.1720   39.9400 C   0  0  0  0  0  0  0  0  0  0  0  0
  1  6  1  0  0  0  0
  2  1  2  0  0  0  0
  2  3  1  0  0  0  0
  3  4  2  0  0  0  0
  4  5  1  0  0  0  0
  4  8  1  0  0  0  0
  5  9  1  0  0  0  0
  6 23  1  0  0  0  0
  6  5  2  0  0  0  0
  7  3  1  0  0  0  0
 10 11  2  0  0  0  0
 10 15  1  0  0  0  0
 11 12  1  0  0  0  0
 12  2  1  0  0  0  0
 12 13  2  0  0  0  0
 14 13  1  0  0  0  0
 14 18  1  0  0  0  0
 15 14  2  0  0  0  0
 16 20  1  0  0  0  0
 16 10  1  0  0  0  0
 17 11  1  0  0  0  0
 19 16  1  0  0  0  0
 21 22  1  0  0  0  0
 22 29  2  0  0  0  0
 22 23  1  0  0  0  0
 23 24  2  0  0  0  0
 24 26  1  0  0  0  0
 24 25  1  0  0  0  0
 26 27  1  0  0  0  0
 28 26  2  0  0  0  0
 29 28  1  0  0  0  0
 30 31  3  0  0  0  0
 31  1  1  0  0  0  0
M  END
>  <minimizedAffinity>
-5.4860363

$$$$

 OpenBabel03252508363D

 31 33  0  0  0  0  0  0  0  0999 V2000
   37.7820   28.8190   39.8670 C   0  0  0  0  0  0  0  0  0  0  0  0
   37.4000   29.9920   39.2660 C   0  0  0  0  0  0  0  0  0  0  0  0
   36.1990   30.0050   38.6090 C   0  0  0  0  0  0  0  0  0  0  0  0
   35.3650   28.9110   38.5240 C   0  0  0  0  0  0  0  0  0  0  0  0
   35.7820   27.7420   39.1440 C   0  0  0  0  0  0  0  0  0  0  0  0
   36.9840   27.6930   39.8130 C   0  0  0  0  0  0  0  0  0  0  0  0
   35.9340   30.9560   38.1450 H   0  0  0  0  0  0  0  0  0  0  0  0
   34.4280   28.9840   37.9910 H   0  0  0  0  0  0  0  0  0  0  0  0
   35.1430   26.8740   39.0880 H   0  0  0  0  0  0  0  0  0  0  0  0
   39.0340   33.1920   40.4210 C   0  0  0  0  0  0  0  0  0  0  0  0
   38.1340   32.1100   40.3570 C   0  0  0  0  0  0  0  0  0  0  0  0
   38.3050   31.1310   39.3750 C   0  0  0  0  0  0  0  0  0  0  0  0
   39.3620   31.3000   38.5280 N   0  0  0  0  0  0  0  0  0  0  0  0
   40.2000   32.3360   38.6110 C   0  0  0  0  0  0  0  0  0  0  0  0
   40.0340   33.2870   39.5630 N   0  0  0  0  0  0  0  0  0  0  0  0
   38.8240   34.1610   41.4300 N   0  0  0  0  0  0  0  0  0  0  0  0
   37.3160   32.0240   41.0500 H   0  0  0  0  0  0  0  0  0  0  0  0
   41.0000   32.3580   37.8790 H   0  0  0  0  0  0  0  0  0  0  0  0
   38.2150   35.0270   41.4270 H   0  0  0  0  0  0  0  0  0  0  0  0
   39.4490   33.7580   42.1650 H   0  0  0  0  0  0  0  0  0  0  0  0
   36.5390   27.4250   42.7930 Cl  0  0  0  0  0  0  0  0  0  0  0  0
   37.3290   26.1810   41.8210 C   0  0  0  0  0  0  0  0  0  0  0  0
   37.4510   26.4640   40.4790 C   0  0  0  0  0  0  0  0  0  0  0  0
   38.0530   25.5710   39.5970 C   0  0  0  0  0  0  0  0  0  0  0  0
   38.1710   25.7520   38.5330 H   0  0  0  0  0  0  0  0  0  0  0  0
   38.5520   24.3560   40.0630 C   0  0  0  0  0  0  0  0  0  0  0  0
   39.0270   23.6420   39.3970 H   0  0  0  0  0  0  0  0  0  0  0  0
   38.4140   24.1060   41.4090 C   0  0  0  0  0  3  0  0  0  0  0  0
   37.8140   24.9900   42.2980 C   0  0  0  0  0  3  0  0  0  0  0  0
   40.0640   28.6660   41.1370 N   0  0  0  0  0  0  0  0  0  0  0  0
   39.0330   28.7330   40.5750 C   0  0  0  0  0  0  0  0  0  0  0  0
  1 31  1  0  0  0  0
  2 12  1  0  0  0  0
  2  1  2  0  0  0  0
  3  2  1  0  0  0  0
  4  3  2  0  0  0  0
  4  5  1  0  0  0  0
  5  6  2  0  0  0  0
  6  1  1  0  0  0  0
  6 23  1  0  0  0  0
  7  3  1  0  0  0  0
  8  4  1  0  0  0  0
  9  5  1  0  0  0  0
 10 16  1  0  0  0  0
 11 10  1  0  0  0  0
 11 17  1  0  0  0  0
 12 11  2  0  0  0  0
 13 14  2  0  0  0  0
 13 12  1  0  0  0  0
 14 15  1  0  0  0  0
 15 10  2  0  0  0  0
 16 20  1  0  0  0  0
 18 14  1  0  0  0  0
 19 16  1  0  0  0  0
 22 29  1  0  0  0  0
 22 21  1  0  0  0  0
 23 22  2  0  0  0  0
 24 26  2  0  0  0  0
 24 23  1  0  0  0  0
 25 24  1  0  0  0  0
 26 28  1  0  0  0  0
 27 26  1  0  0  0  0
 28 29  2  0  0  0  0
 31 30  3  0  0  0  0
M  END
>  <minimizedAffinity>
-5.47437191

$$$$

 OpenBabel03252508363D

 31 33  0  0  0  0  0  0  0  0999 V2000
   38.4640   27.8970   41.4710 C   0  0  0  0  0  0  0  0  0  0  0  0
   38.8860   27.5330   42.7250 C   0  0  0  0  0  0  0  0  0  0  0  0
   37.9280   27.3220   43.6800 C   0  0  0  0  0  0  0  0  0  0  0  0
   36.5760   27.4550   43.4450 C   0  0  0  0  0  0  0  0  0  0  0  0
   36.1850   27.8230   42.1660 C   0  0  0  0  0  0  0  0  0  0  0  0
   37.1210   28.0440   41.1820 C   0  0  0  0  0  0  0  0  0  0  0  0
   38.3060   27.0350   44.6620 H   0  0  0  0  0  0  0  0  0  0  0  0
   35.8680   27.2740   44.2410 H   0  0  0  0  0  0  0  0  0  0  0  0
   35.1300   27.9330   41.9630 H   0  0  0  0  0  0  0  0  0  0  0  0
   42.3290   26.0730   43.2340 C   0  0  0  0  0  0  0  0  0  0  0  0
   40.9380   26.1490   43.0250 C   0  0  0  0  0  0  0  0  0  0  0  0
   40.3230   27.4010   42.9400 C   0  0  0  0  0  0  0  0  0  0  0  0
   41.1390   28.4870   43.0700 N   0  0  0  0  0  0  0  0  0  0  0  0
   42.4560   28.3860   43.2680 C   0  0  0  0  0  0  0  0  0  0  0  0
   43.0520   27.1710   43.3500 N   0  0  0  0  0  0  0  0  0  0  0  0
   42.9110   24.7860   43.3130 N   0  0  0  0  0  0  0  0  0  0  0  0
   40.3390   25.2600   42.9290 H   0  0  0  0  0  0  0  0  0  0  0  0
   42.9940   29.3230   43.3550 H   0  0  0  0  0  0  0  0  0  0  0  0
   43.0300   24.1420   44.1460 H   0  0  0  0  0  0  0  0  0  0  0  0
   43.1810   24.6750   42.3090 H   0  0  0  0  0  0  0  0  0  0  0  0
   37.0060   30.9940   40.5210 Cl  0  0  0  0  0  0  0  0  0  0  0  0
   36.6290   29.7280   39.3490 C   0  0  0  0  0  0  0  0  0  0  0  0
   36.7310   28.4370   39.8160 C   0  0  0  0  0  0  0  0  0  0  0  0
   36.4630   27.3430   38.9990 C   0  0  0  0  0  0  0  0  0  0  0  0
   36.5300   26.3090   39.3230 H   0  0  0  0  0  0  0  0  0  0  0  0
   36.0800   27.5360   37.6730 C   0  0  0  0  0  0  0  0  0  0  0  0
   35.8650   26.7010   37.0140 H   0  0  0  0  0  0  0  0  0  0  0  0
   35.9880   28.8390   37.2390 C   0  0  0  0  0  3  0  0  0  0  0  0
   36.2530   29.9390   38.0470 C   0  0  0  0  0  3  0  0  0  0  0  0
   40.1960   28.3130   39.5560 N   0  0  0  0  0  0  0  0  0  0  0  0
   39.4170   28.1360   40.4180 C   0  0  0  0  0  0  0  0  0  0  0  0
  1  2  1  0  0  0  0
  2 12  1  0  0  0  0
  2  3  2  0  0  0  0
  3  7  1  0  0  0  0
  4  3  1  0  0  0  0
  4  8  1  0  0  0  0
  5  4  2  0  0  0  0
  6  1  2  0  0  0  0
  6  5  1  0  0  0  0
  9  5  1  0  0  0  0
 10 16  1  0  0  0  0
 10 15  1  0  0  0  0
 11 10  2  0  0  0  0
 12 11  1  0  0  0  0
 12 13  2  0  0  0  0
 13 14  1  0  0  0  0
 14 15  2  0  0  0  0
 14 18  1  0  0  0  0
 16 19  1  0  0  0  0
 17 11  1  0  0  0  0
 20 16  1  0  0  0  0
 22 23  1  0  0  0  0
 22 21  1  0  0  0  0
 23  6  1  0  0  0  0
 24 25  1  0  0  0  0
 24 23  2  0  0  0  0
 26 24  1  0  0  0  0
 27 26  1  0  0  0  0
 28 26  2  0  0  0  0
 28 29  1  0  0  0  0
 29 22  2  0  0  0  0
 30 31  3  0  0  0  0
 31  1  1  0  0  0  0
M  END
>  <minimizedAffinity>
-5.46802711

$$$$
