
 OpenBabel03252505303D

 27 28  0  0  0  0  0  0  0  0999 V2000
   47.3080   31.3020   48.2860 O   0  0  0  0  0  0  0  0  0  0  0  0
   46.1080   32.0090   47.6330 P   0  0  1  0  0  0  0  0  0  0  0  0
   45.5320   33.2690   48.5720 O   0  0  0  0  0  0  0  0  0  0  0  0
   45.9210   33.1850   49.4780 H   0  0  0  0  0  0  0  0  0  0  0  0
   46.6420   32.5530   46.1110 O   0  0  0  0  0  0  0  0  0  0  0  0
   44.5650   35.3390   45.3670 C   0  0  0  0  0  0  0  0  0  0  0  0
   44.9130   35.6880   44.0470 C   0  0  0  0  0  0  0  0  0  0  0  0
   45.9070   34.9080   43.4230 C   0  0  0  0  0  0  0  0  0  0  0  0
   46.4600   33.8770   44.1340 N   0  0  0  0  0  0  0  0  0  0  0  0
   46.0810   33.5940   45.3980 C   0  0  0  0  0  0  0  0  0  0  0  0
   45.1380   34.3230   46.0090 N   0  0  0  0  0  0  0  0  0  0  0  0
   43.8010   35.9350   45.8520 H   0  0  0  0  0  0  0  0  0  0  0  0
   44.4870   36.4870   43.4880 H   0  0  0  0  0  0  0  0  0  0  0  0
   46.2650   35.0700   42.4120 H   0  0  0  0  0  0  0  0  0  0  0  0
   44.8880   30.8420   47.4840 O   0  0  0  0  0  0  0  0  0  0  0  0
   45.3170   29.9200   46.5490 C   0  0  0  0  0  0  0  0  0  0  0  0
   45.0650   30.2420   45.5230 H   0  0  0  0  0  0  0  0  0  0  0  0
   46.4200   29.8770   46.6180 H   0  0  0  0  0  0  0  0  0  0  0  0
   43.3360   28.8700   44.5090 Cl  0  0  0  0  0  0  0  0  0  0  0  0
   43.8280   28.0750   45.9950 C   0  0  0  0  0  0  0  0  0  0  0  0
   44.7480   28.5970   46.9120 C   0  0  0  0  0  0  0  0  0  0  0  0
   45.0550   27.8760   48.0460 C   0  0  0  0  0  0  0  0  0  0  0  0
   45.7720   28.3260   48.7180 H   0  0  0  0  0  0  0  0  0  0  0  0
   44.4830   26.6490   48.3120 C   0  0  0  0  0  0  0  0  0  0  0  0
   44.7240   26.0880   49.1980 H   0  0  0  0  0  0  0  0  0  0  0  0
   43.5610   26.0840   47.4330 C   0  0  0  0  0  3  0  0  0  0  0  0
   43.2890   26.8450   46.3130 C   0  0  0  0  0  3  0  0  0  0  0  0
  2  1  2  1  0  0  0
  2  3  1  0  0  0  0
  3  4  1  0  0  0  0
  5  2  1  0  0  0  0
  6 12  1  0  0  0  0
  6 11  1  0  0  0  0
  7  6  2  0  0  0  0
  8  7  1  0  0  0  0
  8  9  2  0  0  0  0
  9 10  1  0  0  0  0
 10 11  2  0  0  0  0
 10  5  1  0  0  0  0
 13  7  1  0  0  0  0
 14  8  1  0  0  0  0
 15  2  1  0  0  0  0
 16 18  1  0  0  0  0
 16 21  1  0  0  0  0
 16 15  1  0  0  0  0
 17 16  1  0  0  0  0
 19 20  1  0  0  0  0
 20 27  2  0  0  0  0
 20 21  1  0  0  0  0
 21 22  2  0  0  0  0
 22 24  1  0  0  0  0
 22 23  1  0  0  0  0
 24 25  1  0  0  0  0
 26 24  2  0  0  0  0
 27 26  1  0  0  0  0
M  END
>  <minimizedAffinity>
-4.8895483

>  <minimizedRMSD>
0.96745652

$$$$
