
 OpenBabel03242523293D

 21 22  0  0  0  0  0  0  0  0999 V2000
   36.1970   30.7360   41.0410 C   0  0  0  0  0  0  0  0  0  0  0  0
   36.2010   31.7180   41.5070 H   0  0  0  0  0  0  0  0  0  0  0  0
   35.1450   30.3460   41.0630 H   0  0  0  0  0  0  0  0  0  0  0  0
   37.2700   27.5950   42.7210 C   0  0  0  0  0  0  0  0  0  0  0  0
   38.5710   27.9010   43.1190 C   0  0  0  0  0  0  0  0  0  0  0  0
   39.0650   29.1790   42.8100 C   0  0  0  0  0  0  0  0  0  0  0  0
   38.2620   30.0530   42.1400 N   0  0  0  0  0  0  0  0  0  0  0  0
   37.0010   29.7100   41.7720 C   0  0  0  0  0  0  0  0  0  0  0  0
   36.5350   28.4900   42.0700 N   0  0  0  0  0  0  0  0  0  0  0  0
   36.9160   26.5920   42.9770 H   0  0  0  0  0  0  0  0  0  0  0  0
   39.2450   27.2430   43.6510 H   0  0  0  0  0  0  0  0  0  0  0  0
   40.0510   29.5480   43.0580 H   0  0  0  0  0  0  0  0  0  0  0  0
   37.7620   33.1940   40.0890 Cl  0  0  0  0  0  0  0  0  0  0  0  0
   37.3090   31.8550   39.0740 C   0  0  0  0  0  0  0  0  0  0  0  0
   36.6040   30.7920   39.5970 C   0  0  0  0  0  0  0  0  0  0  0  0
   36.2430   29.7280   38.7970 C   0  0  0  0  0  0  0  0  0  0  0  0
   35.6830   28.8920   39.2270 H   0  0  0  0  0  0  0  0  0  0  0  0
   36.5530   29.6560   37.4560 C   0  0  0  0  0  0  0  0  0  0  0  0
   36.2410   28.7960   36.8850 H   0  0  0  0  0  0  0  0  0  0  0  0
   37.2690   30.7310   36.9190 C   0  0  0  0  0  3  0  0  0  0  0  0
   37.6330   31.8000   37.7210 C   0  0  0  0  0  3  0  0  0  0  0  0
  1  3  1  0  0  0  0
  1  2  1  0  0  0  0
  1  8  1  0  0  0  0
  4 10  1  0  0  0  0
  4  5  1  0  0  0  0
  5 11  1  0  0  0  0
  6 12  1  0  0  0  0
  6  5  2  0  0  0  0
  7  6  1  0  0  0  0
  8  9  1  0  0  0  0
  8  7  2  0  0  0  0
  9  4  2  0  0  0  0
 14 15  1  0  0  0  0
 14 13  1  0  0  0  0
 15  1  1  0  0  0  0
 16 17  1  0  0  0  0
 16 15  2  0  0  0  0
 18 16  1  0  0  0  0
 19 18  1  0  0  0  0
 20 18  2  0  0  0  0
 20 21  1  0  0  0  0
 21 14  2  0  0  0  0
M  END
>  <minimizedAffinity>
-4.5352416

$$$$

 OpenBabel03242523293D

 21 22  0  0  0  0  0  0  0  0999 V2000
   36.5940   27.3850   42.8460 C   0  0  0  0  0  0  0  0  0  0  0  0
   35.7180   26.7450   42.7850 H   0  0  0  0  0  0  0  0  0  0  0  0
   36.5220   27.9850   43.7900 H   0  0  0  0  0  0  0  0  0  0  0  0
   37.0300   30.5780   40.9860 C   0  0  0  0  0  0  0  0  0  0  0  0
   36.8280   30.1810   39.6650 C   0  0  0  0  0  0  0  0  0  0  0  0
   36.5440   28.8270   39.4260 C   0  0  0  0  0  0  0  0  0  0  0  0
   36.4800   27.9680   40.4820 N   0  0  0  0  0  0  0  0  0  0  0  0
   36.6850   28.4010   41.7530 C   0  0  0  0  0  0  0  0  0  0  0  0
   36.9550   29.6940   41.9750 N   0  0  0  0  0  0  0  0  0  0  0  0
   37.2490   31.6390   41.1380 H   0  0  0  0  0  0  0  0  0  0  0  0
   36.8680   30.8230   38.7950 H   0  0  0  0  0  0  0  0  0  0  0  0
   36.3660   28.3850   38.4550 H   0  0  0  0  0  0  0  0  0  0  0  0
   36.6030   24.5420   41.6970 Cl  0  0  0  0  0  0  0  0  0  0  0  0
   37.9720   25.3100   42.4490 C   0  0  0  0  0  0  0  0  0  0  0  0
   37.8690   26.5960   42.9360 C   0  0  0  0  0  0  0  0  0  0  0  0
   38.9510   27.2090   43.5330 C   0  0  0  0  0  0  0  0  0  0  0  0
   38.8530   28.2290   43.9140 H   0  0  0  0  0  0  0  0  0  0  0  0
   40.1770   26.5950   43.6800 C   0  0  0  0  0  0  0  0  0  0  0  0
   40.9830   27.1290   44.1560 H   0  0  0  0  0  0  0  0  0  0  0  0
   40.2880   25.2910   43.1880 C   0  0  0  0  0  3  0  0  0  0  0  0
   39.2020   24.6730   42.5870 C   0  0  0  0  0  3  0  0  0  0  0  0
  1 15  1  0  0  0  0
  1  3  1  0  0  0  0
  2  1  1  0  0  0  0
  4 10  1  0  0  0  0
  4  9  1  0  0  0  0
  5  4  2  0  0  0  0
  6  5  1  0  0  0  0
  6  7  2  0  0  0  0
  7  8  1  0  0  0  0
  8  9  2  0  0  0  0
  8  1  1  0  0  0  0
 11  5  1  0  0  0  0
 12  6  1  0  0  0  0
 13 14  1  0  0  0  0
 14 21  2  0  0  0  0
 14 15  1  0  0  0  0
 15 16  2  0  0  0  0
 16 18  1  0  0  0  0
 16 17  1  0  0  0  0
 18 19  1  0  0  0  0
 20 18  2  0  0  0  0
 21 20  1  0  0  0  0
M  END
>  <minimizedAffinity>
-4.49970961

$$$$

 OpenBabel03242523293D

 21 22  0  0  0  0  0  0  0  0999 V2000
   35.5190   28.9210   40.8590 C   0  0  0  0  0  0  0  0  0  0  0  0
   34.8270   28.3740   40.2230 H   0  0  0  0  0  0  0  0  0  0  0  0
   34.9310   29.3840   41.6940 H   0  0  0  0  0  0  0  0  0  0  0  0
   37.1320   32.2070   40.1940 C   0  0  0  0  0  0  0  0  0  0  0  0
   37.4280   32.1220   38.8340 C   0  0  0  0  0  0  0  0  0  0  0  0
   37.0720   30.9420   38.1610 C   0  0  0  0  0  0  0  0  0  0  0  0
   36.4610   29.9430   38.8570 N   0  0  0  0  0  0  0  0  0  0  0  0
   36.1920   30.0710   40.1810 C   0  0  0  0  0  0  0  0  0  0  0  0
   36.5340   31.1990   40.8190 N   0  0  0  0  0  0  0  0  0  0  0  0
   37.4220   33.1390   40.6890 H   0  0  0  0  0  0  0  0  0  0  0  0
   37.9110   32.8860   38.2390 H   0  0  0  0  0  0  0  0  0  0  0  0
   37.2420   30.7430   37.1110 H   0  0  0  0  0  0  0  0  0  0  0  0
   36.4030   26.4310   39.3050 Cl  0  0  0  0  0  0  0  0  0  0  0  0
   36.9950   26.8770   40.8790 C   0  0  0  0  0  0  0  0  0  0  0  0
   36.5360   28.0200   41.4980 C   0  0  0  0  0  0  0  0  0  0  0  0
   37.0020   28.3770   42.7460 C   0  0  0  0  0  0  0  0  0  0  0  0
   36.6270   29.2870   43.2240 H   0  0  0  0  0  0  0  0  0  0  0  0
   37.9340   27.6380   43.4420 C   0  0  0  0  0  0  0  0  0  0  0  0
   38.2580   27.9720   44.4140 H   0  0  0  0  0  0  0  0  0  0  0  0
   38.4050   26.4770   42.8190 C   0  0  0  0  0  3  0  0  0  0  0  0
   37.9380   26.1160   41.5650 C   0  0  0  0  0  3  0  0  0  0  0  0
  1 15  1  0  0  0  0
  1  3  1  0  0  0  0
  2  1  1  0  0  0  0
  4 10  1  0  0  0  0
  4  9  1  0  0  0  0
  5  4  2  0  0  0  0
  6  5  1  0  0  0  0
  6  7  2  0  0  0  0
  7  8  1  0  0  0  0
  8  9  2  0  0  0  0
  8  1  1  0  0  0  0
 11  5  1  0  0  0  0
 12  6  1  0  0  0  0
 13 14  1  0  0  0  0
 14 15  2  0  0  0  0
 14 21  1  0  0  0  0
 15 16  1  0  0  0  0
 16 17  1  0  0  0  0
 16 18  2  0  0  0  0
 18 19  1  0  0  0  0
 20 18  1  0  0  0  0
 21 20  2  0  0  0  0
M  END
>  <minimizedAffinity>
-4.49331903

$$$$

 OpenBabel03242523293D

 21 22  0  0  0  0  0  0  0  0999 V2000
   35.2640   29.2810   40.3280 C   0  0  0  0  0  0  0  0  0  0  0  0
   34.4950   29.6710   40.9890 H   0  0  0  0  0  0  0  0  0  0  0  0
   34.7570   28.8260   39.4360 H   0  0  0  0  0  0  0  0  0  0  0  0
   37.1230   27.1150   42.7140 C   0  0  0  0  0  0  0  0  0  0  0  0
   37.5600   26.0770   41.8920 C   0  0  0  0  0  0  0  0  0  0  0  0
   37.2150   26.1300   40.5320 C   0  0  0  0  0  0  0  0  0  0  0  0
   36.4750   27.1810   40.0790 N   0  0  0  0  0  0  0  0  0  0  0  0
   36.0710   28.1700   40.9170 C   0  0  0  0  0  0  0  0  0  0  0  0
   36.4040   28.1150   42.2140 N   0  0  0  0  0  0  0  0  0  0  0  0
   37.4090   27.0440   43.7670 H   0  0  0  0  0  0  0  0  0  0  0  0
   38.1480   25.2230   42.2040 H   0  0  0  0  0  0  0  0  0  0  0  0
   37.4860   25.3960   39.7860 H   0  0  0  0  0  0  0  0  0  0  0  0
   35.8880   29.2970   37.3260 Cl  0  0  0  0  0  0  0  0  0  0  0  0
   36.5020   30.4550   38.4700 C   0  0  0  0  0  0  0  0  0  0  0  0
   36.1630   30.3640   39.8040 C   0  0  0  0  0  0  0  0  0  0  0  0
   36.6470   31.2790   40.7150 C   0  0  0  0  0  0  0  0  0  0  0  0
   36.3690   31.1930   41.7690 H   0  0  0  0  0  0  0  0  0  0  0  0
   37.4810   32.3200   40.3660 C   0  0  0  0  0  0  0  0  0  0  0  0
   37.8260   33.0020   41.1260 H   0  0  0  0  0  0  0  0  0  0  0  0
   37.8290   32.4170   39.0140 C   0  0  0  0  0  3  0  0  0  0  0  0
   37.3430   31.5000   38.0970 C   0  0  0  0  0  3  0  0  0  0  0  0
  1  8  1  0  0  0  0
  1  2  1  0  0  0  0
  3  1  1  0  0  0  0
  4 10  1  0  0  0  0
  5 11  1  0  0  0  0
  5  4  2  0  0  0  0
  6  5  1  0  0  0  0
  7  6  2  0  0  0  0
  7  8  1  0  0  0  0
  8  9  2  0  0  0  0
  9  4  1  0  0  0  0
 12  6  1  0  0  0  0
 13 14  1  0  0  0  0
 14 15  1  0  0  0  0
 15  1  1  0  0  0  0
 15 16  2  0  0  0  0
 16 17  1  0  0  0  0
 18 16  1  0  0  0  0
 18 19  1  0  0  0  0
 20 18  2  0  0  0  0
 21 14  2  0  0  0  0
 21 20  1  0  0  0  0
M  END
>  <minimizedAffinity>
-4.43297005

$$$$

 OpenBabel03242523293D

 21 22  0  0  0  0  0  0  0  0999 V2000
   37.8170   28.5620   43.4230 C   0  0  0  0  0  0  0  0  0  0  0  0
   36.9840   28.6610   44.1140 H   0  0  0  0  0  0  0  0  0  0  0  0
   38.7500   28.8880   43.9550 H   0  0  0  0  0  0  0  0  0  0  0  0
   36.5270   30.7860   40.7330 C   0  0  0  0  0  0  0  0  0  0  0  0
   37.6840   31.0830   40.0140 C   0  0  0  0  0  0  0  0  0  0  0  0
   38.8910   30.5180   40.4570 C   0  0  0  0  0  0  0  0  0  0  0  0
   38.8800   29.7150   41.5580 N   0  0  0  0  0  0  0  0  0  0  0  0
   37.7280   29.4540   42.2270 C   0  0  0  0  0  0  0  0  0  0  0  0
   36.5790   29.9950   41.8010 N   0  0  0  0  0  0  0  0  0  0  0  0
   35.6040   31.2410   40.3630 H   0  0  0  0  0  0  0  0  0  0  0  0
   37.7430   31.7130   39.1370 H   0  0  0  0  0  0  0  0  0  0  0  0
   39.8580   30.6630   39.9950 H   0  0  0  0  0  0  0  0  0  0  0  0
   40.6490   27.4170   43.6800 Cl  0  0  0  0  0  0  0  0  0  0  0  0
   39.2760   26.5340   43.0790 C   0  0  0  0  0  0  0  0  0  0  0  0
   38.0390   27.1390   43.0010 C   0  0  0  0  0  0  0  0  0  0  0  0
   36.9470   26.4430   42.5250 C   0  0  0  0  0  0  0  0  0  0  0  0
   35.9720   26.9360   42.4700 H   0  0  0  0  0  0  0  0  0  0  0  0
   37.0140   25.1320   42.1050 C   0  0  0  0  0  0  0  0  0  0  0  0
   36.1230   24.6440   41.7430 H   0  0  0  0  0  0  0  0  0  0  0  0
   38.2660   24.5130   42.1810 C   0  0  0  0  0  3  0  0  0  0  0  0
   39.3650   25.2090   42.6590 C   0  0  0  0  0  3  0  0  0  0  0  0
  1  3  1  0  0  0  0
  1  2  1  0  0  0  0
  4  9  1  0  0  0  0
  5  6  1  0  0  0  0
  5  4  2  0  0  0  0
  6  7  2  0  0  0  0
  7  8  1  0  0  0  0
  8  1  1  0  0  0  0
  9  8  2  0  0  0  0
 10  4  1  0  0  0  0
 11  5  1  0  0  0  0
 12  6  1  0  0  0  0
 14 13  1  0  0  0  0
 15 14  1  0  0  0  0
 15  1  1  0  0  0  0
 16 15  2  0  0  0  0
 17 16  1  0  0  0  0
 18 20  2  0  0  0  0
 18 16  1  0  0  0  0
 19 18  1  0  0  0  0
 20 21  1  0  0  0  0
 21 14  2  0  0  0  0
M  END
>  <minimizedAffinity>
-4.39129305

$$$$

 OpenBabel03242523293D

 21 22  0  0  0  0  0  0  0  0999 V2000
   37.3500   28.2300   43.4690 C   0  0  0  0  0  0  0  0  0  0  0  0
   37.4040   28.5450   44.5080 H   0  0  0  0  0  0  0  0  0  0  0  0
   36.2730   28.0420   43.2180 H   0  0  0  0  0  0  0  0  0  0  0  0
   39.8420   25.4680   43.4100 C   0  0  0  0  0  0  0  0  0  0  0  0
   39.2160   24.5210   42.6000 C   0  0  0  0  0  0  0  0  0  0  0  0
   37.9500   24.8400   42.0820 C   0  0  0  0  0  0  0  0  0  0  0  0
   37.3940   26.0450   42.3920 N   0  0  0  0  0  0  0  0  0  0  0  0
   38.0410   26.9350   43.1860 C   0  0  0  0  0  0  0  0  0  0  0  0
   39.2490   26.6270   43.6770 N   0  0  0  0  0  0  0  0  0  0  0  0
   40.8260   25.1890   43.7980 H   0  0  0  0  0  0  0  0  0  0  0  0
   39.6160   23.5540   42.3270 H   0  0  0  0  0  0  0  0  0  0  0  0
   37.3550   24.2020   41.4420 H   0  0  0  0  0  0  0  0  0  0  0  0
   35.6450   28.8260   40.9920 Cl  0  0  0  0  0  0  0  0  0  0  0  0
   37.1320   29.6370   41.3870 C   0  0  0  0  0  0  0  0  0  0  0  0
   37.8290   29.2980   42.5280 C   0  0  0  0  0  0  0  0  0  0  0  0
   39.0090   29.9380   42.8450 C   0  0  0  0  0  0  0  0  0  0  0  0
   39.5500   29.6570   43.7530 H   0  0  0  0  0  0  0  0  0  0  0  0
   39.5590   30.9340   42.0660 C   0  0  0  0  0  0  0  0  0  0  0  0
   40.4850   31.3950   42.3700 H   0  0  0  0  0  0  0  0  0  0  0  0
   38.8560   31.2830   40.9080 C   0  0  0  0  0  3  0  0  0  0  0  0
   37.6700   30.6420   40.5870 C   0  0  0  0  0  3  0  0  0  0  0  0
  1  2  1  0  0  0  0
  3  1  1  0  0  0  0
  4  9  1  0  0  0  0
  4 10  1  0  0  0  0
  5  4  2  0  0  0  0
  6  7  2  0  0  0  0
  6  5  1  0  0  0  0
  7  8  1  0  0  0  0
  8  1  1  0  0  0  0
  8  9  2  0  0  0  0
 11  5  1  0  0  0  0
 12  6  1  0  0  0  0
 13 14  1  0  0  0  0
 14 15  1  0  0  0  0
 15 16  2  0  0  0  0
 15  1  1  0  0  0  0
 16 17  1  0  0  0  0
 18 19  1  0  0  0  0
 18 16  1  0  0  0  0
 20 18  2  0  0  0  0
 21 20  1  0  0  0  0
 21 14  2  0  0  0  0
M  END
>  <minimizedAffinity>
-4.37743855

$$$$

 OpenBabel03242523293D

 21 22  0  0  0  0  0  0  0  0999 V2000
   36.9900   27.5760   42.9870 C   0  0  0  0  0  0  0  0  0  0  0  0
   37.4950   27.9270   43.8830 H   0  0  0  0  0  0  0  0  0  0  0  0
   35.9710   27.2120   43.2820 H   0  0  0  0  0  0  0  0  0  0  0  0
   39.4470   25.3710   41.2700 C   0  0  0  0  0  0  0  0  0  0  0  0
   38.7470   24.1690   41.1720 C   0  0  0  0  0  0  0  0  0  0  0  0
   37.4440   24.1270   41.6930 C   0  0  0  0  0  0  0  0  0  0  0  0
   36.9250   25.2490   42.2670 N   0  0  0  0  0  0  0  0  0  0  0  0
   37.6440   26.3980   42.3400 C   0  0  0  0  0  0  0  0  0  0  0  0
   38.8870   26.4330   41.8410 N   0  0  0  0  0  0  0  0  0  0  0  0
   40.4590   25.3710   40.8550 H   0  0  0  0  0  0  0  0  0  0  0  0
   39.1150   23.2540   40.7270 H   0  0  0  0  0  0  0  0  0  0  0  0
   36.7920   23.2640   41.6840 H   0  0  0  0  0  0  0  0  0  0  0  0
   38.9480   29.9350   43.0190 Cl  0  0  0  0  0  0  0  0  0  0  0  0
   37.6060   29.7770   41.9220 C   0  0  0  0  0  0  0  0  0  0  0  0
   36.7800   28.6750   41.9860 C   0  0  0  0  0  0  0  0  0  0  0  0
   35.7140   28.5460   41.1190 C   0  0  0  0  0  0  0  0  0  0  0  0
   35.0680   27.6660   41.1830 H   0  0  0  0  0  0  0  0  0  0  0  0
   35.4110   29.4830   40.1550 C   0  0  0  0  0  0  0  0  0  0  0  0
   34.5630   29.3220   39.5080 H   0  0  0  0  0  0  0  0  0  0  0  0
   36.2450   30.6030   40.0850 C   0  0  0  0  0  3  0  0  0  0  0  0
   37.3160   30.7350   40.9540 C   0  0  0  0  0  3  0  0  0  0  0  0
  1  3  1  0  0  0  0
  1  2  1  0  0  0  0
  4  9  1  0  0  0  0
  5  4  2  0  0  0  0
  5  6  1  0  0  0  0
  6  7  2  0  0  0  0
  7  8  1  0  0  0  0
  8  1  1  0  0  0  0
  9  8  2  0  0  0  0
 10  4  1  0  0  0  0
 11  5  1  0  0  0  0
 12  6  1  0  0  0  0
 14 15  1  0  0  0  0
 14 13  1  0  0  0  0
 15  1  1  0  0  0  0
 16 17  1  0  0  0  0
 16 15  2  0  0  0  0
 18 16  1  0  0  0  0
 19 18  1  0  0  0  0
 20 18  2  0  0  0  0
 20 21  1  0  0  0  0
 21 14  2  0  0  0  0
M  END
>  <minimizedAffinity>
-4.35440016

$$$$

 OpenBabel03242523293D

 21 22  0  0  0  0  0  0  0  0999 V2000
   36.1860   30.6340   40.8100 C   0  0  0  0  0  0  0  0  0  0  0  0
   36.4130   31.6550   41.1060 H   0  0  0  0  0  0  0  0  0  0  0  0
   35.0880   30.4640   40.9640 H   0  0  0  0  0  0  0  0  0  0  0  0
   36.9680   27.4560   42.5800 C   0  0  0  0  0  0  0  0  0  0  0  0
   38.1750   27.7570   43.2090 C   0  0  0  0  0  0  0  0  0  0  0  0
   38.7070   29.0430   43.0220 C   0  0  0  0  0  0  0  0  0  0  0  0
   38.0290   29.9310   42.2410 N   0  0  0  0  0  0  0  0  0  0  0  0
   36.8560   29.5930   41.6480 C   0  0  0  0  0  0  0  0  0  0  0  0
   36.3530   28.3650   41.8300 N   0  0  0  0  0  0  0  0  0  0  0  0
   36.5810   26.4460   42.7450 H   0  0  0  0  0  0  0  0  0  0  0  0
   38.7490   27.0880   43.8360 H   0  0  0  0  0  0  0  0  0  0  0  0
   39.6310   29.4090   43.4490 H   0  0  0  0  0  0  0  0  0  0  0  0
   34.1370   28.9940   39.2260 Cl  0  0  0  0  0  0  0  0  0  0  0  0
   35.5960   29.6660   38.5580 C   0  0  0  0  0  0  0  0  0  0  0  0
   36.4570   30.3920   39.3540 C   0  0  0  0  0  0  0  0  0  0  0  0
   37.6160   30.9260   38.8280 C   0  0  0  0  0  0  0  0  0  0  0  0
   38.2880   31.4990   39.4730 H   0  0  0  0  0  0  0  0  0  0  0  0
   37.9830   30.7760   37.5080 C   0  0  0  0  0  0  0  0  0  0  0  0
   38.9020   31.2190   37.1590 H   0  0  0  0  0  0  0  0  0  0  0  0
   37.1130   30.0410   36.6960 C   0  0  0  0  0  3  0  0  0  0  0  0
   35.9490   29.5040   37.2210 C   0  0  0  0  0  3  0  0  0  0  0  0
  1  3  1  0  0  0  0
  1  2  1  0  0  0  0
  1  8  1  0  0  0  0
  4 10  1  0  0  0  0
  4  5  1  0  0  0  0
  5 11  1  0  0  0  0
  6  5  2  0  0  0  0
  6 12  1  0  0  0  0
  7  6  1  0  0  0  0
  8  9  1  0  0  0  0
  8  7  2  0  0  0  0
  9  4  2  0  0  0  0
 14 13  1  0  0  0  0
 14 15  1  0  0  0  0
 15  1  1  0  0  0  0
 16 15  2  0  0  0  0
 16 17  1  0  0  0  0
 18 16  1  0  0  0  0
 19 18  1  0  0  0  0
 20 21  1  0  0  0  0
 20 18  2  0  0  0  0
 21 14  2  0  0  0  0
M  END
>  <minimizedAffinity>
-4.3193512

$$$$

 OpenBabel03242523293D

 21 22  0  0  0  0  0  0  0  0999 V2000
   38.3350   29.3150   39.9010 C   0  0  0  0  0  0  0  0  0  0  0  0
   39.2570   28.9470   39.4600 H   0  0  0  0  0  0  0  0  0  0  0  0
   37.4900   29.0480   39.2130 H   0  0  0  0  0  0  0  0  0  0  0  0
   39.0160   32.8320   40.9070 C   0  0  0  0  0  0  0  0  0  0  0  0
   38.0570   33.5380   40.1830 C   0  0  0  0  0  0  0  0  0  0  0  0
   37.1880   32.8040   39.3600 C   0  0  0  0  0  0  0  0  0  0  0  0
   37.3190   31.4480   39.3040 N   0  0  0  0  0  0  0  0  0  0  0  0
   38.2690   30.8030   40.0280 C   0  0  0  0  0  0  0  0  0  0  0  0
   39.0950   31.5080   40.8120 N   0  0  0  0  0  0  0  0  0  0  0  0
   39.6770   33.4330   41.5390 H   0  0  0  0  0  0  0  0  0  0  0  0
   37.9140   34.6110   40.1940 H   0  0  0  0  0  0  0  0  0  0  0  0
   36.4010   33.2210   38.7460 H   0  0  0  0  0  0  0  0  0  0  0  0
   35.3990   28.7890   40.6080 Cl  0  0  0  0  0  0  0  0  0  0  0  0
   36.7500   28.3840   41.6270 C   0  0  0  0  0  0  0  0  0  0  0  0
   38.0370   28.6620   41.2200 C   0  0  0  0  0  0  0  0  0  0  0  0
   39.1120   28.3430   42.0240 C   0  0  0  0  0  0  0  0  0  0  0  0
   40.1270   28.5690   41.6860 H   0  0  0  0  0  0  0  0  0  0  0  0
   38.9770   27.7420   43.2580 C   0  0  0  0  0  0  0  0  0  0  0  0
   39.8580   27.5190   43.8380 H   0  0  0  0  0  0  0  0  0  0  0  0
   37.6730   27.4580   43.6770 C   0  0  0  0  0  3  0  0  0  0  0  0
   36.5920   27.7770   42.8700 C   0  0  0  0  0  3  0  0  0  0  0  0
  1  8  1  0  0  0  0
  1 15  1  0  0  0  0
  2  1  1  0  0  0  0
  3  1  1  0  0  0  0
  4 10  1  0  0  0  0
  5 11  1  0  0  0  0
  5  4  2  0  0  0  0
  6  5  1  0  0  0  0
  7  6  2  0  0  0  0
  7  8  1  0  0  0  0
  8  9  2  0  0  0  0
  9  4  1  0  0  0  0
 12  6  1  0  0  0  0
 13 14  1  0  0  0  0
 14 21  1  0  0  0  0
 15 14  2  0  0  0  0
 15 16  1  0  0  0  0
 16 18  2  0  0  0  0
 17 16  1  0  0  0  0
 18 20  1  0  0  0  0
 18 19  1  0  0  0  0
 21 20  2  0  0  0  0
M  END
>  <minimizedAffinity>
-4.24507284

$$$$
