REMARK  Name = 
REMARK  4 active torsions:
REMARK  status: ('A' for Active; 'I' for Inactive)
REMARK    1  A    between atoms: C_1  and  C_10
REMARK    2  A    between atoms: C_8  and  C_21
REMARK    3  A    between atoms: C_11  and  C_15
REMARK    4  A    between atoms: C_21  and  C_41
REMARK                            x       y       z     vdW  Elec       q    Type
REMARK                         _______ _______ _______ _____ _____    ______ ____
ROOT
ATOM      1  C   UNL     1      47.319  33.628  42.840  0.00  0.00    +0.000 C 
ATOM      2  O   UNL     1      48.418  33.404  43.439  0.00  0.00    +0.000 OA
ATOM      3  N   UNL     1      47.026  33.123  41.546  0.00  0.00    +0.000 N 
ATOM      4  C   UNL     1      45.802  32.494  41.026  0.00  0.00    +0.000 C 
ATOM      5  C   UNL     1      45.393  33.204  39.739  0.00  0.00    +0.000 C 
ATOM      6  C   UNL     1      46.424  32.995  38.681  0.00  0.00    +0.000 C 
ATOM      7  C   UNL     1      47.697  32.460  39.306  0.00  0.00    +0.000 C 
ATOM      8  C   UNL     1      48.060  33.210  40.545  0.00  0.00    +0.000 C 
ATOM      9  H   UNL     1      45.990  31.413  40.875  0.00  0.00    +0.000 HD
ATOM     10  H   UNL     1      44.967  32.574  41.761  0.00  0.00    +0.000 HD
ATOM     11  H   UNL     1      44.374  32.979  39.446  0.00  0.00    +0.000 HD
ATOM     12  H   UNL     1      45.411  34.299  40.016  0.00  0.00    +0.000 HD
ATOM     13  H   UNL     1      46.075  32.206  37.966  0.00  0.00    +0.000 HD
ATOM     14  H   UNL     1      46.648  33.899  38.086  0.00  0.00    +0.000 HD
ATOM     15  H   UNL     1      48.500  32.706  38.550  0.00  0.00    +0.000 HD
ATOM     16  H   UNL     1      47.691  31.365  39.404  0.00  0.00    +0.000 HD
ATOM     17  H   UNL     1      48.143  34.293  40.228  0.00  0.00    +0.000 HD
ENDROOT
BRANCH   1  19
ATOM     18  C   UNL     1      45.971  35.661  42.919  0.00  0.00    +0.000 A 
ATOM     19  C   UNL     1      46.332  34.432  43.514  0.00  0.00    +0.000 A 
ATOM     20  C   UNL     1      45.744  34.026  44.704  0.00  0.00    +0.000 A 
ATOM     21  N   UNL     1      44.825  34.848  45.259  0.00  0.00    +0.000 NA
ATOM     22  C   UNL     1      44.463  36.042  44.699  0.00  0.00    +0.000 A 
ATOM     23  N   UNL     1      45.047  36.422  43.539  0.00  0.00    +0.000 NA
ATOM     24  H   UNL     1      46.404  35.999  42.010  0.00  0.00    +0.000 HD
ATOM     25  H   UNL     1      43.727  36.563  45.265  0.00  0.00    +0.000 HD
BRANCH  20  26
ATOM     26  C   UNL     1      46.143  32.770  45.281  0.00  0.00    +0.000 A 
ATOM     27  C   UNL     1      45.771  31.598  44.717  0.00  0.00    +0.000 A 
ATOM     28  C   UNL     1      46.171  30.408  45.292  0.00  0.00    +0.000 A 
ATOM     29  C   UNL     1      46.951  30.356  46.445  0.00  0.00    +0.000 A 
ATOM     30  C   UNL     1      47.309  31.592  46.991  0.00  0.00    +0.000 A 
ATOM     31  N   UNL     1      46.901  32.719  46.402  0.00  0.00    +0.000 NA
ATOM     32  H   UNL     1      45.171  31.474  43.835  0.00  0.00    +0.000 HD
ATOM     33  H   UNL     1      45.920  29.428  44.909  0.00  0.00    +0.000 HD
ATOM     34  H   UNL     1      47.291  29.477  46.937  0.00  0.00    +0.000 HD
ATOM     35  H   UNL     1      47.914  31.700  47.887  0.00  0.00    +0.000 HD
ENDBRANCH  20  26
ENDBRANCH   1  19
BRANCH   8  36
ATOM     36  C   UNL     1      49.415  32.808  41.021  0.00  0.00    +0.000 C 
ATOM     37  H   UNL     1      49.487  31.809  41.444  0.00  0.00    +0.000 HD
ATOM     38  H   UNL     1      49.886  33.547  41.738  0.00  0.00    +0.000 HD
BRANCH  36  41
ATOM     39 CL   UNL     1      48.393  34.482  38.649  0.00  0.00    +0.000 Cl
ATOM     40  C   UNL     1      49.950  33.684  38.705  0.00  0.00    +0.000 A 
ATOM     41  C   UNL     1      50.321  32.957  39.816  0.00  0.00    +0.000 A 
ATOM     42  C   UNL     1      51.548  32.319  39.889  0.00  0.00    +0.000 A 
ATOM     43  H   UNL     1      51.809  31.758  40.769  0.00  0.00    +0.000 HD
ATOM     44  C   UNL     1      52.458  32.381  38.853  0.00  0.00    +0.000 A 
ATOM     45  H   UNL     1      53.399  31.861  38.971  0.00  0.00    +0.000 HD
ATOM     46  C   UNL     1      52.102  33.106  37.733  0.00  0.00    +0.000 A 
ATOM     47  C   UNL     1      50.872  33.742  37.667  0.00  0.00    +0.000 A 
ENDBRANCH  36  41
ENDBRANCH   8  36
TORSDOF 4
