
     RDKit          3D

 49 52  0  0  0  0  0  0  0  0999 V2000
   47.3191   33.6280   42.8402 C   0  0  0  0  0  0  0  0  0  0  0  0
   48.4180   33.4043   43.4392 O   0  0  0  0  0  0  0  0  0  0  0  0
   47.0265   33.1228   41.5456 N   0  0  0  0  0  0  0  0  0  0  0  0
   45.8017   32.4938   41.0264 C   0  0  0  0  0  0  0  0  0  0  0  0
   45.3930   33.2039   39.7386 C   0  0  0  0  0  0  0  0  0  0  0  0
   46.4238   32.9950   38.6815 C   0  0  0  0  0  0  0  0  0  0  0  0
   47.6968   32.4601   39.3062 C   0  0  0  0  0  0  0  0  0  0  0  0
   48.0601   33.2098   40.5447 C   0  0  2  0  0  0  0  0  0  0  0  0
   45.9713   35.6615   42.9195 C   0  0  0  0  0  0  0  0  0  0  0  0
   46.3321   34.4317   43.5139 C   0  0  0  0  0  0  0  0  0  0  0  0
   45.7444   34.0261   44.7039 C   0  0  0  0  0  0  0  0  0  0  0  0
   44.8253   34.8479   45.2593 N   0  0  0  0  0  0  0  0  0  0  0  0
   44.4629   36.0416   44.6993 C   0  0  0  0  0  0  0  0  0  0  0  0
   45.0465   36.4215   43.5388 N   0  0  0  0  0  0  0  0  0  0  0  0
   46.1430   32.7696   45.2814 C   0  0  0  0  0  0  0  0  0  0  0  0
   45.7710   31.5983   44.7166 C   0  0  0  0  0  0  0  0  0  0  0  0
   46.1711   30.4077   45.2925 C   0  0  0  0  0  0  0  0  0  0  0  0
   46.9509   30.3562   46.4448 C   0  0  0  0  0  0  0  0  0  0  0  0
   47.3093   31.5920   46.9908 C   0  0  0  0  0  0  0  0  0  0  0  0
   46.9012   32.7194   46.4019 N   0  0  0  0  0  0  0  0  0  0  0  0
   49.4151   32.8076   41.0209 C   0  0  0  0  0  0  0  0  0  0  0  0
   45.9897   31.4132   40.8751 H   0  0  0  0  0  0  0  0  0  0  0  0
   44.9670   32.5741   41.7605 H   0  0  0  0  0  0  0  0  0  0  0  0
   44.3736   32.9790   39.4455 H   0  0  0  0  0  0  0  0  0  0  0  0
   45.4107   34.2987   40.0160 H   0  0  0  0  0  0  0  0  0  0  0  0
   46.0751   32.2059   37.9660 H   0  0  0  0  0  0  0  0  0  0  0  0
   46.6478   33.8989   38.0861 H   0  0  0  0  0  0  0  0  0  0  0  0
   48.4996   32.7055   38.5500 H   0  0  0  0  0  0  0  0  0  0  0  0
   47.6911   31.3650   39.4045 H   0  0  0  0  0  0  0  0  0  0  0  0
   48.1427   34.2929   40.2283 H   0  0  0  0  0  0  0  0  0  0  0  0
   46.4040   35.9987   42.0095 H   0  0  0  0  0  0  0  0  0  0  0  0
   43.7270   36.5631   45.2651 H   0  0  0  0  0  0  0  0  0  0  0  0
   45.1710   31.4744   43.8348 H   0  0  0  0  0  0  0  0  0  0  0  0
   45.9204   29.4277   44.9091 H   0  0  0  0  0  0  0  0  0  0  0  0
   47.2909   29.4774   46.9365 H   0  0  0  0  0  0  0  0  0  0  0  0
   47.9140   31.6995   47.8869 H   0  0  0  0  0  0  0  0  0  0  0  0
   49.4867   31.8088   41.4439 H   0  0  0  0  0  0  0  0  0  0  0  0
   49.8863   33.5472   41.7380 H   0  0  0  0  0  0  0  0  0  0  0  0
   48.3931   34.4823   38.6489 Cl  0  0  0  0  0  0  0  0  0  0  0  0
   49.9505   33.6844   38.7054 C   0  0  0  0  0  0  0  0  0  0  0  0
   50.3208   32.9568   39.8165 C   0  0  0  0  0  0  0  0  0  0  0  0
   51.5485   32.3189   39.8885 C   0  0  0  0  0  0  0  0  0  0  0  0
   51.8093   31.7584   40.7689 H   0  0  0  0  0  0  0  0  0  0  0  0
   52.4578   32.3811   38.8529 C   0  0  0  0  0  0  0  0  0  0  0  0
   53.3987   31.8609   38.9712 H   0  0  0  0  0  0  0  0  0  0  0  0
   52.1016   33.1056   37.7333 C   0  0  0  0  0  0  0  0  0  0  0  0
   50.8720   33.7416   37.6675 C   0  0  0  0  0  0  0  0  0  0  0  0
   52.8208   33.1462   36.9301 H   0  0  0  0  0  0  0  0  0  0  0  0
   50.6062   34.3057   36.7830 H   0  0  0  0  0  0  0  0  0  0  0  0
  1  2  2  0
  1 10  1  0
  3  1  1  0
  4  3  1  0
  5  4  1  0
  6  7  1  0
  6  5  1  0
  7  8  1  0
  8 21  1  0
  8  3  1  0
  9 10  2  0
  9 14  1  0
 10 11  1  0
 11 12  2  0
 11 15  1  0
 13 12  1  0
 14 13  2  0
 15 20  1  0
 16 15  2  0
 16 17  1  0
 17 18  2  0
 18 19  1  0
 20 19  2  0
  4 22  1  0
  4 23  1  0
  5 24  1  0
  5 25  1  0
  6 26  1  0
  6 27  1  0
  7 28  1  0
  7 29  1  0
  8 30  1  6
  9 31  1  0
 13 32  1  0
 16 33  1  0
 17 34  1  0
 18 35  1  0
 19 36  1  0
 21 37  1  0
 21 38  1  0
 39 40  1  0
 40 41  2  0
 41 42  1  0
 42 43  1  0
 42 44  2  0
 44 45  1  0
 44 46  1  0
 46 47  2  0
 47 40  1  0
 46 48  1  0
 47 49  1  0
 21 41  1  0
M  ISO  8  22  13  23  13  24  13  25  13  26  13  27  13  28  13  29  13
M  ISO  8  30  13  31  14  32  14  33  14  34  14  35  14  36  14  37   8
M  ISO  3  38   8  43  15  45  16
M  END
>  <DihAtoms>  (1) 
7,20,40,39

>  <DihDeg>  (1) 
76.41619338941281

$$$$
