REMARK  Name = 
REMARK  3 active torsions:
REMARK  status: ('A' for Active; 'I' for Inactive)
REMARK    1  A    between atoms: C_3  and  C_9
REMARK    2  A    between atoms: C_8  and  C_15
REMARK    3  A    between atoms: C_13  and  C_25
REMARK                            x       y       z     vdW  Elec       q    Type
REMARK                         _______ _______ _______ _____ _____    ______ ____
ROOT
ATOM      1  C   UNL     1      47.970  34.637  40.100  0.00  0.00    +0.000 A 
ATOM      2  C   UNL     1      46.820  33.991  40.479  0.00  0.00    +0.000 A 
ATOM      3  C   UNL     1      46.163  33.257  39.528  0.00  0.00    +0.000 A 
ATOM      4  C   UNL     1      46.596  33.137  38.225  0.00  0.00    +0.000 A 
ATOM      5  C   UNL     1      47.762  33.802  37.877  0.00  0.00    +0.000 A 
ATOM      6  C   UNL     1      48.448  34.549  38.807  0.00  0.00    +0.000 A 
ATOM      7  H   UNL     1      45.254  32.761  39.870  0.00  0.00    +0.000 HD
ATOM      8  H   UNL     1      46.033  32.542  37.520  0.00  0.00    +0.000 HD
ATOM      9  H   UNL     1      48.117  33.720  36.861  0.00  0.00    +0.000 HD
ENDROOT
BRANCH   2  12
ATOM     10  C   UNL     1      44.907  35.035  43.560  0.00  0.00    +0.000 A 
ATOM     11  C   UNL     1      45.284  34.923  42.207  0.00  0.00    +0.000 A 
ATOM     12  C   UNL     1      46.389  34.139  41.865  0.00  0.00    +0.000 A 
ATOM     13  N   UNL     1      47.038  33.523  42.895  0.00  0.00    +0.000 NA
ATOM     14  C   UNL     1      46.659  33.647  44.170  0.00  0.00    +0.000 A 
ATOM     15  N   UNL     1      45.587  34.408  44.502  0.00  0.00    +0.000 NA
ATOM     16  N   UNL     1      43.783  35.839  43.863  0.00  0.00    +0.000 N 
ATOM     17  H   UNL     1      44.737  35.430  41.432  0.00  0.00    +0.000 HD
ATOM     18  H   UNL     1      47.257  33.108  44.896  0.00  0.00    +0.000 HD
ATOM     19  H   UNL     1      43.719  36.880  44.046  0.00  0.00    +0.000 HD
ATOM     20  H   UNL     1      43.050  35.093  43.849  0.00  0.00    +0.000 HD
ENDBRANCH   2  12
BRANCH   6  23
ATOM     21 CL   UNL     1      50.538  33.089  37.179  0.00  0.00    +0.000 Cl
ATOM     22  C   UNL     1      50.738  34.753  37.733  0.00  0.00    +0.000 A 
ATOM     23  C   UNL     1      49.689  35.266  38.463  0.00  0.00    +0.000 A 
ATOM     24  C   UNL     1      49.714  36.565  38.961  0.00  0.00    +0.000 A 
ATOM     25  H   UNL     1      48.912  37.011  39.541  0.00  0.00    +0.000 HD
ATOM     26  C   UNL     1      50.817  37.384  38.727  0.00  0.00    +0.000 A 
ATOM     27  H   UNL     1      50.863  38.401  39.104  0.00  0.00    +0.000 HD
ATOM     28  C   UNL     1      51.847  36.840  37.994  0.00  0.00    +0.000 A 
ATOM     29  C   UNL     1      51.833  35.544  37.492  0.00  0.00    +0.000 A 
ENDBRANCH   6  23
BRANCH   1  31
ATOM     30  N   UNL     1      49.318  36.086  41.810  0.00  0.00    +0.000 NA
ATOM     31  C   UNL     1      48.712  35.427  41.048  0.00  0.00    +0.000 C 
ENDBRANCH   1  31
TORSDOF 3
