
     RDKit          3D

 26 27  0  0  0  0  0  0  0  0999 V2000
   44.5581   36.0434   44.4772 C   0  0  0  0  0  0  0  0  0  0  0  0
   45.2191   35.9447   43.2442 C   0  0  0  0  0  0  0  0  0  0  0  0
   46.0849   34.8730   43.0292 C   0  0  0  0  0  0  0  0  0  0  0  0
   46.2401   33.9785   44.0339 N   0  0  0  0  0  0  0  0  0  0  0  0
   45.5910   34.0933   45.2183 C   0  0  0  0  0  0  0  0  0  0  0  0
   44.7608   35.1123   45.4367 N   0  0  0  0  0  0  0  0  0  0  0  0
   46.7801   34.7712   41.7241 C   0  0  0  0  0  0  0  0  0  0  0  0
   48.1839   35.3086   41.8775 C   0  0  0  0  0  0  0  0  0  0  0  0
   43.9219   36.9190   44.5079 H   0  0  0  0  0  0  0  0  0  0  0  0
   45.0945   36.6637   42.4323 H   0  0  0  0  0  0  0  0  0  0  0  0
   45.7616   33.3392   45.9823 H   0  0  0  0  0  0  0  0  0  0  0  0
   46.8996   33.6784   41.5316 H   0  0  0  0  0  0  0  0  0  0  0  0
   46.2136   35.2936   40.9566 H   0  0  0  0  0  0  0  0  0  0  0  0
   48.1476   36.3691   42.1991 H   0  0  0  0  0  0  0  0  0  0  0  0
   48.7862   34.7158   42.5839 H   0  0  0  0  0  0  0  0  0  0  0  0
   49.0943   37.9680   40.9156 Cl  0  0  0  0  0  0  0  0  0  0  0  0
   49.2795   36.4285   40.0742 C   0  0  0  0  0  0  0  0  0  0  0  0
   48.8434   35.1895   40.5497 C   0  0  0  0  0  0  0  0  0  0  0  0
   49.0572   34.0624   39.7835 C   0  0  0  0  0  0  0  0  0  0  0  0
   48.6809   33.1602   40.2452 H   0  0  0  0  0  0  0  0  0  0  0  0
   49.6940   34.1746   38.5665 C   0  0  0  0  0  0  0  0  0  0  0  0
   49.8315   33.2550   38.0108 H   0  0  0  0  0  0  0  0  0  0  0  0
   50.1226   35.4103   38.1036 C   0  0  0  0  0  0  0  0  0  0  0  0
   49.9173   36.5490   38.8576 C   0  0  0  0  0  0  0  0  0  0  0  0
   50.6278   35.4825   37.1323 H   0  0  0  0  0  0  0  0  0  0  0  0
   50.2767   37.4791   38.4349 H   0  0  0  0  0  0  0  0  0  0  0  0
  1  6  2  0
  2  1  1  0
  3  2  2  0
  3  4  1  0
  4  5  2  0
  5  6  1  0
  7  8  1  0
  7  3  1  0
  1  9  1  0
  2 10  1  0
  5 11  1  0
  7 12  1  0
  7 13  1  0
  8 14  1  0
  8 15  1  0
 16 17  1  0
 17 18  2  0
 18 19  1  0
 19 20  1  0
 19 21  2  0
 21 22  1  0
 21 23  1  0
 23 24  2  0
 24 17  1  0
 23 25  1  0
 24 26  1  0
  8 18  1  0
M  ISO  8   9  14  10  14  11  14  12   8  13   8  14   8  15   8  20  15
M  ISO  1  22  16
M  END
>  <DihAtoms>  (1) 
6,7,17,16

>  <DihDeg>  (1) 
76.37303920115761

$$$$
