
 OpenBabel03252506313D

 32 34  0  0  1  0  0  0  0  0999 V2000
   44.5820   35.7620   44.7200 C   0  0  0  0  0  0  0  0  0  0  0  0
   44.5630   35.3940   43.3750 C   0  0  0  0  0  0  0  0  0  0  0  0
   44.9270   34.0960   43.0230 C   0  0  0  0  0  0  0  0  0  0  0  0
   45.2800   33.2660   44.0380 N   0  0  0  0  0  0  0  0  0  0  0  0
   45.2900   33.6380   45.3160 C   0  0  0  0  0  0  0  0  0  0  0  0
   44.9450   34.8760   45.6730 N   0  0  0  0  0  0  0  0  0  0  0  0
   45.6750   32.6740   46.2840 N   0  0  0  0  0  0  0  0  0  0  0  0
   45.4640   32.8280   47.7330 C   0  0  0  0  0  0  0  0  0  0  0  0
   46.7100   32.1930   48.2860 C   0  0  0  0  0  0  0  0  0  0  0  0
   47.3840   31.4730   47.1510 C   0  0  0  0  0  0  0  0  0  0  0  0
   46.3110   31.4070   46.1130 C   0  0  2  0  0  0  0  0  0  0  0  0
   44.3210   36.7370   45.1230 H   0  0  0  0  0  0  0  0  0  0  0  0
   44.8970   33.8660   41.9880 H   0  0  0  0  0  0  0  0  0  0  0  0
   44.5450   32.2790   48.0440 H   0  0  0  0  0  0  0  0  0  0  0  0
   45.4640   33.8950   47.9560 H   0  0  0  0  0  0  0  0  0  0  0  0
   47.3620   32.9160   48.8140 H   0  0  0  0  0  0  0  0  0  0  0  0
   46.3850   31.4250   49.0300 H   0  0  0  0  0  0  0  0  0  0  0  0
   48.1770   32.1660   46.7450 H   0  0  0  0  0  0  0  0  0  0  0  0
   47.8010   30.4850   47.4260 H   0  0  0  0  0  0  0  0  0  0  0  0
   45.5580   30.6470   46.4790 H   0  0  0  0  0  0  0  0  0  0  0  0
   44.6200   29.4680   44.5090 Cl  0  0  0  0  0  0  0  0  0  0  0  0
   46.1390   30.1720   43.9420 C   0  0  0  0  0  0  0  0  0  0  0  0
   46.8090   31.0670   44.7840 C   0  0  0  0  0  0  0  0  0  0  0  0
   47.9680   31.5260   44.2060 C   0  0  0  0  0  0  0  0  0  0  0  0
   48.5900   32.2260   44.7780 H   0  0  0  0  0  0  0  0  0  0  0  0
   48.4540   31.1860   42.9680 C   0  0  0  0  0  0  0  0  0  0  0  0
   49.3780   31.5900   42.5800 H   0  0  0  0  0  0  0  0  0  0  0  0
   47.7300   30.2990   42.2090 C   0  0  0  0  0  3  0  0  0  0  0  0
   46.5620   29.7890   42.7010 C   0  0  0  0  0  3  0  0  0  0  0  0
   44.1520   36.4260   42.4570 N   0  0  0  0  0  0  0  0  0  0  0  0
   43.3350   36.3020   41.7970 H   0  0  0  0  0  0  0  0  0  0  0  0
   44.6380   37.3550   42.3890 H   0  0  0  0  0  0  0  0  0  0  0  0
  1 12  1  0  0  0  0
  1  6  1  0  0  0  0
  2  1  2  0  0  0  0
  3  2  1  0  0  0  0
  3  4  2  0  0  0  0
  4  5  1  0  0  0  0
  5  6  2  0  0  0  0
  5  7  1  0  0  0  0
  7  8  1  0  0  0  0
  8 15  1  0  0  0  0
  8 14  1  0  0  0  0
  8  9  1  0  0  0  0
  9 16  1  0  0  0  0
  9 17  1  0  0  0  0
 10 19  1  0  0  0  0
 10  9  1  0  0  0  0
 11  7  1  0  0  0  0
 11 20  1  1  0  0  0
 11 10  1  0  0  0  0
 13  3  1  0  0  0  0
 18 10  1  0  0  0  0
 22 21  1  0  0  0  0
 22 23  1  0  0  0  0
 23 11  1  0  0  0  0
 24 25  1  0  0  0  0
 24 23  2  0  0  0  0
 26 24  1  0  0  0  0
 27 26  1  0  0  0  0
 28 29  1  0  0  0  0
 28 26  2  0  0  0  0
 29 22  2  0  0  0  0
 30  2  1  0  0  0  0
 31 30  1  0  0  0  0
 32 30  1  0  0  0  0
M  END
>  <minimizedAffinity>
-4.58673477

>  <minimizedRMSD>
1.78897011

$$$$
