
 OpenBabel03252507233D

 47 50  0  0  1  0  0  0  0  0999 V2000
   39.0400   29.3370   40.3890 C   0  0  0  0  0  0  0  0  0  0  0  0
   39.6540   28.8520   39.3880 O   0  0  0  0  0  0  0  0  0  0  0  0
   38.5520   28.5410   41.4580 N   0  0  0  0  0  0  0  0  0  0  0  0
   38.6240   28.7540   42.9120 C   0  0  0  0  0  0  0  0  0  0  0  0
   37.2240   28.6100   43.5000 C   0  0  0  0  0  0  0  0  0  0  0  0
   36.7320   27.2110   43.3310 C   0  0  0  0  0  0  0  0  0  0  0  0
   37.6050   26.4800   42.3310 C   0  0  0  0  0  0  0  0  0  0  0  0
   37.8750   27.3130   41.1220 C   0  0  2  0  0  0  0  0  0  0  0  0
   39.3450   28.0330   43.3460 H   0  0  0  0  0  0  0  0  0  0  0  0
   39.0100   29.7730   43.1490 H   0  0  0  0  0  0  0  0  0  0  0  0
   37.1520   29.0090   44.5050 H   0  0  0  0  0  0  0  0  0  0  0  0
   36.5860   29.2740   42.8470 H   0  0  0  0  0  0  0  0  0  0  0  0
   36.8360   26.6560   44.2980 H   0  0  0  0  0  0  0  0  0  0  0  0
   35.6710   27.1410   43.0270 H   0  0  0  0  0  0  0  0  0  0  0  0
   36.9590   25.6220   41.9770 H   0  0  0  0  0  0  0  0  0  0  0  0
   38.4910   26.0260   42.7970 H   0  0  0  0  0  0  0  0  0  0  0  0
   36.8580   27.5820   40.7080 H   0  0  0  0  0  0  0  0  0  0  0  0
   39.8970   31.5630   40.9060 C   0  0  0  0  0  0  0  0  0  0  0  0
   38.8350   30.7620   40.4330 C   0  0  0  0  0  0  0  0  0  0  0  0
   37.6430   31.3440   40.0230 C   0  0  0  0  0  0  0  0  0  0  0  0
   37.5470   32.6910   40.0980 N   0  0  0  0  0  0  0  0  0  0  0  0
   38.5640   33.4830   40.5540 C   0  0  0  0  0  0  0  0  0  0  0  0
   39.7180   32.8990   40.9500 N   0  0  0  0  0  0  0  0  0  0  0  0
   40.8200   31.1470   41.2270 H   0  0  0  0  0  0  0  0  0  0  0  0
   38.3220   34.5200   40.5460 H   0  0  0  0  0  0  0  0  0  0  0  0
   36.5820   30.4940   39.5520 C   0  0  0  0  0  0  0  0  0  0  0  0
   35.6610   29.9950   40.4090 C   0  0  0  0  0  0  0  0  0  0  0  0
   34.6530   29.1830   39.9270 C   0  0  0  0  0  0  0  0  0  0  0  0
   34.5380   28.8460   38.5800 C   0  0  0  0  0  0  0  0  0  0  0  0
   35.5140   29.3850   37.7360 C   0  0  0  0  0  0  0  0  0  0  0  0
   36.4700   30.1660   38.2430 N   0  0  0  0  0  0  0  0  0  0  0  0
   35.6180   30.1590   41.4690 H   0  0  0  0  0  0  0  0  0  0  0  0
   33.8770   28.7420   40.5390 H   0  0  0  0  0  0  0  0  0  0  0  0
   33.7900   28.2280   38.1470 H   0  0  0  0  0  0  0  0  0  0  0  0
   35.5450   29.2060   36.6650 H   0  0  0  0  0  0  0  0  0  0  0  0
   38.5540   26.5020   40.0700 C   0  0  0  0  0  0  0  0  0  0  0  0
   39.4550   25.9820   40.3870 H   0  0  0  0  0  0  0  0  0  0  0  0
   38.7760   27.0780   39.1210 H   0  0  0  0  0  0  0  0  0  0  0  0
   38.8420   23.5460   40.8790 Cl  0  0  0  0  0  0  0  0  0  0  0  0
   37.5490   24.1840   39.8850 C   0  0  0  0  0  0  0  0  0  0  0  0
   37.5040   25.5280   39.5790 C   0  0  0  0  0  0  0  0  0  0  0  0
   36.4900   26.0590   38.7990 C   0  0  0  0  0  0  0  0  0  0  0  0
   36.4820   27.1120   38.5760 H   0  0  0  0  0  0  0  0  0  0  0  0
   35.4780   25.2700   38.2920 C   0  0  0  0  0  0  0  0  0  0  0  0
   34.7160   25.7460   37.6900 H   0  0  0  0  0  0  0  0  0  0  0  0
   35.5090   23.9230   38.5910 C   0  0  0  0  0  3  0  0  0  0  0  0
   36.5270   23.3980   39.3720 C   0  0  0  0  0  3  0  0  0  0  0  0
  1 19  1  0  0  0  0
  1  3  1  0  0  0  0
  2  1  2  0  0  0  0
  3  4  1  0  0  0  0
  4 10  1  0  0  0  0
  4  9  1  0  0  0  0
  4  5  1  0  0  0  0
  5 11  1  0  0  0  0
  6  5  1  0  0  0  0
  6 13  1  0  0  0  0
  7 16  1  0  0  0  0
  7  6  1  0  0  0  0
  8 17  1  6  0  0  0
  8  3  1  0  0  0  0
  8  7  1  0  0  0  0
 12  5  1  0  0  0  0
 14  6  1  0  0  0  0
 15  7  1  0  0  0  0
 18 23  1  0  0  0  0
 18 24  1  0  0  0  0
 19 18  2  0  0  0  0
 20 21  2  0  0  0  0
 20 19  1  0  0  0  0
 21 22  1  0  0  0  0
 22 23  2  0  0  0  0
 25 22  1  0  0  0  0
 26 20  1  0  0  0  0
 26 27  1  0  0  0  0
 27 32  1  0  0  0  0
 28 27  2  0  0  0  0
 28 33  1  0  0  0  0
 29 28  1  0  0  0  0
 30 31  1  0  0  0  0
 30 29  2  0  0  0  0
 31 26  2  0  0  0  0
 34 29  1  0  0  0  0
 35 30  1  0  0  0  0
 36 37  1  0  0  0  0
 36  8  1  0  0  0  0
 38 36  1  0  0  0  0
 40 39  1  0  0  0  0
 41 40  1  0  0  0  0
 41 36  1  0  0  0  0
 42 41  2  0  0  0  0
 43 42  1  0  0  0  0
 44 46  2  0  0  0  0
 44 42  1  0  0  0  0
 45 44  1  0  0  0  0
 46 47  1  0  0  0  0
 47 40  2  0  0  0  0
M  END
>  <minimizedAffinity>
-6.48747635

$$$$

 OpenBabel03252507233D

 47 50  0  0  1  0  0  0  0  0999 V2000
   37.8300   26.8430   39.7560 C   0  0  0  0  0  0  0  0  0  0  0  0
   38.5000   27.2710   38.7640 O   0  0  0  0  0  0  0  0  0  0  0  0
   37.5670   27.6280   40.9090 N   0  0  0  0  0  0  0  0  0  0  0  0
   36.3220   27.8070   41.6730 C   0  0  0  0  0  0  0  0  0  0  0  0
   36.6110   27.5520   43.1500 C   0  0  0  0  0  0  0  0  0  0  0  0
   37.5510   28.5820   43.6800 C   0  0  0  0  0  0  0  0  0  0  0  0
   38.1940   29.3290   42.5280 C   0  0  0  0  0  0  0  0  0  0  0  0
   38.6560   28.3970   41.4570 C   0  0  2  0  0  0  0  0  0  0  0  0
   35.9290   28.8250   41.4860 H   0  0  0  0  0  0  0  0  0  0  0  0
   35.5370   27.0920   41.3330 H   0  0  0  0  0  0  0  0  0  0  0  0
   35.7080   27.4040   43.7300 H   0  0  0  0  0  0  0  0  0  0  0  0
   37.1580   26.5630   43.1520 H   0  0  0  0  0  0  0  0  0  0  0  0
   36.9790   29.3480   44.2640 H   0  0  0  0  0  0  0  0  0  0  0  0
   38.3320   28.1770   44.3480 H   0  0  0  0  0  0  0  0  0  0  0  0
   39.1310   29.7730   42.9760 H   0  0  0  0  0  0  0  0  0  0  0  0
   37.5850   30.1770   42.1830 H   0  0  0  0  0  0  0  0  0  0  0  0
   39.3640   27.6770   41.9680 H   0  0  0  0  0  0  0  0  0  0  0  0
   36.1890   25.2630   38.8810 C   0  0  0  0  0  0  0  0  0  0  0  0
   37.3170   25.4980   39.6970 C   0  0  0  0  0  0  0  0  0  0  0  0
   37.9030   24.4590   40.4060 C   0  0  0  0  0  0  0  0  0  0  0  0
   37.3510   23.2300   40.2840 N   0  0  0  0  0  0  0  0  0  0  0  0
   36.2590   22.9820   39.5000 C   0  0  0  0  0  0  0  0  0  0  0  0
   35.7010   24.0080   38.8150 N   0  0  0  0  0  0  0  0  0  0  0  0
   35.7190   26.0370   38.3270 H   0  0  0  0  0  0  0  0  0  0  0  0
   35.9550   21.9620   39.5160 H   0  0  0  0  0  0  0  0  0  0  0  0
   39.0470   24.7410   41.2310 C   0  0  0  0  0  0  0  0  0  0  0  0
   38.9400   24.7770   42.5790 C   0  0  0  0  0  0  0  0  0  0  0  0
   40.0560   25.0480   43.3450 C   0  0  0  0  0  0  0  0  0  0  0  0
   41.3090   25.2920   42.7860 C   0  0  0  0  0  0  0  0  0  0  0  0
   41.3700   25.2440   41.3900 C   0  0  0  0  0  0  0  0  0  0  0  0
   40.2650   24.9780   40.6880 N   0  0  0  0  0  0  0  0  0  0  0  0
   38.0470   24.6150   43.1540 H   0  0  0  0  0  0  0  0  0  0  0  0
   40.0610   25.0960   44.4250 H   0  0  0  0  0  0  0  0  0  0  0  0
   42.2050   25.5060   43.3160 H   0  0  0  0  0  0  0  0  0  0  0  0
   42.2800   25.4140   40.8230 H   0  0  0  0  0  0  0  0  0  0  0  0
   39.4660   29.1300   40.4410 C   0  0  0  0  0  0  0  0  0  0  0  0
   39.5320   28.6580   39.4630 H   0  0  0  0  0  0  0  0  0  0  0  0
   40.5090   29.3960   40.7920 H   0  0  0  0  0  0  0  0  0  0  0  0
   40.8740   31.4680   41.8640 Cl  0  0  0  0  0  0  0  0  0  0  0  0
   39.3880   31.6110   40.9470 C   0  0  0  0  0  0  0  0  0  0  0  0
   38.8340   30.5030   40.3420 C   0  0  0  0  0  0  0  0  0  0  0  0
   37.6620   30.5890   39.6080 C   0  0  0  0  0  0  0  0  0  0  0  0
   37.2540   29.7050   39.1480 H   0  0  0  0  0  0  0  0  0  0  0  0
   36.9950   31.7850   39.4490 C   0  0  0  0  0  0  0  0  0  0  0  0
   36.0850   31.7850   38.8640 H   0  0  0  0  0  0  0  0  0  0  0  0
   37.5370   32.9030   40.0490 C   0  0  0  0  0  3  0  0  0  0  0  0
   38.7100   32.8100   40.7820 C   0  0  0  0  0  3  0  0  0  0  0  0
  1  3  1  0  0  0  0
  2  1  2  0  0  0  0
  3  8  1  0  0  0  0
  3  4  1  0  0  0  0
  4  5  1  0  0  0  0
  5 12  1  0  0  0  0
  5  6  1  0  0  0  0
  5 11  1  0  0  0  0
  6 13  1  0  0  0  0
  6 14  1  0  0  0  0
  7 15  1  0  0  0  0
  7  6  1  0  0  0  0
  8 17  1  1  0  0  0
  8  7  1  0  0  0  0
  9  4  1  0  0  0  0
 10  4  1  0  0  0  0
 16  7  1  0  0  0  0
 18 19  1  0  0  0  0
 19  1  1  0  0  0  0
 19 20  2  0  0  0  0
 20 26  1  0  0  0  0
 21 20  1  0  0  0  0
 22 25  1  0  0  0  0
 22 21  2  0  0  0  0
 23 18  2  0  0  0  0
 23 22  1  0  0  0  0
 24 18  1  0  0  0  0
 26 27  1  0  0  0  0
 27 32  1  0  0  0  0
 27 28  2  0  0  0  0
 28 33  1  0  0  0  0
 29 34  1  0  0  0  0
 29 28  1  0  0  0  0
 30 29  2  0  0  0  0
 31 26  2  0  0  0  0
 31 30  1  0  0  0  0
 35 30  1  0  0  0  0
 36 38  1  0  0  0  0
 36  8  1  0  0  0  0
 37 36  1  0  0  0  0
 40 39  1  0  0  0  0
 41 36  1  0  0  0  0
 41 40  2  0  0  0  0
 42 41  1  0  0  0  0
 43 42  1  0  0  0  0
 44 42  2  0  0  0  0
 44 46  1  0  0  0  0
 45 44  1  0  0  0  0
 46 47  2  0  0  0  0
 47 40  1  0  0  0  0
M  END
>  <minimizedAffinity>
-6.16845894

$$$$

 OpenBabel03252507233D

 47 50  0  0  1  0  0  0  0  0999 V2000
   38.9580   30.5470   41.7600 C   0  0  0  0  0  0  0  0  0  0  0  0
   39.5270   30.2240   42.8500 O   0  0  0  0  0  0  0  0  0  0  0  0
   37.6350   30.1500   41.4300 N   0  0  0  0  0  0  0  0  0  0  0  0
   36.5290   30.9240   40.8460 C   0  0  0  0  0  0  0  0  0  0  0  0
   35.9780   30.1640   39.6430 C   0  0  0  0  0  0  0  0  0  0  0  0
   35.3710   28.8730   40.0790 C   0  0  0  0  0  0  0  0  0  0  0  0
   35.8000   28.5580   41.4980 C   0  0  0  0  0  0  0  0  0  0  0  0
   37.2630   28.7820   41.6930 C   0  0  2  0  0  0  0  0  0  0  0  0
   35.7620   31.0990   41.6260 H   0  0  0  0  0  0  0  0  0  0  0  0
   36.8760   31.9280   40.5080 H   0  0  0  0  0  0  0  0  0  0  0  0
   35.3520   30.7830   39.0120 H   0  0  0  0  0  0  0  0  0  0  0  0
   36.8980   29.9160   39.0350 H   0  0  0  0  0  0  0  0  0  0  0  0
   34.2550   28.9730   40.1080 H   0  0  0  0  0  0  0  0  0  0  0  0
   35.6050   28.0190   39.4170 H   0  0  0  0  0  0  0  0  0  0  0  0
   35.6430   27.4430   41.5930 H   0  0  0  0  0  0  0  0  0  0  0  0
   35.1480   29.0260   42.2490 H   0  0  0  0  0  0  0  0  0  0  0  0
   37.7730   28.1310   40.9220 H   0  0  0  0  0  0  0  0  0  0  0  0
   39.6560   32.7550   40.9910 C   0  0  0  0  0  0  0  0  0  0  0  0
   39.6970   31.3540   40.8230 C   0  0  0  0  0  0  0  0  0  0  0  0
   40.4320   30.7890   39.7900 C   0  0  0  0  0  0  0  0  0  0  0  0
   41.0960   31.6290   38.9640 N   0  0  0  0  0  0  0  0  0  0  0  0
   41.0680   32.9880   39.1090 C   0  0  0  0  0  0  0  0  0  0  0  0
   40.3460   33.5210   40.1220 N   0  0  0  0  0  0  0  0  0  0  0  0
   39.1020   33.2170   41.7710 H   0  0  0  0  0  0  0  0  0  0  0  0
   41.6460   33.4990   38.3750 H   0  0  0  0  0  0  0  0  0  0  0  0
   40.4440   29.3570   39.6500 C   0  0  0  0  0  0  0  0  0  0  0  0
   39.5190   28.7270   38.8910 C   0  0  0  0  0  0  0  0  0  0  0  0
   39.5560   27.3520   38.7730 C   0  0  0  0  0  0  0  0  0  0  0  0
   40.5170   26.5690   39.4100 C   0  0  0  0  0  0  0  0  0  0  0  0
   41.4500   27.2660   40.1840 C   0  0  0  0  0  0  0  0  0  0  0  0
   41.3770   28.5960   40.2700 N   0  0  0  0  0  0  0  0  0  0  0  0
   38.7180   29.1880   38.3440 H   0  0  0  0  0  0  0  0  0  0  0  0
   38.8580   26.7680   38.1880 H   0  0  0  0  0  0  0  0  0  0  0  0
   40.6010   25.5110   39.3620 H   0  0  0  0  0  0  0  0  0  0  0  0
   42.2530   26.7830   40.7350 H   0  0  0  0  0  0  0  0  0  0  0  0
   37.6970   28.2710   43.0250 C   0  0  0  0  0  0  0  0  0  0  0  0
   36.9620   28.3540   43.8220 H   0  0  0  0  0  0  0  0  0  0  0  0
   38.6800   28.7030   43.3840 H   0  0  0  0  0  0  0  0  0  0  0  0
   40.5890   27.4340   43.6650 Cl  0  0  0  0  0  0  0  0  0  0  0  0
   39.3560   26.3560   43.0430 C   0  0  0  0  0  0  0  0  0  0  0  0
   38.0850   26.8250   42.7900 C   0  0  0  0  0  0  0  0  0  0  0  0
   37.0900   25.9940   42.3020 C   0  0  0  0  0  0  0  0  0  0  0  0
   36.1070   26.3900   42.1140 H   0  0  0  0  0  0  0  0  0  0  0  0
   37.3250   24.6590   42.0470 C   0  0  0  0  0  0  0  0  0  0  0  0
   36.5050   24.0630   41.6670 H   0  0  0  0  0  0  0  0  0  0  0  0
   38.5930   24.1750   42.2960 C   0  0  0  0  0  3  0  0  0  0  0  0
   39.5830   25.0120   42.7830 C   0  0  0  0  0  3  0  0  0  0  0  0
  1  2  2  0  0  0  0
  3  8  1  0  0  0  0
  3  1  1  0  0  0  0
  4  3  1  0  0  0  0
  4  9  1  0  0  0  0
  5  6  1  0  0  0  0
  5  4  1  0  0  0  0
  6 13  1  0  0  0  0
  6  7  1  0  0  0  0
  7 15  1  0  0  0  0
  7  8  1  0  0  0  0
  7 16  1  0  0  0  0
  8 17  1  6  0  0  0
  8 36  1  0  0  0  0
 10  4  1  0  0  0  0
 11  5  1  0  0  0  0
 12  5  1  0  0  0  0
 14  6  1  0  0  0  0
 18 24  1  0  0  0  0
 19 18  1  0  0  0  0
 19  1  1  0  0  0  0
 20 19  2  0  0  0  0
 21 22  2  0  0  0  0
 21 20  1  0  0  0  0
 22 23  1  0  0  0  0
 23 18  2  0  0  0  0
 25 22  1  0  0  0  0
 26 20  1  0  0  0  0
 26 31  1  0  0  0  0
 27 26  2  0  0  0  0
 28 27  1  0  0  0  0
 28 29  2  0  0  0  0
 29 30  1  0  0  0  0
 30 31  2  0  0  0  0
 30 35  1  0  0  0  0
 32 27  1  0  0  0  0
 33 28  1  0  0  0  0
 34 29  1  0  0  0  0
 36 38  1  0  0  0  0
 36 37  1  0  0  0  0
 40 39  1  0  0  0  0
 41 36  1  0  0  0  0
 41 40  1  0  0  0  0
 42 41  2  0  0  0  0
 43 42  1  0  0  0  0
 44 46  2  0  0  0  0
 44 42  1  0  0  0  0
 45 44  1  0  0  0  0
 46 47  1  0  0  0  0
 47 40  2  0  0  0  0
M  END
>  <minimizedAffinity>
-6.13537455

$$$$

 OpenBabel03252507233D

 47 50  0  0  1  0  0  0  0  0999 V2000
   38.1590   29.6260   41.2550 C   0  0  0  0  0  0  0  0  0  0  0  0
   37.3640   29.2920   42.1890 O   0  0  0  0  0  0  0  0  0  0  0  0
   39.0510   28.7130   40.6350 N   0  0  0  0  0  0  0  0  0  0  0  0
   39.3710   28.5130   39.2130 C   0  0  0  0  0  0  0  0  0  0  0  0
   40.8860   28.5500   39.0390 C   0  0  0  0  0  0  0  0  0  0  0  0
   41.5170   27.4000   39.7500 C   0  0  0  0  0  0  0  0  0  0  0  0
   40.5160   26.7750   40.7010 C   0  0  0  0  0  0  0  0  0  0  0  0
   39.7830   27.8100   41.4880 C   0  0  2  0  0  0  0  0  0  0  0  0
   38.9260   27.5560   38.8760 H   0  0  0  0  0  0  0  0  0  0  0  0
   38.9180   29.3150   38.5840 H   0  0  0  0  0  0  0  0  0  0  0  0
   41.1830   28.6760   38.0040 H   0  0  0  0  0  0  0  0  0  0  0  0
   41.1980   29.4920   39.5780 H   0  0  0  0  0  0  0  0  0  0  0  0
   41.7840   26.6010   39.0110 H   0  0  0  0  0  0  0  0  0  0  0  0
   42.4420   27.6620   40.2960 H   0  0  0  0  0  0  0  0  0  0  0  0
   41.1560   26.2160   41.4460 H   0  0  0  0  0  0  0  0  0  0  0  0
   39.8840   26.0200   40.2110 H   0  0  0  0  0  0  0  0  0  0  0  0
   40.5830   28.4080   42.0180 H   0  0  0  0  0  0  0  0  0  0  0  0
   39.0890   31.8790   41.3840 C   0  0  0  0  0  0  0  0  0  0  0  0
   38.1460   30.9970   40.8120 C   0  0  0  0  0  0  0  0  0  0  0  0
   37.2480   31.4500   39.8560 C   0  0  0  0  0  0  0  0  0  0  0  0
   37.3160   32.7530   39.5020 N   0  0  0  0  0  0  0  0  0  0  0  0
   38.2210   33.6230   40.0450 C   0  0  0  0  0  0  0  0  0  0  0  0
   39.0890   33.1640   40.9770 N   0  0  0  0  0  0  0  0  0  0  0  0
   39.7880   31.5620   42.1180 H   0  0  0  0  0  0  0  0  0  0  0  0
   38.1380   34.6100   39.6550 H   0  0  0  0  0  0  0  0  0  0  0  0
   36.2990   30.5210   39.3010 C   0  0  0  0  0  0  0  0  0  0  0  0
   36.3910   30.1210   38.0120 C   0  0  0  0  0  0  0  0  0  0  0  0
   35.4670   29.2270   37.5090 C   0  0  0  0  0  0  0  0  0  0  0  0
   34.4260   28.7100   38.2770 C   0  0  0  0  0  0  0  0  0  0  0  0
   34.3720   29.1540   39.6020 C   0  0  0  0  0  0  0  0  0  0  0  0
   35.2870   30.0190   40.0480 N   0  0  0  0  0  0  0  0  0  0  0  0
   37.1300   30.4310   37.2970 H   0  0  0  0  0  0  0  0  0  0  0  0
   35.4660   28.8550   36.4930 H   0  0  0  0  0  0  0  0  0  0  0  0
   33.6840   28.0220   37.9520 H   0  0  0  0  0  0  0  0  0  0  0  0
   33.6150   28.8340   40.3120 H   0  0  0  0  0  0  0  0  0  0  0  0
   38.9620   27.1690   42.5560 C   0  0  0  0  0  0  0  0  0  0  0  0
   38.2010   27.8020   43.0060 H   0  0  0  0  0  0  0  0  0  0  0  0
   39.5750   26.6890   43.3780 H   0  0  0  0  0  0  0  0  0  0  0  0
   40.1330   24.4120   43.2640 Cl  0  0  0  0  0  0  0  0  0  0  0  0
   38.8010   24.6730   42.1580 C   0  0  0  0  0  0  0  0  0  0  0  0
   38.3440   25.9490   41.9060 C   0  0  0  0  0  0  0  0  0  0  0  0
   37.2900   26.1820   41.0390 C   0  0  0  0  0  0  0  0  0  0  0  0
   36.9560   27.1910   40.8620 H   0  0  0  0  0  0  0  0  0  0  0  0
   36.6480   25.1510   40.3860 C   0  0  0  0  0  0  0  0  0  0  0  0
   35.8310   25.4000   39.7220 H   0  0  0  0  0  0  0  0  0  0  0  0
   37.0940   23.8670   40.6280 C   0  0  0  0  0  3  0  0  0  0  0  0
   38.1490   23.6400   41.4970 C   0  0  0  0  0  3  0  0  0  0  0  0
  1  2  2  0  0  0  0
  3  1  1  0  0  0  0
  3  8  1  0  0  0  0
  4  3  1  0  0  0  0
  5  4  1  0  0  0  0
  5 12  1  0  0  0  0
  5  6  1  0  0  0  0
  6 14  1  0  0  0  0
  6  7  1  0  0  0  0
  7 15  1  0  0  0  0
  7  8  1  0  0  0  0
  8 17  1  1  0  0  0
  8 36  1  0  0  0  0
  9  4  1  0  0  0  0
 10  4  1  0  0  0  0
 11  5  1  0  0  0  0
 13  6  1  0  0  0  0
 16  7  1  0  0  0  0
 18 24  1  0  0  0  0
 19  1  1  0  0  0  0
 19 18  2  0  0  0  0
 20 19  1  0  0  0  0
 21 20  2  0  0  0  0
 21 22  1  0  0  0  0
 22 23  2  0  0  0  0
 23 18  1  0  0  0  0
 25 22  1  0  0  0  0
 26 20  1  0  0  0  0
 26 31  1  0  0  0  0
 27 26  2  0  0  0  0
 28 27  1  0  0  0  0
 28 29  2  0  0  0  0
 29 30  1  0  0  0  0
 30 31  2  0  0  0  0
 30 35  1  0  0  0  0
 32 27  1  0  0  0  0
 33 28  1  0  0  0  0
 34 29  1  0  0  0  0
 36 37  1  0  0  0  0
 36 38  1  0  0  0  0
 40 39  1  0  0  0  0
 41 40  1  0  0  0  0
 41 36  1  0  0  0  0
 42 41  2  0  0  0  0
 43 42  1  0  0  0  0
 44 46  2  0  0  0  0
 44 42  1  0  0  0  0
 45 44  1  0  0  0  0
 46 47  1  0  0  0  0
 47 40  2  0  0  0  0
M  END
>  <minimizedAffinity>
-6.07226276

$$$$

 OpenBabel03252507233D

 47 50  0  0  1  0  0  0  0  0999 V2000
   36.9350   30.2510   39.5660 C   0  0  0  0  0  0  0  0  0  0  0  0
   35.7870   29.9850   40.0440 O   0  0  0  0  0  0  0  0  0  0  0  0
   37.6150   29.3930   38.6620 N   0  0  0  0  0  0  0  0  0  0  0  0
   38.3480   29.7050   37.4260 C   0  0  0  0  0  0  0  0  0  0  0  0
   39.7300   29.0600   37.4980 C   0  0  0  0  0  0  0  0  0  0  0  0
   39.6080   27.5730   37.5200 C   0  0  0  0  0  0  0  0  0  0  0  0
   38.1750   27.1820   37.8230 C   0  0  0  0  0  0  0  0  0  0  0  0
   37.6120   27.9810   38.9520 C   0  0  2  0  0  0  0  0  0  0  0  0
   37.7580   29.3500   36.5590 H   0  0  0  0  0  0  0  0  0  0  0  0
   38.4720   30.8060   37.3000 H   0  0  0  0  0  0  0  0  0  0  0  0
   40.4140   29.4600   36.7580 H   0  0  0  0  0  0  0  0  0  0  0  0
   40.1260   29.3820   38.5050 H   0  0  0  0  0  0  0  0  0  0  0  0
   39.8330   27.1620   36.5030 H   0  0  0  0  0  0  0  0  0  0  0  0
   40.2920   27.0770   38.2320 H   0  0  0  0  0  0  0  0  0  0  0  0
   38.2540   26.1210   38.2040 H   0  0  0  0  0  0  0  0  0  0  0  0
   37.5500   27.1390   36.9190 H   0  0  0  0  0  0  0  0  0  0  0  0
   38.3130   27.8060   39.8230 H   0  0  0  0  0  0  0  0  0  0  0  0
   37.1280   32.6740   39.3470 C   0  0  0  0  0  0  0  0  0  0  0  0
   37.5660   31.4820   39.9660 C   0  0  0  0  0  0  0  0  0  0  0  0
   38.5670   31.5150   40.9270 C   0  0  0  0  0  0  0  0  0  0  0  0
   39.0960   32.7200   41.2380 N   0  0  0  0  0  0  0  0  0  0  0  0
   38.6870   33.8840   40.6490 C   0  0  0  0  0  0  0  0  0  0  0  0
   37.7100   33.8340   39.7140 N   0  0  0  0  0  0  0  0  0  0  0  0
   36.3660   32.6810   38.6080 H   0  0  0  0  0  0  0  0  0  0  0  0
   39.2060   34.7400   41.0100 H   0  0  0  0  0  0  0  0  0  0  0  0
   38.9890   30.2790   41.5300 C   0  0  0  0  0  0  0  0  0  0  0  0
   38.3260   29.7630   42.5910 C   0  0  0  0  0  0  0  0  0  0  0  0
   38.7530   28.5730   43.1470 C   0  0  0  0  0  0  0  0  0  0  0  0
   39.8520   27.8690   42.6620 C   0  0  0  0  0  0  0  0  0  0  0  0
   40.5050   28.4420   41.5670 C   0  0  0  0  0  0  0  0  0  0  0  0
   40.0580   29.5940   41.0590 N   0  0  0  0  0  0  0  0  0  0  0  0
   37.4690   30.1870   43.0780 H   0  0  0  0  0  0  0  0  0  0  0  0
   38.2840   28.0900   43.9940 H   0  0  0  0  0  0  0  0  0  0  0  0
   40.2320   26.9520   43.0430 H   0  0  0  0  0  0  0  0  0  0  0  0
   41.3740   28.0010   41.0870 H   0  0  0  0  0  0  0  0  0  0  0  0
   36.2860   27.4380   39.3650 C   0  0  0  0  0  0  0  0  0  0  0  0
   35.5410   27.3670   38.5770 H   0  0  0  0  0  0  0  0  0  0  0  0
   35.8320   27.9700   40.2550 H   0  0  0  0  0  0  0  0  0  0  0  0
   35.3390   24.9510   37.8190 Cl  0  0  0  0  0  0  0  0  0  0  0  0
   36.1950   24.9060   39.3460 C   0  0  0  0  0  0  0  0  0  0  0  0
   36.5810   26.0770   39.9620 C   0  0  0  0  0  0  0  0  0  0  0  0
   37.2630   26.0700   41.1680 C   0  0  0  0  0  0  0  0  0  0  0  0
   37.5510   27.0010   41.6250 H   0  0  0  0  0  0  0  0  0  0  0  0
   37.5870   24.8920   41.8090 C   0  0  0  0  0  0  0  0  0  0  0  0
   38.1200   24.9550   42.7480 H   0  0  0  0  0  0  0  0  0  0  0  0
   37.2070   23.7120   41.2040 C   0  0  0  0  0  3  0  0  0  0  0  0
   36.5250   23.7260   39.9980 C   0  0  0  0  0  3  0  0  0  0  0  0
  1 19  1  0  0  0  0
  1  2  2  0  0  0  0
  3  8  1  0  0  0  0
  3  1  1  0  0  0  0
  4  5  1  0  0  0  0
  4  3  1  0  0  0  0
  5  6  1  0  0  0  0
  5 12  1  0  0  0  0
  6  7  1  0  0  0  0
  6 14  1  0  0  0  0
  7 15  1  0  0  0  0
  7  8  1  0  0  0  0
  8 36  1  0  0  0  0
  8 17  1  1  0  0  0
  9  4  1  0  0  0  0
 10  4  1  0  0  0  0
 11  5  1  0  0  0  0
 13  6  1  0  0  0  0
 16  7  1  0  0  0  0
 18 23  2  0  0  0  0
 18 19  1  0  0  0  0
 19 20  2  0  0  0  0
 20 21  1  0  0  0  0
 20 26  1  0  0  0  0
 22 25  1  0  0  0  0
 22 21  2  0  0  0  0
 23 22  1  0  0  0  0
 24 18  1  0  0  0  0
 26 27  1  0  0  0  0
 27 32  1  0  0  0  0
 27 28  2  0  0  0  0
 28 33  1  0  0  0  0
 29 34  1  0  0  0  0
 29 28  1  0  0  0  0
 30 29  2  0  0  0  0
 31 26  2  0  0  0  0
 31 30  1  0  0  0  0
 35 30  1  0  0  0  0
 36 41  1  0  0  0  0
 36 38  1  0  0  0  0
 37 36  1  0  0  0  0
 39 40  1  0  0  0  0
 40 41  2  0  0  0  0
 40 47  1  0  0  0  0
 41 42  1  0  0  0  0
 42 43  1  0  0  0  0
 42 44  2  0  0  0  0
 44 45  1  0  0  0  0
 46 44  1  0  0  0  0
 47 46  2  0  0  0  0
M  END
>  <minimizedAffinity>
-5.98101711

$$$$

 OpenBabel03252507233D

 47 50  0  0  1  0  0  0  0  0999 V2000
   40.3820   26.3650   40.4520 C   0  0  0  0  0  0  0  0  0  0  0  0
   40.6010   27.1650   39.4880 O   0  0  0  0  0  0  0  0  0  0  0  0
   39.2430   25.5200   40.5130 N   0  0  0  0  0  0  0  0  0  0  0  0
   39.1330   24.1000   40.8830 C   0  0  0  0  0  0  0  0  0  0  0  0
   38.0460   23.9520   41.9440 C   0  0  0  0  0  0  0  0  0  0  0  0
   36.7150   24.3170   41.3780 C   0  0  0  0  0  0  0  0  0  0  0  0
   36.9010   25.0500   40.0640 C   0  0  0  0  0  0  0  0  0  0  0  0
   37.9670   26.0910   40.1600 C   0  0  2  0  0  0  0  0  0  0  0  0
   38.9220   23.5070   39.9720 H   0  0  0  0  0  0  0  0  0  0  0  0
   40.0940   23.7180   41.2990 H   0  0  0  0  0  0  0  0  0  0  0  0
   38.0890   22.9950   42.4520 H   0  0  0  0  0  0  0  0  0  0  0  0
   38.3110   24.7340   42.7150 H   0  0  0  0  0  0  0  0  0  0  0  0
   36.1410   23.3860   41.1350 H   0  0  0  0  0  0  0  0  0  0  0  0
   36.0860   24.9190   42.0590 H   0  0  0  0  0  0  0  0  0  0  0  0
   35.9320   25.6130   39.9230 H   0  0  0  0  0  0  0  0  0  0  0  0
   36.9880   24.3650   39.2090 H   0  0  0  0  0  0  0  0  0  0  0  0
   37.6480   26.7710   41.0060 H   0  0  0  0  0  0  0  0  0  0  0  0
   42.5270   25.5880   41.3180 C   0  0  0  0  0  0  0  0  0  0  0  0
   41.3390   26.3230   41.5280 C   0  0  0  0  0  0  0  0  0  0  0  0
   41.1200   26.9790   42.7310 C   0  0  0  0  0  0  0  0  0  0  0  0
   42.0790   26.8830   43.6790 N   0  0  0  0  0  0  0  0  0  0  0  0
   43.2350   26.1760   43.4960 C   0  0  0  0  0  0  0  0  0  0  0  0
   43.4320   25.5420   42.3160 N   0  0  0  0  0  0  0  0  0  0  0  0
   42.7230   25.0750   40.4090 H   0  0  0  0  0  0  0  0  0  0  0  0
   43.8810   26.2050   44.3410 H   0  0  0  0  0  0  0  0  0  0  0  0
   39.8950   27.7120   42.9070 C   0  0  0  0  0  0  0  0  0  0  0  0
   38.8290   27.1460   43.5180 C   0  0  0  0  0  0  0  0  0  0  0  0
   37.6670   27.8750   43.6750 C   0  0  0  0  0  0  0  0  0  0  0  0
   37.5370   29.1870   43.2250 C   0  0  0  0  0  0  0  0  0  0  0  0
   38.6640   29.7280   42.6000 C   0  0  0  0  0  0  0  0  0  0  0  0
   39.7680   28.9880   42.4700 N   0  0  0  0  0  0  0  0  0  0  0  0
   38.7720   26.1490   43.9130 H   0  0  0  0  0  0  0  0  0  0  0  0
   36.7690   27.5020   44.1500 H   0  0  0  0  0  0  0  0  0  0  0  0
   36.6740   29.8010   43.3130 H   0  0  0  0  0  0  0  0  0  0  0  0
   38.7030   30.7380   42.2020 H   0  0  0  0  0  0  0  0  0  0  0  0
   37.9870   26.9330   38.9300 C   0  0  0  0  0  0  0  0  0  0  0  0
   37.5620   26.4750   38.0400 H   0  0  0  0  0  0  0  0  0  0  0  0
   39.0090   27.3500   38.6770 H   0  0  0  0  0  0  0  0  0  0  0  0
   39.1280   29.6170   37.9460 Cl  0  0  0  0  0  0  0  0  0  0  0  0
   37.6760   29.4470   38.9100 C   0  0  0  0  0  0  0  0  0  0  0  0
   37.2420   28.1980   39.3010 C   0  0  0  0  0  0  0  0  0  0  0  0
   36.0950   28.0350   40.0600 C   0  0  0  0  0  0  0  0  0  0  0  0
   35.7820   27.0470   40.3510 H   0  0  0  0  0  0  0  0  0  0  0  0
   35.3330   29.1130   40.4600 C   0  0  0  0  0  0  0  0  0  0  0  0
   34.4480   28.9180   41.0520 H   0  0  0  0  0  0  0  0  0  0  0  0
   35.7550   30.3700   40.0760 C   0  0  0  0  0  3  0  0  0  0  0  0
   36.9030   30.5260   39.3170 C   0  0  0  0  0  3  0  0  0  0  0  0
  1  3  1  0  0  0  0
  1 19  1  0  0  0  0
  2  1  2  0  0  0  0
  3  4  1  0  0  0  0
  4 10  1  0  0  0  0
  4  5  1  0  0  0  0
  5 11  1  0  0  0  0
  5 12  1  0  0  0  0
  6  5  1  0  0  0  0
  6 14  1  0  0  0  0
  7  8  1  0  0  0  0
  7  6  1  0  0  0  0
  8  3  1  0  0  0  0
  8 17  1  1  0  0  0
  9  4  1  0  0  0  0
 13  6  1  0  0  0  0
 15  7  1  0  0  0  0
 16  7  1  0  0  0  0
 18 19  2  0  0  0  0
 18 23  1  0  0  0  0
 19 20  1  0  0  0  0
 20 26  1  0  0  0  0
 20 21  2  0  0  0  0
 22 21  1  0  0  0  0
 22 25  1  0  0  0  0
 23 22  2  0  0  0  0
 24 18  1  0  0  0  0
 26 27  1  0  0  0  0
 27 28  2  0  0  0  0
 27 32  1  0  0  0  0
 28 33  1  0  0  0  0
 29 34  1  0  0  0  0
 29 28  1  0  0  0  0
 30 29  2  0  0  0  0
 31 30  1  0  0  0  0
 31 26  2  0  0  0  0
 35 30  1  0  0  0  0
 36 41  1  0  0  0  0
 36  8  1  0  0  0  0
 37 36  1  0  0  0  0
 38 36  1  0  0  0  0
 39 40  1  0  0  0  0
 40 41  2  0  0  0  0
 40 47  1  0  0  0  0
 41 42  1  0  0  0  0
 42 43  1  0  0  0  0
 42 44  2  0  0  0  0
 44 45  1  0  0  0  0
 46 44  1  0  0  0  0
 47 46  2  0  0  0  0
M  END
>  <minimizedAffinity>
-5.94952583

$$$$

 OpenBabel03252507233D

 47 50  0  0  1  0  0  0  0  0999 V2000
   37.6720   27.2770   39.5230 C   0  0  0  0  0  0  0  0  0  0  0  0
   38.3570   27.7340   38.5540 O   0  0  0  0  0  0  0  0  0  0  0  0
   37.4970   27.9780   40.7460 N   0  0  0  0  0  0  0  0  0  0  0  0
   36.2870   28.1900   41.5550 C   0  0  0  0  0  0  0  0  0  0  0  0
   36.5820   27.7860   42.9960 C   0  0  0  0  0  0  0  0  0  0  0  0
   37.6140   28.6870   43.5860 C   0  0  0  0  0  0  0  0  0  0  0  0
   38.2950   29.4760   42.4860 C   0  0  0  0  0  0  0  0  0  0  0  0
   38.6570   28.6060   41.3280 C   0  0  2  0  0  0  0  0  0  0  0  0
   35.9760   29.2490   41.4640 H   0  0  0  0  0  0  0  0  0  0  0  0
   35.4380   27.5740   41.1750 H   0  0  0  0  0  0  0  0  0  0  0  0
   35.6810   27.6620   43.5850 H   0  0  0  0  0  0  0  0  0  0  0  0
   37.0440   26.7600   42.9000 H   0  0  0  0  0  0  0  0  0  0  0  0
   37.1190   29.4430   44.2490 H   0  0  0  0  0  0  0  0  0  0  0  0
   38.3720   28.1630   44.1980 H   0  0  0  0  0  0  0  0  0  0  0  0
   39.2740   29.8020   42.9450 H   0  0  0  0  0  0  0  0  0  0  0  0
   37.7520   30.3970   42.2300 H   0  0  0  0  0  0  0  0  0  0  0  0
   39.3120   27.7890   41.7580 H   0  0  0  0  0  0  0  0  0  0  0  0
   37.5320   24.9240   40.1560 C   0  0  0  0  0  0  0  0  0  0  0  0
   37.0490   25.9880   39.3640 C   0  0  0  0  0  0  0  0  0  0  0  0
   36.0060   25.7840   38.4710 C   0  0  0  0  0  0  0  0  0  0  0  0
   35.4830   24.5390   38.3950 N   0  0  0  0  0  0  0  0  0  0  0  0
   35.9380   23.4960   39.1530 C   0  0  0  0  0  0  0  0  0  0  0  0
   36.9560   23.7130   40.0180 N   0  0  0  0  0  0  0  0  0  0  0  0
   38.3290   25.0490   40.8470 H   0  0  0  0  0  0  0  0  0  0  0  0
   35.4160   22.5870   38.9690 H   0  0  0  0  0  0  0  0  0  0  0  0
   35.5450   26.8920   37.6770 C   0  0  0  0  0  0  0  0  0  0  0  0
   34.7360   27.8370   38.2090 C   0  0  0  0  0  0  0  0  0  0  0  0
   34.3110   28.8910   37.4240 C   0  0  0  0  0  0  0  0  0  0  0  0
   34.6830   29.0290   36.0880 C   0  0  0  0  0  0  0  0  0  0  0  0
   35.5190   28.0280   35.5850 C   0  0  0  0  0  0  0  0  0  0  0  0
   35.9060   27.0270   36.3790 N   0  0  0  0  0  0  0  0  0  0  0  0
   34.3620   27.8670   39.2150 H   0  0  0  0  0  0  0  0  0  0  0  0
   33.6650   29.6880   37.7650 H   0  0  0  0  0  0  0  0  0  0  0  0
   34.3920   29.8130   35.4310 H   0  0  0  0  0  0  0  0  0  0  0  0
   35.8860   28.0110   34.5620 H   0  0  0  0  0  0  0  0  0  0  0  0
   39.5060   29.3550   40.3570 C   0  0  0  0  0  0  0  0  0  0  0  0
   39.5740   28.9230   39.3610 H   0  0  0  0  0  0  0  0  0  0  0  0
   40.5490   29.5750   40.7360 H   0  0  0  0  0  0  0  0  0  0  0  0
   40.9890   31.6010   41.8500 Cl  0  0  0  0  0  0  0  0  0  0  0  0
   39.5060   31.8190   40.9450 C   0  0  0  0  0  0  0  0  0  0  0  0
   38.9160   30.7500   40.3060 C   0  0  0  0  0  0  0  0  0  0  0  0
   37.7450   30.8960   39.5800 C   0  0  0  0  0  0  0  0  0  0  0  0
   37.3080   30.0410   39.0920 H   0  0  0  0  0  0  0  0  0  0  0  0
   37.1150   32.1170   39.4640 C   0  0  0  0  0  0  0  0  0  0  0  0
   36.2030   32.1640   38.8820 H   0  0  0  0  0  0  0  0  0  0  0  0
   37.6930   33.1970   40.0980 C   0  0  0  0  0  3  0  0  0  0  0  0
   38.8640   33.0440   40.8220 C   0  0  0  0  0  3  0  0  0  0  0  0
  1  3  1  0  0  0  0
  2  1  2  0  0  0  0
  3  8  1  0  0  0  0
  3  4  1  0  0  0  0
  4  5  1  0  0  0  0
  5 11  1  0  0  0  0
  5  6  1  0  0  0  0
  6 14  1  0  0  0  0
  6 13  1  0  0  0  0
  7 15  1  0  0  0  0
  7  6  1  0  0  0  0
  8 17  1  1  0  0  0
  8  7  1  0  0  0  0
  9  4  1  0  0  0  0
 10  4  1  0  0  0  0
 12  5  1  0  0  0  0
 16  7  1  0  0  0  0
 18 24  1  0  0  0  0
 19  1  1  0  0  0  0
 19 18  2  0  0  0  0
 20 19  1  0  0  0  0
 21 20  2  0  0  0  0
 21 22  1  0  0  0  0
 22 23  2  0  0  0  0
 23 18  1  0  0  0  0
 25 22  1  0  0  0  0
 26 27  1  0  0  0  0
 26 20  1  0  0  0  0
 27 32  1  0  0  0  0
 28 33  1  0  0  0  0
 28 27  2  0  0  0  0
 29 28  1  0  0  0  0
 30 29  2  0  0  0  0
 30 31  1  0  0  0  0
 31 26  2  0  0  0  0
 34 29  1  0  0  0  0
 35 30  1  0  0  0  0
 36 38  1  0  0  0  0
 36  8  1  0  0  0  0
 37 36  1  0  0  0  0
 40 39  1  0  0  0  0
 41 36  1  0  0  0  0
 41 40  2  0  0  0  0
 42 41  1  0  0  0  0
 43 42  1  0  0  0  0
 44 42  2  0  0  0  0
 44 46  1  0  0  0  0
 45 44  1  0  0  0  0
 46 47  2  0  0  0  0
 47 40  1  0  0  0  0
M  END
>  <minimizedAffinity>
-5.79077864

$$$$

 OpenBabel03252507233D

 47 50  0  0  1  0  0  0  0  0999 V2000
   40.2570   29.0490   40.0140 C   0  0  0  0  0  0  0  0  0  0  0  0
   39.8540   28.5180   38.9320 O   0  0  0  0  0  0  0  0  0  0  0  0
   41.0280   28.3500   40.9800 N   0  0  0  0  0  0  0  0  0  0  0  0
   42.2220   28.7700   41.7280 C   0  0  0  0  0  0  0  0  0  0  0  0
   41.9840   28.5200   43.2140 C   0  0  0  0  0  0  0  0  0  0  0  0
   41.8470   27.0580   43.4790 C   0  0  0  0  0  0  0  0  0  0  0  0
   41.6310   26.3200   42.1730 C   0  0  0  0  0  0  0  0  0  0  0  0
   40.6220   27.0070   41.3120 C   0  0  2  0  0  0  0  0  0  0  0  0
   43.1020   28.2210   41.3390 H   0  0  0  0  0  0  0  0  0  0  0  0
   42.4300   29.8550   41.5760 H   0  0  0  0  0  0  0  0  0  0  0  0
   42.6970   29.0410   43.8430 H   0  0  0  0  0  0  0  0  0  0  0  0
   40.9780   28.9940   43.4120 H   0  0  0  0  0  0  0  0  0  0  0  0
   42.8050   26.6600   43.9040 H   0  0  0  0  0  0  0  0  0  0  0  0
   41.0430   26.8030   44.1930 H   0  0  0  0  0  0  0  0  0  0  0  0
   41.1570   25.3420   42.4830 H   0  0  0  0  0  0  0  0  0  0  0  0
   42.5760   26.0600   41.6740 H   0  0  0  0  0  0  0  0  0  0  0  0
   39.6860   27.0750   41.9430 H   0  0  0  0  0  0  0  0  0  0  0  0
   40.6760   31.4200   39.6130 C   0  0  0  0  0  0  0  0  0  0  0  0
   39.9120   30.4250   40.2630 C   0  0  0  0  0  0  0  0  0  0  0  0
   38.8660   30.7780   41.1040 C   0  0  0  0  0  0  0  0  0  0  0  0
   38.6160   32.0960   41.2720 N   0  0  0  0  0  0  0  0  0  0  0  0
   39.3450   33.0740   40.6530 C   0  0  0  0  0  0  0  0  0  0  0  0
   40.3610   32.7120   39.8360 N   0  0  0  0  0  0  0  0  0  0  0  0
   41.4830   31.1810   38.9650 H   0  0  0  0  0  0  0  0  0  0  0  0
   39.0150   34.0570   40.8940 H   0  0  0  0  0  0  0  0  0  0  0  0
   38.1150   29.7350   41.7510 C   0  0  0  0  0  0  0  0  0  0  0  0
   38.3820   29.3790   43.0290 C   0  0  0  0  0  0  0  0  0  0  0  0
   37.6430   28.3760   43.6250 C   0  0  0  0  0  0  0  0  0  0  0  0
   36.6210   27.7010   42.9620 C   0  0  0  0  0  0  0  0  0  0  0  0
   36.3830   28.1040   41.6440 C   0  0  0  0  0  0  0  0  0  0  0  0
   37.1210   29.0790   41.1070 N   0  0  0  0  0  0  0  0  0  0  0  0
   39.1370   29.7990   43.6660 H   0  0  0  0  0  0  0  0  0  0  0  0
   37.7890   28.0280   44.6390 H   0  0  0  0  0  0  0  0  0  0  0  0
   36.0170   26.9230   43.3610 H   0  0  0  0  0  0  0  0  0  0  0  0
   35.6170   27.6650   41.0110 H   0  0  0  0  0  0  0  0  0  0  0  0
   40.2740   26.1580   40.1360 C   0  0  0  0  0  0  0  0  0  0  0  0
   41.0250   25.4270   39.8460 H   0  0  0  0  0  0  0  0  0  0  0  0
   39.9610   26.7490   39.2220 H   0  0  0  0  0  0  0  0  0  0  0  0
   38.0780   25.9960   37.9850 Cl  0  0  0  0  0  0  0  0  0  0  0  0
   37.9260   25.3640   39.6110 C   0  0  0  0  0  0  0  0  0  0  0  0
   38.9690   25.4830   40.5050 C   0  0  0  0  0  0  0  0  0  0  0  0
   38.8770   24.9880   41.7960 C   0  0  0  0  0  0  0  0  0  0  0  0
   39.7090   25.0960   42.4710 H   0  0  0  0  0  0  0  0  0  0  0  0
   37.7380   24.3540   42.2470 C   0  0  0  0  0  0  0  0  0  0  0  0
   37.7300   23.9900   43.2660 H   0  0  0  0  0  0  0  0  0  0  0  0
   36.6850   24.2280   41.3640 C   0  0  0  0  0  3  0  0  0  0  0  0
   36.7840   24.7250   40.0740 C   0  0  0  0  0  3  0  0  0  0  0  0
  1 19  1  0  0  0  0
  1  3  1  0  0  0  0
  2  1  2  0  0  0  0
  3  8  1  0  0  0  0
  3  4  1  0  0  0  0
  4  5  1  0  0  0  0
  5 12  1  0  0  0  0
  5  6  1  0  0  0  0
  5 11  1  0  0  0  0
  6 13  1  0  0  0  0
  6 14  1  0  0  0  0
  7 15  1  0  0  0  0
  7  6  1  0  0  0  0
  8 17  1  1  0  0  0
  8  7  1  0  0  0  0
  9  4  1  0  0  0  0
 10  4  1  0  0  0  0
 16  7  1  0  0  0  0
 18 23  2  0  0  0  0
 18 19  1  0  0  0  0
 19 20  2  0  0  0  0
 20 21  1  0  0  0  0
 20 26  1  0  0  0  0
 22 25  1  0  0  0  0
 22 21  2  0  0  0  0
 23 22  1  0  0  0  0
 24 18  1  0  0  0  0
 26 27  1  0  0  0  0
 27 28  2  0  0  0  0
 27 32  1  0  0  0  0
 28 33  1  0  0  0  0
 29 34  1  0  0  0  0
 29 28  1  0  0  0  0
 30 29  2  0  0  0  0
 31 30  1  0  0  0  0
 31 26  2  0  0  0  0
 35 30  1  0  0  0  0
 36 41  1  0  0  0  0
 36  8  1  0  0  0  0
 37 36  1  0  0  0  0
 38 36  1  0  0  0  0
 39 40  1  0  0  0  0
 40 47  2  0  0  0  0
 40 41  1  0  0  0  0
 41 42  2  0  0  0  0
 42 44  1  0  0  0  0
 42 43  1  0  0  0  0
 44 45  1  0  0  0  0
 46 44  2  0  0  0  0
 47 46  1  0  0  0  0
M  END
>  <minimizedAffinity>
-5.77502966

$$$$

 OpenBabel03252507233D

 47 50  0  0  1  0  0  0  0  0999 V2000
   37.6800   26.9110   39.0450 C   0  0  0  0  0  0  0  0  0  0  0  0
   38.8370   26.7860   38.5310 O   0  0  0  0  0  0  0  0  0  0  0  0
   37.0920   28.1710   39.3280 N   0  0  0  0  0  0  0  0  0  0  0  0
   35.7250   28.6580   39.0850 C   0  0  0  0  0  0  0  0  0  0  0  0
   35.1720   29.2400   40.3820 C   0  0  0  0  0  0  0  0  0  0  0  0
   35.9540   30.4450   40.7850 C   0  0  0  0  0  0  0  0  0  0  0  0
   37.2470   30.5030   39.9960 C   0  0  0  0  0  0  0  0  0  0  0  0
   37.9230   29.1730   39.9480 C   0  0  2  0  0  0  0  0  0  0  0  0
   35.7490   29.3990   38.2620 H   0  0  0  0  0  0  0  0  0  0  0  0
   35.0580   27.8290   38.7500 H   0  0  0  0  0  0  0  0  0  0  0  0
   34.0960   29.3720   40.3530 H   0  0  0  0  0  0  0  0  0  0  0  0
   35.3740   28.4350   41.1480 H   0  0  0  0  0  0  0  0  0  0  0  0
   35.3840   31.3710   40.5150 H   0  0  0  0  0  0  0  0  0  0  0  0
   36.1710   30.4990   41.8680 H   0  0  0  0  0  0  0  0  0  0  0  0
   37.9180   31.1680   40.6160 H   0  0  0  0  0  0  0  0  0  0  0  0
   37.1260   31.0050   39.0260 H   0  0  0  0  0  0  0  0  0  0  0  0
   38.0760   28.8730   41.0290 H   0  0  0  0  0  0  0  0  0  0  0  0
   36.2160   25.1060   38.3010 C   0  0  0  0  0  0  0  0  0  0  0  0
   36.9420   25.7130   39.3500 C   0  0  0  0  0  0  0  0  0  0  0  0
   36.9360   25.1590   40.6230 C   0  0  0  0  0  0  0  0  0  0  0  0
   36.2160   24.0300   40.8100 N   0  0  0  0  0  0  0  0  0  0  0  0
   35.5060   23.4280   39.8080 C   0  0  0  0  0  0  0  0  0  0  0  0
   35.5220   23.9830   38.5730 N   0  0  0  0  0  0  0  0  0  0  0  0
   36.2000   25.5070   37.3180 H   0  0  0  0  0  0  0  0  0  0  0  0
   34.9960   22.5490   40.1260 H   0  0  0  0  0  0  0  0  0  0  0  0
   37.6840   25.8100   41.6650 C   0  0  0  0  0  0  0  0  0  0  0  0
   37.0990   26.7270   42.4690 C   0  0  0  0  0  0  0  0  0  0  0  0
   37.8410   27.3340   43.4630 C   0  0  0  0  0  0  0  0  0  0  0  0
   39.1860   27.0430   43.6790 C   0  0  0  0  0  0  0  0  0  0  0  0
   39.7460   26.0910   42.8230 C   0  0  0  0  0  0  0  0  0  0  0  0
   38.9920   25.5280   41.8760 N   0  0  0  0  0  0  0  0  0  0  0  0
   36.0780   27.0590   42.4250 H   0  0  0  0  0  0  0  0  0  0  0  0
   37.4550   28.0760   44.1490 H   0  0  0  0  0  0  0  0  0  0  0  0
   39.8120   27.4740   44.4230 H   0  0  0  0  0  0  0  0  0  0  0  0
   40.7820   25.7690   42.8790 H   0  0  0  0  0  0  0  0  0  0  0  0
   39.2840   29.3000   39.3520 C   0  0  0  0  0  0  0  0  0  0  0  0
   39.3240   29.7540   38.3650 H   0  0  0  0  0  0  0  0  0  0  0  0
   39.8690   28.3310   39.3360 H   0  0  0  0  0  0  0  0  0  0  0  0
   40.2790   32.0860   38.5010 Cl  0  0  0  0  0  0  0  0  0  0  0  0
   40.5760   31.3590   40.0660 C   0  0  0  0  0  0  0  0  0  0  0  0
   40.0850   30.1040   40.3560 C   0  0  0  0  0  0  0  0  0  0  0  0
   40.3020   29.5080   41.5880 C   0  0  0  0  0  0  0  0  0  0  0  0
   39.9060   28.5260   41.7840 H   0  0  0  0  0  0  0  0  0  0  0  0
   41.0180   30.1420   42.5810 C   0  0  0  0  0  0  0  0  0  0  0  0
   41.1510   29.6230   43.5210 H   0  0  0  0  0  0  0  0  0  0  0  0
   41.5150   31.4000   42.3060 C   0  0  0  0  0  3  0  0  0  0  0  0
   41.2950   31.9900   41.0720 C   0  0  0  0  0  3  0  0  0  0  0  0
  1  3  1  0  0  0  0
  1 19  1  0  0  0  0
  2  1  2  0  0  0  0
  3  8  1  0  0  0  0
  4  3  1  0  0  0  0
  4  5  1  0  0  0  0
  5  6  1  0  0  0  0
  5 12  1  0  0  0  0
  6 14  1  0  0  0  0
  7 15  1  0  0  0  0
  7  6  1  0  0  0  0
  8  7  1  0  0  0  0
  8 17  1  1  0  0  0
  9  4  1  0  0  0  0
 10  4  1  0  0  0  0
 11  5  1  0  0  0  0
 13  6  1  0  0  0  0
 16  7  1  0  0  0  0
 18 23  2  0  0  0  0
 18 19  1  0  0  0  0
 19 20  2  0  0  0  0
 20 21  1  0  0  0  0
 20 26  1  0  0  0  0
 22 25  1  0  0  0  0
 22 21  2  0  0  0  0
 23 22  1  0  0  0  0
 24 18  1  0  0  0  0
 26 31  2  0  0  0  0
 26 27  1  0  0  0  0
 27 28  2  0  0  0  0
 28 29  1  0  0  0  0
 28 33  1  0  0  0  0
 29 34  1  0  0  0  0
 30 35  1  0  0  0  0
 30 29  2  0  0  0  0
 31 30  1  0  0  0  0
 32 27  1  0  0  0  0
 36  8  1  0  0  0  0
 36 41  1  0  0  0  0
 37 36  1  0  0  0  0
 38 36  1  0  0  0  0
 39 40  1  0  0  0  0
 40 41  2  0  0  0  0
 40 47  1  0  0  0  0
 41 42  1  0  0  0  0
 42 43  1  0  0  0  0
 42 44  2  0  0  0  0
 44 45  1  0  0  0  0
 46 44  1  0  0  0  0
 47 46  2  0  0  0  0
M  END
>  <minimizedAffinity>
-5.73118353

$$$$
