
 OpenBabel03252505303D

 27 28  0  0  0  0  0  0  0  0999 V2000
   46.8910   32.3660   48.4430 O   0  0  0  0  0  0  0  0  0  0  0  0
   45.8430   32.5340   47.3300 P   0  0  1  0  0  0  0  0  0  0  0  0
   44.5490   33.4750   47.8190 O   0  0  0  0  0  0  0  0  0  0  0  0
   44.5830   33.5630   48.8040 H   0  0  0  0  0  0  0  0  0  0  0  0
   46.6580   33.2260   46.0050 O   0  0  0  0  0  0  0  0  0  0  0  0
   44.4790   35.6670   44.6160 C   0  0  0  0  0  0  0  0  0  0  0  0
   44.8880   35.7710   43.2720 C   0  0  0  0  0  0  0  0  0  0  0  0
   45.9600   34.9510   42.8670 C   0  0  0  0  0  0  0  0  0  0  0  0
   46.5250   34.1190   43.7960 N   0  0  0  0  0  0  0  0  0  0  0  0
   46.0850   34.0660   45.0710 C   0  0  0  0  0  0  0  0  0  0  0  0
   45.0670   34.8370   45.4770 N   0  0  0  0  0  0  0  0  0  0  0  0
   43.6550   36.2940   44.9340 H   0  0  0  0  0  0  0  0  0  0  0  0
   44.4540   36.4140   42.5450 H   0  0  0  0  0  0  0  0  0  0  0  0
   46.3700   34.9350   41.8620 H   0  0  0  0  0  0  0  0  0  0  0  0
   45.2760   30.9780   46.9680 O   0  0  0  0  0  0  0  0  0  0  0  0
   45.4890   30.1950   48.0870 C   0  0  0  0  0  0  0  0  0  0  0  0
   46.3320   30.5760   48.6890 H   0  0  0  0  0  0  0  0  0  0  0  0
   44.5790   30.2680   48.7110 H   0  0  0  0  0  0  0  0  0  0  0  0
   48.3800   29.4720   47.5420 Cl  0  0  0  0  0  0  0  0  0  0  0  0
   46.9910   28.4150   47.3760 C   0  0  0  0  0  0  0  0  0  0  0  0
   45.6660   28.7900   47.6380 C   0  0  0  0  0  0  0  0  0  0  0  0
   44.6560   27.8680   47.4710 C   0  0  0  0  0  0  0  0  0  0  0  0
   43.6550   28.2120   47.6880 H   0  0  0  0  0  0  0  0  0  0  0  0
   44.9050   26.5780   47.0520 C   0  0  0  0  0  0  0  0  0  0  0  0
   44.1140   25.8580   46.9210 H   0  0  0  0  0  0  0  0  0  0  0  0
   46.2020   26.1510   46.7760 C   0  0  0  0  0  3  0  0  0  0  0  0
   47.1770   27.1130   46.9590 C   0  0  0  0  0  3  0  0  0  0  0  0
  2  3  1  0  0  0  0
  2  1  2  1  0  0  0
  3  4  1  0  0  0  0
  5  2  1  0  0  0  0
  6 12  1  0  0  0  0
  6 11  1  0  0  0  0
  7  6  2  0  0  0  0
  8  7  1  0  0  0  0
  8  9  2  0  0  0  0
  9 10  1  0  0  0  0
 10 11  2  0  0  0  0
 10  5  1  0  0  0  0
 13  7  1  0  0  0  0
 14  8  1  0  0  0  0
 15  2  1  0  0  0  0
 15 16  1  0  0  0  0
 16 17  1  0  0  0  0
 16 18  1  0  0  0  0
 20 19  1  0  0  0  0
 20 21  1  0  0  0  0
 21 16  1  0  0  0  0
 22 21  2  0  0  0  0
 22 23  1  0  0  0  0
 24 22  1  0  0  0  0
 25 24  1  0  0  0  0
 26 27  1  0  0  0  0
 26 24  2  0  0  0  0
 27 20  2  0  0  0  0
M  END
>  <minimizedAffinity>
-4.71722889

>  <minimizedRMSD>
1.23280036

$$$$
