
 OpenBabel03252505313D

 27 28  0  0  0  0  0  0  0  0999 V2000
   36.9640   29.9790   42.1680 O   0  0  0  0  0  0  0  0  0  0  0  0
   36.5240   29.4000   40.8130 P   0  0  1  0  0  0  0  0  0  0  0  0
   34.8830   29.5900   40.5500 O   0  0  0  0  0  0  0  0  0  0  0  0
   34.4560   29.8350   41.4080 H   0  0  0  0  0  0  0  0  0  0  0  0
   37.4480   30.1980   39.6260 O   0  0  0  0  0  0  0  0  0  0  0  0
   37.6470   33.7420   39.8190 C   0  0  0  0  0  0  0  0  0  0  0  0
   39.0160   34.0010   40.0260 C   0  0  0  0  0  0  0  0  0  0  0  0
   39.8720   32.8840   40.0960 C   0  0  0  0  0  0  0  0  0  0  0  0
   39.3220   31.6380   39.9600 N   0  0  0  0  0  0  0  0  0  0  0  0
   37.9990   31.4570   39.7630 C   0  0  0  0  0  0  0  0  0  0  0  0
   37.1670   32.5050   39.6930 N   0  0  0  0  0  0  0  0  0  0  0  0
   36.9830   34.5960   39.7640 H   0  0  0  0  0  0  0  0  0  0  0  0
   39.4510   34.9660   40.1320 H   0  0  0  0  0  0  0  0  0  0  0  0
   40.9450   32.9460   40.2510 H   0  0  0  0  0  0  0  0  0  0  0  0
   36.8770   27.7430   40.8640 O   0  0  0  0  0  0  0  0  0  0  0  0
   36.6770   27.3230   42.1660 C   0  0  0  0  0  0  0  0  0  0  0  0
   36.4180   28.1690   42.8250 H   0  0  0  0  0  0  0  0  0  0  0  0
   35.8100   26.6370   42.1560 H   0  0  0  0  0  0  0  0  0  0  0  0
   36.6530   24.4090   41.3340 Cl  0  0  0  0  0  0  0  0  0  0  0  0
   37.9170   25.2280   42.2350 C   0  0  0  0  0  0  0  0  0  0  0  0
   37.8880   26.5800   42.6010 C   0  0  0  0  0  0  0  0  0  0  0  0
   38.9430   27.1120   43.3110 C   0  0  0  0  0  0  0  0  0  0  0  0
   38.8680   28.1590   43.5650 H   0  0  0  0  0  0  0  0  0  0  0  0
   40.0350   26.3530   43.6760 C   0  0  0  0  0  0  0  0  0  0  0  0
   40.8580   26.7690   44.2320 H   0  0  0  0  0  0  0  0  0  0  0  0
   40.1160   25.0030   43.3390 C   0  0  0  0  0  3  0  0  0  0  0  0
   39.0340   24.5200   42.6290 C   0  0  0  0  0  3  0  0  0  0  0  0
  2 15  1  0  0  0  0
  2  1  2  1  0  0  0
  3  2  1  0  0  0  0
  3  4  1  0  0  0  0
  5 10  1  0  0  0  0
  5  2  1  0  0  0  0
  6  7  1  0  0  0  0
  7  8  2  0  0  0  0
  7 13  1  0  0  0  0
  8 14  1  0  0  0  0
  9  8  1  0  0  0  0
 10  9  2  0  0  0  0
 11 10  1  0  0  0  0
 11  6  2  0  0  0  0
 12  6  1  0  0  0  0
 15 16  1  0  0  0  0
 16 21  1  0  0  0  0
 16 17  1  0  0  0  0
 18 16  1  0  0  0  0
 19 20  1  0  0  0  0
 20 21  2  0  0  0  0
 20 27  1  0  0  0  0
 21 22  1  0  0  0  0
 22 23  1  0  0  0  0
 22 24  2  0  0  0  0
 24 25  1  0  0  0  0
 26 24  1  0  0  0  0
 27 26  2  0  0  0  0
M  END
>  <minimizedAffinity>
-5.06974745

$$$$

 OpenBabel03252505313D

 27 28  0  0  0  0  0  0  0  0999 V2000
   37.9680   30.0870   42.2360 O   0  0  0  0  0  0  0  0  0  0  0  0
   36.8070   29.6730   41.3160 P   0  0  1  0  0  0  0  0  0  0  0  0
   35.6070   30.8360   41.2550 O   0  0  0  0  0  0  0  0  0  0  0  0
   35.7550   31.4760   41.9960 H   0  0  0  0  0  0  0  0  0  0  0  0
   37.4880   29.3900   39.7810 O   0  0  0  0  0  0  0  0  0  0  0  0
   36.8370   29.3300   36.2870 C   0  0  0  0  0  0  0  0  0  0  0  0
   35.4400   29.1800   36.1980 C   0  0  0  0  0  0  0  0  0  0  0  0
   34.7290   29.1000   37.4120 C   0  0  0  0  0  0  0  0  0  0  0  0
   35.4370   29.1730   38.5820 N   0  0  0  0  0  0  0  0  0  0  0  0
   36.7780   29.3180   38.5990 C   0  0  0  0  0  0  0  0  0  0  0  0
   37.4730   29.3960   37.4560 N   0  0  0  0  0  0  0  0  0  0  0  0
   37.3900   29.3920   35.3580 H   0  0  0  0  0  0  0  0  0  0  0  0
   34.8830   29.1230   35.2940 H   0  0  0  0  0  0  0  0  0  0  0  0
   33.6520   28.9850   37.4820 H   0  0  0  0  0  0  0  0  0  0  0  0
   36.1550   28.2560   41.9780 O   0  0  0  0  0  0  0  0  0  0  0  0
   37.0000   27.8530   42.9950 C   0  0  0  0  0  0  0  0  0  0  0  0
   37.7620   28.6220   43.2120 H   0  0  0  0  0  0  0  0  0  0  0  0
   36.3810   27.7390   43.9050 H   0  0  0  0  0  0  0  0  0  0  0  0
   40.0030   27.7110   43.3710 Cl  0  0  0  0  0  0  0  0  0  0  0  0
   38.9620   26.4280   42.7820 C   0  0  0  0  0  0  0  0  0  0  0  0
   37.5750   26.5350   42.6220 C   0  0  0  0  0  0  0  0  0  0  0  0
   36.8620   25.4540   42.1490 C   0  0  0  0  0  0  0  0  0  0  0  0
   35.7960   25.5930   42.0460 H   0  0  0  0  0  0  0  0  0  0  0  0
   37.4720   24.2610   41.8260 C   0  0  0  0  0  0  0  0  0  0  0  0
   36.9150   23.4170   41.4560 H   0  0  0  0  0  0  0  0  0  0  0  0
   38.8500   24.0980   41.9650 C   0  0  0  0  0  3  0  0  0  0  0  0
   39.5160   25.2100   42.4420 C   0  0  0  0  0  3  0  0  0  0  0  0
  2 15  1  0  0  0  0
  2  1  2  1  0  0  0
  3  2  1  0  0  0  0
  3  4  1  0  0  0  0
  5  2  1  0  0  0  0
  6 11  1  0  0  0  0
  7  6  2  0  0  0  0
  7  8  1  0  0  0  0
  8 14  1  0  0  0  0
  8  9  2  0  0  0  0
  9 10  1  0  0  0  0
 10  5  1  0  0  0  0
 11 10  2  0  0  0  0
 12  6  1  0  0  0  0
 13  7  1  0  0  0  0
 15 16  1  0  0  0  0
 16 17  1  0  0  0  0
 16 18  1  0  0  0  0
 20 19  1  0  0  0  0
 21 20  1  0  0  0  0
 21 16  1  0  0  0  0
 22 21  2  0  0  0  0
 23 22  1  0  0  0  0
 24 26  2  0  0  0  0
 24 22  1  0  0  0  0
 25 24  1  0  0  0  0
 26 27  1  0  0  0  0
 27 20  2  0  0  0  0
M  END
>  <minimizedAffinity>
-4.99847555

$$$$

 OpenBabel03252505313D

 27 28  0  0  0  0  0  0  0  0999 V2000
   38.3140   30.7940   41.6900 O   0  0  0  0  0  0  0  0  0  0  0  0
   37.1940   30.9460   40.6480 P   0  0  1  0  0  0  0  0  0  0  0  0
   35.6850   31.0750   41.3580 O   0  0  0  0  0  0  0  0  0  0  0  0
   35.7630   30.8020   42.3060 H   0  0  0  0  0  0  0  0  0  0  0  0
   37.5770   32.3280   39.7300 O   0  0  0  0  0  0  0  0  0  0  0  0
   40.3630   32.1100   37.5330 C   0  0  0  0  0  0  0  0  0  0  0  0
   41.2650   33.0750   38.0210 C   0  0  0  0  0  0  0  0  0  0  0  0
   40.8610   33.8100   39.1540 C   0  0  0  0  0  0  0  0  0  0  0  0
   39.6330   33.5380   39.6960 N   0  0  0  0  0  0  0  0  0  0  0  0
   38.8140   32.5980   39.1800 C   0  0  0  0  0  0  0  0  0  0  0  0
   39.1790   31.8880   38.1030 N   0  0  0  0  0  0  0  0  0  0  0  0
   40.6680   31.5420   36.6620 H   0  0  0  0  0  0  0  0  0  0  0  0
   42.2200   33.2920   37.6060 H   0  0  0  0  0  0  0  0  0  0  0  0
   41.4610   34.5800   39.6280 H   0  0  0  0  0  0  0  0  0  0  0  0
   37.2290   29.5410   39.7000 O   0  0  0  0  0  0  0  0  0  0  0  0
   36.0810   28.8270   39.9860 C   0  0  0  0  0  0  0  0  0  0  0  0
   35.3610   29.4370   40.5590 H   0  0  0  0  0  0  0  0  0  0  0  0
   35.6040   28.5800   39.0190 H   0  0  0  0  0  0  0  0  0  0  0  0
   36.2560   26.4460   38.1210 Cl  0  0  0  0  0  0  0  0  0  0  0  0
   36.5710   26.4460   39.8470 C   0  0  0  0  0  0  0  0  0  0  0  0
   36.4780   27.5720   40.6740 C   0  0  0  0  0  0  0  0  0  0  0  0
   36.7500   27.4480   42.0200 C   0  0  0  0  0  0  0  0  0  0  0  0
   36.6630   28.3480   42.6100 H   0  0  0  0  0  0  0  0  0  0  0  0
   37.1160   26.2440   42.5840 C   0  0  0  0  0  0  0  0  0  0  0  0
   37.3270   26.1470   43.6350 H   0  0  0  0  0  0  0  0  0  0  0  0
   37.2240   25.0910   41.8070 C   0  0  0  0  0  3  0  0  0  0  0  0
   36.9400   25.2700   40.4670 C   0  0  0  0  0  3  0  0  0  0  0  0
  2  3  1  0  0  0  0
  2  1  2  1  0  0  0
  3  4  1  0  0  0  0
  5  2  1  0  0  0  0
  6  7  2  0  0  0  0
  6 11  1  0  0  0  0
  7  8  1  0  0  0  0
  8 14  1  0  0  0  0
  8  9  2  0  0  0  0
 10  9  1  0  0  0  0
 10  5  1  0  0  0  0
 11 10  2  0  0  0  0
 12  6  1  0  0  0  0
 13  7  1  0  0  0  0
 15 16  1  0  0  0  0
 15  2  1  0  0  0  0
 16 17  1  0  0  0  0
 16 21  1  0  0  0  0
 18 16  1  0  0  0  0
 19 20  1  0  0  0  0
 20 27  2  0  0  0  0
 20 21  1  0  0  0  0
 21 22  2  0  0  0  0
 22 24  1  0  0  0  0
 22 23  1  0  0  0  0
 24 25  1  0  0  0  0
 26 24  2  0  0  0  0
 27 26  1  0  0  0  0
M  END
>  <minimizedAffinity>
-4.99578953

$$$$

 OpenBabel03252505313D

 27 28  0  0  0  0  0  0  0  0999 V2000
   37.5100   28.4120   40.1530 O   0  0  0  0  0  0  0  0  0  0  0  0
   36.6060   28.7280   41.3570 P   0  0  1  0  0  0  0  0  0  0  0  0
   35.0660   29.1830   40.8860 O   0  0  0  0  0  0  0  0  0  0  0  0
   35.0840   29.3850   39.9170 H   0  0  0  0  0  0  0  0  0  0  0  0
   36.5800   27.3250   42.3200 O   0  0  0  0  0  0  0  0  0  0  0  0
   39.7260   26.3790   43.6790 C   0  0  0  0  0  0  0  0  0  0  0  0
   39.9050   25.0510   43.2450 C   0  0  0  0  0  0  0  0  0  0  0  0
   38.8800   24.4960   42.4550 C   0  0  0  0  0  0  0  0  0  0  0  0
   37.7920   25.2750   42.1660 N   0  0  0  0  0  0  0  0  0  0  0  0
   37.6800   26.5430   42.6130 C   0  0  0  0  0  0  0  0  0  0  0  0
   38.6440   27.0910   43.3660 N   0  0  0  0  0  0  0  0  0  0  0  0
   40.5110   26.8130   44.2870 H   0  0  0  0  0  0  0  0  0  0  0  0
   40.7480   24.4400   43.4640 H   0  0  0  0  0  0  0  0  0  0  0  0
   38.8950   23.4860   42.0570 H   0  0  0  0  0  0  0  0  0  0  0  0
   37.3300   30.0280   42.1700 O   0  0  0  0  0  0  0  0  0  0  0  0
   38.5840   30.2080   41.6170 C   0  0  0  0  0  0  0  0  0  0  0  0
   39.3790   30.0210   42.3590 H   0  0  0  0  0  0  0  0  0  0  0  0
   38.6970   29.4530   40.8170 H   0  0  0  0  0  0  0  0  0  0  0  0
   41.3400   31.4600   41.7340 Cl  0  0  0  0  0  0  0  0  0  0  0  0
   39.8920   32.1830   41.0560 C   0  0  0  0  0  0  0  0  0  0  0  0
   38.6340   31.5680   41.0230 C   0  0  0  0  0  0  0  0  0  0  0  0
   37.5680   32.2380   40.4620 C   0  0  0  0  0  0  0  0  0  0  0  0
   36.6220   31.7170   40.4630 H   0  0  0  0  0  0  0  0  0  0  0  0
   37.6980   33.5030   39.9270 C   0  0  0  0  0  0  0  0  0  0  0  0
   36.8650   34.0260   39.4910 H   0  0  0  0  0  0  0  0  0  0  0  0
   38.9270   34.1610   39.9340 C   0  0  0  0  0  3  0  0  0  0  0  0
   39.9610   33.4470   40.5070 C   0  0  0  0  0  3  0  0  0  0  0  0
  2  1  2  6  0  0  0
  2 15  1  0  0  0  0
  2  5  1  0  0  0  0
  3  2  1  0  0  0  0
  4  3  1  0  0  0  0
  5 10  1  0  0  0  0
  6 12  1  0  0  0  0
  7 13  1  0  0  0  0
  7  6  2  0  0  0  0
  8  7  1  0  0  0  0
  9  8  2  0  0  0  0
  9 10  1  0  0  0  0
 10 11  2  0  0  0  0
 11  6  1  0  0  0  0
 14  8  1  0  0  0  0
 16 15  1  0  0  0  0
 16 17  1  0  0  0  0
 18 16  1  0  0  0  0
 20 19  1  0  0  0  0
 21 20  1  0  0  0  0
 21 16  1  0  0  0  0
 22 23  1  0  0  0  0
 22 21  2  0  0  0  0
 24 26  2  0  0  0  0
 24 22  1  0  0  0  0
 25 24  1  0  0  0  0
 26 27  1  0  0  0  0
 27 20  2  0  0  0  0
M  END
>  <minimizedAffinity>
-4.80702877

$$$$

 OpenBabel03252505313D

 27 28  0  0  0  0  0  0  0  0999 V2000
   39.4530   30.3500   42.9360 O   0  0  0  0  0  0  0  0  0  0  0  0
   38.3200   29.4910   42.3500 P   0  0  1  0  0  0  0  0  0  0  0  0
   37.0570   29.2930   43.4290 O   0  0  0  0  0  0  0  0  0  0  0  0
   37.3670   29.5740   44.3260 H   0  0  0  0  0  0  0  0  0  0  0  0
   37.8130   30.2700   40.9240 O   0  0  0  0  0  0  0  0  0  0  0  0
   34.6100   29.1010   39.9220 C   0  0  0  0  0  0  0  0  0  0  0  0
   34.7160   28.9560   38.5250 C   0  0  0  0  0  0  0  0  0  0  0  0
   35.9570   29.2830   37.9430 C   0  0  0  0  0  0  0  0  0  0  0  0
   36.9620   29.7160   38.7650 N   0  0  0  0  0  0  0  0  0  0  0  0
   36.7960   29.8330   40.0990 C   0  0  0  0  0  0  0  0  0  0  0  0
   35.6250   29.5270   40.6730 N   0  0  0  0  0  0  0  0  0  0  0  0
   33.6580   28.8510   40.3750 H   0  0  0  0  0  0  0  0  0  0  0  0
   33.9400   28.6200   37.8800 H   0  0  0  0  0  0  0  0  0  0  0  0
   36.1700   29.2150   36.8810 H   0  0  0  0  0  0  0  0  0  0  0  0
   38.9940   27.9710   42.0220 O   0  0  0  0  0  0  0  0  0  0  0  0
   38.2830   27.0400   42.7560 C   0  0  0  0  0  0  0  0  0  0  0  0
   38.8720   26.6690   43.6120 H   0  0  0  0  0  0  0  0  0  0  0  0
   37.3980   27.5610   43.1670 H   0  0  0  0  0  0  0  0  0  0  0  0
   39.6230   24.3750   43.2860 Cl  0  0  0  0  0  0  0  0  0  0  0  0
   38.4320   24.7170   42.0430 C   0  0  0  0  0  0  0  0  0  0  0  0
   37.8370   25.9670   41.8310 C   0  0  0  0  0  0  0  0  0  0  0  0
   36.9120   26.1130   40.8200 C   0  0  0  0  0  0  0  0  0  0  0  0
   36.4840   27.0980   40.7020 H   0  0  0  0  0  0  0  0  0  0  0  0
   36.5490   25.0630   40.0030 C   0  0  0  0  0  0  0  0  0  0  0  0
   35.8270   25.1790   39.2120 H   0  0  0  0  0  0  0  0  0  0  0  0
   37.1100   23.7980   40.1690 C   0  0  0  0  0  3  0  0  0  0  0  0
   38.0310   23.7060   41.1950 C   0  0  0  0  0  3  0  0  0  0  0  0
  2  1  2  1  0  0  0
  2  3  1  0  0  0  0
  3  4  1  0  0  0  0
  5  2  1  0  0  0  0
  6 12  1  0  0  0  0
  6 11  1  0  0  0  0
  7  6  2  0  0  0  0
  8  7  1  0  0  0  0
  8  9  2  0  0  0  0
  9 10  1  0  0  0  0
 10 11  2  0  0  0  0
 10  5  1  0  0  0  0
 13  7  1  0  0  0  0
 14  8  1  0  0  0  0
 15  2  1  0  0  0  0
 15 16  1  0  0  0  0
 16 18  1  0  0  0  0
 16 17  1  0  0  0  0
 20 19  1  0  0  0  0
 21 20  1  0  0  0  0
 21 16  1  0  0  0  0
 22 21  2  0  0  0  0
 23 22  1  0  0  0  0
 24 26  2  0  0  0  0
 24 22  1  0  0  0  0
 25 24  1  0  0  0  0
 26 27  1  0  0  0  0
 27 20  2  0  0  0  0
M  END
>  <minimizedAffinity>
-4.77466965

$$$$

 OpenBabel03252505313D

 27 28  0  0  0  0  0  0  0  0999 V2000
   38.5710   31.2700   41.0230 O   0  0  0  0  0  0  0  0  0  0  0  0
   37.4910   31.7080   40.0200 P   0  0  1  0  0  0  0  0  0  0  0  0
   36.9830   33.2800   40.2880 O   0  0  0  0  0  0  0  0  0  0  0  0
   37.3040   33.5630   41.1800 H   0  0  0  0  0  0  0  0  0  0  0  0
   38.1710   31.5230   38.4700 O   0  0  0  0  0  0  0  0  0  0  0  0
   36.8600   29.1990   36.1210 C   0  0  0  0  0  0  0  0  0  0  0  0
   37.8040   28.1540   36.1050 C   0  0  0  0  0  0  0  0  0  0  0  0
   38.9230   28.2930   36.9490 C   0  0  0  0  0  0  0  0  0  0  0  0
   39.0150   29.4210   37.7200 N   0  0  0  0  0  0  0  0  0  0  0  0
   38.0740   30.3870   37.6910 C   0  0  0  0  0  0  0  0  0  0  0  0
   37.0020   30.2750   36.8940 N   0  0  0  0  0  0  0  0  0  0  0  0
   35.9970   29.0990   35.4740 H   0  0  0  0  0  0  0  0  0  0  0  0
   37.7390   27.2750   35.5090 H   0  0  0  0  0  0  0  0  0  0  0  0
   39.7210   27.5620   37.0310 H   0  0  0  0  0  0  0  0  0  0  0  0
   36.1740   30.6670   40.2500 O   0  0  0  0  0  0  0  0  0  0  0  0
   36.4180   29.9480   41.4050 C   0  0  0  0  0  0  0  0  0  0  0  0
   37.2820   30.3570   41.9560 H   0  0  0  0  0  0  0  0  0  0  0  0
   35.5300   30.0660   42.0530 H   0  0  0  0  0  0  0  0  0  0  0  0
   37.4440   28.2290   43.6790 Cl  0  0  0  0  0  0  0  0  0  0  0  0
   37.0430   27.6880   42.0590 C   0  0  0  0  0  0  0  0  0  0  0  0
   36.5710   28.5180   41.0340 C   0  0  0  0  0  0  0  0  0  0  0  0
   36.2900   27.9750   39.7990 C   0  0  0  0  0  0  0  0  0  0  0  0
   35.9290   28.6610   39.0470 H   0  0  0  0  0  0  0  0  0  0  0  0
   36.4580   26.6320   39.5340 C   0  0  0  0  0  0  0  0  0  0  0  0
   36.2400   26.2090   38.5690 H   0  0  0  0  0  0  0  0  0  0  0  0
   36.9250   25.7610   40.5170 C   0  0  0  0  0  3  0  0  0  0  0  0
   37.1920   26.3550   41.7350 C   0  0  0  0  0  3  0  0  0  0  0  0
  2 15  1  0  0  0  0
  2  3  1  0  0  0  0
  2  1  2  1  0  0  0
  3  4  1  0  0  0  0
  5  2  1  0  0  0  0
  6 11  1  0  0  0  0
  7  6  2  0  0  0  0
  7  8  1  0  0  0  0
  8 14  1  0  0  0  0
  8  9  2  0  0  0  0
 10  9  1  0  0  0  0
 10  5  1  0  0  0  0
 11 10  2  0  0  0  0
 12  6  1  0  0  0  0
 13  7  1  0  0  0  0
 15 16  1  0  0  0  0
 16 17  1  0  0  0  0
 16 18  1  0  0  0  0
 20 19  1  0  0  0  0
 21 16  1  0  0  0  0
 21 20  2  0  0  0  0
 22 21  1  0  0  0  0
 23 22  1  0  0  0  0
 24 22  2  0  0  0  0
 24 26  1  0  0  0  0
 25 24  1  0  0  0  0
 26 27  2  0  0  0  0
 27 20  1  0  0  0  0
M  END
>  <minimizedAffinity>
-4.74824095

$$$$

 OpenBabel03252505313D

 27 28  0  0  0  0  0  0  0  0999 V2000
   37.1150   28.8880   40.0980 O   0  0  0  0  0  0  0  0  0  0  0  0
   36.9780   29.6670   41.4160 P   0  0  1  0  0  0  0  0  0  0  0  0
   35.6370   30.6670   41.4210 O   0  0  0  0  0  0  0  0  0  0  0  0
   35.3040   30.7470   40.4930 H   0  0  0  0  0  0  0  0  0  0  0  0
   36.8990   28.5020   42.6560 O   0  0  0  0  0  0  0  0  0  0  0  0
   38.3130   25.2470   42.4660 C   0  0  0  0  0  0  0  0  0  0  0  0
   39.5400   25.3630   43.1480 C   0  0  0  0  0  0  0  0  0  0  0  0
   39.8570   26.6290   43.6790 C   0  0  0  0  0  0  0  0  0  0  0  0
   38.9610   27.6480   43.4990 N   0  0  0  0  0  0  0  0  0  0  0  0
   37.8000   27.4710   42.8350 C   0  0  0  0  0  0  0  0  0  0  0  0
   37.4790   26.2760   42.3220 N   0  0  0  0  0  0  0  0  0  0  0  0
   38.0640   24.2760   42.0560 H   0  0  0  0  0  0  0  0  0  0  0  0
   40.2410   24.5760   43.2930 H   0  0  0  0  0  0  0  0  0  0  0  0
   40.7680   26.8510   44.2250 H   0  0  0  0  0  0  0  0  0  0  0  0
   38.3690   30.6260   41.5520 O   0  0  0  0  0  0  0  0  0  0  0  0
   38.9520   30.6810   40.3000 C   0  0  0  0  0  0  0  0  0  0  0  0
   39.4340   29.7220   40.0390 H   0  0  0  0  0  0  0  0  0  0  0  0
   38.1370   30.8470   39.5710 H   0  0  0  0  0  0  0  0  0  0  0  0
   37.5870   33.2890   39.5830 Cl  0  0  0  0  0  0  0  0  0  0  0  0
   39.2890   33.0660   39.9470 C   0  0  0  0  0  0  0  0  0  0  0  0
   39.8800   31.8390   40.2740 C   0  0  0  0  0  0  0  0  0  0  0  0
   41.2320   31.7900   40.5410 C   0  0  0  0  0  0  0  0  0  0  0  0
   41.6350   30.8180   40.7870 H   0  0  0  0  0  0  0  0  0  0  0  0
   42.0280   32.9150   40.4970 C   0  0  0  0  0  0  0  0  0  0  0  0
   43.0840   32.8750   40.7040 H   0  0  0  0  0  0  0  0  0  0  0  0
   41.4910   34.1610   40.1770 C   0  0  0  0  0  3  0  0  0  0  0  0
   40.1340   34.1560   39.9190 C   0  0  0  0  0  3  0  0  0  0  0  0
  2  1  2  6  0  0  0
  2  3  1  0  0  0  0
  2 15  1  0  0  0  0
  2  5  1  0  0  0  0
  4  3  1  0  0  0  0
  5 10  1  0  0  0  0
  6  7  1  0  0  0  0
  7 13  1  0  0  0  0
  7  8  2  0  0  0  0
  8 14  1  0  0  0  0
  9  8  1  0  0  0  0
 10  9  2  0  0  0  0
 11  6  2  0  0  0  0
 11 10  1  0  0  0  0
 12  6  1  0  0  0  0
 16 15  1  0  0  0  0
 17 16  1  0  0  0  0
 18 16  1  0  0  0  0
 19 20  1  0  0  0  0
 20 21  1  0  0  0  0
 21 16  1  0  0  0  0
 21 22  2  0  0  0  0
 22 23  1  0  0  0  0
 24 22  1  0  0  0  0
 24 25  1  0  0  0  0
 26 24  2  0  0  0  0
 27 20  2  0  0  0  0
 27 26  1  0  0  0  0
M  END
>  <minimizedAffinity>
-4.73543692

$$$$

 OpenBabel03252505313D

 27 28  0  0  0  0  0  0  0  0999 V2000
   39.5040   33.1810   39.5640 O   0  0  0  0  0  0  0  0  0  0  0  0
   38.3320   32.3230   40.0690 P   0  0  1  0  0  0  0  0  0  0  0  0
   36.9580   33.2360   40.3500 O   0  0  0  0  0  0  0  0  0  0  0  0
   37.2150   34.1910   40.3580 H   0  0  0  0  0  0  0  0  0  0  0  0
   38.0640   31.1310   38.8840 O   0  0  0  0  0  0  0  0  0  0  0  0
   35.5290   29.1440   37.3810 C   0  0  0  0  0  0  0  0  0  0  0  0
   34.6420   28.8580   38.4370 C   0  0  0  0  0  0  0  0  0  0  0  0
   34.9650   29.3870   39.7020 C   0  0  0  0  0  0  0  0  0  0  0  0
   36.1060   30.1360   39.8170 N   0  0  0  0  0  0  0  0  0  0  0  0
   36.9150   30.3760   38.7630 C   0  0  0  0  0  0  0  0  0  0  0  0
   36.6260   29.8810   37.5520 N   0  0  0  0  0  0  0  0  0  0  0  0
   35.2860   28.7400   36.4060 H   0  0  0  0  0  0  0  0  0  0  0  0
   33.7550   28.2770   38.3550 H   0  0  0  0  0  0  0  0  0  0  0  0
   34.3680   29.2410   40.5960 H   0  0  0  0  0  0  0  0  0  0  0  0
   38.8370   31.6390   41.5360 O   0  0  0  0  0  0  0  0  0  0  0  0
   39.6130   30.5380   41.2280 C   0  0  0  0  0  0  0  0  0  0  0  0
   39.5770   30.3110   40.1480 H   0  0  0  0  0  0  0  0  0  0  0  0
   40.6590   30.8000   41.4730 H   0  0  0  0  0  0  0  0  0  0  0  0
   41.6270   28.2780   41.3530 Cl  0  0  0  0  0  0  0  0  0  0  0  0
   40.0770   28.3430   42.1730 C   0  0  0  0  0  0  0  0  0  0  0  0
   39.1730   29.4090   42.0860 C   0  0  0  0  0  0  0  0  0  0  0  0
   37.9820   29.3450   42.7780 C   0  0  0  0  0  0  0  0  0  0  0  0
   37.3240   30.1950   42.6770 H   0  0  0  0  0  0  0  0  0  0  0  0
   37.6480   28.2580   43.5590 C   0  0  0  0  0  0  0  0  0  0  0  0
   36.7170   28.2080   44.0980 H   0  0  0  0  0  0  0  0  0  0  0  0
   38.5100   27.1690   43.6790 C   0  0  0  0  0  3  0  0  0  0  0  0
   39.6870   27.2840   42.9670 C   0  0  0  0  0  3  0  0  0  0  0  0
  2  1  2  6  0  0  0
  2  3  1  0  0  0  0
  2 15  1  0  0  0  0
  3  4  1  0  0  0  0
  5  2  1  0  0  0  0
  6 11  2  0  0  0  0
  6  7  1  0  0  0  0
  7  8  2  0  0  0  0
  8  9  1  0  0  0  0
  8 14  1  0  0  0  0
 10  5  1  0  0  0  0
 10  9  2  0  0  0  0
 11 10  1  0  0  0  0
 12  6  1  0  0  0  0
 13  7  1  0  0  0  0
 16 18  1  0  0  0  0
 16 15  1  0  0  0  0
 16 21  1  0  0  0  0
 17 16  1  0  0  0  0
 19 20  1  0  0  0  0
 20 27  1  0  0  0  0
 21 20  2  0  0  0  0
 21 22  1  0  0  0  0
 22 24  2  0  0  0  0
 23 22  1  0  0  0  0
 24 26  1  0  0  0  0
 24 25  1  0  0  0  0
 27 26  2  0  0  0  0
M  END
>  <minimizedAffinity>
-4.70729256

$$$$

 OpenBabel03252505313D

 27 28  0  0  0  0  0  0  0  0999 V2000
   36.6460   30.9810   38.5310 O   0  0  0  0  0  0  0  0  0  0  0  0
   37.1370   31.1170   39.9820 P   0  0  1  0  0  0  0  0  0  0  0  0
   35.8760   31.3650   41.0540 O   0  0  0  0  0  0  0  0  0  0  0  0
   35.0690   31.6050   40.5340 H   0  0  0  0  0  0  0  0  0  0  0  0
   37.9910   29.6870   40.3360 O   0  0  0  0  0  0  0  0  0  0  0  0
   37.4450   28.6080   43.6790 C   0  0  0  0  0  0  0  0  0  0  0  0
   37.1910   27.2280   43.5600 C   0  0  0  0  0  0  0  0  0  0  0  0
   37.2180   26.6850   42.2600 C   0  0  0  0  0  0  0  0  0  0  0  0
   37.4850   27.5260   41.2130 N   0  0  0  0  0  0  0  0  0  0  0  0
   37.7210   28.8420   41.3940 C   0  0  0  0  0  0  0  0  0  0  0  0
   37.7010   29.3790   42.6220 N   0  0  0  0  0  0  0  0  0  0  0  0
   37.4270   29.0320   44.6750 H   0  0  0  0  0  0  0  0  0  0  0  0
   36.9830   26.5680   44.3680 H   0  0  0  0  0  0  0  0  0  0  0  0
   37.0390   25.6390   42.0310 H   0  0  0  0  0  0  0  0  0  0  0  0
   38.1530   32.4730   40.0190 O   0  0  0  0  0  0  0  0  0  0  0  0
   39.0870   32.2580   41.0150 C   0  0  0  0  0  0  0  0  0  0  0  0
   38.7460   32.6730   41.9800 H   0  0  0  0  0  0  0  0  0  0  0  0
   39.1780   31.1630   41.1430 H   0  0  0  0  0  0  0  0  0  0  0  0
   41.4460   31.2550   42.6290 Cl  0  0  0  0  0  0  0  0  0  0  0  0
   41.5040   32.3710   41.2770 C   0  0  0  0  0  0  0  0  0  0  0  0
   40.3860   32.8100   40.5570 C   0  0  0  0  0  0  0  0  0  0  0  0
   40.5590   33.6910   39.5100 C   0  0  0  0  0  0  0  0  0  0  0  0
   39.6630   33.9950   38.9900 H   0  0  0  0  0  0  0  0  0  0  0  0
   41.8040   34.1570   39.1440 C   0  0  0  0  0  0  0  0  0  0  0  0
   41.9380   34.8460   38.3270 H   0  0  0  0  0  0  0  0  0  0  0  0
   42.9500   33.7530   39.8270 C   0  0  0  0  0  3  0  0  0  0  0  0
   42.7230   32.8720   40.8660 C   0  0  0  0  0  3  0  0  0  0  0  0
  2  1  2  6  0  0  0
  2 15  1  0  0  0  0
  2  5  1  0  0  0  0
  2  3  1  0  0  0  0
  4  3  1  0  0  0  0
  5 10  1  0  0  0  0
  6 12  1  0  0  0  0
  7  6  1  0  0  0  0
  7 13  1  0  0  0  0
  8  7  2  0  0  0  0
  9 10  2  0  0  0  0
  9  8  1  0  0  0  0
 10 11  1  0  0  0  0
 11  6  2  0  0  0  0
 14  8  1  0  0  0  0
 15 16  1  0  0  0  0
 16 18  1  0  0  0  0
 16 17  1  0  0  0  0
 20 19  1  0  0  0  0
 21 16  1  0  0  0  0
 21 20  2  0  0  0  0
 22 21  1  0  0  0  0
 23 22  1  0  0  0  0
 24 22  2  0  0  0  0
 24 26  1  0  0  0  0
 25 24  1  0  0  0  0
 26 27  2  0  0  0  0
 27 20  1  0  0  0  0
M  END
>  <minimizedAffinity>
-4.64413071

$$$$
