
 OpenBabel03252502423D

 24 25  0  0  0  0  0  0  0  0999 V2000
   47.1710   34.1410   43.3970 C   0  0  0  0  0  0  0  0  0  0  0  0
   46.3620   33.3810   43.2730 H   0  0  0  0  0  0  0  0  0  0  0  0
   47.2560   34.5330   44.4070 H   0  0  0  0  0  0  0  0  0  0  0  0
   50.7370   33.5830   42.3450 C   0  0  0  0  0  0  0  0  0  0  0  0
   49.5470   34.2290   42.7100 C   0  0  0  0  0  0  0  0  0  0  0  0
   48.4260   33.4550   43.0080 C   0  0  0  0  0  0  0  0  0  0  0  0
   48.5510   32.1090   42.9270 N   0  0  0  0  0  0  0  0  0  0  0  0
   49.7110   31.5060   42.5710 C   0  0  0  0  0  0  0  0  0  0  0  0
   50.7900   32.2330   42.2830 N   0  0  0  0  0  0  0  0  0  0  0  0
   51.5210   34.3010   42.1400 H   0  0  0  0  0  0  0  0  0  0  0  0
   49.4440   35.3140   42.7780 H   0  0  0  0  0  0  0  0  0  0  0  0
   49.7420   30.4200   42.5250 H   0  0  0  0  0  0  0  0  0  0  0  0
   46.8700   35.2170   42.3800 C   0  0  0  0  0  0  0  0  0  0  0  0
   47.0230   36.2170   42.8330 H   0  0  0  0  0  0  0  0  0  0  0  0
   47.4790   35.1150   41.4680 H   0  0  0  0  0  0  0  0  0  0  0  0
   46.6910   33.6140   39.8840 Cl  0  0  0  0  0  0  0  0  0  0  0  0
   45.3400   34.2940   40.7940 C   0  0  0  0  0  0  0  0  0  0  0  0
   45.4520   35.0440   41.9690 C   0  0  0  0  0  0  0  0  0  0  0  0
   44.3060   35.5120   42.5770 C   0  0  0  0  0  0  0  0  0  0  0  0
   44.5080   36.0790   43.4760 H   0  0  0  0  0  0  0  0  0  0  0  0
   43.0750   35.2360   42.0220 C   0  0  0  0  0  0  0  0  0  0  0  0
   42.2130   35.6320   42.5460 H   0  0  0  0  0  0  0  0  0  0  0  0
   42.9760   34.4910   40.8560 C   0  0  0  0  0  3  0  0  0  0  0  0
   44.1120   34.0130   40.2330 C   0  0  0  0  0  3  0  0  0  0  0  0
  1  3  1  0  0  0  0
  2  1  1  0  0  0  0
  4  5  1  0  0  0  0
  5 11  1  0  0  0  0
  5  6  2  0  0  0  0
  6  1  1  0  0  0  0
  7  6  1  0  0  0  0
  8  7  2  0  0  0  0
  9  4  2  0  0  0  0
  9  8  1  0  0  0  0
 10  4  1  0  0  0  0
 12  8  1  0  0  0  0
 13 14  1  0  0  0  0
 13  1  1  0  0  0  0
 15 13  1  0  0  0  0
 16 17  1  0  0  0  0
 17 18  1  0  0  0  0
 18 13  1  0  0  0  0
 18 19  2  0  0  0  0
 19 20  1  0  0  0  0
 21 22  1  0  0  0  0
 21 19  1  0  0  0  0
 23 21  2  0  0  0  0
 24 17  2  0  0  0  0
 24 23  1  0  0  0  0
M  END
>  <minimizedAffinity>
-4.13629055

>  <minimizedRMSD>
5.24248075

$$$$
