REMARK  Name = 
REMARK  2 active torsions:
REMARK  status: ('A' for Active; 'I' for Inactive)
REMARK    1  A    between atoms: C_2  and  N_12
REMARK    2  A    between atoms: C_11  and  C_26
REMARK                            x       y       z     vdW  Elec       q    Type
REMARK                         _______ _______ _______ _____ _____    ______ ____
ROOT
ATOM      1  C   UNL     1      44.478  35.735  45.000  0.00  0.00    +0.000 A 
ATOM      2  C   UNL     1      45.113  35.707  43.759  0.00  0.00    +0.000 A 
ATOM      3  C   UNL     1      46.038  34.699  43.494  0.00  0.00    +0.000 A 
ATOM      4  N   UNL     1      46.257  33.797  44.486  0.00  0.00    +0.000 NA
ATOM      5  C   UNL     1      45.639  33.843  45.664  0.00  0.00    +0.000 A 
ATOM      6  N   UNL     1      44.751  34.800  45.936  0.00  0.00    +0.000 NA
ATOM      7  N   UNL     1      45.953  32.838  46.616  0.00  0.00    +0.000 N 
ATOM      8  C   UNL     1      45.163  32.575  47.830  0.00  0.00    +0.000 C 
ATOM      9  C   UNL     1      46.242  32.231  48.820  0.00  0.00    +0.000 C 
ATOM     10  C   UNL     1      47.514  32.035  48.042  0.00  0.00    +0.000 C 
ATOM     11  C   UNL     1      47.027  31.898  46.636  0.00  0.00    +0.000 C 
ATOM     12  H   UNL     1      43.742  36.463  45.328  0.00  0.00    +0.000 HD
ATOM     13  H   UNL     1      46.494  34.721  42.537  0.00  0.00    +0.000 HD
ATOM     14  H   UNL     1      44.471  31.719  47.656  0.00  0.00    +0.000 HD
ATOM     15  H   UNL     1      44.681  33.509  48.121  0.00  0.00    +0.000 HD
ATOM     16  H   UNL     1      46.323  32.969  49.641  0.00  0.00    +0.000 HD
ATOM     17  H   UNL     1      45.968  31.248  49.276  0.00  0.00    +0.000 HD
ATOM     18  H   UNL     1      48.082  33.009  48.088  0.00  0.00    +0.000 HD
ATOM     19  H   UNL     1      48.128  31.181  48.387  0.00  0.00    +0.000 HD
ATOM     20  H   UNL     1      46.532  30.883  46.566  0.00  0.00    +0.000 HD
ENDROOT
BRANCH  11  23
ATOM     21 CL   UNL     1      48.209  29.326  45.549  0.00  0.00    +0.000 Cl
ATOM     22  C   UNL     1      48.729  30.945  45.065  0.00  0.00    +0.000 A 
ATOM     23  C   UNL     1      48.083  32.046  45.639  0.00  0.00    +0.000 A 
ATOM     24  C   UNL     1      48.596  33.230  45.166  0.00  0.00    +0.000 A 
ATOM     25  H   UNL     1      48.177  34.167  45.554  0.00  0.00    +0.000 HD
ATOM     26  C   UNL     1      49.608  33.373  44.250  0.00  0.00    +0.000 A 
ATOM     27  H   UNL     1      49.959  34.343  43.925  0.00  0.00    +0.000 HD
ATOM     28  C   UNL     1      50.186  32.236  43.739  0.00  0.00    +0.000 A 
ATOM     29  C   UNL     1      49.741  31.012  44.151  0.00  0.00    +0.000 A 
ENDBRANCH  11  23
BRANCH   2  30
ATOM     30  N   UNL     1      44.733  36.754  42.845  0.00  0.00    +0.000 N 
ATOM     31  H   UNL     1      44.340  36.551  41.885  0.00  0.00    +0.000 HD
ATOM     32  H   UNL     1      44.825  37.775  43.078  0.00  0.00    +0.000 HD
ENDBRANCH   2  30
TORSDOF 2
