
     RDKit          3D

 26 27  0  0  0  0  0  0  0  0999 V2000
   47.2826   34.1870   43.2931 C   0  0  0  0  0  0  0  0  0  0  0  0
   46.6097   35.1714   42.5848 C   0  0  0  0  0  0  0  0  0  0  0  0
   45.3692   35.6495   43.0235 C   0  0  0  0  0  0  0  0  0  0  0  0
   44.8905   35.0909   44.1636 N   0  0  0  0  0  0  0  0  0  0  0  0
   45.5570   34.1300   44.8479 C   0  0  0  0  0  0  0  0  0  0  0  0
   46.7445   33.6780   44.4199 N   0  0  0  0  0  0  0  0  0  0  0  0
   48.5768   33.6690   42.8587 C   0  0  0  0  0  0  0  0  0  0  0  0
   49.5036   34.8211   42.5704 C   0  0  0  0  0  0  0  0  0  0  0  0
   47.0165   35.5976   41.6783 H   0  0  0  0  0  0  0  0  0  0  0  0
   44.8709   36.4063   42.4634 H   0  0  0  0  0  0  0  0  0  0  0  0
   45.1611   33.6921   45.7604 H   0  0  0  0  0  0  0  0  0  0  0  0
   48.4731   33.0220   41.9562 H   0  0  0  0  0  0  0  0  0  0  0  0
   49.0652   33.0609   43.6265 H   0  0  0  0  0  0  0  0  0  0  0  0
   49.0477   35.4762   41.7909 H   0  0  0  0  0  0  0  0  0  0  0  0
   49.6245   35.4437   43.4647 H   0  0  0  0  0  0  0  0  0  0  0  0
   49.9579   31.8704   42.4346 Cl  0  0  0  0  0  0  0  0  0  0  0  0
   51.1813   33.0449   42.0170 C   0  0  0  0  0  0  0  0  0  0  0  0
   50.8533   34.3800   42.1192 C   0  0  0  0  0  0  0  0  0  0  0  0
   51.8192   35.3158   41.7895 C   0  0  0  0  0  0  0  0  0  0  0  0
   51.6399   36.3713   41.8435 H   0  0  0  0  0  0  0  0  0  0  0  0
   53.0821   34.9171   41.3673 C   0  0  0  0  0  0  0  0  0  0  0  0
   53.8700   35.6278   41.0979 H   0  0  0  0  0  0  0  0  0  0  0  0
   53.4068   33.5596   41.2663 C   0  0  0  0  0  0  0  0  0  0  0  0
   52.4320   32.6436   41.5990 C   0  0  0  0  0  0  0  0  0  0  0  0
   54.3954   33.2748   40.9347 H   0  0  0  0  0  0  0  0  0  0  0  0
   52.6641   31.5884   41.5262 H   0  0  0  0  0  0  0  0  0  0  0  0
  1  6  2  0
  2  3  2  0
  2  1  1  0
  3  4  1  0
  4  5  2  0
  6  5  1  0
  7  1  1  0
  8  7  1  0
  2  9  1  0
  3 10  1  0
  5 11  1  0
  7 12  1  0
  7 13  1  0
  8 14  1  0
  8 15  1  0
 16 17  1  0
 17 18  2  0
 18 19  1  0
 19 20  1  0
 19 21  2  0
 21 22  1  0
 21 23  1  0
 23 24  2  0
 24 17  1  0
 23 25  1  0
 24 26  1  0
  8 18  1  0
M  ISO  8   9  14  10  14  11  14  12   8  13   8  14   8  15   8  20  15
M  ISO  1  22  16
M  END
>  <DihAtoms>  (1) 
6,7,17,16

>  <DihDeg>  (1) 
-76.18691677022112

$$$$
