
 OpenBabel03252507223D

 47 50  0  0  1  0  0  0  0  0999 V2000
   46.8050   32.8800   43.4500 C   0  0  0  0  0  0  0  0  0  0  0  0
   48.0650   32.9580   43.6020 O   0  0  0  0  0  0  0  0  0  0  0  0
   46.1780   31.8520   42.6990 N   0  0  0  0  0  0  0  0  0  0  0  0
   44.9880   31.0430   43.0040 C   0  0  0  0  0  0  0  0  0  0  0  0
   44.0330   31.1060   41.8160 C   0  0  0  0  0  0  0  0  0  0  0  0
   44.6500   30.4640   40.6190 C   0  0  0  0  0  0  0  0  0  0  0  0
   46.1360   30.2770   40.8490 C   0  0  0  0  0  0  0  0  0  0  0  0
   46.7630   31.5010   41.4290 C   0  0  2  0  0  0  0  0  0  0  0  0
   45.3080   30.0090   43.2390 H   0  0  0  0  0  0  0  0  0  0  0  0
   44.4620   31.4290   43.9090 H   0  0  0  0  0  0  0  0  0  0  0  0
   43.0360   30.7620   42.0660 H   0  0  0  0  0  0  0  0  0  0  0  0
   43.9440   32.2110   41.5990 H   0  0  0  0  0  0  0  0  0  0  0  0
   44.2260   29.4360   40.4820 H   0  0  0  0  0  0  0  0  0  0  0  0
   44.4810   31.0150   39.6760 H   0  0  0  0  0  0  0  0  0  0  0  0
   46.5650   30.1740   39.8080 H   0  0  0  0  0  0  0  0  0  0  0  0
   46.3670   29.3370   41.3710 H   0  0  0  0  0  0  0  0  0  0  0  0
   46.5290   32.3340   40.6990 H   0  0  0  0  0  0  0  0  0  0  0  0
   45.5360   34.9570   43.2690 C   0  0  0  0  0  0  0  0  0  0  0  0
   45.9850   33.8870   44.0740 C   0  0  0  0  0  0  0  0  0  0  0  0
   45.6360   33.8200   45.4160 C   0  0  0  0  0  0  0  0  0  0  0  0
   44.8590   34.8110   45.9090 N   0  0  0  0  0  0  0  0  0  0  0  0
   44.4150   35.8550   45.1460 C   0  0  0  0  0  0  0  0  0  0  0  0
   44.7660   35.9040   43.8400 N   0  0  0  0  0  0  0  0  0  0  0  0
   45.7870   35.0360   42.2400 H   0  0  0  0  0  0  0  0  0  0  0  0
   43.8140   36.5450   45.6910 H   0  0  0  0  0  0  0  0  0  0  0  0
   46.1180   32.7170   46.2030 C   0  0  0  0  0  0  0  0  0  0  0  0
   45.5220   31.5040   46.1380 C   0  0  0  0  0  0  0  0  0  0  0  0
   46.0080   30.4640   46.9040 C   0  0  0  0  0  0  0  0  0  0  0  0
   47.1010   30.6050   47.7560 C   0  0  0  0  0  0  0  0  0  0  0  0
   47.6820   31.8760   47.7900 C   0  0  0  0  0  0  0  0  0  0  0  0
   47.1800   32.8540   47.0320 N   0  0  0  0  0  0  0  0  0  0  0  0
   44.6730   31.2400   45.5350 H   0  0  0  0  0  0  0  0  0  0  0  0
   45.5940   29.4640   46.9130 H   0  0  0  0  0  0  0  0  0  0  0  0
   47.5230   29.8480   48.3710 H   0  0  0  0  0  0  0  0  0  0  0  0
   48.5390   32.1280   48.4080 H   0  0  0  0  0  0  0  0  0  0  0  0
   48.2490   31.3680   41.4490 C   0  0  0  0  0  0  0  0  0  0  0  0
   48.6280   30.3710   41.6610 H   0  0  0  0  0  0  0  0  0  0  0  0
   48.7650   32.1120   42.1290 H   0  0  0  0  0  0  0  0  0  0  0  0
   50.4840   29.7860   40.0450 Cl  0  0  0  0  0  0  0  0  0  0  0  0
   49.7070   31.2090   39.3840 C   0  0  0  0  0  0  0  0  0  0  0  0
   48.7110   31.8500   40.0890 C   0  0  0  0  0  0  0  0  0  0  0  0
   48.0770   32.9750   39.5890 C   0  0  0  0  0  0  0  0  0  0  0  0
   47.3030   33.4530   40.1620 H   0  0  0  0  0  0  0  0  0  0  0  0
   48.4130   33.5090   38.3620 C   0  0  0  0  0  0  0  0  0  0  0  0
   47.8810   34.3890   38.0270 H   0  0  0  0  0  0  0  0  0  0  0  0
   49.4090   32.8790   37.6430 C   0  0  0  0  0  3  0  0  0  0  0  0
   50.0400   31.7530   38.1500 C   0  0  0  0  0  3  0  0  0  0  0  0
  1  2  2  0  0  0  0
  1 19  1  0  0  0  0
  3  4  1  0  0  0  0
  3  1  1  0  0  0  0
  4  9  1  0  0  0  0
  4 10  1  0  0  0  0
  5 11  1  0  0  0  0
  5  4  1  0  0  0  0
  6  7  1  0  0  0  0
  6  5  1  0  0  0  0
  7 16  1  0  0  0  0
  7  8  1  0  0  0  0
  8 17  1  6  0  0  0
  8 36  1  0  0  0  0
  8  3  1  0  0  0  0
 12  5  1  0  0  0  0
 13  6  1  0  0  0  0
 14  6  1  0  0  0  0
 15  7  1  0  0  0  0
 18 23  2  0  0  0  0
 18 19  1  0  0  0  0
 19 20  2  0  0  0  0
 20 21  1  0  0  0  0
 20 26  1  0  0  0  0
 22 25  1  0  0  0  0
 22 21  2  0  0  0  0
 23 22  1  0  0  0  0
 24 18  1  0  0  0  0
 26 31  1  0  0  0  0
 27 26  2  0  0  0  0
 27 28  1  0  0  0  0
 28 33  1  0  0  0  0
 28 29  2  0  0  0  0
 29 30  1  0  0  0  0
 29 34  1  0  0  0  0
 30 35  1  0  0  0  0
 31 30  2  0  0  0  0
 32 27  1  0  0  0  0
 36 37  1  0  0  0  0
 36 38  1  0  0  0  0
 40 39  1  0  0  0  0
 40 41  1  0  0  0  0
 41 36  1  0  0  0  0
 42 41  2  0  0  0  0
 42 43  1  0  0  0  0
 44 42  1  0  0  0  0
 45 44  1  0  0  0  0
 46 47  1  0  0  0  0
 46 44  2  0  0  0  0
 47 40  2  0  0  0  0
M  END
>  <minimizedAffinity>
-4.7657423

>  <minimizedRMSD>
2.13941836

$$$$
