
 OpenBabel03242518523D

 39 41  0  0  1  0  0  0  0  0999 V2000
   46.7910   32.1930   47.0060 C   0  0  1  0  0  0  0  0  0  0  0  0
   47.4700   32.0750   48.2450 C   0  0  0  0  0  0  0  0  0  0  0  0
   48.4970   31.0090   48.1840 C   0  0  0  0  0  0  0  0  0  0  0  0
   48.0430   29.8490   47.4280 C   0  0  0  0  0  0  0  0  0  0  0  0
   47.9410   30.2950   45.9970 C   0  0  0  0  0  0  0  0  0  0  0  0
   46.7590   31.1780   45.9640 C   0  0  1  0  0  0  0  0  0  0  0  0
   47.4760   32.9650   46.4480 H   0  0  0  0  0  0  0  0  0  0  0  0
   46.9380   31.9780   49.2170 H   0  0  0  0  0  0  0  0  0  0  0  0
   48.1040   32.9910   48.5300 H   0  0  0  0  0  0  0  0  0  0  0  0
   49.4370   31.3820   47.7350 H   0  0  0  0  0  0  0  0  0  0  0  0
   48.7680   30.6780   49.2200 H   0  0  0  0  0  0  0  0  0  0  0  0
   48.9410   29.1440   47.3980 H   0  0  0  0  0  0  0  0  0  0  0  0
   47.2560   29.2140   47.8060 H   0  0  0  0  0  0  0  0  0  0  0  0
   48.9470   30.7620   45.8390 H   0  0  0  0  0  0  0  0  0  0  0  0
   47.9170   29.3910   45.4050 H   0  0  0  0  0  0  0  0  0  0  0  0
   47.0890   31.4660   44.9510 H   0  0  0  0  0  0  0  0  0  0  0  0
   45.1250   29.9390   48.4320 Cl  0  0  0  0  0  0  0  0  0  0  0  0
   44.9170   29.5660   46.7770 C   0  0  0  0  0  0  0  0  0  0  0  0
   45.6830   30.1850   45.8550 C   0  0  0  0  0  0  0  0  0  0  0  0
   45.3910   29.7580   44.5510 C   0  0  0  0  0  0  0  0  0  0  0  0
   45.8930   30.1080   43.6860 H   0  0  0  0  0  0  0  0  0  0  0  0
   44.4350   28.8190   44.2400 C   0  0  0  0  0  0  0  0  0  0  0  0
   44.2160   28.4950   43.2300 H   0  0  0  0  0  0  0  0  0  0  0  0
   43.6920   28.2290   45.2260 C   0  0  0  0  0  0  0  0  0  0  0  0
   43.9490   28.6200   46.5210 C   0  0  0  0  0  0  0  0  0  0  0  0
   45.6180   33.0750   46.9820 C   0  0  0  0  0  0  0  0  0  0  0  0
   44.7270   33.1780   47.8450 O   0  0  0  0  0  0  0  0  0  0  0  0
   44.5960   35.7600   44.7030 C   0  0  0  0  0  0  0  0  0  0  0  0
   45.4170   35.5710   43.5600 C   0  0  0  0  0  0  0  0  0  0  0  0
   46.2950   34.4890   43.6180 C   0  0  0  0  0  0  0  0  0  0  0  0
   46.2670   33.7570   44.7380 N   0  0  0  0  0  0  0  0  0  0  0  0
   45.5100   33.9270   45.8020 C   0  0  0  0  0  0  0  0  0  0  0  0
   44.6410   34.9790   45.7640 N   0  0  0  0  0  0  0  0  0  0  0  0
   43.9080   36.5800   44.6910 H   0  0  0  0  0  0  0  0  0  0  0  0
   45.3900   36.2030   42.6840 H   0  0  0  0  0  0  0  0  0  0  0  0
   47.1530   34.2770   42.4500 C   0  0  0  0  0  0  0  0  0  0  0  0
   48.3840   33.7740   42.8380 F   0  0  0  0  0  0  0  0  0  0  0  0
   47.4920   35.5540   42.0190 F   0  0  0  0  0  0  0  0  0  0  0  0
   46.5910   33.5320   41.4760 F   0  0  0  0  0  0  0  0  0  0  0  0
  1  7  1  6  0  0  0
  1  2  1  0  0  0  0
  2  9  1  0  0  0  0
  2  8  1  0  0  0  0
  3  2  1  0  0  0  0
  3 11  1  0  0  0  0
  4 13  1  0  0  0  0
  4  3  1  0  0  0  0
  5  4  1  0  0  0  0
  6 16  1  6  0  0  0
  6  5  1  0  0  0  0
  6  1  1  0  0  0  0
 10  3  1  0  0  0  0
 12  4  1  0  0  0  0
 14  5  1  0  0  0  0
 15  5  1  0  0  0  0
 18 17  1  0  0  0  0
 19  6  1  0  0  0  0
 19 18  2  0  0  0  0
 20 19  1  0  0  0  0
 21 20  1  0  0  0  0
 22 20  2  0  0  0  0
 22 24  1  0  0  0  0
 23 22  1  0  0  0  0
 24 25  2  0  0  0  0
 25 18  1  0  0  0  0
 26  1  1  0  0  0  0
 26 27  2  0  0  0  0
 28 33  1  0  0  0  0
 29 30  1  0  0  0  0
 29 28  2  0  0  0  0
 30 31  2  0  0  0  0
 31 32  1  0  0  0  0
 32 26  1  0  0  0  0
 33 32  2  0  0  0  0
 34 28  1  0  0  0  0
 35 29  1  0  0  0  0
 36 37  1  0  0  0  0
 36 30  1  0  0  0  0
 38 36  1  0  0  0  0
 39 36  1  0  0  0  0
M  END
>  <minimizedAffinity>
-6.09709311

>  <minimizedRMSD>
1.67053533

$$$$
