
 OpenBabel03242515413D

 36 39  0  0  0  0  0  0  0  0999 V2000
   36.5040   28.9130   41.5430 C   0  0  0  0  0  0  0  0  0  0  0  0
   35.8490   28.4900   40.4180 C   0  0  0  0  0  0  0  0  0  0  0  0
   35.7220   29.3750   39.3510 C   0  0  0  0  0  0  0  0  0  0  0  0
   36.2650   30.6130   39.5010 N   0  0  0  0  0  0  0  0  0  0  0  0
   36.9020   31.0020   40.6150 C   0  0  0  0  0  0  0  0  0  0  0  0
   36.9990   30.1330   41.6000 N   0  0  0  0  0  0  0  0  0  0  0  0
   35.4610   27.5230   40.3490 H   0  0  0  0  0  0  0  0  0  0  0  0
   37.3550   29.2790   36.6450 Cl  0  0  0  0  0  0  0  0  0  0  0  0
   35.6370   29.0670   36.8250 C   0  0  0  0  0  0  0  0  0  0  0  0
   35.0940   29.1370   38.0800 C   0  0  0  0  0  0  0  0  0  0  0  0
   33.7330   28.9180   38.0500 C   0  0  0  0  0  0  0  0  0  0  0  0
   33.0960   28.9280   38.9510 H   0  0  0  0  0  0  0  0  0  0  0  0
   33.0060   28.6630   36.9100 C   0  0  0  0  0  0  0  0  0  0  0  0
   31.9420   28.4980   36.9230 H   0  0  0  0  0  0  0  0  0  0  0  0
   33.6180   28.6090   35.6810 C   0  0  0  0  0  3  0  0  0  0  0  0
   34.9790   28.8190   35.6480 C   0  0  0  0  0  3  0  0  0  0  0  0
   36.6310   27.7130   42.8890 S   0  0  0  0  0  0  0  0  0  0  0  0
   38.1750   25.6060   42.2450 C   0  0  0  0  0  0  0  0  0  0  0  0
   38.1880   26.8610   42.8320 C   0  0  0  0  0  0  0  0  0  0  0  0
   39.3640   27.3870   43.3340 C   0  0  0  0  0  0  0  0  0  0  0  0
   40.5640   26.6990   43.2760 C   0  0  0  0  0  0  0  0  0  0  0  0
   40.5420   25.4360   42.6820 C   0  0  0  0  0  0  0  0  0  0  0  0
   39.3690   24.8720   42.1630 C   0  0  0  0  0  0  0  0  0  0  0  0
   41.8530   24.9110   42.7230 O   0  0  0  0  0  0  0  0  0  0  0  0
   42.5480   25.7250   43.6430 C   0  0  0  0  0  0  0  0  0  0  0  0
   41.8610   26.9580   43.6790 O   0  0  0  0  0  0  0  0  0  0  0  0
   37.3130   25.1080   41.8240 H   0  0  0  0  0  0  0  0  0  0  0  0
   39.3330   28.3730   43.7870 H   0  0  0  0  0  0  0  0  0  0  0  0
   39.3900   23.8900   41.7100 H   0  0  0  0  0  0  0  0  0  0  0  0
   42.7140   25.2710   44.6270 H   0  0  0  0  0  0  0  0  0  0  0  0
   43.5390   25.9430   43.1680 H   0  0  0  0  0  0  0  0  0  0  0  0
   37.4610   32.2420   40.7980 O   0  0  0  0  0  0  0  0  0  0  0  0
   38.8220   32.4380   40.5640 C   0  0  0  0  0  0  0  0  0  0  0  0
   39.3480   31.5630   39.6690 F   0  0  0  0  0  0  0  0  0  0  0  0
   38.9350   33.7830   40.1650 F   0  0  0  0  0  0  0  0  0  0  0  0
   39.4770   32.2430   41.7770 F   0  0  0  0  0  0  0  0  0  0  0  0
  1  6  1  0  0  0  0
  1 17  1  0  0  0  0
  2  1  2  0  0  0  0
  3  4  2  0  0  0  0
  3  2  1  0  0  0  0
  4  5  1  0  0  0  0
  5 32  1  0  0  0  0
  5  6  2  0  0  0  0
  7  2  1  0  0  0  0
  8  9  1  0  0  0  0
  9 10  1  0  0  0  0
 10  3  1  0  0  0  0
 11 10  2  0  0  0  0
 11 12  1  0  0  0  0
 13 14  1  0  0  0  0
 13 11  1  0  0  0  0
 15 13  2  0  0  0  0
 16 15  1  0  0  0  0
 16  9  2  0  0  0  0
 18 19  1  0  0  0  0
 19 17  1  0  0  0  0
 19 20  2  0  0  0  0
 20 28  1  0  0  0  0
 21 20  1  0  0  0  0
 21 26  1  0  0  0  0
 22 24  1  0  0  0  0
 22 21  2  0  0  0  0
 23 18  2  0  0  0  0
 23 22  1  0  0  0  0
 24 25  1  0  0  0  0
 25 26  1  0  0  0  0
 25 30  1  0  0  0  0
 27 18  1  0  0  0  0
 29 23  1  0  0  0  0
 31 25  1  0  0  0  0
 33 32  1  0  0  0  0
 33 36  1  0  0  0  0
 34 33  1  0  0  0  0
 35 33  1  0  0  0  0
M  END
>  <minimizedAffinity>
-6.12628365

$$$$

 OpenBabel03242515413D

 36 39  0  0  0  0  0  0  0  0999 V2000
   35.2160   28.4790   37.3680 C   0  0  0  0  0  0  0  0  0  0  0  0
   35.4660   27.3540   38.1070 C   0  0  0  0  0  0  0  0  0  0  0  0
   36.3460   27.4480   39.1820 C   0  0  0  0  0  0  0  0  0  0  0  0
   36.9020   28.6650   39.4270 N   0  0  0  0  0  0  0  0  0  0  0  0
   36.6390   29.7510   38.6870 C   0  0  0  0  0  0  0  0  0  0  0  0
   35.8010   29.6180   37.6790 N   0  0  0  0  0  0  0  0  0  0  0  0
   35.0020   26.4460   37.8840 H   0  0  0  0  0  0  0  0  0  0  0  0
   36.5200   27.9080   42.3060 Cl  0  0  0  0  0  0  0  0  0  0  0  0
   36.8670   26.4290   41.4570 C   0  0  0  0  0  0  0  0  0  0  0  0
   36.7350   26.4070   40.0940 C   0  0  0  0  0  0  0  0  0  0  0  0
   37.0160   25.1560   39.5840 C   0  0  0  0  0  0  0  0  0  0  0  0
   36.9710   24.9150   38.5080 H   0  0  0  0  0  0  0  0  0  0  0  0
   37.3850   24.0670   40.3390 C   0  0  0  0  0  0  0  0  0  0  0  0
   37.5990   23.1050   39.9070 H   0  0  0  0  0  0  0  0  0  0  0  0
   37.5000   24.1630   41.7050 C   0  0  0  0  0  3  0  0  0  0  0  0
   37.2290   25.3880   42.2730 C   0  0  0  0  0  3  0  0  0  0  0  0
   34.0660   28.2840   35.9870 S   0  0  0  0  0  0  0  0  0  0  0  0
   32.2540   30.0540   35.0810 C   0  0  0  0  0  0  0  0  0  0  0  0
   32.6450   29.3280   36.1960 C   0  0  0  0  0  0  0  0  0  0  0  0
   31.9460   29.4370   37.3830 C   0  0  0  0  0  0  0  0  0  0  0  0
   30.8400   30.2600   37.5150 C   0  0  0  0  0  0  0  0  0  0  0  0
   30.4530   30.9870   36.3880 C   0  0  0  0  0  0  0  0  0  0  0  0
   31.1380   30.9020   35.1700 C   0  0  0  0  0  0  0  0  0  0  0  0
   29.3180   31.7540   36.7330 O   0  0  0  0  0  0  0  0  0  0  0  0
   29.2670   31.7270   38.1430 C   0  0  0  0  0  0  0  0  0  0  0  0
   29.9650   30.5660   38.5430 O   0  0  0  0  0  0  0  0  0  0  0  0
   32.7310   30.0400   34.1120 H   0  0  0  0  0  0  0  0  0  0  0  0
   32.2830   28.8530   38.2320 H   0  0  0  0  0  0  0  0  0  0  0  0
   30.8080   31.4800   34.3170 H   0  0  0  0  0  0  0  0  0  0  0  0
   29.6010   32.6470   38.6350 H   0  0  0  0  0  0  0  0  0  0  0  0
   28.1930   31.5400   38.4050 H   0  0  0  0  0  0  0  0  0  0  0  0
   37.1820   30.9920   38.9080 O   0  0  0  0  0  0  0  0  0  0  0  0
   37.0400   31.6070   40.1530 C   0  0  0  0  0  0  0  0  0  0  0  0
   35.9120   31.2370   40.8130 F   0  0  0  0  0  0  0  0  0  0  0  0
   38.2230   31.2980   40.8500 F   0  0  0  0  0  0  0  0  0  0  0  0
   36.9640   32.9780   39.9250 F   0  0  0  0  0  0  0  0  0  0  0  0
  1  6  2  0  0  0  0
  1  2  1  0  0  0  0
  2  3  2  0  0  0  0
  3  4  1  0  0  0  0
  3 10  1  0  0  0  0
  5 32  1  0  0  0  0
  5  4  2  0  0  0  0
  6  5  1  0  0  0  0
  7  2  1  0  0  0  0
  9 16  1  0  0  0  0
  9  8  1  0  0  0  0
 10  9  2  0  0  0  0
 11 10  1  0  0  0  0
 11 13  2  0  0  0  0
 12 11  1  0  0  0  0
 13 15  1  0  0  0  0
 14 13  1  0  0  0  0
 15 16  2  0  0  0  0
 17 19  1  0  0  0  0
 17  1  1  0  0  0  0
 18 23  2  0  0  0  0
 18 19  1  0  0  0  0
 19 20  2  0  0  0  0
 20 21  1  0  0  0  0
 20 28  1  0  0  0  0
 21 26  1  0  0  0  0
 22 24  1  0  0  0  0
 22 21  2  0  0  0  0
 23 22  1  0  0  0  0
 24 25  1  0  0  0  0
 25 31  1  0  0  0  0
 25 26  1  0  0  0  0
 25 30  1  0  0  0  0
 27 18  1  0  0  0  0
 29 23  1  0  0  0  0
 32 33  1  0  0  0  0
 33 34  1  0  0  0  0
 33 35  1  0  0  0  0
 36 33  1  0  0  0  0
M  END
>  <minimizedAffinity>
-6.09520674

$$$$

 OpenBabel03242515413D

 36 39  0  0  0  0  0  0  0  0999 V2000
   36.7010   28.9260   41.5140 C   0  0  0  0  0  0  0  0  0  0  0  0
   36.0310   28.4840   40.4050 C   0  0  0  0  0  0  0  0  0  0  0  0
   35.7870   29.3860   39.3730 C   0  0  0  0  0  0  0  0  0  0  0  0
   36.2370   30.6590   39.5390 N   0  0  0  0  0  0  0  0  0  0  0  0
   36.8920   31.0650   40.6360 C   0  0  0  0  0  0  0  0  0  0  0  0
   37.1010   30.1800   41.5880 N   0  0  0  0  0  0  0  0  0  0  0  0
   35.7170   27.4920   40.3220 H   0  0  0  0  0  0  0  0  0  0  0  0
   37.3330   29.3060   36.6160 Cl  0  0  0  0  0  0  0  0  0  0  0  0
   35.6250   29.0700   36.8520 C   0  0  0  0  0  0  0  0  0  0  0  0
   35.1220   29.1350   38.1240 C   0  0  0  0  0  0  0  0  0  0  0  0
   33.7640   28.8940   38.1370 C   0  0  0  0  0  0  0  0  0  0  0  0
   33.1560   28.8980   39.0580 H   0  0  0  0  0  0  0  0  0  0  0  0
   33.0040   28.6260   37.0220 C   0  0  0  0  0  0  0  0  0  0  0  0
   31.9440   28.4440   37.0690 H   0  0  0  0  0  0  0  0  0  0  0  0
   33.5780   28.5770   35.7750 C   0  0  0  0  0  3  0  0  0  0  0  0
   34.9330   28.8070   35.6970 C   0  0  0  0  0  3  0  0  0  0  0  0
   36.9820   27.7020   42.8140 S   0  0  0  0  0  0  0  0  0  0  0  0
   38.8400   25.8240   42.3070 C   0  0  0  0  0  0  0  0  0  0  0  0
   37.5060   26.1530   42.1220 C   0  0  0  0  0  0  0  0  0  0  0  0
   36.6630   25.3010   41.4350 C   0  0  0  0  0  0  0  0  0  0  0  0
   37.1000   24.0980   40.9060 C   0  0  0  0  0  0  0  0  0  0  0  0
   38.4450   23.7740   41.0970 C   0  0  0  0  0  0  0  0  0  0  0  0
   39.3270   24.6130   41.7880 C   0  0  0  0  0  0  0  0  0  0  0  0
   38.6820   22.5210   40.4880 O   0  0  0  0  0  0  0  0  0  0  0  0
   37.5630   22.2950   39.6580 C   0  0  0  0  0  0  0  0  0  0  0  0
   36.5100   23.0700   40.1930 O   0  0  0  0  0  0  0  0  0  0  0  0
   39.5770   26.4180   42.8270 H   0  0  0  0  0  0  0  0  0  0  0  0
   35.6260   25.5940   41.3110 H   0  0  0  0  0  0  0  0  0  0  0  0
   40.3640   24.3290   41.9170 H   0  0  0  0  0  0  0  0  0  0  0  0
   37.7420   22.4530   38.5890 H   0  0  0  0  0  0  0  0  0  0  0  0
   37.2700   21.2270   39.8270 H   0  0  0  0  0  0  0  0  0  0  0  0
   37.3600   32.3400   40.8340 O   0  0  0  0  0  0  0  0  0  0  0  0
   37.9540   33.0400   39.7820 C   0  0  0  0  0  0  0  0  0  0  0  0
   38.6620   32.2450   38.9380 F   0  0  0  0  0  0  0  0  0  0  0  0
   36.8960   33.7220   39.1530 F   0  0  0  0  0  0  0  0  0  0  0  0
   38.8420   33.9500   40.3470 F   0  0  0  0  0  0  0  0  0  0  0  0
  1  6  1  0  0  0  0
  1 17  1  0  0  0  0
  2  1  2  0  0  0  0
  3  4  2  0  0  0  0
  3  2  1  0  0  0  0
  4  5  1  0  0  0  0
  5 32  1  0  0  0  0
  5  6  2  0  0  0  0
  7  2  1  0  0  0  0
  8  9  1  0  0  0  0
  9 10  1  0  0  0  0
 10 11  2  0  0  0  0
 10  3  1  0  0  0  0
 11 12  1  0  0  0  0
 13 14  1  0  0  0  0
 13 11  1  0  0  0  0
 15 13  2  0  0  0  0
 16 15  1  0  0  0  0
 16  9  2  0  0  0  0
 18 27  1  0  0  0  0
 19 18  1  0  0  0  0
 19 17  1  0  0  0  0
 20 19  2  0  0  0  0
 21 22  2  0  0  0  0
 21 20  1  0  0  0  0
 22 23  1  0  0  0  0
 23 29  1  0  0  0  0
 23 18  2  0  0  0  0
 24 22  1  0  0  0  0
 25 31  1  0  0  0  0
 25 26  1  0  0  0  0
 25 24  1  0  0  0  0
 26 21  1  0  0  0  0
 28 20  1  0  0  0  0
 30 25  1  0  0  0  0
 33 36  1  0  0  0  0
 33 32  1  0  0  0  0
 34 33  1  0  0  0  0
 35 33  1  0  0  0  0
M  END
>  <minimizedAffinity>
-6.07459497

$$$$

 OpenBabel03242515413D

 36 39  0  0  0  0  0  0  0  0999 V2000
   35.0540   28.3840   37.0330 C   0  0  0  0  0  0  0  0  0  0  0  0
   35.2450   27.3320   37.8870 C   0  0  0  0  0  0  0  0  0  0  0  0
   36.1540   27.4810   38.9310 C   0  0  0  0  0  0  0  0  0  0  0  0
   36.7970   28.6750   39.0320 N   0  0  0  0  0  0  0  0  0  0  0  0
   36.5900   29.6910   38.1800 C   0  0  0  0  0  0  0  0  0  0  0  0
   35.7220   29.5070   37.2070 N   0  0  0  0  0  0  0  0  0  0  0  0
   34.7150   26.4400   37.7730 H   0  0  0  0  0  0  0  0  0  0  0  0
   36.0870   24.3630   38.4060 Cl  0  0  0  0  0  0  0  0  0  0  0  0
   36.5150   25.1530   39.8970 C   0  0  0  0  0  0  0  0  0  0  0  0
   36.4930   26.5210   39.9460 C   0  0  0  0  0  0  0  0  0  0  0  0
   36.8870   26.9840   41.1840 C   0  0  0  0  0  0  0  0  0  0  0  0
   36.9420   28.0550   41.4420 H   0  0  0  0  0  0  0  0  0  0  0  0
   37.2530   26.1820   42.2400 C   0  0  0  0  0  0  0  0  0  0  0  0
   37.5540   26.5780   43.1950 H   0  0  0  0  0  0  0  0  0  0  0  0
   37.2490   24.8130   42.1190 C   0  0  0  0  0  3  0  0  0  0  0  0
   36.8670   24.2910   40.9040 C   0  0  0  0  0  3  0  0  0  0  0  0
   33.8600   28.1210   35.7010 S   0  0  0  0  0  0  0  0  0  0  0  0
   31.9450   29.5440   36.9430 C   0  0  0  0  0  0  0  0  0  0  0  0
   32.5940   29.3660   35.7310 C   0  0  0  0  0  0  0  0  0  0  0  0
   32.2490   30.1300   34.6320 C   0  0  0  0  0  0  0  0  0  0  0  0
   31.2560   31.0940   34.6870 C   0  0  0  0  0  0  0  0  0  0  0  0
   30.6080   31.2680   35.9110 C   0  0  0  0  0  0  0  0  0  0  0  0
   30.9320   30.5110   37.0450 C   0  0  0  0  0  0  0  0  0  0  0  0
   29.6430   32.2870   35.7530 O   0  0  0  0  0  0  0  0  0  0  0  0
   29.5060   32.4540   34.3580 C   0  0  0  0  0  0  0  0  0  0  0  0
   30.7080   31.9870   33.7830 O   0  0  0  0  0  0  0  0  0  0  0  0
   32.1390   29.0010   37.8570 H   0  0  0  0  0  0  0  0  0  0  0  0
   32.7800   29.9610   33.7020 H   0  0  0  0  0  0  0  0  0  0  0  0
   30.4080   30.6740   37.9770 H   0  0  0  0  0  0  0  0  0  0  0  0
   28.5990   32.0140   33.9280 H   0  0  0  0  0  0  0  0  0  0  0  0
   29.4950   33.5610   34.1840 H   0  0  0  0  0  0  0  0  0  0  0  0
   37.2210   30.9070   38.2540 O   0  0  0  0  0  0  0  0  0  0  0  0
   37.1260   31.6760   39.4150 C   0  0  0  0  0  0  0  0  0  0  0  0
   36.0930   31.3140   40.2190 F   0  0  0  0  0  0  0  0  0  0  0  0
   38.3840   31.5620   40.0340 F   0  0  0  0  0  0  0  0  0  0  0  0
   36.9070   32.9920   39.0160 F   0  0  0  0  0  0  0  0  0  0  0  0
  1  6  2  0  0  0  0
  1  2  1  0  0  0  0
  2  3  2  0  0  0  0
  3  4  1  0  0  0  0
  3 10  1  0  0  0  0
  5 32  1  0  0  0  0
  5  4  2  0  0  0  0
  6  5  1  0  0  0  0
  7  2  1  0  0  0  0
  8  9  1  0  0  0  0
  9 10  2  0  0  0  0
  9 16  1  0  0  0  0
 10 11  1  0  0  0  0
 11 12  1  0  0  0  0
 11 13  2  0  0  0  0
 13 14  1  0  0  0  0
 15 13  1  0  0  0  0
 16 15  2  0  0  0  0
 17 19  1  0  0  0  0
 17  1  1  0  0  0  0
 18 23  1  0  0  0  0
 18 27  1  0  0  0  0
 19 18  2  0  0  0  0
 20 21  2  0  0  0  0
 20 19  1  0  0  0  0
 21 22  1  0  0  0  0
 22 23  2  0  0  0  0
 23 29  1  0  0  0  0
 24 22  1  0  0  0  0
 25 24  1  0  0  0  0
 26 25  1  0  0  0  0
 26 21  1  0  0  0  0
 28 20  1  0  0  0  0
 30 25  1  0  0  0  0
 31 25  1  0  0  0  0
 32 33  1  0  0  0  0
 33 35  1  0  0  0  0
 33 34  1  0  0  0  0
 36 33  1  0  0  0  0
M  END
>  <minimizedAffinity>
-5.96867752

$$$$

 OpenBabel03242515413D

 36 39  0  0  0  0  0  0  0  0999 V2000
   38.2110   31.4580   40.1850 C   0  0  0  0  0  0  0  0  0  0  0  0
   37.4170   31.2910   39.0830 C   0  0  0  0  0  0  0  0  0  0  0  0
   36.8720   30.0340   38.8410 C   0  0  0  0  0  0  0  0  0  0  0  0
   37.1680   29.0450   39.7270 N   0  0  0  0  0  0  0  0  0  0  0  0
   37.9480   29.2360   40.8010 C   0  0  0  0  0  0  0  0  0  0  0  0
   38.4440   30.4420   40.9920 N   0  0  0  0  0  0  0  0  0  0  0  0
   37.2100   32.0880   38.4400 H   0  0  0  0  0  0  0  0  0  0  0  0
   33.8750   29.1410   39.3120 Cl  0  0  0  0  0  0  0  0  0  0  0  0
   34.7000   29.2290   37.7820 C   0  0  0  0  0  0  0  0  0  0  0  0
   36.0050   29.6430   37.7620 C   0  0  0  0  0  0  0  0  0  0  0  0
   36.4970   29.6860   36.4740 C   0  0  0  0  0  0  0  0  0  0  0  0
   37.5280   29.9930   36.2280 H   0  0  0  0  0  0  0  0  0  0  0  0
   35.7770   29.3560   35.3500 C   0  0  0  0  0  0  0  0  0  0  0  0
   36.1940   29.4000   34.3580 H   0  0  0  0  0  0  0  0  0  0  0  0
   34.4690   28.9460   35.4460 C   0  0  0  0  0  3  0  0  0  0  0  0
   33.9220   28.8850   36.7080 C   0  0  0  0  0  3  0  0  0  0  0  0
   38.8860   33.1160   40.4380 S   0  0  0  0  0  0  0  0  0  0  0  0
   41.4180   32.5730   41.1640 C   0  0  0  0  0  0  0  0  0  0  0  0
   40.6400   33.1330   40.1630 C   0  0  0  0  0  0  0  0  0  0  0  0
   41.2300   33.6650   39.0320 C   0  0  0  0  0  0  0  0  0  0  0  0
   42.6020   33.6640   38.8460 C   0  0  0  0  0  0  0  0  0  0  0  0
   43.3790   33.0980   39.8580 C   0  0  0  0  0  0  0  0  0  0  0  0
   42.8150   32.5490   41.0170 C   0  0  0  0  0  0  0  0  0  0  0  0
   44.7350   33.1970   39.4750 O   0  0  0  0  0  0  0  0  0  0  0  0
   44.7520   34.1230   38.4110 C   0  0  0  0  0  0  0  0  0  0  0  0
   43.4550   34.1080   37.8510 O   0  0  0  0  0  0  0  0  0  0  0  0
   41.0570   32.1330   42.0820 H   0  0  0  0  0  0  0  0  0  0  0  0
   40.5870   34.0950   38.2720 H   0  0  0  0  0  0  0  0  0  0  0  0
   43.4480   32.1180   41.7810 H   0  0  0  0  0  0  0  0  0  0  0  0
   45.1190   35.1210   38.6740 H   0  0  0  0  0  0  0  0  0  0  0  0
   45.4240   33.6790   37.6320 H   0  0  0  0  0  0  0  0  0  0  0  0
   38.2660   28.2620   41.7130 O   0  0  0  0  0  0  0  0  0  0  0  0
   37.4020   27.9880   42.7750 C   0  0  0  0  0  0  0  0  0  0  0  0
   36.0990   27.9010   42.4020 F   0  0  0  0  0  0  0  0  0  0  0  0
   37.8990   26.8070   43.3560 F   0  0  0  0  0  0  0  0  0  0  0  0
   37.5120   29.0460   43.6740 F   0  0  0  0  0  0  0  0  0  0  0  0
  1 17  1  0  0  0  0
  1  6  1  0  0  0  0
  2  1  2  0  0  0  0
  3  2  1  0  0  0  0
  3  4  2  0  0  0  0
  4  5  1  0  0  0  0
  5  6  2  0  0  0  0
  5 32  1  0  0  0  0
  7  2  1  0  0  0  0
  9  8  1  0  0  0  0
 10  9  1  0  0  0  0
 10  3  1  0  0  0  0
 11 10  2  0  0  0  0
 12 11  1  0  0  0  0
 13 15  2  0  0  0  0
 13 11  1  0  0  0  0
 14 13  1  0  0  0  0
 15 16  1  0  0  0  0
 16  9  2  0  0  0  0
 18 27  1  0  0  0  0
 19 17  1  0  0  0  0
 19 18  2  0  0  0  0
 20 19  1  0  0  0  0
 21 20  2  0  0  0  0
 21 22  1  0  0  0  0
 22 23  2  0  0  0  0
 23 18  1  0  0  0  0
 23 29  1  0  0  0  0
 24 22  1  0  0  0  0
 25 30  1  0  0  0  0
 25 24  1  0  0  0  0
 26 25  1  0  0  0  0
 26 21  1  0  0  0  0
 28 20  1  0  0  0  0
 31 25  1  0  0  0  0
 32 33  1  0  0  0  0
 33 35  1  0  0  0  0
 33 36  1  0  0  0  0
 34 33  1  0  0  0  0
M  END
>  <minimizedAffinity>
-5.91088247

$$$$

 OpenBabel03242515413D

 36 39  0  0  0  0  0  0  0  0999 V2000
   36.0030   28.7640   38.5930 C   0  0  0  0  0  0  0  0  0  0  0  0
   36.7210   29.9230   38.4790 C   0  0  0  0  0  0  0  0  0  0  0  0
   37.2970   30.4630   39.6250 C   0  0  0  0  0  0  0  0  0  0  0  0
   37.1050   29.7940   40.7940 N   0  0  0  0  0  0  0  0  0  0  0  0
   36.3970   28.6580   40.8770 C   0  0  0  0  0  0  0  0  0  0  0  0
   35.8690   28.1820   39.7680 N   0  0  0  0  0  0  0  0  0  0  0  0
   36.8490   30.3920   37.5550 H   0  0  0  0  0  0  0  0  0  0  0  0
   40.4490   30.4120   39.3730 Cl  0  0  0  0  0  0  0  0  0  0  0  0
   39.4560   31.8140   39.6530 C   0  0  0  0  0  0  0  0  0  0  0  0
   38.0980   31.6520   39.7310 C   0  0  0  0  0  0  0  0  0  0  0  0
   37.4610   32.8600   39.9250 C   0  0  0  0  0  0  0  0  0  0  0  0
   36.3660   32.9610   40.0160 H   0  0  0  0  0  0  0  0  0  0  0  0
   38.0990   34.0750   40.0290 C   0  0  0  0  0  0  0  0  0  0  0  0
   37.5690   34.9990   40.1810 H   0  0  0  0  0  0  0  0  0  0  0  0
   39.4670   34.1610   39.9420 C   0  0  0  0  0  3  0  0  0  0  0  0
   40.1590   32.9870   39.7470 C   0  0  0  0  0  3  0  0  0  0  0  0
   35.2830   28.1190   37.0650 S   0  0  0  0  0  0  0  0  0  0  0  0
   33.4720   29.1690   35.3760 C   0  0  0  0  0  0  0  0  0  0  0  0
   33.7340   28.9120   36.7130 C   0  0  0  0  0  0  0  0  0  0  0  0
   32.8190   29.2670   37.6860 C   0  0  0  0  0  0  0  0  0  0  0  0
   31.6180   29.8840   37.3810 C   0  0  0  0  0  0  0  0  0  0  0  0
   31.3620   30.1390   36.0320 C   0  0  0  0  0  0  0  0  0  0  0  0
   32.2650   29.7940   35.0190 C   0  0  0  0  0  0  0  0  0  0  0  0
   30.0990   30.7660   35.9390 O   0  0  0  0  0  0  0  0  0  0  0  0
   29.7920   31.1760   37.2540 C   0  0  0  0  0  0  0  0  0  0  0  0
   30.5380   30.3420   38.1150 O   0  0  0  0  0  0  0  0  0  0  0  0
   34.1180   28.9330   34.5420 H   0  0  0  0  0  0  0  0  0  0  0  0
   33.0610   29.0490   38.7210 H   0  0  0  0  0  0  0  0  0  0  0  0
   32.0330   30.0070   33.9840 H   0  0  0  0  0  0  0  0  0  0  0  0
   29.9170   32.2480   37.4430 H   0  0  0  0  0  0  0  0  0  0  0  0
   28.7190   30.8980   37.4170 H   0  0  0  0  0  0  0  0  0  0  0  0
   36.1850   27.9580   42.0390 O   0  0  0  0  0  0  0  0  0  0  0  0
   37.1830   27.1260   42.5460 C   0  0  0  0  0  0  0  0  0  0  0  0
   38.1450   26.8190   41.6370 F   0  0  0  0  0  0  0  0  0  0  0  0
   37.6790   27.7970   43.6800 F   0  0  0  0  0  0  0  0  0  0  0  0
   36.5690   25.9360   42.9260 F   0  0  0  0  0  0  0  0  0  0  0  0
  1  6  1  0  0  0  0
  2  1  2  0  0  0  0
  2  3  1  0  0  0  0
  3 10  1  0  0  0  0
  3  4  2  0  0  0  0
  4  5  1  0  0  0  0
  5 32  1  0  0  0  0
  6  5  2  0  0  0  0
  7  2  1  0  0  0  0
  8  9  1  0  0  0  0
  9 10  2  0  0  0  0
  9 16  1  0  0  0  0
 10 11  1  0  0  0  0
 11 12  1  0  0  0  0
 11 13  2  0  0  0  0
 13 14  1  0  0  0  0
 15 13  1  0  0  0  0
 16 15  2  0  0  0  0
 17  1  1  0  0  0  0
 18 19  1  0  0  0  0
 19 17  1  0  0  0  0
 19 20  2  0  0  0  0
 20 28  1  0  0  0  0
 21 20  1  0  0  0  0
 21 26  1  0  0  0  0
 22 21  2  0  0  0  0
 23 18  2  0  0  0  0
 23 22  1  0  0  0  0
 24 22  1  0  0  0  0
 24 25  1  0  0  0  0
 25 31  1  0  0  0  0
 25 30  1  0  0  0  0
 25 26  1  0  0  0  0
 27 18  1  0  0  0  0
 29 23  1  0  0  0  0
 32 33  1  0  0  0  0
 33 36  1  0  0  0  0
 33 35  1  0  0  0  0
 34 33  1  0  0  0  0
M  END
>  <minimizedAffinity>
-5.90123463

$$$$

 OpenBabel03242515413D

 36 39  0  0  0  0  0  0  0  0999 V2000
   36.5380   30.0820   39.8220 C   0  0  0  0  0  0  0  0  0  0  0  0
   36.8690   28.9300   40.4830 C   0  0  0  0  0  0  0  0  0  0  0  0
   36.5740   27.7100   39.8810 C   0  0  0  0  0  0  0  0  0  0  0  0
   35.9720   27.7470   38.6620 N   0  0  0  0  0  0  0  0  0  0  0  0
   35.6600   28.8910   38.0350 C   0  0  0  0  0  0  0  0  0  0  0  0
   35.9560   30.0220   38.6410 N   0  0  0  0  0  0  0  0  0  0  0  0
   37.3420   28.9570   41.4140 H   0  0  0  0  0  0  0  0  0  0  0  0
   36.7470   27.0780   42.9750 Cl  0  0  0  0  0  0  0  0  0  0  0  0
   36.9600   25.9430   41.6730 C   0  0  0  0  0  0  0  0  0  0  0  0
   36.8460   26.3910   40.3840 C   0  0  0  0  0  0  0  0  0  0  0  0
   37.0120   25.3630   39.4800 C   0  0  0  0  0  0  0  0  0  0  0  0
   36.9590   25.5020   38.3870 H   0  0  0  0  0  0  0  0  0  0  0  0
   37.2610   24.0540   39.8200 C   0  0  0  0  0  0  0  0  0  0  0  0
   37.3870   23.2760   39.0860 H   0  0  0  0  0  0  0  0  0  0  0  0
   37.3650   23.6750   41.1360 C   0  0  0  0  0  3  0  0  0  0  0  0
   37.2060   24.6590   42.0870 C   0  0  0  0  0  3  0  0  0  0  0  0
   36.9480   31.6280   40.6640 S   0  0  0  0  0  0  0  0  0  0  0  0
   38.8390   33.5380   40.5560 C   0  0  0  0  0  0  0  0  0  0  0  0
   38.4300   32.3400   39.9930 C   0  0  0  0  0  0  0  0  0  0  0  0
   39.1590   31.7610   38.9700 C   0  0  0  0  0  0  0  0  0  0  0  0
   40.3120   32.3400   38.4680 C   0  0  0  0  0  0  0  0  0  0  0  0
   40.7170   33.5470   39.0410 C   0  0  0  0  0  0  0  0  0  0  0  0
   40.0040   34.1610   40.0780 C   0  0  0  0  0  0  0  0  0  0  0  0
   41.9020   33.9620   38.3920 O   0  0  0  0  0  0  0  0  0  0  0  0
   41.9800   33.1720   37.2250 C   0  0  0  0  0  0  0  0  0  0  0  0
   41.2240   32.0080   37.4820 O   0  0  0  0  0  0  0  0  0  0  0  0
   38.3430   34.0700   41.3550 H   0  0  0  0  0  0  0  0  0  0  0  0
   38.8060   30.8230   38.5560 H   0  0  0  0  0  0  0  0  0  0  0  0
   40.3480   35.0970   40.4980 H   0  0  0  0  0  0  0  0  0  0  0  0
   41.7090   33.6910   36.2980 H   0  0  0  0  0  0  0  0  0  0  0  0
   43.0460   32.8340   37.1570 H   0  0  0  0  0  0  0  0  0  0  0  0
   35.0540   28.9630   36.8060 O   0  0  0  0  0  0  0  0  0  0  0  0
   33.6800   28.7430   36.6890 C   0  0  0  0  0  0  0  0  0  0  0  0
   33.0950   29.4870   35.7150 F   0  0  0  0  0  0  0  0  0  0  0  0
   33.5480   27.3560   36.4890 F   0  0  0  0  0  0  0  0  0  0  0  0
   33.1030   29.1080   37.9020 F   0  0  0  0  0  0  0  0  0  0  0  0
  1  2  1  0  0  0  0
  1 17  1  0  0  0  0
  2  7  1  0  0  0  0
  3 10  1  0  0  0  0
  3  2  2  0  0  0  0
  4  3  1  0  0  0  0
  5  6  1  0  0  0  0
  5  4  2  0  0  0  0
  6  1  2  0  0  0  0
  9 16  1  0  0  0  0
  9  8  1  0  0  0  0
 10  9  2  0  0  0  0
 11 13  2  0  0  0  0
 11 10  1  0  0  0  0
 12 11  1  0  0  0  0
 13 15  1  0  0  0  0
 14 13  1  0  0  0  0
 15 16  2  0  0  0  0
 18 27  1  0  0  0  0
 19 18  2  0  0  0  0
 19 17  1  0  0  0  0
 20 19  1  0  0  0  0
 21 20  2  0  0  0  0
 21 22  1  0  0  0  0
 22 23  2  0  0  0  0
 23 29  1  0  0  0  0
 23 18  1  0  0  0  0
 24 22  1  0  0  0  0
 25 26  1  0  0  0  0
 25 24  1  0  0  0  0
 26 21  1  0  0  0  0
 28 20  1  0  0  0  0
 30 25  1  0  0  0  0
 31 25  1  0  0  0  0
 32  5  1  0  0  0  0
 33 32  1  0  0  0  0
 33 36  1  0  0  0  0
 34 33  1  0  0  0  0
 35 33  1  0  0  0  0
M  END
>  <minimizedAffinity>
-5.86293125

$$$$

 OpenBabel03242515413D

 36 39  0  0  0  0  0  0  0  0999 V2000
   38.2050   29.2140   41.6800 C   0  0  0  0  0  0  0  0  0  0  0  0
   37.5230   29.5520   40.5420 C   0  0  0  0  0  0  0  0  0  0  0  0
   36.6350   28.6270   40.0020 C   0  0  0  0  0  0  0  0  0  0  0  0
   36.5020   27.4380   40.6480 N   0  0  0  0  0  0  0  0  0  0  0  0
   37.1820   27.1330   41.7630 C   0  0  0  0  0  0  0  0  0  0  0  0
   38.0130   28.0370   42.2410 N   0  0  0  0  0  0  0  0  0  0  0  0
   37.6520   30.4850   40.0910 H   0  0  0  0  0  0  0  0  0  0  0  0
   37.8400   28.7740   37.0810 Cl  0  0  0  0  0  0  0  0  0  0  0  0
   36.1560   28.8640   37.5120 C   0  0  0  0  0  0  0  0  0  0  0  0
   35.8100   28.7780   38.8340 C   0  0  0  0  0  0  0  0  0  0  0  0
   34.4410   28.8350   38.9980 C   0  0  0  0  0  0  0  0  0  0  0  0
   33.9450   28.7830   39.9820 H   0  0  0  0  0  0  0  0  0  0  0  0
   33.5340   28.9620   37.9710 C   0  0  0  0  0  0  0  0  0  0  0  0
   32.4710   29.0040   38.1360 H   0  0  0  0  0  0  0  0  0  0  0  0
   33.9540   29.0440   36.6660 C   0  0  0  0  0  3  0  0  0  0  0  0
   35.3120   28.9910   36.4390 C   0  0  0  0  0  3  0  0  0  0  0  0
   39.3430   30.4620   42.3260 S   0  0  0  0  0  0  0  0  0  0  0  0
   39.4150   32.7350   40.8910 C   0  0  0  0  0  0  0  0  0  0  0  0
   39.9800   31.4760   41.0160 C   0  0  0  0  0  0  0  0  0  0  0  0
   40.9790   31.0680   40.1520 C   0  0  0  0  0  0  0  0  0  0  0  0
   41.4570   31.8820   39.1390 C   0  0  0  0  0  0  0  0  0  0  0  0
   40.8820   33.1490   39.0200 C   0  0  0  0  0  0  0  0  0  0  0  0
   39.8680   33.5950   39.8770 C   0  0  0  0  0  0  0  0  0  0  0  0
   41.5040   33.8110   37.9380 O   0  0  0  0  0  0  0  0  0  0  0  0
   42.1870   32.7990   37.2290 C   0  0  0  0  0  0  0  0  0  0  0  0
   42.4180   31.7550   38.1520 O   0  0  0  0  0  0  0  0  0  0  0  0
   38.6320   33.1480   41.5110 H   0  0  0  0  0  0  0  0  0  0  0  0
   41.3960   30.0750   40.2830 H   0  0  0  0  0  0  0  0  0  0  0  0
   39.4460   34.5840   39.7550 H   0  0  0  0  0  0  0  0  0  0  0  0
   41.7030   32.4810   36.2990 H   0  0  0  0  0  0  0  0  0  0  0  0
   43.1970   33.2230   36.9920 H   0  0  0  0  0  0  0  0  0  0  0  0
   37.0720   25.9440   42.4400 O   0  0  0  0  0  0  0  0  0  0  0  0
   37.4120   24.7460   41.8100 C   0  0  0  0  0  0  0  0  0  0  0  0
   38.1190   24.9210   40.6630 F   0  0  0  0  0  0  0  0  0  0  0  0
   38.1030   24.0030   42.7850 F   0  0  0  0  0  0  0  0  0  0  0  0
   36.2210   24.1070   41.4770 F   0  0  0  0  0  0  0  0  0  0  0  0
  1  6  1  0  0  0  0
  1 17  1  0  0  0  0
  2  1  2  0  0  0  0
  3  2  1  0  0  0  0
  3  4  2  0  0  0  0
  4  5  1  0  0  0  0
  5  6  2  0  0  0  0
  5 32  1  0  0  0  0
  7  2  1  0  0  0  0
  8  9  1  0  0  0  0
  9 10  1  0  0  0  0
 10 11  2  0  0  0  0
 10  3  1  0  0  0  0
 11 12  1  0  0  0  0
 13 14  1  0  0  0  0
 13 11  1  0  0  0  0
 15 13  2  0  0  0  0
 16 15  1  0  0  0  0
 16  9  2  0  0  0  0
 18 19  1  0  0  0  0
 18 27  1  0  0  0  0
 19 17  1  0  0  0  0
 20 28  1  0  0  0  0
 20 19  2  0  0  0  0
 21 20  1  0  0  0  0
 22 21  2  0  0  0  0
 22 23  1  0  0  0  0
 23 18  2  0  0  0  0
 24 22  1  0  0  0  0
 25 24  1  0  0  0  0
 25 26  1  0  0  0  0
 26 21  1  0  0  0  0
 29 23  1  0  0  0  0
 30 25  1  0  0  0  0
 31 25  1  0  0  0  0
 33 32  1  0  0  0  0
 33 35  1  0  0  0  0
 34 33  1  0  0  0  0
 36 33  1  0  0  0  0
M  END
>  <minimizedAffinity>
-5.80958891

$$$$

 OpenBabel03242515413D

 36 39  0  0  0  0  0  0  0  0999 V2000
   33.8820   27.4910   36.9990 C   0  0  0  0  0  0  0  0  0  0  0  0
   33.3540   28.7530   36.9750 C   0  0  0  0  0  0  0  0  0  0  0  0
   32.0960   28.9360   36.4080 C   0  0  0  0  0  0  0  0  0  0  0  0
   31.4700   27.8350   35.9110 N   0  0  0  0  0  0  0  0  0  0  0  0
   32.0110   26.6080   35.9480 C   0  0  0  0  0  0  0  0  0  0  0  0
   33.2040   26.4800   36.4930 N   0  0  0  0  0  0  0  0  0  0  0  0
   33.8710   29.5640   37.3820 H   0  0  0  0  0  0  0  0  0  0  0  0
   30.3290   30.0730   38.7720 Cl  0  0  0  0  0  0  0  0  0  0  0  0
   30.5420   30.7910   37.2000 C   0  0  0  0  0  0  0  0  0  0  0  0
   31.3510   30.1600   36.2940 C   0  0  0  0  0  0  0  0  0  0  0  0
   31.4350   30.8740   35.1160 C   0  0  0  0  0  0  0  0  0  0  0  0
   32.0350   30.5470   34.2500 H   0  0  0  0  0  0  0  0  0  0  0  0
   30.7910   32.0650   34.8740 C   0  0  0  0  0  0  0  0  0  0  0  0
   30.8780   32.5950   33.9420 H   0  0  0  0  0  0  0  0  0  0  0  0
   29.9910   32.6400   35.8320 C   0  0  0  0  0  3  0  0  0  0  0  0
   29.8700   31.9740   37.0310 C   0  0  0  0  0  3  0  0  0  0  0  0
   35.5190   27.3270   37.7490 S   0  0  0  0  0  0  0  0  0  0  0  0
   35.6490   28.8650   39.9520 C   0  0  0  0  0  0  0  0  0  0  0  0
   35.9740   28.8150   38.6060 C   0  0  0  0  0  0  0  0  0  0  0  0
   36.6130   29.8800   37.9990 C   0  0  0  0  0  0  0  0  0  0  0  0
   36.9550   31.0270   38.6940 C   0  0  0  0  0  0  0  0  0  0  0  0
   36.6260   31.0700   40.0500 C   0  0  0  0  0  0  0  0  0  0  0  0
   35.9780   30.0090   40.6970 C   0  0  0  0  0  0  0  0  0  0  0  0
   37.0580   32.3120   40.5660 O   0  0  0  0  0  0  0  0  0  0  0  0
   37.3220   33.1110   39.4320 C   0  0  0  0  0  0  0  0  0  0  0  0
   37.5800   32.2180   38.3690 O   0  0  0  0  0  0  0  0  0  0  0  0
   35.1520   28.0900   40.5180 H   0  0  0  0  0  0  0  0  0  0  0  0
   36.8500   29.8020   36.9440 H   0  0  0  0  0  0  0  0  0  0  0  0
   35.7380   30.0770   41.7500 H   0  0  0  0  0  0  0  0  0  0  0  0
   36.5590   33.8660   39.2130 H   0  0  0  0  0  0  0  0  0  0  0  0
   38.2960   33.6230   39.6420 H   0  0  0  0  0  0  0  0  0  0  0  0
   31.4080   25.4780   35.4570 O   0  0  0  0  0  0  0  0  0  0  0  0
   30.6020   24.6970   36.2870 C   0  0  0  0  0  0  0  0  0  0  0  0
   31.2430   24.2500   37.3970 F   0  0  0  0  0  0  0  0  0  0  0  0
   29.4840   25.5030   36.5740 F   0  0  0  0  0  0  0  0  0  0  0  0
   30.2120   23.5840   35.5490 F   0  0  0  0  0  0  0  0  0  0  0  0
  1 17  1  0  0  0  0
  2  1  1  0  0  0  0
  2  7  1  0  0  0  0
  3  2  2  0  0  0  0
  4  5  2  0  0  0  0
  4  3  1  0  0  0  0
  5  6  1  0  0  0  0
  6  1  2  0  0  0  0
  9  8  1  0  0  0  0
 10  3  1  0  0  0  0
 10  9  2  0  0  0  0
 11 10  1  0  0  0  0
 12 11  1  0  0  0  0
 13 11  2  0  0  0  0
 13 15  1  0  0  0  0
 14 13  1  0  0  0  0
 15 16  2  0  0  0  0
 16  9  1  0  0  0  0
 17 19  1  0  0  0  0
 18 27  1  0  0  0  0
 18 23  1  0  0  0  0
 19 18  2  0  0  0  0
 20 19  1  0  0  0  0
 20 21  2  0  0  0  0
 21 22  1  0  0  0  0
 22 24  1  0  0  0  0
 22 23  2  0  0  0  0
 23 29  1  0  0  0  0
 25 31  1  0  0  0  0
 25 24  1  0  0  0  0
 26 21  1  0  0  0  0
 26 25  1  0  0  0  0
 28 20  1  0  0  0  0
 30 25  1  0  0  0  0
 32  5  1  0  0  0  0
 32 33  1  0  0  0  0
 33 35  1  0  0  0  0
 33 34  1  0  0  0  0
 36 33  1  0  0  0  0
M  END
>  <minimizedAffinity>
-5.71447659

$$$$
