
 OpenBabel03252507343D

 49 52  0  0  1  0  0  0  0  0999 V2000
   38.0140   31.3390   41.0230 C   0  0  0  0  0  0  0  0  0  0  0  0
   36.6640   31.4210   40.7000 C   0  0  0  0  0  0  0  0  0  0  0  0
   35.8410   30.2820   40.8560 C   0  0  0  0  0  0  0  0  0  0  0  0
   36.4610   29.1280   41.3300 N   0  0  0  0  0  0  0  0  0  0  0  0
   37.7660   29.1170   41.6200 C   0  0  0  0  0  0  0  0  0  0  0  0
   38.5260   30.2000   41.4710 N   0  0  0  0  0  0  0  0  0  0  0  0
   36.0100   32.1650   40.3000 H   0  0  0  0  0  0  0  0  0  0  0  0
   34.8010   30.1650   40.6620 H   0  0  0  0  0  0  0  0  0  0  0  0
   38.8110   32.5400   40.8730 C   0  0  2  0  0  0  0  0  0  0  0  0
   38.0290   33.6510   40.1080 C   0  0  0  0  0  0  0  0  0  0  0  0
   38.8250   34.9110   40.1170 C   0  0  0  0  0  0  0  0  0  0  0  0
   40.2770   34.7710   39.8270 C   0  0  0  0  0  0  0  0  0  0  0  0
   40.8880   33.5880   40.3800 C   0  0  0  0  0  0  0  0  0  0  0  0
   40.0580   32.3010   40.1750 C   0  0  2  0  0  0  0  0  0  0  0  0
   38.9770   33.0300   41.8630 H   0  0  0  0  0  0  0  0  0  0  0  0
   37.0980   33.7730   40.6970 H   0  0  0  0  0  0  0  0  0  0  0  0
   37.7180   33.3070   39.1220 H   0  0  0  0  0  0  0  0  0  0  0  0
   38.5460   35.4530   41.0420 H   0  0  0  0  0  0  0  0  0  0  0  0
   38.4010   35.5530   39.2900 H   0  0  0  0  0  0  0  0  0  0  0  0
   40.6880   35.3030   38.9650 H   0  0  0  0  0  0  0  0  0  0  0  0
   40.6890   35.5570   40.5800 H   0  0  0  0  0  0  0  0  0  0  0  0
   41.1560   33.5690   41.4640 H   0  0  0  0  0  0  0  0  0  0  0  0
   41.8380   33.3640   39.8300 H   0  0  0  0  0  0  0  0  0  0  0  0
   40.7320   31.5510   40.5910 H   0  0  0  0  0  0  0  0  0  0  0  0
   39.8080   32.1350   38.7420 N   0  0  0  0  0  0  0  0  0  0  0  0
   39.9200   31.0170   37.8980 C   0  0  0  0  0  0  0  0  0  0  0  0
   39.0490   30.0740   37.8690 O   0  0  0  0  0  0  0  0  0  0  0  0
   41.0780   31.0110   37.0640 N   0  0  0  0  0  0  0  0  0  0  0  0
   39.5410   32.9760   38.1030 H   0  0  0  0  0  0  0  0  0  0  0  0
   41.3010   31.7580   36.3700 H   0  0  0  0  0  0  0  0  0  0  0  0
   41.9570   30.5220   36.7780 H   0  0  0  0  0  0  0  0  0  0  0  0
   38.3600   27.8630   42.0950 C   0  0  0  0  0  0  0  0  0  0  0  0
   38.9980   27.7950   43.3120 C   0  0  0  0  0  0  0  0  0  0  0  0
   39.5750   26.6510   43.8150 C   0  0  0  0  0  0  0  0  0  0  0  0
   39.4740   25.5310   42.9950 C   0  0  0  0  0  0  0  0  0  0  0  0
   38.8380   25.5930   41.7790 C   0  0  0  0  0  0  0  0  0  0  0  0
   38.2870   26.7560   41.3370 N   0  0  0  0  0  0  0  0  0  0  0  0
   39.0570   28.6900   43.9220 H   0  0  0  0  0  0  0  0  0  0  0  0
   40.0720   26.5980   44.7630 H   0  0  0  0  0  0  0  0  0  0  0  0
   39.9210   24.6240   43.3740 H   0  0  0  0  0  0  0  0  0  0  0  0
   40.8660   25.4130   39.5980 Cl  0  0  0  0  0  0  0  0  0  0  0  0
   39.5970   24.2180   39.8640 C   0  0  0  0  0  0  0  0  0  0  0  0
   38.7250   24.4270   40.9130 C   0  0  0  0  0  0  0  0  0  0  0  0
   37.7700   23.4410   41.0400 C   0  0  0  0  0  0  0  0  0  0  0  0
   37.0420   23.5210   41.8340 H   0  0  0  0  0  0  0  0  0  0  0  0
   37.6900   22.3480   40.2010 C   0  0  0  0  0  0  0  0  0  0  0  0
   36.9090   21.6210   40.3720 H   0  0  0  0  0  0  0  0  0  0  0  0
   38.5940   22.2000   39.1700 C   0  0  0  0  0  3  0  0  0  0  0  0
   39.5730   23.1530   38.9920 C   0  0  0  0  0  3  0  0  0  0  0  0
  1  6  1  0  0  0  0
  2  3  1  0  0  0  0
  2  1  2  0  0  0  0
  3  4  2  0  0  0  0
  4  5  1  0  0  0  0
  5 32  1  0  0  0  0
  6  5  2  0  0  0  0
  7  2  1  0  0  0  0
  8  3  1  0  0  0  0
  9  1  1  0  0  0  0
  9 15  1  1  0  0  0
 10 11  1  0  0  0  0
 10 16  1  0  0  0  0
 10  9  1  0  0  0  0
 11 18  1  0  0  0  0
 12 11  1  0  0  0  0
 12 13  1  0  0  0  0
 12 21  1  0  0  0  0
 13 22  1  0  0  0  0
 14 13  1  0  0  0  0
 14 24  1  1  0  0  0
 14  9  1  0  0  0  0
 17 10  1  0  0  0  0
 19 11  1  0  0  0  0
 20 12  1  0  0  0  0
 23 13  1  0  0  0  0
 25 14  1  0  0  0  0
 26 25  1  0  0  0  0
 27 26  2  0  0  0  0
 28 26  1  0  0  0  0
 29 25  1  0  0  0  0
 30 28  1  0  0  0  0
 31 28  1  0  0  0  0
 32 33  1  0  0  0  0
 33 34  2  0  0  0  0
 33 38  1  0  0  0  0
 34 39  1  0  0  0  0
 35 40  1  0  0  0  0
 35 34  1  0  0  0  0
 36 35  2  0  0  0  0
 37 36  1  0  0  0  0
 37 32  2  0  0  0  0
 41 42  1  0  0  0  0
 42 43  1  0  0  0  0
 43 44  2  0  0  0  0
 43 36  1  0  0  0  0
 44 45  1  0  0  0  0
 46 47  1  0  0  0  0
 46 44  1  0  0  0  0
 48 46  2  0  0  0  0
 49 48  1  0  0  0  0
 49 42  2  0  0  0  0
M  END
>  <minimizedAffinity>
-7.0396204

$$$$

 OpenBabel03252507343D

 49 52  0  0  1  0  0  0  0  0999 V2000
   41.1700   33.4800   40.9240 C   0  0  0  0  0  0  0  0  0  0  0  0
   40.6240   34.6580   40.4280 C   0  0  0  0  0  0  0  0  0  0  0  0
   39.2410   34.7140   40.1320 C   0  0  0  0  0  0  0  0  0  0  0  0
   38.5100   33.5510   40.3610 N   0  0  0  0  0  0  0  0  0  0  0  0
   39.0990   32.4500   40.8390 C   0  0  0  0  0  0  0  0  0  0  0  0
   40.4010   32.4150   41.1150 N   0  0  0  0  0  0  0  0  0  0  0  0
   40.9900   35.6220   40.1500 H   0  0  0  0  0  0  0  0  0  0  0  0
   38.6620   35.5220   39.7530 H   0  0  0  0  0  0  0  0  0  0  0  0
   42.5840   33.4790   41.2380 C   0  0  2  0  0  0  0  0  0  0  0  0
   43.0900   34.9110   41.5920 C   0  0  0  0  0  0  0  0  0  0  0  0
   44.5030   34.8350   42.0580 C   0  0  0  0  0  0  0  0  0  0  0  0
   45.4100   33.9650   41.2620 C   0  0  0  0  0  0  0  0  0  0  0  0
   44.8010   32.7550   40.7690 C   0  0  0  0  0  0  0  0  0  0  0  0
   43.3980   32.9660   40.1550 C   0  0  2  0  0  0  0  0  0  0  0  0
   42.7760   32.9350   42.1950 H   0  0  0  0  0  0  0  0  0  0  0  0
   42.4230   35.2310   42.4180 H   0  0  0  0  0  0  0  0  0  0  0  0
   42.9090   35.6070   40.7740 H   0  0  0  0  0  0  0  0  0  0  0  0
   44.4650   34.6560   43.1510 H   0  0  0  0  0  0  0  0  0  0  0  0
   44.9170   35.8820   41.9700 H   0  0  0  0  0  0  0  0  0  0  0  0
   46.2880   34.4190   40.7960 H   0  0  0  0  0  0  0  0  0  0  0  0
   46.0360   33.5110   42.1320 H   0  0  0  0  0  0  0  0  0  0  0  0
   44.6650   31.8900   41.4620 H   0  0  0  0  0  0  0  0  0  0  0  0
   45.3950   32.3600   39.9060 H   0  0  0  0  0  0  0  0  0  0  0  0
   43.1780   31.9620   39.7910 H   0  0  0  0  0  0  0  0  0  0  0  0
   43.5060   33.9650   39.0890 N   0  0  0  0  0  0  0  0  0  0  0  0
   43.2770   33.8820   37.7060 C   0  0  0  0  0  0  0  0  0  0  0  0
   42.1010   33.8760   37.1910 O   0  0  0  0  0  0  0  0  0  0  0  0
   44.4590   33.8130   36.9080 N   0  0  0  0  0  0  0  0  0  0  0  0
   43.8780   34.9710   39.2800 H   0  0  0  0  0  0  0  0  0  0  0  0
   45.2030   34.5440   36.9040 H   0  0  0  0  0  0  0  0  0  0  0  0
   45.0200   33.2770   36.2060 H   0  0  0  0  0  0  0  0  0  0  0  0
   38.2750   31.2530   41.0360 C   0  0  0  0  0  0  0  0  0  0  0  0
   36.9260   31.2660   40.7620 C   0  0  0  0  0  0  0  0  0  0  0  0
   36.0970   30.1790   40.9250 C   0  0  0  0  0  0  0  0  0  0  0  0
   36.7210   29.0290   41.3990 C   0  0  0  0  0  0  0  0  0  0  0  0
   38.0660   29.0100   41.6740 C   0  0  0  0  0  0  0  0  0  0  0  0
   38.8330   30.1200   41.4920 N   0  0  0  0  0  0  0  0  0  0  0  0
   36.4770   32.1830   40.3950 H   0  0  0  0  0  0  0  0  0  0  0  0
   35.0470   30.1900   40.7110 H   0  0  0  0  0  0  0  0  0  0  0  0
   36.0860   28.1660   41.5320 H   0  0  0  0  0  0  0  0  0  0  0  0
   39.1050   27.1580   39.5790 Cl  0  0  0  0  0  0  0  0  0  0  0  0
   39.2590   26.8700   41.3120 C   0  0  0  0  0  0  0  0  0  0  0  0
   38.7310   27.8120   42.1700 C   0  0  0  0  0  0  0  0  0  0  0  0
   38.8990   27.4990   43.5020 C   0  0  0  0  0  0  0  0  0  0  0  0
   38.5170   28.1790   44.2490 H   0  0  0  0  0  0  0  0  0  0  0  0
   39.5340   26.3540   43.9390 C   0  0  0  0  0  0  0  0  0  0  0  0
   39.6230   26.1860   45.0040 H   0  0  0  0  0  0  0  0  0  0  0  0
   40.0390   25.4520   43.0260 C   0  0  0  0  0  3  0  0  0  0  0  0
   39.9020   25.7100   41.6800 C   0  0  0  0  0  3  0  0  0  0  0  0
  1  6  1  0  0  0  0
  1  9  1  0  0  0  0
  2  1  2  0  0  0  0
  3  4  2  0  0  0  0
  3  2  1  0  0  0  0
  4  5  1  0  0  0  0
  5 32  1  0  0  0  0
  5  6  2  0  0  0  0
  7  2  1  0  0  0  0
  8  3  1  0  0  0  0
  9 10  1  0  0  0  0
  9 15  1  1  0  0  0
 10 11  1  0  0  0  0
 10 16  1  0  0  0  0
 11 18  1  0  0  0  0
 12 11  1  0  0  0  0
 12 21  1  0  0  0  0
 13 12  1  0  0  0  0
 13 22  1  0  0  0  0
 14 24  1  6  0  0  0
 14 13  1  0  0  0  0
 14  9  1  0  0  0  0
 17 10  1  0  0  0  0
 19 11  1  0  0  0  0
 20 12  1  0  0  0  0
 23 13  1  0  0  0  0
 25 29  1  0  0  0  0
 25 14  1  0  0  0  0
 26 25  1  0  0  0  0
 27 26  2  0  0  0  0
 28 26  1  0  0  0  0
 30 28  1  0  0  0  0
 31 28  1  0  0  0  0
 32 37  1  0  0  0  0
 33 34  1  0  0  0  0
 33 32  2  0  0  0  0
 34 35  2  0  0  0  0
 35 40  1  0  0  0  0
 35 36  1  0  0  0  0
 36 43  1  0  0  0  0
 37 36  2  0  0  0  0
 38 33  1  0  0  0  0
 39 34  1  0  0  0  0
 41 42  1  0  0  0  0
 42 49  2  0  0  0  0
 42 43  1  0  0  0  0
 43 44  2  0  0  0  0
 44 46  1  0  0  0  0
 44 45  1  0  0  0  0
 46 47  1  0  0  0  0
 48 46  2  0  0  0  0
 49 48  1  0  0  0  0
M  END
>  <minimizedAffinity>
-7.01763964

$$$$

 OpenBabel03252507343D

 49 52  0  0  1  0  0  0  0  0999 V2000
   40.7940   31.1540   41.8880 C   0  0  0  0  0  0  0  0  0  0  0  0
   42.0600   30.7450   42.2890 C   0  0  0  0  0  0  0  0  0  0  0  0
   42.2290   29.4590   42.8550 C   0  0  0  0  0  0  0  0  0  0  0  0
   41.0830   28.6790   42.9750 N   0  0  0  0  0  0  0  0  0  0  0  0
   39.8930   29.1350   42.5710 C   0  0  0  0  0  0  0  0  0  0  0  0
   39.7510   30.3470   42.0380 N   0  0  0  0  0  0  0  0  0  0  0  0
   43.0370   31.1770   42.3240 H   0  0  0  0  0  0  0  0  0  0  0  0
   43.1140   28.9870   43.2110 H   0  0  0  0  0  0  0  0  0  0  0  0
   40.6750   32.4680   41.2890 C   0  0  2  0  0  0  0  0  0  0  0  0
   39.1850   32.9160   41.1880 C   0  0  0  0  0  0  0  0  0  0  0  0
   39.1230   34.3280   40.7160 C   0  0  0  0  0  0  0  0  0  0  0  0
   40.0230   34.6800   39.5850 C   0  0  0  0  0  0  0  0  0  0  0  0
   41.3160   34.0430   39.6250 C   0  0  0  0  0  0  0  0  0  0  0  0
   41.2590   32.5360   39.9650 C   0  0  2  0  0  0  0  0  0  0  0  0
   41.0940   33.2500   41.9680 H   0  0  0  0  0  0  0  0  0  0  0  0
   38.8130   32.8360   42.2290 H   0  0  0  0  0  0  0  0  0  0  0  0
   38.5980   32.2070   40.6040 H   0  0  0  0  0  0  0  0  0  0  0  0
   39.1780   34.9650   41.6210 H   0  0  0  0  0  0  0  0  0  0  0  0
   38.0700   34.4840   40.3390 H   0  0  0  0  0  0  0  0  0  0  0  0
   39.5740   35.0530   38.6610 H   0  0  0  0  0  0  0  0  0  0  0  0
   40.3370   35.7470   39.9300 H   0  0  0  0  0  0  0  0  0  0  0  0
   42.1020   34.4450   40.3090 H   0  0  0  0  0  0  0  0  0  0  0  0
   41.7710   34.0520   38.6020 H   0  0  0  0  0  0  0  0  0  0  0  0
   42.3100   32.2610   39.8640 H   0  0  0  0  0  0  0  0  0  0  0  0
   40.3840   31.8760   38.9950 N   0  0  0  0  0  0  0  0  0  0  0  0
   40.5780   31.5290   37.6470 C   0  0  0  0  0  0  0  0  0  0  0  0
   41.2740   30.5150   37.2790 O   0  0  0  0  0  0  0  0  0  0  0  0
   39.9320   32.3900   36.7090 N   0  0  0  0  0  0  0  0  0  0  0  0
   39.3530   31.6150   39.2340 H   0  0  0  0  0  0  0  0  0  0  0  0
   38.9020   32.5570   36.6850 H   0  0  0  0  0  0  0  0  0  0  0  0
   40.0280   33.0430   35.8980 H   0  0  0  0  0  0  0  0  0  0  0  0
   38.7230   28.2700   42.7470 C   0  0  0  0  0  0  0  0  0  0  0  0
   37.7850   28.5310   43.7210 C   0  0  0  0  0  0  0  0  0  0  0  0
   36.6660   27.7600   43.9380 C   0  0  0  0  0  0  0  0  0  0  0  0
   36.5320   26.6650   43.0910 C   0  0  0  0  0  0  0  0  0  0  0  0
   37.4630   26.3990   42.1180 C   0  0  0  0  0  0  0  0  0  0  0  0
   38.5510   27.2000   41.9530 N   0  0  0  0  0  0  0  0  0  0  0  0
   37.9270   29.3950   44.3620 H   0  0  0  0  0  0  0  0  0  0  0  0
   35.9370   27.9650   44.6970 H   0  0  0  0  0  0  0  0  0  0  0  0
   35.6580   26.0490   43.2470 H   0  0  0  0  0  0  0  0  0  0  0  0
   36.1840   26.9680   39.4840 Cl  0  0  0  0  0  0  0  0  0  0  0  0
   36.7610   25.3750   39.9750 C   0  0  0  0  0  0  0  0  0  0  0  0
   37.3330   25.2560   41.2240 C   0  0  0  0  0  0  0  0  0  0  0  0
   37.7520   23.9750   41.5170 C   0  0  0  0  0  0  0  0  0  0  0  0
   38.2140   23.7840   42.4750 H   0  0  0  0  0  0  0  0  0  0  0  0
   37.6140   22.9130   40.6470 C   0  0  0  0  0  0  0  0  0  0  0  0
   37.9710   21.9400   40.9580 H   0  0  0  0  0  0  0  0  0  0  0  0
   37.0310   23.1020   39.4120 C   0  0  0  0  0  3  0  0  0  0  0  0
   36.5920   24.3600   39.0610 C   0  0  0  0  0  3  0  0  0  0  0  0
  1  6  2  0  0  0  0
  1  2  1  0  0  0  0
  2  7  1  0  0  0  0
  2  3  2  0  0  0  0
  3  4  1  0  0  0  0
  3  8  1  0  0  0  0
  5 32  1  0  0  0  0
  5  4  2  0  0  0  0
  6  5  1  0  0  0  0
  9  1  1  0  0  0  0
  9 15  1  1  0  0  0
 10  9  1  0  0  0  0
 10 16  1  0  0  0  0
 11 10  1  0  0  0  0
 11 18  1  0  0  0  0
 12 13  1  0  0  0  0
 12 21  1  0  0  0  0
 12 11  1  0  0  0  0
 13 14  1  0  0  0  0
 13 22  1  0  0  0  0
 14 24  1  6  0  0  0
 14  9  1  0  0  0  0
 17 10  1  0  0  0  0
 19 11  1  0  0  0  0
 20 12  1  0  0  0  0
 23 13  1  0  0  0  0
 25 29  1  0  0  0  0
 25 14  1  0  0  0  0
 26 25  1  0  0  0  0
 27 26  2  0  0  0  0
 28 26  1  0  0  0  0
 30 28  1  0  0  0  0
 31 28  1  0  0  0  0
 32 33  1  0  0  0  0
 33 34  2  0  0  0  0
 33 38  1  0  0  0  0
 34 39  1  0  0  0  0
 35 40  1  0  0  0  0
 35 34  1  0  0  0  0
 36 35  2  0  0  0  0
 37 36  1  0  0  0  0
 37 32  2  0  0  0  0
 41 42  1  0  0  0  0
 42 43  1  0  0  0  0
 43 44  2  0  0  0  0
 43 36  1  0  0  0  0
 44 45  1  0  0  0  0
 46 47  1  0  0  0  0
 46 44  1  0  0  0  0
 48 46  2  0  0  0  0
 49 48  1  0  0  0  0
 49 42  2  0  0  0  0
M  END
>  <minimizedAffinity>
-6.98844767

$$$$

 OpenBabel03252507343D

 49 52  0  0  1  0  0  0  0  0999 V2000
   40.9490   31.7070   40.3870 C   0  0  0  0  0  0  0  0  0  0  0  0
   42.2320   32.1740   40.1230 C   0  0  0  0  0  0  0  0  0  0  0  0
   43.3490   31.4540   40.6070 C   0  0  0  0  0  0  0  0  0  0  0  0
   43.0740   30.3000   41.3370 N   0  0  0  0  0  0  0  0  0  0  0  0
   41.8150   29.9070   41.5570 C   0  0  0  0  0  0  0  0  0  0  0  0
   40.7750   30.5960   41.0910 N   0  0  0  0  0  0  0  0  0  0  0  0
   42.6590   33.0230   39.6350 H   0  0  0  0  0  0  0  0  0  0  0  0
   44.3870   31.6610   40.5000 H   0  0  0  0  0  0  0  0  0  0  0  0
   39.8380   32.4640   39.8480 C   0  0  2  0  0  0  0  0  0  0  0  0
   39.4150   33.6180   40.8080 C   0  0  0  0  0  0  0  0  0  0  0  0
   38.3810   34.4600   40.1430 C   0  0  0  0  0  0  0  0  0  0  0  0
   37.2990   33.7280   39.4320 C   0  0  0  0  0  0  0  0  0  0  0  0
   37.7290   32.5330   38.7500 C   0  0  0  0  0  0  0  0  0  0  0  0
   38.6740   31.6420   39.5870 C   0  0  2  0  0  0  0  0  0  0  0  0
   40.1540   33.0370   38.9420 H   0  0  0  0  0  0  0  0  0  0  0  0
   40.3500   34.1940   40.9580 H   0  0  0  0  0  0  0  0  0  0  0  0
   39.1380   33.2330   41.7890 H   0  0  0  0  0  0  0  0  0  0  0  0
   38.9270   35.2340   39.5700 H   0  0  0  0  0  0  0  0  0  0  0  0
   37.8750   35.0410   40.9690 H   0  0  0  0  0  0  0  0  0  0  0  0
   36.2660   33.8890   39.7520 H   0  0  0  0  0  0  0  0  0  0  0  0
   37.1810   34.4310   38.5100 H   0  0  0  0  0  0  0  0  0  0  0  0
   38.2460   32.6240   37.7640 H   0  0  0  0  0  0  0  0  0  0  0  0
   36.8490   31.8660   38.5700 H   0  0  0  0  0  0  0  0  0  0  0  0
   38.8000   30.7880   38.9190 H   0  0  0  0  0  0  0  0  0  0  0  0
   38.0010   31.3090   40.8450 N   0  0  0  0  0  0  0  0  0  0  0  0
   36.9700   30.4000   41.1390 C   0  0  0  0  0  0  0  0  0  0  0  0
   37.1610   29.1350   41.2370 O   0  0  0  0  0  0  0  0  0  0  0  0
   35.6870   30.9950   41.3320 N   0  0  0  0  0  0  0  0  0  0  0  0
   38.2170   31.8400   41.7700 H   0  0  0  0  0  0  0  0  0  0  0  0
   35.4810   31.7140   42.0600 H   0  0  0  0  0  0  0  0  0  0  0  0
   34.6880   31.0550   41.0290 H   0  0  0  0  0  0  0  0  0  0  0  0
   41.5960   28.6950   42.3510 C   0  0  0  0  0  0  0  0  0  0  0  0
   42.3730   28.4170   43.4530 C   0  0  0  0  0  0  0  0  0  0  0  0
   42.2190   27.2990   44.2410 C   0  0  0  0  0  0  0  0  0  0  0  0
   41.2010   26.4360   43.8460 C   0  0  0  0  0  0  0  0  0  0  0  0
   40.4230   26.7080   42.7480 C   0  0  0  0  0  0  0  0  0  0  0  0
   40.6250   27.8320   42.0080 N   0  0  0  0  0  0  0  0  0  0  0  0
   43.1570   29.1150   43.7280 H   0  0  0  0  0  0  0  0  0  0  0  0
   42.8250   27.0840   45.0990 H   0  0  0  0  0  0  0  0  0  0  0  0
   41.0660   25.5530   44.4540 H   0  0  0  0  0  0  0  0  0  0  0  0
   37.7040   27.3790   43.7750 Cl  0  0  0  0  0  0  0  0  0  0  0  0
   38.0490   26.0050   42.7250 C   0  0  0  0  0  0  0  0  0  0  0  0
   39.3540   25.8120   42.3250 C   0  0  0  0  0  0  0  0  0  0  0  0
   39.5240   24.7140   41.5090 C   0  0  0  0  0  0  0  0  0  0  0  0
   40.5140   24.4830   41.1450 H   0  0  0  0  0  0  0  0  0  0  0  0
   38.4880   23.8850   41.1270 C   0  0  0  0  0  0  0  0  0  0  0  0
   38.7090   23.0450   40.4830 H   0  0  0  0  0  0  0  0  0  0  0  0
   37.2050   24.1350   41.5640 C   0  0  0  0  0  3  0  0  0  0  0  0
   36.9720   25.2180   42.3830 C   0  0  0  0  0  3  0  0  0  0  0  0
  1  6  1  0  0  0  0
  2  1  2  0  0  0  0
  2  3  1  0  0  0  0
  3  4  2  0  0  0  0
  4  5  1  0  0  0  0
  5 32  1  0  0  0  0
  6  5  2  0  0  0  0
  7  2  1  0  0  0  0
  8  3  1  0  0  0  0
  9 15  1  6  0  0  0
  9  1  1  0  0  0  0
  9 10  1  0  0  0  0
 10 16  1  0  0  0  0
 10 17  1  0  0  0  0
 11 10  1  0  0  0  0
 11 19  1  0  0  0  0
 12 20  1  0  0  0  0
 12 11  1  0  0  0  0
 13 12  1  0  0  0  0
 13 14  1  0  0  0  0
 14 24  1  6  0  0  0
 14  9  1  0  0  0  0
 14 25  1  0  0  0  0
 18 11  1  0  0  0  0
 21 12  1  0  0  0  0
 22 13  1  0  0  0  0
 23 13  1  0  0  0  0
 25 26  1  0  0  0  0
 25 29  1  0  0  0  0
 26 27  2  0  0  0  0
 26 28  1  0  0  0  0
 28 30  1  0  0  0  0
 31 28  1  0  0  0  0
 32 33  1  0  0  0  0
 33 38  1  0  0  0  0
 33 34  2  0  0  0  0
 34 39  1  0  0  0  0
 35 34  1  0  0  0  0
 35 40  1  0  0  0  0
 36 35  2  0  0  0  0
 37 32  2  0  0  0  0
 37 36  1  0  0  0  0
 42 41  1  0  0  0  0
 43 42  2  0  0  0  0
 43 36  1  0  0  0  0
 44 43  1  0  0  0  0
 45 44  1  0  0  0  0
 46 44  2  0  0  0  0
 46 48  1  0  0  0  0
 47 46  1  0  0  0  0
 48 49  2  0  0  0  0
 49 42  1  0  0  0  0
M  END
>  <minimizedAffinity>
-6.96120787

$$$$

 OpenBabel03252507343D

 49 52  0  0  1  0  0  0  0  0999 V2000
   41.4250   30.6620   41.3610 C   0  0  0  0  0  0  0  0  0  0  0  0
   42.5830   30.3020   42.0410 C   0  0  0  0  0  0  0  0  0  0  0  0
   42.5550   29.2030   42.9310 C   0  0  0  0  0  0  0  0  0  0  0  0
   41.3340   28.5470   43.0680 N   0  0  0  0  0  0  0  0  0  0  0  0
   40.2570   28.9460   42.3840 C   0  0  0  0  0  0  0  0  0  0  0  0
   40.3010   29.9810   41.5480 N   0  0  0  0  0  0  0  0  0  0  0  0
   43.5820   30.6730   42.1150 H   0  0  0  0  0  0  0  0  0  0  0  0
   43.3360   28.7920   43.5250 H   0  0  0  0  0  0  0  0  0  0  0  0
   41.5100   31.7770   40.4400 C   0  0  2  0  0  0  0  0  0  0  0  0
   41.8300   33.1090   41.1860 C   0  0  0  0  0  0  0  0  0  0  0  0
   42.0630   34.1900   40.1880 C   0  0  0  0  0  0  0  0  0  0  0  0
   41.1010   34.2530   39.0540 C   0  0  0  0  0  0  0  0  0  0  0  0
   40.6690   32.9690   38.5610 C   0  0  0  0  0  0  0  0  0  0  0  0
   40.2940   31.9660   39.6760 C   0  0  2  0  0  0  0  0  0  0  0  0
   42.4040   31.6750   39.7790 H   0  0  0  0  0  0  0  0  0  0  0  0
   42.7620   32.8830   41.7420 H   0  0  0  0  0  0  0  0  0  0  0  0
   41.0760   33.3300   41.9410 H   0  0  0  0  0  0  0  0  0  0  0  0
   43.1400   34.1580   39.9340 H   0  0  0  0  0  0  0  0  0  0  0  0
   41.9460   35.1630   40.7500 H   0  0  0  0  0  0  0  0  0  0  0  0
   40.5190   35.1680   38.9170 H   0  0  0  0  0  0  0  0  0  0  0  0
   41.8450   34.5330   38.2020 H   0  0  0  0  0  0  0  0  0  0  0  0
   41.3440   32.3870   37.8890 H   0  0  0  0  0  0  0  0  0  0  0  0
   39.7090   33.0870   37.9970 H   0  0  0  0  0  0  0  0  0  0  0  0
   39.9340   31.1240   39.0840 H   0  0  0  0  0  0  0  0  0  0  0  0
   39.2610   32.5750   40.5170 N   0  0  0  0  0  0  0  0  0  0  0  0
   37.8590   32.4840   40.4870 C   0  0  0  0  0  0  0  0  0  0  0  0
   37.2160   31.4650   40.9300 O   0  0  0  0  0  0  0  0  0  0  0  0
   37.1980   33.6200   39.9310 N   0  0  0  0  0  0  0  0  0  0  0  0
   39.5050   33.2930   41.2990 H   0  0  0  0  0  0  0  0  0  0  0  0
   37.2870   34.5890   40.3090 H   0  0  0  0  0  0  0  0  0  0  0  0
   36.5560   33.9950   39.1950 H   0  0  0  0  0  0  0  0  0  0  0  0
   38.9980   28.2240   42.5920 C   0  0  0  0  0  0  0  0  0  0  0  0
   38.1330   28.5780   43.6030 C   0  0  0  0  0  0  0  0  0  0  0  0
   36.9380   27.9420   43.8510 C   0  0  0  0  0  0  0  0  0  0  0  0
   36.6430   26.8870   42.9940 C   0  0  0  0  0  0  0  0  0  0  0  0
   37.5020   26.5290   41.9830 C   0  0  0  0  0  0  0  0  0  0  0  0
   38.6710   27.1970   41.7890 N   0  0  0  0  0  0  0  0  0  0  0  0
   38.4000   29.4060   44.2510 H   0  0  0  0  0  0  0  0  0  0  0  0
   36.2660   28.2190   44.6390 H   0  0  0  0  0  0  0  0  0  0  0  0
   35.7080   26.3770   43.1740 H   0  0  0  0  0  0  0  0  0  0  0  0
   36.1770   27.2910   39.4210 Cl  0  0  0  0  0  0  0  0  0  0  0  0
   36.5930   25.6340   39.8600 C   0  0  0  0  0  0  0  0  0  0  0  0
   37.2040   25.4260   41.0790 C   0  0  0  0  0  0  0  0  0  0  0  0
   37.4890   24.1010   41.3320 C   0  0  0  0  0  0  0  0  0  0  0  0
   37.9690   23.8400   42.2650 H   0  0  0  0  0  0  0  0  0  0  0  0
   37.1930   23.0790   40.4530 C   0  0  0  0  0  0  0  0  0  0  0  0
   37.4520   22.0660   40.7310 H   0  0  0  0  0  0  0  0  0  0  0  0
   36.5800   23.3570   39.2500 C   0  0  0  0  0  3  0  0  0  0  0  0
   36.2700   24.6630   38.9400 C   0  0  0  0  0  3  0  0  0  0  0  0
  1  6  2  0  0  0  0
  1  2  1  0  0  0  0
  2  7  1  0  0  0  0
  2  3  2  0  0  0  0
  3  4  1  0  0  0  0
  3  8  1  0  0  0  0
  5 32  1  0  0  0  0
  5  4  2  0  0  0  0
  6  5  1  0  0  0  0
  9 15  1  6  0  0  0
  9 10  1  0  0  0  0
  9  1  1  0  0  0  0
 10 16  1  0  0  0  0
 10 17  1  0  0  0  0
 11 19  1  0  0  0  0
 11 10  1  0  0  0  0
 12 11  1  0  0  0  0
 13 12  1  0  0  0  0
 13 14  1  0  0  0  0
 14 24  1  6  0  0  0
 14  9  1  0  0  0  0
 14 25  1  0  0  0  0
 18 11  1  0  0  0  0
 20 12  1  0  0  0  0
 21 12  1  0  0  0  0
 22 13  1  0  0  0  0
 23 13  1  0  0  0  0
 25 29  1  0  0  0  0
 26 25  1  0  0  0  0
 26 27  2  0  0  0  0
 28 30  1  0  0  0  0
 28 26  1  0  0  0  0
 31 28  1  0  0  0  0
 32 33  1  0  0  0  0
 33 34  2  0  0  0  0
 33 38  1  0  0  0  0
 34 39  1  0  0  0  0
 35 40  1  0  0  0  0
 35 34  1  0  0  0  0
 36 35  2  0  0  0  0
 37 36  1  0  0  0  0
 37 32  2  0  0  0  0
 41 42  1  0  0  0  0
 42 43  1  0  0  0  0
 43 44  2  0  0  0  0
 43 36  1  0  0  0  0
 44 45  1  0  0  0  0
 46 47  1  0  0  0  0
 46 44  1  0  0  0  0
 48 46  2  0  0  0  0
 49 48  1  0  0  0  0
 49 42  2  0  0  0  0
M  END
>  <minimizedAffinity>
-6.78084755

$$$$

 OpenBabel03252507343D

 49 52  0  0  1  0  0  0  0  0999 V2000
   37.2420   28.7100   39.8250 C   0  0  0  0  0  0  0  0  0  0  0  0
   38.2980   29.2650   39.1100 C   0  0  0  0  0  0  0  0  0  0  0  0
   38.1370   29.5380   37.7310 C   0  0  0  0  0  0  0  0  0  0  0  0
   36.9010   29.2180   37.1750 N   0  0  0  0  0  0  0  0  0  0  0  0
   35.9280   28.6840   37.9200 C   0  0  0  0  0  0  0  0  0  0  0  0
   36.0950   28.4360   39.2180 N   0  0  0  0  0  0  0  0  0  0  0  0
   39.3080   29.5460   39.3160 H   0  0  0  0  0  0  0  0  0  0  0  0
   38.8280   29.9570   37.0380 H   0  0  0  0  0  0  0  0  0  0  0  0
   37.4450   28.4740   41.2400 C   0  0  2  0  0  0  0  0  0  0  0  0
   38.9610   28.3490   41.5850 C   0  0  0  0  0  0  0  0  0  0  0  0
   39.1260   28.2660   43.0640 C   0  0  0  0  0  0  0  0  0  0  0  0
   38.1830   27.3630   43.7780 C   0  0  0  0  0  0  0  0  0  0  0  0
   36.8410   27.3590   43.2520 C   0  0  0  0  0  0  0  0  0  0  0  0
   36.7740   27.2790   41.7100 C   0  0  2  0  0  0  0  0  0  0  0  0
   37.1570   29.3740   41.8350 H   0  0  0  0  0  0  0  0  0  0  0  0
   39.3990   29.2910   41.1960 H   0  0  0  0  0  0  0  0  0  0  0  0
   39.4300   27.5440   41.0210 H   0  0  0  0  0  0  0  0  0  0  0  0
   39.2010   29.3080   43.4310 H   0  0  0  0  0  0  0  0  0  0  0  0
   40.1580   27.8420   43.2380 H   0  0  0  0  0  0  0  0  0  0  0  0
   38.5970   26.5320   44.3540 H   0  0  0  0  0  0  0  0  0  0  0  0
   38.0030   28.0080   44.7310 H   0  0  0  0  0  0  0  0  0  0  0  0
   36.1520   28.1980   43.5100 H   0  0  0  0  0  0  0  0  0  0  0  0
   36.3150   26.4250   43.5740 H   0  0  0  0  0  0  0  0  0  0  0  0
   35.6970   27.2110   41.5520 H   0  0  0  0  0  0  0  0  0  0  0  0
   37.5060   26.0870   41.2760 N   0  0  0  0  0  0  0  0  0  0  0  0
   37.1920   24.7200   41.3540 C   0  0  0  0  0  0  0  0  0  0  0  0
   36.3600   24.1480   40.5610 O   0  0  0  0  0  0  0  0  0  0  0  0
   37.8790   24.0060   42.3820 N   0  0  0  0  0  0  0  0  0  0  0  0
   38.5110   26.1490   40.8600 H   0  0  0  0  0  0  0  0  0  0  0  0
   38.9190   23.9360   42.4480 H   0  0  0  0  0  0  0  0  0  0  0  0
   37.8120   23.4220   43.2470 H   0  0  0  0  0  0  0  0  0  0  0  0
   34.6580   28.3500   37.2670 C   0  0  0  0  0  0  0  0  0  0  0  0
   34.2790   27.0400   37.0770 C   0  0  0  0  0  0  0  0  0  0  0  0
   33.1020   26.6600   36.4730 C   0  0  0  0  0  0  0  0  0  0  0  0
   32.2930   27.7090   36.0490 C   0  0  0  0  0  0  0  0  0  0  0  0
   32.6660   29.0170   36.2350 C   0  0  0  0  0  0  0  0  0  0  0  0
   33.8440   29.3290   36.8400 N   0  0  0  0  0  0  0  0  0  0  0  0
   34.9390   26.2510   37.4220 H   0  0  0  0  0  0  0  0  0  0  0  0
   32.8080   25.6400   36.3260 H   0  0  0  0  0  0  0  0  0  0  0  0
   31.3640   27.4280   35.5720 H   0  0  0  0  0  0  0  0  0  0  0  0
   30.7760   30.0850   38.2810 Cl  0  0  0  0  0  0  0  0  0  0  0  0
   30.9080   30.7140   36.6380 C   0  0  0  0  0  0  0  0  0  0  0  0
   31.8260   30.1240   35.7960 C   0  0  0  0  0  0  0  0  0  0  0  0
   31.8550   30.6830   34.5350 C   0  0  0  0  0  0  0  0  0  0  0  0
   32.5440   30.2850   33.8050 H   0  0  0  0  0  0  0  0  0  0  0  0
   31.0450   31.7320   34.1510 C   0  0  0  0  0  0  0  0  0  0  0  0
   31.1330   32.1110   33.1420 H   0  0  0  0  0  0  0  0  0  0  0  0
   30.1460   32.2760   35.0450 C   0  0  0  0  0  3  0  0  0  0  0  0
   30.0710   31.7600   36.3200 C   0  0  0  0  0  3  0  0  0  0  0  0
  1  9  1  0  0  0  0
  2  7  1  0  0  0  0
  2  1  2  0  0  0  0
  3  2  1  0  0  0  0
  4  3  2  0  0  0  0
  4  5  1  0  0  0  0
  5  6  2  0  0  0  0
  6  1  1  0  0  0  0
  8  3  1  0  0  0  0
  9 10  1  0  0  0  0
  9 14  1  0  0  0  0
  9 15  1  1  0  0  0
 10 11  1  0  0  0  0
 11 19  1  0  0  0  0
 11 18  1  0  0  0  0
 11 12  1  0  0  0  0
 12 20  1  0  0  0  0
 12 21  1  0  0  0  0
 13 22  1  0  0  0  0
 13 23  1  0  0  0  0
 13 12  1  0  0  0  0
 14 24  1  6  0  0  0
 14 13  1  0  0  0  0
 16 10  1  0  0  0  0
 17 10  1  0  0  0  0
 25 26  1  0  0  0  0
 25 14  1  0  0  0  0
 26 28  1  0  0  0  0
 27 26  2  0  0  0  0
 28 30  1  0  0  0  0
 28 31  1  0  0  0  0
 29 25  1  0  0  0  0
 32  5  1  0  0  0  0
 33 32  1  0  0  0  0
 33 38  1  0  0  0  0
 34 33  2  0  0  0  0
 35 36  2  0  0  0  0
 35 34  1  0  0  0  0
 36 37  1  0  0  0  0
 37 32  2  0  0  0  0
 39 34  1  0  0  0  0
 40 35  1  0  0  0  0
 42 41  1  0  0  0  0
 43 36  1  0  0  0  0
 43 42  2  0  0  0  0
 44 43  1  0  0  0  0
 45 44  1  0  0  0  0
 46 44  2  0  0  0  0
 46 48  1  0  0  0  0
 47 46  1  0  0  0  0
 48 49  2  0  0  0  0
 49 42  1  0  0  0  0
M  END
>  <minimizedAffinity>
-6.6777935

$$$$

 OpenBabel03252507343D

 49 52  0  0  1  0  0  0  0  0999 V2000
   38.6740   30.4690   41.5170 C   0  0  0  0  0  0  0  0  0  0  0  0
   38.9290   29.9920   42.7980 C   0  0  0  0  0  0  0  0  0  0  0  0
   38.5130   28.6870   43.1500 C   0  0  0  0  0  0  0  0  0  0  0  0
   37.8570   27.9570   42.1630 N   0  0  0  0  0  0  0  0  0  0  0  0
   37.6420   28.4760   40.9500 C   0  0  0  0  0  0  0  0  0  0  0  0
   38.0420   29.7060   40.6330 N   0  0  0  0  0  0  0  0  0  0  0  0
   39.3660   30.3780   43.6930 H   0  0  0  0  0  0  0  0  0  0  0  0
   38.6250   28.1660   44.0720 H   0  0  0  0  0  0  0  0  0  0  0  0
   39.1420   31.8010   41.1940 C   0  0  2  0  0  0  0  0  0  0  0  0
   38.0050   32.6710   40.5750 C   0  0  0  0  0  0  0  0  0  0  0  0
   38.4880   34.0700   40.4080 C   0  0  0  0  0  0  0  0  0  0  0  0
   39.8560   34.2280   39.8450 C   0  0  0  0  0  0  0  0  0  0  0  0
   40.8060   33.2400   40.2900 C   0  0  0  0  0  0  0  0  0  0  0  0
   40.2600   31.7940   40.2730 C   0  0  2  0  0  0  0  0  0  0  0  0
   39.3750   32.3730   42.1250 H   0  0  0  0  0  0  0  0  0  0  0  0
   37.1950   32.6250   41.3310 H   0  0  0  0  0  0  0  0  0  0  0  0
   37.6010   32.2100   39.6740 H   0  0  0  0  0  0  0  0  0  0  0  0
   38.2720   34.5940   41.3600 H   0  0  0  0  0  0  0  0  0  0  0  0
   37.7870   34.5550   39.6670 H   0  0  0  0  0  0  0  0  0  0  0  0
   39.9720   34.7840   38.9110 H   0  0  0  0  0  0  0  0  0  0  0  0
   40.2150   35.1280   40.4900 H   0  0  0  0  0  0  0  0  0  0  0  0
   41.2670   33.3430   41.3010 H   0  0  0  0  0  0  0  0  0  0  0  0
   41.6630   33.1920   39.5700 H   0  0  0  0  0  0  0  0  0  0  0  0
   41.1490   31.2330   40.5630 H   0  0  0  0  0  0  0  0  0  0  0  0
   39.7920   31.4930   38.9170 N   0  0  0  0  0  0  0  0  0  0  0  0
   40.4850   31.3380   37.7040 C   0  0  0  0  0  0  0  0  0  0  0  0
   41.1430   30.2770   37.4060 O   0  0  0  0  0  0  0  0  0  0  0  0
   40.3940   32.4530   36.8180 N   0  0  0  0  0  0  0  0  0  0  0  0
   38.7330   31.4130   38.6790 H   0  0  0  0  0  0  0  0  0  0  0  0
   39.4950   32.8280   36.4430 H   0  0  0  0  0  0  0  0  0  0  0  0
   40.8970   33.1950   36.2790 H   0  0  0  0  0  0  0  0  0  0  0  0
   36.9260   27.6610   39.9640 C   0  0  0  0  0  0  0  0  0  0  0  0
   37.0010   26.2870   39.9880 C   0  0  0  0  0  0  0  0  0  0  0  0
   36.3540   25.4650   39.0930 C   0  0  0  0  0  0  0  0  0  0  0  0
   35.5950   26.1240   38.1310 C   0  0  0  0  0  0  0  0  0  0  0  0
   35.5160   27.4950   38.1020 C   0  0  0  0  0  0  0  0  0  0  0  0
   36.1810   28.2530   39.0160 N   0  0  0  0  0  0  0  0  0  0  0  0
   37.6040   25.8110   40.7540 H   0  0  0  0  0  0  0  0  0  0  0  0
   36.4130   24.3940   39.1130 H   0  0  0  0  0  0  0  0  0  0  0  0
   35.0800   25.4940   37.4210 H   0  0  0  0  0  0  0  0  0  0  0  0
   36.9460   28.1540   35.5670 Cl  0  0  0  0  0  0  0  0  0  0  0  0
   35.2580   28.5620   35.8820 C   0  0  0  0  0  0  0  0  0  0  0  0
   34.7250   28.1960   37.1000 C   0  0  0  0  0  0  0  0  0  0  0  0
   33.4030   28.5580   37.2520 C   0  0  0  0  0  0  0  0  0  0  0  0
   32.8990   28.3120   38.1760 H   0  0  0  0  0  0  0  0  0  0  0  0
   32.6810   29.2220   36.2820 C   0  0  0  0  0  0  0  0  0  0  0  0
   31.6470   29.4680   36.4840 H   0  0  0  0  0  0  0  0  0  0  0  0
   33.2770   29.5590   35.0850 C   0  0  0  0  0  3  0  0  0  0  0  0
   34.5960   29.2240   34.8730 C   0  0  0  0  0  3  0  0  0  0  0  0
  1  2  1  0  0  0  0
  2  3  2  0  0  0  0
  2  7  1  0  0  0  0
  3  8  1  0  0  0  0
  4  3  1  0  0  0  0
  5  4  2  0  0  0  0
  6  5  1  0  0  0  0
  6  1  2  0  0  0  0
  9  1  1  0  0  0  0
  9 15  1  1  0  0  0
 10  9  1  0  0  0  0
 10 16  1  0  0  0  0
 11 10  1  0  0  0  0
 11 18  1  0  0  0  0
 12 13  1  0  0  0  0
 12 11  1  0  0  0  0
 12 21  1  0  0  0  0
 13 22  1  0  0  0  0
 14 13  1  0  0  0  0
 14 24  1  1  0  0  0
 14  9  1  0  0  0  0
 17 10  1  0  0  0  0
 19 11  1  0  0  0  0
 20 12  1  0  0  0  0
 23 13  1  0  0  0  0
 25 14  1  0  0  0  0
 26 25  1  0  0  0  0
 27 26  2  0  0  0  0
 28 26  1  0  0  0  0
 29 25  1  0  0  0  0
 30 28  1  0  0  0  0
 31 28  1  0  0  0  0
 32 33  1  0  0  0  0
 32  5  1  0  0  0  0
 33 38  1  0  0  0  0
 34 39  1  0  0  0  0
 34 33  2  0  0  0  0
 35 34  1  0  0  0  0
 36 35  2  0  0  0  0
 36 37  1  0  0  0  0
 37 32  2  0  0  0  0
 40 35  1  0  0  0  0
 41 42  1  0  0  0  0
 42 43  1  0  0  0  0
 43 44  2  0  0  0  0
 43 36  1  0  0  0  0
 44 45  1  0  0  0  0
 46 47  1  0  0  0  0
 46 44  1  0  0  0  0
 48 46  2  0  0  0  0
 49 48  1  0  0  0  0
 49 42  2  0  0  0  0
M  END
>  <minimizedAffinity>
-6.61029625

$$$$

 OpenBabel03252507343D

 49 52  0  0  1  0  0  0  0  0999 V2000
   38.5630   31.5140   40.1580 C   0  0  0  0  0  0  0  0  0  0  0  0
   37.2270   31.8630   40.3240 C   0  0  0  0  0  0  0  0  0  0  0  0
   36.3630   30.9910   41.0270 C   0  0  0  0  0  0  0  0  0  0  0  0
   36.9270   29.8130   41.5090 N   0  0  0  0  0  0  0  0  0  0  0  0
   38.2200   29.5370   41.3110 C   0  0  0  0  0  0  0  0  0  0  0  0
   39.0220   30.3700   40.6500 N   0  0  0  0  0  0  0  0  0  0  0  0
   36.5950   32.6680   40.0180 H   0  0  0  0  0  0  0  0  0  0  0  0
   35.3270   31.0960   41.2480 H   0  0  0  0  0  0  0  0  0  0  0  0
   39.4150   32.4510   39.4550 C   0  0  2  0  0  0  0  0  0  0  0  0
   40.3440   31.7230   38.4350 C   0  0  0  0  0  0  0  0  0  0  0  0
   41.0830   32.7350   37.6290 C   0  0  0  0  0  0  0  0  0  0  0  0
   41.6590   33.8800   38.3860 C   0  0  0  0  0  0  0  0  0  0  0  0
   40.8390   34.3560   39.4710 C   0  0  0  0  0  0  0  0  0  0  0  0
   40.2480   33.2300   40.3490 C   0  0  2  0  0  0  0  0  0  0  0  0
   38.8110   33.1020   38.7770 H   0  0  0  0  0  0  0  0  0  0  0  0
   39.6390   31.1540   37.7950 H   0  0  0  0  0  0  0  0  0  0  0  0
   40.9670   30.9790   38.9290 H   0  0  0  0  0  0  0  0  0  0  0  0
   40.4400   32.9780   36.7610 H   0  0  0  0  0  0  0  0  0  0  0  0
   41.9590   32.1890   37.1720 H   0  0  0  0  0  0  0  0  0  0  0  0
   42.7400   34.0360   38.3460 H   0  0  0  0  0  0  0  0  0  0  0  0
   41.4520   34.7280   37.6160 H   0  0  0  0  0  0  0  0  0  0  0  0
   39.9640   35.0120   39.2460 H   0  0  0  0  0  0  0  0  0  0  0  0
   41.4710   34.9320   40.1940 H   0  0  0  0  0  0  0  0  0  0  0  0
   39.7480   33.8120   41.1240 H   0  0  0  0  0  0  0  0  0  0  0  0
   41.3510   32.4090   40.8520 N   0  0  0  0  0  0  0  0  0  0  0  0
   41.7650   32.1020   42.1600 C   0  0  0  0  0  0  0  0  0  0  0  0
   41.1640   31.2410   42.8990 O   0  0  0  0  0  0  0  0  0  0  0  0
   42.9170   32.8170   42.6050 N   0  0  0  0  0  0  0  0  0  0  0  0
   42.0810   31.9540   40.1840 H   0  0  0  0  0  0  0  0  0  0  0  0
   43.8450   32.7810   42.1300 H   0  0  0  0  0  0  0  0  0  0  0  0
   43.3320   33.4730   43.3060 H   0  0  0  0  0  0  0  0  0  0  0  0
   38.7450   28.2680   41.8260 C   0  0  0  0  0  0  0  0  0  0  0  0
   39.3810   28.2040   43.0460 C   0  0  0  0  0  0  0  0  0  0  0  0
   39.8950   27.0470   43.5850 C   0  0  0  0  0  0  0  0  0  0  0  0
   39.7310   25.9090   42.8030 C   0  0  0  0  0  0  0  0  0  0  0  0
   39.0980   25.9660   41.5850 C   0  0  0  0  0  0  0  0  0  0  0  0
   38.6100   27.1430   41.1050 N   0  0  0  0  0  0  0  0  0  0  0  0
   39.4890   29.1150   43.6260 H   0  0  0  0  0  0  0  0  0  0  0  0
   40.3900   26.9990   44.5350 H   0  0  0  0  0  0  0  0  0  0  0  0
   40.1280   24.9910   43.2110 H   0  0  0  0  0  0  0  0  0  0  0  0
   36.6210   24.3900   42.1160 Cl  0  0  0  0  0  0  0  0  0  0  0  0
   37.8190   23.9600   40.8950 C   0  0  0  0  0  0  0  0  0  0  0  0
   38.9190   24.7810   40.7570 C   0  0  0  0  0  0  0  0  0  0  0  0
   39.7980   24.3640   39.7800 C   0  0  0  0  0  0  0  0  0  0  0  0
   40.6910   24.9450   39.5990 H   0  0  0  0  0  0  0  0  0  0  0  0
   39.5990   23.2340   39.0120 C   0  0  0  0  0  0  0  0  0  0  0  0
   40.3400   22.9790   38.2660 H   0  0  0  0  0  0  0  0  0  0  0  0
   38.4770   22.4570   39.2030 C   0  0  0  0  0  3  0  0  0  0  0  0
   37.5610   22.8220   40.1650 C   0  0  0  0  0  3  0  0  0  0  0  0
  1  2  2  0  0  0  0
  1  6  1  0  0  0  0
  2  3  1  0  0  0  0
  3  8  1  0  0  0  0
  3  4  2  0  0  0  0
  5  4  1  0  0  0  0
  5 32  1  0  0  0  0
  6  5  2  0  0  0  0
  7  2  1  0  0  0  0
  9 15  1  6  0  0  0
  9  1  1  0  0  0  0
  9 14  1  0  0  0  0
 10 17  1  0  0  0  0
 10  9  1  0  0  0  0
 11 12  1  0  0  0  0
 11 10  1  0  0  0  0
 12 13  1  0  0  0  0
 13 23  1  0  0  0  0
 13 14  1  0  0  0  0
 14 25  1  0  0  0  0
 14 24  1  1  0  0  0
 16 10  1  0  0  0  0
 18 11  1  0  0  0  0
 19 11  1  0  0  0  0
 20 12  1  0  0  0  0
 21 12  1  0  0  0  0
 22 13  1  0  0  0  0
 25 26  1  0  0  0  0
 26 28  1  0  0  0  0
 26 27  2  0  0  0  0
 28 31  1  0  0  0  0
 29 25  1  0  0  0  0
 30 28  1  0  0  0  0
 32 33  1  0  0  0  0
 33 34  2  0  0  0  0
 33 38  1  0  0  0  0
 34 39  1  0  0  0  0
 35 40  1  0  0  0  0
 35 34  1  0  0  0  0
 36 35  2  0  0  0  0
 37 36  1  0  0  0  0
 37 32  2  0  0  0  0
 42 41  1  0  0  0  0
 43 42  1  0  0  0  0
 43 36  1  0  0  0  0
 44 43  2  0  0  0  0
 45 44  1  0  0  0  0
 46 48  2  0  0  0  0
 46 44  1  0  0  0  0
 47 46  1  0  0  0  0
 48 49  1  0  0  0  0
 49 42  2  0  0  0  0
M  END
>  <minimizedAffinity>
-6.60287237

$$$$

 OpenBabel03252507343D

 49 52  0  0  1  0  0  0  0  0999 V2000
   38.6950   31.8120   39.3040 C   0  0  0  0  0  0  0  0  0  0  0  0
   37.7070   31.6820   38.3350 C   0  0  0  0  0  0  0  0  0  0  0  0
   36.7570   30.6400   38.4440 C   0  0  0  0  0  0  0  0  0  0  0  0
   36.8870   29.7940   39.5430 N   0  0  0  0  0  0  0  0  0  0  0  0
   37.8640   29.9730   40.4380 C   0  0  0  0  0  0  0  0  0  0  0  0
   38.7480   30.9620   40.3220 N   0  0  0  0  0  0  0  0  0  0  0  0
   37.4500   32.1760   37.4220 H   0  0  0  0  0  0  0  0  0  0  0  0
   35.9420   30.3960   37.8040 H   0  0  0  0  0  0  0  0  0  0  0  0
   39.6290   32.9110   39.1630 C   0  0  2  0  0  0  0  0  0  0  0  0
   40.8090   32.5380   38.2140 C   0  0  0  0  0  0  0  0  0  0  0  0
   41.6520   33.7430   37.9770 C   0  0  0  0  0  0  0  0  0  0  0  0
   41.9690   34.5670   39.1750 C   0  0  0  0  0  0  0  0  0  0  0  0
   40.8940   34.6780   40.1290 C   0  0  0  0  0  0  0  0  0  0  0  0
   40.1840   33.3390   40.4310 C   0  0  2  0  0  0  0  0  0  0  0  0
   39.1590   33.7590   38.6080 H   0  0  0  0  0  0  0  0  0  0  0  0
   40.3060   32.2230   37.2780 H   0  0  0  0  0  0  0  0  0  0  0  0
   41.3450   31.6620   38.5770 H   0  0  0  0  0  0  0  0  0  0  0  0
   41.2130   34.2690   37.1070 H   0  0  0  0  0  0  0  0  0  0  0  0
   42.6410   33.3600   37.5900 H   0  0  0  0  0  0  0  0  0  0  0  0
   43.0190   34.7070   39.4450 H   0  0  0  0  0  0  0  0  0  0  0  0
   41.8940   35.6240   38.6930 H   0  0  0  0  0  0  0  0  0  0  0  0
   40.0560   35.3890   39.9260 H   0  0  0  0  0  0  0  0  0  0  0  0
   41.3060   34.9740   41.1270 H   0  0  0  0  0  0  0  0  0  0  0  0
   39.4850   33.6450   41.2100 H   0  0  0  0  0  0  0  0  0  0  0  0
   41.1890   32.3770   40.8900 N   0  0  0  0  0  0  0  0  0  0  0  0
   41.5570   31.9570   42.1790 C   0  0  0  0  0  0  0  0  0  0  0  0
   40.8620   31.1260   42.8680 O   0  0  0  0  0  0  0  0  0  0  0  0
   42.7760   32.5190   42.6660 N   0  0  0  0  0  0  0  0  0  0  0  0
   41.8720   31.8840   40.1990 H   0  0  0  0  0  0  0  0  0  0  0  0
   43.6990   32.4080   42.1920 H   0  0  0  0  0  0  0  0  0  0  0  0
   43.2530   33.0870   43.4030 H   0  0  0  0  0  0  0  0  0  0  0  0
   37.9570   29.0330   41.5590 C   0  0  0  0  0  0  0  0  0  0  0  0
   36.8570   28.7350   42.3310 C   0  0  0  0  0  0  0  0  0  0  0  0
   36.8780   27.8630   43.3950 C   0  0  0  0  0  0  0  0  0  0  0  0
   38.1140   27.2800   43.6550 C   0  0  0  0  0  0  0  0  0  0  0  0
   39.2150   27.5740   42.8890 C   0  0  0  0  0  0  0  0  0  0  0  0
   39.1310   28.4470   41.8480 N   0  0  0  0  0  0  0  0  0  0  0  0
   35.9110   29.2110   42.0960 H   0  0  0  0  0  0  0  0  0  0  0  0
   36.0200   27.6310   43.9960 H   0  0  0  0  0  0  0  0  0  0  0  0
   38.1480   26.5920   44.4870 H   0  0  0  0  0  0  0  0  0  0  0  0
   39.6850   24.9270   41.5950 Cl  0  0  0  0  0  0  0  0  0  0  0  0
   40.8660   25.7480   42.6160 C   0  0  0  0  0  0  0  0  0  0  0  0
   40.5150   26.9690   43.1510 C   0  0  0  0  0  0  0  0  0  0  0  0
   41.5010   27.5320   43.9340 C   0  0  0  0  0  0  0  0  0  0  0  0
   41.3160   28.4910   44.3960 H   0  0  0  0  0  0  0  0  0  0  0  0
   42.7230   26.9320   44.1620 C   0  0  0  0  0  0  0  0  0  0  0  0
   43.4410   27.4440   44.7900 H   0  0  0  0  0  0  0  0  0  0  0  0
   43.0100   25.7080   43.5970 C   0  0  0  0  0  3  0  0  0  0  0  0
   42.0640   25.0960   42.8040 C   0  0  0  0  0  3  0  0  0  0  0  0
  1  6  1  0  0  0  0
  2  3  1  0  0  0  0
  2  1  2  0  0  0  0
  3  4  2  0  0  0  0
  4  5  1  0  0  0  0
  5 32  1  0  0  0  0
  6  5  2  0  0  0  0
  7  2  1  0  0  0  0
  8  3  1  0  0  0  0
  9 15  1  6  0  0  0
  9  1  1  0  0  0  0
  9 14  1  0  0  0  0
 10 17  1  0  0  0  0
 10  9  1  0  0  0  0
 11 10  1  0  0  0  0
 11 12  1  0  0  0  0
 12 20  1  0  0  0  0
 12 13  1  0  0  0  0
 13 14  1  0  0  0  0
 13 23  1  0  0  0  0
 14 25  1  0  0  0  0
 14 24  1  1  0  0  0
 16 10  1  0  0  0  0
 18 11  1  0  0  0  0
 19 11  1  0  0  0  0
 21 12  1  0  0  0  0
 22 13  1  0  0  0  0
 25 26  1  0  0  0  0
 26 28  1  0  0  0  0
 26 27  2  0  0  0  0
 28 31  1  0  0  0  0
 29 25  1  0  0  0  0
 30 28  1  0  0  0  0
 32 37  2  0  0  0  0
 32 33  1  0  0  0  0
 33 34  2  0  0  0  0
 34 35  1  0  0  0  0
 34 39  1  0  0  0  0
 35 40  1  0  0  0  0
 36 43  1  0  0  0  0
 36 35  2  0  0  0  0
 37 36  1  0  0  0  0
 38 33  1  0  0  0  0
 41 42  1  0  0  0  0
 42 49  2  0  0  0  0
 42 43  1  0  0  0  0
 43 44  2  0  0  0  0
 44 46  1  0  0  0  0
 44 45  1  0  0  0  0
 46 47  1  0  0  0  0
 48 46  2  0  0  0  0
 49 48  1  0  0  0  0
M  END
>  <minimizedAffinity>
-6.60044575

$$$$
