
 OpenBabel03242515173D

 37 39  0  0  0  0  0  0  0  0999 V2000
   45.4330   30.6760   47.1870 C   0  0  0  0  0  0  0  0  0  0  0  0
   45.4260   30.0370   45.9670 C   0  0  0  0  0  0  0  0  0  0  0  0
   45.1740   28.7060   46.2110 C   0  0  0  0  0  0  0  0  0  0  0  0
   45.0340   28.5480   47.5230 N   0  0  0  0  0  0  0  0  0  0  0  0
   45.1940   29.7480   48.0970 N   0  0  0  0  0  0  0  0  0  0  0  0
   45.6010   30.5790   45.0470 H   0  0  0  0  0  0  0  0  0  0  0  0
   42.4290   28.4820   45.2070 Cl  0  0  0  0  0  0  0  0  0  0  0  0
   43.8140   27.6160   44.5230 C   0  0  0  0  0  0  0  0  0  0  0  0
   45.0850   27.7930   45.0900 C   0  0  0  0  0  0  0  0  0  0  0  0
   46.0440   27.0530   44.4460 C   0  0  0  0  0  0  0  0  0  0  0  0
   47.0480   27.1520   44.8240 H   0  0  0  0  0  0  0  0  0  0  0  0
   45.8080   26.2310   43.3690 C   0  0  0  0  0  0  0  0  0  0  0  0
   46.6530   25.7020   42.9520 H   0  0  0  0  0  0  0  0  0  0  0  0
   44.5350   26.1050   42.8640 C   0  0  0  0  0  0  0  0  0  0  0  0
   43.5180   26.8120   43.4510 C   0  0  0  0  0  0  0  0  0  0  0  0
   44.7450   27.3010   48.2330 C   0  0  0  0  0  0  0  0  0  0  0  0
   44.3490   27.6070   49.5570 F   0  0  0  0  0  0  0  0  0  0  0  0
   45.8090   26.4740   48.2110 F   0  0  0  0  0  0  0  0  0  0  0  0
   43.6440   26.7060   47.6600 F   0  0  0  0  0  0  0  0  0  0  0  0
   45.6450   32.0990   47.5000 C   0  0  0  0  0  0  0  0  0  0  0  0
   44.6590   32.5990   47.3230 H   0  0  0  0  0  0  0  0  0  0  0  0
   45.8960   32.2570   48.5560 H   0  0  0  0  0  0  0  0  0  0  0  0
   46.6190   32.7360   46.5510 C   0  0  0  0  0  0  0  0  0  0  0  0
   47.3630   33.3220   47.1670 H   0  0  0  0  0  0  0  0  0  0  0  0
   47.1300   31.9390   46.0320 H   0  0  0  0  0  0  0  0  0  0  0  0
   44.5550   35.4360   45.0310 C   0  0  0  0  0  0  0  0  0  0  0  0
   45.0940   35.4760   43.7240 C   0  0  0  0  0  0  0  0  0  0  0  0
   46.1170   34.5880   43.4410 C   0  0  0  0  0  0  0  0  0  0  0  0
   46.5000   33.7740   44.4360 N   0  0  0  0  0  0  0  0  0  0  0  0
   45.9920   33.7410   45.6630 C   0  0  0  0  0  0  0  0  0  0  0  0
   45.0160   34.5810   45.9490 N   0  0  0  0  0  0  0  0  0  0  0  0
   43.7550   36.1370   45.2390 H   0  0  0  0  0  0  0  0  0  0  0  0
   44.7350   36.1610   42.9680 H   0  0  0  0  0  0  0  0  0  0  0  0
   46.6800   34.6280   42.0870 C   0  0  0  0  0  0  0  0  0  0  0  0
   47.4570   33.4940   41.8760 F   0  0  0  0  0  0  0  0  0  0  0  0
   47.5980   35.6820   42.0870 F   0  0  0  0  0  0  0  0  0  0  0  0
   45.7270   34.7420   41.1210 F   0  0  0  0  0  0  0  0  0  0  0  0
  1 20  1  0  0  0  0
  1  5  2  0  0  0  0
  2  3  2  0  0  0  0
  2  1  1  0  0  0  0
  3  4  1  0  0  0  0
  4  5  1  0  0  0  0
  4 16  1  0  0  0  0
  6  2  1  0  0  0  0
  8  9  1  0  0  0  0
  8  7  1  0  0  0  0
  9  3  1  0  0  0  0
 10 11  1  0  0  0  0
 10  9  2  0  0  0  0
 12 10  1  0  0  0  0
 13 12  1  0  0  0  0
 14 12  2  0  0  0  0
 14 15  1  0  0  0  0
 15  8  2  0  0  0  0
 16 17  1  0  0  0  0
 18 16  1  0  0  0  0
 19 16  1  0  0  0  0
 20 22  1  0  0  0  0
 21 20  1  0  0  0  0
 23 24  1  0  0  0  0
 23 20  1  0  0  0  0
 25 23  1  0  0  0  0
 26 32  1  0  0  0  0
 26 31  1  0  0  0  0
 27 26  2  0  0  0  0
 28 27  1  0  0  0  0
 28 29  2  0  0  0  0
 29 30  1  0  0  0  0
 30 31  2  0  0  0  0
 30 23  1  0  0  0  0
 33 27  1  0  0  0  0
 34 28  1  0  0  0  0
 35 34  1  0  0  0  0
 36 34  1  0  0  0  0
 37 34  1  0  0  0  0
M  END
>  <minimizedAffinity>
-5.40613413

>  <minimizedRMSD>
1.03377843

$$$$
