
 OpenBabel03252503513D

 21 22  0  0  0  0  0  0  0  0999 V2000
   47.6020   34.8320   41.8120 C   0  0  0  0  0  0  0  0  0  0  0  0
   47.5380   34.3690   43.1380 C   0  0  0  0  0  0  0  0  0  0  0  0
   46.3860   33.7230   43.5860 C   0  0  0  0  0  0  0  0  0  0  0  0
   45.3830   33.5830   42.6920 N   0  0  0  0  0  0  0  0  0  0  0  0
   45.4490   34.0260   41.4300 C   0  0  0  0  0  0  0  0  0  0  0  0
   46.5560   34.6500   40.9920 N   0  0  0  0  0  0  0  0  0  0  0  0
   48.3690   34.5170   43.7810 H   0  0  0  0  0  0  0  0  0  0  0  0
   44.6040   33.8840   40.7530 H   0  0  0  0  0  0  0  0  0  0  0  0
   44.6200   35.3690   45.2710 Cl  0  0  0  0  0  0  0  0  0  0  0  0
   45.4620   33.9150   45.8290 C   0  0  0  0  0  0  0  0  0  0  0  0
   46.2660   33.2220   44.9490 C   0  0  0  0  0  0  0  0  0  0  0  0
   46.8840   32.1100   45.4470 C   0  0  0  0  0  0  0  0  0  0  0  0
   47.5230   31.5420   44.7850 H   0  0  0  0  0  0  0  0  0  0  0  0
   46.7380   31.6760   46.7500 C   0  0  0  0  0  0  0  0  0  0  0  0
   47.2540   30.7850   47.0930 H   0  0  0  0  0  0  0  0  0  0  0  0
   45.9170   32.4240   47.5680 C   0  0  0  0  0  0  0  0  0  0  0  0
   45.2590   33.5550   47.1450 C   0  0  0  0  0  0  0  0  0  0  0  0
   48.8560   35.5140   41.3910 C   0  0  0  0  0  0  0  0  0  0  0  0
   48.8810   35.7220   40.0230 F   0  0  0  0  0  0  0  0  0  0  0  0
   48.9510   36.7150   42.0690 F   0  0  0  0  0  0  0  0  0  0  0  0
   49.9550   34.7570   41.7920 F   0  0  0  0  0  0  0  0  0  0  0  0
  1  2  1  0  0  0  0
  2  3  2  0  0  0  0
  2  7  1  0  0  0  0
  3 11  1  0  0  0  0
  4  3  1  0  0  0  0
  5  4  2  0  0  0  0
  6  5  1  0  0  0  0
  6  1  2  0  0  0  0
  8  5  1  0  0  0  0
  9 10  1  0  0  0  0
 10 17  1  0  0  0  0
 11 12  1  0  0  0  0
 11 10  2  0  0  0  0
 12 14  2  0  0  0  0
 13 12  1  0  0  0  0
 14 15  1  0  0  0  0
 14 16  1  0  0  0  0
 17 16  2  0  0  0  0
 18 21  1  0  0  0  0
 18  1  1  0  0  0  0
 18 20  1  0  0  0  0
 19 18  1  0  0  0  0
M  END
>  <minimizedAffinity>
-5.50639153

>  <minimizedRMSD>
1.50541162

$$$$
