
 OpenBabel03252509233D

 27 29  0  0  1  0  0  0  0  0999 V2000
   46.2090   34.8480   42.2700 C   0  0  1  0  0  0  0  0  0  0  0  0
   47.6570   35.3890   42.1200 C   0  0  0  0  0  0  0  0  0  0  0  0
   47.1450   34.0140   41.6060 C   0  0  2  0  0  0  0  0  0  0  0  0
   45.4560   35.5030   41.7910 H   0  0  0  0  0  0  0  0  0  0  0  0
   47.8030   36.1700   41.3720 H   0  0  0  0  0  0  0  0  0  0  0  0
   48.3160   35.4160   42.9800 H   0  0  0  0  0  0  0  0  0  0  0  0
   47.5990   33.1720   42.1860 H   0  0  0  0  0  0  0  0  0  0  0  0
   49.0780   35.6720   39.9200 Cl  0  0  0  0  0  0  0  0  0  0  0  0
   48.0080   34.4400   39.2820 C   0  0  0  0  0  0  0  0  0  0  0  0
   47.1900   33.7680   40.1480 C   0  0  0  0  0  0  0  0  0  0  0  0
   46.3240   32.7800   39.6760 C   0  0  0  0  0  0  0  0  0  0  0  0
   45.6340   32.1840   40.2570 H   0  0  0  0  0  0  0  0  0  0  0  0
   46.3160   32.5000   38.3250 C   0  0  0  0  0  0  0  0  0  0  0  0
   45.6770   31.7520   37.8830 H   0  0  0  0  0  0  0  0  0  0  0  0
   47.1600   33.1990   37.4630 C   0  0  0  0  0  3  0  0  0  0  0  0
   48.0280   34.1880   37.9230 C   0  0  0  0  0  3  0  0  0  0  0  0
   44.6840   34.9980   45.7000 C   0  0  0  0  0  0  0  0  0  0  0  0
   44.9760   35.3670   44.3430 C   0  0  0  0  0  0  0  0  0  0  0  0
   45.9040   34.5710   43.7250 C   0  0  0  0  0  0  0  0  0  0  0  0
   46.5050   33.5050   44.3660 N   0  0  0  0  0  0  0  0  0  0  0  0
   46.1960   33.2020   45.6410 C   0  0  0  0  0  0  0  0  0  0  0  0
   45.2890   33.9440   46.3100 N   0  0  0  0  0  0  0  0  0  0  0  0
   43.9500   35.6270   46.1910 H   0  0  0  0  0  0  0  0  0  0  0  0
   46.6460   32.3760   46.1710 H   0  0  0  0  0  0  0  0  0  0  0  0
   44.3610   36.4750   43.7120 N   0  0  0  0  0  0  0  0  0  0  0  0
   43.8650   36.2200   42.8440 H   0  0  0  0  0  0  0  0  0  0  0  0
   44.3140   37.4900   43.9560 H   0  0  0  0  0  0  0  0  0  0  0  0
  1  4  1  6  0  0  0
  1 19  1  0  0  0  0
  2  1  1  0  0  0  0
  2  6  1  0  0  0  0
  3  2  1  0  0  0  0
  3  7  1  1  0  0  0
  3  1  1  0  0  0  0
  5  2  1  0  0  0  0
  9  8  1  0  0  0  0
  9 10  1  0  0  0  0
 10  3  1  0  0  0  0
 11 10  2  0  0  0  0
 11 12  1  0  0  0  0
 13 11  1  0  0  0  0
 14 13  1  0  0  0  0
 15 16  1  0  0  0  0
 15 13  2  0  0  0  0
 16  9  2  0  0  0  0
 17 23  1  0  0  0  0
 17 22  1  0  0  0  0
 18 17  2  0  0  0  0
 19 18  1  0  0  0  0
 19 20  2  0  0  0  0
 20 21  1  0  0  0  0
 21 24  1  0  0  0  0
 21 22  2  0  0  0  0
 25 27  1  0  0  0  0
 25 18  1  0  0  0  0
 26 25  1  0  0  0  0
M  END
>  <minimizedAffinity>
-5.02833414

>  <minimizedRMSD>
0.555141985

$$$$
