
     RDKit          3D

 51 54  0  0  0  0  0  0  0  0999 V2000
   47.5602   31.9654   46.4111 C   0  0  2  0  0  0  0  0  0  0  0  0
   47.2980   30.4960   45.9582 C   0  0  0  0  0  0  0  0  0  0  0  0
   48.1068   29.5681   46.7965 C   0  0  0  0  0  0  0  0  0  0  0  0
   48.1133   29.8438   48.2593 C   0  0  0  0  0  0  0  0  0  0  0  0
   48.1237   31.2432   48.6065 C   0  0  0  0  0  0  0  0  0  0  0  0
   47.1296   32.0976   47.7884 C   0  0  2  0  0  0  0  0  0  0  0  0
   46.9136   32.9152   45.5279 C   0  0  0  0  0  0  0  0  0  0  0  0
   45.8016   33.5911   46.0167 C   0  0  0  0  0  0  0  0  0  0  0  0
   45.1231   34.5093   45.1825 C   0  0  0  0  0  0  0  0  0  0  0  0
   45.6345   34.6760   43.8976 N   0  0  0  0  0  0  0  0  0  0  0  0
   46.7111   33.9951   43.4912 C   0  0  0  0  0  0  0  0  0  0  0  0
   47.3374   33.1323   44.2887 N   0  0  0  0  0  0  0  0  0  0  0  0
   47.2105   34.2353   42.1343 C   0  0  0  0  0  0  0  0  0  0  0  0
   48.1889   35.1732   41.8925 C   0  0  0  0  0  0  0  0  0  0  0  0
   48.7008   35.4459   40.6439 C   0  0  0  0  0  0  0  0  0  0  0  0
   48.1562   34.6958   39.6067 C   0  0  0  0  0  0  0  0  0  0  0  0
   47.1800   33.7586   39.8422 C   0  0  0  0  0  0  0  0  0  0  0  0
   46.7143   33.5348   41.1014 N   0  0  0  0  0  0  0  0  0  0  0  0
   45.7887   31.5325   47.9533 N   0  0  0  0  0  0  0  0  0  0  0  0
   45.1895   30.8492   49.0250 C   0  0  0  0  0  0  0  0  0  0  0  0
   44.7579   31.4428   50.0781 O   0  0  0  0  0  0  0  0  0  0  0  0
   45.0882   29.4355   48.8509 N   0  0  0  0  0  0  0  0  0  0  0  0
   48.6711   32.0300   46.3148 H   0  0  0  0  0  0  0  0  0  0  0  0
   47.6485   30.4769   44.9057 H   0  0  0  0  0  0  0  0  0  0  0  0
   46.2306   30.2783   45.9227 H   0  0  0  0  0  0  0  0  0  0  0  0
   49.0908   29.4701   46.2992 H   0  0  0  0  0  0  0  0  0  0  0  0
   47.6381   28.5479   46.6733 H   0  0  0  0  0  0  0  0  0  0  0  0
   47.7455   29.0682   48.9349 H   0  0  0  0  0  0  0  0  0  0  0  0
   49.2268   29.5916   48.4862 H   0  0  0  0  0  0  0  0  0  0  0  0
   49.0831   31.8116   48.5469 H   0  0  0  0  0  0  0  0  0  0  0  0
   47.7603   31.3721   49.6565 H   0  0  0  0  0  0  0  0  0  0  0  0
   47.2539   33.0724   48.2627 H   0  0  0  0  0  0  0  0  0  0  0  0
   45.2770   33.6442   46.9459 H   0  0  0  0  0  0  0  0  0  0  0  0
   44.2652   35.1045   45.3868 H   0  0  0  0  0  0  0  0  0  0  0  0
   48.5882   35.7376   42.7277 H   0  0  0  0  0  0  0  0  0  0  0  0
   49.4632   36.1772   40.4571 H   0  0  0  0  0  0  0  0  0  0  0  0
   48.5465   34.8970   38.6205 H   0  0  0  0  0  0  0  0  0  0  0  0
   45.0616   31.5301   47.1419 H   0  0  0  0  0  0  0  0  0  0  0  0
   44.5752   28.9812   48.0639 H   0  0  0  0  0  0  0  0  0  0  0  0
   45.3310   28.4831   49.2070 H   0  0  0  0  0  0  0  0  0  0  0  0
   48.9942   33.2077   37.5379 Cl  0  0  0  0  0  0  0  0  0  0  0  0
   47.3281   32.6375   37.6384 C   0  0  0  0  0  0  0  0  0  0  0  0
   46.6019   32.9666   38.7642 C   0  0  0  0  0  0  0  0  0  0  0  0
   45.3139   32.4772   38.7507 C   0  0  0  0  0  0  0  0  0  0  0  0
   44.6684   32.6846   39.5920 H   0  0  0  0  0  0  0  0  0  0  0  0
   44.7961   31.7293   37.7130 C   0  0  0  0  0  0  0  0  0  0  0  0
   43.7728   31.3840   37.7837 H   0  0  0  0  0  0  0  0  0  0  0  0
   45.5772   31.4356   36.6149 C   0  0  0  0  0  0  0  0  0  0  0  0
   46.8747   31.8973   36.5698 C   0  0  0  0  0  0  0  0  0  0  0  0
   45.1244   30.8485   35.8327 H   0  0  0  0  0  0  0  0  0  0  0  0
   47.5021   31.6769   35.7170 H   0  0  0  0  0  0  0  0  0  0  0  0
  1  6  1  0
  2  1  1  0
  2  3  1  0
  3  4  1  0
  4  5  1  0
  6 19  1  0
  6  5  1  0
  7  8  2  0
  7  1  1  0
  9  8  1  0
 10  9  2  0
 11 10  1  0
 11 12  2  0
 12  7  1  0
 13 11  1  0
 14 13  2  0
 15 14  1  0
 16 17  1  0
 16 15  2  0
 17 18  2  0
 18 13  1  0
 19 20  1  0
 20 21  2  0
 22 20  1  0
  1 23  1  1
  2 24  1  0
  2 25  1  0
  3 26  1  0
  3 27  1  0
  4 28  1  0
  4 29  1  0
  5 30  1  0
  5 31  1  0
  6 32  1  1
  8 33  1  0
  9 34  1  0
 14 35  1  0
 15 36  1  0
 16 37  1  0
 19 38  1  0
 22 39  1  0
 22 40  1  0
 41 42  1  0
 42 43  2  0
 43 44  1  0
 44 45  1  0
 44 46  2  0
 46 47  1  0
 46 48  1  0
 48 49  2  0
 49 42  1  0
 48 50  1  0
 49 51  1  0
 17 43  1  0
M  ISO  8  23  13  24  13  25  13  26  13  27  13  28  13  29  13  30  13
M  ISO  8  31  13  32  13  33  14  34  14  35  14  36  14  37  14  45  15
M  ISO  1  47  16
M  END
>  <DihAtoms>  (1) 
15,16,42,41

>  <DihDeg>  (1) 
179.99849863331585

$$$$
