
 OpenBabel03242511123D

 44 48  0  0  1  0  0  0  0  0999 V2000
   50.0870   32.4430   41.4130 C   0  0  1  0  0  0  0  0  0  0  0  0
   49.2190   32.2340   40.1950 C   0  0  0  0  0  0  0  0  0  0  0  0
   48.6790   32.1040   41.6380 C   0  0  2  0  0  0  0  0  0  0  0  0
   50.3710   33.4760   41.6020 H   0  0  0  0  0  0  0  0  0  0  0  0
   48.8760   33.1090   39.6190 H   0  0  0  0  0  0  0  0  0  0  0  0
   49.4540   31.3100   39.6440 H   0  0  0  0  0  0  0  0  0  0  0  0
   48.4580   31.0660   41.9680 H   0  0  0  0  0  0  0  0  0  0  0  0
   52.8870   30.0600   41.0120 C   0  0  0  0  0  0  0  0  0  0  0  0
   53.0390   29.5690   42.3360 C   0  0  0  0  0  0  0  0  0  0  0  0
   52.1910   30.0600   43.3330 C   0  0  0  0  0  0  0  0  0  0  0  0
   51.2960   30.9590   42.9640 N   0  0  0  0  0  0  0  0  0  0  0  0
   51.1490   31.4250   41.7170 C   0  0  0  0  0  0  0  0  0  0  0  0
   51.9520   30.9760   40.7140 N   0  0  0  0  0  0  0  0  0  0  0  0
   53.5630   29.6550   40.2670 H   0  0  0  0  0  0  0  0  0  0  0  0
   53.7830   28.8650   42.5520 H   0  0  0  0  0  0  0  0  0  0  0  0
   49.7620   28.6020   44.7390 Cl  0  0  0  0  0  0  0  0  0  0  0  0
   51.2490   29.0710   45.4850 C   0  0  0  0  0  0  0  0  0  0  0  0
   52.2020   29.7010   44.7330 C   0  0  0  0  0  0  0  0  0  0  0  0
   53.3140   30.0370   45.4750 C   0  0  0  0  0  0  0  0  0  0  0  0
   54.1770   30.5460   45.0410 H   0  0  0  0  0  0  0  0  0  0  0  0
   53.4580   29.7720   46.8160 C   0  0  0  0  0  0  0  0  0  0  0  0
   54.3480   30.0520   47.3590 H   0  0  0  0  0  0  0  0  0  0  0  0
   52.4650   29.1340   47.5210 C   0  0  0  0  0  0  0  0  0  0  0  0
   51.3370   28.7820   46.8170 C   0  0  0  0  0  0  0  0  0  0  0  0
   47.7960   33.1490   42.0900 N   0  0  0  0  0  0  0  0  0  0  0  0
   47.8030   33.8470   41.3210 H   0  0  0  0  0  0  0  0  0  0  0  0
   47.1640   33.0880   43.3440 C   0  0  0  0  0  0  0  0  0  0  0  0
   47.4860   32.0820   44.2160 C   0  0  0  0  0  0  0  0  0  0  0  0
   46.9630   31.9980   45.4940 C   0  0  0  0  0  0  0  0  0  0  0  0
   46.0750   32.9480   45.9550 C   0  0  0  0  0  0  0  0  0  0  0  0
   45.7330   33.9690   45.0990 C   0  0  0  0  0  0  0  0  0  0  0  0
   44.8500   34.9410   45.5400 C   0  0  0  0  0  0  0  0  0  0  0  0
   44.4770   35.9790   44.7480 C   0  0  0  0  0  0  0  0  0  0  0  0
   45.0190   36.0250   43.4690 C   0  0  0  0  0  0  0  0  0  0  0  0
   45.8900   35.0620   43.0420 C   0  0  0  0  0  0  0  0  0  0  0  0
   46.2710   34.0210   43.8320 C   0  0  0  0  0  0  0  0  0  0  0  0
   48.1780   31.2830   43.9530 H   0  0  0  0  0  0  0  0  0  0  0  0
   47.2120   31.2080   46.1870 H   0  0  0  0  0  0  0  0  0  0  0  0
   45.6460   32.9140   46.9520 H   0  0  0  0  0  0  0  0  0  0  0  0
   44.4550   34.8580   46.5450 H   0  0  0  0  0  0  0  0  0  0  0  0
   43.7880   36.7470   45.0810 H   0  0  0  0  0  0  0  0  0  0  0  0
   44.7400   36.8400   42.8130 H   0  0  0  0  0  0  0  0  0  0  0  0
   46.3900   35.1480   41.7660 O   0  0  0  0  0  0  0  0  0  0  0  0
   46.1070   35.7620   41.0380 H   0  0  0  0  0  0  0  0  0  0  0  0
  1  4  1  1  0  0  0
  1  3  1  0  0  0  0
  1 12  1  0  0  0  0
  2  1  1  0  0  0  0
  2  3  1  0  0  0  0
  3  7  1  1  0  0  0
  3 25  1  0  0  0  0
  5  2  1  0  0  0  0
  6  2  1  0  0  0  0
  8  9  1  0  0  0  0
  9 15  1  0  0  0  0
  9 10  2  0  0  0  0
 10 18  1  0  0  0  0
 11 10  1  0  0  0  0
 12 11  2  0  0  0  0
 13  8  2  0  0  0  0
 13 12  1  0  0  0  0
 14  8  1  0  0  0  0
 16 17  1  0  0  0  0
 17 24  1  0  0  0  0
 18 19  1  0  0  0  0
 18 17  2  0  0  0  0
 19 21  2  0  0  0  0
 20 19  1  0  0  0  0
 21 22  1  0  0  0  0
 21 23  1  0  0  0  0
 24 23  2  0  0  0  0
 25 27  1  0  0  0  0
 26 25  1  0  0  0  0
 27 36  2  0  0  0  0
 27 28  1  0  0  0  0
 28 29  2  0  0  0  0
 29 30  1  0  0  0  0
 29 38  1  0  0  0  0
 30 39  1  0  0  0  0
 31 32  1  0  0  0  0
 31 30  2  0  0  0  0
 32 40  1  0  0  0  0
 33 41  1  0  0  0  0
 33 32  2  0  0  0  0
 34 33  1  0  0  0  0
 35 34  2  0  0  0  0
 35 36  1  0  0  0  0
 36 31  1  0  0  0  0
 37 28  1  0  0  0  0
 42 34  1  0  0  0  0
 43 35  1  0  0  0  0
 44 43  1  0  0  0  0
M  END
>  <minimizedAffinity>
-5.4595809

>  <minimizedRMSD>
1.7298491

$$$$
