
 OpenBabel03242521523D

 36 39  0  0  0  0  0  0  0  0999 V2000
   46.1930   32.1840   46.1630 C   0  0  0  0  0  0  0  0  0  0  0  0
   45.6060   32.7880   47.2590 C   0  0  0  0  0  0  0  0  0  0  0  0
   45.8700   32.4100   48.5810 C   0  0  0  0  0  0  0  0  0  0  0  0
   46.7600   31.3850   48.8500 C   0  0  0  0  0  0  0  0  0  0  0  0
   47.3650   30.7480   47.7600 C   0  0  0  0  0  0  0  0  0  0  0  0
   48.1870   29.6900   48.0380 C   0  0  0  0  0  0  0  0  0  0  0  0
   48.7270   28.9700   46.9590 C   0  0  0  0  0  0  0  0  0  0  0  0
   48.3830   29.3690   45.6390 C   0  0  0  0  0  0  0  0  0  0  0  0
   47.5550   30.4430   45.4900 C   0  0  0  0  0  0  0  0  0  0  0  0
   47.0340   31.1840   46.4990 C   0  0  0  0  0  0  0  0  0  0  0  0
   44.9050   33.5980   47.0180 H   0  0  0  0  0  0  0  0  0  0  0  0
   45.3350   32.9720   49.3280 H   0  0  0  0  0  0  0  0  0  0  0  0
   46.9630   31.1070   49.8520 H   0  0  0  0  0  0  0  0  0  0  0  0
   48.3780   29.4670   49.0860 H   0  0  0  0  0  0  0  0  0  0  0  0
   49.3730   28.1670   47.3810 H   0  0  0  0  0  0  0  0  0  0  0  0
   48.9390   28.6020   45.1150 H   0  0  0  0  0  0  0  0  0  0  0  0
   44.7970   29.1780   44.6370 Cl  0  0  0  0  0  0  0  0  0  0  0  0
   46.1310   29.5790   43.5250 C   0  0  0  0  0  0  0  0  0  0  0  0
   47.2470   30.1430   44.0980 C   0  0  0  0  0  0  0  0  0  0  0  0
   48.2300   30.5070   43.1200 C   0  0  0  0  0  0  0  0  0  0  0  0
   49.1760   30.9840   43.4360 H   0  0  0  0  0  0  0  0  0  0  0  0
   48.1580   30.3460   41.7550 C   0  0  0  0  0  0  0  0  0  0  0  0
   48.9400   30.6450   41.0930 H   0  0  0  0  0  0  0  0  0  0  0  0
   47.0040   29.7690   41.2770 C   0  0  0  0  0  0  0  0  0  0  0  0
   46.0180   29.3980   42.1630 C   0  0  0  0  0  0  0  0  0  0  0  0
   45.2970   33.5440   42.8130 C   0  0  0  0  0  0  0  0  0  0  0  0
   46.5020   34.1880   42.4790 C   0  0  0  0  0  0  0  0  0  0  0  0
   47.5560   34.0900   43.3950 C   0  0  0  0  0  0  0  0  0  0  0  0
   47.2780   33.3880   44.4930 N   0  0  0  0  0  0  0  0  0  0  0  0
   46.1710   32.7730   44.8380 C   0  0  0  0  0  0  0  0  0  0  0  0
   45.1810   32.8720   43.9590 N   0  0  0  0  0  0  0  0  0  0  0  0
   44.4670   33.6060   42.1200 H   0  0  0  0  0  0  0  0  0  0  0  0
   46.6510   34.7450   41.5660 H   0  0  0  0  0  0  0  0  0  0  0  0
   48.8510   34.6060   43.1450 N   0  0  0  0  0  0  0  0  0  0  0  0
   49.1210   35.2820   43.9170 H   0  0  0  0  0  0  0  0  0  0  0  0
   49.5210   34.4280   42.3740 H   0  0  0  0  0  0  0  0  0  0  0  0
  1 10  2  0  0  0  0
  1  2  1  0  0  0  0
  2  3  2  0  0  0  0
  3  4  1  0  0  0  0
  3 12  1  0  0  0  0
  4 13  1  0  0  0  0
  5  6  1  0  0  0  0
  5  4  2  0  0  0  0
  6 14  1  0  0  0  0
  7 15  1  0  0  0  0
  7  6  2  0  0  0  0
  8  7  1  0  0  0  0
  9  8  2  0  0  0  0
  9 10  1  0  0  0  0
 10  5  1  0  0  0  0
 11  2  1  0  0  0  0
 16  8  1  0  0  0  0
 18 19  1  0  0  0  0
 18 17  1  0  0  0  0
 19  9  1  0  0  0  0
 20 21  1  0  0  0  0
 20 19  2  0  0  0  0
 22 20  1  0  0  0  0
 23 22  1  0  0  0  0
 24 22  2  0  0  0  0
 24 25  1  0  0  0  0
 25 18  2  0  0  0  0
 26 31  1  0  0  0  0
 27 26  2  0  0  0  0
 27 28  1  0  0  0  0
 28 29  2  0  0  0  0
 29 30  1  0  0  0  0
 30  1  1  0  0  0  0
 31 30  2  0  0  0  0
 32 26  1  0  0  0  0
 33 27  1  0  0  0  0
 34 28  1  0  0  0  0
 34 35  1  0  0  0  0
 36 34  1  0  0  0  0
M  END
>  <minimizedAffinity>
-4.9824605

>  <minimizedRMSD>
1.88631415

$$$$
