REMARK  Name = 
REMARK  6 active torsions:
REMARK  status: ('A' for Active; 'I' for Inactive)
REMARK    1  A    between atoms: C_1  and  C_7
REMARK    2  A    between atoms: C_2  and  C_15
REMARK    3  A    between atoms: C_5  and  C_9
REMARK    4  A    between atoms: C_15  and  C_16
REMARK    5  A    between atoms: C_18  and  C_19
REMARK    6  A    between atoms: C_21  and  C_43
REMARK                            x       y       z     vdW  Elec       q    Type
REMARK                         _______ _______ _______ _____ _____    ______ ____
ROOT
ATOM      1  C   UNL     1      46.090  30.900  46.910  0.00  0.00    +0.000 C 
ATOM      2  H   UNL     1      47.045  30.447  46.693  0.00  0.00    +0.000 HD
ATOM      3  H   UNL     1      45.287  30.116  46.807  0.00  0.00    +0.000 HD
ENDROOT
BRANCH   1   4
ATOM      4  C   UNL     1      45.896  31.507  48.260  0.00  0.00    +0.000 C 
ATOM      5  C   UNL     1      45.712  30.529  49.370  0.00  0.00    +0.000 C 
ATOM      6  C   UNL     1      46.927  31.337  49.301  0.00  0.00    +0.000 C 
ATOM      7  H   UNL     1      45.081  32.289  48.316  0.00  0.00    +0.000 HD
ATOM      8  H   UNL     1      45.846  29.440  49.145  0.00  0.00    +0.000 HD
ATOM      9  H   UNL     1      44.982  30.692  50.188  0.00  0.00    +0.000 HD
ATOM     10  H   UNL     1      47.016  32.159  50.042  0.00  0.00    +0.000 HD
BRANCH   6  11
ATOM     11  C   UNL     1      48.240  30.741  48.901  0.00  0.00    +0.000 C 
ATOM     12  C   UNL     1      49.174  30.480  50.110  0.00  0.00    +0.000 C 
ATOM     13  C   UNL     1      49.504  31.552  49.165  0.00  0.00    +0.000 C 
ATOM     14  H   UNL     1      48.279  29.882  48.201  0.00  0.00    +0.000 HD
ATOM     15  H   UNL     1      48.839  30.804  51.111  0.00  0.00    +0.000 HD
ATOM     16  H   UNL     1      49.790  29.585  50.139  0.00  0.00    +0.000 HD
ATOM     17  H   UNL     1      50.315  31.307  48.420  0.00  0.00    +0.000 HD
BRANCH  13  20
ATOM     18 CL   UNL     1      48.177  33.055  46.939  0.00  0.00    +0.000 Cl
ATOM     19  C   UNL     1      48.694  33.770  48.465  0.00  0.00    +0.000 A 
ATOM     20  C   UNL     1      49.300  32.983  49.430  0.00  0.00    +0.000 A 
ATOM     21  C   UNL     1      49.686  33.602  50.613  0.00  0.00    +0.000 A 
ATOM     22  H   UNL     1      50.155  32.988  51.357  0.00  0.00    +0.000 HD
ATOM     23  C   UNL     1      49.496  34.955  50.871  0.00  0.00    +0.000 A 
ATOM     24  H   UNL     1      49.814  35.383  51.802  0.00  0.00    +0.000 HD
ATOM     25  C   UNL     1      48.882  35.680  49.857  0.00  0.00    +0.000 A 
ATOM     26  C   UNL     1      48.476  35.120  48.657  0.00  0.00    +0.000 A 
ENDBRANCH  13  20
ENDBRANCH   6  11
ENDBRANCH   1   4
BRANCH   1  28
ATOM     27  C   UNL     1      45.764  33.134  46.232  0.00  0.00    +0.000 C 
ATOM     28  C   UNL     1      45.908  31.942  45.829  0.00  0.00    +0.000 C 
BRANCH  27  33
ATOM     29  C   UNL     1      44.528  36.138  44.486  0.00  0.00    +0.000 A 
ATOM     30  C   UNL     1      45.203  36.092  43.272  0.00  0.00    +0.000 A 
ATOM     31  C   UNL     1      46.052  35.040  43.089  0.00  0.00    +0.000 A 
ATOM     32  N   UNL     1      46.202  34.106  44.070  0.00  0.00    +0.000 NA
ATOM     33  C   UNL     1      45.530  34.184  45.238  0.00  0.00    +0.000 A 
ATOM     34  N   UNL     1      44.708  35.202  45.413  0.00  0.00    +0.000 NA
ATOM     35  H   UNL     1      43.850  36.944  44.679  0.00  0.00    +0.000 HD
ATOM     36  H   UNL     1      45.089  36.827  42.491  0.00  0.00    +0.000 HD
BRANCH  31  37
ATOM     37  C   UNL     1      46.824  34.860  41.872  0.00  0.00    +0.000 A 
ATOM     38  C   UNL     1      48.050  35.413  41.636  0.00  0.00    +0.000 A 
ATOM     39  C   UNL     1      48.771  35.232  40.473  0.00  0.00    +0.000 A 
ATOM     40  C   UNL     1      48.248  34.447  39.460  0.00  0.00    +0.000 A 
ATOM     41  C   UNL     1      47.016  33.865  39.643  0.00  0.00    +0.000 A 
ATOM     42  C   UNL     1      46.350  34.087  40.829  0.00  0.00    +0.000 A 
ATOM     43  H   UNL     1      48.499  36.041  42.413  0.00  0.00    +0.000 HD
ATOM     44  H   UNL     1      49.745  35.721  40.385  0.00  0.00    +0.000 HD
ATOM     45  H   UNL     1      48.874  34.354  38.581  0.00  0.00    +0.000 HD
ATOM     46  H   UNL     1      46.622  33.257  38.847  0.00  0.00    +0.000 HD
ATOM     47  H   UNL     1      45.388  33.591  40.887  0.00  0.00    +0.000 HD
ENDBRANCH  31  37
ENDBRANCH  27  33
ENDBRANCH   1  28
TORSDOF 6
