
 OpenBabel03252500473D

 26 28  0  0  0  0  0  0  0  0999 V2000
   38.5770   29.1030   39.6270 C   0  0  0  0  0  0  0  0  0  0  0  0
   37.9060   29.9300   40.5420 C   0  0  0  0  0  0  0  0  0  0  0  0
   37.0860   29.3470   41.5010 C   0  0  0  0  0  0  0  0  0  0  0  0
   36.9690   27.9770   41.5100 N   0  0  0  0  0  0  0  0  0  0  0  0
   37.6300   27.2180   40.6130 C   0  0  0  0  0  0  0  0  0  0  0  0
   38.4280   27.7670   39.6780 N   0  0  0  0  0  0  0  0  0  0  0  0
   39.2230   29.5360   38.8680 H   0  0  0  0  0  0  0  0  0  0  0  0
   36.5620   29.9680   42.2150 H   0  0  0  0  0  0  0  0  0  0  0  0
   37.4800   25.7650   40.6540 C   0  0  0  0  0  0  0  0  0  0  0  0
   36.6360   25.0950   39.8320 C   0  0  0  0  0  0  0  0  0  0  0  0
   36.4810   23.7360   39.8530 C   0  0  0  0  0  0  0  0  0  0  0  0
   37.2330   23.0460   40.7680 N   0  0  0  0  0  0  0  0  0  0  0  0
   38.0640   23.7110   41.5790 C   0  0  0  0  0  0  0  0  0  0  0  0
   38.2270   25.0570   41.5670 N   0  0  0  0  0  0  0  0  0  0  0  0
   36.0290   25.6110   39.0990 H   0  0  0  0  0  0  0  0  0  0  0  0
   35.8190   23.1800   39.2120 H   0  0  0  0  0  0  0  0  0  0  0  0
   38.6970   23.2390   42.3330 H   0  0  0  0  0  0  0  0  0  0  0  0
   40.1430   31.2670   42.1320 Cl  0  0  0  0  0  0  0  0  0  0  0  0
   39.0570   32.1380   41.0980 C   0  0  0  0  0  0  0  0  0  0  0  0
   38.0970   31.3730   40.4490 C   0  0  0  0  0  0  0  0  0  0  0  0
   37.1940   31.9930   39.6070 C   0  0  0  0  0  0  0  0  0  0  0  0
   36.4050   31.4920   39.0530 H   0  0  0  0  0  0  0  0  0  0  0  0
   37.2380   33.3730   39.4040 C   0  0  0  0  0  0  0  0  0  0  0  0
   36.5260   33.8750   38.7390 H   0  0  0  0  0  0  0  0  0  0  0  0
   38.1970   34.1600   40.0490 C   0  0  0  0  0  3  0  0  0  0  0  0
   39.0950   33.5020   40.8930 C   0  0  0  0  0  3  0  0  0  0  0  0
  1  6  2  0  0  0  0
  1  2  1  0  0  0  0
  2  3  2  0  0  0  0
  3  4  1  0  0  0  0
  3  8  1  0  0  0  0
  5  9  1  0  0  0  0
  5  4  2  0  0  0  0
  6  5  1  0  0  0  0
  7  1  1  0  0  0  0
  9 14  1  0  0  0  0
 10 11  1  0  0  0  0
 10  9  2  0  0  0  0
 11 12  2  0  0  0  0
 12 13  1  0  0  0  0
 13 17  1  0  0  0  0
 14 13  2  0  0  0  0
 15 10  1  0  0  0  0
 16 11  1  0  0  0  0
 19 18  1  0  0  0  0
 20  2  1  0  0  0  0
 20 19  2  0  0  0  0
 21 20  1  0  0  0  0
 22 21  1  0  0  0  0
 23 21  2  0  0  0  0
 23 25  1  0  0  0  0
 24 23  1  0  0  0  0
 25 26  2  0  0  0  0
 26 19  1  0  0  0  0
M  END
>  <minimizedAffinity>
-4.74348688

$$$$

 OpenBabel03252500473D

 26 28  0  0  0  0  0  0  0  0999 V2000
   39.4350   28.1360   40.1210 C   0  0  0  0  0  0  0  0  0  0  0  0
   38.1010   28.0260   40.5460 C   0  0  0  0  0  0  0  0  0  0  0  0
   37.3400   29.1810   40.6770 C   0  0  0  0  0  0  0  0  0  0  0  0
   37.9320   30.3870   40.3830 N   0  0  0  0  0  0  0  0  0  0  0  0
   39.2160   30.4480   39.9780 C   0  0  0  0  0  0  0  0  0  0  0  0
   39.9680   29.3390   39.8450 N   0  0  0  0  0  0  0  0  0  0  0  0
   40.0500   27.2460   40.0110 H   0  0  0  0  0  0  0  0  0  0  0  0
   36.3100   29.1160   41.0030 H   0  0  0  0  0  0  0  0  0  0  0  0
   39.8100   31.7490   39.6750 C   0  0  0  0  0  0  0  0  0  0  0  0
   39.6130   32.8410   40.4530 C   0  0  0  0  0  0  0  0  0  0  0  0
   40.1590   34.0670   40.1880 C   0  0  0  0  0  0  0  0  0  0  0  0
   40.9430   34.1600   39.0670 N   0  0  0  0  0  0  0  0  0  0  0  0
   41.1350   33.0800   38.3010 C   0  0  0  0  0  0  0  0  0  0  0  0
   40.5990   31.8610   38.5530 N   0  0  0  0  0  0  0  0  0  0  0  0
   39.0000   32.8000   41.3440 H   0  0  0  0  0  0  0  0  0  0  0  0
   40.0180   34.9490   40.7880 H   0  0  0  0  0  0  0  0  0  0  0  0
   41.7430   33.0690   37.3940 H   0  0  0  0  0  0  0  0  0  0  0  0
   38.2590   26.9090   43.3830 Cl  0  0  0  0  0  0  0  0  0  0  0  0
   37.5560   26.0420   42.0560 C   0  0  0  0  0  0  0  0  0  0  0  0
   37.5670   26.6990   40.8330 C   0  0  0  0  0  0  0  0  0  0  0  0
   37.0250   26.0760   39.7250 C   0  0  0  0  0  0  0  0  0  0  0  0
   36.9820   26.4970   38.7240 H   0  0  0  0  0  0  0  0  0  0  0  0
   36.4690   24.7990   39.8250 C   0  0  0  0  0  0  0  0  0  0  0  0
   36.0370   24.2960   38.9530 H   0  0  0  0  0  0  0  0  0  0  0  0
   36.4490   24.1220   41.0480 C   0  0  0  0  0  3  0  0  0  0  0  0
   37.0050   24.7810   42.1470 C   0  0  0  0  0  3  0  0  0  0  0  0
  1  2  1  0  0  0  0
  2  3  2  0  0  0  0
  2 20  1  0  0  0  0
  3  8  1  0  0  0  0
  4  3  1  0  0  0  0
  5  4  2  0  0  0  0
  6  5  1  0  0  0  0
  6  1  2  0  0  0  0
  7  1  1  0  0  0  0
  9  5  1  0  0  0  0
  9 10  1  0  0  0  0
 10 15  1  0  0  0  0
 11 10  2  0  0  0  0
 11 16  1  0  0  0  0
 12 11  1  0  0  0  0
 13 14  1  0  0  0  0
 13 12  2  0  0  0  0
 14  9  2  0  0  0  0
 17 13  1  0  0  0  0
 19 26  1  0  0  0  0
 19 18  1  0  0  0  0
 20 19  2  0  0  0  0
 21 23  2  0  0  0  0
 21 20  1  0  0  0  0
 22 21  1  0  0  0  0
 23 25  1  0  0  0  0
 24 23  1  0  0  0  0
 25 26  2  0  0  0  0
M  END
>  <minimizedAffinity>
-4.64017153

$$$$

 OpenBabel03252500473D

 26 28  0  0  0  0  0  0  0  0999 V2000
   39.0900   30.0850   38.6390 C   0  0  0  0  0  0  0  0  0  0  0  0
   37.9210   30.8360   38.8400 C   0  0  0  0  0  0  0  0  0  0  0  0
   38.0270   32.2080   39.0320 C   0  0  0  0  0  0  0  0  0  0  0  0
   39.2820   32.7710   39.0170 N   0  0  0  0  0  0  0  0  0  0  0  0
   40.3800   32.0130   38.8200 C   0  0  0  0  0  0  0  0  0  0  0  0
   40.2940   30.6830   38.6320 N   0  0  0  0  0  0  0  0  0  0  0  0
   39.0310   29.0090   38.4860 H   0  0  0  0  0  0  0  0  0  0  0  0
   37.1380   32.8030   39.1890 H   0  0  0  0  0  0  0  0  0  0  0  0
   41.6960   32.6480   38.8100 C   0  0  0  0  0  0  0  0  0  0  0  0
   42.2150   33.2710   39.8960 C   0  0  0  0  0  0  0  0  0  0  0  0
   43.4440   33.8710   39.9090 C   0  0  0  0  0  0  0  0  0  0  0  0
   44.1630   33.8210   38.7430 N   0  0  0  0  0  0  0  0  0  0  0  0
   43.6480   33.2070   37.6720 C   0  0  0  0  0  0  0  0  0  0  0  0
   42.4320   32.6090   37.6480 N   0  0  0  0  0  0  0  0  0  0  0  0
   41.6720   33.3270   40.8320 H   0  0  0  0  0  0  0  0  0  0  0  0
   43.8780   34.3710   40.7570 H   0  0  0  0  0  0  0  0  0  0  0  0
   44.1530   33.1230   36.7080 H   0  0  0  0  0  0  0  0  0  0  0  0
   36.4270   30.4070   41.4690 Cl  0  0  0  0  0  0  0  0  0  0  0  0
   35.8290   29.8640   39.9340 C   0  0  0  0  0  0  0  0  0  0  0  0
   36.6370   30.1430   38.8390 C   0  0  0  0  0  0  0  0  0  0  0  0
   36.2310   29.7440   37.5800 C   0  0  0  0  0  0  0  0  0  0  0  0
   36.7830   29.9090   36.6590 H   0  0  0  0  0  0  0  0  0  0  0  0
   35.0240   29.0670   37.4010 C   0  0  0  0  0  0  0  0  0  0  0  0
   34.6920   28.7460   36.4070 H   0  0  0  0  0  0  0  0  0  0  0  0
   34.1980   28.7780   38.4910 C   0  0  0  0  0  3  0  0  0  0  0  0
   34.6380   29.1950   39.7490 C   0  0  0  0  0  3  0  0  0  0  0  0
  1  2  1  0  0  0  0
  2  3  2  0  0  0  0
  3  8  1  0  0  0  0
  4  3  1  0  0  0  0
  5  4  2  0  0  0  0
  6  1  2  0  0  0  0
  6  5  1  0  0  0  0
  7  1  1  0  0  0  0
  9  5  1  0  0  0  0
  9 10  1  0  0  0  0
 10 11  2  0  0  0  0
 10 15  1  0  0  0  0
 11 16  1  0  0  0  0
 12 11  1  0  0  0  0
 13 12  2  0  0  0  0
 14 13  1  0  0  0  0
 14  9  2  0  0  0  0
 17 13  1  0  0  0  0
 19 18  1  0  0  0  0
 20  2  1  0  0  0  0
 20 19  2  0  0  0  0
 21 20  1  0  0  0  0
 22 21  1  0  0  0  0
 23 21  2  0  0  0  0
 23 25  1  0  0  0  0
 24 23  1  0  0  0  0
 25 26  2  0  0  0  0
 26 19  1  0  0  0  0
M  END
>  <minimizedAffinity>
-4.60076523

$$$$

 OpenBabel03252500473D

 26 28  0  0  0  0  0  0  0  0999 V2000
   37.4530   27.4000   39.4220 C   0  0  0  0  0  0  0  0  0  0  0  0
   37.2200   27.8120   40.7440 C   0  0  0  0  0  0  0  0  0  0  0  0
   36.0720   28.5400   41.0300 C   0  0  0  0  0  0  0  0  0  0  0  0
   35.2100   28.8270   39.9970 N   0  0  0  0  0  0  0  0  0  0  0  0
   35.4710   28.4130   38.7410 C   0  0  0  0  0  0  0  0  0  0  0  0
   36.5790   27.7070   38.4470 N   0  0  0  0  0  0  0  0  0  0  0  0
   38.3450   26.8300   39.1750 H   0  0  0  0  0  0  0  0  0  0  0  0
   35.8750   28.8650   42.0430 H   0  0  0  0  0  0  0  0  0  0  0  0
   34.5310   28.7380   37.6690 C   0  0  0  0  0  0  0  0  0  0  0  0
   33.2250   29.0130   37.9030 C   0  0  0  0  0  0  0  0  0  0  0  0
   32.3290   29.3190   36.9160 C   0  0  0  0  0  0  0  0  0  0  0  0
   32.8110   29.3390   35.6340 N   0  0  0  0  0  0  0  0  0  0  0  0
   34.1020   29.0670   35.4060 C   0  0  0  0  0  0  0  0  0  0  0  0
   34.9990   28.7620   36.3760 N   0  0  0  0  0  0  0  0  0  0  0  0
   32.8130   29.0050   38.9050 H   0  0  0  0  0  0  0  0  0  0  0  0
   31.2870   29.5400   37.0750 H   0  0  0  0  0  0  0  0  0  0  0  0
   34.5650   29.0620   34.4180 H   0  0  0  0  0  0  0  0  0  0  0  0
   36.9790   25.1420   42.2060 Cl  0  0  0  0  0  0  0  0  0  0  0  0
   38.2360   26.2920   42.5250 C   0  0  0  0  0  0  0  0  0  0  0  0
   38.1960   27.4560   41.7690 C   0  0  0  0  0  0  0  0  0  0  0  0
   39.1630   28.4240   41.9630 C   0  0  0  0  0  0  0  0  0  0  0  0
   39.2250   29.3680   41.4290 H   0  0  0  0  0  0  0  0  0  0  0  0
   40.1740   28.2420   42.9080 C   0  0  0  0  0  0  0  0  0  0  0  0
   40.9460   29.0030   43.0710 H   0  0  0  0  0  0  0  0  0  0  0  0
   40.2310   27.0770   43.6790 C   0  0  0  0  0  3  0  0  0  0  0  0
   39.2390   26.1200   43.4570 C   0  0  0  0  0  3  0  0  0  0  0  0
  1  2  1  0  0  0  0
  2  3  2  0  0  0  0
  2 20  1  0  0  0  0
  3  8  1  0  0  0  0
  4  3  1  0  0  0  0
  5  4  2  0  0  0  0
  6  5  1  0  0  0  0
  6  1  2  0  0  0  0
  7  1  1  0  0  0  0
  9 10  1  0  0  0  0
  9  5  1  0  0  0  0
 10 15  1  0  0  0  0
 11 16  1  0  0  0  0
 11 10  2  0  0  0  0
 12 11  1  0  0  0  0
 13 12  2  0  0  0  0
 13 14  1  0  0  0  0
 14  9  2  0  0  0  0
 17 13  1  0  0  0  0
 18 19  1  0  0  0  0
 19 26  1  0  0  0  0
 20 21  1  0  0  0  0
 20 19  2  0  0  0  0
 21 23  2  0  0  0  0
 22 21  1  0  0  0  0
 23 24  1  0  0  0  0
 23 25  1  0  0  0  0
 26 25  2  0  0  0  0
M  END
>  <minimizedAffinity>
-4.60003281

$$$$

 OpenBabel03252500473D

 26 28  0  0  0  0  0  0  0  0999 V2000
   38.2570   28.4090   39.7440 C   0  0  0  0  0  0  0  0  0  0  0  0
   38.7630   27.7400   40.8710 C   0  0  0  0  0  0  0  0  0  0  0  0
   39.6810   28.3920   41.6840 C   0  0  0  0  0  0  0  0  0  0  0  0
   40.0570   29.6710   41.3450 N   0  0  0  0  0  0  0  0  0  0  0  0
   39.5480   30.2770   40.2540 C   0  0  0  0  0  0  0  0  0  0  0  0
   38.6560   29.6600   39.4560 N   0  0  0  0  0  0  0  0  0  0  0  0
   37.5370   27.9190   39.0930 H   0  0  0  0  0  0  0  0  0  0  0  0
   40.0810   27.8930   42.5560 H   0  0  0  0  0  0  0  0  0  0  0  0
   39.9720   31.6370   39.9270 C   0  0  0  0  0  0  0  0  0  0  0  0
   39.5080   32.7250   40.5880 C   0  0  0  0  0  0  0  0  0  0  0  0
   39.8910   34.0060   40.2990 C   0  0  0  0  0  0  0  0  0  0  0  0
   40.7940   34.1610   39.2790 N   0  0  0  0  0  0  0  0  0  0  0  0
   41.2490   33.0850   38.6280 C   0  0  0  0  0  0  0  0  0  0  0  0
   40.8770   31.8120   38.9060 N   0  0  0  0  0  0  0  0  0  0  0  0
   38.7950   32.6360   41.3980 H   0  0  0  0  0  0  0  0  0  0  0  0
   39.5380   34.8860   40.8080 H   0  0  0  0  0  0  0  0  0  0  0  0
   41.9670   33.1210   37.8060 H   0  0  0  0  0  0  0  0  0  0  0  0
   36.5750   27.2740   42.9490 Cl  0  0  0  0  0  0  0  0  0  0  0  0
   37.3220   25.9940   42.0490 C   0  0  0  0  0  0  0  0  0  0  0  0
   38.3000   26.3840   41.1430 C   0  0  0  0  0  0  0  0  0  0  0  0
   38.9430   25.4230   40.3860 C   0  0  0  0  0  0  0  0  0  0  0  0
   39.7200   25.6170   39.6530 H   0  0  0  0  0  0  0  0  0  0  0  0
   38.6200   24.0720   40.5240 C   0  0  0  0  0  0  0  0  0  0  0  0
   39.1240   23.3020   39.9290 H   0  0  0  0  0  0  0  0  0  0  0  0
   37.6380   23.6610   41.4300 C   0  0  0  0  0  3  0  0  0  0  0  0
   37.0070   24.6570   42.1780 C   0  0  0  0  0  3  0  0  0  0  0  0
  1  2  1  0  0  0  0
  2 20  1  0  0  0  0
  2  3  2  0  0  0  0
  3  8  1  0  0  0  0
  4  3  1  0  0  0  0
  5  4  2  0  0  0  0
  6  1  2  0  0  0  0
  6  5  1  0  0  0  0
  7  1  1  0  0  0  0
  9  5  1  0  0  0  0
  9 10  1  0  0  0  0
 10 15  1  0  0  0  0
 11 10  2  0  0  0  0
 11 16  1  0  0  0  0
 12 11  1  0  0  0  0
 13 14  1  0  0  0  0
 13 12  2  0  0  0  0
 14  9  2  0  0  0  0
 17 13  1  0  0  0  0
 19 26  1  0  0  0  0
 19 18  1  0  0  0  0
 20 19  2  0  0  0  0
 21 23  2  0  0  0  0
 21 20  1  0  0  0  0
 22 21  1  0  0  0  0
 23 25  1  0  0  0  0
 24 23  1  0  0  0  0
 25 26  2  0  0  0  0
M  END
>  <minimizedAffinity>
-4.53842592

$$$$

 OpenBabel03252500473D

 26 28  0  0  0  0  0  0  0  0999 V2000
   40.3700   29.3890   40.3090 C   0  0  0  0  0  0  0  0  0  0  0  0
   39.5340   29.8540   41.3370 C   0  0  0  0  0  0  0  0  0  0  0  0
   39.5490   31.2050   41.6580 C   0  0  0  0  0  0  0  0  0  0  0  0
   40.3900   32.0320   40.9480 N   0  0  0  0  0  0  0  0  0  0  0  0
   41.1770   31.5450   39.9680 C   0  0  0  0  0  0  0  0  0  0  0  0
   41.1740   30.2380   39.6450 N   0  0  0  0  0  0  0  0  0  0  0  0
   40.3750   28.3350   40.0410 H   0  0  0  0  0  0  0  0  0  0  0  0
   38.9120   31.5820   42.4460 H   0  0  0  0  0  0  0  0  0  0  0  0
   42.0560   32.4550   39.2370 C   0  0  0  0  0  0  0  0  0  0  0  0
   43.2960   32.7830   39.6760 C   0  0  0  0  0  0  0  0  0  0  0  0
   44.1350   33.6320   39.0070 C   0  0  0  0  0  0  0  0  0  0  0  0
   43.6650   34.1610   37.8340 N   0  0  0  0  0  0  0  0  0  0  0  0
   42.4400   33.8360   37.4040 C   0  0  0  0  0  0  0  0  0  0  0  0
   41.6010   32.9970   38.0570 N   0  0  0  0  0  0  0  0  0  0  0  0
   43.6960   32.3810   40.5990 H   0  0  0  0  0  0  0  0  0  0  0  0
   45.1220   33.9080   39.3350 H   0  0  0  0  0  0  0  0  0  0  0  0
   41.9910   34.2130   36.4830 H   0  0  0  0  0  0  0  0  0  0  0  0
   40.7480   27.9440   43.3870 Cl  0  0  0  0  0  0  0  0  0  0  0  0
   39.0620   27.9610   42.9830 C   0  0  0  0  0  0  0  0  0  0  0  0
   38.6790   28.8950   42.0290 C   0  0  0  0  0  0  0  0  0  0  0  0
   37.3520   28.9730   41.6520 C   0  0  0  0  0  0  0  0  0  0  0  0
   36.9460   29.6630   40.9180 H   0  0  0  0  0  0  0  0  0  0  0  0
   36.3990   28.1250   42.2180 C   0  0  0  0  0  0  0  0  0  0  0  0
   35.3440   28.1770   41.9260 H   0  0  0  0  0  0  0  0  0  0  0  0
   36.7650   27.1780   43.1800 C   0  0  0  0  0  3  0  0  0  0  0  0
   38.1140   27.1270   43.5380 C   0  0  0  0  0  3  0  0  0  0  0  0
  1  2  1  0  0  0  0
  2  3  2  0  0  0  0
  2 20  1  0  0  0  0
  3  8  1  0  0  0  0
  4  3  1  0  0  0  0
  5  4  2  0  0  0  0
  6  5  1  0  0  0  0
  6  1  2  0  0  0  0
  7  1  1  0  0  0  0
  9 10  1  0  0  0  0
  9  5  1  0  0  0  0
 10 15  1  0  0  0  0
 11 16  1  0  0  0  0
 11 10  2  0  0  0  0
 12 11  1  0  0  0  0
 13 12  2  0  0  0  0
 13 14  1  0  0  0  0
 14  9  2  0  0  0  0
 17 13  1  0  0  0  0
 19 18  1  0  0  0  0
 19 26  1  0  0  0  0
 20 19  2  0  0  0  0
 21 20  1  0  0  0  0
 21 23  2  0  0  0  0
 22 21  1  0  0  0  0
 23 25  1  0  0  0  0
 24 23  1  0  0  0  0
 25 26  2  0  0  0  0
M  END
>  <minimizedAffinity>
-4.52384996

$$$$

 OpenBabel03252500473D

 26 28  0  0  0  0  0  0  0  0999 V2000
   36.0290   29.5310   37.2780 C   0  0  0  0  0  0  0  0  0  0  0  0
   35.1250   28.7880   38.0550 C   0  0  0  0  0  0  0  0  0  0  0  0
   35.0040   29.0780   39.4080 C   0  0  0  0  0  0  0  0  0  0  0  0
   35.7810   30.0870   39.9280 N   0  0  0  0  0  0  0  0  0  0  0  0
   36.6370   30.7760   39.1480 C   0  0  0  0  0  0  0  0  0  0  0  0
   36.7660   30.5080   37.8350 N   0  0  0  0  0  0  0  0  0  0  0  0
   36.1400   29.3210   36.2170 H   0  0  0  0  0  0  0  0  0  0  0  0
   34.3130   28.5170   40.0220 H   0  0  0  0  0  0  0  0  0  0  0  0
   37.4460   31.8410   39.7370 C   0  0  0  0  0  0  0  0  0  0  0  0
   37.2780   33.1480   39.4170 C   0  0  0  0  0  0  0  0  0  0  0  0
   38.0230   34.1600   39.9570 C   0  0  0  0  0  0  0  0  0  0  0  0
   38.9820   33.7980   40.8670 N   0  0  0  0  0  0  0  0  0  0  0  0
   39.1450   32.5070   41.1800 C   0  0  0  0  0  0  0  0  0  0  0  0
   38.4130   31.4960   40.6520 N   0  0  0  0  0  0  0  0  0  0  0  0
   36.5290   33.4650   38.7020 H   0  0  0  0  0  0  0  0  0  0  0  0
   37.9100   35.2040   39.7200 H   0  0  0  0  0  0  0  0  0  0  0  0
   39.8840   32.1360   41.8930 H   0  0  0  0  0  0  0  0  0  0  0  0
   32.5680   29.5070   36.5500 Cl  0  0  0  0  0  0  0  0  0  0  0  0
   33.1690   27.8860   36.6860 C   0  0  0  0  0  0  0  0  0  0  0  0
   34.3470   27.7380   37.4070 C   0  0  0  0  0  0  0  0  0  0  0  0
   34.8910   26.4770   37.5620 C   0  0  0  0  0  0  0  0  0  0  0  0
   35.8040   26.2490   38.1040 H   0  0  0  0  0  0  0  0  0  0  0  0
   34.2710   25.3580   37.0030 C   0  0  0  0  0  0  0  0  0  0  0  0
   34.6930   24.3550   37.1200 H   0  0  0  0  0  0  0  0  0  0  0  0
   33.0840   25.4880   36.2750 C   0  0  0  0  0  3  0  0  0  0  0  0
   32.5610   26.7760   36.1380 C   0  0  0  0  0  3  0  0  0  0  0  0
  1  6  2  0  0  0  0
  1  2  1  0  0  0  0
  2  3  2  0  0  0  0
  3  4  1  0  0  0  0
  3  8  1  0  0  0  0
  5  9  1  0  0  0  0
  5  4  2  0  0  0  0
  6  5  1  0  0  0  0
  7  1  1  0  0  0  0
  9 14  1  0  0  0  0
 10  9  2  0  0  0  0
 10 11  1  0  0  0  0
 11 12  2  0  0  0  0
 12 13  1  0  0  0  0
 13 17  1  0  0  0  0
 14 13  2  0  0  0  0
 15 10  1  0  0  0  0
 16 11  1  0  0  0  0
 18 19  1  0  0  0  0
 19 20  1  0  0  0  0
 20 21  2  0  0  0  0
 20  2  1  0  0  0  0
 21 22  1  0  0  0  0
 23 24  1  0  0  0  0
 23 21  1  0  0  0  0
 25 23  2  0  0  0  0
 26 25  1  0  0  0  0
 26 19  2  0  0  0  0
M  END
>  <minimizedAffinity>
-4.50909042

$$$$

 OpenBabel03252500473D

 26 28  0  0  0  0  0  0  0  0999 V2000
   38.3950   29.7040   39.1050 C   0  0  0  0  0  0  0  0  0  0  0  0
   37.2750   30.4500   38.7020 C   0  0  0  0  0  0  0  0  0  0  0  0
   37.2770   31.8250   38.8980 C   0  0  0  0  0  0  0  0  0  0  0  0
   38.3840   32.3970   39.4830 N   0  0  0  0  0  0  0  0  0  0  0  0
   39.4380   31.6440   39.8550 C   0  0  0  0  0  0  0  0  0  0  0  0
   39.4520   30.3100   39.6720 N   0  0  0  0  0  0  0  0  0  0  0  0
   38.4160   28.6260   38.9610 H   0  0  0  0  0  0  0  0  0  0  0  0
   36.4240   32.4170   38.5940 H   0  0  0  0  0  0  0  0  0  0  0  0
   40.5960   32.2880   40.4730 C   0  0  0  0  0  0  0  0  0  0  0  0
   41.3980   31.6510   41.3610 C   0  0  0  0  0  0  0  0  0  0  0  0
   42.4860   32.2350   41.9500 C   0  0  0  0  0  0  0  0  0  0  0  0
   42.7490   33.5340   41.6020 N   0  0  0  0  0  0  0  0  0  0  0  0
   41.9550   34.1600   40.7260 C   0  0  0  0  0  0  0  0  0  0  0  0
   40.8750   33.5920   40.1360 N   0  0  0  0  0  0  0  0  0  0  0  0
   41.2160   30.6250   41.6560 H   0  0  0  0  0  0  0  0  0  0  0  0
   43.1380   31.7520   42.6580 H   0  0  0  0  0  0  0  0  0  0  0  0
   42.0940   35.1910   40.3960 H   0  0  0  0  0  0  0  0  0  0  0  0
   35.0800   29.2740   40.4690 Cl  0  0  0  0  0  0  0  0  0  0  0  0
   35.0750   29.1570   38.7390 C   0  0  0  0  0  0  0  0  0  0  0  0
   36.1520   29.7480   38.0910 C   0  0  0  0  0  0  0  0  0  0  0  0
   36.2220   29.6980   36.7120 C   0  0  0  0  0  0  0  0  0  0  0  0
   37.0160   30.1250   36.1070 H   0  0  0  0  0  0  0  0  0  0  0  0
   35.2260   29.0630   35.9690 C   0  0  0  0  0  0  0  0  0  0  0  0
   35.2710   29.0170   34.8760 H   0  0  0  0  0  0  0  0  0  0  0  0
   34.1340   28.4620   36.6040 C   0  0  0  0  0  3  0  0  0  0  0  0
   34.0940   28.5310   37.9980 C   0  0  0  0  0  3  0  0  0  0  0  0
  1  6  1  0  0  0  0
  2  3  1  0  0  0  0
  2  1  2  0  0  0  0
  3  4  2  0  0  0  0
  4  5  1  0  0  0  0
  5  9  1  0  0  0  0
  6  5  2  0  0  0  0
  7  1  1  0  0  0  0
  8  3  1  0  0  0  0
  9 10  1  0  0  0  0
 10 15  1  0  0  0  0
 10 11  2  0  0  0  0
 11 16  1  0  0  0  0
 12 11  1  0  0  0  0
 13 12  2  0  0  0  0
 14  9  2  0  0  0  0
 14 13  1  0  0  0  0
 17 13  1  0  0  0  0
 19 18  1  0  0  0  0
 20  2  1  0  0  0  0
 20 19  1  0  0  0  0
 21 20  2  0  0  0  0
 22 21  1  0  0  0  0
 23 25  2  0  0  0  0
 23 21  1  0  0  0  0
 24 23  1  0  0  0  0
 25 26  1  0  0  0  0
 26 19  2  0  0  0  0
M  END
>  <minimizedAffinity>
-4.50694704

$$$$

 OpenBabel03252500473D

 26 28  0  0  0  0  0  0  0  0999 V2000
   36.2780   27.9130   39.0270 C   0  0  0  0  0  0  0  0  0  0  0  0
   35.8500   28.5700   40.1920 C   0  0  0  0  0  0  0  0  0  0  0  0
   34.6070   29.1900   40.1970 C   0  0  0  0  0  0  0  0  0  0  0  0
   33.8480   29.1320   39.0510 N   0  0  0  0  0  0  0  0  0  0  0  0
   34.2950   28.4900   37.9540 C   0  0  0  0  0  0  0  0  0  0  0  0
   35.4970   27.8840   37.9330 N   0  0  0  0  0  0  0  0  0  0  0  0
   37.2480   27.4210   39.0000 H   0  0  0  0  0  0  0  0  0  0  0  0
   34.2600   29.7010   41.0840 H   0  0  0  0  0  0  0  0  0  0  0  0
   33.4590   28.4490   36.7560 C   0  0  0  0  0  0  0  0  0  0  0  0
   32.3610   29.2300   36.6050 C   0  0  0  0  0  0  0  0  0  0  0  0
   31.5650   29.2090   35.4930 C   0  0  0  0  0  0  0  0  0  0  0  0
   31.9250   28.3380   34.4980 N   0  0  0  0  0  0  0  0  0  0  0  0
   33.0090   27.5680   34.6500 C   0  0  0  0  0  0  0  0  0  0  0  0
   33.8050   27.5810   35.7470 N   0  0  0  0  0  0  0  0  0  0  0  0
   32.0510   29.9280   37.3730 H   0  0  0  0  0  0  0  0  0  0  0  0
   30.6900   29.8170   35.3490 H   0  0  0  0  0  0  0  0  0  0  0  0
   33.3630   26.8500   33.9080 H   0  0  0  0  0  0  0  0  0  0  0  0
   37.7310   30.9300   40.6590 Cl  0  0  0  0  0  0  0  0  0  0  0  0
   37.6430   29.5590   41.7170 C   0  0  0  0  0  0  0  0  0  0  0  0
   36.7320   28.5750   41.3540 C   0  0  0  0  0  0  0  0  0  0  0  0
   36.6010   27.4500   42.1460 C   0  0  0  0  0  0  0  0  0  0  0  0
   35.9220   26.6230   41.9560 H   0  0  0  0  0  0  0  0  0  0  0  0
   37.3710   27.2950   43.2990 C   0  0  0  0  0  0  0  0  0  0  0  0
   37.2760   26.4070   43.9330 H   0  0  0  0  0  0  0  0  0  0  0  0
   38.2940   28.2750   43.6790 C   0  0  0  0  0  3  0  0  0  0  0  0
   38.4000   29.3990   42.8580 C   0  0  0  0  0  3  0  0  0  0  0  0
  1  2  1  0  0  0  0
  2  3  2  0  0  0  0
  2 20  1  0  0  0  0
  3  8  1  0  0  0  0
  4  3  1  0  0  0  0
  5  4  2  0  0  0  0
  6  5  1  0  0  0  0
  6  1  2  0  0  0  0
  7  1  1  0  0  0  0
  9  5  1  0  0  0  0
 10  9  1  0  0  0  0
 10 15  1  0  0  0  0
 11 10  2  0  0  0  0
 12 13  2  0  0  0  0
 12 11  1  0  0  0  0
 13 14  1  0  0  0  0
 14  9  2  0  0  0  0
 16 11  1  0  0  0  0
 17 13  1  0  0  0  0
 18 19  1  0  0  0  0
 19 26  1  0  0  0  0
 20 19  2  0  0  0  0
 20 21  1  0  0  0  0
 21 23  2  0  0  0  0
 22 21  1  0  0  0  0
 23 25  1  0  0  0  0
 23 24  1  0  0  0  0
 26 25  2  0  0  0  0
M  END
>  <minimizedAffinity>
-4.50000334

$$$$
