
 OpenBabel03252500183D

 20 21  0  0  0  0  0  0  0  0999 V2000
   44.4120   36.1650   44.7610 C   0  0  0  0  0  0  0  0  0  0  0  0
   45.0990   36.0710   43.5310 C   0  0  0  0  0  0  0  0  0  0  0  0
   45.9460   34.9850   43.3550 C   0  0  0  0  0  0  0  0  0  0  0  0
   46.0600   34.0870   44.3720 N   0  0  0  0  0  0  0  0  0  0  0  0
   45.3910   34.2120   45.5250 C   0  0  0  0  0  0  0  0  0  0  0  0
   44.5600   35.2530   45.7340 N   0  0  0  0  0  0  0  0  0  0  0  0
   45.5500   33.2420   46.5540 N   0  0  0  0  0  0  0  0  0  0  0  0
   43.7590   36.9950   44.9090 H   0  0  0  0  0  0  0  0  0  0  0  0
   44.9540   36.8120   42.7890 H   0  0  0  0  0  0  0  0  0  0  0  0
   44.7350   32.5710   46.5240 H   0  0  0  0  0  0  0  0  0  0  0  0
   46.3300   33.1580   47.2570 H   0  0  0  0  0  0  0  0  0  0  0  0
   44.5770   33.3240   41.2950 Cl  0  0  0  0  0  0  0  0  0  0  0  0
   46.1610   34.0490   41.1100 C   0  0  0  0  0  0  0  0  0  0  0  0
   46.6890   34.7980   42.1400 C   0  0  0  0  0  0  0  0  0  0  0  0
   47.9400   35.3170   41.8810 C   0  0  0  0  0  0  0  0  0  0  0  0
   48.4190   35.9160   42.6420 H   0  0  0  0  0  0  0  0  0  0  0  0
   48.6300   35.1170   40.6930 C   0  0  0  0  0  0  0  0  0  0  0  0
   49.6140   35.5420   40.5270 H   0  0  0  0  0  0  0  0  0  0  0  0
   48.0390   34.3510   39.6990 C   0  0  0  0  0  0  0  0  0  0  0  0
   46.7880   33.8070   39.9050 C   0  0  0  0  0  0  0  0  0  0  0  0
  1  8  1  0  0  0  0
  1  6  1  0  0  0  0
  2  1  2  0  0  0  0
  3  2  1  0  0  0  0
  3  4  2  0  0  0  0
  4  5  1  0  0  0  0
  5  6  2  0  0  0  0
  5  7  1  0  0  0  0
  7 11  1  0  0  0  0
  9  2  1  0  0  0  0
 10  7  1  0  0  0  0
 13 12  1  0  0  0  0
 13 14  1  0  0  0  0
 14  3  1  0  0  0  0
 15 14  2  0  0  0  0
 15 16  1  0  0  0  0
 17 15  1  0  0  0  0
 18 17  1  0  0  0  0
 19 20  1  0  0  0  0
 19 17  2  0  0  0  0
 20 13  2  0  0  0  0
M  END
>  <minimizedAffinity>
-5.52365828

>  <minimizedRMSD>
1.49219608

$$$$
