REMARK  Name = 
REMARK  3 active torsions:
REMARK  status: ('A' for Active; 'I' for Inactive)
REMARK    1  A    between atoms: C_1  and  C_5
REMARK    2  A    between atoms: C_3  and  N_10
REMARK    3  A    between atoms: C_15  and  C_34
REMARK                            x       y       z     vdW  Elec       q    Type
REMARK                         _______ _______ _______ _____ _____    ______ ____
ROOT
ATOM      1  N   UNL     1      49.312  33.202  41.476  0.00  0.00    +0.000 NA
ATOM      2  C   UNL     1      50.652  33.117  41.998  0.00  0.00    +0.000 C 
ATOM      3  C   UNL     1      51.341  31.817  41.805  0.00  0.00    +0.000 C 
ATOM      4  C   UNL     1      50.604  30.736  42.577  0.00  0.00    +0.000 C 
ATOM      5  C   UNL     1      49.139  30.989  42.540  0.00  0.00    +0.000 C 
ATOM      6  C   UNL     1      48.736  31.872  41.402  0.00  0.00    +0.000 C 
ATOM      7  H   UNL     1      50.641  33.319  43.099  0.00  0.00    +0.000 HD
ATOM      8  H   UNL     1      51.306  33.945  41.595  0.00  0.00    +0.000 HD
ATOM      9  H   UNL     1      52.378  31.956  42.226  0.00  0.00    +0.000 HD
ATOM     10  H   UNL     1      51.487  31.452  40.798  0.00  0.00    +0.000 HD
ATOM     11  H   UNL     1      50.913  29.721  42.258  0.00  0.00    +0.000 HD
ATOM     12  H   UNL     1      50.938  30.825  43.634  0.00  0.00    +0.000 HD
ATOM     13  H   UNL     1      48.522  30.077  42.526  0.00  0.00    +0.000 HD
ATOM     14  H   UNL     1      48.795  31.531  43.472  0.00  0.00    +0.000 HD
ATOM     15  H   UNL     1      47.629  32.072  41.593  0.00  0.00    +0.000 HD
ENDROOT
BRANCH   6  18
ATOM     16 CL   UNL     1      50.641  32.836  39.088  0.00  0.00    +0.000 Cl
ATOM     17  C   UNL     1      49.538  31.518  38.960  0.00  0.00    +0.000 A 
ATOM     18  C   UNL     1      48.767  31.273  40.067  0.00  0.00    +0.000 A 
ATOM     19  C   UNL     1      47.836  30.230  39.964  0.00  0.00    +0.000 A 
ATOM     20  H   UNL     1      47.113  29.829  40.667  0.00  0.00    +0.000 HD
ATOM     21  C   UNL     1      47.736  29.503  38.770  0.00  0.00    +0.000 A 
ATOM     22  H   UNL     1      47.062  28.682  38.569  0.00  0.00    +0.000 HD
ATOM     23  C   UNL     1      48.542  29.794  37.683  0.00  0.00    +0.000 A 
ATOM     24  C   UNL     1      49.455  30.820  37.790  0.00  0.00    +0.000 A 
ENDBRANCH   6  18
BRANCH   1  27
ATOM     25  C   UNL     1      47.183  34.561  42.010  0.00  0.00    +0.000 C 
ATOM     26  C   UNL     1      48.323  35.455  41.745  0.00  0.00    +0.000 C 
ATOM     27  C   UNL     1      48.576  34.102  42.296  0.00  0.00    +0.000 C 
ATOM     28  H   UNL     1      46.644  34.137  41.146  0.00  0.00    +0.000 HD
ATOM     29  H   UNL     1      48.455  36.334  42.433  0.00  0.00    +0.000 HD
ATOM     30  H   UNL     1      48.525  35.711  40.693  0.00  0.00    +0.000 HD
ATOM     31  H   UNL     1      48.828  34.066  43.384  0.00  0.00    +0.000 HD
BRANCH  25  33
ATOM     32  C   UNL     1      45.491  36.023  43.162  0.00  0.00    +0.000 A 
ATOM     33  C   UNL     1      46.278  34.854  43.151  0.00  0.00    +0.000 A 
ATOM     34  C   UNL     1      46.170  33.982  44.244  0.00  0.00    +0.000 A 
ATOM     35  N   UNL     1      45.316  34.315  45.242  0.00  0.00    +0.000 NA
ATOM     36  C   UNL     1      44.572  35.442  45.229  0.00  0.00    +0.000 A 
ATOM     37  N   UNL     1      44.655  36.312  44.179  0.00  0.00    +0.000 NA
ATOM     38  H   UNL     1      45.619  36.663  42.285  0.00  0.00    +0.000 HD
ATOM     39  H   UNL     1      46.755  33.075  44.276  0.00  0.00    +0.000 HD
ATOM     40  H   UNL     1      43.892  35.692  46.040  0.00  0.00    +0.000 HD
ENDBRANCH  25  33
ENDBRANCH   1  27
TORSDOF 3
