
 OpenBabel03242520043D

 39 42  0  0  1  0  0  0  0  0999 V2000
   37.9770   28.0360   40.3990 N   0  0  0  0  0  0  0  0  0  0  0  0
   36.9350   28.8760   39.9670 C   0  0  1  0  0  0  0  0  0  0  0  0
   35.9210   29.0100   41.0760 C   0  0  0  0  0  0  0  0  0  0  0  0
   36.6170   29.6920   42.1690 N   0  0  0  0  0  0  0  0  0  0  0  0
   37.6690   28.8780   42.7200 C   0  0  0  0  0  0  0  0  0  0  0  0
   38.4900   28.1600   41.6980 C   0  0  1  0  0  0  0  0  0  0  0  0
   38.7440   27.9000   39.7180 H   0  0  0  0  0  0  0  0  0  0  0  0
   36.4420   28.4200   39.0940 H   0  0  0  0  0  0  0  0  0  0  0  0
   35.6050   28.0210   41.4470 H   0  0  0  0  0  0  0  0  0  0  0  0
   35.0420   29.5970   40.7910 H   0  0  0  0  0  0  0  0  0  0  0  0
   35.9020   29.8730   42.9020 H   0  0  0  0  0  0  0  0  0  0  0  0
   38.2790   29.5380   43.3730 H   0  0  0  0  0  0  0  0  0  0  0  0
   37.1760   28.1620   43.4360 H   0  0  0  0  0  0  0  0  0  0  0  0
   39.4480   28.7550   41.6100 H   0  0  0  0  0  0  0  0  0  0  0  0
   41.1340   28.0500   43.2280 Cl  0  0  0  0  0  0  0  0  0  0  0  0
   40.1000   26.6520   42.9040 C   0  0  0  0  0  0  0  0  0  0  0  0
   38.9120   26.8210   42.1940 C   0  0  0  0  0  0  0  0  0  0  0  0
   38.1090   25.7100   41.9460 C   0  0  0  0  0  0  0  0  0  0  0  0
   37.1690   25.7860   41.3960 H   0  0  0  0  0  0  0  0  0  0  0  0
   38.4710   24.4520   42.3920 C   0  0  0  0  0  0  0  0  0  0  0  0
   37.8380   23.5940   42.1940 H   0  0  0  0  0  0  0  0  0  0  0  0
   39.6620   24.3450   43.0930 C   0  0  0  0  0  3  0  0  0  0  0  0
   40.4880   25.4210   43.3590 C   0  0  0  0  0  3  0  0  0  0  0  0
   38.7280   31.8860   39.3390 C   0  0  0  0  0  0  0  0  0  0  0  0
   37.4530   32.3170   39.0680 C   0  0  0  0  0  0  0  0  0  0  0  0
   36.6070   31.2730   39.2590 C   0  0  0  0  0  0  0  0  0  0  0  0
   37.3600   30.2130   39.6450 N   0  0  0  0  0  0  0  0  0  0  0  0
   38.6320   30.6050   39.6860 N   0  0  0  0  0  0  0  0  0  0  0  0
   37.1520   33.3110   38.7550 H   0  0  0  0  0  0  0  0  0  0  0  0
   35.5190   31.2710   39.1300 H   0  0  0  0  0  0  0  0  0  0  0  0
   41.5320   34.0930   40.2380 C   0  0  0  0  0  0  0  0  0  0  0  0
   42.2700   34.1610   39.0510 C   0  0  0  0  0  0  0  0  0  0  0  0
   41.7850   33.4360   37.9440 C   0  0  0  0  0  0  0  0  0  0  0  0
   40.6480   32.7330   38.1120 N   0  0  0  0  0  0  0  0  0  0  0  0
   39.9560   32.6840   39.2630 C   0  0  0  0  0  0  0  0  0  0  0  0
   40.4020   33.3650   40.3230 N   0  0  0  0  0  0  0  0  0  0  0  0
   41.9430   34.6660   41.0600 H   0  0  0  0  0  0  0  0  0  0  0  0
   43.1690   34.7010   38.8740 H   0  0  0  0  0  0  0  0  0  0  0  0
   42.2230   33.3740   36.9580 H   0  0  0  0  0  0  0  0  0  0  0  0
  1  6  1  0  0  0  0
  2  8  1  6  0  0  0
  2  1  1  0  0  0  0
  2  3  1  0  0  0  0
  3  9  1  0  0  0  0
  3  4  1  0  0  0  0
  4  5  1  0  0  0  0
  4 11  1  0  0  0  0
  5 12  1  0  0  0  0
  5 13  1  0  0  0  0
  6 14  1  6  0  0  0
  6 17  1  0  0  0  0
  6  5  1  0  0  0  0
  7  1  1  0  0  0  0
 10  3  1  0  0  0  0
 16 15  1  0  0  0  0
 16 23  1  0  0  0  0
 17 16  2  0  0  0  0
 18 17  1  0  0  0  0
 18 20  2  0  0  0  0
 19 18  1  0  0  0  0
 20 22  1  0  0  0  0
 21 20  1  0  0  0  0
 22 23  2  0  0  0  0
 24 28  2  0  0  0  0
 25 26  2  0  0  0  0
 25 24  1  0  0  0  0
 26 27  1  0  0  0  0
 27 28  1  0  0  0  0
 27  2  1  0  0  0  0
 29 25  1  0  0  0  0
 30 26  1  0  0  0  0
 31 36  1  0  0  0  0
 31 37  1  0  0  0  0
 32 31  2  0  0  0  0
 33 34  2  0  0  0  0
 33 32  1  0  0  0  0
 34 35  1  0  0  0  0
 35 24  1  0  0  0  0
 35 36  2  0  0  0  0
 38 32  1  0  0  0  0
 39 33  1  0  0  0  0
M  END
>  <minimizedAffinity>
-6.06528425

$$$$

 OpenBabel03242520043D

 39 42  0  0  1  0  0  0  0  0999 V2000
   37.5350   28.3570   39.9750 N   0  0  0  0  0  0  0  0  0  0  0  0
   36.7360   29.4370   39.5570 C   0  0  1  0  0  0  0  0  0  0  0  0
   35.5830   29.5950   40.5180 C   0  0  0  0  0  0  0  0  0  0  0  0
   36.1860   29.9600   41.8030 N   0  0  0  0  0  0  0  0  0  0  0  0
   36.9790   28.8860   42.3430 C   0  0  0  0  0  0  0  0  0  0  0  0
   37.8320   28.1840   41.3350 C   0  0  1  0  0  0  0  0  0  0  0  0
   38.3740   28.1810   39.3960 H   0  0  0  0  0  0  0  0  0  0  0  0
   36.3310   29.2200   38.5570 H   0  0  0  0  0  0  0  0  0  0  0  0
   35.0490   28.6410   40.6590 H   0  0  0  0  0  0  0  0  0  0  0  0
   34.8760   30.3760   40.2220 H   0  0  0  0  0  0  0  0  0  0  0  0
   35.3960   30.1620   42.4480 H   0  0  0  0  0  0  0  0  0  0  0  0
   37.5690   29.3110   43.1820 H   0  0  0  0  0  0  0  0  0  0  0  0
   36.2590   28.1790   42.8420 H   0  0  0  0  0  0  0  0  0  0  0  0
   38.8760   28.5910   41.4900 H   0  0  0  0  0  0  0  0  0  0  0  0
   40.1990   27.3240   43.0660 Cl  0  0  0  0  0  0  0  0  0  0  0  0
   38.9730   26.2240   42.4180 C   0  0  0  0  0  0  0  0  0  0  0  0
   37.9350   26.7310   41.6380 C   0  0  0  0  0  0  0  0  0  0  0  0
   36.9780   25.8520   41.1350 C   0  0  0  0  0  0  0  0  0  0  0  0
   36.1440   26.1950   40.5190 H   0  0  0  0  0  0  0  0  0  0  0  0
   37.0430   24.4970   41.3970 C   0  0  0  0  0  0  0  0  0  0  0  0
   36.2930   23.8220   41.0000 H   0  0  0  0  0  0  0  0  0  0  0  0
   38.0980   24.0510   42.1790 C   0  0  0  0  0  3  0  0  0  0  0  0
   39.0680   24.8880   42.6970 C   0  0  0  0  0  3  0  0  0  0  0  0
   39.0740   32.1120   39.7720 C   0  0  0  0  0  0  0  0  0  0  0  0
   37.9700   32.8060   39.3430 C   0  0  0  0  0  0  0  0  0  0  0  0
   36.9490   31.9230   39.2010 C   0  0  0  0  0  0  0  0  0  0  0  0
   37.4250   30.7000   39.5420 N   0  0  0  0  0  0  0  0  0  0  0  0
   38.7060   30.8380   39.8820 N   0  0  0  0  0  0  0  0  0  0  0  0
   37.9020   33.8700   39.1460 H   0  0  0  0  0  0  0  0  0  0  0  0
   35.9260   32.1430   38.8740 H   0  0  0  0  0  0  0  0  0  0  0  0
   42.1250   34.1610   39.5900 C   0  0  0  0  0  0  0  0  0  0  0  0
   42.8980   33.6680   40.6460 C   0  0  0  0  0  0  0  0  0  0  0  0
   42.3500   32.6220   41.4170 C   0  0  0  0  0  0  0  0  0  0  0  0
   41.1240   32.1780   41.0780 N   0  0  0  0  0  0  0  0  0  0  0  0
   40.4010   32.6690   40.0570 C   0  0  0  0  0  0  0  0  0  0  0  0
   40.9050   33.6600   39.3160 N   0  0  0  0  0  0  0  0  0  0  0  0
   42.5880   34.9630   39.0270 H   0  0  0  0  0  0  0  0  0  0  0  0
   43.8660   33.9870   40.9490 H   0  0  0  0  0  0  0  0  0  0  0  0
   42.8020   32.1240   42.2630 H   0  0  0  0  0  0  0  0  0  0  0  0
  1  6  1  0  0  0  0
  2  8  1  6  0  0  0
  2  1  1  0  0  0  0
  2  3  1  0  0  0  0
  3  9  1  0  0  0  0
  3  4  1  0  0  0  0
  4  5  1  0  0  0  0
  4 11  1  0  0  0  0
  5 13  1  0  0  0  0
  5 12  1  0  0  0  0
  6 14  1  1  0  0  0
  6 17  1  0  0  0  0
  6  5  1  0  0  0  0
  7  1  1  0  0  0  0
 10  3  1  0  0  0  0
 16 23  1  0  0  0  0
 16 15  1  0  0  0  0
 17 16  2  0  0  0  0
 18 20  2  0  0  0  0
 18 17  1  0  0  0  0
 19 18  1  0  0  0  0
 20 22  1  0  0  0  0
 21 20  1  0  0  0  0
 22 23  2  0  0  0  0
 24 28  2  0  0  0  0
 24 35  1  0  0  0  0
 25 24  1  0  0  0  0
 26 25  2  0  0  0  0
 26 27  1  0  0  0  0
 27  2  1  0  0  0  0
 27 28  1  0  0  0  0
 29 25  1  0  0  0  0
 30 26  1  0  0  0  0
 31 32  1  0  0  0  0
 32 38  1  0  0  0  0
 32 33  2  0  0  0  0
 33 39  1  0  0  0  0
 34 33  1  0  0  0  0
 35 34  2  0  0  0  0
 36 31  2  0  0  0  0
 36 35  1  0  0  0  0
 37 31  1  0  0  0  0
M  END
>  <minimizedAffinity>
-5.81483078

$$$$

 OpenBabel03242520043D

 39 42  0  0  1  0  0  0  0  0999 V2000
   38.1010   28.6710   40.2760 N   0  0  0  0  0  0  0  0  0  0  0  0
   37.4150   29.8600   39.9660 C   0  0  1  0  0  0  0  0  0  0  0  0
   36.1510   29.9240   40.7860 C   0  0  0  0  0  0  0  0  0  0  0  0
   36.5890   30.0150   42.1820 N   0  0  0  0  0  0  0  0  0  0  0  0
   37.2520   28.8110   42.6110 C   0  0  0  0  0  0  0  0  0  0  0  0
   38.2020   28.2410   41.6070 C   0  0  1  0  0  0  0  0  0  0  0  0
   39.0030   28.5420   39.7840 H   0  0  0  0  0  0  0  0  0  0  0  0
   37.1410   29.8500   38.9000 H   0  0  0  0  0  0  0  0  0  0  0  0
   35.5610   28.9990   40.6810 H   0  0  0  0  0  0  0  0  0  0  0  0
   35.5260   30.7910   40.5530 H   0  0  0  0  0  0  0  0  0  0  0  0
   35.7280   30.1540   42.7490 H   0  0  0  0  0  0  0  0  0  0  0  0
   37.7410   29.0400   43.5810 H   0  0  0  0  0  0  0  0  0  0  0  0
   36.4410   28.0780   42.8770 H   0  0  0  0  0  0  0  0  0  0  0  0
   39.2320   28.5420   41.9640 H   0  0  0  0  0  0  0  0  0  0  0  0
   36.2230   26.8380   39.7480 Cl  0  0  0  0  0  0  0  0  0  0  0  0
   37.3380   26.0080   40.8440 C   0  0  0  0  0  0  0  0  0  0  0  0
   38.1980   26.7530   41.6480 C   0  0  0  0  0  0  0  0  0  0  0  0
   39.0690   26.0850   42.5050 C   0  0  0  0  0  0  0  0  0  0  0  0
   39.7640   26.6190   43.1560 H   0  0  0  0  0  0  0  0  0  0  0  0
   39.0920   24.7050   42.5690 C   0  0  0  0  0  0  0  0  0  0  0  0
   39.7740   24.1950   43.2400 H   0  0  0  0  0  0  0  0  0  0  0  0
   38.2130   24.0170   41.7460 C   0  0  0  0  0  3  0  0  0  0  0  0
   37.3340   24.6400   40.8820 C   0  0  0  0  0  3  0  0  0  0  0  0
   39.8700   32.2970   40.8030 C   0  0  0  0  0  0  0  0  0  0  0  0
   38.7790   33.1160   40.6410 C   0  0  0  0  0  0  0  0  0  0  0  0
   37.7170   32.3380   40.3080 C   0  0  0  0  0  0  0  0  0  0  0  0
   38.1560   31.0560   40.2700 N   0  0  0  0  0  0  0  0  0  0  0  0
   39.4530   31.0550   40.5700 N   0  0  0  0  0  0  0  0  0  0  0  0
   38.7480   34.1940   40.7520 H   0  0  0  0  0  0  0  0  0  0  0  0
   36.6920   32.6700   40.1070 H   0  0  0  0  0  0  0  0  0  0  0  0
   43.0390   34.1610   40.9520 C   0  0  0  0  0  0  0  0  0  0  0  0
   43.7840   33.4380   41.8900 C   0  0  0  0  0  0  0  0  0  0  0  0
   43.1760   32.3040   42.4650 C   0  0  0  0  0  0  0  0  0  0  0  0
   41.9240   32.0020   42.0680 N   0  0  0  0  0  0  0  0  0  0  0  0
   41.2290   32.7130   41.1640 C   0  0  0  0  0  0  0  0  0  0  0  0
   41.7900   33.7920   40.6090 N   0  0  0  0  0  0  0  0  0  0  0  0
   43.5480   35.0230   40.5380 H   0  0  0  0  0  0  0  0  0  0  0  0
   44.7710   33.6390   42.2320 H   0  0  0  0  0  0  0  0  0  0  0  0
   43.5990   31.6340   43.2000 H   0  0  0  0  0  0  0  0  0  0  0  0
  1  6  1  0  0  0  0
  2  8  1  6  0  0  0
  2 27  1  0  0  0  0
  2  1  1  0  0  0  0
  2  3  1  0  0  0  0
  3  4  1  0  0  0  0
  4  5  1  0  0  0  0
  4 11  1  0  0  0  0
  5 13  1  0  0  0  0
  5 12  1  0  0  0  0
  6 17  1  0  0  0  0
  6 14  1  1  0  0  0
  6  5  1  0  0  0  0
  7  1  1  0  0  0  0
  9  3  1  0  0  0  0
 10  3  1  0  0  0  0
 15 16  1  0  0  0  0
 16 23  2  0  0  0  0
 16 17  1  0  0  0  0
 17 18  2  0  0  0  0
 18 20  1  0  0  0  0
 18 19  1  0  0  0  0
 20 21  1  0  0  0  0
 22 20  2  0  0  0  0
 23 22  1  0  0  0  0
 24 35  1  0  0  0  0
 25 29  1  0  0  0  0
 25 24  1  0  0  0  0
 26 25  2  0  0  0  0
 27 26  1  0  0  0  0
 27 28  1  0  0  0  0
 28 24  2  0  0  0  0
 30 26  1  0  0  0  0
 31 32  1  0  0  0  0
 32 38  1  0  0  0  0
 32 33  2  0  0  0  0
 33 39  1  0  0  0  0
 34 33  1  0  0  0  0
 35 34  2  0  0  0  0
 36 31  2  0  0  0  0
 36 35  1  0  0  0  0
 37 31  1  0  0  0  0
M  END
>  <minimizedAffinity>
-5.66600609

$$$$

 OpenBabel03242520043D

 39 42  0  0  1  0  0  0  0  0999 V2000
   37.9050   32.1430   38.9160 N   0  0  0  0  0  0  0  0  0  0  0  0
   38.7330   33.0560   39.5940 C   0  0  1  0  0  0  0  0  0  0  0  0
   38.8590   32.6270   41.0350 C   0  0  0  0  0  0  0  0  0  0  0  0
   39.5540   31.3360   41.0030 N   0  0  0  0  0  0  0  0  0  0  0  0
   38.7530   30.3160   40.3780 C   0  0  0  0  0  0  0  0  0  0  0  0
   38.0390   30.7660   39.1430 C   0  0  1  0  0  0  0  0  0  0  0  0
   37.7750   32.3320   37.9070 H   0  0  0  0  0  0  0  0  0  0  0  0
   38.2680   34.0540   39.5660 H   0  0  0  0  0  0  0  0  0  0  0  0
   37.8690   32.4610   41.4890 H   0  0  0  0  0  0  0  0  0  0  0  0
   39.4370   33.3260   41.6470 H   0  0  0  0  0  0  0  0  0  0  0  0
   39.7300   31.0760   41.9950 H   0  0  0  0  0  0  0  0  0  0  0  0
   39.4220   29.4490   40.1940 H   0  0  0  0  0  0  0  0  0  0  0  0
   38.0350   29.9490   41.1630 H   0  0  0  0  0  0  0  0  0  0  0  0
   38.6440   30.3550   38.2800 H   0  0  0  0  0  0  0  0  0  0  0  0
   37.1010   30.0970   36.3130 Cl  0  0  0  0  0  0  0  0  0  0  0  0
   36.1780   29.7620   37.7850 C   0  0  0  0  0  0  0  0  0  0  0  0
   36.7070   30.1130   39.0260 C   0  0  0  0  0  0  0  0  0  0  0  0
   35.9680   29.8440   40.1750 C   0  0  0  0  0  0  0  0  0  0  0  0
   36.3340   30.0960   41.1730 H   0  0  0  0  0  0  0  0  0  0  0  0
   34.7270   29.2380   40.1030 C   0  0  0  0  0  0  0  0  0  0  0  0
   34.1600   29.0330   41.0040 H   0  0  0  0  0  0  0  0  0  0  0  0
   34.2520   28.9120   38.8410 C   0  0  0  0  0  3  0  0  0  0  0  0
   34.9530   29.1620   37.6770 C   0  0  0  0  0  3  0  0  0  0  0  0
   41.8540   32.5080   37.9750 C   0  0  0  0  0  0  0  0  0  0  0  0
   42.1100   33.7230   38.5610 C   0  0  0  0  0  0  0  0  0  0  0  0
   40.9980   34.1030   39.2410 C   0  0  0  0  0  0  0  0  0  0  0  0
   40.0730   33.1260   39.0740 N   0  0  0  0  0  0  0  0  0  0  0  0
   40.6100   32.1780   38.3080 N   0  0  0  0  0  0  0  0  0  0  0  0
   43.0280   34.2970   38.5030 H   0  0  0  0  0  0  0  0  0  0  0  0
   40.8600   35.0220   39.8220 H   0  0  0  0  0  0  0  0  0  0  0  0
   44.9090   31.3120   36.3080 C   0  0  0  0  0  0  0  0  0  0  0  0
   44.4530   30.2150   35.5690 C   0  0  0  0  0  0  0  0  0  0  0  0
   43.0820   29.9000   35.6550 C   0  0  0  0  0  0  0  0  0  0  0  0
   42.3150   30.6770   36.4440 N   0  0  0  0  0  0  0  0  0  0  0  0
   42.7770   31.7260   37.1450 C   0  0  0  0  0  0  0  0  0  0  0  0
   44.0740   32.0400   37.0750 N   0  0  0  0  0  0  0  0  0  0  0  0
   45.9690   31.5150   36.2090 H   0  0  0  0  0  0  0  0  0  0  0  0
   45.0210   29.5760   34.9350 H   0  0  0  0  0  0  0  0  0  0  0  0
   42.5620   29.0940   35.1570 H   0  0  0  0  0  0  0  0  0  0  0  0
  1  6  1  0  0  0  0
  1  2  1  0  0  0  0
  2  8  1  6  0  0  0
  2  3  1  0  0  0  0
  3  9  1  0  0  0  0
  3 10  1  0  0  0  0
  4  3  1  0  0  0  0
  4 11  1  0  0  0  0
  5  4  1  0  0  0  0
  5 13  1  0  0  0  0
  6 14  1  6  0  0  0
  6  5  1  0  0  0  0
  7  1  1  0  0  0  0
 12  5  1  0  0  0  0
 15 16  1  0  0  0  0
 16 17  1  0  0  0  0
 17  6  1  0  0  0  0
 17 18  2  0  0  0  0
 18 19  1  0  0  0  0
 20 18  1  0  0  0  0
 20 21  1  0  0  0  0
 22 20  2  0  0  0  0
 23 16  2  0  0  0  0
 23 22  1  0  0  0  0
 24 28  2  0  0  0  0
 24 25  1  0  0  0  0
 25 26  2  0  0  0  0
 26 30  1  0  0  0  0
 27 26  1  0  0  0  0
 27  2  1  0  0  0  0
 28 27  1  0  0  0  0
 29 25  1  0  0  0  0
 31 36  1  0  0  0  0
 32 33  1  0  0  0  0
 32 31  2  0  0  0  0
 33 34  2  0  0  0  0
 34 35  1  0  0  0  0
 35 24  1  0  0  0  0
 36 35  2  0  0  0  0
 37 31  1  0  0  0  0
 38 32  1  0  0  0  0
 39 33  1  0  0  0  0
M  END
>  <minimizedAffinity>
-5.63621426

$$$$

 OpenBabel03242520043D

 39 42  0  0  1  0  0  0  0  0999 V2000
   39.3880   31.3030   40.1500 N   0  0  0  0  0  0  0  0  0  0  0  0
   38.1740   31.4870   40.8380 C   0  0  1  0  0  0  0  0  0  0  0  0
   37.3710   32.5560   40.1380 C   0  0  0  0  0  0  0  0  0  0  0  0
   37.0540   32.0090   38.8160 N   0  0  0  0  0  0  0  0  0  0  0  0
   38.2360   31.8420   38.0110 C   0  0  0  0  0  0  0  0  0  0  0  0
   39.4060   31.2750   38.7490 C   0  0  1  0  0  0  0  0  0  0  0  0
   40.0040   30.5660   40.5350 H   0  0  0  0  0  0  0  0  0  0  0  0
   38.3890   31.8260   41.8640 H   0  0  0  0  0  0  0  0  0  0  0  0
   37.9710   33.4680   39.9870 H   0  0  0  0  0  0  0  0  0  0  0  0
   36.4390   32.8050   40.6540 H   0  0  0  0  0  0  0  0  0  0  0  0
   36.4220   32.6980   38.3600 H   0  0  0  0  0  0  0  0  0  0  0  0
   37.9440   31.2280   37.1330 H   0  0  0  0  0  0  0  0  0  0  0  0
   38.4700   32.8530   37.5750 H   0  0  0  0  0  0  0  0  0  0  0  0
   39.4500   30.1850   38.4490 H   0  0  0  0  0  0  0  0  0  0  0  0
   40.0060   34.1410   39.6210 Cl  0  0  0  0  0  0  0  0  0  0  0  0
   41.0610   33.1610   38.5940 C   0  0  0  0  0  0  0  0  0  0  0  0
   40.6840   31.8610   38.2590 C   0  0  0  0  0  0  0  0  0  0  0  0
   41.5250   31.1020   37.4490 C   0  0  0  0  0  0  0  0  0  0  0  0
   41.2790   30.0790   37.1560 H   0  0  0  0  0  0  0  0  0  0  0  0
   42.7180   31.6150   36.9760 C   0  0  0  0  0  0  0  0  0  0  0  0
   43.3660   31.0150   36.3460 H   0  0  0  0  0  0  0  0  0  0  0  0
   43.0400   32.9130   37.3430 C   0  0  0  0  0  3  0  0  0  0  0  0
   42.2350   33.7000   38.1440 C   0  0  0  0  0  3  0  0  0  0  0  0
   36.8300   28.1940   40.9470 C   0  0  0  0  0  0  0  0  0  0  0  0
   35.6630   28.9170   40.9190 C   0  0  0  0  0  0  0  0  0  0  0  0
   35.9880   30.2350   40.8750 C   0  0  0  0  0  0  0  0  0  0  0  0
   37.3410   30.3140   40.8760 N   0  0  0  0  0  0  0  0  0  0  0  0
   37.8260   29.0750   40.9190 N   0  0  0  0  0  0  0  0  0  0  0  0
   34.6520   28.5280   40.9290 H   0  0  0  0  0  0  0  0  0  0  0  0
   35.2970   31.0850   40.8440 H   0  0  0  0  0  0  0  0  0  0  0  0
   37.5380   24.7760   42.1120 C   0  0  0  0  0  0  0  0  0  0  0  0
   37.1530   23.9870   41.0230 C   0  0  0  0  0  0  0  0  0  0  0  0
   36.6480   24.6530   39.8870 C   0  0  0  0  0  0  0  0  0  0  0  0
   36.5750   25.9970   39.9370 N   0  0  0  0  0  0  0  0  0  0  0  0
   36.9520   26.7330   40.9970 C   0  0  0  0  0  0  0  0  0  0  0  0
   37.4320   26.1190   42.0820 N   0  0  0  0  0  0  0  0  0  0  0  0
   37.9190   24.2200   42.9610 H   0  0  0  0  0  0  0  0  0  0  0  0
   37.1930   22.9280   40.9400 H   0  0  0  0  0  0  0  0  0  0  0  0
   36.3060   24.2080   38.9640 H   0  0  0  0  0  0  0  0  0  0  0  0
  1  7  1  0  0  0  0
  1  2  1  0  0  0  0
  2 27  1  0  0  0  0
  2  8  1  1  0  0  0
  3 10  1  0  0  0  0
  3  2  1  0  0  0  0
  4  3  1  0  0  0  0
  5  6  1  0  0  0  0
  5  4  1  0  0  0  0
  6 14  1  6  0  0  0
  6  1  1  0  0  0  0
  9  3  1  0  0  0  0
 11  4  1  0  0  0  0
 12  5  1  0  0  0  0
 13  5  1  0  0  0  0
 16 15  1  0  0  0  0
 17 16  1  0  0  0  0
 17  6  1  0  0  0  0
 18 17  2  0  0  0  0
 19 18  1  0  0  0  0
 20 22  2  0  0  0  0
 20 18  1  0  0  0  0
 21 20  1  0  0  0  0
 22 23  1  0  0  0  0
 23 16  2  0  0  0  0
 24 35  1  0  0  0  0
 25 29  1  0  0  0  0
 25 24  1  0  0  0  0
 26 27  1  0  0  0  0
 26 25  2  0  0  0  0
 27 28  1  0  0  0  0
 28 24  2  0  0  0  0
 30 26  1  0  0  0  0
 31 37  1  0  0  0  0
 32 31  2  0  0  0  0
 33 34  2  0  0  0  0
 33 32  1  0  0  0  0
 34 35  1  0  0  0  0
 35 36  2  0  0  0  0
 36 31  1  0  0  0  0
 38 32  1  0  0  0  0
 39 33  1  0  0  0  0
M  END
>  <minimizedAffinity>
-5.5392251

$$$$

 OpenBabel03242520043D

 39 42  0  0  1  0  0  0  0  0999 V2000
   39.0560   29.0980   41.6680 N   0  0  0  0  0  0  0  0  0  0  0  0
   39.0900   28.3670   42.8700 C   0  0  1  0  0  0  0  0  0  0  0  0
   37.7910   28.5760   43.6080 C   0  0  0  0  0  0  0  0  0  0  0  0
   36.7530   27.9860   42.7580 N   0  0  0  0  0  0  0  0  0  0  0  0
   36.6020   28.7090   41.5220 C   0  0  0  0  0  0  0  0  0  0  0  0
   37.8930   29.1140   40.8850 C   0  0  1  0  0  0  0  0  0  0  0  0
   39.8940   29.0000   41.0700 H   0  0  0  0  0  0  0  0  0  0  0  0
   39.9130   28.7420   43.4970 H   0  0  0  0  0  0  0  0  0  0  0  0
   37.5630   29.6490   43.7160 H   0  0  0  0  0  0  0  0  0  0  0  0
   37.7670   28.0910   44.5890 H   0  0  0  0  0  0  0  0  0  0  0  0
   35.8670   28.0410   43.3000 H   0  0  0  0  0  0  0  0  0  0  0  0
   35.9740   28.0810   40.8560 H   0  0  0  0  0  0  0  0  0  0  0  0
   35.9550   29.6000   41.7520 H   0  0  0  0  0  0  0  0  0  0  0  0
   38.0590   28.3730   40.0470 H   0  0  0  0  0  0  0  0  0  0  0  0
   36.8070   29.0850   38.0290 Cl  0  0  0  0  0  0  0  0  0  0  0  0
   37.2830   30.5430   38.9090 C   0  0  0  0  0  0  0  0  0  0  0  0
   37.7670   30.4360   40.2130 C   0  0  0  0  0  0  0  0  0  0  0  0
   38.1390   31.5930   40.8920 C   0  0  0  0  0  0  0  0  0  0  0  0
   38.5230   31.5670   41.9140 H   0  0  0  0  0  0  0  0  0  0  0  0
   38.0350   32.8370   40.2970 C   0  0  0  0  0  0  0  0  0  0  0  0
   38.3270   33.7320   40.8360 H   0  0  0  0  0  0  0  0  0  0  0  0
   37.5470   32.8810   39.0000 C   0  0  0  0  0  3  0  0  0  0  0  0
   37.1680   31.7580   38.2910 C   0  0  0  0  0  3  0  0  0  0  0  0
   39.1310   25.0180   41.6670 C   0  0  0  0  0  0  0  0  0  0  0  0
   39.6230   24.8140   42.9320 C   0  0  0  0  0  0  0  0  0  0  0  0
   39.6810   26.0160   43.5590 C   0  0  0  0  0  0  0  0  0  0  0  0
   39.2260   26.9470   42.6840 N   0  0  0  0  0  0  0  0  0  0  0  0
   38.9010   26.3230   41.5530 N   0  0  0  0  0  0  0  0  0  0  0  0
   39.9210   23.8690   43.3740 H   0  0  0  0  0  0  0  0  0  0  0  0
   40.0260   26.2130   44.5800 H   0  0  0  0  0  0  0  0  0  0  0  0
   39.0360   23.2530   38.4400 C   0  0  0  0  0  0  0  0  0  0  0  0
   38.4440   22.0290   38.7690 C   0  0  0  0  0  0  0  0  0  0  0  0
   38.0800   21.8270   40.1160 C   0  0  0  0  0  0  0  0  0  0  0  0
   38.3310   22.8270   40.9830 N   0  0  0  0  0  0  0  0  0  0  0  0
   38.9010   23.9940   40.6420 C   0  0  0  0  0  0  0  0  0  0  0  0
   39.2530   24.2030   39.3690 N   0  0  0  0  0  0  0  0  0  0  0  0
   39.2970   23.3620   37.3940 H   0  0  0  0  0  0  0  0  0  0  0  0
   38.2270   21.2150   38.1190 H   0  0  0  0  0  0  0  0  0  0  0  0
   37.6160   20.9500   40.5450 H   0  0  0  0  0  0  0  0  0  0  0  0
  1  2  1  0  0  0  0
  2  8  1  1  0  0  0
  2  3  1  0  0  0  0
  3  9  1  0  0  0  0
  3 10  1  0  0  0  0
  4 11  1  0  0  0  0
  4  3  1  0  0  0  0
  5 13  1  0  0  0  0
  5  4  1  0  0  0  0
  6 14  1  6  0  0  0
  6  5  1  0  0  0  0
  6  1  1  0  0  0  0
  7  1  1  0  0  0  0
 12  5  1  0  0  0  0
 15 16  1  0  0  0  0
 16 17  1  0  0  0  0
 17  6  1  0  0  0  0
 17 18  2  0  0  0  0
 18 19  1  0  0  0  0
 20 21  1  0  0  0  0
 20 18  1  0  0  0  0
 22 20  2  0  0  0  0
 23 16  2  0  0  0  0
 23 22  1  0  0  0  0
 24 25  1  0  0  0  0
 25 29  1  0  0  0  0
 25 26  2  0  0  0  0
 26 30  1  0  0  0  0
 27  2  1  0  0  0  0
 27 26  1  0  0  0  0
 28 24  2  0  0  0  0
 28 27  1  0  0  0  0
 31 32  2  0  0  0  0
 31 36  1  0  0  0  0
 32 33  1  0  0  0  0
 33 39  1  0  0  0  0
 33 34  2  0  0  0  0
 35 34  1  0  0  0  0
 35 24  1  0  0  0  0
 36 35  2  0  0  0  0
 37 31  1  0  0  0  0
 38 32  1  0  0  0  0
M  END
>  <minimizedAffinity>
-5.41410828

$$$$

 OpenBabel03242520043D

 39 42  0  0  1  0  0  0  0  0999 V2000
   36.8020   28.6490   40.6950 N   0  0  0  0  0  0  0  0  0  0  0  0
   37.1000   29.8510   41.3630 C   0  0  1  0  0  0  0  0  0  0  0  0
   38.0100   29.5520   42.5280 C   0  0  0  0  0  0  0  0  0  0  0  0
   39.2550   29.0510   41.9400 N   0  0  0  0  0  0  0  0  0  0  0  0
   39.0610   27.7850   41.2820 C   0  0  0  0  0  0  0  0  0  0  0  0
   37.8100   27.7000   40.4680 C   0  0  1  0  0  0  0  0  0  0  0  0
   36.2030   28.7470   39.8580 H   0  0  0  0  0  0  0  0  0  0  0  0
   36.1670   30.2880   41.7510 H   0  0  0  0  0  0  0  0  0  0  0  0
   37.5950   28.7510   43.1620 H   0  0  0  0  0  0  0  0  0  0  0  0
   38.2340   30.4310   43.1400 H   0  0  0  0  0  0  0  0  0  0  0  0
   39.9220   28.9300   42.7280 H   0  0  0  0  0  0  0  0  0  0  0  0
   39.9760   27.5890   40.6830 H   0  0  0  0  0  0  0  0  0  0  0  0
   39.0860   27.0000   42.0890 H   0  0  0  0  0  0  0  0  0  0  0  0
   38.1400   27.8320   39.3950 H   0  0  0  0  0  0  0  0  0  0  0  0
   36.5690   26.6450   37.8830 Cl  0  0  0  0  0  0  0  0  0  0  0  0
   36.6310   25.7500   39.4070 C   0  0  0  0  0  0  0  0  0  0  0  0
   37.2240   26.3330   40.5270 C   0  0  0  0  0  0  0  0  0  0  0  0
   37.2640   25.6150   41.7190 C   0  0  0  0  0  0  0  0  0  0  0  0
   37.7170   26.0230   42.6260 H   0  0  0  0  0  0  0  0  0  0  0  0
   36.7300   24.3440   41.8080 C   0  0  0  0  0  0  0  0  0  0  0  0
   36.7680   23.7940   42.7420 H   0  0  0  0  0  0  0  0  0  0  0  0
   36.1540   23.8150   40.6630 C   0  0  0  0  0  3  0  0  0  0  0  0
   36.0920   24.4930   39.4600 C   0  0  0  0  0  3  0  0  0  0  0  0
   39.4010   32.1350   39.8970 C   0  0  0  0  0  0  0  0  0  0  0  0
   38.3620   32.2550   39.0080 C   0  0  0  0  0  0  0  0  0  0  0  0
   37.3630   31.4310   39.4180 C   0  0  0  0  0  0  0  0  0  0  0  0
   37.7900   30.8150   40.5480 N   0  0  0  0  0  0  0  0  0  0  0  0
   39.0180   31.2540   40.8170 N   0  0  0  0  0  0  0  0  0  0  0  0
   38.3230   32.8870   38.1290 H   0  0  0  0  0  0  0  0  0  0  0  0
   36.3900   31.2820   38.9360 H   0  0  0  0  0  0  0  0  0  0  0  0
   42.2390   34.1550   38.7100 C   0  0  0  0  0  0  0  0  0  0  0  0
   43.1050   34.1540   39.8090 C   0  0  0  0  0  0  0  0  0  0  0  0
   42.6940   33.4480   40.9580 C   0  0  0  0  0  0  0  0  0  0  0  0
   41.4990   32.8290   40.9110 N   0  0  0  0  0  0  0  0  0  0  0  0
   40.6850   32.8440   39.8420 C   0  0  0  0  0  0  0  0  0  0  0  0
   41.0580   33.5090   38.7440 N   0  0  0  0  0  0  0  0  0  0  0  0
   42.5980   34.7100   37.8520 H   0  0  0  0  0  0  0  0  0  0  0  0
   44.0540   34.6270   39.8900 H   0  0  0  0  0  0  0  0  0  0  0  0
   43.2320   33.3420   41.8890 H   0  0  0  0  0  0  0  0  0  0  0  0
  1  2  1  0  0  0  0
  2  8  1  1  0  0  0
  2  3  1  0  0  0  0
  3 10  1  0  0  0  0
  3  9  1  0  0  0  0
  4  3  1  0  0  0  0
  4 11  1  0  0  0  0
  5  4  1  0  0  0  0
  5 13  1  0  0  0  0
  6 14  1  6  0  0  0
  6 17  1  0  0  0  0
  6  1  1  0  0  0  0
  6  5  1  0  0  0  0
  7  1  1  0  0  0  0
 12  5  1  0  0  0  0
 15 16  1  0  0  0  0
 16 23  2  0  0  0  0
 16 17  1  0  0  0  0
 17 18  2  0  0  0  0
 18 20  1  0  0  0  0
 18 19  1  0  0  0  0
 20 21  1  0  0  0  0
 22 20  2  0  0  0  0
 23 22  1  0  0  0  0
 24 28  2  0  0  0  0
 25 26  2  0  0  0  0
 25 24  1  0  0  0  0
 26 27  1  0  0  0  0
 27 28  1  0  0  0  0
 27  2  1  0  0  0  0
 29 25  1  0  0  0  0
 30 26  1  0  0  0  0
 31 36  2  0  0  0  0
 31 32  1  0  0  0  0
 32 38  1  0  0  0  0
 32 33  2  0  0  0  0
 33 39  1  0  0  0  0
 34 33  1  0  0  0  0
 35 24  1  0  0  0  0
 35 34  2  0  0  0  0
 36 35  1  0  0  0  0
 37 31  1  0  0  0  0
M  END
>  <minimizedAffinity>
-5.34986734

$$$$

 OpenBabel03242520043D

 39 42  0  0  1  0  0  0  0  0999 V2000
   37.0330   26.5020   41.3100 N   0  0  0  0  0  0  0  0  0  0  0  0
   38.0480   26.7480   42.2520 C   0  0  1  0  0  0  0  0  0  0  0  0
   39.2330   25.8680   41.9380 C   0  0  0  0  0  0  0  0  0  0  0  0
   39.7220   26.3160   40.6310 N   0  0  0  0  0  0  0  0  0  0  0  0
   38.7690   26.0480   39.5860 C   0  0  0  0  0  0  0  0  0  0  0  0
   37.3520   26.3520   39.9530 C   0  0  1  0  0  0  0  0  0  0  0  0
   36.1810   27.0790   41.4200 H   0  0  0  0  0  0  0  0  0  0  0  0
   37.6780   26.4910   43.2570 H   0  0  0  0  0  0  0  0  0  0  0  0
   38.9290   24.8140   41.8370 H   0  0  0  0  0  0  0  0  0  0  0  0
   40.0420   25.9540   42.6690 H   0  0  0  0  0  0  0  0  0  0  0  0
   40.5940   25.7800   40.4480 H   0  0  0  0  0  0  0  0  0  0  0  0
   39.1090   26.6070   38.6890 H   0  0  0  0  0  0  0  0  0  0  0  0
   38.9020   24.9660   39.3040 H   0  0  0  0  0  0  0  0  0  0  0  0
   37.1200   27.3420   39.4570 H   0  0  0  0  0  0  0  0  0  0  0  0
   37.2960   23.5510   41.1740 Cl  0  0  0  0  0  0  0  0  0  0  0  0
   36.3060   24.0720   39.8030 C   0  0  0  0  0  0  0  0  0  0  0  0
   36.4150   25.3780   39.3290 C   0  0  0  0  0  0  0  0  0  0  0  0
   35.6300   25.7720   38.2490 C   0  0  0  0  0  0  0  0  0  0  0  0
   35.6750   26.7830   37.8370 H   0  0  0  0  0  0  0  0  0  0  0  0
   34.7490   24.8930   37.6460 C   0  0  0  0  0  0  0  0  0  0  0  0
   34.1420   25.2110   36.8050 H   0  0  0  0  0  0  0  0  0  0  0  0
   34.6830   23.6070   38.1610 C   0  0  0  0  0  3  0  0  0  0  0  0
   35.4450   23.1760   39.2300 C   0  0  0  0  0  3  0  0  0  0  0  0
   38.6720   30.2030   41.6670 C   0  0  0  0  0  0  0  0  0  0  0  0
   39.6290   29.9550   42.6200 C   0  0  0  0  0  0  0  0  0  0  0  0
   39.5390   28.6470   42.9750 C   0  0  0  0  0  0  0  0  0  0  0  0
   38.5360   28.1020   42.2440 N   0  0  0  0  0  0  0  0  0  0  0  0
   38.0290   29.0560   41.4640 N   0  0  0  0  0  0  0  0  0  0  0  0
   40.3410   30.6610   43.0320 H   0  0  0  0  0  0  0  0  0  0  0  0
   40.1540   28.1180   43.7120 H   0  0  0  0  0  0  0  0  0  0  0  0
   38.9110   33.7280   40.6420 C   0  0  0  0  0  0  0  0  0  0  0  0
   37.8710   33.8560   39.7150 C   0  0  0  0  0  0  0  0  0  0  0  0
   37.0920   32.7110   39.4530 C   0  0  0  0  0  0  0  0  0  0  0  0
   37.4080   31.5810   40.1140 N   0  0  0  0  0  0  0  0  0  0  0  0
   38.4120   31.4840   41.0010 C   0  0  0  0  0  0  0  0  0  0  0  0
   39.1620   32.5590   41.2620 N   0  0  0  0  0  0  0  0  0  0  0  0
   39.4810   34.6350   40.8100 H   0  0  0  0  0  0  0  0  0  0  0  0
   37.5870   34.7250   39.1710 H   0  0  0  0  0  0  0  0  0  0  0  0
   36.2560   32.6280   38.7720 H   0  0  0  0  0  0  0  0  0  0  0  0
  1  7  1  0  0  0  0
  1  2  1  0  0  0  0
  2  8  1  1  0  0  0
  3  2  1  0  0  0  0
  3 10  1  0  0  0  0
  4  3  1  0  0  0  0
  5  6  1  0  0  0  0
  5  4  1  0  0  0  0
  6 14  1  6  0  0  0
  6  1  1  0  0  0  0
  9  3  1  0  0  0  0
 11  4  1  0  0  0  0
 12  5  1  0  0  0  0
 13  5  1  0  0  0  0
 16 15  1  0  0  0  0
 17 16  1  0  0  0  0
 17  6  1  0  0  0  0
 18 17  2  0  0  0  0
 19 18  1  0  0  0  0
 20 22  2  0  0  0  0
 20 18  1  0  0  0  0
 21 20  1  0  0  0  0
 22 23  1  0  0  0  0
 23 16  2  0  0  0  0
 24 25  1  0  0  0  0
 25 26  2  0  0  0  0
 25 29  1  0  0  0  0
 26 30  1  0  0  0  0
 27  2  1  0  0  0  0
 27 26  1  0  0  0  0
 28 24  2  0  0  0  0
 28 27  1  0  0  0  0
 31 37  1  0  0  0  0
 31 36  1  0  0  0  0
 32 31  2  0  0  0  0
 33 32  1  0  0  0  0
 33 34  2  0  0  0  0
 34 35  1  0  0  0  0
 35 36  2  0  0  0  0
 35 24  1  0  0  0  0
 38 32  1  0  0  0  0
 39 33  1  0  0  0  0
M  END
>  <minimizedAffinity>
-5.3454299

$$$$

 OpenBabel03242520043D

 39 42  0  0  1  0  0  0  0  0999 V2000
   37.1440   29.6800   38.9930 N   0  0  0  0  0  0  0  0  0  0  0  0
   37.5500   30.7700   39.7850 C   0  0  1  0  0  0  0  0  0  0  0  0
   36.3560   31.2980   40.5410 C   0  0  0  0  0  0  0  0  0  0  0  0
   35.9520   30.2180   41.4460 N   0  0  0  0  0  0  0  0  0  0  0  0
   35.4600   29.0740   40.7230 C   0  0  0  0  0  0  0  0  0  0  0  0
   36.2640   28.7200   39.5130 C   0  0  1  0  0  0  0  0  0  0  0  0
   37.8990   29.2240   38.4510 H   0  0  0  0  0  0  0  0  0  0  0  0
   37.9310   31.5690   39.1300 H   0  0  0  0  0  0  0  0  0  0  0  0
   35.5120   31.4980   39.8620 H   0  0  0  0  0  0  0  0  0  0  0  0
   36.5780   32.1920   41.1320 H   0  0  0  0  0  0  0  0  0  0  0  0
   35.1890   30.6050   42.0380 H   0  0  0  0  0  0  0  0  0  0  0  0
   35.3900   28.2390   41.4510 H   0  0  0  0  0  0  0  0  0  0  0  0
   34.3900   29.3010   40.4580 H   0  0  0  0  0  0  0  0  0  0  0  0
   36.8990   27.8360   39.8230 H   0  0  0  0  0  0  0  0  0  0  0  0
   36.4090   25.7170   38.9630 Cl  0  0  0  0  0  0  0  0  0  0  0  0
   35.3760   26.8530   38.0840 C   0  0  0  0  0  0  0  0  0  0  0  0
   35.3930   28.2050   38.4220 C   0  0  0  0  0  0  0  0  0  0  0  0
   34.5740   29.0860   37.7190 C   0  0  0  0  0  0  0  0  0  0  0  0
   34.5470   30.1550   37.9430 H   0  0  0  0  0  0  0  0  0  0  0  0
   33.7520   28.6420   36.7000 C   0  0  0  0  0  0  0  0  0  0  0  0
   33.1190   29.3370   36.1600 H   0  0  0  0  0  0  0  0  0  0  0  0
   33.7790   27.2860   36.4090 C   0  0  0  0  0  3  0  0  0  0  0  0
   34.5750   26.3790   37.0800 C   0  0  0  0  0  3  0  0  0  0  0  0
   39.8400   29.1760   41.9940 C   0  0  0  0  0  0  0  0  0  0  0  0
   40.0580   30.4860   42.3430 C   0  0  0  0  0  0  0  0  0  0  0  0
   39.2480   31.2640   41.5810 C   0  0  0  0  0  0  0  0  0  0  0  0
   38.5400   30.4350   40.7740 N   0  0  0  0  0  0  0  0  0  0  0  0
   38.9130   29.1840   41.0400 N   0  0  0  0  0  0  0  0  0  0  0  0
   40.7500   30.8570   43.0910 H   0  0  0  0  0  0  0  0  0  0  0  0
   39.1690   32.3560   41.6020 H   0  0  0  0  0  0  0  0  0  0  0  0
   42.4230   26.7830   43.0630 C   0  0  0  0  0  0  0  0  0  0  0  0
   41.6760   25.7590   43.6560 C   0  0  0  0  0  0  0  0  0  0  0  0
   40.2740   25.9100   43.6790 C   0  0  0  0  0  0  0  0  0  0  0  0
   39.7610   27.0280   43.1290 N   0  0  0  0  0  0  0  0  0  0  0  0
   40.5010   27.9970   42.5650 C   0  0  0  0  0  0  0  0  0  0  0  0
   41.8310   27.8710   42.5350 N   0  0  0  0  0  0  0  0  0  0  0  0
   43.4940   26.6220   43.0690 H   0  0  0  0  0  0  0  0  0  0  0  0
   42.0370   24.8630   44.1010 H   0  0  0  0  0  0  0  0  0  0  0  0
   39.5470   25.2250   44.0930 H   0  0  0  0  0  0  0  0  0  0  0  0
  1  6  1  0  0  0  0
  1  2  1  0  0  0  0
  2  8  1  6  0  0  0
  2  3  1  0  0  0  0
  2 27  1  0  0  0  0
  3 10  1  0  0  0  0
  3  4  1  0  0  0  0
  4 11  1  0  0  0  0
  5  4  1  0  0  0  0
  5 12  1  0  0  0  0
  6 14  1  1  0  0  0
  6  5  1  0  0  0  0
  7  1  1  0  0  0  0
  9  3  1  0  0  0  0
 13  5  1  0  0  0  0
 16 17  1  0  0  0  0
 16 15  1  0  0  0  0
 17  6  1  0  0  0  0
 18 19  1  0  0  0  0
 18 17  2  0  0  0  0
 20 18  1  0  0  0  0
 21 20  1  0  0  0  0
 22 20  2  0  0  0  0
 22 23  1  0  0  0  0
 23 16  2  0  0  0  0
 24 25  1  0  0  0  0
 24 35  1  0  0  0  0
 25 29  1  0  0  0  0
 26 30  1  0  0  0  0
 26 25  2  0  0  0  0
 27 28  1  0  0  0  0
 27 26  1  0  0  0  0
 28 24  2  0  0  0  0
 31 37  1  0  0  0  0
 31 32  1  0  0  0  0
 32 33  2  0  0  0  0
 32 38  1  0  0  0  0
 33 39  1  0  0  0  0
 34 33  1  0  0  0  0
 35 34  2  0  0  0  0
 36 35  1  0  0  0  0
 36 31  2  0  0  0  0
M  END
>  <minimizedAffinity>
-5.30143881

$$$$
