
 OpenBabel03252508163D

 37 40  0  0  1  0  0  0  0  0999 V2000
   35.0480   28.6520   38.6790 C   0  0  0  0  0  3  0  0  0  0  0  0
   34.7210   29.2670   39.7490 C   0  0  0  0  0  3  0  0  0  0  0  0
   32.9690   26.8590   36.2260 C   0  0  0  0  0  0  0  0  0  0  0  0
   32.0500   27.8440   35.8170 C   0  0  0  0  0  0  0  0  0  0  0  0
   32.1610   29.0700   36.4030 C   0  0  0  0  0  0  0  0  0  0  0  0
   33.1440   29.2210   37.3150 N   0  0  0  0  0  0  0  0  0  0  0  0
   34.0150   28.3090   37.7090 C   0  0  0  0  0  0  0  0  0  0  0  0
   33.9080   27.1250   37.1480 N   0  0  0  0  0  0  0  0  0  0  0  0
   32.9090   25.8630   35.7800 H   0  0  0  0  0  0  0  0  0  0  0  0
   31.3150   27.6510   35.0800 H   0  0  0  0  0  0  0  0  0  0  0  0
   30.2410   30.3030   38.5640 Cl  0  0  0  0  0  0  0  0  0  0  0  0
   30.4850   30.9080   36.9530 C   0  0  0  0  0  0  0  0  0  0  0  0
   31.3690   30.2400   36.1510 C   0  0  0  0  0  0  0  0  0  0  0  0
   31.4770   30.8750   34.9090 C   0  0  0  0  0  0  0  0  0  0  0  0
   32.1350   30.4900   34.1310 H   0  0  0  0  0  0  0  0  0  0  0  0
   30.7960   32.0090   34.5370 C   0  0  0  0  0  0  0  0  0  0  0  0
   30.9170   32.4510   33.5740 H   0  0  0  0  0  0  0  0  0  0  0  0
   29.9270   32.6080   35.4180 C   0  0  0  0  0  3  0  0  0  0  0  0
   29.7760   32.0330   36.6560 C   0  0  0  0  0  3  0  0  0  0  0  0
   35.8770   29.5910   40.6880 C   0  0  0  0  0  0  0  0  0  0  0  0
   36.0700   30.6720   40.7000 H   0  0  0  0  0  0  0  0  0  0  0  0
   35.5550   29.2850   41.7080 H   0  0  0  0  0  0  0  0  0  0  0  0
   37.0920   28.7910   40.2900 C   0  0  1  0  0  0  0  0  0  0  0  0
   38.4150   29.4480   40.4820 C   0  0  0  0  0  0  0  0  0  0  0  0
   38.0380   28.3390   41.3370 C   0  0  1  0  0  0  0  0  0  0  0  0
   36.9940   28.1590   39.3840 H   0  0  0  0  0  0  0  0  0  0  0  0
   38.4190   30.4950   40.8910 H   0  0  0  0  0  0  0  0  0  0  0  0
   39.2190   29.3040   39.7220 H   0  0  0  0  0  0  0  0  0  0  0  0
   38.5480   27.3520   41.1130 H   0  0  0  0  0  0  0  0  0  0  0  0
   37.6270   28.4600   42.7510 C   0  0  0  0  0  0  0  0  0  0  0  0
   38.2470   27.3770   43.6790 C   0  0  0  0  0  0  0  0  0  0  0  0
   36.8030   27.2750   43.3180 C   0  0  0  0  0  0  0  0  0  0  0  0
   37.4610   29.4400   43.2270 H   0  0  0  0  0  0  0  0  0  0  0  0
   38.5670   27.7170   44.6680 H   0  0  0  0  0  0  0  0  0  0  0  0
   38.9410   26.6490   43.2220 H   0  0  0  0  0  0  0  0  0  0  0  0
   36.5420   26.4830   42.5870 H   0  0  0  0  0  0  0  0  0  0  0  0
   36.1180   27.4700   44.1490 H   0  0  0  0  0  0  0  0  0  0  0  0
  1  2  2  0  0  0  0
  2 20  1  0  0  0  0
  3  8  1  0  0  0  0
  4  3  2  0  0  0  0
  4  5  1  0  0  0  0
  5  6  2  0  0  0  0
  6  7  1  0  0  0  0
  7  1  1  0  0  0  0
  8  7  2  0  0  0  0
  9  3  1  0  0  0  0
 10  4  1  0  0  0  0
 12 11  1  0  0  0  0
 13  5  1  0  0  0  0
 13 12  2  0  0  0  0
 14 13  1  0  0  0  0
 15 14  1  0  0  0  0
 16 14  2  0  0  0  0
 16 18  1  0  0  0  0
 17 16  1  0  0  0  0
 18 19  2  0  0  0  0
 19 12  1  0  0  0  0
 20 21  1  0  0  0  0
 20 22  1  0  0  0  0
 23 26  1  6  0  0  0
 23 24  1  0  0  0  0
 23 20  1  0  0  0  0
 23 25  1  0  0  0  0
 24 27  1  0  0  0  0
 24 25  1  0  0  0  0
 25 29  1  6  0  0  0
 25 30  1  0  0  0  0
 28 24  1  0  0  0  0
 30 33  1  0  0  0  0
 30 32  1  0  0  0  0
 30 31  1  0  0  0  0
 31 34  1  0  0  0  0
 32 31  1  0  0  0  0
 32 37  1  0  0  0  0
 35 31  1  0  0  0  0
 36 32  1  0  0  0  0
M  END
>  <minimizedAffinity>
-5.56562519

$$$$

 OpenBabel03252508163D

 37 40  0  0  1  0  0  0  0  0999 V2000
   38.8640   28.7300   41.9380 C   0  0  0  0  0  3  0  0  0  0  0  0
   38.1130   28.2720   42.8620 C   0  0  0  0  0  3  0  0  0  0  0  0
   38.1020   32.0920   40.6470 C   0  0  0  0  0  0  0  0  0  0  0  0
   37.3430   31.8190   39.4930 C   0  0  0  0  0  0  0  0  0  0  0  0
   37.1360   30.5060   39.1900 C   0  0  0  0  0  0  0  0  0  0  0  0
   37.6760   29.5970   40.0280 N   0  0  0  0  0  0  0  0  0  0  0  0
   38.3890   29.8350   41.1140 C   0  0  0  0  0  0  0  0  0  0  0  0
   38.5920   31.1000   41.4070 N   0  0  0  0  0  0  0  0  0  0  0  0
   38.2910   33.1340   40.9200 H   0  0  0  0  0  0  0  0  0  0  0  0
   36.9390   32.5920   38.8950 H   0  0  0  0  0  0  0  0  0  0  0  0
   34.3230   29.1570   39.5660 Cl  0  0  0  0  0  0  0  0  0  0  0  0
   35.1710   29.3440   38.0600 C   0  0  0  0  0  0  0  0  0  0  0  0
   36.3890   29.9640   38.0900 C   0  0  0  0  0  0  0  0  0  0  0  0
   36.9170   30.0680   36.7990 C   0  0  0  0  0  0  0  0  0  0  0  0
   37.8840   30.5350   36.6180 H   0  0  0  0  0  0  0  0  0  0  0  0
   36.3060   29.6130   35.6550 C   0  0  0  0  0  0  0  0  0  0  0  0
   36.7560   29.7190   34.6940 H   0  0  0  0  0  0  0  0  0  0  0  0
   35.0780   29.0000   35.7300 C   0  0  0  0  0  3  0  0  0  0  0  0
   34.5050   28.8680   36.9710 C   0  0  0  0  0  3  0  0  0  0  0  0
   38.7100   27.1290   43.6750 C   0  0  0  0  0  0  0  0  0  0  0  0
   39.1840   27.5130   44.5870 H   0  0  0  0  0  0  0  0  0  0  0  0
   37.8620   26.4740   43.9740 H   0  0  0  0  0  0  0  0  0  0  0  0
   39.6640   26.3400   42.8130 C   0  0  1  0  0  0  0  0  0  0  0  0
   40.0970   25.0150   43.3400 C   0  0  0  0  0  0  0  0  0  0  0  0
   39.2070   25.0730   42.1960 C   0  0  1  0  0  0  0  0  0  0  0  0
   40.4380   26.9210   42.2720 H   0  0  0  0  0  0  0  0  0  0  0  0
   39.7000   24.7020   44.3430 H   0  0  0  0  0  0  0  0  0  0  0  0
   41.1510   24.6810   43.1950 H   0  0  0  0  0  0  0  0  0  0  0  0
   39.6820   24.8430   41.1930 H   0  0  0  0  0  0  0  0  0  0  0  0
   37.7640   24.7600   42.2280 C   0  0  0  0  0  0  0  0  0  0  0  0
   37.3170   23.7480   41.1340 C   0  0  0  0  0  0  0  0  0  0  0  0
   36.9520   25.1870   40.9770 C   0  0  0  0  0  0  0  0  0  0  0  0
   37.2030   24.6990   43.1750 H   0  0  0  0  0  0  0  0  0  0  0  0
   36.5790   23.0020   41.4420 H   0  0  0  0  0  0  0  0  0  0  0  0
   38.0960   23.3420   40.4650 H   0  0  0  0  0  0  0  0  0  0  0  0
   37.5210   25.7480   40.2100 H   0  0  0  0  0  0  0  0  0  0  0  0
   35.8840   25.3940   41.0970 H   0  0  0  0  0  0  0  0  0  0  0  0
  1  2  2  0  0  0  0
  2 20  1  0  0  0  0
  3  9  1  0  0  0  0
  3  8  1  0  0  0  0
  4  3  2  0  0  0  0
  5  4  1  0  0  0  0
  5  6  2  0  0  0  0
  6  7  1  0  0  0  0
  7  8  2  0  0  0  0
  7  1  1  0  0  0  0
 10  4  1  0  0  0  0
 12 13  1  0  0  0  0
 12 11  1  0  0  0  0
 13  5  1  0  0  0  0
 14 13  2  0  0  0  0
 15 14  1  0  0  0  0
 16 18  2  0  0  0  0
 16 14  1  0  0  0  0
 17 16  1  0  0  0  0
 18 19  1  0  0  0  0
 19 12  2  0  0  0  0
 20 22  1  0  0  0  0
 20 21  1  0  0  0  0
 23 26  1  6  0  0  0
 23 24  1  0  0  0  0
 23 20  1  0  0  0  0
 24 27  1  0  0  0  0
 25 29  1  6  0  0  0
 25 30  1  0  0  0  0
 25 23  1  0  0  0  0
 25 24  1  0  0  0  0
 28 24  1  0  0  0  0
 30 33  1  0  0  0  0
 31 34  1  0  0  0  0
 31 30  1  0  0  0  0
 32 37  1  0  0  0  0
 32 31  1  0  0  0  0
 32 30  1  0  0  0  0
 35 31  1  0  0  0  0
 36 32  1  0  0  0  0
M  END
>  <minimizedAffinity>
-5.47680759

$$$$

 OpenBabel03252508163D

 37 40  0  0  1  0  0  0  0  0999 V2000
   38.4000   28.3210   41.9480 C   0  0  0  0  0  3  0  0  0  0  0  0
   38.4480   28.1650   43.2140 C   0  0  0  0  0  3  0  0  0  0  0  0
   36.1580   31.0480   40.9020 C   0  0  0  0  0  0  0  0  0  0  0  0
   37.0310   31.9330   40.2410 C   0  0  0  0  0  0  0  0  0  0  0  0
   38.3460   31.5780   40.1920 C   0  0  0  0  0  0  0  0  0  0  0  0
   38.6820   30.4110   40.7800 N   0  0  0  0  0  0  0  0  0  0  0  0
   37.8780   29.5690   41.4030 C   0  0  0  0  0  0  0  0  0  0  0  0
   36.6090   29.9100   41.4540 N   0  0  0  0  0  0  0  0  0  0  0  0
   35.0960   31.3010   40.9640 H   0  0  0  0  0  0  0  0  0  0  0  0
   36.6840   32.8250   39.7890 H   0  0  0  0  0  0  0  0  0  0  0  0
   39.8720   30.4580   37.6830 Cl  0  0  0  0  0  0  0  0  0  0  0  0
   40.2010   31.9620   38.4890 C   0  0  0  0  0  0  0  0  0  0  0  0
   39.4260   32.2880   39.5670 C   0  0  0  0  0  0  0  0  0  0  0  0
   39.7940   33.5390   40.0740 C   0  0  0  0  0  0  0  0  0  0  0  0
   39.2890   33.9720   40.9360 H   0  0  0  0  0  0  0  0  0  0  0  0
   40.7920   34.3360   39.5680 C   0  0  0  0  0  0  0  0  0  0  0  0
   41.0310   35.2840   39.9950 H   0  0  0  0  0  0  0  0  0  0  0  0
   41.5180   33.9180   38.4770 C   0  0  0  0  0  3  0  0  0  0  0  0
   41.2050   32.6970   37.9320 C   0  0  0  0  0  3  0  0  0  0  0  0
   39.0250   26.8340   43.6800 C   0  0  0  0  0  0  0  0  0  0  0  0
   39.5720   26.9610   44.6230 H   0  0  0  0  0  0  0  0  0  0  0  0
   38.1600   26.1600   43.8690 H   0  0  0  0  0  0  0  0  0  0  0  0
   39.8820   26.2440   42.5880 C   0  0  1  0  0  0  0  0  0  0  0  0
   40.5970   24.9780   42.9140 C   0  0  0  0  0  0  0  0  0  0  0  0
   39.4910   24.9520   41.9760 C   0  0  1  0  0  0  0  0  0  0  0  0
   40.4380   26.9620   41.9520 H   0  0  0  0  0  0  0  0  0  0  0  0
   40.4650   24.5600   43.9480 H   0  0  0  0  0  0  0  0  0  0  0  0
   41.6350   24.8180   42.5380 H   0  0  0  0  0  0  0  0  0  0  0  0
   39.7760   24.8460   40.8840 H   0  0  0  0  0  0  0  0  0  0  0  0
   38.1450   24.4190   42.2670 C   0  0  0  0  0  0  0  0  0  0  0  0
   37.5850   23.4860   41.1560 C   0  0  0  0  0  0  0  0  0  0  0  0
   37.0190   24.8600   41.2960 C   0  0  0  0  0  0  0  0  0  0  0  0
   37.8300   24.1610   43.2920 H   0  0  0  0  0  0  0  0  0  0  0  0
   37.0370   22.6040   41.4990 H   0  0  0  0  0  0  0  0  0  0  0  0
   38.2320   23.2860   40.2830 H   0  0  0  0  0  0  0  0  0  0  0  0
   37.3200   25.5880   40.5170 H   0  0  0  0  0  0  0  0  0  0  0  0
   35.9910   24.8850   41.6710 H   0  0  0  0  0  0  0  0  0  0  0  0
  1  2  2  0  0  0  0
  2 20  1  0  0  0  0
  3  9  1  0  0  0  0
  3  8  1  0  0  0  0
  4  3  2  0  0  0  0
  5  4  1  0  0  0  0
  5  6  2  0  0  0  0
  6  7  1  0  0  0  0
  7  8  2  0  0  0  0
  7  1  1  0  0  0  0
 10  4  1  0  0  0  0
 11 12  1  0  0  0  0
 12 13  1  0  0  0  0
 13 14  2  0  0  0  0
 13  5  1  0  0  0  0
 14 15  1  0  0  0  0
 16 17  1  0  0  0  0
 16 14  1  0  0  0  0
 18 16  2  0  0  0  0
 19 18  1  0  0  0  0
 19 12  2  0  0  0  0
 20 22  1  0  0  0  0
 20 21  1  0  0  0  0
 23 26  1  6  0  0  0
 23 24  1  0  0  0  0
 23 20  1  0  0  0  0
 24 27  1  0  0  0  0
 25 29  1  6  0  0  0
 25 30  1  0  0  0  0
 25 23  1  0  0  0  0
 25 24  1  0  0  0  0
 28 24  1  0  0  0  0
 30 33  1  0  0  0  0
 31 32  1  0  0  0  0
 31 34  1  0  0  0  0
 31 30  1  0  0  0  0
 32 37  1  0  0  0  0
 32 30  1  0  0  0  0
 35 31  1  0  0  0  0
 36 32  1  0  0  0  0
M  END
>  <minimizedAffinity>
-5.40959406

$$$$

 OpenBabel03252508163D

 37 40  0  0  1  0  0  0  0  0999 V2000
   35.1880   28.4250   38.2980 C   0  0  0  0  0  3  0  0  0  0  0  0
   35.8550   29.4930   38.0880 C   0  0  0  0  0  3  0  0  0  0  0  0
   32.7210   26.7470   36.1420 C   0  0  0  0  0  0  0  0  0  0  0  0
   31.8040   27.7770   35.8560 C   0  0  0  0  0  0  0  0  0  0  0  0
   32.0510   28.9940   36.4200 C   0  0  0  0  0  0  0  0  0  0  0  0
   33.1510   29.0920   37.1950 N   0  0  0  0  0  0  0  0  0  0  0  0
   34.0210   28.1380   37.4730 C   0  0  0  0  0  0  0  0  0  0  0  0
   33.7840   26.9630   36.9320 N   0  0  0  0  0  0  0  0  0  0  0  0
   32.5540   25.7580   35.7090 H   0  0  0  0  0  0  0  0  0  0  0  0
   30.9710   27.6230   35.2220 H   0  0  0  0  0  0  0  0  0  0  0  0
   30.2030   30.1100   38.7040 Cl  0  0  0  0  0  0  0  0  0  0  0  0
   30.4390   30.8310   37.1400 C   0  0  0  0  0  0  0  0  0  0  0  0
   31.2900   30.2020   36.2740 C   0  0  0  0  0  0  0  0  0  0  0  0
   31.3980   30.9270   35.0820 C   0  0  0  0  0  0  0  0  0  0  0  0
   32.0320   30.5850   34.2650 H   0  0  0  0  0  0  0  0  0  0  0  0
   30.7450   32.1060   34.8100 C   0  0  0  0  0  0  0  0  0  0  0  0
   30.8640   32.6170   33.8820 H   0  0  0  0  0  0  0  0  0  0  0  0
   29.9080   32.6590   35.7500 C   0  0  0  0  0  3  0  0  0  0  0  0
   29.7590   31.9950   36.9430 C   0  0  0  0  0  3  0  0  0  0  0  0
   37.0640   29.6900   38.9940 C   0  0  0  0  0  0  0  0  0  0  0  0
   37.6120   28.7460   39.1140 H   0  0  0  0  0  0  0  0  0  0  0  0
   37.7320   30.4160   38.4790 H   0  0  0  0  0  0  0  0  0  0  0  0
   36.6190   30.2750   40.3100 C   0  0  1  0  0  0  0  0  0  0  0  0
   37.6640   30.4130   41.3640 C   0  0  0  0  0  0  0  0  0  0  0  0
   37.1320   31.6010   40.7260 C   0  0  1  0  0  0  0  0  0  0  0  0
   35.6110   29.9830   40.6670 H   0  0  0  0  0  0  0  0  0  0  0  0
   38.7010   30.0600   41.1150 H   0  0  0  0  0  0  0  0  0  0  0  0
   37.4060   30.2030   42.4290 H   0  0  0  0  0  0  0  0  0  0  0  0
   36.4060   32.2090   41.3490 H   0  0  0  0  0  0  0  0  0  0  0  0
   37.8480   32.4200   39.7260 C   0  0  0  0  0  0  0  0  0  0  0  0
   38.3220   33.7990   40.2660 C   0  0  0  0  0  0  0  0  0  0  0  0
   37.1620   33.7530   39.3280 C   0  0  0  0  0  0  0  0  0  0  0  0
   38.5060   31.9660   38.9670 H   0  0  0  0  0  0  0  0  0  0  0  0
   39.3110   34.1300   39.9370 H   0  0  0  0  0  0  0  0  0  0  0  0
   38.1150   34.0310   41.3260 H   0  0  0  0  0  0  0  0  0  0  0  0
   36.1670   33.9310   39.7820 H   0  0  0  0  0  0  0  0  0  0  0  0
   37.3710   34.1680   38.3370 H   0  0  0  0  0  0  0  0  0  0  0  0
  2  1  2  0  0  0  0
  2 20  1  0  0  0  0
  3  8  1  0  0  0  0
  4  3  2  0  0  0  0
  4  5  1  0  0  0  0
  5  6  2  0  0  0  0
  6  7  1  0  0  0  0
  7  1  1  0  0  0  0
  8  7  2  0  0  0  0
  9  3  1  0  0  0  0
 10  4  1  0  0  0  0
 12 11  1  0  0  0  0
 13  5  1  0  0  0  0
 13 12  2  0  0  0  0
 14 13  1  0  0  0  0
 15 14  1  0  0  0  0
 16 14  2  0  0  0  0
 16 18  1  0  0  0  0
 17 16  1  0  0  0  0
 18 19  2  0  0  0  0
 19 12  1  0  0  0  0
 20 21  1  0  0  0  0
 20 23  1  0  0  0  0
 22 20  1  0  0  0  0
 23 26  1  1  0  0  0
 23 25  1  0  0  0  0
 23 24  1  0  0  0  0
 24 28  1  0  0  0  0
 25 29  1  1  0  0  0
 25 24  1  0  0  0  0
 27 24  1  0  0  0  0
 30 31  1  0  0  0  0
 30 25  1  0  0  0  0
 31 35  1  0  0  0  0
 32 30  1  0  0  0  0
 32 36  1  0  0  0  0
 32 31  1  0  0  0  0
 33 30  1  0  0  0  0
 34 31  1  0  0  0  0
 37 32  1  0  0  0  0
M  END
>  <minimizedAffinity>
-5.38867188

$$$$

 OpenBabel03252508163D

 37 40  0  0  1  0  0  0  0  0999 V2000
   37.9790   30.3640   40.9160 C   0  0  0  0  0  3  0  0  0  0  0  0
   36.7400   30.1360   41.1150 C   0  0  0  0  0  3  0  0  0  0  0  0
   38.0290   33.9470   40.0740 C   0  0  0  0  0  0  0  0  0  0  0  0
   39.4060   34.2280   39.9870 C   0  0  0  0  0  0  0  0  0  0  0  0
   40.2610   33.1950   40.2330 C   0  0  0  0  0  0  0  0  0  0  0  0
   39.7040   32.0040   40.5350 N   0  0  0  0  0  0  0  0  0  0  0  0
   38.4160   31.7230   40.6200 C   0  0  0  0  0  0  0  0  0  0  0  0
   37.5890   32.7180   40.3860 N   0  0  0  0  0  0  0  0  0  0  0  0
   37.3130   34.7510   39.8850 H   0  0  0  0  0  0  0  0  0  0  0  0
   39.7640   35.1890   39.7270 H   0  0  0  0  0  0  0  0  0  0  0  0
   41.8640   33.5840   37.5580 Cl  0  0  0  0  0  0  0  0  0  0  0  0
   42.5550   33.3610   39.1380 C   0  0  0  0  0  0  0  0  0  0  0  0
   41.6960   33.2120   40.1910 C   0  0  0  0  0  0  0  0  0  0  0  0
   42.4080   33.0820   41.3880 C   0  0  0  0  0  0  0  0  0  0  0  0
   41.8970   32.9530   42.3410 H   0  0  0  0  0  0  0  0  0  0  0  0
   43.7780   33.0980   41.5010 C   0  0  0  0  0  0  0  0  0  0  0  0
   44.2690   32.9940   42.4410 H   0  0  0  0  0  0  0  0  0  0  0  0
   44.5570   33.2530   40.3780 C   0  0  0  0  0  3  0  0  0  0  0  0
   43.9170   33.3870   39.1700 C   0  0  0  0  0  3  0  0  0  0  0  0
   36.3910   28.6860   41.4320 C   0  0  0  0  0  0  0  0  0  0  0  0
   35.3100   28.5770   41.5920 H   0  0  0  0  0  0  0  0  0  0  0  0
   36.6710   28.0880   40.5370 H   0  0  0  0  0  0  0  0  0  0  0  0
   37.2020   28.2180   42.6140 C   0  0  1  0  0  0  0  0  0  0  0  0
   36.4640   27.4770   43.6760 C   0  0  0  0  0  0  0  0  0  0  0  0
   37.4000   26.7650   42.8290 C   0  0  1  0  0  0  0  0  0  0  0  0
   38.0010   28.8990   42.9680 H   0  0  0  0  0  0  0  0  0  0  0  0
   35.3590   27.3340   43.5350 H   0  0  0  0  0  0  0  0  0  0  0  0
   36.7200   27.6500   44.7480 H   0  0  0  0  0  0  0  0  0  0  0  0
   38.3900   26.4940   43.3100 H   0  0  0  0  0  0  0  0  0  0  0  0
   37.0240   25.8390   41.7410 C   0  0  0  0  0  0  0  0  0  0  0  0
   37.4710   24.3700   41.9840 C   0  0  0  0  0  0  0  0  0  0  0  0
   38.2020   25.1860   40.9710 C   0  0  0  0  0  0  0  0  0  0  0  0
   36.0800   25.9510   41.1820 H   0  0  0  0  0  0  0  0  0  0  0  0
   36.7580   23.5950   41.6880 H   0  0  0  0  0  0  0  0  0  0  0  0
   37.9910   24.1440   42.9320 H   0  0  0  0  0  0  0  0  0  0  0  0
   39.2130   25.5310   41.2670 H   0  0  0  0  0  0  0  0  0  0  0  0
   38.0350   24.8710   39.9360 H   0  0  0  0  0  0  0  0  0  0  0  0
  1  2  2  0  0  0  0
  2 20  1  0  0  0  0
  3  8  1  0  0  0  0
  4  3  2  0  0  0  0
  4  5  1  0  0  0  0
  5  6  2  0  0  0  0
  6  7  1  0  0  0  0
  7  1  1  0  0  0  0
  8  7  2  0  0  0  0
  9  3  1  0  0  0  0
 10  4  1  0  0  0  0
 11 12  1  0  0  0  0
 12 19  2  0  0  0  0
 12 13  1  0  0  0  0
 13  5  1  0  0  0  0
 13 14  2  0  0  0  0
 14 16  1  0  0  0  0
 14 15  1  0  0  0  0
 16 17  1  0  0  0  0
 18 16  2  0  0  0  0
 19 18  1  0  0  0  0
 20 21  1  0  0  0  0
 20 23  1  0  0  0  0
 22 20  1  0  0  0  0
 23 25  1  0  0  0  0
 23 26  1  1  0  0  0
 23 24  1  0  0  0  0
 24 28  1  0  0  0  0
 25 29  1  1  0  0  0
 25 24  1  0  0  0  0
 27 24  1  0  0  0  0
 30 31  1  0  0  0  0
 30 25  1  0  0  0  0
 31 35  1  0  0  0  0
 32 36  1  0  0  0  0
 32 30  1  0  0  0  0
 32 31  1  0  0  0  0
 33 30  1  0  0  0  0
 34 31  1  0  0  0  0
 37 32  1  0  0  0  0
M  END
>  <minimizedAffinity>
-5.32221651

$$$$

 OpenBabel03252508163D

 37 40  0  0  1  0  0  0  0  0999 V2000
   35.2520   28.0480   38.2610 C   0  0  0  0  0  3  0  0  0  0  0  0
   35.2120   28.7860   39.3010 C   0  0  0  0  0  3  0  0  0  0  0  0
   32.6730   26.6860   36.0150 C   0  0  0  0  0  0  0  0  0  0  0  0
   31.7550   27.7490   35.9130 C   0  0  0  0  0  0  0  0  0  0  0  0
   32.0390   28.8770   36.6230 C   0  0  0  0  0  0  0  0  0  0  0  0
   33.1740   28.8660   37.3520 N   0  0  0  0  0  0  0  0  0  0  0  0
   34.0460   27.8790   37.4590 C   0  0  0  0  0  0  0  0  0  0  0  0
   33.7720   26.7890   36.7770 N   0  0  0  0  0  0  0  0  0  0  0  0
   32.4760   25.7640   35.4610 H   0  0  0  0  0  0  0  0  0  0  0  0
   30.8920   27.6850   35.3030 H   0  0  0  0  0  0  0  0  0  0  0  0
   31.9390   30.9020   34.2220 Cl  0  0  0  0  0  0  0  0  0  0  0  0
   31.1280   31.0890   35.7480 C   0  0  0  0  0  0  0  0  0  0  0  0
   31.2840   30.0970   36.6760 C   0  0  0  0  0  0  0  0  0  0  0  0
   30.5400   30.3820   37.8250 C   0  0  0  0  0  0  0  0  0  0  0  0
   30.5370   29.7060   38.6800 H   0  0  0  0  0  0  0  0  0  0  0  0
   29.7600   31.4980   38.0080 C   0  0  0  0  0  0  0  0  0  0  0  0
   29.2120   31.6650   38.9080 H   0  0  0  0  0  0  0  0  0  0  0  0
   29.6680   32.4410   37.0120 C   0  0  0  0  0  3  0  0  0  0  0  0
   30.3750   32.2200   35.8550 C   0  0  0  0  0  3  0  0  0  0  0  0
   36.5290   28.9090   40.0580 C   0  0  0  0  0  0  0  0  0  0  0  0
   37.3370   28.4100   39.5070 H   0  0  0  0  0  0  0  0  0  0  0  0
   36.7650   29.9960   40.1120 H   0  0  0  0  0  0  0  0  0  0  0  0
   36.3610   28.3700   41.4560 C   0  0  1  0  0  0  0  0  0  0  0  0
   36.9580   27.0320   41.7290 C   0  0  0  0  0  0  0  0  0  0  0  0
   37.5520   28.2140   42.3230 C   0  0  1  0  0  0  0  0  0  0  0  0
   35.3920   28.5760   41.9530 H   0  0  0  0  0  0  0  0  0  0  0  0
   37.4750   26.5120   40.8790 H   0  0  0  0  0  0  0  0  0  0  0  0
   36.4150   26.3080   42.3810 H   0  0  0  0  0  0  0  0  0  0  0  0
   37.3500   28.3630   43.4280 H   0  0  0  0  0  0  0  0  0  0  0  0
   38.8200   28.8350   41.8880 C   0  0  0  0  0  0  0  0  0  0  0  0
   39.9800   28.6790   42.9120 C   0  0  0  0  0  0  0  0  0  0  0  0
   39.3290   30.0130   42.7590 C   0  0  0  0  0  0  0  0  0  0  0  0
   39.1320   28.8420   40.8300 H   0  0  0  0  0  0  0  0  0  0  0  0
   40.9680   28.4730   42.4920 H   0  0  0  0  0  0  0  0  0  0  0  0
   39.7720   28.1110   43.8360 H   0  0  0  0  0  0  0  0  0  0  0  0
   38.6570   30.3200   43.5840 H   0  0  0  0  0  0  0  0  0  0  0  0
   39.9640   30.7700   42.2880 H   0  0  0  0  0  0  0  0  0  0  0  0
  1  2  2  0  0  0  0
  2 20  1  0  0  0  0
  3  8  1  0  0  0  0
  4  3  2  0  0  0  0
  4  5  1  0  0  0  0
  5 13  1  0  0  0  0
  5  6  2  0  0  0  0
  6  7  1  0  0  0  0
  7  1  1  0  0  0  0
  8  7  2  0  0  0  0
  9  3  1  0  0  0  0
 10  4  1  0  0  0  0
 11 12  1  0  0  0  0
 12 19  2  0  0  0  0
 12 13  1  0  0  0  0
 13 14  2  0  0  0  0
 14 16  1  0  0  0  0
 14 15  1  0  0  0  0
 16 17  1  0  0  0  0
 18 16  2  0  0  0  0
 19 18  1  0  0  0  0
 20 22  1  0  0  0  0
 20 23  1  0  0  0  0
 21 20  1  0  0  0  0
 23 24  1  0  0  0  0
 23 26  1  1  0  0  0
 23 25  1  0  0  0  0
 24 25  1  0  0  0  0
 24 28  1  0  0  0  0
 25 29  1  1  0  0  0
 27 24  1  0  0  0  0
 30 25  1  0  0  0  0
 30 32  1  0  0  0  0
 30 31  1  0  0  0  0
 31 35  1  0  0  0  0
 32 31  1  0  0  0  0
 32 36  1  0  0  0  0
 33 30  1  0  0  0  0
 34 31  1  0  0  0  0
 37 32  1  0  0  0  0
M  END
>  <minimizedAffinity>
-5.18497944

$$$$

 OpenBabel03252508163D

 37 40  0  0  1  0  0  0  0  0999 V2000
   34.4420   28.9590   37.3020 C   0  0  0  0  0  3  0  0  0  0  0  0
   33.2210   28.9980   37.6720 C   0  0  0  0  0  3  0  0  0  0  0  0
   37.1570   30.2120   39.4500 C   0  0  0  0  0  0  0  0  0  0  0  0
   37.5270   29.0680   40.1830 C   0  0  0  0  0  0  0  0  0  0  0  0
   36.8300   27.9240   39.9320 C   0  0  0  0  0  0  0  0  0  0  0  0
   35.8550   27.9990   39.0020 N   0  0  0  0  0  0  0  0  0  0  0  0
   35.4940   29.0610   38.3050 C   0  0  0  0  0  0  0  0  0  0  0  0
   36.1640   30.1670   38.5480 N   0  0  0  0  0  0  0  0  0  0  0  0
   37.6920   31.1480   39.6270 H   0  0  0  0  0  0  0  0  0  0  0  0
   38.3180   29.0870   40.8850 H   0  0  0  0  0  0  0  0  0  0  0  0
   36.5620   27.4260   43.0230 Cl  0  0  0  0  0  0  0  0  0  0  0  0
   36.9530   26.2260   41.8270 C   0  0  0  0  0  0  0  0  0  0  0  0
   37.0210   26.6290   40.5230 C   0  0  0  0  0  0  0  0  0  0  0  0
   37.3060   25.5430   39.6900 C   0  0  0  0  0  0  0  0  0  0  0  0
   37.4010   25.6640   38.6110 H   0  0  0  0  0  0  0  0  0  0  0  0
   37.4940   24.2480   40.1130 C   0  0  0  0  0  0  0  0  0  0  0  0
   37.7100   23.4560   39.4320 H   0  0  0  0  0  0  0  0  0  0  0  0
   37.4060   23.9440   41.4500 C   0  0  0  0  0  3  0  0  0  0  0  0
   37.1270   24.9690   42.3220 C   0  0  0  0  0  3  0  0  0  0  0  0
   32.2000   28.8670   36.5480 C   0  0  0  0  0  0  0  0  0  0  0  0
   32.2710   27.8780   36.0770 H   0  0  0  0  0  0  0  0  0  0  0  0
   31.1950   28.9550   37.0190 H   0  0  0  0  0  0  0  0  0  0  0  0
   32.3850   29.9930   35.5630 C   0  0  1  0  0  0  0  0  0  0  0  0
   31.5550   29.9400   34.3270 C   0  0  0  0  0  0  0  0  0  0  0  0
   31.2730   30.9460   35.3320 C   0  0  1  0  0  0  0  0  0  0  0  0
   33.4180   30.3740   35.4340 H   0  0  0  0  0  0  0  0  0  0  0  0
   30.8650   29.0620   34.2040 H   0  0  0  0  0  0  0  0  0  0  0  0
   31.9970   30.2510   33.3510 H   0  0  0  0  0  0  0  0  0  0  0  0
   31.6050   31.9990   35.0780 H   0  0  0  0  0  0  0  0  0  0  0  0
   30.1240   30.9190   36.2600 C   0  0  0  0  0  0  0  0  0  0  0  0
   29.2280   32.1880   36.1860 C   0  0  0  0  0  0  0  0  0  0  0  0
   30.1240   32.0070   37.3660 C   0  0  0  0  0  0  0  0  0  0  0  0
   29.5890   29.9850   36.4970 H   0  0  0  0  0  0  0  0  0  0  0  0
   28.1490   32.0190   36.2560 H   0  0  0  0  0  0  0  0  0  0  0  0
   29.5010   32.9640   35.4500 H   0  0  0  0  0  0  0  0  0  0  0  0
   31.0210   32.6570   37.3950 H   0  0  0  0  0  0  0  0  0  0  0  0
   29.5960   31.7960   38.3010 H   0  0  0  0  0  0  0  0  0  0  0  0
  1  2  2  0  0  0  0
  1  7  1  0  0  0  0
  3  9  1  0  0  0  0
  3  4  1  0  0  0  0
  4 10  1  0  0  0  0
  5  4  2  0  0  0  0
  5 13  1  0  0  0  0
  6  5  1  0  0  0  0
  7  8  1  0  0  0  0
  7  6  2  0  0  0  0
  8  3  2  0  0  0  0
 12 19  1  0  0  0  0
 12 11  1  0  0  0  0
 13 12  2  0  0  0  0
 14 16  2  0  0  0  0
 14 13  1  0  0  0  0
 15 14  1  0  0  0  0
 16 18  1  0  0  0  0
 17 16  1  0  0  0  0
 18 19  2  0  0  0  0
 20 22  1  0  0  0  0
 20  2  1  0  0  0  0
 21 20  1  0  0  0  0
 23 26  1  6  0  0  0
 23 20  1  0  0  0  0
 24 25  1  0  0  0  0
 24 23  1  0  0  0  0
 25 29  1  6  0  0  0
 25 23  1  0  0  0  0
 25 30  1  0  0  0  0
 27 24  1  0  0  0  0
 28 24  1  0  0  0  0
 30 33  1  0  0  0  0
 30 32  1  0  0  0  0
 31 34  1  0  0  0  0
 31 30  1  0  0  0  0
 31 32  1  0  0  0  0
 32 36  1  0  0  0  0
 32 37  1  0  0  0  0
 35 31  1  0  0  0  0
M  END
>  <minimizedAffinity>
-5.15716505

$$$$

 OpenBabel03252508163D

 37 40  0  0  1  0  0  0  0  0999 V2000
   39.6610   30.9490   39.8240 C   0  0  0  0  0  3  0  0  0  0  0  0
   39.9520   32.1910   39.8680 C   0  0  0  0  0  3  0  0  0  0  0  0
   36.1240   30.9070   40.8430 C   0  0  0  0  0  0  0  0  0  0  0  0
   35.8770   29.5370   41.0560 C   0  0  0  0  0  0  0  0  0  0  0  0
   36.9150   28.6830   40.8290 C   0  0  0  0  0  0  0  0  0  0  0  0
   38.0780   29.2340   40.4240 N   0  0  0  0  0  0  0  0  0  0  0  0
   38.3280   30.5150   40.2200 C   0  0  0  0  0  0  0  0  0  0  0  0
   37.3270   31.3410   40.4360 N   0  0  0  0  0  0  0  0  0  0  0  0
   35.3150   31.6210   41.0120 H   0  0  0  0  0  0  0  0  0  0  0  0
   34.9370   29.1850   41.3910 H   0  0  0  0  0  0  0  0  0  0  0  0
   37.5220   27.3020   43.5860 Cl  0  0  0  0  0  0  0  0  0  0  0  0
   37.1770   26.4850   42.0900 C   0  0  0  0  0  0  0  0  0  0  0  0
   36.9310   27.2560   40.9880 C   0  0  0  0  0  0  0  0  0  0  0  0
   36.6350   26.4500   39.8840 C   0  0  0  0  0  0  0  0  0  0  0  0
   36.4100   26.8820   38.9100 H   0  0  0  0  0  0  0  0  0  0  0  0
   36.5950   25.0760   39.8940 C   0  0  0  0  0  0  0  0  0  0  0  0
   36.3630   24.5100   39.0210 H   0  0  0  0  0  0  0  0  0  0  0  0
   36.8590   24.3900   41.0570 C   0  0  0  0  0  3  0  0  0  0  0  0
   37.1560   25.1250   42.1780 C   0  0  0  0  0  3  0  0  0  0  0  0
   41.3660   32.5410   39.4170 C   0  0  0  0  0  0  0  0  0  0  0  0
   41.8350   33.2330   40.1280 H   0  0  0  0  0  0  0  0  0  0  0  0
   41.9460   31.5920   39.4230 H   0  0  0  0  0  0  0  0  0  0  0  0
   41.3270   33.0890   38.0130 C   0  0  1  0  0  0  0  0  0  0  0  0
   42.5730   33.7410   37.5190 C   0  0  0  0  0  0  0  0  0  0  0  0
   42.1680   32.4630   36.9660 C   0  0  1  0  0  0  0  0  0  0  0  0
   40.3770   33.5590   37.6900 H   0  0  0  0  0  0  0  0  0  0  0  0
   43.4440   33.7950   38.2250 H   0  0  0  0  0  0  0  0  0  0  0  0
   42.5030   34.6570   36.8860 H   0  0  0  0  0  0  0  0  0  0  0  0
   41.7220   32.4980   35.9250 H   0  0  0  0  0  0  0  0  0  0  0  0
   42.8110   31.1670   37.2660 C   0  0  0  0  0  0  0  0  0  0  0  0
   43.1600   30.3320   36.0020 C   0  0  0  0  0  0  0  0  0  0  0  0
   42.0110   29.9050   36.8530 C   0  0  0  0  0  0  0  0  0  0  0  0
   43.5080   31.0460   38.1110 H   0  0  0  0  0  0  0  0  0  0  0  0
   44.1170   29.8020   36.0250 H   0  0  0  0  0  0  0  0  0  0  0  0
   42.9310   30.7760   35.0170 H   0  0  0  0  0  0  0  0  0  0  0  0
   41.0030   30.0960   36.4340 H   0  0  0  0  0  0  0  0  0  0  0  0
   42.1830   28.9760   37.4060 H   0  0  0  0  0  0  0  0  0  0  0  0
  1  2  2  0  0  0  0
  1  7  1  0  0  0  0
  3  9  1  0  0  0  0
  3  4  1  0  0  0  0
  4 10  1  0  0  0  0
  5 13  1  0  0  0  0
  5  4  2  0  0  0  0
  6  5  1  0  0  0  0
  7  6  2  0  0  0  0
  7  8  1  0  0  0  0
  8  3  2  0  0  0  0
 12 19  1  0  0  0  0
 12 11  1  0  0  0  0
 13 12  2  0  0  0  0
 14 16  2  0  0  0  0
 14 13  1  0  0  0  0
 15 14  1  0  0  0  0
 16 18  1  0  0  0  0
 17 16  1  0  0  0  0
 18 19  2  0  0  0  0
 20 22  1  0  0  0  0
 20  2  1  0  0  0  0
 20 21  1  0  0  0  0
 23 26  1  6  0  0  0
 23 20  1  0  0  0  0
 24 23  1  0  0  0  0
 24 27  1  0  0  0  0
 25 29  1  6  0  0  0
 25 30  1  0  0  0  0
 25 24  1  0  0  0  0
 25 23  1  0  0  0  0
 28 24  1  0  0  0  0
 30 33  1  0  0  0  0
 31 34  1  0  0  0  0
 31 32  1  0  0  0  0
 31 30  1  0  0  0  0
 32 30  1  0  0  0  0
 32 37  1  0  0  0  0
 35 31  1  0  0  0  0
 36 32  1  0  0  0  0
M  END
>  <minimizedAffinity>
-5.10431385

$$$$

 OpenBabel03252508163D

 37 40  0  0  1  0  0  0  0  0999 V2000
   34.9320   29.1140   38.0260 C   0  0  0  0  0  3  0  0  0  0  0  0
   33.7300   28.6880   38.0660 C   0  0  0  0  0  3  0  0  0  0  0  0
   36.2280   28.6740   41.4430 C   0  0  0  0  0  0  0  0  0  0  0  0
   37.0780   29.7860   41.6000 C   0  0  0  0  0  0  0  0  0  0  0  0
   37.1900   30.6290   40.5350 C   0  0  0  0  0  0  0  0  0  0  0  0
   36.4730   30.3170   39.4360 N   0  0  0  0  0  0  0  0  0  0  0  0
   35.6710   29.2810   39.2710 C   0  0  0  0  0  0  0  0  0  0  0  0
   35.5630   28.4640   40.2960 N   0  0  0  0  0  0  0  0  0  0  0  0
   36.1150   27.9750   42.2760 H   0  0  0  0  0  0  0  0  0  0  0  0
   37.5950   29.9700   42.5050 H   0  0  0  0  0  0  0  0  0  0  0  0
   40.2430   30.7240   41.2750 Cl  0  0  0  0  0  0  0  0  0  0  0  0
   39.2850   32.0660   40.7240 C   0  0  0  0  0  0  0  0  0  0  0  0
   37.9670   31.8330   40.4440 C   0  0  0  0  0  0  0  0  0  0  0  0
   37.3520   33.0000   39.9800 C   0  0  0  0  0  0  0  0  0  0  0  0
   36.2980   33.0140   39.7030 H   0  0  0  0  0  0  0  0  0  0  0  0
   37.9740   34.2150   39.8240 C   0  0  0  0  0  0  0  0  0  0  0  0
   37.4550   35.0750   39.4650 H   0  0  0  0  0  0  0  0  0  0  0  0
   39.3070   34.3490   40.1340 C   0  0  0  0  0  3  0  0  0  0  0  0
   39.9700   33.2370   40.5960 C   0  0  0  0  0  3  0  0  0  0  0  0
   33.0520   28.5330   36.7090 C   0  0  0  0  0  0  0  0  0  0  0  0
   33.6770   27.9340   36.0340 H   0  0  0  0  0  0  0  0  0  0  0  0
   32.1040   27.9790   36.8880 H   0  0  0  0  0  0  0  0  0  0  0  0
   32.7320   29.8950   36.1460 C   0  0  1  0  0  0  0  0  0  0  0  0
   31.8540   29.9280   34.9420 C   0  0  0  0  0  0  0  0  0  0  0  0
   31.3400   30.3990   36.2130 C   0  0  1  0  0  0  0  0  0  0  0  0
   33.5480   30.6450   36.1690 H   0  0  0  0  0  0  0  0  0  0  0  0
   31.5070   28.9440   34.5280 H   0  0  0  0  0  0  0  0  0  0  0  0
   32.0590   30.6630   34.1290 H   0  0  0  0  0  0  0  0  0  0  0  0
   31.2550   31.5240   36.3210 H   0  0  0  0  0  0  0  0  0  0  0  0
   30.3720   29.6710   37.0590 C   0  0  0  0  0  0  0  0  0  0  0  0
   29.1490   30.5280   37.4920 C   0  0  0  0  0  0  0  0  0  0  0  0
   30.1990   30.2090   38.5040 C   0  0  0  0  0  0  0  0  0  0  0  0
   30.1600   28.6000   36.9110 H   0  0  0  0  0  0  0  0  0  0  0  0
   28.1810   30.0180   37.4930 H   0  0  0  0  0  0  0  0  0  0  0  0
   29.0940   31.5660   37.1200 H   0  0  0  0  0  0  0  0  0  0  0  0
   30.8690   31.0460   38.7840 H   0  0  0  0  0  0  0  0  0  0  0  0
   29.8750   29.5120   39.2820 H   0  0  0  0  0  0  0  0  0  0  0  0
  1  2  2  0  0  0  0
  1  7  1  0  0  0  0
  3  4  1  0  0  0  0
  3  9  1  0  0  0  0
  4 10  1  0  0  0  0
  5  4  2  0  0  0  0
  6  5  1  0  0  0  0
  7  6  2  0  0  0  0
  7  8  1  0  0  0  0
  8  3  2  0  0  0  0
 12 11  1  0  0  0  0
 13  5  1  0  0  0  0
 13 12  2  0  0  0  0
 14 13  1  0  0  0  0
 15 14  1  0  0  0  0
 16 14  2  0  0  0  0
 16 18  1  0  0  0  0
 17 16  1  0  0  0  0
 18 19  2  0  0  0  0
 19 12  1  0  0  0  0
 20 22  1  0  0  0  0
 20  2  1  0  0  0  0
 21 20  1  0  0  0  0
 23 26  1  1  0  0  0
 23 25  1  0  0  0  0
 23 20  1  0  0  0  0
 24 23  1  0  0  0  0
 24 25  1  0  0  0  0
 25 29  1  1  0  0  0
 25 30  1  0  0  0  0
 27 24  1  0  0  0  0
 28 24  1  0  0  0  0
 30 31  1  0  0  0  0
 30 32  1  0  0  0  0
 31 34  1  0  0  0  0
 31 32  1  0  0  0  0
 32 36  1  0  0  0  0
 32 37  1  0  0  0  0
 33 30  1  0  0  0  0
 35 31  1  0  0  0  0
M  END
>  <minimizedAffinity>
-4.96793413

$$$$
