
 OpenBabel03242512443D

 38 40  0  0  1  0  0  0  0  0999 V2000
   45.6390   34.3430   44.9740 C   0  0  0  0  0  0  0  0  0  0  0  0
   46.3880   34.0480   43.8200 C   0  0  0  0  0  0  0  0  0  0  0  0
   47.1820   32.9050   43.8620 C   0  0  0  0  0  0  0  0  0  0  0  0
   47.1920   32.1440   44.9990 N   0  0  0  0  0  0  0  0  0  0  0  0
   46.4510   32.4860   46.0640 C   0  0  0  0  0  0  0  0  0  0  0  0
   45.6770   33.5730   46.0640 N   0  0  0  0  0  0  0  0  0  0  0  0
   46.5270   31.5990   47.2160 N   0  0  0  0  0  0  0  0  0  0  0  0
   46.3340   32.1890   48.5150 C   0  0  0  0  0  0  0  0  0  0  0  0
   45.6350   31.2690   49.4180 C   0  0  0  0  0  0  0  0  0  0  0  0
   45.0370   30.0310   48.8300 C   0  0  0  0  0  0  0  0  0  0  0  0
   45.8900   29.3560   47.8180 C   0  0  0  0  0  0  0  0  0  0  0  0
   46.7740   30.2000   46.9840 C   0  0  2  0  0  0  0  0  0  0  0  0
   46.3830   34.6460   42.9200 H   0  0  0  0  0  0  0  0  0  0  0  0
   47.7980   32.5870   43.0280 H   0  0  0  0  0  0  0  0  0  0  0  0
   47.3000   32.5900   48.8640 H   0  0  0  0  0  0  0  0  0  0  0  0
   45.6900   33.1130   48.3850 H   0  0  0  0  0  0  0  0  0  0  0  0
   44.8350   31.7870   50.0000 H   0  0  0  0  0  0  0  0  0  0  0  0
   46.3590   30.9310   50.1990 H   0  0  0  0  0  0  0  0  0  0  0  0
   44.0360   30.2470   48.4030 H   0  0  0  0  0  0  0  0  0  0  0  0
   44.8380   29.3400   49.6800 H   0  0  0  0  0  0  0  0  0  0  0  0
   45.2490   28.6400   47.2640 H   0  0  0  0  0  0  0  0  0  0  0  0
   46.5830   28.6830   48.4080 H   0  0  0  0  0  0  0  0  0  0  0  0
   46.4270   30.0000   45.9180 H   0  0  0  0  0  0  0  0  0  0  0  0
   48.2550   30.6400   49.5580 Cl  0  0  0  0  0  0  0  0  0  0  0  0
   49.0100   29.9690   48.1090 C   0  0  0  0  0  0  0  0  0  0  0  0
   48.2010   29.8140   46.9740 C   0  0  0  0  0  0  0  0  0  0  0  0
   48.8960   29.2860   45.9180 C   0  0  0  0  0  0  0  0  0  0  0  0
   48.3970   29.1240   44.9980 H   0  0  0  0  0  0  0  0  0  0  0  0
   50.2300   28.9430   45.9450 C   0  0  0  0  0  0  0  0  0  0  0  0
   50.7250   28.5280   45.0730 H   0  0  0  0  0  0  0  0  0  0  0  0
   50.9560   29.1240   47.0950 C   0  0  0  0  0  0  0  0  0  0  0  0
   50.3470   29.6440   48.1970 C   0  0  0  0  0  0  0  0  0  0  0  0
   44.8710   35.4730   44.8940 O   0  0  0  0  0  0  0  0  0  0  0  0
   44.4630   36.0790   43.7160 C   0  0  0  0  0  0  0  0  0  0  0  0
   45.1060   37.0330   43.1590 O   0  0  0  0  0  0  0  0  0  0  0  0
   43.3060   35.7260   42.9900 N   0  0  0  0  0  0  0  0  0  0  0  0
   43.1260   35.3960   42.0150 H   0  0  0  0  0  0  0  0  0  0  0  0
   42.2930   35.7190   43.2980 H   0  0  0  0  0  0  0  0  0  0  0  0
  1  6  1  0  0  0  0
  2  3  1  0  0  0  0
  2  1  2  0  0  0  0
  3  4  2  0  0  0  0
  4  5  1  0  0  0  0
  5  6  2  0  0  0  0
  5  7  1  0  0  0  0
  7  8  1  0  0  0  0
  8 15  1  0  0  0  0
  8  9  1  0  0  0  0
  9 17  1  0  0  0  0
  9 18  1  0  0  0  0
 10  9  1  0  0  0  0
 10 20  1  0  0  0  0
 11 22  1  0  0  0  0
 11 10  1  0  0  0  0
 12 23  1  6  0  0  0
 12  7  1  0  0  0  0
 12 11  1  0  0  0  0
 13  2  1  0  0  0  0
 14  3  1  0  0  0  0
 16  8  1  0  0  0  0
 19 10  1  0  0  0  0
 21 11  1  0  0  0  0
 25 32  1  0  0  0  0
 25 24  1  0  0  0  0
 26 12  1  0  0  0  0
 26 25  2  0  0  0  0
 27 29  2  0  0  0  0
 27 26  1  0  0  0  0
 28 27  1  0  0  0  0
 29 31  1  0  0  0  0
 30 29  1  0  0  0  0
 31 32  2  0  0  0  0
 33  1  1  0  0  0  0
 34 33  1  0  0  0  0
 35 34  2  0  0  0  0
 36 38  1  0  0  0  0
 36 34  1  0  0  0  0
 37 36  1  0  0  0  0
M  END
>  <minimizedAffinity>
-6.21511364

>  <minimizedRMSD>
0.596701443

$$$$
