
     RDKit          3D

 42 45  0  0  0  0  0  0  0  0999 V2000
   47.1827   34.5612   42.0104 C   0  0  1  0  0  0  0  0  0  0  0  0
   48.3227   35.4547   41.7450 C   0  0  0  0  0  0  0  0  0  0  0  0
   48.5761   34.1018   42.2961 C   0  0  2  0  0  0  0  0  0  0  0  0
   45.4909   36.0231   43.1623 C   0  0  0  0  0  0  0  0  0  0  0  0
   46.2784   34.8544   43.1507 C   0  0  0  0  0  0  0  0  0  0  0  0
   46.1696   33.9816   44.2443 C   0  0  0  0  0  0  0  0  0  0  0  0
   45.3162   34.3147   45.2422 N   0  0  0  0  0  0  0  0  0  0  0  0
   44.5718   35.4424   45.2286 C   0  0  0  0  0  0  0  0  0  0  0  0
   44.6551   36.3122   44.1787 N   0  0  0  0  0  0  0  0  0  0  0  0
   49.3124   33.2019   41.4757 N   0  0  0  0  0  0  0  0  0  0  0  0
   50.6520   33.1169   41.9981 C   0  0  0  0  0  0  0  0  0  0  0  0
   51.3408   31.8167   41.8053 C   0  0  0  0  0  0  0  0  0  0  0  0
   50.6039   30.7365   42.5772 C   0  0  0  0  0  0  0  0  0  0  0  0
   49.1390   30.9888   42.5396 C   0  0  0  0  0  0  0  0  0  0  0  0
   48.7364   31.8720   41.4016 C   0  0  2  0  0  0  0  0  0  0  0  0
   46.6444   34.1366   41.1462 H   0  0  0  0  0  0  0  0  0  0  0  0
   48.4549   36.3338   42.4328 H   0  0  0  0  0  0  0  0  0  0  0  0
   48.5249   35.7106   40.6931 H   0  0  0  0  0  0  0  0  0  0  0  0
   48.8277   34.0665   43.3841 H   0  0  0  0  0  0  0  0  0  0  0  0
   45.6186   36.6628   42.2851 H   0  0  0  0  0  0  0  0  0  0  0  0
   46.7551   33.0750   44.2758 H   0  0  0  0  0  0  0  0  0  0  0  0
   43.8916   35.6921   46.0404 H   0  0  0  0  0  0  0  0  0  0  0  0
   50.6405   33.3194   43.0993 H   0  0  0  0  0  0  0  0  0  0  0  0
   51.3061   33.9449   41.5951 H   0  0  0  0  0  0  0  0  0  0  0  0
   52.3777   31.9559   42.2263 H   0  0  0  0  0  0  0  0  0  0  0  0
   51.4872   31.4517   40.7984 H   0  0  0  0  0  0  0  0  0  0  0  0
   50.9134   29.7211   42.2577 H   0  0  0  0  0  0  0  0  0  0  0  0
   50.9376   30.8251   43.6341 H   0  0  0  0  0  0  0  0  0  0  0  0
   48.5217   30.0770   42.5260 H   0  0  0  0  0  0  0  0  0  0  0  0
   48.7954   31.5314   43.4724 H   0  0  0  0  0  0  0  0  0  0  0  0
   47.6285   32.0716   41.5929 H   0  0  0  0  0  0  0  0  0  0  0  0
   50.6408   32.8360   39.0878 Cl  0  0  0  0  0  0  0  0  0  0  0  0
   49.5377   31.5180   38.9598 C   0  0  0  0  0  0  0  0  0  0  0  0
   48.7669   31.2725   40.0667 C   0  0  0  0  0  0  0  0  0  0  0  0
   47.8358   30.2299   39.9643 C   0  0  0  0  0  0  0  0  0  0  0  0
   47.1134   29.8295   40.6672 H   0  0  0  0  0  0  0  0  0  0  0  0
   47.7362   29.5032   38.7703 C   0  0  0  0  0  0  0  0  0  0  0  0
   47.0620   28.6823   38.5693 H   0  0  0  0  0  0  0  0  0  0  0  0
   48.5416   29.7937   37.6833 C   0  0  0  0  0  0  0  0  0  0  0  0
   49.4546   30.8202   37.7898 C   0  0  0  0  0  0  0  0  0  0  0  0
   48.5047   29.2640   36.7414 H   0  0  0  0  0  0  0  0  0  0  0  0
   50.1097   31.0918   36.9732 H   0  0  0  0  0  0  0  0  0  0  0  0
  1  3  1  0
  1  5  1  0
  2  1  1  0
  2  3  1  0
  4  9  2  0
  5  4  1  0
  5  6  2  0
  6  7  1  0
  8  7  2  0
  9  8  1  0
 10 11  1  0
 10  3  1  0
 12 11  1  0
 12 13  1  0
 13 14  1  0
 15 10  1  0
 15 14  1  0
  1 16  1  6
  2 17  1  0
  2 18  1  0
  3 19  1  1
  4 20  1  0
  6 21  1  0
  8 22  1  0
 11 23  1  0
 11 24  1  0
 12 25  1  0
 12 26  1  0
 13 27  1  0
 13 28  1  0
 14 29  1  0
 14 30  1  0
 15 31  1  1
 32 33  1  0
 33 34  2  0
 34 35  1  0
 35 36  1  0
 35 37  2  0
 37 38  1  0
 37 39  1  0
 39 40  2  0
 40 33  1  0
 39 41  1  0
 40 42  1  0
 15 34  1  0
M  ISO  8  16  13  17  13  18  13  19  13  20  14  21  14  22  14  23  13
M  ISO  8  24  13  25  13  26  13  27  13  28  13  29  13  30  13  31  13
M  ISO  2  36  15  38  16
M  END
>  <DihAtoms>  (1) 
9,14,33,32

>  <DihDeg>  (1) 
6.52073324608631

$$$$
