
 OpenBabel03242512263D

 20 21  0  0  0  0  0  0  0  0999 V2000
   37.3060   32.4610   39.2740 C   0  0  0  0  0  0  0  0  0  0  0  0
   37.8200   31.9730   38.0490 C   0  0  0  0  0  0  0  0  0  0  0  0
   38.1800   30.5990   37.9950 C   0  0  0  0  0  0  0  0  0  0  0  0
   38.0080   29.8520   39.1140 N   0  0  0  0  0  0  0  0  0  0  0  0
   37.5140   30.3670   40.2590 C   0  0  0  0  0  0  0  0  0  0  0  0
   37.1680   31.6510   40.3360 N   0  0  0  0  0  0  0  0  0  0  0  0
   36.9360   33.8420   39.3580 N   0  0  0  0  0  0  0  0  0  0  0  0
   37.9430   32.5820   37.1890 H   0  0  0  0  0  0  0  0  0  0  0  0
   38.5750   30.1640   37.1010 H   0  0  0  0  0  0  0  0  0  0  0  0
   36.1470   33.9850   38.6650 H   0  0  0  0  0  0  0  0  0  0  0  0
   37.3300   34.6150   39.9700 H   0  0  0  0  0  0  0  0  0  0  0  0
   39.5140   30.8040   42.5010 Cl  0  0  0  0  0  0  0  0  0  0  0  0
   38.2500   29.6100   42.4710 C   0  0  0  0  0  0  0  0  0  0  0  0
   37.3710   29.4760   41.3960 C   0  0  0  0  0  0  0  0  0  0  0  0
   36.3670   28.5140   41.3930 C   0  0  0  0  0  0  0  0  0  0  0  0
   35.7100   28.4360   40.5580 H   0  0  0  0  0  0  0  0  0  0  0  0
   36.2920   27.7040   42.5070 C   0  0  0  0  0  0  0  0  0  0  0  0
   35.4830   26.9630   42.4530 H   0  0  0  0  0  0  0  0  0  0  0  0
   37.1430   27.8010   43.5970 C   0  0  0  0  0  3  0  0  0  0  0  0
   38.1330   28.7740   43.5640 C   0  0  0  0  0  3  0  0  0  0  0  0
  1  7  1  0  0  0  0
  1  6  1  0  0  0  0
  2  1  2  0  0  0  0
  3  2  1  0  0  0  0
  3  4  2  0  0  0  0
  4  5  1  0  0  0  0
  5  6  2  0  0  0  0
  5 14  1  0  0  0  0
  7 11  1  0  0  0  0
  8  2  1  0  0  0  0
  9  3  1  0  0  0  0
 10  7  1  0  0  0  0
 13 12  1  0  0  0  0
 13 20  1  0  0  0  0
 14 13  2  0  0  0  0
 15 14  1  0  0  0  0
 15 17  2  0  0  0  0
 16 15  1  0  0  0  0
 17 19  1  0  0  0  0
 18 17  1  0  0  0  0
 20 19  2  0  0  0  0
M  END
>  <minimizedAffinity>
-4.98146009

$$$$

 OpenBabel03242512263D

 20 21  0  0  0  0  0  0  0  0999 V2000
   37.3640   32.5580   39.3820 C   0  0  0  0  0  0  0  0  0  0  0  0
   37.7310   32.1170   38.0880 C   0  0  0  0  0  0  0  0  0  0  0  0
   38.0940   30.7510   37.9440 C   0  0  0  0  0  0  0  0  0  0  0  0
   38.0660   29.9660   39.0490 N   0  0  0  0  0  0  0  0  0  0  0  0
   37.7090   30.4360   40.2620 C   0  0  0  0  0  0  0  0  0  0  0  0
   37.3630   31.7120   40.4240 N   0  0  0  0  0  0  0  0  0  0  0  0
   36.9930   33.9310   39.5570 N   0  0  0  0  0  0  0  0  0  0  0  0
   37.7430   32.7570   37.2410 H   0  0  0  0  0  0  0  0  0  0  0  0
   38.3830   30.3510   36.9940 H   0  0  0  0  0  0  0  0  0  0  0  0
   36.1250   34.0860   38.9690 H   0  0  0  0  0  0  0  0  0  0  0  0
   37.4510   34.6890   40.1430 H   0  0  0  0  0  0  0  0  0  0  0  0
   35.1260   28.8920   40.6670 Cl  0  0  0  0  0  0  0  0  0  0  0  0
   36.5660   28.7560   41.6330 C   0  0  0  0  0  0  0  0  0  0  0  0
   37.7130   29.5070   41.3770 C   0  0  0  0  0  0  0  0  0  0  0  0
   38.8550   29.3820   42.1630 C   0  0  0  0  0  0  0  0  0  0  0  0
   39.7160   29.9680   41.9430 H   0  0  0  0  0  0  0  0  0  0  0  0
   38.7860   28.4800   43.2040 C   0  0  0  0  0  0  0  0  0  0  0  0
   39.7120   28.4210   43.7910 H   0  0  0  0  0  0  0  0  0  0  0  0
   37.6670   27.7130   43.4950 C   0  0  0  0  0  3  0  0  0  0  0  0
   36.5470   27.8650   42.6880 C   0  0  0  0  0  3  0  0  0  0  0  0
  1  7  1  0  0  0  0
  1  6  1  0  0  0  0
  2  1  2  0  0  0  0
  3  2  1  0  0  0  0
  3  4  2  0  0  0  0
  4  5  1  0  0  0  0
  5  6  2  0  0  0  0
  5 14  1  0  0  0  0
  7 11  1  0  0  0  0
  8  2  1  0  0  0  0
  9  3  1  0  0  0  0
 10  7  1  0  0  0  0
 12 13  1  0  0  0  0
 13 20  1  0  0  0  0
 14 13  2  0  0  0  0
 14 15  1  0  0  0  0
 15 17  2  0  0  0  0
 16 15  1  0  0  0  0
 17 19  1  0  0  0  0
 17 18  1  0  0  0  0
 20 19  2  0  0  0  0
M  END
>  <minimizedAffinity>
-4.93583345

$$$$

 OpenBabel03242512263D

 20 21  0  0  0  0  0  0  0  0999 V2000
   37.8530   32.5170   40.4750 C   0  0  0  0  0  0  0  0  0  0  0  0
   39.2210   32.8650   40.5760 C   0  0  0  0  0  0  0  0  0  0  0  0
   40.0960   31.9080   41.1570 C   0  0  0  0  0  0  0  0  0  0  0  0
   39.5650   30.7320   41.5740 N   0  0  0  0  0  0  0  0  0  0  0  0
   38.2510   30.4490   41.4550 C   0  0  0  0  0  0  0  0  0  0  0  0
   37.4100   31.3280   40.9130 N   0  0  0  0  0  0  0  0  0  0  0  0
   36.9480   33.4620   39.8930 N   0  0  0  0  0  0  0  0  0  0  0  0
   39.6080   33.7950   40.2400 H   0  0  0  0  0  0  0  0  0  0  0  0
   41.1420   32.1060   41.2640 H   0  0  0  0  0  0  0  0  0  0  0  0
   37.2600   33.6010   38.8900 H   0  0  0  0  0  0  0  0  0  0  0  0
   36.1140   33.9580   40.3250 H   0  0  0  0  0  0  0  0  0  0  0  0
   37.8210   28.3500   39.3040 Cl  0  0  0  0  0  0  0  0  0  0  0  0
   37.5690   28.1370   41.0110 C   0  0  0  0  0  0  0  0  0  0  0  0
   37.7900   29.1580   41.9340 C   0  0  0  0  0  0  0  0  0  0  0  0
   37.5820   28.9660   43.2960 C   0  0  0  0  0  0  0  0  0  0  0  0
   37.7610   29.7640   43.9770 H   0  0  0  0  0  0  0  0  0  0  0  0
   37.1450   27.7140   43.6780 C   0  0  0  0  0  0  0  0  0  0  0  0
   36.9970   27.6160   44.7610 H   0  0  0  0  0  0  0  0  0  0  0  0
   36.9110   26.6700   42.7950 C   0  0  0  0  0  3  0  0  0  0  0  0
   37.1310   26.9010   41.4430 C   0  0  0  0  0  3  0  0  0  0  0  0
  1  2  2  0  0  0  0
  1  6  1  0  0  0  0
  2  3  1  0  0  0  0
  3  9  1  0  0  0  0
  3  4  2  0  0  0  0
  5  4  1  0  0  0  0
  5 14  1  0  0  0  0
  6  5  2  0  0  0  0
  7 11  1  0  0  0  0
  7  1  1  0  0  0  0
  8  2  1  0  0  0  0
 10  7  1  0  0  0  0
 12 13  1  0  0  0  0
 13 20  2  0  0  0  0
 13 14  1  0  0  0  0
 14 15  2  0  0  0  0
 15 17  1  0  0  0  0
 15 16  1  0  0  0  0
 17 18  1  0  0  0  0
 19 17  2  0  0  0  0
 20 19  1  0  0  0  0
M  END
>  <minimizedAffinity>
-4.89488029

$$$$

 OpenBabel03242512263D

 20 21  0  0  0  0  0  0  0  0999 V2000
   36.7040   30.1660   41.1830 C   0  0  0  0  0  0  0  0  0  0  0  0
   38.0410   30.6160   41.0640 C   0  0  0  0  0  0  0  0  0  0  0  0
   39.0500   29.6280   40.9100 C   0  0  0  0  0  0  0  0  0  0  0  0
   38.6670   28.3270   40.8880 N   0  0  0  0  0  0  0  0  0  0  0  0
   37.3770   27.9500   41.0060 C   0  0  0  0  0  0  0  0  0  0  0  0
   36.4120   28.8570   41.1500 N   0  0  0  0  0  0  0  0  0  0  0  0
   35.6660   31.1410   41.3400 N   0  0  0  0  0  0  0  0  0  0  0  0
   38.3100   31.6430   41.0860 H   0  0  0  0  0  0  0  0  0  0  0  0
   40.0810   29.8980   40.8150 H   0  0  0  0  0  0  0  0  0  0  0  0
   35.6690   31.7300   40.4590 H   0  0  0  0  0  0  0  0  0  0  0  0
   34.9950   31.2940   42.1480 H   0  0  0  0  0  0  0  0  0  0  0  0
   36.4640   26.8930   38.3100 Cl  0  0  0  0  0  0  0  0  0  0  0  0
   36.6550   25.9630   39.7660 C   0  0  0  0  0  0  0  0  0  0  0  0
   37.0800   26.5300   40.9670 C   0  0  0  0  0  0  0  0  0  0  0  0
   37.2260   25.7660   42.1210 C   0  0  0  0  0  0  0  0  0  0  0  0
   37.5530   26.2270   43.0230 H   0  0  0  0  0  0  0  0  0  0  0  0
   36.9260   24.4240   42.0090 C   0  0  0  0  0  0  0  0  0  0  0  0
   37.0580   23.8690   42.9470 H   0  0  0  0  0  0  0  0  0  0  0  0
   36.5000   23.8180   40.8360 C   0  0  0  0  0  3  0  0  0  0  0  0
   36.3670   24.6140   39.7060 C   0  0  0  0  0  3  0  0  0  0  0  0
  1  7  1  0  0  0  0
  2  8  1  0  0  0  0
  2  1  2  0  0  0  0
  3  2  1  0  0  0  0
  4  3  2  0  0  0  0
  4  5  1  0  0  0  0
  5  6  2  0  0  0  0
  6  1  1  0  0  0  0
  7 11  1  0  0  0  0
  9  3  1  0  0  0  0
 10  7  1  0  0  0  0
 12 13  1  0  0  0  0
 13 14  1  0  0  0  0
 14  5  1  0  0  0  0
 14 15  2  0  0  0  0
 15 16  1  0  0  0  0
 17 15  1  0  0  0  0
 17 18  1  0  0  0  0
 19 17  2  0  0  0  0
 20 13  2  0  0  0  0
 20 19  1  0  0  0  0
M  END
>  <minimizedAffinity>
-4.69681215

$$$$

 OpenBabel03242512263D

 20 21  0  0  0  0  0  0  0  0999 V2000
   37.9890   30.8450   38.2420 C   0  0  0  0  0  0  0  0  0  0  0  0
   37.5470   32.1800   38.4070 C   0  0  0  0  0  0  0  0  0  0  0  0
   37.0300   32.5420   39.6800 C   0  0  0  0  0  0  0  0  0  0  0  0
   36.9930   31.5900   40.6450 N   0  0  0  0  0  0  0  0  0  0  0  0
   37.4270   30.3290   40.4360 C   0  0  0  0  0  0  0  0  0  0  0  0
   37.9170   29.9650   39.2530 N   0  0  0  0  0  0  0  0  0  0  0  0
   38.5150   30.4520   36.9690 N   0  0  0  0  0  0  0  0  0  0  0  0
   37.5890   32.9030   37.6320 H   0  0  0  0  0  0  0  0  0  0  0  0
   36.6780   33.5330   39.8740 H   0  0  0  0  0  0  0  0  0  0  0  0
   39.3830   31.0390   36.8060 H   0  0  0  0  0  0  0  0  0  0  0  0
   38.1580   29.7260   36.2810 H   0  0  0  0  0  0  0  0  0  0  0  0
   39.5520   30.6630   42.5790 Cl  0  0  0  0  0  0  0  0  0  0  0  0
   38.2810   29.4760   42.5690 C   0  0  0  0  0  0  0  0  0  0  0  0
   37.3430   29.3920   41.5410 C   0  0  0  0  0  0  0  0  0  0  0  0
   36.3330   28.4350   41.5530 C   0  0  0  0  0  0  0  0  0  0  0  0
   35.6300   28.3950   40.7540 H   0  0  0  0  0  0  0  0  0  0  0  0
   36.3150   27.5780   42.6350 C   0  0  0  0  0  0  0  0  0  0  0  0
   35.5000   26.8440   42.5950 H   0  0  0  0  0  0  0  0  0  0  0  0
   37.2270   27.6250   43.6790 C   0  0  0  0  0  3  0  0  0  0  0  0
   38.2200   28.5950   43.6310 C   0  0  0  0  0  3  0  0  0  0  0  0
  1  2  2  0  0  0  0
  1  6  1  0  0  0  0
  2  3  1  0  0  0  0
  3  9  1  0  0  0  0
  3  4  2  0  0  0  0
  5  4  1  0  0  0  0
  5 14  1  0  0  0  0
  6  5  2  0  0  0  0
  7  1  1  0  0  0  0
  8  2  1  0  0  0  0
 10  7  1  0  0  0  0
 11  7  1  0  0  0  0
 13 12  1  0  0  0  0
 13 20  1  0  0  0  0
 14 15  1  0  0  0  0
 14 13  2  0  0  0  0
 15 17  2  0  0  0  0
 16 15  1  0  0  0  0
 17 19  1  0  0  0  0
 18 17  1  0  0  0  0
 20 19  2  0  0  0  0
M  END
>  <minimizedAffinity>
-4.69247484

$$$$

 OpenBabel03242512263D

 20 21  0  0  0  0  0  0  0  0999 V2000
   36.7280   30.1600   41.0650 C   0  0  0  0  0  0  0  0  0  0  0  0
   37.9860   30.6930   40.6970 C   0  0  0  0  0  0  0  0  0  0  0  0
   39.0250   29.7680   40.4060 C   0  0  0  0  0  0  0  0  0  0  0  0
   38.7430   28.4450   40.5010 N   0  0  0  0  0  0  0  0  0  0  0  0
   37.5240   27.9880   40.8580 C   0  0  0  0  0  0  0  0  0  0  0  0
   36.5330   28.8340   41.1350 N   0  0  0  0  0  0  0  0  0  0  0  0
   35.6620   31.0690   41.3640 N   0  0  0  0  0  0  0  0  0  0  0  0
   38.1760   31.7350   40.6310 H   0  0  0  0  0  0  0  0  0  0  0  0
   40.0010   30.1020   40.1220 H   0  0  0  0  0  0  0  0  0  0  0  0
   35.4680   31.6120   40.4740 H   0  0  0  0  0  0  0  0  0  0  0  0
   35.1290   31.2180   42.2710 H   0  0  0  0  0  0  0  0  0  0  0  0
   38.6680   26.6500   43.3320 Cl  0  0  0  0  0  0  0  0  0  0  0  0
   37.8280   25.8580   42.0320 C   0  0  0  0  0  0  0  0  0  0  0  0
   37.3330   26.5510   40.9270 C   0  0  0  0  0  0  0  0  0  0  0  0
   36.6630   25.8970   39.8980 C   0  0  0  0  0  0  0  0  0  0  0  0
   36.2950   26.4530   39.0680 H   0  0  0  0  0  0  0  0  0  0  0  0
   36.5180   24.5320   40.0320 C   0  0  0  0  0  0  0  0  0  0  0  0
   35.9830   24.0660   39.1940 H   0  0  0  0  0  0  0  0  0  0  0  0
   36.9940   23.8020   41.1120 C   0  0  0  0  0  3  0  0  0  0  0  0
   37.6570   24.4900   42.1190 C   0  0  0  0  0  3  0  0  0  0  0  0
  1  6  1  0  0  0  0
  1  7  1  0  0  0  0
  2  1  2  0  0  0  0
  3  4  2  0  0  0  0
  3  2  1  0  0  0  0
  4  5  1  0  0  0  0
  5 14  1  0  0  0  0
  5  6  2  0  0  0  0
  7 11  1  0  0  0  0
  8  2  1  0  0  0  0
  9  3  1  0  0  0  0
 10  7  1  0  0  0  0
 13 20  1  0  0  0  0
 13 12  1  0  0  0  0
 14 13  2  0  0  0  0
 15 17  2  0  0  0  0
 15 14  1  0  0  0  0
 16 15  1  0  0  0  0
 17 19  1  0  0  0  0
 18 17  1  0  0  0  0
 19 20  2  0  0  0  0
M  END
>  <minimizedAffinity>
-4.66044807

$$$$

 OpenBabel03242512263D

 20 21  0  0  0  0  0  0  0  0999 V2000
   42.4980   25.3820   42.6850 C   0  0  0  0  0  0  0  0  0  0  0  0
   42.9340   25.6140   41.3590 C   0  0  0  0  0  0  0  0  0  0  0  0
   42.0200   26.2490   40.4740 C   0  0  0  0  0  0  0  0  0  0  0  0
   40.7990   26.5870   40.9570 N   0  0  0  0  0  0  0  0  0  0  0  0
   40.4310   26.3420   42.2320 C   0  0  0  0  0  0  0  0  0  0  0  0
   41.2690   25.7490   43.0810 N   0  0  0  0  0  0  0  0  0  0  0  0
   43.3980   24.7430   43.5980 N   0  0  0  0  0  0  0  0  0  0  0  0
   43.8970   25.3380   41.0100 H   0  0  0  0  0  0  0  0  0  0  0  0
   42.2840   26.4550   39.4580 H   0  0  0  0  0  0  0  0  0  0  0  0
   44.2300   25.3910   43.7040 H   0  0  0  0  0  0  0  0  0  0  0  0
   43.3070   23.8130   44.1030 H   0  0  0  0  0  0  0  0  0  0  0  0
   38.2240   24.3550   41.6000 Cl  0  0  0  0  0  0  0  0  0  0  0  0
   38.0270   25.8910   42.3910 C   0  0  0  0  0  0  0  0  0  0  0  0
   39.0990   26.7470   42.6430 C   0  0  0  0  0  0  0  0  0  0  0  0
   38.9190   27.9710   43.2770 C   0  0  0  0  0  0  0  0  0  0  0  0
   39.7570   28.6030   43.4580 H   0  0  0  0  0  0  0  0  0  0  0  0
   37.6260   28.2890   43.6390 C   0  0  0  0  0  0  0  0  0  0  0  0
   37.5400   29.2650   44.1360 H   0  0  0  0  0  0  0  0  0  0  0  0
   36.5310   27.4700   43.4080 C   0  0  0  0  0  3  0  0  0  0  0  0
   36.7510   26.2550   42.7730 C   0  0  0  0  0  3  0  0  0  0  0  0
  1  6  1  0  0  0  0
  1  7  1  0  0  0  0
  2  1  2  0  0  0  0
  3  4  2  0  0  0  0
  3  2  1  0  0  0  0
  4  5  1  0  0  0  0
  5 14  1  0  0  0  0
  5  6  2  0  0  0  0
  7 10  1  0  0  0  0
  7 11  1  0  0  0  0
  8  2  1  0  0  0  0
  9  3  1  0  0  0  0
 12 13  1  0  0  0  0
 13 14  2  0  0  0  0
 13 20  1  0  0  0  0
 14 15  1  0  0  0  0
 15 16  1  0  0  0  0
 15 17  2  0  0  0  0
 17 18  1  0  0  0  0
 19 17  1  0  0  0  0
 20 19  2  0  0  0  0
M  END
>  <minimizedAffinity>
-4.62167835

$$$$

 OpenBabel03242512263D

 20 21  0  0  0  0  0  0  0  0999 V2000
   37.8270   31.0620   38.1500 C   0  0  0  0  0  0  0  0  0  0  0  0
   37.5620   32.4200   38.4480 C   0  0  0  0  0  0  0  0  0  0  0  0
   37.3440   32.7570   39.8110 C   0  0  0  0  0  0  0  0  0  0  0  0
   37.4030   31.7610   40.7290 N   0  0  0  0  0  0  0  0  0  0  0  0
   37.6590   30.4800   40.3920 C   0  0  0  0  0  0  0  0  0  0  0  0
   37.8690   30.1380   39.1220 N   0  0  0  0  0  0  0  0  0  0  0  0
   38.0510   30.6940   36.7840 N   0  0  0  0  0  0  0  0  0  0  0  0
   37.5220   33.1780   37.7060 H   0  0  0  0  0  0  0  0  0  0  0  0
   37.1370   33.7650   40.1070 H   0  0  0  0  0  0  0  0  0  0  0  0
   38.9240   31.2080   36.4710 H   0  0  0  0  0  0  0  0  0  0  0  0
   37.4960   30.0420   36.1560 H   0  0  0  0  0  0  0  0  0  0  0  0
   35.1360   28.8230   40.7180 Cl  0  0  0  0  0  0  0  0  0  0  0  0
   36.5820   28.6900   41.6750 C   0  0  0  0  0  0  0  0  0  0  0  0
   37.7000   29.4940   41.4570 C   0  0  0  0  0  0  0  0  0  0  0  0
   38.8480   29.3710   42.2340 C   0  0  0  0  0  0  0  0  0  0  0  0
   39.6870   29.9990   42.0440 H   0  0  0  0  0  0  0  0  0  0  0  0
   38.8150   28.4140   43.2270 C   0  0  0  0  0  0  0  0  0  0  0  0
   39.7430   28.3580   43.8100 H   0  0  0  0  0  0  0  0  0  0  0  0
   37.7250   27.5930   43.4790 C   0  0  0  0  0  3  0  0  0  0  0  0
   36.5980   27.7460   42.6820 C   0  0  0  0  0  3  0  0  0  0  0  0
  1  2  2  0  0  0  0
  1  6  1  0  0  0  0
  2  3  1  0  0  0  0
  3  9  1  0  0  0  0
  3  4  2  0  0  0  0
  5  4  1  0  0  0  0
  5 14  1  0  0  0  0
  6  5  2  0  0  0  0
  7  1  1  0  0  0  0
  8  2  1  0  0  0  0
 10  7  1  0  0  0  0
 11  7  1  0  0  0  0
 12 13  1  0  0  0  0
 13 20  1  0  0  0  0
 14 13  2  0  0  0  0
 14 15  1  0  0  0  0
 15 17  2  0  0  0  0
 16 15  1  0  0  0  0
 17 19  1  0  0  0  0
 17 18  1  0  0  0  0
 20 19  2  0  0  0  0
M  END
>  <minimizedAffinity>
-4.60043859

$$$$

 OpenBabel03242512263D

 20 21  0  0  0  0  0  0  0  0999 V2000
   36.5940   29.9660   40.8430 C   0  0  0  0  0  0  0  0  0  0  0  0
   37.0010   30.1440   39.4990 C   0  0  0  0  0  0  0  0  0  0  0  0
   37.9650   29.2360   38.9840 C   0  0  0  0  0  0  0  0  0  0  0  0
   38.4290   28.2660   39.8100 N   0  0  0  0  0  0  0  0  0  0  0  0
   38.0080   28.1390   41.0860 C   0  0  0  0  0  0  0  0  0  0  0  0
   37.1050   28.9760   41.5920 N   0  0  0  0  0  0  0  0  0  0  0  0
   35.6240   30.8670   41.3880 N   0  0  0  0  0  0  0  0  0  0  0  0
   36.6200   30.9150   38.8770 H   0  0  0  0  0  0  0  0  0  0  0  0
   38.3170   29.3140   37.9770 H   0  0  0  0  0  0  0  0  0  0  0  0
   34.7360   30.7330   40.8240 H   0  0  0  0  0  0  0  0  0  0  0  0
   35.7110   31.5540   42.1940 H   0  0  0  0  0  0  0  0  0  0  0  0
   36.8440   25.3880   40.5440 Cl  0  0  0  0  0  0  0  0  0  0  0  0
   38.0920   25.7660   41.6940 C   0  0  0  0  0  0  0  0  0  0  0  0
   38.5710   27.0630   41.8810 C   0  0  0  0  0  0  0  0  0  0  0  0
   39.5700   27.3430   42.8070 C   0  0  0  0  0  0  0  0  0  0  0  0
   39.9160   28.3430   42.9270 H   0  0  0  0  0  0  0  0  0  0  0  0
   40.0570   26.2710   43.5250 C   0  0  0  0  0  0  0  0  0  0  0  0
   40.8430   26.5470   44.2410 H   0  0  0  0  0  0  0  0  0  0  0  0
   39.6120   24.9660   43.3730 C   0  0  0  0  0  3  0  0  0  0  0  0
   38.6120   24.7260   42.4380 C   0  0  0  0  0  3  0  0  0  0  0  0
  1  7  1  0  0  0  0
  1  6  1  0  0  0  0
  2  1  2  0  0  0  0
  3  2  1  0  0  0  0
  3  4  2  0  0  0  0
  4  5  1  0  0  0  0
  5  6  2  0  0  0  0
  5 14  1  0  0  0  0
  7 11  1  0  0  0  0
  8  2  1  0  0  0  0
  9  3  1  0  0  0  0
 10  7  1  0  0  0  0
 12 13  1  0  0  0  0
 13 14  2  0  0  0  0
 13 20  1  0  0  0  0
 14 15  1  0  0  0  0
 15 16  1  0  0  0  0
 15 17  2  0  0  0  0
 17 18  1  0  0  0  0
 19 17  1  0  0  0  0
 20 19  2  0  0  0  0
M  END
>  <minimizedAffinity>
-4.5400753

$$$$
