
 OpenBabel03252507393D

 38 42  0  0  0  0  0  0  0  0999 V2000
   36.9960   28.9220   42.0400 C   0  0  0  0  0  0  0  0  0  0  0  0
   36.7960   27.7440   41.2760 C   0  0  0  0  0  0  0  0  0  0  0  0
   37.4690   26.5990   41.6960 C   0  0  0  0  0  0  0  0  0  0  0  0
   38.2540   26.6600   42.7710 N   0  0  0  0  0  0  0  0  0  0  0  0
   38.4310   27.7970   43.4880 C   0  0  0  0  0  0  0  0  0  0  0  0
   37.8070   28.9040   43.1180 N   0  0  0  0  0  0  0  0  0  0  0  0
   36.1680   27.7080   40.4210 H   0  0  0  0  0  0  0  0  0  0  0  0
   39.0740   27.7950   44.3490 H   0  0  0  0  0  0  0  0  0  0  0  0
   36.5740   25.3470   39.8130 C   0  0  0  0  0  0  0  0  0  0  0  0
   37.3470   25.3180   40.9860 C   0  0  0  0  0  0  0  0  0  0  0  0
   37.9100   24.1430   41.3790 C   0  0  0  0  0  0  0  0  0  0  0  0
   37.7540   22.9760   40.6690 C   0  0  0  0  0  0  0  0  0  0  0  0
   38.2110   21.7190   40.8670 N   0  0  0  0  0  0  0  0  0  0  0  0
   37.7300   20.9510   39.8210 C   0  0  0  0  0  0  0  0  0  0  0  0
   36.9950   21.7450   39.0120 N   0  0  0  0  0  0  0  0  0  0  0  0
   37.0040   22.9780   39.5190 C   0  0  0  0  0  0  0  0  0  0  0  0
   36.4130   24.1660   39.0890 C   0  0  0  0  0  0  0  0  0  0  0  0
   36.0920   26.2370   39.4300 H   0  0  0  0  0  0  0  0  0  0  0  0
   38.5000   24.1510   42.2860 H   0  0  0  0  0  0  0  0  0  0  0  0
   38.8190   21.3990   41.6730 H   0  0  0  0  0  0  0  0  0  0  0  0
   37.9600   19.8850   39.7480 H   0  0  0  0  0  0  0  0  0  0  0  0
   35.8310   24.1190   38.1770 H   0  0  0  0  0  0  0  0  0  0  0  0
   36.3200   30.0740   41.6200 O   0  0  0  0  0  0  0  0  0  0  0  0
   36.9890   31.0230   40.8600 C   0  0  0  0  0  0  0  0  0  0  0  0
   36.4180   30.8280   39.6510 C   0  0  0  0  0  0  0  0  0  0  0  0
   37.3270   32.1270   38.6030 S   0  0  0  0  0  0  0  0  0  0  0  0
   38.3090   32.6520   40.1080 C   0  0  0  0  0  0  0  0  0  0  0  0
   37.8970   31.9690   40.8670 N   0  0  0  0  0  0  0  0  0  0  0  0
   35.6960   30.3400   38.8470 H   0  0  0  0  0  0  0  0  0  0  0  0
   41.0720   31.9230   39.0120 Cl  0  0  0  0  0  0  0  0  0  0  0  0
   40.5650   33.5320   39.4790 C   0  0  0  0  0  0  0  0  0  0  0  0
   39.3090   33.7480   39.9550 C   0  0  0  0  0  0  0  0  0  0  0  0
   38.8250   34.9530   40.3420 C   0  0  0  0  0  0  0  0  0  0  0  0
   37.8280   35.1280   40.7210 H   0  0  0  0  0  0  0  0  0  0  0  0
   39.7050   36.0360   40.2300 C   0  0  0  0  0  0  0  0  0  0  0  0
   39.3710   37.0260   40.5250 H   0  0  0  0  0  0  0  0  0  0  0  0
   40.9800   35.8270   39.7480 C   0  0  0  0  0  3  0  0  0  0  0  0
   41.4450   34.5870   39.3620 C   0  0  0  0  0  3  0  0  0  0  0  0
  1  6  1  0  0  0  0
  2  3  1  0  0  0  0
  2  1  2  0  0  0  0
  3  4  2  0  0  0  0
  4  5  1  0  0  0  0
  5  8  1  0  0  0  0
  6  5  2  0  0  0  0
  7  2  1  0  0  0  0
  9 10  1  0  0  0  0
 10 11  2  0  0  0  0
 10  3  1  0  0  0  0
 11 19  1  0  0  0  0
 12 13  1  0  0  0  0
 12 11  1  0  0  0  0
 13 20  1  0  0  0  0
 14 13  1  0  0  0  0
 15 16  1  0  0  0  0
 15 14  2  0  0  0  0
 16 12  2  0  0  0  0
 17 16  1  0  0  0  0
 17  9  2  0  0  0  0
 18  9  1  0  0  0  0
 21 14  1  0  0  0  0
 22 17  1  0  0  0  0
 23  1  1  0  0  0  0
 24 28  1  0  0  0  0
 24 23  1  0  0  0  0
 25 24  2  0  0  0  0
 26 25  1  0  0  0  0
 26 27  1  0  0  0  0
 27 28  2  0  0  0  0
 29 25  1  0  0  0  0
 30 31  1  0  0  0  0
 31 32  1  0  0  0  0
 32 27  1  0  0  0  0
 32 33  2  0  0  0  0
 33 34  1  0  0  0  0
 35 33  1  0  0  0  0
 35 36  1  0  0  0  0
 37 35  2  0  0  0  0
 38 31  2  0  0  0  0
 38 37  1  0  0  0  0
M  END
>  <minimizedAffinity>
-7.23078203

$$$$

 OpenBabel03252507393D

 38 42  0  0  0  0  0  0  0  0999 V2000
   36.9530   28.9720   42.1460 C   0  0  0  0  0  0  0  0  0  0  0  0
   38.3450   29.1030   42.3780 C   0  0  0  0  0  0  0  0  0  0  0  0
   38.9990   28.0010   42.9250 C   0  0  0  0  0  0  0  0  0  0  0  0
   38.3030   26.8990   43.2000 N   0  0  0  0  0  0  0  0  0  0  0  0
   36.9710   26.7930   42.9690 C   0  0  0  0  0  0  0  0  0  0  0  0
   36.3170   27.8200   42.4500 N   0  0  0  0  0  0  0  0  0  0  0  0
   38.8890   29.9870   42.1550 H   0  0  0  0  0  0  0  0  0  0  0  0
   36.4540   25.8820   43.2080 H   0  0  0  0  0  0  0  0  0  0  0  0
   41.1430   29.1340   42.7400 C   0  0  0  0  0  0  0  0  0  0  0  0
   40.4400   28.0140   43.2150 C   0  0  0  0  0  0  0  0  0  0  0  0
   41.1160   27.0440   43.8880 C   0  0  0  0  0  0  0  0  0  0  0  0
   42.4690   27.1160   44.1240 C   0  0  0  0  0  0  0  0  0  0  0  0
   43.3310   26.2870   44.7560 N   0  0  0  0  0  0  0  0  0  0  0  0
   44.5790   26.8800   44.6820 C   0  0  0  0  0  0  0  0  0  0  0  0
   44.4580   28.0470   44.0140 N   0  0  0  0  0  0  0  0  0  0  0  0
   43.1790   28.2000   43.6710 C   0  0  0  0  0  0  0  0  0  0  0  0
   42.5140   29.2120   42.9780 C   0  0  0  0  0  0  0  0  0  0  0  0
   40.6830   29.9500   42.1970 H   0  0  0  0  0  0  0  0  0  0  0  0
   40.5490   26.1940   44.2420 H   0  0  0  0  0  0  0  0  0  0  0  0
   43.0820   25.3640   45.2130 H   0  0  0  0  0  0  0  0  0  0  0  0
   45.4590   26.4040   45.1220 H   0  0  0  0  0  0  0  0  0  0  0  0
   43.1160   30.0470   42.6400 H   0  0  0  0  0  0  0  0  0  0  0  0
   36.2930   30.0780   41.5950 O   0  0  0  0  0  0  0  0  0  0  0  0
   37.0070   30.9930   40.8340 C   0  0  0  0  0  0  0  0  0  0  0  0
   36.5630   30.6910   39.5940 C   0  0  0  0  0  0  0  0  0  0  0  0
   37.5330   31.9410   38.5420 S   0  0  0  0  0  0  0  0  0  0  0  0
   38.3480   32.6080   40.0900 C   0  0  0  0  0  0  0  0  0  0  0  0
   37.8830   31.9680   40.8560 N   0  0  0  0  0  0  0  0  0  0  0  0
   35.9370   30.1210   38.7630 H   0  0  0  0  0  0  0  0  0  0  0  0
   41.2110   31.9040   39.2670 Cl  0  0  0  0  0  0  0  0  0  0  0  0
   40.6240   33.5200   39.5930 C   0  0  0  0  0  0  0  0  0  0  0  0
   39.3280   33.7240   39.9520 C   0  0  0  0  0  0  0  0  0  0  0  0
   38.7810   34.9340   40.2240 C   0  0  0  0  0  0  0  0  0  0  0  0
   37.7530   35.0990   40.5100 H   0  0  0  0  0  0  0  0  0  0  0  0
   39.6380   36.0360   40.1170 C   0  0  0  0  0  0  0  0  0  0  0  0
   39.2540   37.0300   40.3230 H   0  0  0  0  0  0  0  0  0  0  0  0
   40.9530   35.8400   39.7530 C   0  0  0  0  0  3  0  0  0  0  0  0
   41.4820   34.5940   39.4820 C   0  0  0  0  0  3  0  0  0  0  0  0
  1  2  2  0  0  0  0
  1  6  1  0  0  0  0
  2  3  1  0  0  0  0
  3  4  2  0  0  0  0
  3 10  1  0  0  0  0
  5  4  1  0  0  0  0
  5  8  1  0  0  0  0
  6  5  2  0  0  0  0
  7  2  1  0  0  0  0
  9 17  2  0  0  0  0
  9 10  1  0  0  0  0
 10 11  2  0  0  0  0
 11 12  1  0  0  0  0
 11 19  1  0  0  0  0
 12 13  1  0  0  0  0
 13 20  1  0  0  0  0
 14 13  1  0  0  0  0
 14 21  1  0  0  0  0
 15 14  2  0  0  0  0
 16 15  1  0  0  0  0
 16 12  2  0  0  0  0
 17 16  1  0  0  0  0
 18  9  1  0  0  0  0
 22 17  1  0  0  0  0
 23  1  1  0  0  0  0
 24 28  1  0  0  0  0
 24 23  1  0  0  0  0
 25 24  2  0  0  0  0
 26 25  1  0  0  0  0
 26 27  1  0  0  0  0
 27 28  2  0  0  0  0
 29 25  1  0  0  0  0
 30 31  1  0  0  0  0
 31 32  1  0  0  0  0
 32 27  1  0  0  0  0
 32 33  2  0  0  0  0
 33 34  1  0  0  0  0
 35 33  1  0  0  0  0
 35 36  1  0  0  0  0
 37 35  2  0  0  0  0
 38 31  2  0  0  0  0
 38 37  1  0  0  0  0
M  END
>  <minimizedAffinity>
-6.92362118

$$$$

 OpenBabel03252507393D

 38 42  0  0  0  0  0  0  0  0999 V2000
   38.6550   33.6130   40.0930 C   0  0  0  0  0  0  0  0  0  0  0  0
   39.7980   33.0480   39.4720 C   0  0  0  0  0  0  0  0  0  0  0  0
   40.8590   33.9100   39.2030 C   0  0  0  0  0  0  0  0  0  0  0  0
   40.7560   35.1960   39.5330 N   0  0  0  0  0  0  0  0  0  0  0  0
   39.6540   35.7160   40.1280 C   0  0  0  0  0  0  0  0  0  0  0  0
   38.6270   34.9270   40.3980 N   0  0  0  0  0  0  0  0  0  0  0  0
   39.8690   32.0210   39.2120 H   0  0  0  0  0  0  0  0  0  0  0  0
   39.6190   36.7610   40.3760 H   0  0  0  0  0  0  0  0  0  0  0  0
   43.2700   34.1130   38.9500 C   0  0  0  0  0  0  0  0  0  0  0  0
   42.0970   33.4460   38.5590 C   0  0  0  0  0  0  0  0  0  0  0  0
   42.1780   32.4480   37.6370 C   0  0  0  0  0  0  0  0  0  0  0  0
   43.3700   32.0640   37.0690 C   0  0  0  0  0  0  0  0  0  0  0  0
   43.6820   31.1200   36.1530 N   0  0  0  0  0  0  0  0  0  0  0  0
   45.0510   31.1870   35.9620 C   0  0  0  0  0  0  0  0  0  0  0  0
   45.5450   32.1610   36.7580 N   0  0  0  0  0  0  0  0  0  0  0  0
   44.5300   32.6990   37.4350 C   0  0  0  0  0  0  0  0  0  0  0  0
   44.4800   33.7260   38.3780 C   0  0  0  0  0  0  0  0  0  0  0  0
   43.2940   34.9160   39.6760 H   0  0  0  0  0  0  0  0  0  0  0  0
   41.2590   31.9530   37.3550 H   0  0  0  0  0  0  0  0  0  0  0  0
   42.9980   30.4630   35.6800 H   0  0  0  0  0  0  0  0  0  0  0  0
   45.5590   30.5210   35.2610 H   0  0  0  0  0  0  0  0  0  0  0  0
   45.4210   34.1980   38.6350 H   0  0  0  0  0  0  0  0  0  0  0  0
   37.5870   32.7490   40.3640 O   0  0  0  0  0  0  0  0  0  0  0  0
   37.8440   31.4330   40.7240 C   0  0  0  0  0  0  0  0  0  0  0  0
   37.0630   30.7720   39.8410 C   0  0  0  0  0  0  0  0  0  0  0  0
   37.4100   28.9670   40.3240 S   0  0  0  0  0  0  0  0  0  0  0  0
   38.5790   29.5520   41.6630 C   0  0  0  0  0  0  0  0  0  0  0  0
   38.5080   30.6430   41.5330 N   0  0  0  0  0  0  0  0  0  0  0  0
   36.2930   30.6340   38.9500 H   0  0  0  0  0  0  0  0  0  0  0  0
   36.8450   27.8130   43.4890 Cl  0  0  0  0  0  0  0  0  0  0  0  0
   38.5870   27.7050   43.3500 C   0  0  0  0  0  0  0  0  0  0  0  0
   39.2630   28.5280   42.5050 C   0  0  0  0  0  0  0  0  0  0  0  0
   40.6070   28.5210   42.3290 C   0  0  0  0  0  0  0  0  0  0  0  0
   41.1470   29.1730   41.6590 H   0  0  0  0  0  0  0  0  0  0  0  0
   41.3240   27.5860   43.0860 C   0  0  0  0  0  0  0  0  0  0  0  0
   42.4030   27.5350   42.9850 H   0  0  0  0  0  0  0  0  0  0  0  0
   40.6470   26.7470   43.9450 C   0  0  0  0  0  3  0  0  0  0  0  0
   39.2760   26.7780   44.1040 C   0  0  0  0  0  3  0  0  0  0  0  0
  1 23  1  0  0  0  0
  1  6  1  0  0  0  0
  2  1  2  0  0  0  0
  3  2  1  0  0  0  0
  3  4  2  0  0  0  0
  4  5  1  0  0  0  0
  5  8  1  0  0  0  0
  5  6  2  0  0  0  0
  7  2  1  0  0  0  0
  9 18  1  0  0  0  0
 10  9  1  0  0  0  0
 10  3  1  0  0  0  0
 11 10  2  0  0  0  0
 12 16  2  0  0  0  0
 12 11  1  0  0  0  0
 13 12  1  0  0  0  0
 14 13  1  0  0  0  0
 14 15  2  0  0  0  0
 15 16  1  0  0  0  0
 16 17  1  0  0  0  0
 17 22  1  0  0  0  0
 17  9  2  0  0  0  0
 19 11  1  0  0  0  0
 20 13  1  0  0  0  0
 21 14  1  0  0  0  0
 23 24  1  0  0  0  0
 24 28  1  0  0  0  0
 25 26  1  0  0  0  0
 25 24  2  0  0  0  0
 26 27  1  0  0  0  0
 27 32  1  0  0  0  0
 28 27  2  0  0  0  0
 29 25  1  0  0  0  0
 31 30  1  0  0  0  0
 31 38  1  0  0  0  0
 32 31  2  0  0  0  0
 33 32  1  0  0  0  0
 33 35  2  0  0  0  0
 34 33  1  0  0  0  0
 35 37  1  0  0  0  0
 36 35  1  0  0  0  0
 37 38  2  0  0  0  0
M  END
>  <minimizedAffinity>
-6.88788795

$$$$

 OpenBabel03252507393D

 38 42  0  0  0  0  0  0  0  0999 V2000
   36.4430   28.7880   41.4310 C   0  0  0  0  0  0  0  0  0  0  0  0
   37.2690   29.9400   41.4320 C   0  0  0  0  0  0  0  0  0  0  0  0
   37.0310   30.8860   40.4370 C   0  0  0  0  0  0  0  0  0  0  0  0
   36.0610   30.6710   39.5500 N   0  0  0  0  0  0  0  0  0  0  0  0
   35.2810   29.5620   39.5670 C   0  0  0  0  0  0  0  0  0  0  0  0
   35.4790   28.6420   40.4980 N   0  0  0  0  0  0  0  0  0  0  0  0
   38.0400   30.1000   42.1440 H   0  0  0  0  0  0  0  0  0  0  0  0
   34.5110   29.4350   38.8290 H   0  0  0  0  0  0  0  0  0  0  0  0
   37.1620   33.2130   39.7440 C   0  0  0  0  0  0  0  0  0  0  0  0
   37.8220   32.1210   40.3300 C   0  0  0  0  0  0  0  0  0  0  0  0
   39.1100   32.2690   40.7440 C   0  0  0  0  0  0  0  0  0  0  0  0
   39.7960   33.4540   40.6120 C   0  0  0  0  0  0  0  0  0  0  0  0
   41.0530   33.8230   40.9440 N   0  0  0  0  0  0  0  0  0  0  0  0
   41.1920   35.1470   40.5690 C   0  0  0  0  0  0  0  0  0  0  0  0
   40.0280   35.5590   40.0210 N   0  0  0  0  0  0  0  0  0  0  0  0
   39.1730   34.5360   40.0430 C   0  0  0  0  0  0  0  0  0  0  0  0
   37.8530   34.4170   39.6080 C   0  0  0  0  0  0  0  0  0  0  0  0
   36.1400   33.1810   39.3880 H   0  0  0  0  0  0  0  0  0  0  0  0
   39.5920   31.4110   41.1920 H   0  0  0  0  0  0  0  0  0  0  0  0
   41.7810   33.2030   41.4020 H   0  0  0  0  0  0  0  0  0  0  0  0
   42.1290   35.6870   40.7310 H   0  0  0  0  0  0  0  0  0  0  0  0
   37.4040   35.2970   39.1650 H   0  0  0  0  0  0  0  0  0  0  0  0
   36.6800   27.8350   42.4290 O   0  0  0  0  0  0  0  0  0  0  0  0
   37.9830   27.4430   42.7080 C   0  0  0  0  0  0  0  0  0  0  0  0
   37.9470   26.1500   42.3160 C   0  0  0  0  0  0  0  0  0  0  0  0
   39.7270   25.6040   42.6910 S   0  0  0  0  0  0  0  0  0  0  0  0
   40.1210   27.3230   43.3170 C   0  0  0  0  0  0  0  0  0  0  0  0
   39.1500   27.8200   43.1710 N   0  0  0  0  0  0  0  0  0  0  0  0
   37.4800   25.1500   41.8820 H   0  0  0  0  0  0  0  0  0  0  0  0
   41.5600   29.8010   42.2390 Cl  0  0  0  0  0  0  0  0  0  0  0  0
   42.2270   28.6720   43.3980 C   0  0  0  0  0  0  0  0  0  0  0  0
   41.5000   27.5990   43.8130 C   0  0  0  0  0  0  0  0  0  0  0  0
   41.9290   26.6720   44.7040 C   0  0  0  0  0  0  0  0  0  0  0  0
   41.3550   25.8200   45.0360 H   0  0  0  0  0  0  0  0  0  0  0  0
   43.2180   26.8610   45.2180 C   0  0  0  0  0  0  0  0  0  0  0  0
   43.6140   26.1500   45.9360 H   0  0  0  0  0  0  0  0  0  0  0  0
   43.9620   27.9450   44.8040 C   0  0  0  0  0  3  0  0  0  0  0  0
   43.4980   28.8730   43.8940 C   0  0  0  0  0  3  0  0  0  0  0  0
  1  2  1  0  0  0  0
  1 23  1  0  0  0  0
  2  7  1  0  0  0  0
  3  2  2  0  0  0  0
  4  5  2  0  0  0  0
  4  3  1  0  0  0  0
  5  6  1  0  0  0  0
  6  1  2  0  0  0  0
  8  5  1  0  0  0  0
  9 10  1  0  0  0  0
 10  3  1  0  0  0  0
 10 11  2  0  0  0  0
 11 19  1  0  0  0  0
 12 11  1  0  0  0  0
 12 13  1  0  0  0  0
 13 20  1  0  0  0  0
 14 21  1  0  0  0  0
 14 13  1  0  0  0  0
 15 16  1  0  0  0  0
 15 14  2  0  0  0  0
 16 12  2  0  0  0  0
 17  9  2  0  0  0  0
 17 16  1  0  0  0  0
 18  9  1  0  0  0  0
 22 17  1  0  0  0  0
 23 24  1  0  0  0  0
 24 28  1  0  0  0  0
 25 26  1  0  0  0  0
 25 24  2  0  0  0  0
 26 27  1  0  0  0  0
 27 32  1  0  0  0  0
 28 27  2  0  0  0  0
 29 25  1  0  0  0  0
 30 31  1  0  0  0  0
 31 32  2  0  0  0  0
 31 38  1  0  0  0  0
 32 33  1  0  0  0  0
 33 34  1  0  0  0  0
 33 35  2  0  0  0  0
 35 36  1  0  0  0  0
 37 35  1  0  0  0  0
 38 37  2  0  0  0  0
M  END
>  <minimizedAffinity>
-6.66351271

$$$$

 OpenBabel03252507393D

 38 42  0  0  0  0  0  0  0  0999 V2000
   37.6320   32.1310   39.7860 C   0  0  0  0  0  0  0  0  0  0  0  0
   37.5750   30.9290   40.5350 C   0  0  0  0  0  0  0  0  0  0  0  0
   37.2780   29.7630   39.8330 C   0  0  0  0  0  0  0  0  0  0  0  0
   37.0660   29.8280   38.5200 N   0  0  0  0  0  0  0  0  0  0  0  0
   37.1260   30.9890   37.8210 C   0  0  0  0  0  0  0  0  0  0  0  0
   37.4050   32.1160   38.4560 N   0  0  0  0  0  0  0  0  0  0  0  0
   37.7460   30.8900   41.5820 H   0  0  0  0  0  0  0  0  0  0  0  0
   36.9470   30.9890   36.7620 H   0  0  0  0  0  0  0  0  0  0  0  0
   37.0560   28.4930   41.8960 C   0  0  0  0  0  0  0  0  0  0  0  0
   37.1870   28.4540   40.4970 C   0  0  0  0  0  0  0  0  0  0  0  0
   37.2230   27.2490   39.8680 C   0  0  0  0  0  0  0  0  0  0  0  0
   37.1360   26.0580   40.5500 C   0  0  0  0  0  0  0  0  0  0  0  0
   37.1500   24.7680   40.1420 N   0  0  0  0  0  0  0  0  0  0  0  0
   37.0290   23.9890   41.2790 C   0  0  0  0  0  0  0  0  0  0  0  0
   36.9420   24.8090   42.3500 N   0  0  0  0  0  0  0  0  0  0  0  0
   37.0060   26.0680   41.9160 C   0  0  0  0  0  0  0  0  0  0  0  0
   36.9660   27.2880   42.5910 C   0  0  0  0  0  0  0  0  0  0  0  0
   37.0180   29.4080   42.4730 H   0  0  0  0  0  0  0  0  0  0  0  0
   37.3240   27.2500   38.7910 H   0  0  0  0  0  0  0  0  0  0  0  0
   37.2390   24.4360   39.1400 H   0  0  0  0  0  0  0  0  0  0  0  0
   37.0150   22.8980   41.2200 H   0  0  0  0  0  0  0  0  0  0  0  0
   36.8630   27.2470   43.6690 H   0  0  0  0  0  0  0  0  0  0  0  0
   37.9300   33.3050   40.4900 O   0  0  0  0  0  0  0  0  0  0  0  0
   39.1740   33.9020   40.3310 C   0  0  0  0  0  0  0  0  0  0  0  0
   38.8260   35.2070   40.3020 C   0  0  0  0  0  0  0  0  0  0  0  0
   40.5230   36.0340   40.0880 S   0  0  0  0  0  0  0  0  0  0  0  0
   41.3410   34.3510   40.0870 C   0  0  0  0  0  0  0  0  0  0  0  0
   40.4630   33.6980   40.2090 N   0  0  0  0  0  0  0  0  0  0  0  0
   38.1060   36.1490   40.3280 H   0  0  0  0  0  0  0  0  0  0  0  0
   42.4790   33.9080   37.2800 Cl  0  0  0  0  0  0  0  0  0  0  0  0
   43.4310   34.0880   38.7370 C   0  0  0  0  0  0  0  0  0  0  0  0
   42.8240   34.2820   39.9390 C   0  0  0  0  0  0  0  0  0  0  0  0
   43.4730   34.4320   41.1190 C   0  0  0  0  0  0  0  0  0  0  0  0
   42.9940   34.5860   42.0740 H   0  0  0  0  0  0  0  0  0  0  0  0
   44.8720   34.3790   41.0640 C   0  0  0  0  0  0  0  0  0  0  0  0
   45.4440   34.4930   41.9790 H   0  0  0  0  0  0  0  0  0  0  0  0
   45.4960   34.1830   39.8510 C   0  0  0  0  0  3  0  0  0  0  0  0
   44.8070   34.0340   38.6640 C   0  0  0  0  0  3  0  0  0  0  0  0
  1 23  1  0  0  0  0
  1  2  1  0  0  0  0
  2  7  1  0  0  0  0
  3 10  1  0  0  0  0
  3  2  2  0  0  0  0
  4  3  1  0  0  0  0
  5  6  1  0  0  0  0
  5  4  2  0  0  0  0
  6  1  2  0  0  0  0
  8  5  1  0  0  0  0
  9 18  1  0  0  0  0
  9 17  1  0  0  0  0
 10  9  2  0  0  0  0
 11 10  1  0  0  0  0
 11 12  2  0  0  0  0
 12 16  1  0  0  0  0
 13 12  1  0  0  0  0
 13 14  1  0  0  0  0
 14 15  2  0  0  0  0
 16 15  1  0  0  0  0
 16 17  2  0  0  0  0
 17 22  1  0  0  0  0
 19 11  1  0  0  0  0
 20 13  1  0  0  0  0
 21 14  1  0  0  0  0
 24 23  1  0  0  0  0
 25 29  1  0  0  0  0
 25 24  2  0  0  0  0
 26 25  1  0  0  0  0
 27 26  1  0  0  0  0
 27 28  2  0  0  0  0
 28 24  1  0  0  0  0
 30 31  1  0  0  0  0
 31 32  1  0  0  0  0
 32 27  1  0  0  0  0
 32 33  2  0  0  0  0
 33 34  1  0  0  0  0
 35 33  1  0  0  0  0
 35 36  1  0  0  0  0
 37 35  2  0  0  0  0
 38 31  2  0  0  0  0
 38 37  1  0  0  0  0
M  END
>  <minimizedAffinity>
-6.62753487

$$$$

 OpenBabel03252507393D

 38 42  0  0  0  0  0  0  0  0999 V2000
   36.9540   28.6910   41.9480 C   0  0  0  0  0  0  0  0  0  0  0  0
   37.7160   29.8770   41.7920 C   0  0  0  0  0  0  0  0  0  0  0  0
   37.2400   30.8160   40.8800 C   0  0  0  0  0  0  0  0  0  0  0  0
   36.1160   30.5650   40.2110 N   0  0  0  0  0  0  0  0  0  0  0  0
   35.4010   29.4240   40.3760 C   0  0  0  0  0  0  0  0  0  0  0  0
   35.8240   28.5100   41.2330 N   0  0  0  0  0  0  0  0  0  0  0  0
   38.6110   30.0660   42.3310 H   0  0  0  0  0  0  0  0  0  0  0  0
   34.5000   29.2680   39.8120 H   0  0  0  0  0  0  0  0  0  0  0  0
   37.2070   33.0520   39.9230 C   0  0  0  0  0  0  0  0  0  0  0  0
   37.9420   32.0830   40.6270 C   0  0  0  0  0  0  0  0  0  0  0  0
   39.2140   32.3680   41.0140 C   0  0  0  0  0  0  0  0  0  0  0  0
   39.8150   33.5750   40.7410 C   0  0  0  0  0  0  0  0  0  0  0  0
   41.0430   34.0680   41.0210 N   0  0  0  0  0  0  0  0  0  0  0  0
   41.0890   35.3470   40.4960 C   0  0  0  0  0  0  0  0  0  0  0  0
   39.9000   35.6100   39.9110 N   0  0  0  0  0  0  0  0  0  0  0  0
   39.1190   34.5390   40.0550 C   0  0  0  0  0  0  0  0  0  0  0  0
   37.8120   34.2770   39.6450 C   0  0  0  0  0  0  0  0  0  0  0  0
   36.1910   32.9070   39.5790 H   0  0  0  0  0  0  0  0  0  0  0  0
   39.7560   31.6030   41.5540 H   0  0  0  0  0  0  0  0  0  0  0  0
   41.8120   33.5580   41.5430 H   0  0  0  0  0  0  0  0  0  0  0  0
   41.9840   35.9660   40.5880 H   0  0  0  0  0  0  0  0  0  0  0  0
   37.3020   35.0670   39.1070 H   0  0  0  0  0  0  0  0  0  0  0  0
   37.4310   27.7460   42.8640 O   0  0  0  0  0  0  0  0  0  0  0  0
   38.0480   26.5920   42.4000 C   0  0  0  0  0  0  0  0  0  0  0  0
   39.0360   26.4500   43.3110 C   0  0  0  0  0  0  0  0  0  0  0  0
   39.8860   24.8700   42.6850 S   0  0  0  0  0  0  0  0  0  0  0  0
   38.6550   24.7660   41.2790 C   0  0  0  0  0  0  0  0  0  0  0  0
   38.0380   25.6550   41.4840 N   0  0  0  0  0  0  0  0  0  0  0  0
   39.6960   26.7110   44.2610 H   0  0  0  0  0  0  0  0  0  0  0  0
   40.6010   25.0850   38.9380 Cl  0  0  0  0  0  0  0  0  0  0  0  0
   39.6080   23.6750   39.2390 C   0  0  0  0  0  0  0  0  0  0  0  0
   38.7740   23.6360   40.3130 C   0  0  0  0  0  0  0  0  0  0  0  0
   37.9690   22.5930   40.6290 C   0  0  0  0  0  0  0  0  0  0  0  0
   37.3050   22.5580   41.4810 H   0  0  0  0  0  0  0  0  0  0  0  0
   38.0220   21.4900   39.7680 C   0  0  0  0  0  0  0  0  0  0  0  0
   37.3980   20.6250   39.9730 H   0  0  0  0  0  0  0  0  0  0  0  0
   38.8640   21.5200   38.6780 C   0  0  0  0  0  3  0  0  0  0  0  0
   39.6740   22.5980   38.3810 C   0  0  0  0  0  3  0  0  0  0  0  0
  1 23  1  0  0  0  0
  2  1  1  0  0  0  0
  2  7  1  0  0  0  0
  3  2  2  0  0  0  0
  4  5  2  0  0  0  0
  4  3  1  0  0  0  0
  5  6  1  0  0  0  0
  6  1  2  0  0  0  0
  8  5  1  0  0  0  0
  9 10  1  0  0  0  0
 10  3  1  0  0  0  0
 10 11  2  0  0  0  0
 11 19  1  0  0  0  0
 12 11  1  0  0  0  0
 12 13  1  0  0  0  0
 13 20  1  0  0  0  0
 14 21  1  0  0  0  0
 14 13  1  0  0  0  0
 15 16  1  0  0  0  0
 15 14  2  0  0  0  0
 16 12  2  0  0  0  0
 17  9  2  0  0  0  0
 17 16  1  0  0  0  0
 18  9  1  0  0  0  0
 22 17  1  0  0  0  0
 24 23  1  0  0  0  0
 24 25  2  0  0  0  0
 25 29  1  0  0  0  0
 26 25  1  0  0  0  0
 27 28  2  0  0  0  0
 27 26  1  0  0  0  0
 28 24  1  0  0  0  0
 30 31  1  0  0  0  0
 31 32  1  0  0  0  0
 32 33  2  0  0  0  0
 32 27  1  0  0  0  0
 33 34  1  0  0  0  0
 35 36  1  0  0  0  0
 35 33  1  0  0  0  0
 37 35  2  0  0  0  0
 38 37  1  0  0  0  0
 38 31  2  0  0  0  0
M  END
>  <minimizedAffinity>
-6.6247201

$$$$

 OpenBabel03252507393D

 38 42  0  0  0  0  0  0  0  0999 V2000
   37.7230   26.6870   42.7470 C   0  0  0  0  0  0  0  0  0  0  0  0
   39.0480   26.9380   43.1850 C   0  0  0  0  0  0  0  0  0  0  0  0
   39.9460   25.8750   43.1160 C   0  0  0  0  0  0  0  0  0  0  0  0
   39.5300   24.6970   42.6530 N   0  0  0  0  0  0  0  0  0  0  0  0
   38.2570   24.4780   42.2390 C   0  0  0  0  0  0  0  0  0  0  0  0
   37.3770   25.4650   42.2900 N   0  0  0  0  0  0  0  0  0  0  0  0
   39.3680   27.8810   43.5520 H   0  0  0  0  0  0  0  0  0  0  0  0
   37.9700   23.5090   41.8730 H   0  0  0  0  0  0  0  0  0  0  0  0
   41.5850   26.9660   44.5430 C   0  0  0  0  0  0  0  0  0  0  0  0
   41.3460   26.0080   43.5430 C   0  0  0  0  0  0  0  0  0  0  0  0
   42.3910   25.2920   43.0480 C   0  0  0  0  0  0  0  0  0  0  0  0
   43.6820   25.4680   43.4900 C   0  0  0  0  0  0  0  0  0  0  0  0
   44.8520   24.8820   43.1480 N   0  0  0  0  0  0  0  0  0  0  0  0
   45.8330   25.4660   43.9300 C   0  0  0  0  0  0  0  0  0  0  0  0
   45.2500   26.3880   44.7270 N   0  0  0  0  0  0  0  0  0  0  0  0
   43.9420   26.3960   44.4660 C   0  0  0  0  0  0  0  0  0  0  0  0
   42.8920   27.1470   44.9950 C   0  0  0  0  0  0  0  0  0  0  0  0
   40.8130   27.5770   44.9910 H   0  0  0  0  0  0  0  0  0  0  0  0
   42.1770   24.5620   42.2790 H   0  0  0  0  0  0  0  0  0  0  0  0
   44.9760   24.1240   42.4190 H   0  0  0  0  0  0  0  0  0  0  0  0
   46.8800   25.1650   43.8450 H   0  0  0  0  0  0  0  0  0  0  0  0
   43.1460   27.8670   45.7630 H   0  0  0  0  0  0  0  0  0  0  0  0
   36.8180   27.7530   42.8150 O   0  0  0  0  0  0  0  0  0  0  0  0
   36.4420   28.4090   41.6500 C   0  0  0  0  0  0  0  0  0  0  0  0
   36.8560   29.6660   41.9230 C   0  0  0  0  0  0  0  0  0  0  0  0
   36.3480   30.5720   40.3320 S   0  0  0  0  0  0  0  0  0  0  0  0
   35.6650   28.9720   39.6410 C   0  0  0  0  0  0  0  0  0  0  0  0
   35.8810   28.2830   40.4720 N   0  0  0  0  0  0  0  0  0  0  0  0
   37.3420   30.5470   42.5500 H   0  0  0  0  0  0  0  0  0  0  0  0
   37.5480   29.1230   37.2320 Cl  0  0  0  0  0  0  0  0  0  0  0  0
   35.8020   29.0560   37.1440 C   0  0  0  0  0  0  0  0  0  0  0  0
   35.0560   28.9890   38.2800 C   0  0  0  0  0  0  0  0  0  0  0  0
   33.7020   28.9340   38.3140 C   0  0  0  0  0  0  0  0  0  0  0  0
   33.1070   28.8810   39.2140 H   0  0  0  0  0  0  0  0  0  0  0  0
   33.0520   28.9460   37.0730 C   0  0  0  0  0  0  0  0  0  0  0  0
   31.9680   28.9030   37.0400 H   0  0  0  0  0  0  0  0  0  0  0  0
   33.8000   29.0130   35.9170 C   0  0  0  0  0  3  0  0  0  0  0  0
   35.1790   29.0690   35.9140 C   0  0  0  0  0  3  0  0  0  0  0  0
  1 23  1  0  0  0  0
  1  2  1  0  0  0  0
  2  7  1  0  0  0  0
  3  2  2  0  0  0  0
  3 10  1  0  0  0  0
  4  3  1  0  0  0  0
  5  6  1  0  0  0  0
  5  4  2  0  0  0  0
  6  1  2  0  0  0  0
  8  5  1  0  0  0  0
  9 18  1  0  0  0  0
  9 17  1  0  0  0  0
 10  9  2  0  0  0  0
 11 12  2  0  0  0  0
 11 10  1  0  0  0  0
 12 16  1  0  0  0  0
 13 12  1  0  0  0  0
 13 14  1  0  0  0  0
 14 15  2  0  0  0  0
 16 15  1  0  0  0  0
 16 17  2  0  0  0  0
 17 22  1  0  0  0  0
 19 11  1  0  0  0  0
 20 13  1  0  0  0  0
 21 14  1  0  0  0  0
 24 25  2  0  0  0  0
 24 23  1  0  0  0  0
 25 29  1  0  0  0  0
 26 25  1  0  0  0  0
 27 26  1  0  0  0  0
 27 28  2  0  0  0  0
 28 24  1  0  0  0  0
 31 30  1  0  0  0  0
 31 32  1  0  0  0  0
 32 33  2  0  0  0  0
 32 27  1  0  0  0  0
 33 34  1  0  0  0  0
 35 33  1  0  0  0  0
 36 35  1  0  0  0  0
 37 35  2  0  0  0  0
 38 37  1  0  0  0  0
 38 31  2  0  0  0  0
M  END
>  <minimizedAffinity>
-6.56914997

$$$$

 OpenBabel03252507393D

 38 42  0  0  0  0  0  0  0  0999 V2000
   37.5990   32.1700   39.9440 C   0  0  0  0  0  0  0  0  0  0  0  0
   38.1820   31.2870   40.8870 C   0  0  0  0  0  0  0  0  0  0  0  0
   37.9430   29.9260   40.7070 C   0  0  0  0  0  0  0  0  0  0  0  0
   37.1950   29.5250   39.6810 N   0  0  0  0  0  0  0  0  0  0  0  0
   36.6470   30.3870   38.7890 C   0  0  0  0  0  0  0  0  0  0  0  0
   36.8530   31.6860   38.9290 N   0  0  0  0  0  0  0  0  0  0  0  0
   38.7770   31.6190   41.7020 H   0  0  0  0  0  0  0  0  0  0  0  0
   36.0510   30.0130   37.9770 H   0  0  0  0  0  0  0  0  0  0  0  0
   37.5530   28.0060   42.1480 C   0  0  0  0  0  0  0  0  0  0  0  0
   38.4890   28.9110   41.6200 C   0  0  0  0  0  0  0  0  0  0  0  0
   39.7970   28.7960   41.9770 C   0  0  0  0  0  0  0  0  0  0  0  0
   40.2430   27.8220   42.8400 C   0  0  0  0  0  0  0  0  0  0  0  0
   41.4690   27.5250   43.3270 N   0  0  0  0  0  0  0  0  0  0  0  0
   41.3130   26.4340   44.1620 C   0  0  0  0  0  0  0  0  0  0  0  0
   40.0070   26.0870   44.1710 N   0  0  0  0  0  0  0  0  0  0  0  0
   39.3490   26.9260   43.3700 C   0  0  0  0  0  0  0  0  0  0  0  0
   38.0010   27.0170   43.0230 C   0  0  0  0  0  0  0  0  0  0  0  0
   36.4960   28.0270   41.9160 H   0  0  0  0  0  0  0  0  0  0  0  0
   40.4950   29.5060   41.5550 H   0  0  0  0  0  0  0  0  0  0  0  0
   42.3680   28.0410   43.1010 H   0  0  0  0  0  0  0  0  0  0  0  0
   42.1650   25.9940   44.6860 H   0  0  0  0  0  0  0  0  0  0  0  0
   37.3330   26.2880   43.4650 H   0  0  0  0  0  0  0  0  0  0  0  0
   37.8380   33.5380   40.1230 O   0  0  0  0  0  0  0  0  0  0  0  0
   39.1270   34.0340   39.9790 C   0  0  0  0  0  0  0  0  0  0  0  0
   38.9210   35.3480   40.2160 C   0  0  0  0  0  0  0  0  0  0  0  0
   40.6820   36.0360   40.0240 S   0  0  0  0  0  0  0  0  0  0  0  0
   41.3120   34.3130   39.6520 C   0  0  0  0  0  0  0  0  0  0  0  0
   40.3770   33.7360   39.7210 N   0  0  0  0  0  0  0  0  0  0  0  0
   38.3100   36.3330   40.4700 H   0  0  0  0  0  0  0  0  0  0  0  0
   43.2380   34.4220   42.0280 Cl  0  0  0  0  0  0  0  0  0  0  0  0
   43.7060   34.1650   40.3620 C   0  0  0  0  0  0  0  0  0  0  0  0
   42.7670   34.1340   39.3780 C   0  0  0  0  0  0  0  0  0  0  0  0
   43.0310   33.9420   38.0630 C   0  0  0  0  0  0  0  0  0  0  0  0
   42.2880   33.9170   37.2790 H   0  0  0  0  0  0  0  0  0  0  0  0
   44.3780   33.7660   37.7230 C   0  0  0  0  0  0  0  0  0  0  0  0
   44.6480   33.6080   36.6830 H   0  0  0  0  0  0  0  0  0  0  0  0
   45.3370   33.7960   38.7120 C   0  0  0  0  0  3  0  0  0  0  0  0
   45.0380   33.9930   40.0450 C   0  0  0  0  0  3  0  0  0  0  0  0
  1 23  1  0  0  0  0
  1  2  1  0  0  0  0
  2  7  1  0  0  0  0
  3  2  2  0  0  0  0
  3 10  1  0  0  0  0
  4  3  1  0  0  0  0
  5  6  1  0  0  0  0
  5  4  2  0  0  0  0
  6  1  2  0  0  0  0
  8  5  1  0  0  0  0
  9 17  1  0  0  0  0
 10 11  1  0  0  0  0
 10  9  2  0  0  0  0
 11 12  2  0  0  0  0
 12 13  1  0  0  0  0
 12 16  1  0  0  0  0
 13 14  1  0  0  0  0
 14 15  2  0  0  0  0
 14 21  1  0  0  0  0
 16 15  1  0  0  0  0
 17 16  2  0  0  0  0
 17 22  1  0  0  0  0
 18  9  1  0  0  0  0
 19 11  1  0  0  0  0
 20 13  1  0  0  0  0
 24 23  1  0  0  0  0
 24 25  2  0  0  0  0
 25 29  1  0  0  0  0
 26 25  1  0  0  0  0
 27 28  2  0  0  0  0
 27 26  1  0  0  0  0
 28 24  1  0  0  0  0
 31 30  1  0  0  0  0
 32 27  1  0  0  0  0
 32 31  2  0  0  0  0
 33 32  1  0  0  0  0
 34 33  1  0  0  0  0
 35 33  2  0  0  0  0
 35 37  1  0  0  0  0
 36 35  1  0  0  0  0
 37 38  2  0  0  0  0
 38 31  1  0  0  0  0
M  END
>  <minimizedAffinity>
-6.5075078

$$$$

 OpenBabel03252507393D

 38 42  0  0  0  0  0  0  0  0999 V2000
   38.6220   32.6860   40.3450 C   0  0  0  0  0  0  0  0  0  0  0  0
   39.3220   31.6720   41.0450 C   0  0  0  0  0  0  0  0  0  0  0  0
   38.5830   30.5650   41.4560 C   0  0  0  0  0  0  0  0  0  0  0  0
   37.2810   30.5100   41.1780 N   0  0  0  0  0  0  0  0  0  0  0  0
   36.6300   31.4910   40.5060 C   0  0  0  0  0  0  0  0  0  0  0  0
   37.3010   32.5570   40.1010 N   0  0  0  0  0  0  0  0  0  0  0  0
   40.3610   31.7270   41.2610 H   0  0  0  0  0  0  0  0  0  0  0  0
   35.5790   31.4000   40.3060 H   0  0  0  0  0  0  0  0  0  0  0  0
   38.2960   28.4880   42.6880 C   0  0  0  0  0  0  0  0  0  0  0  0
   39.1930   29.4490   42.1930 C   0  0  0  0  0  0  0  0  0  0  0  0
   40.5250   29.2920   42.4230 C   0  0  0  0  0  0  0  0  0  0  0  0
   41.0320   28.2240   43.1250 C   0  0  0  0  0  0  0  0  0  0  0  0
   42.2920   27.8720   43.4670 N   0  0  0  0  0  0  0  0  0  0  0  0
   42.1960   26.6890   44.1790 C   0  0  0  0  0  0  0  0  0  0  0  0
   40.8920   26.3440   44.2570 N   0  0  0  0  0  0  0  0  0  0  0  0
   40.1770   27.2710   43.6190 C   0  0  0  0  0  0  0  0  0  0  0  0
   38.8060   27.4030   43.4000 C   0  0  0  0  0  0  0  0  0  0  0  0
   37.2240   28.5360   42.5510 H   0  0  0  0  0  0  0  0  0  0  0  0
   41.1920   30.0480   42.0290 H   0  0  0  0  0  0  0  0  0  0  0  0
   43.1740   28.4100   43.2290 H   0  0  0  0  0  0  0  0  0  0  0  0
   43.0840   26.1910   44.5740 H   0  0  0  0  0  0  0  0  0  0  0  0
   38.1700   26.6270   43.8090 H   0  0  0  0  0  0  0  0  0  0  0  0
   39.3630   33.8000   39.9310 O   0  0  0  0  0  0  0  0  0  0  0  0
   40.7220   33.8620   40.2110 C   0  0  0  0  0  0  0  0  0  0  0  0
   41.2430   33.7200   38.9720 C   0  0  0  0  0  0  0  0  0  0  0  0
   43.1040   33.8070   39.3450 S   0  0  0  0  0  0  0  0  0  0  0  0
   42.7270   34.0240   41.1650 C   0  0  0  0  0  0  0  0  0  0  0  0
   41.6270   33.9980   41.1500 N   0  0  0  0  0  0  0  0  0  0  0  0
   41.2450   33.5730   37.7950 H   0  0  0  0  0  0  0  0  0  0  0  0
   43.2600   31.7280   43.1170 Cl  0  0  0  0  0  0  0  0  0  0  0  0
   44.1910   33.2070   43.0220 C   0  0  0  0  0  0  0  0  0  0  0  0
   43.8690   34.1670   42.1140 C   0  0  0  0  0  0  0  0  0  0  0  0
   44.5280   35.3420   41.9650 C   0  0  0  0  0  0  0  0  0  0  0  0
   44.2740   36.1070   41.2450 H   0  0  0  0  0  0  0  0  0  0  0  0
   45.6150   35.5530   42.8220 C   0  0  0  0  0  0  0  0  0  0  0  0
   46.1800   36.4770   42.7460 H   0  0  0  0  0  0  0  0  0  0  0  0
   45.9490   34.5860   43.7440 C   0  0  0  0  0  3  0  0  0  0  0  0
   45.2590   33.3970   43.8740 C   0  0  0  0  0  3  0  0  0  0  0  0
  1  2  1  0  0  0  0
  2  7  1  0  0  0  0
  2  3  2  0  0  0  0
  3 10  1  0  0  0  0
  4  3  1  0  0  0  0
  5  4  2  0  0  0  0
  6  1  2  0  0  0  0
  6  5  1  0  0  0  0
  8  5  1  0  0  0  0
  9 17  1  0  0  0  0
 10 11  1  0  0  0  0
 10  9  2  0  0  0  0
 11 12  2  0  0  0  0
 12 13  1  0  0  0  0
 12 16  1  0  0  0  0
 13 14  1  0  0  0  0
 14 15  2  0  0  0  0
 14 21  1  0  0  0  0
 16 15  1  0  0  0  0
 17 16  2  0  0  0  0
 17 22  1  0  0  0  0
 18  9  1  0  0  0  0
 19 11  1  0  0  0  0
 20 13  1  0  0  0  0
 23 24  1  0  0  0  0
 23  1  1  0  0  0  0
 24 28  1  0  0  0  0
 25 26  1  0  0  0  0
 25 24  2  0  0  0  0
 26 27  1  0  0  0  0
 27 32  1  0  0  0  0
 28 27  2  0  0  0  0
 29 25  1  0  0  0  0
 31 30  1  0  0  0  0
 31 38  1  0  0  0  0
 32 31  2  0  0  0  0
 33 32  1  0  0  0  0
 33 35  2  0  0  0  0
 34 33  1  0  0  0  0
 35 37  1  0  0  0  0
 36 35  1  0  0  0  0
 37 38  2  0  0  0  0
M  END
>  <minimizedAffinity>
-6.36315632

$$$$
