
 OpenBabel03252502013D

 34 37  0  0  0  0  0  0  0  0999 V2000
   47.7220   32.3000   48.2980 C   0  0  0  0  0  0  0  0  0  0  0  0
   47.4120   30.9340   48.3440 C   0  0  0  0  0  0  0  0  0  0  0  0
   46.5580   30.4580   47.3940 C   0  0  0  0  0  0  0  0  0  0  0  0
   46.0540   31.3000   46.4640 N   0  0  0  0  0  0  0  0  0  0  0  0
   46.3540   32.6010   46.4240 C   0  0  0  0  0  0  0  0  0  0  0  0
   47.1840   33.0570   47.3500 N   0  0  0  0  0  0  0  0  0  0  0  0
   48.4050   32.6610   49.0630 H   0  0  0  0  0  0  0  0  0  0  0  0
   45.9260   33.6660   45.5110 C   0  0  0  0  0  0  0  0  0  0  0  0
   44.9420   34.5530   45.7770 N   0  0  0  0  0  0  0  0  0  0  0  0
   44.5300   35.5230   44.9840 C   0  0  0  0  0  0  0  0  0  0  0  0
   45.1260   35.6850   43.7680 N   0  0  0  0  0  0  0  0  0  0  0  0
   46.1200   34.8700   43.3760 C   0  0  0  0  0  0  0  0  0  0  0  0
   46.7110   35.0500   42.1420 C   0  0  0  0  0  0  0  0  0  0  0  0
   47.7250   34.2280   41.7320 C   0  0  0  0  0  0  0  0  0  0  0  0
   48.1300   33.2220   42.5910 C   0  0  0  0  0  0  0  0  0  0  0  0
   47.5080   33.0860   43.8100 C   0  0  0  0  0  0  0  0  0  0  0  0
   46.4850   33.8840   44.2690 C   0  0  0  0  0  0  0  0  0  0  0  0
   43.7280   36.1660   45.3240 H   0  0  0  0  0  0  0  0  0  0  0  0
   46.3400   35.8630   41.5190 H   0  0  0  0  0  0  0  0  0  0  0  0
   48.1320   34.4370   40.7540 H   0  0  0  0  0  0  0  0  0  0  0  0
   48.9320   32.5780   42.2590 H   0  0  0  0  0  0  0  0  0  0  0  0
   47.8610   32.2780   44.4560 H   0  0  0  0  0  0  0  0  0  0  0  0
   48.3020   28.7050   45.6410 Cl  0  0  0  0  0  0  0  0  0  0  0  0
   46.8390   28.1990   46.5000 C   0  0  0  0  0  0  0  0  0  0  0  0
   46.1170   29.0820   47.2750 C   0  0  0  0  0  0  0  0  0  0  0  0
   45.0330   28.4720   47.8380 C   0  0  0  0  0  0  0  0  0  0  0  0
   44.4050   29.0770   48.4620 H   0  0  0  0  0  0  0  0  0  0  0  0
   44.6460   27.1610   47.7010 C   0  0  0  0  0  0  0  0  0  0  0  0
   43.7820   26.7780   48.1830 H   0  0  0  0  0  0  0  0  0  0  0  0
   45.4180   26.3430   46.9110 C   0  0  0  0  0  0  0  0  0  0  0  0
   46.5170   26.8680   46.3110 C   0  0  0  0  0  0  0  0  0  0  0  0
   47.9850   30.1270   49.3350 N   0  0  0  0  0  0  0  0  0  0  0  0
   47.2810   30.2200   50.1130 H   0  0  0  0  0  0  0  0  0  0  0  0
   48.8450   29.8260   48.7960 H   0  0  0  0  0  0  0  0  0  0  0  0
  1  2  1  0  0  0  0
  1  7  1  0  0  0  0
  2 32  1  0  0  0  0
  3  2  2  0  0  0  0
  4  3  1  0  0  0  0
  5  4  2  0  0  0  0
  5  6  1  0  0  0  0
  6  1  2  0  0  0  0
  8  9  1  0  0  0  0
  8  5  1  0  0  0  0
 10 18  1  0  0  0  0
 10  9  2  0  0  0  0
 11 10  1  0  0  0  0
 12 11  2  0  0  0  0
 12 17  1  0  0  0  0
 13 12  1  0  0  0  0
 14 13  2  0  0  0  0
 14 15  1  0  0  0  0
 15 16  2  0  0  0  0
 16 17  1  0  0  0  0
 16 22  1  0  0  0  0
 17  8  2  0  0  0  0
 19 13  1  0  0  0  0
 20 14  1  0  0  0  0
 21 15  1  0  0  0  0
 23 24  1  0  0  0  0
 24 25  1  0  0  0  0
 25  3  1  0  0  0  0
 25 26  2  0  0  0  0
 26 27  1  0  0  0  0
 28 26  1  0  0  0  0
 28 29  1  0  0  0  0
 30 28  2  0  0  0  0
 31 24  2  0  0  0  0
 31 30  1  0  0  0  0
 32 33  1  0  0  0  0
 34 32  1  0  0  0  0
M  END
>  <minimizedAffinity>
-6.39896584

>  <minimizedRMSD>
0.756956279

$$$$
