REMARK  Name = 
REMARK  4 active torsions:
REMARK  status: ('A' for Active; 'I' for Inactive)
REMARK    1  A    between atoms: C_1  and  C_4
REMARK    2  A    between atoms: C_1  and  C_8
REMARK    3  A    between atoms: C_8  and  C_9
REMARK    4  A    between atoms: C_14  and  C_28
REMARK                            x       y       z     vdW  Elec       q    Type
REMARK                         _______ _______ _______ _____ _____    ______ ____
ROOT
ATOM      1  C   UNL     1      46.054  34.389  41.438  0.00  0.00    +0.000 A 
ATOM      2  C   UNL     1      46.632  34.045  40.242  0.00  0.00    +0.000 A 
ATOM      3  C   UNL     1      47.926  34.367  39.859  0.00  0.00    +0.000 A 
ATOM      4  C   UNL     1      48.655  35.096  40.795  0.00  0.00    +0.000 A 
ATOM      5  C   UNL     1      48.099  35.456  42.008  0.00  0.00    +0.000 A 
ATOM      6  C   UNL     1      46.821  35.121  42.352  0.00  0.00    +0.000 A 
ATOM      7  H   UNL     1      45.996  33.480  39.572  0.00  0.00    +0.000 HD
ATOM      8  H   UNL     1      48.328  34.069  38.901  0.00  0.00    +0.000 HD
ATOM      9  H   UNL     1      49.653  35.363  40.539  0.00  0.00    +0.000 HD
ATOM     10  H   UNL     1      48.713  36.029  42.712  0.00  0.00    +0.000 HD
ENDROOT
BRANCH   6  13
ATOM     11 CL   UNL     1      46.836  38.054  42.571  0.00  0.00    +0.000 Cl
ATOM     12  C   UNL     1      46.245  36.898  43.770  0.00  0.00    +0.000 A 
ATOM     13  C   UNL     1      46.251  35.510  43.638  0.00  0.00    +0.000 A 
ATOM     14  C   UNL     1      45.760  34.737  44.652  0.00  0.00    +0.000 A 
ATOM     15  H   UNL     1      45.817  33.674  44.433  0.00  0.00    +0.000 HD
ATOM     16  C   UNL     1      45.263  35.316  45.794  0.00  0.00    +0.000 A 
ATOM     17  H   UNL     1      44.889  34.659  46.559  0.00  0.00    +0.000 HD
ATOM     18  C   UNL     1      45.250  36.687  45.941  0.00  0.00    +0.000 A 
ATOM     19  C   UNL     1      45.745  37.501  44.924  0.00  0.00    +0.000 A 
ENDBRANCH   6  13
BRANCH   1  20
ATOM     20  C   UNL     1      44.676  34.041  41.836  0.00  0.00    +0.000 C 
ATOM     21  H   UNL     1      44.200  35.017  42.147  0.00  0.00    +0.000 HD
ATOM     22  H   UNL     1      44.589  33.359  42.682  0.00  0.00    +0.000 HD
BRANCH  20  23
ATOM     23  C   UNL     1      43.861  33.565  40.648  0.00  0.00    +0.000 C 
ATOM     24  H   UNL     1      44.099  32.493  40.405  0.00  0.00    +0.000 HD
ATOM     25  H   UNL     1      44.014  34.231  39.790  0.00  0.00    +0.000 HD
BRANCH  23  28
ATOM     26  C   UNL     1      40.383  34.802  41.474  0.00  0.00    +0.000 A 
ATOM     27  C   UNL     1      41.753  34.838  41.106  0.00  0.00    +0.000 A 
ATOM     28  C   UNL     1      42.425  33.619  41.026  0.00  0.00    +0.000 A 
ATOM     29  N   UNL     1      41.727  32.460  41.307  0.00  0.00    +0.000 NA
ATOM     30  C   UNL     1      40.432  32.493  41.649  0.00  0.00    +0.000 A 
ATOM     31  N   UNL     1      39.753  33.658  41.735  0.00  0.00    +0.000 NA
ATOM     32  H   UNL     1      39.993  35.816  41.495  0.00  0.00    +0.000 HD
ATOM     33  H   UNL     1      42.313  35.721  40.884  0.00  0.00    +0.000 HD
ATOM     34  H   UNL     1      39.886  31.582  41.869  0.00  0.00    +0.000 HD
ENDBRANCH  23  28
ENDBRANCH  20  23
ENDBRANCH   1  20
TORSDOF 4
