
 OpenBabel03242522063D

 44 47  0  0  1  0  0  0  0  0999 V2000
   44.4260   35.4410   45.5600 C   0  0  0  0  0  0  0  0  0  0  0  0
   45.0180   35.3250   44.2910 C   0  0  0  0  0  0  0  0  0  0  0  0
   45.8950   34.2660   44.0650 C   0  0  0  0  0  0  0  0  0  0  0  0
   46.1050   33.4230   45.1080 N   0  0  0  0  0  0  0  0  0  0  0  0
   45.5310   33.5490   46.3120 C   0  0  0  0  0  0  0  0  0  0  0  0
   44.6770   34.5830   46.5280 N   0  0  0  0  0  0  0  0  0  0  0  0
   43.7560   36.2900   45.6570 H   0  0  0  0  0  0  0  0  0  0  0  0
   44.8610   35.9850   43.4540 H   0  0  0  0  0  0  0  0  0  0  0  0
   46.5700   34.0190   42.8330 N   0  0  0  0  0  0  0  0  0  0  0  0
   45.8110   33.9260   41.5950 C   0  0  0  0  0  0  0  0  0  0  0  0
   46.5780   33.1910   40.5310 C   0  0  0  0  0  0  0  0  0  0  0  0
   47.9020   33.6380   40.3390 N   0  0  0  0  0  0  0  0  0  0  0  0
   48.6160   34.0680   41.4870 C   0  0  2  0  0  0  0  0  0  0  0  0
   47.9890   33.8600   42.8020 C   0  0  0  0  0  0  0  0  0  0  0  0
   44.9100   33.2960   41.8180 H   0  0  0  0  0  0  0  0  0  0  0  0
   45.4390   34.9080   41.2490 H   0  0  0  0  0  0  0  0  0  0  0  0
   46.5290   32.0940   40.7430 H   0  0  0  0  0  0  0  0  0  0  0  0
   46.0240   33.3300   39.5710 H   0  0  0  0  0  0  0  0  0  0  0  0
   48.4130   32.9340   39.7610 H   0  0  0  0  0  0  0  0  0  0  0  0
   49.6190   33.5630   41.4790 H   0  0  0  0  0  0  0  0  0  0  0  0
   48.4220   34.6060   43.5190 H   0  0  0  0  0  0  0  0  0  0  0  0
   48.2630   32.8730   43.2150 H   0  0  0  0  0  0  0  0  0  0  0  0
   48.9150   35.5500   41.3440 C   0  0  0  0  0  0  0  0  0  0  0  0
   50.1260   35.8490   41.9540 F   0  0  0  0  0  0  0  0  0  0  0  0
   47.9320   36.2120   42.0560 F   0  0  0  0  0  0  0  0  0  0  0  0
   48.9790   35.9680   40.0430 F   0  0  0  0  0  0  0  0  0  0  0  0
   45.8060   32.6050   47.3790 C   0  0  0  0  0  0  0  0  0  0  0  0
   44.7700   32.0850   48.1310 C   0  0  0  0  0  0  0  0  0  0  0  0
   45.1130   31.1830   49.1390 C   0  0  0  0  0  0  0  0  0  0  0  0
   46.4410   30.8890   49.3000 C   0  0  0  0  0  0  0  0  0  0  0  0
   47.4750   31.3970   48.5630 C   0  0  0  0  0  0  0  0  0  0  0  0
   47.0980   32.2700   47.5940 N   0  0  0  0  0  0  0  0  0  0  0  0
   43.7560   32.3780   47.9270 H   0  0  0  0  0  0  0  0  0  0  0  0
   44.3120   30.7840   49.7160 H   0  0  0  0  0  0  0  0  0  0  0  0
   46.6530   30.1860   50.0920 H   0  0  0  0  0  0  0  0  0  0  0  0
   48.4310   28.9160   47.0920 Cl  0  0  0  0  0  0  0  0  0  0  0  0
   49.3840   29.9450   48.1300 C   0  0  0  0  0  0  0  0  0  0  0  0
   48.8770   31.0590   48.7660 C   0  0  0  0  0  0  0  0  0  0  0  0
   49.7200   31.7840   49.5530 C   0  0  0  0  0  0  0  0  0  0  0  0
   49.3710   32.6650   50.0710 H   0  0  0  0  0  0  0  0  0  0  0  0
   51.0510   31.4880   49.7640 C   0  0  0  0  0  0  0  0  0  0  0  0
   51.6860   32.0870   50.3930 H   0  0  0  0  0  0  0  0  0  0  0  0
   51.5750   30.3680   49.1290 C   0  0  0  0  0  0  0  0  0  0  0  0
   50.7250   29.6130   48.3200 C   0  0  0  0  0  0  0  0  0  0  0  0
  1  7  1  0  0  0  0
  1  6  1  0  0  0  0
  2  1  2  0  0  0  0
  3  2  1  0  0  0  0
  3  4  2  0  0  0  0
  4  5  1  0  0  0  0
  5  6  2  0  0  0  0
  5 27  1  0  0  0  0
  8  2  1  0  0  0  0
  9  3  1  0  0  0  0
 10 15  1  0  0  0  0
 10  9  1  0  0  0  0
 11 17  1  0  0  0  0
 11 10  1  0  0  0  0
 12 11  1  0  0  0  0
 12 13  1  0  0  0  0
 13 20  1  1  0  0  0
 13 14  1  0  0  0  0
 14  9  1  0  0  0  0
 14 22  1  0  0  0  0
 14 21  1  0  0  0  0
 16 10  1  0  0  0  0
 18 11  1  0  0  0  0
 19 12  1  0  0  0  0
 23 13  1  0  0  0  0
 23 24  1  0  0  0  0
 23 25  1  0  0  0  0
 26 23  1  0  0  0  0
 27 32  2  0  0  0  0
 27 28  1  0  0  0  0
 28 29  2  0  0  0  0
 29 30  1  0  0  0  0
 29 34  1  0  0  0  0
 30 35  1  0  0  0  0
 31 38  1  0  0  0  0
 31 30  2  0  0  0  0
 32 31  1  0  0  0  0
 33 28  1  0  0  0  0
 36 37  1  0  0  0  0
 37 44  2  0  0  0  0
 37 38  1  0  0  0  0
 38 39  2  0  0  0  0
 39 41  1  0  0  0  0
 39 40  1  0  0  0  0
 41 42  1  0  0  0  0
 43 41  2  0  0  0  0
 44 43  1  0  0  0  0
M  END
>  <minimizedAffinity>
-7.60597229

>  <minimizedRMSD>
1.24134421

$$$$
