REMARK  Name = 
REMARK  3 active torsions:
REMARK  status: ('A' for Active; 'I' for Inactive)
REMARK    1  A    between atoms: C_2  and  C_13
REMARK    2  A    between atoms: C_3  and  C_7
REMARK    3  A    between atoms: C_20  and  C_38
REMARK                            x       y       z     vdW  Elec       q    Type
REMARK                         _______ _______ _______ _____ _____    ______ ____
ROOT
ATOM      1  C   UNL     1      47.412  33.711  42.717  0.00  0.00    +0.000 C 
ATOM      2  O   UNL     1      48.509  33.540  43.330  0.00  0.00    +0.000 OA
ATOM      3  N   UNL     1      47.127  33.193  41.411  0.00  0.00    +0.000 N 
ATOM      4  C   UNL     1      45.931  32.532  40.896  0.00  0.00    +0.000 C 
ATOM      5  C   UNL     1      45.479  33.236  39.609  0.00  0.00    +0.000 C 
ATOM      6  C   UNL     1      46.537  33.084  38.551  0.00  0.00    +0.000 C 
ATOM      7  C   UNL     1      47.824  32.618  39.174  0.00  0.00    +0.000 C 
ATOM      8  C   UNL     1      48.173  33.340  40.434  0.00  0.00    +0.000 C 
ATOM      9  H   UNL     1      46.020  31.456  40.789  0.00  0.00    +0.000 HD
ATOM     10  H   UNL     1      45.133  32.771  41.648  0.00  0.00    +0.000 HD
ATOM     11  H   UNL     1      44.478  32.931  39.323  0.00  0.00    +0.000 HD
ATOM     12  H   UNL     1      45.431  34.311  39.898  0.00  0.00    +0.000 HD
ATOM     13  H   UNL     1      46.219  32.256  37.856  0.00  0.00    +0.000 HD
ATOM     14  H   UNL     1      46.646  33.988  37.921  0.00  0.00    +0.000 HD
ATOM     15  H   UNL     1      48.636  32.756  38.434  0.00  0.00    +0.000 HD
ATOM     16  H   UNL     1      47.682  31.525  39.419  0.00  0.00    +0.000 HD
ATOM     17  H   UNL     1      48.249  34.420  40.186  0.00  0.00    +0.000 HD
ENDROOT
BRANCH   8  20
ATOM     18 CL   UNL     1      49.315  34.974  42.603  0.00  0.00    +0.000 Cl
ATOM     19  C   UNL     1      50.150  33.573  41.912  0.00  0.00    +0.000 A 
ATOM     20  C   UNL     1      49.505  32.871  40.887  0.00  0.00    +0.000 A 
ATOM     21  C   UNL     1      50.218  31.802  40.408  0.00  0.00    +0.000 A 
ATOM     22  H   UNL     1      49.741  31.237  39.608  0.00  0.00    +0.000 HD
ATOM     23  C   UNL     1      51.458  31.458  40.901  0.00  0.00    +0.000 A 
ATOM     24  H   UNL     1      51.995  30.610  40.502  0.00  0.00    +0.000 HD
ATOM     25  C   UNL     1      52.057  32.178  41.913  0.00  0.00    +0.000 A 
ATOM     26  C   UNL     1      51.388  33.266  42.436  0.00  0.00    +0.000 A 
ENDBRANCH   8  20
BRANCH   1  28
ATOM     27  C   UNL     1      46.022  35.725  42.829  0.00  0.00    +0.000 A 
ATOM     28  C   UNL     1      46.392  34.481  43.390  0.00  0.00    +0.000 A 
ATOM     29  C   UNL     1      45.776  34.052  44.546  0.00  0.00    +0.000 A 
ATOM     30  N   UNL     1      44.834  34.839  45.106  0.00  0.00    +0.000 NA
ATOM     31  C   UNL     1      44.468  36.036  44.578  0.00  0.00    +0.000 A 
ATOM     32  N   UNL     1      45.072  36.455  43.448  0.00  0.00    +0.000 NA
ATOM     33  H   UNL     1      46.496  36.069  41.929  0.00  0.00    +0.000 HD
ATOM     34  H   UNL     1      43.714  36.645  45.046  0.00  0.00    +0.000 HD
BRANCH  29  35
ATOM     35  C   UNL     1      46.171  32.778  45.110  0.00  0.00    +0.000 A 
ATOM     36  C   UNL     1      45.798  31.615  44.507  0.00  0.00    +0.000 A 
ATOM     37  C   UNL     1      46.184  30.407  45.057  0.00  0.00    +0.000 A 
ATOM     38  C   UNL     1      46.940  30.323  46.206  0.00  0.00    +0.000 A 
ATOM     39  C   UNL     1      47.296  31.538  46.786  0.00  0.00    +0.000 A 
ATOM     40  N   UNL     1      46.902  32.686  46.220  0.00  0.00    +0.000 NA
ATOM     41  H   UNL     1      45.213  31.506  43.621  0.00  0.00    +0.000 HD
ATOM     42  H   UNL     1      45.919  29.443  44.626  0.00  0.00    +0.000 HD
ATOM     43  H   UNL     1      47.249  29.385  46.649  0.00  0.00    +0.000 HD
ATOM     44  H   UNL     1      47.890  31.585  47.691  0.00  0.00    +0.000 HD
ENDBRANCH  29  35
ENDBRANCH   1  28
TORSDOF 3
