
     RDKit          3D

 36 38  0  0  0  0  0  0  0  0999 V2000
   43.8615   33.5647   40.6477 C   0  0  0  0  0  0  0  0  0  0  0  0
   40.3831   34.8016   41.4736 C   0  0  0  0  0  0  0  0  0  0  0  0
   41.7528   34.8378   41.1056 C   0  0  0  0  0  0  0  0  0  0  0  0
   42.4251   33.6189   41.0261 C   0  0  0  0  0  0  0  0  0  0  0  0
   41.7270   32.4597   41.3068 N   0  0  0  0  0  0  0  0  0  0  0  0
   40.4320   32.4927   41.6492 C   0  0  0  0  0  0  0  0  0  0  0  0
   39.7531   33.6584   41.7348 N   0  0  0  0  0  0  0  0  0  0  0  0
   44.6762   34.0409   41.8362 C   0  0  0  0  0  0  0  0  0  0  0  0
   46.0540   34.3886   41.4385 C   0  0  0  0  0  0  0  0  0  0  0  0
   46.6318   34.0455   40.2424 C   0  0  0  0  0  0  0  0  0  0  0  0
   47.9264   34.3674   39.8587 C   0  0  0  0  0  0  0  0  0  0  0  0
   48.6546   35.0961   40.7954 C   0  0  0  0  0  0  0  0  0  0  0  0
   48.0991   35.4557   42.0076 C   0  0  0  0  0  0  0  0  0  0  0  0
   46.8206   35.1211   42.3515 C   0  0  0  0  0  0  0  0  0  0  0  0
   44.0985   32.4935   40.4046 H   0  0  0  0  0  0  0  0  0  0  0  0
   44.0145   34.2310   39.7902 H   0  0  0  0  0  0  0  0  0  0  0  0
   39.9931   35.8158   41.4946 H   0  0  0  0  0  0  0  0  0  0  0  0
   42.3135   35.7208   40.8840 H   0  0  0  0  0  0  0  0  0  0  0  0
   39.8856   31.5825   41.8692 H   0  0  0  0  0  0  0  0  0  0  0  0
   44.2002   35.0167   42.1465 H   0  0  0  0  0  0  0  0  0  0  0  0
   44.5888   33.3592   42.6823 H   0  0  0  0  0  0  0  0  0  0  0  0
   45.9964   33.4796   39.5722 H   0  0  0  0  0  0  0  0  0  0  0  0
   48.3282   34.0691   38.9013 H   0  0  0  0  0  0  0  0  0  0  0  0
   49.6531   35.3631   40.5387 H   0  0  0  0  0  0  0  0  0  0  0  0
   48.7131   36.0295   42.7120 H   0  0  0  0  0  0  0  0  0  0  0  0
   44.9345   37.3411   41.9443 Cl  0  0  0  0  0  0  0  0  0  0  0  0
   45.3515   36.5625   43.4760 C   0  0  0  0  0  0  0  0  0  0  0  0
   46.2510   35.5102   43.6378 C   0  0  0  0  0  0  0  0  0  0  0  0
   46.4760   35.0057   44.8877 C   0  0  0  0  0  0  0  0  0  0  0  0
   47.1946   34.1910   44.8871 H   0  0  0  0  0  0  0  0  0  0  0  0
   45.8243   35.5269   45.9785 C   0  0  0  0  0  0  0  0  0  0  0  0
   46.0403   35.0903   46.9385 H   0  0  0  0  0  0  0  0  0  0  0  0
   44.9312   36.5678   45.8365 C   0  0  0  0  0  0  0  0  0  0  0  0
   44.6823   37.1022   44.5742 C   0  0  0  0  0  0  0  0  0  0  0  0
   44.4162   36.9823   46.6865 H   0  0  0  0  0  0  0  0  0  0  0  0
   43.9735   37.9188   44.5099 H   0  0  0  0  0  0  0  0  0  0  0  0
  1  4  1  0
  1  8  1  0
  2  7  2  0
  3  2  1  0
  4  3  2  0
  4  5  1  0
  5  6  2  0
  6  7  1  0
  9  8  1  0
  9 14  1  0
 10  9  2  0
 11 10  1  0
 11 12  2  0
 12 13  1  0
 13 14  2  0
  1 15  1  0
  1 16  1  0
  2 17  1  0
  3 18  1  0
  6 19  1  0
  8 20  1  0
  8 21  1  0
 10 22  1  0
 11 23  1  0
 12 24  1  0
 13 25  1  0
 26 27  1  0
 27 28  2  0
 28 29  1  0
 29 30  1  0
 29 31  2  0
 31 32  1  0
 31 33  1  0
 33 34  2  0
 34 27  1  0
 33 35  1  0
 34 36  1  0
 14 28  1  0
M  ISO  8  15   8  16   8  17  14  18  14  19  14  20   8  21   8  22  14
M  ISO  5  23  14  24  14  25  14  30  15  32  16
M  END
>  <DihAtoms>  (1) 
8,13,27,26

>  <DihDeg>  (1) 
89.99882749000288

$$$$
