
     RDKit          3D

 46 49  0  0  0  0  0  0  0  0999 V2000
   46.0224   35.7255   42.8287 C   0  0  0  0  0  0  0  0  0  0  0  0
   46.3922   34.4806   43.3903 C   0  0  0  0  0  0  0  0  0  0  0  0
   45.7757   34.0516   44.5459 C   0  0  0  0  0  0  0  0  0  0  0  0
   44.8337   34.8385   45.1063 N   0  0  0  0  0  0  0  0  0  0  0  0
   44.4684   36.0362   44.5783 C   0  0  0  0  0  0  0  0  0  0  0  0
   45.0722   36.4552   43.4478 N   0  0  0  0  0  0  0  0  0  0  0  0
   46.1709   32.7779   45.1099 C   0  0  0  0  0  0  0  0  0  0  0  0
   45.7980   31.6146   44.5070 C   0  0  0  0  0  0  0  0  0  0  0  0
   46.1836   30.4066   45.0573 C   0  0  0  0  0  0  0  0  0  0  0  0
   46.9398   30.3226   46.2063 C   0  0  0  0  0  0  0  0  0  0  0  0
   47.2964   31.5376   46.7861 C   0  0  0  0  0  0  0  0  0  0  0  0
   46.9019   32.6862   46.2202 N   0  0  0  0  0  0  0  0  0  0  0  0
   47.4119   33.7114   42.7169 C   0  0  0  0  0  0  0  0  0  0  0  0
   48.5089   33.5401   43.3295 O   0  0  0  0  0  0  0  0  0  0  0  0
   47.1272   33.1930   41.4110 N   0  0  0  0  0  0  0  0  0  0  0  0
   45.9308   32.5318   40.8958 C   0  0  0  0  0  0  0  0  0  0  0  0
   45.4794   33.2363   39.6088 C   0  0  0  0  0  0  0  0  0  0  0  0
   46.5373   33.0839   38.5506 C   0  0  0  0  0  0  0  0  0  0  0  0
   47.8241   32.6176   39.1740 C   0  0  0  0  0  0  0  0  0  0  0  0
   48.1733   33.3398   40.4341 C   0  0  2  0  0  0  0  0  0  0  0  0
   46.4958   36.0695   41.9293 H   0  0  0  0  0  0  0  0  0  0  0  0
   43.7141   36.6445   45.0456 H   0  0  0  0  0  0  0  0  0  0  0  0
   45.2127   31.5060   43.6209 H   0  0  0  0  0  0  0  0  0  0  0  0
   45.9194   29.4429   44.6258 H   0  0  0  0  0  0  0  0  0  0  0  0
   47.2493   29.3849   46.6490 H   0  0  0  0  0  0  0  0  0  0  0  0
   47.8898   31.5854   47.6914 H   0  0  0  0  0  0  0  0  0  0  0  0
   46.0203   31.4556   40.7890 H   0  0  0  0  0  0  0  0  0  0  0  0
   45.1328   32.7714   41.6475 H   0  0  0  0  0  0  0  0  0  0  0  0
   44.4778   32.9309   39.3233 H   0  0  0  0  0  0  0  0  0  0  0  0
   45.4312   34.3114   39.8976 H   0  0  0  0  0  0  0  0  0  0  0  0
   46.2195   32.2558   37.8556 H   0  0  0  0  0  0  0  0  0  0  0  0
   46.6456   33.9881   37.9209 H   0  0  0  0  0  0  0  0  0  0  0  0
   48.6364   32.7556   38.4338 H   0  0  0  0  0  0  0  0  0  0  0  0
   47.6820   31.5253   39.4189 H   0  0  0  0  0  0  0  0  0  0  0  0
   48.2490   34.4204   40.1863 H   0  0  0  0  0  0  0  0  0  0  0  0
   48.5536   30.4339   40.1367 Cl  0  0  0  0  0  0  0  0  0  0  0  0
   49.8005   31.5049   40.7971 C   0  0  0  0  0  0  0  0  0  0  0  0
   49.5054   32.8707   40.8867 C   0  0  0  0  0  0  0  0  0  0  0  0
   50.5211   33.6286   41.4074 C   0  0  0  0  0  0  0  0  0  0  0  0
   50.3195   34.6962   41.4906 H   0  0  0  0  0  0  0  0  0  0  0  0
   51.7235   33.0838   41.8046 C   0  0  0  0  0  0  0  0  0  0  0  0
   52.5052   33.7088   42.2116 H   0  0  0  0  0  0  0  0  0  0  0  0
   51.9722   31.7318   41.6986 C   0  0  0  0  0  0  0  0  0  0  0  0
   50.9872   30.9164   41.1815 C   0  0  0  0  0  0  0  0  0  0  0  0
   52.8876   31.2450   41.9900 H   0  0  0  0  0  0  0  0  0  0  0  0
   51.1204   29.8494   41.0727 H   0  0  0  0  0  0  0  0  0  0  0  0
  1  2  2  0
  1  6  1  0
  2  3  1  0
  3  7  1  0
  3  4  2  0
  5  4  1  0
  6  5  2  0
  7 12  2  0
  8  9  2  0
  8  7  1  0
  9 10  1  0
 10 11  2  0
 12 11  1  0
 13 14  2  0
 13  2  1  0
 15 13  1  0
 16 15  1  0
 17 16  1  0
 18 19  1  0
 18 17  1  0
 19 20  1  0
 20 15  1  0
  1 21  1  0
  5 22  1  0
  8 23  1  0
  9 24  1  0
 10 25  1  0
 11 26  1  0
 16 27  1  0
 16 28  1  0
 17 29  1  0
 17 30  1  0
 18 31  1  0
 18 32  1  0
 19 33  1  0
 19 34  1  0
 20 35  1  6
 36 37  1  0
 37 38  2  0
 38 39  1  0
 39 40  1  0
 39 41  2  0
 41 42  1  0
 41 43  1  0
 43 44  2  0
 44 37  1  0
 43 45  1  0
 44 46  1  0
 20 38  1  0
M  ISO  8  21  14  22  14  23  14  24  14  25  14  26  14  27  13  28  13
M  ISO  8  29  13  30  13  31  13  32  13  33  13  34  13  35  13  40  15
M  ISO  1  42  16
M  END
>  <DihAtoms>  (1) 
18,19,37,36

>  <DihDeg>  (1) 
93.7490994279423

$$$$
