REMARK  Name = 
REMARK  4 active torsions:
REMARK  status: ('A' for Active; 'I' for Inactive)
REMARK    1  A    between atoms: C_1  and  O_11
REMARK    2  A    between atoms: C_2  and  C_7
REMARK    3  A    between atoms: C_5  and  C_19
REMARK    4  A    between atoms: O_11  and  C_12
REMARK                            x       y       z     vdW  Elec       q    Type
REMARK                         _______ _______ _______ _____ _____    ______ ____
ROOT
ATOM      1  C   UNL     1      47.092  34.386  43.093  0.00  0.00    +0.000 A 
ATOM      2  C   UNL     1      45.775  34.596  43.505  0.00  0.00    +0.000 A 
ATOM      3  C   UNL     1      45.258  33.760  44.505  0.00  0.00    +0.000 A 
ATOM      4  N   UNL     1      46.051  32.801  45.017  0.00  0.00    +0.000 NA
ATOM      5  C   UNL     1      47.328  32.628  44.590  0.00  0.00    +0.000 A 
ATOM      6  N   UNL     1      47.856  33.408  43.636  0.00  0.00    +0.000 NA
ATOM      7  H   UNL     1      44.254  33.911  44.827  0.00  0.00    +0.000 HD
ENDROOT
BRANCH   5  10
ATOM      8 CL   UNL     1      46.675  29.855  43.669  0.00  0.00    +0.000 Cl
ATOM      9  C   UNL     1      47.929  30.248  44.792  0.00  0.00    +0.000 A 
ATOM     10  C   UNL     1      48.165  31.575  45.167  0.00  0.00    +0.000 A 
ATOM     11  C   UNL     1      49.177  31.847  46.068  0.00  0.00    +0.000 A 
ATOM     12  H   UNL     1      49.379  32.865  46.374  0.00  0.00    +0.000 HD
ATOM     13  C   UNL     1      49.922  30.799  46.568  0.00  0.00    +0.000 A 
ATOM     14  H   UNL     1      50.727  30.936  47.274  0.00  0.00    +0.000 HD
ATOM     15  C   UNL     1      49.720  29.480  46.222  0.00  0.00    +0.000 A 
ATOM     16  C   UNL     1      48.694  29.208  45.310  0.00  0.00    +0.000 A 
ENDBRANCH   5  10
BRANCH   2  17
ATOM     17  C   UNL     1      44.984  35.686  42.872  0.00  0.00    +0.000 C 
ATOM     18  F   UNL     1      45.618  36.906  43.067  0.00  0.00    +0.000 F 
ATOM     19  F   UNL     1      44.958  35.462  41.509  0.00  0.00    +0.000 F 
ATOM     20  F   UNL     1      43.718  35.808  43.343  0.00  0.00    +0.000 F 
ENDBRANCH   2  17
BRANCH   1  21
ATOM     21  O   UNL     1      47.579  35.196  42.131  0.00  0.00    +0.000 OA
BRANCH  21  22
ATOM     22  C   UNL     1      48.872  35.189  41.567  0.00  0.00    +0.000 C 
ATOM     23  F   UNL     1      49.761  35.488  42.607  0.00  0.00    +0.000 F 
ATOM     24  F   UNL     1      49.127  33.968  41.009  0.00  0.00    +0.000 F 
ATOM     25  F   UNL     1      49.010  36.235  40.679  0.00  0.00    +0.000 F 
ENDBRANCH  21  22
ENDBRANCH   1  21
TORSDOF 4
