
 OpenBabel03252502403D

 46 49  0  0  1  0  0  0  0  0999 V2000
   36.6890   28.8340   39.2980 C   0  0  1  0  0  0  0  0  0  0  0  0
   36.9670   28.1670   38.4270 H   0  0  0  0  0  0  0  0  0  0  0  0
   37.2800   30.1110   39.0060 N   0  0  0  0  0  0  0  0  0  0  0  0
   37.4380   30.3540   37.6210 C   0  0  0  0  0  0  0  0  0  0  0  0
   38.4160   31.5350   37.5210 C   0  0  0  0  0  0  0  0  0  0  0  0
   37.6190   32.6540   37.9560 N   0  0  0  0  0  0  0  0  0  0  0  0
   37.1730   32.5290   39.2840 C   0  0  0  0  0  0  0  0  0  0  0  0
   36.6340   31.1620   39.6730 C   0  0  0  0  0  0  0  0  0  0  0  0
   37.8590   29.5060   37.0630 H   0  0  0  0  0  0  0  0  0  0  0  0
   36.4830   30.6840   37.1980 H   0  0  0  0  0  0  0  0  0  0  0  0
   39.2520   31.3540   38.2300 H   0  0  0  0  0  0  0  0  0  0  0  0
   38.7440   31.7260   36.4950 H   0  0  0  0  0  0  0  0  0  0  0  0
   38.1880   33.4980   37.8610 H   0  0  0  0  0  0  0  0  0  0  0  0
   36.4230   33.3390   39.4860 H   0  0  0  0  0  0  0  0  0  0  0  0
   38.0240   32.8010   39.9760 H   0  0  0  0  0  0  0  0  0  0  0  0
   36.5620   31.2250   40.7330 H   0  0  0  0  0  0  0  0  0  0  0  0
   35.6300   31.2430   39.1430 H   0  0  0  0  0  0  0  0  0  0  0  0
   36.3310   28.1090   41.6580 C   0  0  0  0  0  0  0  0  0  0  0  0
   37.0990   28.1970   40.5100 C   0  0  0  0  0  0  0  0  0  0  0  0
   38.3740   27.6010   40.5790 C   0  0  0  0  0  0  0  0  0  0  0  0
   38.7780   26.9870   41.7350 N   0  0  0  0  0  0  0  0  0  0  0  0
   37.9770   26.9380   42.8190 C   0  0  0  0  0  0  0  0  0  0  0  0
   36.7430   27.5040   42.7800 N   0  0  0  0  0  0  0  0  0  0  0  0
   35.3500   28.5470   41.6580 H   0  0  0  0  0  0  0  0  0  0  0  0
   39.0810   27.5900   39.7660 H   0  0  0  0  0  0  0  0  0  0  0  0
   38.4290   26.4170   43.6740 H   0  0  0  0  0  0  0  0  0  0  0  0
   35.1640   28.9900   39.3320 C   0  0  0  0  0  0  0  0  0  0  0  0
   34.6890   28.7980   40.2920 H   0  0  0  0  0  0  0  0  0  0  0  0
   35.1330   30.1280   39.3290 H   0  0  0  0  0  0  0  0  0  0  0  0
   34.4420   28.4110   38.2490 C   0  0  0  0  0  0  0  0  0  0  0  0
   34.3730   27.2240   37.6030 C   0  0  0  0  0  0  0  0  0  0  0  0
   33.5790   26.8750   36.5290 C   0  0  0  0  0  0  0  0  0  0  0  0
   32.7840   27.8360   36.0800 N   0  0  0  0  0  0  0  0  0  0  0  0
   32.7790   29.0230   36.6430 C   0  0  0  0  0  0  0  0  0  0  0  0
   33.5750   29.2760   37.6730 N   0  0  0  0  0  0  0  0  0  0  0  0
   35.0780   26.4920   38.0460 H   0  0  0  0  0  0  0  0  0  0  0  0
   33.6880   25.8520   36.1670 H   0  0  0  0  0  0  0  0  0  0  0  0
   30.6360   30.0950   38.5260 Cl  0  0  0  0  0  0  0  0  0  0  0  0
   30.8870   30.5940   36.8730 C   0  0  0  0  0  0  0  0  0  0  0  0
   31.8670   30.0660   36.1010 C   0  0  0  0  0  0  0  0  0  0  0  0
   32.0530   30.4720   34.7940 C   0  0  0  0  0  0  0  0  0  0  0  0
   32.8630   30.0060   34.2260 H   0  0  0  0  0  0  0  0  0  0  0  0
   31.2530   31.4400   34.1980 C   0  0  0  0  0  0  0  0  0  0  0  0
   31.4350   31.7280   33.1720 H   0  0  0  0  0  0  0  0  0  0  0  0
   30.2610   31.9660   35.0000 C   0  0  0  0  0  3  0  0  0  0  0  0
   30.0580   31.5730   36.3080 C   0  0  0  0  0  3  0  0  0  0  0  0
  1  2  1  6  0  0  0
  1 27  1  0  0  0  0
  1 19  1  0  0  0  0
  3  1  1  0  0  0  0
  3  8  1  0  0  0  0
  4  3  1  0  0  0  0
  5  4  1  0  0  0  0
  5  6  1  0  0  0  0
  5 11  1  0  0  0  0
  6  7  1  0  0  0  0
  7 14  1  0  0  0  0
  7  8  1  0  0  0  0
  7 15  1  0  0  0  0
  8 16  1  0  0  0  0
  9  4  1  0  0  0  0
 10  4  1  0  0  0  0
 12  5  1  0  0  0  0
 13  6  1  0  0  0  0
 17  8  1  0  0  0  0
 18 24  1  0  0  0  0
 18 23  1  0  0  0  0
 19 20  1  0  0  0  0
 19 18  2  0  0  0  0
 20 21  2  0  0  0  0
 21 22  1  0  0  0  0
 22 26  1  0  0  0  0
 23 22  2  0  0  0  0
 25 20  1  0  0  0  0
 27 28  1  0  0  0  0
 29 27  1  0  0  0  0
 30 27  1  0  0  0  0
 31 36  1  0  0  0  0
 31 30  2  0  0  0  0
 32 31  1  0  0  0  0
 33 32  2  0  0  0  0
 33 34  1  0  0  0  0
 34 35  2  0  0  0  0
 35 30  1  0  0  0  0
 37 32  1  0  0  0  0
 39 38  1  0  0  0  0
 40 34  1  0  0  0  0
 40 39  2  0  0  0  0
 41 40  1  0  0  0  0
 42 41  1  0  0  0  0
 43 41  2  0  0  0  0
 43 45  1  0  0  0  0
 44 43  1  0  0  0  0
 45 46  2  0  0  0  0
 46 39  1  0  0  0  0
M  END
>  <minimizedAffinity>
-5.92552423

$$$$

 OpenBabel03252502403D

 46 49  0  0  1  0  0  0  0  0999 V2000
   40.7850   31.2390   39.8330 C   0  0  1  0  0  0  0  0  0  0  0  0
   40.3640   30.1900   39.7870 H   0  0  0  0  0  0  0  0  0  0  0  0
   39.6530   32.1120   39.6790 N   0  0  0  0  0  0  0  0  0  0  0  0
   38.4110   31.4610   39.8690 C   0  0  0  0  0  0  0  0  0  0  0  0
   37.3560   32.4150   39.2870 C   0  0  0  0  0  0  0  0  0  0  0  0
   37.3130   33.4810   40.2560 N   0  0  0  0  0  0  0  0  0  0  0  0
   38.5370   34.1610   40.3810 C   0  0  0  0  0  0  0  0  0  0  0  0
   39.7770   33.2830   40.4420 C   0  0  0  0  0  0  0  0  0  0  0  0
   38.3280   30.4950   39.3520 H   0  0  0  0  0  0  0  0  0  0  0  0
   38.2100   31.3660   40.9410 H   0  0  0  0  0  0  0  0  0  0  0  0
   37.7290   32.7920   38.3110 H   0  0  0  0  0  0  0  0  0  0  0  0
   36.3620   31.9620   39.2310 H   0  0  0  0  0  0  0  0  0  0  0  0
   36.5830   34.1350   39.9670 H   0  0  0  0  0  0  0  0  0  0  0  0
   38.4760   34.8460   41.2670 H   0  0  0  0  0  0  0  0  0  0  0  0
   38.6380   34.8820   39.5170 H   0  0  0  0  0  0  0  0  0  0  0  0
   40.5710   33.9800   40.3180 H   0  0  0  0  0  0  0  0  0  0  0  0
   39.6500   32.9230   41.5140 H   0  0  0  0  0  0  0  0  0  0  0  0
   43.0750   31.9020   39.0980 C   0  0  0  0  0  0  0  0  0  0  0  0
   41.8250   31.3570   38.8590 C   0  0  0  0  0  0  0  0  0  0  0  0
   41.5990   30.8930   37.5490 C   0  0  0  0  0  0  0  0  0  0  0  0
   42.5890   30.9990   36.6080 N   0  0  0  0  0  0  0  0  0  0  0  0
   43.7860   31.5430   36.9080 C   0  0  0  0  0  0  0  0  0  0  0  0
   44.0310   31.9980   38.1640 N   0  0  0  0  0  0  0  0  0  0  0  0
   43.2990   32.2710   40.0810 H   0  0  0  0  0  0  0  0  0  0  0  0
   40.6770   30.4450   37.2170 H   0  0  0  0  0  0  0  0  0  0  0  0
   44.4820   31.5650   36.0590 H   0  0  0  0  0  0  0  0  0  0  0  0
   41.4000   31.4640   41.2190 C   0  0  0  0  0  0  0  0  0  0  0  0
   42.2710   32.1140   41.2520 H   0  0  0  0  0  0  0  0  0  0  0  0
   40.6110   32.1830   41.6140 H   0  0  0  0  0  0  0  0  0  0  0  0
   41.5590   30.3090   42.0380 C   0  0  0  0  0  0  0  0  0  0  0  0
   42.5350   29.7140   42.7630 C   0  0  0  0  0  0  0  0  0  0  0  0
   42.4680   28.5460   43.4970 C   0  0  0  0  0  0  0  0  0  0  0  0
   41.2910   27.9380   43.4830 N   0  0  0  0  0  0  0  0  0  0  0  0
   40.2820   28.4390   42.8070 C   0  0  0  0  0  0  0  0  0  0  0  0
   40.4300   29.5680   42.1270 N   0  0  0  0  0  0  0  0  0  0  0  0
   43.4780   30.2920   42.7050 H   0  0  0  0  0  0  0  0  0  0  0  0
   43.3850   28.2510   44.0080 H   0  0  0  0  0  0  0  0  0  0  0  0
   40.0880   25.9040   41.1260 Cl  0  0  0  0  0  0  0  0  0  0  0  0
   38.8130   26.5820   42.1060 C   0  0  0  0  0  0  0  0  0  0  0  0
   38.9820   27.7160   42.8260 C   0  0  0  0  0  0  0  0  0  0  0  0
   37.9620   28.2390   43.5970 C   0  0  0  0  0  0  0  0  0  0  0  0
   38.1650   29.1580   44.1540 H   0  0  0  0  0  0  0  0  0  0  0  0
   36.7120   27.6370   43.6800 C   0  0  0  0  0  0  0  0  0  0  0  0
   35.9430   28.0810   44.2960 H   0  0  0  0  0  0  0  0  0  0  0  0
   36.5600   26.4830   42.9400 C   0  0  0  0  0  3  0  0  0  0  0  0
   37.5660   25.9440   42.1620 C   0  0  0  0  0  3  0  0  0  0  0  0
  1  2  1  6  0  0  0
  1 27  1  0  0  0  0
  3  1  1  0  0  0  0
  3  4  1  0  0  0  0
  3  8  1  0  0  0  0
  4 10  1  0  0  0  0
  5  4  1  0  0  0  0
  5  6  1  0  0  0  0
  6  7  1  0  0  0  0
  7  8  1  0  0  0  0
  7 14  1  0  0  0  0
  8 17  1  0  0  0  0
  9  4  1  0  0  0  0
 11  5  1  0  0  0  0
 12  5  1  0  0  0  0
 13  6  1  0  0  0  0
 15  7  1  0  0  0  0
 16  8  1  0  0  0  0
 18 24  1  0  0  0  0
 19 18  1  0  0  0  0
 19  1  1  0  0  0  0
 20 19  2  0  0  0  0
 21 22  2  0  0  0  0
 21 20  1  0  0  0  0
 22 23  1  0  0  0  0
 23 18  2  0  0  0  0
 25 20  1  0  0  0  0
 26 22  1  0  0  0  0
 27 28  1  0  0  0  0
 27 29  1  0  0  0  0
 27 30  1  0  0  0  0
 30 35  2  0  0  0  0
 30 31  1  0  0  0  0
 31 32  2  0  0  0  0
 32 37  1  0  0  0  0
 33 32  1  0  0  0  0
 34 40  1  0  0  0  0
 34 33  2  0  0  0  0
 35 34  1  0  0  0  0
 36 31  1  0  0  0  0
 38 39  1  0  0  0  0
 39 46  2  0  0  0  0
 39 40  1  0  0  0  0
 40 41  2  0  0  0  0
 41 43  1  0  0  0  0
 41 42  1  0  0  0  0
 43 44  1  0  0  0  0
 45 43  2  0  0  0  0
 46 45  1  0  0  0  0
M  END
>  <minimizedAffinity>
-5.86494446

$$$$

 OpenBabel03252502403D

 46 49  0  0  1  0  0  0  0  0999 V2000
   38.7000   30.8520   40.5900 C   0  0  1  0  0  0  0  0  0  0  0  0
   37.8920   31.2860   41.2510 H   0  0  0  0  0  0  0  0  0  0  0  0
   39.6880   31.8880   40.4620 N   0  0  0  0  0  0  0  0  0  0  0  0
   39.1840   33.1810   40.7370 C   0  0  0  0  0  0  0  0  0  0  0  0
   40.2310   34.1560   40.1750 C   0  0  0  0  0  0  0  0  0  0  0  0
   41.3240   34.0300   41.1050 N   0  0  0  0  0  0  0  0  0  0  0  0
   41.8680   32.7340   41.1440 C   0  0  0  0  0  0  0  0  0  0  0  0
   40.8600   31.5960   41.1750 C   0  0  0  0  0  0  0  0  0  0  0  0
   38.2180   33.3970   40.2600 H   0  0  0  0  0  0  0  0  0  0  0  0
   39.1450   33.3340   41.8200 H   0  0  0  0  0  0  0  0  0  0  0  0
   40.5340   33.7970   39.1680 H   0  0  0  0  0  0  0  0  0  0  0  0
   39.8890   35.1950   40.1860 H   0  0  0  0  0  0  0  0  0  0  0  0
   42.0460   34.6990   40.8310 H   0  0  0  0  0  0  0  0  0  0  0  0
   42.5820   32.6730   42.0070 H   0  0  0  0  0  0  0  0  0  0  0  0
   42.5470   32.6020   40.2510 H   0  0  0  0  0  0  0  0  0  0  0  0
   41.4610   30.7380   40.9860 H   0  0  0  0  0  0  0  0  0  0  0  0
   40.5490   31.7030   42.2640 H   0  0  0  0  0  0  0  0  0  0  0  0
   38.7860   29.8170   38.3210 C   0  0  0  0  0  0  0  0  0  0  0  0
   38.0980   30.3840   39.3800 C   0  0  0  0  0  0  0  0  0  0  0  0
   36.7030   30.4890   39.2180 C   0  0  0  0  0  0  0  0  0  0  0  0
   36.1150   30.0430   38.0650 N   0  0  0  0  0  0  0  0  0  0  0  0
   36.8460   29.5000   37.0690 C   0  0  0  0  0  0  0  0  0  0  0  0
   38.1930   29.3870   37.1990 N   0  0  0  0  0  0  0  0  0  0  0  0
   39.8520   29.7130   38.3940 H   0  0  0  0  0  0  0  0  0  0  0  0
   36.0380   30.9060   39.9570 H   0  0  0  0  0  0  0  0  0  0  0  0
   36.2450   29.1880   36.2050 H   0  0  0  0  0  0  0  0  0  0  0  0
   39.3300   29.6510   41.3050 C   0  0  0  0  0  0  0  0  0  0  0  0
   40.0620   29.0870   40.7310 H   0  0  0  0  0  0  0  0  0  0  0  0
   40.0320   30.2370   41.9840 H   0  0  0  0  0  0  0  0  0  0  0  0
   38.4410   28.8020   42.0250 C   0  0  0  0  0  0  0  0  0  0  0  0
   37.6750   28.8580   43.1390 C   0  0  0  0  0  0  0  0  0  0  0  0
   36.8700   27.8730   43.6780 C   0  0  0  0  0  0  0  0  0  0  0  0
   36.8530   26.7290   43.0090 N   0  0  0  0  0  0  0  0  0  0  0  0
   37.5650   26.5790   41.9140 C   0  0  0  0  0  0  0  0  0  0  0  0
   38.3130   27.5770   41.4640 N   0  0  0  0  0  0  0  0  0  0  0  0
   37.7620   29.8470   43.6300 H   0  0  0  0  0  0  0  0  0  0  0  0
   36.3360   28.1390   44.5910 H   0  0  0  0  0  0  0  0  0  0  0  0
   39.4960   24.4140   42.8480 Cl  0  0  0  0  0  0  0  0  0  0  0  0
   38.3350   24.2600   41.5540 C   0  0  0  0  0  0  0  0  0  0  0  0
   37.5100   25.2750   41.2010 C   0  0  0  0  0  0  0  0  0  0  0  0
   36.5950   25.1370   40.1750 C   0  0  0  0  0  0  0  0  0  0  0  0
   35.9600   25.9960   39.9410 H   0  0  0  0  0  0  0  0  0  0  0  0
   36.4680   23.9580   39.4490 C   0  0  0  0  0  0  0  0  0  0  0  0
   35.7380   23.8950   38.6550 H   0  0  0  0  0  0  0  0  0  0  0  0
   37.3160   22.9370   39.8240 C   0  0  0  0  0  3  0  0  0  0  0  0
   38.2370   23.0550   40.8460 C   0  0  0  0  0  3  0  0  0  0  0  0
  1  2  1  1  0  0  0
  1 27  1  0  0  0  0
  3  1  1  0  0  0  0
  3  4  1  0  0  0  0
  3  8  1  0  0  0  0
  4 10  1  0  0  0  0
  5 12  1  0  0  0  0
  5  4  1  0  0  0  0
  5  6  1  0  0  0  0
  6  7  1  0  0  0  0
  7  8  1  0  0  0  0
  7 14  1  0  0  0  0
  8 17  1  0  0  0  0
  9  4  1  0  0  0  0
 11  5  1  0  0  0  0
 13  6  1  0  0  0  0
 15  7  1  0  0  0  0
 16  8  1  0  0  0  0
 18 24  1  0  0  0  0
 18 19  1  0  0  0  0
 19  1  1  0  0  0  0
 20 19  2  0  0  0  0
 20 25  1  0  0  0  0
 21 20  1  0  0  0  0
 22 23  1  0  0  0  0
 22 21  2  0  0  0  0
 23 18  2  0  0  0  0
 26 22  1  0  0  0  0
 27 29  1  0  0  0  0
 27 30  1  0  0  0  0
 28 27  1  0  0  0  0
 30 31  1  0  0  0  0
 31 36  1  0  0  0  0
 31 32  2  0  0  0  0
 32 37  1  0  0  0  0
 33 32  1  0  0  0  0
 34 33  2  0  0  0  0
 35 34  1  0  0  0  0
 35 30  2  0  0  0  0
 39 38  1  0  0  0  0
 40 39  1  0  0  0  0
 40 34  1  0  0  0  0
 41 40  2  0  0  0  0
 42 41  1  0  0  0  0
 43 45  2  0  0  0  0
 43 41  1  0  0  0  0
 44 43  1  0  0  0  0
 45 46  1  0  0  0  0
 46 39  2  0  0  0  0
M  END
>  <minimizedAffinity>
-5.8559413

$$$$

 OpenBabel03252502403D

 46 49  0  0  1  0  0  0  0  0999 V2000
   39.4020   29.8300   39.8700 C   0  0  1  0  0  0  0  0  0  0  0  0
   38.5750   29.1390   39.5270 H   0  0  0  0  0  0  0  0  0  0  0  0
   38.8690   31.1590   39.7400 N   0  0  0  0  0  0  0  0  0  0  0  0
   37.4560   31.1930   39.6730 C   0  0  0  0  0  0  0  0  0  0  0  0
   37.1060   32.5940   39.1450 C   0  0  0  0  0  0  0  0  0  0  0  0
   37.3960   33.4460   40.2700 N   0  0  0  0  0  0  0  0  0  0  0  0
   38.7500   33.4160   40.6480 C   0  0  0  0  0  0  0  0  0  0  0  0
   39.3910   32.0380   40.7000 C   0  0  0  0  0  0  0  0  0  0  0  0
   37.0220   30.4470   38.9930 H   0  0  0  0  0  0  0  0  0  0  0  0
   37.0420   31.1110   40.6820 H   0  0  0  0  0  0  0  0  0  0  0  0
   37.7840   32.8250   38.2960 H   0  0  0  0  0  0  0  0  0  0  0  0
   36.0440   32.6990   38.9000 H   0  0  0  0  0  0  0  0  0  0  0  0
   37.1300   34.3990   40.0160 H   0  0  0  0  0  0  0  0  0  0  0  0
   38.8600   33.9570   41.6250 H   0  0  0  0  0  0  0  0  0  0  0  0
   39.3370   34.0690   39.9370 H   0  0  0  0  0  0  0  0  0  0  0  0
   40.4280   32.2590   40.7880 H   0  0  0  0  0  0  0  0  0  0  0  0
   38.9150   31.6900   41.6730 H   0  0  0  0  0  0  0  0  0  0  0  0
   41.6950   28.8770   39.6250 C   0  0  0  0  0  0  0  0  0  0  0  0
   40.5850   29.5350   39.1230 C   0  0  0  0  0  0  0  0  0  0  0  0
   40.6630   29.9260   37.7730 C   0  0  0  0  0  0  0  0  0  0  0  0
   41.7910   29.6480   37.0460 N   0  0  0  0  0  0  0  0  0  0  0  0
   42.8390   29.0030   37.5990 C   0  0  0  0  0  0  0  0  0  0  0  0
   42.7900   28.6140   38.8990 N   0  0  0  0  0  0  0  0  0  0  0  0
   41.6870   28.5570   40.6500 H   0  0  0  0  0  0  0  0  0  0  0  0
   39.8780   30.4440   37.2470 H   0  0  0  0  0  0  0  0  0  0  0  0
   43.6730   28.8480   36.9020 H   0  0  0  0  0  0  0  0  0  0  0  0
   39.6910   29.5550   41.3510 C   0  0  0  0  0  0  0  0  0  0  0  0
   40.7070   29.2460   41.5870 H   0  0  0  0  0  0  0  0  0  0  0  0
   39.7370   30.6400   41.6940 H   0  0  0  0  0  0  0  0  0  0  0  0
   38.7180   28.7900   42.0560 C   0  0  0  0  0  0  0  0  0  0  0  0
   37.9290   28.9220   43.1470 C   0  0  0  0  0  0  0  0  0  0  0  0
   37.0350   28.0120   43.6760 C   0  0  0  0  0  0  0  0  0  0  0  0
   36.9460   26.8630   43.0210 N   0  0  0  0  0  0  0  0  0  0  0  0
   37.6730   26.6420   41.9490 C   0  0  0  0  0  0  0  0  0  0  0  0
   38.5090   27.5710   41.5060 N   0  0  0  0  0  0  0  0  0  0  0  0
   38.0810   29.9090   43.6280 H   0  0  0  0  0  0  0  0  0  0  0  0
   36.5000   28.3330   44.5700 H   0  0  0  0  0  0  0  0  0  0  0  0
   39.4590   24.3670   42.9080 Cl  0  0  0  0  0  0  0  0  0  0  0  0
   38.2910   24.2740   41.6160 C   0  0  0  0  0  0  0  0  0  0  0  0
   37.5330   25.3350   41.2500 C   0  0  0  0  0  0  0  0  0  0  0  0
   36.6120   25.2460   40.2250 C   0  0  0  0  0  0  0  0  0  0  0  0
   36.0330   26.1400   39.9800 H   0  0  0  0  0  0  0  0  0  0  0  0
   36.4090   24.0690   39.5130 C   0  0  0  0  0  0  0  0  0  0  0  0
   35.6760   24.0440   38.7180 H   0  0  0  0  0  0  0  0  0  0  0  0
   37.1890   22.9990   39.9000 C   0  0  0  0  0  3  0  0  0  0  0  0
   38.1160   23.0690   40.9220 C   0  0  0  0  0  3  0  0  0  0  0  0
  1  2  1  6  0  0  0
  1 27  1  0  0  0  0
  3  1  1  0  0  0  0
  3  8  1  0  0  0  0
  4  3  1  0  0  0  0
  4 10  1  0  0  0  0
  5  4  1  0  0  0  0
  5  6  1  0  0  0  0
  6  7  1  0  0  0  0
  7  8  1  0  0  0  0
  7 14  1  0  0  0  0
  8 16  1  0  0  0  0
  8 17  1  0  0  0  0
  9  4  1  0  0  0  0
 11  5  1  0  0  0  0
 12  5  1  0  0  0  0
 13  6  1  0  0  0  0
 15  7  1  0  0  0  0
 18 24  1  0  0  0  0
 19 18  1  0  0  0  0
 19  1  1  0  0  0  0
 20 19  2  0  0  0  0
 21 22  2  0  0  0  0
 21 20  1  0  0  0  0
 22 23  1  0  0  0  0
 23 18  2  0  0  0  0
 25 20  1  0  0  0  0
 26 22  1  0  0  0  0
 27 28  1  0  0  0  0
 27 29  1  0  0  0  0
 27 30  1  0  0  0  0
 30 31  1  0  0  0  0
 31 36  1  0  0  0  0
 31 32  2  0  0  0  0
 32 37  1  0  0  0  0
 33 32  1  0  0  0  0
 34 33  2  0  0  0  0
 35 34  1  0  0  0  0
 35 30  2  0  0  0  0
 39 38  1  0  0  0  0
 40 39  1  0  0  0  0
 40 34  1  0  0  0  0
 41 40  2  0  0  0  0
 42 41  1  0  0  0  0
 43 45  2  0  0  0  0
 43 41  1  0  0  0  0
 44 43  1  0  0  0  0
 45 46  1  0  0  0  0
 46 39  2  0  0  0  0
M  END
>  <minimizedAffinity>
-5.78607941

$$$$

 OpenBabel03252502403D

 46 49  0  0  1  0  0  0  0  0999 V2000
   37.2950   30.1990   39.5900 C   0  0  1  0  0  0  0  0  0  0  0  0
   38.1840   29.5030   39.5280 H   0  0  0  0  0  0  0  0  0  0  0  0
   36.5940   30.0390   38.3450 N   0  0  0  0  0  0  0  0  0  0  0  0
   37.4040   29.5190   37.3080 C   0  0  0  0  0  0  0  0  0  0  0  0
   36.6300   29.7930   36.0090 C   0  0  0  0  0  0  0  0  0  0  0  0
   35.5430   28.8490   36.0740 N   0  0  0  0  0  0  0  0  0  0  0  0
   34.6950   29.0610   37.1750 C   0  0  0  0  0  0  0  0  0  0  0  0
   35.3890   29.3390   38.4990 C   0  0  0  0  0  0  0  0  0  0  0  0
   38.3920   29.9940   37.2300 H   0  0  0  0  0  0  0  0  0  0  0  0
   37.4840   28.4330   37.4180 H   0  0  0  0  0  0  0  0  0  0  0  0
   36.2440   30.8340   36.0470 H   0  0  0  0  0  0  0  0  0  0  0  0
   37.2200   29.5760   35.1130 H   0  0  0  0  0  0  0  0  0  0  0  0
   35.0090   28.9280   35.2060 H   0  0  0  0  0  0  0  0  0  0  0  0
   33.9900   28.1920   37.2550 H   0  0  0  0  0  0  0  0  0  0  0  0
   34.0010   29.9210   36.9340 H   0  0  0  0  0  0  0  0  0  0  0  0
   34.5930   29.6750   39.1210 H   0  0  0  0  0  0  0  0  0  0  0  0
   35.7200   28.2730   38.7190 H   0  0  0  0  0  0  0  0  0  0  0  0
   38.8660   31.7950   40.6900 C   0  0  0  0  0  0  0  0  0  0  0  0
   37.7650   31.5140   39.9000 C   0  0  0  0  0  0  0  0  0  0  0  0
   37.0830   32.6300   39.3790 C   0  0  0  0  0  0  0  0  0  0  0  0
   37.5250   33.8940   39.6670 N   0  0  0  0  0  0  0  0  0  0  0  0
   38.6070   34.0980   40.4470 C   0  0  0  0  0  0  0  0  0  0  0  0
   39.2830   33.0390   40.9620 N   0  0  0  0  0  0  0  0  0  0  0  0
   39.4220   30.9790   41.1130 H   0  0  0  0  0  0  0  0  0  0  0  0
   36.2120   32.5670   38.7480 H   0  0  0  0  0  0  0  0  0  0  0  0
   38.8460   35.1600   40.5950 H   0  0  0  0  0  0  0  0  0  0  0  0
   36.3850   29.7350   40.7340 C   0  0  0  0  0  0  0  0  0  0  0  0
   35.8120   30.5150   41.2310 H   0  0  0  0  0  0  0  0  0  0  0  0
   35.5650   29.2770   40.0910 H   0  0  0  0  0  0  0  0  0  0  0  0
   36.9490   28.8100   41.6590 C   0  0  0  0  0  0  0  0  0  0  0  0
   37.3610   28.7970   42.9480 C   0  0  0  0  0  0  0  0  0  0  0  0
   37.9080   27.7510   43.6640 C   0  0  0  0  0  0  0  0  0  0  0  0
   38.0440   26.6170   42.9920 N   0  0  0  0  0  0  0  0  0  0  0  0
   37.6720   26.5320   41.7340 C   0  0  0  0  0  0  0  0  0  0  0  0
   37.1540   27.5860   41.1190 N   0  0  0  0  0  0  0  0  0  0  0  0
   37.2140   29.7890   43.4190 H   0  0  0  0  0  0  0  0  0  0  0  0
   38.1690   27.9670   44.7000 H   0  0  0  0  0  0  0  0  0  0  0  0
   40.4190   25.9680   40.5390 Cl  0  0  0  0  0  0  0  0  0  0  0  0
   39.0350   24.9080   40.4670 C   0  0  0  0  0  0  0  0  0  0  0  0
   37.8450   25.2350   41.0260 C   0  0  0  0  0  0  0  0  0  0  0  0
   36.7590   24.3840   40.9600 C   0  0  0  0  0  0  0  0  0  0  0  0
   35.8280   24.7090   41.4330 H   0  0  0  0  0  0  0  0  0  0  0  0
   36.8210   23.1510   40.3210 C   0  0  0  0  0  0  0  0  0  0  0  0
   35.9460   22.5170   40.2950 H   0  0  0  0  0  0  0  0  0  0  0  0
   38.0410   22.8360   39.7580 C   0  0  0  0  0  3  0  0  0  0  0  0
   39.1380   23.6730   39.8130 C   0  0  0  0  0  3  0  0  0  0  0  0
  1  2  1  6  0  0  0
  1 19  1  0  0  0  0
  1 27  1  0  0  0  0
  3  8  1  0  0  0  0
  3  1  1  0  0  0  0
  4 10  1  0  0  0  0
  4  3  1  0  0  0  0
  5 11  1  0  0  0  0
  5  6  1  0  0  0  0
  5  4  1  0  0  0  0
  6  7  1  0  0  0  0
  7 14  1  0  0  0  0
  7  8  1  0  0  0  0
  8 17  1  0  0  0  0
  8 16  1  0  0  0  0
  9  4  1  0  0  0  0
 12  5  1  0  0  0  0
 13  6  1  0  0  0  0
 15  7  1  0  0  0  0
 18 23  1  0  0  0  0
 18 24  1  0  0  0  0
 19 18  2  0  0  0  0
 20 21  2  0  0  0  0
 20 19  1  0  0  0  0
 21 22  1  0  0  0  0
 22 26  1  0  0  0  0
 22 23  2  0  0  0  0
 25 20  1  0  0  0  0
 27 28  1  0  0  0  0
 27 30  1  0  0  0  0
 29 27  1  0  0  0  0
 30 31  1  0  0  0  0
 31 36  1  0  0  0  0
 31 32  2  0  0  0  0
 32 37  1  0  0  0  0
 33 32  1  0  0  0  0
 34 33  2  0  0  0  0
 35 30  2  0  0  0  0
 35 34  1  0  0  0  0
 39 38  1  0  0  0  0
 39 40  1  0  0  0  0
 40 34  1  0  0  0  0
 41 40  2  0  0  0  0
 41 42  1  0  0  0  0
 43 41  1  0  0  0  0
 44 43  1  0  0  0  0
 45 46  1  0  0  0  0
 45 43  2  0  0  0  0
 46 39  2  0  0  0  0
M  END
>  <minimizedAffinity>
-5.72264147

$$$$

 OpenBabel03252502403D

 46 49  0  0  1  0  0  0  0  0999 V2000
   40.2760   30.1700   41.6140 C   0  0  1  0  0  0  0  0  0  0  0  0
   39.9230   29.3770   40.8900 H   0  0  0  0  0  0  0  0  0  0  0  0
   40.3480   31.3840   40.8470 N   0  0  0  0  0  0  0  0  0  0  0  0
   40.4290   31.1630   39.4520 C   0  0  0  0  0  0  0  0  0  0  0  0
   40.8920   32.5010   38.8530 C   0  0  0  0  0  0  0  0  0  0  0  0
   39.7230   33.3340   38.9800 N   0  0  0  0  0  0  0  0  0  0  0  0
   39.3310   33.5330   40.3150 C   0  0  0  0  0  0  0  0  0  0  0  0
   39.3400   32.2950   41.1970 C   0  0  0  0  0  0  0  0  0  0  0  0
   41.1500   30.3860   39.1630 H   0  0  0  0  0  0  0  0  0  0  0  0
   39.4290   30.9570   39.0570 H   0  0  0  0  0  0  0  0  0  0  0  0
   41.7200   32.8940   39.4790 H   0  0  0  0  0  0  0  0  0  0  0  0
   41.1430   32.4230   37.7900 H   0  0  0  0  0  0  0  0  0  0  0  0
   39.9330   34.2350   38.5440 H   0  0  0  0  0  0  0  0  0  0  0  0
   38.3280   34.0350   40.3220 H   0  0  0  0  0  0  0  0  0  0  0  0
   40.0030   34.3180   40.7740 H   0  0  0  0  0  0  0  0  0  0  0  0
   39.2290   32.6970   42.1760 H   0  0  0  0  0  0  0  0  0  0  0  0
   38.3900   31.8170   40.7910 H   0  0  0  0  0  0  0  0  0  0  0  0
   42.2430   30.4620   43.1210 C   0  0  0  0  0  0  0  0  0  0  0  0
   41.4890   29.7240   42.2260 C   0  0  0  0  0  0  0  0  0  0  0  0
   41.9840   28.4410   41.9210 C   0  0  0  0  0  0  0  0  0  0  0  0
   43.1440   28.0010   42.5020 N   0  0  0  0  0  0  0  0  0  0  0  0
   43.8310   28.7740   43.3670 C   0  0  0  0  0  0  0  0  0  0  0  0
   43.3770   30.0150   43.6800 N   0  0  0  0  0  0  0  0  0  0  0  0
   41.9100   31.4480   43.3890 H   0  0  0  0  0  0  0  0  0  0  0  0
   41.5040   27.7530   41.2430 H   0  0  0  0  0  0  0  0  0  0  0  0
   44.7400   28.2960   43.7540 H   0  0  0  0  0  0  0  0  0  0  0  0
   39.2210   30.3400   42.7140 C   0  0  0  0  0  0  0  0  0  0  0  0
   39.6000   30.5990   43.7000 H   0  0  0  0  0  0  0  0  0  0  0  0
   38.8310   31.3580   42.3860 H   0  0  0  0  0  0  0  0  0  0  0  0
   38.2010   29.3470   42.7730 C   0  0  0  0  0  0  0  0  0  0  0  0
   37.7030   28.4660   43.6710 C   0  0  0  0  0  0  0  0  0  0  0  0
   36.6790   27.5540   43.5030 C   0  0  0  0  0  0  0  0  0  0  0  0
   36.1190   27.5510   42.3020 N   0  0  0  0  0  0  0  0  0  0  0  0
   36.5340   28.3710   41.3630 C   0  0  0  0  0  0  0  0  0  0  0  0
   37.5250   29.2170   41.6080 N   0  0  0  0  0  0  0  0  0  0  0  0
   38.2410   28.5400   44.6370 H   0  0  0  0  0  0  0  0  0  0  0  0
   36.4420   26.9380   44.3710 H   0  0  0  0  0  0  0  0  0  0  0  0
   37.8370   26.6310   39.2270 Cl  0  0  0  0  0  0  0  0  0  0  0  0
   36.3850   27.5780   39.0290 C   0  0  0  0  0  0  0  0  0  0  0  0
   35.8690   28.3270   40.0330 C   0  0  0  0  0  0  0  0  0  0  0  0
   34.7180   29.0700   39.8600 C   0  0  0  0  0  0  0  0  0  0  0  0
   34.3560   29.6530   40.7110 H   0  0  0  0  0  0  0  0  0  0  0  0
   34.0250   29.0940   38.6550 C   0  0  0  0  0  0  0  0  0  0  0  0
   33.1280   29.6900   38.5650 H   0  0  0  0  0  0  0  0  0  0  0  0
   34.5660   28.3250   37.6450 C   0  0  0  0  0  3  0  0  0  0  0  0
   35.7160   27.5750   37.7980 C   0  0  0  0  0  3  0  0  0  0  0  0
  1  2  1  6  0  0  0
  1 19  1  0  0  0  0
  1 27  1  0  0  0  0
  3  8  1  0  0  0  0
  3  1  1  0  0  0  0
  4  3  1  0  0  0  0
  5  6  1  0  0  0  0
  5  4  1  0  0  0  0
  5 11  1  0  0  0  0
  6  7  1  0  0  0  0
  7 14  1  0  0  0  0
  7 15  1  0  0  0  0
  7  8  1  0  0  0  0
  8 16  1  0  0  0  0
  9  4  1  0  0  0  0
 10  4  1  0  0  0  0
 12  5  1  0  0  0  0
 13  6  1  0  0  0  0
 17  8  1  0  0  0  0
 18 24  1  0  0  0  0
 18 23  1  0  0  0  0
 19 18  2  0  0  0  0
 20 19  1  0  0  0  0
 20 21  2  0  0  0  0
 21 22  1  0  0  0  0
 22 23  2  0  0  0  0
 22 26  1  0  0  0  0
 25 20  1  0  0  0  0
 27 30  1  0  0  0  0
 27 28  1  0  0  0  0
 29 27  1  0  0  0  0
 30 31  1  0  0  0  0
 31 36  1  0  0  0  0
 32 31  2  0  0  0  0
 32 37  1  0  0  0  0
 33 32  1  0  0  0  0
 34 35  1  0  0  0  0
 34 33  2  0  0  0  0
 35 30  2  0  0  0  0
 39 38  1  0  0  0  0
 39 40  1  0  0  0  0
 40 34  1  0  0  0  0
 41 40  2  0  0  0  0
 41 42  1  0  0  0  0
 43 41  1  0  0  0  0
 44 43  1  0  0  0  0
 45 46  1  0  0  0  0
 45 43  2  0  0  0  0
 46 39  2  0  0  0  0
M  END
>  <minimizedAffinity>
-5.46720123

$$$$

 OpenBabel03252502403D

 46 49  0  0  1  0  0  0  0  0999 V2000
   40.5940   30.3940   40.4220 C   0  0  1  0  0  0  0  0  0  0  0  0
   40.1560   29.5690   39.7840 H   0  0  0  0  0  0  0  0  0  0  0  0
   41.0760   31.3810   39.4950 N   0  0  0  0  0  0  0  0  0  0  0  0
   40.6180   31.1790   38.1720 C   0  0  0  0  0  0  0  0  0  0  0  0
   41.5260   32.0500   37.2870 C   0  0  0  0  0  0  0  0  0  0  0  0
   41.0800   33.3880   37.5830 N   0  0  0  0  0  0  0  0  0  0  0  0
   41.2630   33.7430   38.9310 C   0  0  0  0  0  0  0  0  0  0  0  0
   40.8640   32.6890   39.9520 C   0  0  0  0  0  0  0  0  0  0  0  0
   40.6920   30.1390   37.8250 H   0  0  0  0  0  0  0  0  0  0  0  0
   39.5990   31.5680   38.0760 H   0  0  0  0  0  0  0  0  0  0  0  0
   42.5760   31.9070   37.6210 H   0  0  0  0  0  0  0  0  0  0  0  0
   41.3760   31.8670   36.2190 H   0  0  0  0  0  0  0  0  0  0  0  0
   41.6010   34.0300   36.9830 H   0  0  0  0  0  0  0  0  0  0  0  0
   40.7360   34.7160   39.1180 H   0  0  0  0  0  0  0  0  0  0  0  0
   42.3480   34.0160   39.0880 H   0  0  0  0  0  0  0  0  0  0  0  0
   41.2740   33.0660   40.8590 H   0  0  0  0  0  0  0  0  0  0  0  0
   39.7370   32.8250   39.8720 H   0  0  0  0  0  0  0  0  0  0  0  0
   41.7500   30.2090   42.6250 C   0  0  0  0  0  0  0  0  0  0  0  0
   41.5570   29.8210   41.3110 C   0  0  0  0  0  0  0  0  0  0  0  0
   42.3870   28.7810   40.8510 C   0  0  0  0  0  0  0  0  0  0  0  0
   43.3120   28.2230   41.6930 N   0  0  0  0  0  0  0  0  0  0  0  0
   43.4490   28.6510   42.9660 C   0  0  0  0  0  0  0  0  0  0  0  0
   42.6610   29.6520   43.4350 N   0  0  0  0  0  0  0  0  0  0  0  0
   41.1420   30.9990   43.0260 H   0  0  0  0  0  0  0  0  0  0  0  0
   42.3500   28.3740   39.8540 H   0  0  0  0  0  0  0  0  0  0  0  0
   44.2280   28.1160   43.5250 H   0  0  0  0  0  0  0  0  0  0  0  0
   39.4730   31.0120   41.2660 C   0  0  0  0  0  0  0  0  0  0  0  0
   39.6710   31.0930   42.3320 H   0  0  0  0  0  0  0  0  0  0  0  0
   39.6400   32.0960   40.9590 H   0  0  0  0  0  0  0  0  0  0  0  0
   38.1500   30.5560   40.9970 C   0  0  0  0  0  0  0  0  0  0  0  0
   36.9430   31.0870   40.6970 C   0  0  0  0  0  0  0  0  0  0  0  0
   35.7460   30.4320   40.4810 C   0  0  0  0  0  0  0  0  0  0  0  0
   35.8000   29.1110   40.5840 N   0  0  0  0  0  0  0  0  0  0  0  0
   36.9290   28.5040   40.8730 C   0  0  0  0  0  0  0  0  0  0  0  0
   38.0350   29.2090   41.0650 N   0  0  0  0  0  0  0  0  0  0  0  0
   36.9990   32.1920   40.6410 H   0  0  0  0  0  0  0  0  0  0  0  0
   34.8900   31.0650   40.2500 H   0  0  0  0  0  0  0  0  0  0  0  0
   36.9070   27.3160   43.6800 Cl  0  0  0  0  0  0  0  0  0  0  0  0
   36.9250   26.4120   42.1870 C   0  0  0  0  0  0  0  0  0  0  0  0
   36.9340   27.0190   40.9760 C   0  0  0  0  0  0  0  0  0  0  0  0
   36.9480   26.2900   39.8030 C   0  0  0  0  0  0  0  0  0  0  0  0
   36.9540   26.8430   38.8600 H   0  0  0  0  0  0  0  0  0  0  0  0
   36.9530   24.9000   39.7950 C   0  0  0  0  0  0  0  0  0  0  0  0
   36.9640   24.3700   38.8540 H   0  0  0  0  0  0  0  0  0  0  0  0
   36.9440   24.3000   41.0380 C   0  0  0  0  0  3  0  0  0  0  0  0
   36.9310   25.0110   42.2210 C   0  0  0  0  0  3  0  0  0  0  0  0
  1  2  1  6  0  0  0
  1 27  1  0  0  0  0
  1 19  1  0  0  0  0
  3  8  1  0  0  0  0
  3  1  1  0  0  0  0
  4  3  1  0  0  0  0
  5  6  1  0  0  0  0
  5 11  1  0  0  0  0
  5  4  1  0  0  0  0
  6  7  1  0  0  0  0
  7 15  1  0  0  0  0
  7 14  1  0  0  0  0
  7  8  1  0  0  0  0
  8 16  1  0  0  0  0
  9  4  1  0  0  0  0
 10  4  1  0  0  0  0
 12  5  1  0  0  0  0
 13  6  1  0  0  0  0
 17  8  1  0  0  0  0
 18 24  1  0  0  0  0
 18 23  1  0  0  0  0
 19 18  2  0  0  0  0
 20 19  1  0  0  0  0
 20 21  2  0  0  0  0
 21 22  1  0  0  0  0
 22 23  2  0  0  0  0
 22 26  1  0  0  0  0
 25 20  1  0  0  0  0
 27 28  1  0  0  0  0
 29 27  1  0  0  0  0
 30 35  1  0  0  0  0
 30 27  1  0  0  0  0
 31 30  2  0  0  0  0
 32 33  2  0  0  0  0
 32 31  1  0  0  0  0
 33 34  1  0  0  0  0
 34 40  1  0  0  0  0
 34 35  2  0  0  0  0
 36 31  1  0  0  0  0
 37 32  1  0  0  0  0
 39 46  1  0  0  0  0
 39 38  1  0  0  0  0
 40 39  2  0  0  0  0
 41 40  1  0  0  0  0
 42 41  1  0  0  0  0
 43 41  2  0  0  0  0
 43 45  1  0  0  0  0
 44 43  1  0  0  0  0
 45 46  2  0  0  0  0
M  END
>  <minimizedAffinity>
-5.45330858

$$$$

 OpenBabel03252502403D

 46 49  0  0  1  0  0  0  0  0999 V2000
   39.5200   30.3870   40.4800 C   0  0  1  0  0  0  0  0  0  0  0  0
   38.9290   29.5910   39.9360 H   0  0  0  0  0  0  0  0  0  0  0  0
   38.9560   31.6400   40.0560 N   0  0  0  0  0  0  0  0  0  0  0  0
   37.5920   31.5470   39.6930 C   0  0  0  0  0  0  0  0  0  0  0  0
   37.2880   32.8350   38.9120 C   0  0  0  0  0  0  0  0  0  0  0  0
   37.2810   33.8450   39.9410 N   0  0  0  0  0  0  0  0  0  0  0  0
   38.5200   33.9760   40.5920 C   0  0  0  0  0  0  0  0  0  0  0  0
   39.2090   32.6740   40.9690 C   0  0  0  0  0  0  0  0  0  0  0  0
   37.3560   30.6880   39.0500 H   0  0  0  0  0  0  0  0  0  0  0  0
   36.9730   31.5590   40.5960 H   0  0  0  0  0  0  0  0  0  0  0  0
   38.1200   33.0130   38.1990 H   0  0  0  0  0  0  0  0  0  0  0  0
   36.3010   32.8200   38.4400 H   0  0  0  0  0  0  0  0  0  0  0  0
   37.0240   34.7320   39.5050 H   0  0  0  0  0  0  0  0  0  0  0  0
   38.3850   34.6420   41.4840 H   0  0  0  0  0  0  0  0  0  0  0  0
   39.2100   34.5800   39.9320 H   0  0  0  0  0  0  0  0  0  0  0  0
   40.1880   32.9900   41.2380 H   0  0  0  0  0  0  0  0  0  0  0  0
   38.5530   32.4130   41.8620 H   0  0  0  0  0  0  0  0  0  0  0  0
   41.8740   29.9510   41.1820 C   0  0  0  0  0  0  0  0  0  0  0  0
   40.9110   30.1850   40.2160 C   0  0  0  0  0  0  0  0  0  0  0  0
   41.3720   30.2180   38.8860 C   0  0  0  0  0  0  0  0  0  0  0  0
   42.7010   30.0240   38.6200 N   0  0  0  0  0  0  0  0  0  0  0  0
   43.5890   29.8010   39.6110 C   0  0  0  0  0  0  0  0  0  0  0  0
   43.1720   29.7640   40.9030 N   0  0  0  0  0  0  0  0  0  0  0  0
   41.5750   29.9160   42.2130 H   0  0  0  0  0  0  0  0  0  0  0  0
   40.7390   30.3880   38.0310 H   0  0  0  0  0  0  0  0  0  0  0  0
   44.6180   29.6650   39.2540 H   0  0  0  0  0  0  0  0  0  0  0  0
   39.2920   30.2270   41.9880 C   0  0  0  0  0  0  0  0  0  0  0  0
   40.1850   30.2480   42.6090 H   0  0  0  0  0  0  0  0  0  0  0  0
   38.8960   31.2750   42.1880 H   0  0  0  0  0  0  0  0  0  0  0  0
   38.3840   29.2040   42.3880 C   0  0  0  0  0  0  0  0  0  0  0  0
   37.7420   28.8080   43.5110 C   0  0  0  0  0  0  0  0  0  0  0  0
   36.8850   27.7390   43.6790 C   0  0  0  0  0  0  0  0  0  0  0  0
   36.6710   27.0120   42.5920 N   0  0  0  0  0  0  0  0  0  0  0  0
   37.2500   27.3170   41.4530 C   0  0  0  0  0  0  0  0  0  0  0  0
   38.0610   28.3630   41.3770 N   0  0  0  0  0  0  0  0  0  0  0  0
   37.9910   29.4720   44.3630 H   0  0  0  0  0  0  0  0  0  0  0  0
   36.4780   27.6060   44.6820 H   0  0  0  0  0  0  0  0  0  0  0  0
   35.5130   28.5340   39.2640 Cl  0  0  0  0  0  0  0  0  0  0  0  0
   36.2110   26.9350   39.2450 C   0  0  0  0  0  0  0  0  0  0  0  0
   36.9740   26.4690   40.2620 C   0  0  0  0  0  0  0  0  0  0  0  0
   37.5200   25.2010   40.2320 C   0  0  0  0  0  0  0  0  0  0  0  0
   38.1260   24.8860   41.0850 H   0  0  0  0  0  0  0  0  0  0  0  0
   37.3200   24.3330   39.1630 C   0  0  0  0  0  0  0  0  0  0  0  0
   37.7670   23.3490   39.1820 H   0  0  0  0  0  0  0  0  0  0  0  0
   36.5400   24.8260   38.1380 C   0  0  0  0  0  3  0  0  0  0  0  0
   35.9850   26.0910   38.1490 C   0  0  0  0  0  3  0  0  0  0  0  0
  1  2  1  6  0  0  0
  1 27  1  0  0  0  0
  3  1  1  0  0  0  0
  3  8  1  0  0  0  0
  4  3  1  0  0  0  0
  4 10  1  0  0  0  0
  5  4  1  0  0  0  0
  5  6  1  0  0  0  0
  6  7  1  0  0  0  0
  7  8  1  0  0  0  0
  7 14  1  0  0  0  0
  8 16  1  0  0  0  0
  8 17  1  0  0  0  0
  9  4  1  0  0  0  0
 11  5  1  0  0  0  0
 12  5  1  0  0  0  0
 13  6  1  0  0  0  0
 15  7  1  0  0  0  0
 18 24  1  0  0  0  0
 19  1  1  0  0  0  0
 19 18  2  0  0  0  0
 20 19  1  0  0  0  0
 21 20  2  0  0  0  0
 21 22  1  0  0  0  0
 22 23  2  0  0  0  0
 23 18  1  0  0  0  0
 25 20  1  0  0  0  0
 26 22  1  0  0  0  0
 27 29  1  0  0  0  0
 27 30  1  0  0  0  0
 27 28  1  0  0  0  0
 30 31  1  0  0  0  0
 31 32  2  0  0  0  0
 31 36  1  0  0  0  0
 32 37  1  0  0  0  0
 33 32  1  0  0  0  0
 34 33  2  0  0  0  0
 35 34  1  0  0  0  0
 35 30  2  0  0  0  0
 39 38  1  0  0  0  0
 39 40  1  0  0  0  0
 40 34  1  0  0  0  0
 41 40  2  0  0  0  0
 41 42  1  0  0  0  0
 43 44  1  0  0  0  0
 43 41  1  0  0  0  0
 45 46  1  0  0  0  0
 45 43  2  0  0  0  0
 46 39  2  0  0  0  0
M  END
>  <minimizedAffinity>
-5.34643936

$$$$

 OpenBabel03252502403D

 46 49  0  0  1  0  0  0  0  0999 V2000
   36.1470   29.6220   38.6550 C   0  0  1  0  0  0  0  0  0  0  0  0
   35.3600   30.3530   39.0100 H   0  0  0  0  0  0  0  0  0  0  0  0
   35.5710   28.9630   37.5150 N   0  0  0  0  0  0  0  0  0  0  0  0
   34.1570   28.9240   37.5440 C   0  0  0  0  0  0  0  0  0  0  0  0
   33.7550   27.8690   36.5000 C   0  0  0  0  0  0  0  0  0  0  0  0
   34.0350   28.5280   35.2490 N   0  0  0  0  0  0  0  0  0  0  0  0
   35.3940   28.8490   35.0880 C   0  0  0  0  0  0  0  0  0  0  0  0
   36.0780   29.4550   36.3030 C   0  0  0  0  0  0  0  0  0  0  0  0
   33.7370   28.6280   38.5150 H   0  0  0  0  0  0  0  0  0  0  0  0
   33.7590   29.8860   37.2060 H   0  0  0  0  0  0  0  0  0  0  0  0
   34.4140   26.9850   36.6300 H   0  0  0  0  0  0  0  0  0  0  0  0
   32.6880   27.6300   36.5310 H   0  0  0  0  0  0  0  0  0  0  0  0
   33.7350   27.9060   34.4960 H   0  0  0  0  0  0  0  0  0  0  0  0
   35.5000   29.5080   34.1870 H   0  0  0  0  0  0  0  0  0  0  0  0
   35.9500   27.9150   34.7790 H   0  0  0  0  0  0  0  0  0  0  0  0
   37.1090   29.4160   36.0420 H   0  0  0  0  0  0  0  0  0  0  0  0
   35.6270   30.4960   36.2230 H   0  0  0  0  0  0  0  0  0  0  0  0
   35.9660   28.8410   41.0180 C   0  0  0  0  0  0  0  0  0  0  0  0
   36.5290   28.7910   39.7540 C   0  0  0  0  0  0  0  0  0  0  0  0
   37.5490   27.8370   39.5750 C   0  0  0  0  0  0  0  0  0  0  0  0
   37.9220   27.0340   40.6200 N   0  0  0  0  0  0  0  0  0  0  0  0
   37.3310   27.1360   41.8290 C   0  0  0  0  0  0  0  0  0  0  0  0
   36.3450   28.0470   42.0290 N   0  0  0  0  0  0  0  0  0  0  0  0
   35.1830   29.5520   41.2070 H   0  0  0  0  0  0  0  0  0  0  0  0
   38.0760   27.6820   38.6490 H   0  0  0  0  0  0  0  0  0  0  0  0
   37.7300   26.4320   42.5710 H   0  0  0  0  0  0  0  0  0  0  0  0
   37.3810   30.4100   38.2010 C   0  0  0  0  0  0  0  0  0  0  0  0
   38.2660   29.8190   37.9750 H   0  0  0  0  0  0  0  0  0  0  0  0
   37.0290   30.6370   37.1420 H   0  0  0  0  0  0  0  0  0  0  0  0
   37.6950   31.5840   38.9460 C   0  0  0  0  0  0  0  0  0  0  0  0
   37.2030   32.8320   39.1140 C   0  0  0  0  0  0  0  0  0  0  0  0
   37.6940   33.8500   39.9080 C   0  0  0  0  0  0  0  0  0  0  0  0
   38.7910   33.5530   40.5890 N   0  0  0  0  0  0  0  0  0  0  0  0
   39.3440   32.3650   40.4910 C   0  0  0  0  0  0  0  0  0  0  0  0
   38.8070   31.4430   39.7050 N   0  0  0  0  0  0  0  0  0  0  0  0
   36.2940   32.9850   38.4980 H   0  0  0  0  0  0  0  0  0  0  0  0
   37.1310   34.7830   39.8910 H   0  0  0  0  0  0  0  0  0  0  0  0
   39.1250   30.2630   42.6880 Cl  0  0  0  0  0  0  0  0  0  0  0  0
   40.5610   31.1640   42.2730 C   0  0  0  0  0  0  0  0  0  0  0  0
   40.5740   32.0840   41.2790 C   0  0  0  0  0  0  0  0  0  0  0  0
   41.7200   32.7870   40.9630 C   0  0  0  0  0  0  0  0  0  0  0  0
   41.6620   33.5160   40.1500 H   0  0  0  0  0  0  0  0  0  0  0  0
   42.9180   32.5960   41.6410 C   0  0  0  0  0  0  0  0  0  0  0  0
   43.7900   33.1690   41.3590 H   0  0  0  0  0  0  0  0  0  0  0  0
   42.8850   31.6550   42.6500 C   0  0  0  0  0  3  0  0  0  0  0  0
   41.7500   30.9410   42.9810 C   0  0  0  0  0  3  0  0  0  0  0  0
  1  2  1  1  0  0  0
  1 19  1  0  0  0  0
  3  4  1  0  0  0  0
  3  1  1  0  0  0  0
  4  9  1  0  0  0  0
  5 12  1  0  0  0  0
  5 11  1  0  0  0  0
  5  4  1  0  0  0  0
  6  5  1  0  0  0  0
  7  6  1  0  0  0  0
  7  8  1  0  0  0  0
  8  3  1  0  0  0  0
 10  4  1  0  0  0  0
 13  6  1  0  0  0  0
 14  7  1  0  0  0  0
 15  7  1  0  0  0  0
 16  8  1  0  0  0  0
 17  8  1  0  0  0  0
 18 24  1  0  0  0  0
 18 23  1  0  0  0  0
 19 18  2  0  0  0  0
 20 19  1  0  0  0  0
 20 21  2  0  0  0  0
 21 22  1  0  0  0  0
 22 23  2  0  0  0  0
 22 26  1  0  0  0  0
 25 20  1  0  0  0  0
 27  1  1  0  0  0  0
 27 30  1  0  0  0  0
 28 27  1  0  0  0  0
 29 27  1  0  0  0  0
 30 31  2  0  0  0  0
 30 35  1  0  0  0  0
 31 32  1  0  0  0  0
 32 33  2  0  0  0  0
 34 33  1  0  0  0  0
 34 40  1  0  0  0  0
 35 34  2  0  0  0  0
 36 31  1  0  0  0  0
 37 32  1  0  0  0  0
 39 38  1  0  0  0  0
 39 46  1  0  0  0  0
 40 39  2  0  0  0  0
 41 40  1  0  0  0  0
 41 43  2  0  0  0  0
 42 41  1  0  0  0  0
 43 45  1  0  0  0  0
 44 43  1  0  0  0  0
 45 46  2  0  0  0  0
M  END
>  <minimizedAffinity>
-5.34514189

$$$$
