
 OpenBabel03252504103D

 25 26  0  0  0  0  0  0  0  0999 V2000
   44.6380   32.7440   42.9610 C   0  0  0  0  0  0  0  0  0  0  0  0
   45.2160   33.6370   43.8650 C   0  0  0  0  0  0  0  0  0  0  0  0
   44.8670   34.9910   43.7650 C   0  0  0  0  0  0  0  0  0  0  0  0
   43.9970   35.3630   42.8080 N   0  0  0  0  0  0  0  0  0  0  0  0
   43.4550   34.4640   41.9470 C   0  0  0  0  0  0  0  0  0  0  0  0
   43.7650   33.1610   42.0130 N   0  0  0  0  0  0  0  0  0  0  0  0
   45.3020   35.6820   44.4490 H   0  0  0  0  0  0  0  0  0  0  0  0
   44.2050   33.7060   39.1500 Cl  0  0  0  0  0  0  0  0  0  0  0  0
   42.7840   34.5890   39.5810 C   0  0  0  0  0  0  0  0  0  0  0  0
   42.5110   34.9010   40.9170 C   0  0  0  0  0  0  0  0  0  0  0  0
   41.3640   35.6090   41.2200 C   0  0  0  0  0  0  0  0  0  0  0  0
   41.1310   35.8630   42.2460 H   0  0  0  0  0  0  0  0  0  0  0  0
   40.5240   35.9860   40.1920 C   0  0  0  0  0  0  0  0  0  0  0  0
   39.6120   36.5400   40.3540 H   0  0  0  0  0  0  0  0  0  0  0  0
   40.7580   35.6970   38.8650 C   0  0  0  0  0  3  0  0  0  0  0  0
   41.9210   34.9800   38.5620 C   0  0  0  0  0  3  0  0  0  0  0  0
   46.1680   33.1200   44.8850 C   0  0  0  0  0  0  0  0  0  0  0  0
   45.7140   31.9070   45.3860 F   0  0  0  0  0  0  0  0  0  0  0  0
   47.3730   32.8670   44.2580 F   0  0  0  0  0  0  0  0  0  0  0  0
   46.3630   33.9470   45.9420 F   0  0  0  0  0  0  0  0  0  0  0  0
   44.9810   31.4440   43.0670 O   0  0  0  0  0  0  0  0  0  0  0  0
   44.2270   30.3160   42.6800 C   0  0  0  0  0  0  0  0  0  0  0  0
   42.9110   30.5560   43.0950 F   0  0  0  0  0  0  0  0  0  0  0  0
   44.3150   30.1430   41.3280 F   0  0  0  0  0  0  0  0  0  0  0  0
   44.6230   29.2080   43.4000 F   0  0  0  0  0  0  0  0  0  0  0  0
  1 21  1  0  0  0  0
  1  2  1  0  0  0  0
  2 17  1  0  0  0  0
  3  2  2  0  0  0  0
  3  7  1  0  0  0  0
  4  3  1  0  0  0  0
  5  6  1  0  0  0  0
  5  4  2  0  0  0  0
  6  1  2  0  0  0  0
  8  9  1  0  0  0  0
  9 10  1  0  0  0  0
 10 11  2  0  0  0  0
 10  5  1  0  0  0  0
 11 12  1  0  0  0  0
 13 14  1  0  0  0  0
 13 11  1  0  0  0  0
 15 13  2  0  0  0  0
 16 15  1  0  0  0  0
 16  9  2  0  0  0  0
 17 18  1  0  0  0  0
 17 20  1  0  0  0  0
 19 17  1  0  0  0  0
 22 21  1  0  0  0  0
 22 23  1  0  0  0  0
 22 25  1  0  0  0  0
 24 22  1  0  0  0  0
M  END
>  <minimizedAffinity>
-4.65979815

>  <minimizedRMSD>
7.17792273

$$$$
