
     RDKit          3D

 38 40  0  0  0  0  0  0  0  0999 V2000
   45.4097   31.3563   47.7516 C   0  0  0  0  0  0  0  0  0  0  0  0
   46.5858   30.4848   47.8581 C   0  0  0  0  0  0  0  0  0  0  0  0
   46.8200   29.2184   47.3776 C   0  0  0  0  0  0  0  0  0  0  0  0
   48.0292   28.6324   47.6381 C   0  0  0  0  0  0  0  0  0  0  0  0
   48.9704   29.2528   48.3368 N   0  0  0  0  0  0  0  0  0  0  0  0
   48.7432   30.5002   48.8132 C   0  0  0  0  0  0  0  0  0  0  0  0
   47.5488   31.1337   48.5818 N   0  0  0  0  0  0  0  0  0  0  0  0
   49.8552   31.1158   49.5776 C   0  0  0  0  0  0  0  0  0  0  0  0
   49.8275   32.4784   49.5000 F   0  0  0  0  0  0  0  0  0  0  0  0
   51.0858   30.6334   49.1095 F   0  0  0  0  0  0  0  0  0  0  0  0
   49.7923   30.7818   50.9204 F   0  0  0  0  0  0  0  0  0  0  0  0
   45.8479   32.6786   47.6240 O   0  0  0  0  0  0  0  0  0  0  0  0
   44.8924   34.9635   45.0767 C   0  0  0  0  0  0  0  0  0  0  0  0
   45.7630   34.6707   44.0308 C   0  0  0  0  0  0  0  0  0  0  0  0
   46.7027   33.6552   44.2229 C   0  0  0  0  0  0  0  0  0  0  0  0
   46.7156   33.0120   45.4084 N   0  0  0  0  0  0  0  0  0  0  0  0
   45.8610   33.3188   46.3954 C   0  0  0  0  0  0  0  0  0  0  0  0
   44.9478   34.2963   46.2299 N   0  0  0  0  0  0  0  0  0  0  0  0
   45.6633   35.4632   42.7620 C   0  0  0  0  0  0  0  0  0  0  0  0
   45.2974   36.7345   43.1623 F   0  0  0  0  0  0  0  0  0  0  0  0
   44.6371   34.8884   42.0125 F   0  0  0  0  0  0  0  0  0  0  0  0
   46.8660   35.4507   42.1165 F   0  0  0  0  0  0  0  0  0  0  0  0
   44.7365   31.1087   46.9359 H   0  0  0  0  0  0  0  0  0  0  0  0
   44.7983   31.2557   48.6900 H   0  0  0  0  0  0  0  0  0  0  0  0
   45.9395   28.8839   46.8383 H   0  0  0  0  0  0  0  0  0  0  0  0
   48.1085   27.6414   47.2161 H   0  0  0  0  0  0  0  0  0  0  0  0
   44.1552   35.7669   44.9053 H   0  0  0  0  0  0  0  0  0  0  0  0
   45.6937   31.4011   42.6490 Cl  0  0  0  0  0  0  0  0  0  0  0  0
   47.1775   32.3290   42.4029 C   0  0  0  0  0  0  0  0  0  0  0  0
   47.6657   33.3903   43.1553 C   0  0  0  0  0  0  0  0  0  0  0  0
   48.8607   33.9677   42.7944 C   0  0  0  0  0  0  0  0  0  0  0  0
   49.1181   34.7730   43.4570 H   0  0  0  0  0  0  0  0  0  0  0  0
   49.5341   33.4790   41.7007 C   0  0  0  0  0  0  0  0  0  0  0  0
   50.4588   33.9716   41.4635 H   0  0  0  0  0  0  0  0  0  0  0  0
   49.0872   32.4217   40.9171 C   0  0  0  0  0  0  0  0  0  0  0  0
   47.8854   31.8499   41.2922 C   0  0  0  0  0  0  0  0  0  0  0  0
   49.6986   32.0997   40.0627 H   0  0  0  0  0  0  0  0  0  0  0  0
   47.5901   31.0232   40.6413 H   0  0  0  0  0  0  0  0  0  0  0  0
  1  2  1  0
  2  7  2  0
  3  4  2  0
  3  2  1  0
  4  5  1  0
  5  6  2  0
  6  8  1  0
  7  6  1  0
  8 11  1  0
  9  8  1  0
 10  8  1  0
 12  1  1  0
 13 18  2  0
 14 15  2  0
 14 13  1  0
 15 16  1  0
 16 17  2  0
 17 12  1  0
 18 17  1  0
 19 20  1  0
 19 14  1  0
 21 19  1  0
 22 19  1  0
  1 23  1  0
  1 24  1  0
  3 25  1  0
  4 26  1  0
 13 27  1  0
 28 29  1  0
 29 30  2  0
 30 31  1  0
 31 32  1  0
 31 33  2  0
 33 34  1  0
 33 35  1  0
 35 36  2  0
 36 29  1  0
 35 37  1  0
 36 38  1  0
 15 30  1  0
M  ISO  7  23   8  24   8  25  14  26  14  27  14  32  15  34  16
M  END
>  <DihAtoms>  (1) 
13,14,29,28

>  <DihDeg>  (1) 
113.0881713092069

$$$$
