
 OpenBabel03252503023D

 33 34  0  0  0  0  0  0  0  0999 V2000
   40.9940   32.7950   40.9040 C   0  0  0  0  0  0  0  0  0  0  0  0
   42.2030   33.3240   40.5120 C   0  0  0  0  0  0  0  0  0  0  0  0
   42.4640   33.5860   39.1580 C   0  0  0  0  0  0  0  0  0  0  0  0
   41.4520   33.2840   38.2880 N   0  0  0  0  0  0  0  0  0  0  0  0
   40.2960   32.7740   38.7100 C   0  0  0  0  0  0  0  0  0  0  0  0
   40.0450   32.5250   39.9810 N   0  0  0  0  0  0  0  0  0  0  0  0
   40.8090   32.5980   41.9540 H   0  0  0  0  0  0  0  0  0  0  0  0
   43.4130   33.9970   38.8780 H   0  0  0  0  0  0  0  0  0  0  0  0
   40.4010   30.0500   37.5600 Cl  0  0  0  0  0  0  0  0  0  0  0  0
   39.1990   31.2340   37.0940 C   0  0  0  0  0  0  0  0  0  0  0  0
   39.2640   32.4780   37.7130 C   0  0  0  0  0  0  0  0  0  0  0  0
   38.3130   33.4380   37.3540 C   0  0  0  0  0  0  0  0  0  0  0  0
   38.3530   34.4100   37.8280 H   0  0  0  0  0  0  0  0  0  0  0  0
   37.3220   33.1760   36.4070 C   0  0  0  0  0  0  0  0  0  0  0  0
   36.5870   33.9260   36.1340 H   0  0  0  0  0  0  0  0  0  0  0  0
   37.2830   31.9160   35.8020 C   0  0  0  0  0  0  0  0  0  0  0  0
   38.2190   30.9660   36.1530 C   0  0  0  0  0  0  0  0  0  0  0  0
   43.4790   33.6900   41.7290 S   0  0  0  0  0  0  0  0  0  0  0  0
   43.5210   35.4620   42.0290 C   0  0  0  0  0  0  0  0  0  0  0  0
   44.4920   35.9070   41.7080 H   0  0  0  0  0  0  0  0  0  0  0  0
   42.6810   35.9460   41.4870 H   0  0  0  0  0  0  0  0  0  0  0  0
   43.2930   35.6690   43.4450 N   0  0  0  0  0  0  0  0  0  0  0  0
   42.6740   34.9740   43.8860 H   0  0  0  0  0  0  0  0  0  0  0  0
   44.7490   35.8710   44.3300 S   0  0  0  0  0  0  0  0  0  0  0  0
   45.9300   35.3970   43.5720 O   0  0  0  0  0  0  0  0  0  0  0  0
   45.9600   34.8120   42.7850 H   0  0  0  0  0  0  0  0  0  0  0  0
   44.8730   37.3530   44.6170 O   0  0  0  0  0  0  0  0  0  0  0  0
   45.3600   37.7270   45.4020 H   0  0  0  0  0  0  0  0  0  0  0  0
   44.6270   35.1000   45.8070 O   0  0  0  0  0  0  0  0  0  0  0  0
   45.3990   33.9650   45.8920 C   0  0  0  0  0  0  0  0  0  0  0  0
   46.3730   34.1120   46.4210 H   0  0  0  0  0  0  0  0  0  0  0  0
   45.6860   33.6880   44.8350 H   0  0  0  0  0  0  0  0  0  0  0  0
   44.8410   33.0810   46.2750 H   0  0  0  0  0  0  0  0  0  0  0  0
  1  7  1  0  0  0  0
  2  1  1  0  0  0  0
  2 18  1  0  0  0  0
  3  2  2  0  0  0  0
  4  5  2  0  0  0  0
  4  3  1  0  0  0  0
  5  6  1  0  0  0  0
  6  1  2  0  0  0  0
  8  3  1  0  0  0  0
 10  9  1  0  0  0  0
 10 11  1  0  0  0  0
 11  5  1  0  0  0  0
 12 11  2  0  0  0  0
 12 13  1  0  0  0  0
 14 12  1  0  0  0  0
 15 14  1  0  0  0  0
 16 17  1  0  0  0  0
 16 14  2  0  0  0  0
 17 10  2  0  0  0  0
 18 19  1  0  0  0  0
 19 22  1  0  0  0  0
 20 19  1  0  0  0  0
 21 19  1  0  0  0  0
 22 23  1  0  0  0  0
 22 24  1  0  0  0  0
 24 27  1  0  0  0  0
 24 29  1  0  0  0  0
 25 24  1  0  0  0  0
 26 25  1  0  0  0  0
 27 28  1  0  0  0  0
 29 30  1  0  0  0  0
 30 33  1  0  0  0  0
 30 31  1  0  0  0  0
 32 30  1  0  0  0  0
M  END
>  <minimizedAffinity>
-4.38501024

>  <minimizedRMSD>
2.50236011

$$$$
