
 OpenBabel03252503583D

 20 21  0  0  0  0  0  0  0  0999 V2000
   37.3990   32.0070   39.4570 C   0  0  0  0  0  0  0  0  0  0  0  0
   37.3280   31.4840   38.1520 C   0  0  0  0  0  0  0  0  0  0  0  0
   37.3580   30.1000   38.0020 C   0  0  0  0  0  0  0  0  0  0  0  0
   37.4550   29.3330   39.1330 N   0  0  0  0  0  0  0  0  0  0  0  0
   37.5200   29.8860   40.3510 C   0  0  0  0  0  0  0  0  0  0  0  0
   37.4930   31.2030   40.5320 N   0  0  0  0  0  0  0  0  0  0  0  0
   37.2510   32.1310   37.2820 H   0  0  0  0  0  0  0  0  0  0  0  0
   37.3040   29.6910   37.0000 H   0  0  0  0  0  0  0  0  0  0  0  0
   40.1910   29.7380   41.6090 Cl  0  0  0  0  0  0  0  0  0  0  0  0
   38.8100   28.8380   42.1900 C   0  0  0  0  0  0  0  0  0  0  0  0
   37.6220   29.0000   41.5090 C   0  0  0  0  0  0  0  0  0  0  0  0
   36.5350   28.2870   41.9710 C   0  0  0  0  0  0  0  0  0  0  0  0
   35.5570   28.3710   41.4730 H   0  0  0  0  0  0  0  0  0  0  0  0
   36.5740   27.4300   43.0670 C   0  0  0  0  0  0  0  0  0  0  0  0
   35.7090   26.8840   43.4100 H   0  0  0  0  0  0  0  0  0  0  0  0
   37.8130   27.3390   43.6790 C   0  0  0  0  0  3  0  0  0  0  0  0
   38.9440   28.0140   43.2820 C   0  0  0  0  0  3  0  0  0  0  0  0
   37.3630   33.4370   39.5390 C   0  0  0  0  0  0  0  0  0  0  0  0
   38.0880   34.1460   40.2950 O   0  0  0  0  0  0  0  0  0  0  0  0
   36.7610   34.1840   39.0190 H   0  0  0  0  0  0  0  0  0  0  0  0
  1 18  1  0  0  0  0
  1  6  1  0  0  0  0
  2  1  2  0  0  0  0
  3  2  1  0  0  0  0
  3  4  2  0  0  0  0
  4  5  1  0  0  0  0
  5  6  2  0  0  0  0
  5 11  1  0  0  0  0
  7  2  1  0  0  0  0
  8  3  1  0  0  0  0
  9 10  1  0  0  0  0
 10 17  1  0  0  0  0
 11 12  1  0  0  0  0
 11 10  2  0  0  0  0
 12 14  2  0  0  0  0
 13 12  1  0  0  0  0
 14 15  1  0  0  0  0
 14 16  1  0  0  0  0
 17 16  2  0  0  0  0
 18 19  2  0  0  0  0
 20 18  1  0  0  0  0
M  END
>  <minimizedAffinity>
-4.38403749

$$$$

 OpenBabel03252503583D

 20 21  0  0  0  0  0  0  0  0999 V2000
   38.2400   30.4510   40.8660 C   0  0  0  0  0  0  0  0  0  0  0  0
   37.0640   31.2200   40.7880 C   0  0  0  0  0  0  0  0  0  0  0  0
   35.8440   30.5500   40.7930 C   0  0  0  0  0  0  0  0  0  0  0  0
   35.8640   29.1820   40.8740 N   0  0  0  0  0  0  0  0  0  0  0  0
   37.0140   28.5010   40.9460 C   0  0  0  0  0  0  0  0  0  0  0  0
   38.1970   29.1090   40.9440 N   0  0  0  0  0  0  0  0  0  0  0  0
   37.0950   32.3050   40.7240 H   0  0  0  0  0  0  0  0  0  0  0  0
   34.9350   31.1360   40.7330 H   0  0  0  0  0  0  0  0  0  0  0  0
   37.1100   27.3810   43.6800 Cl  0  0  0  0  0  0  0  0  0  0  0  0
   36.9880   26.3900   42.2440 C   0  0  0  0  0  0  0  0  0  0  0  0
   36.9530   27.0430   41.0310 C   0  0  0  0  0  0  0  0  0  0  0  0
   36.8580   26.2570   39.9010 C   0  0  0  0  0  0  0  0  0  0  0  0
   36.8250   26.7150   38.9000 H   0  0  0  0  0  0  0  0  0  0  0  0
   36.7970   24.8670   39.9220 C   0  0  0  0  0  0  0  0  0  0  0  0
   36.7220   24.2730   39.0240 H   0  0  0  0  0  0  0  0  0  0  0  0
   36.8390   24.3100   41.1900 C   0  0  0  0  0  3  0  0  0  0  0  0
   36.9340   25.0220   42.3630 C   0  0  0  0  0  3  0  0  0  0  0  0
   39.4590   31.2050   40.8560 C   0  0  0  0  0  0  0  0  0  0  0  0
   39.5460   32.4600   40.9840 O   0  0  0  0  0  0  0  0  0  0  0  0
   40.5020   30.9050   40.7460 H   0  0  0  0  0  0  0  0  0  0  0  0
  1  6  1  0  0  0  0
  2  3  1  0  0  0  0
  2  1  2  0  0  0  0
  3  4  2  0  0  0  0
  4  5  1  0  0  0  0
  5 11  1  0  0  0  0
  6  5  2  0  0  0  0
  7  2  1  0  0  0  0
  8  3  1  0  0  0  0
 10 17  1  0  0  0  0
 10  9  1  0  0  0  0
 11 10  2  0  0  0  0
 12 14  2  0  0  0  0
 12 11  1  0  0  0  0
 13 12  1  0  0  0  0
 14 16  1  0  0  0  0
 15 14  1  0  0  0  0
 16 17  2  0  0  0  0
 18  1  1  0  0  0  0
 18 19  2  0  0  0  0
 20 18  1  0  0  0  0
M  END
>  <minimizedAffinity>
-4.35684156

$$$$

 OpenBabel03252503583D

 20 21  0  0  0  0  0  0  0  0999 V2000
   37.3800   30.6430   38.3960 C   0  0  0  0  0  0  0  0  0  0  0  0
   37.2440   32.0100   38.7020 C   0  0  0  0  0  0  0  0  0  0  0  0
   37.2860   32.3860   40.0410 C   0  0  0  0  0  0  0  0  0  0  0  0
   37.4570   31.4030   40.9800 N   0  0  0  0  0  0  0  0  0  0  0  0
   37.5800   30.1160   40.6310 C   0  0  0  0  0  0  0  0  0  0  0  0
   37.5450   29.7210   39.3620 N   0  0  0  0  0  0  0  0  0  0  0  0
   37.1100   32.7580   37.9240 H   0  0  0  0  0  0  0  0  0  0  0  0
   37.1820   33.4370   40.2830 H   0  0  0  0  0  0  0  0  0  0  0  0
   40.3420   29.8240   41.6430 Cl  0  0  0  0  0  0  0  0  0  0  0  0
   38.9970   28.8880   42.2520 C   0  0  0  0  0  0  0  0  0  0  0  0
   37.7600   29.1250   41.6900 C   0  0  0  0  0  0  0  0  0  0  0  0
   36.7020   28.3830   42.1730 C   0  0  0  0  0  0  0  0  0  0  0  0
   35.6880   28.5240   41.7690 H   0  0  0  0  0  0  0  0  0  0  0  0
   36.8160   27.4270   43.1790 C   0  0  0  0  0  0  0  0  0  0  0  0
   35.9720   26.8600   43.5410 H   0  0  0  0  0  0  0  0  0  0  0  0
   38.0990   27.2660   43.6750 C   0  0  0  0  0  3  0  0  0  0  0  0
   39.2050   27.9640   43.2480 C   0  0  0  0  0  3  0  0  0  0  0  0
   37.3270   30.3260   37.0000 C   0  0  0  0  0  0  0  0  0  0  0  0
   36.4350   29.6240   36.4410 O   0  0  0  0  0  0  0  0  0  0  0  0
   37.9790   30.5890   36.1660 H   0  0  0  0  0  0  0  0  0  0  0  0
  1  2  2  0  0  0  0
  1  6  1  0  0  0  0
  2  3  1  0  0  0  0
  3  8  1  0  0  0  0
  3  4  2  0  0  0  0
  5  4  1  0  0  0  0
  5 11  1  0  0  0  0
  6  5  2  0  0  0  0
  7  2  1  0  0  0  0
  9 10  1  0  0  0  0
 10 17  1  0  0  0  0
 11 12  1  0  0  0  0
 11 10  2  0  0  0  0
 12 14  2  0  0  0  0
 13 12  1  0  0  0  0
 14 15  1  0  0  0  0
 14 16  1  0  0  0  0
 17 16  2  0  0  0  0
 18  1  1  0  0  0  0
 19 18  2  0  0  0  0
 20 18  1  0  0  0  0
M  END
>  <minimizedAffinity>
-4.24270535

$$$$

 OpenBabel03252503583D

 20 21  0  0  0  0  0  0  0  0999 V2000
   38.4390   27.1480   41.6410 C   0  0  0  0  0  0  0  0  0  0  0  0
   37.8920   26.9470   42.9220 C   0  0  0  0  0  0  0  0  0  0  0  0
   37.3980   28.0560   43.6020 C   0  0  0  0  0  0  0  0  0  0  0  0
   37.4740   29.2760   42.9830 N   0  0  0  0  0  0  0  0  0  0  0  0
   38.0060   29.4090   41.7610 C   0  0  0  0  0  0  0  0  0  0  0  0
   38.4870   28.3710   41.0820 N   0  0  0  0  0  0  0  0  0  0  0  0
   37.8520   25.9600   43.3770 H   0  0  0  0  0  0  0  0  0  0  0  0
   36.9760   27.9080   44.5890 H   0  0  0  0  0  0  0  0  0  0  0  0
   40.3380   31.0610   42.5170 Cl  0  0  0  0  0  0  0  0  0  0  0  0
   39.0830   31.6170   41.4340 C   0  0  0  0  0  0  0  0  0  0  0  0
   38.0510   30.7430   41.1660 C   0  0  0  0  0  0  0  0  0  0  0  0
   37.0630   31.1870   40.3120 C   0  0  0  0  0  0  0  0  0  0  0  0
   36.2110   30.5390   40.0560 H   0  0  0  0  0  0  0  0  0  0  0  0
   37.0540   32.4460   39.7180 C   0  0  0  0  0  0  0  0  0  0  0  0
   36.2690   32.7690   39.0510 H   0  0  0  0  0  0  0  0  0  0  0  0
   38.1350   33.2450   40.0530 C   0  0  0  0  0  3  0  0  0  0  0  0
   39.1590   32.8790   40.8950 C   0  0  0  0  0  3  0  0  0  0  0  0
   38.9280   25.9650   40.9980 C   0  0  0  0  0  0  0  0  0  0  0  0
   39.3280   24.9210   41.5900 O   0  0  0  0  0  0  0  0  0  0  0  0
   39.0600   25.7060   39.9460 H   0  0  0  0  0  0  0  0  0  0  0  0
  1  2  1  0  0  0  0
  2  7  1  0  0  0  0
  2  3  2  0  0  0  0
  3  8  1  0  0  0  0
  4  3  1  0  0  0  0
  5  4  2  0  0  0  0
  6  1  2  0  0  0  0
  6  5  1  0  0  0  0
 10  9  1  0  0  0  0
 11 10  1  0  0  0  0
 11  5  1  0  0  0  0
 12 11  2  0  0  0  0
 13 12  1  0  0  0  0
 14 16  2  0  0  0  0
 14 12  1  0  0  0  0
 15 14  1  0  0  0  0
 16 17  1  0  0  0  0
 17 10  2  0  0  0  0
 18 19  2  0  0  0  0
 18  1  1  0  0  0  0
 20 18  1  0  0  0  0
M  END
>  <minimizedAffinity>
-4.20438337

$$$$

 OpenBabel03252503583D

 20 21  0  0  0  0  0  0  0  0999 V2000
   39.5990   31.5940   38.9780 C   0  0  0  0  0  0  0  0  0  0  0  0
   39.5030   32.9020   39.4910 C   0  0  0  0  0  0  0  0  0  0  0  0
   38.9940   33.0630   40.7760 C   0  0  0  0  0  0  0  0  0  0  0  0
   38.6180   31.9390   41.4640 N   0  0  0  0  0  0  0  0  0  0  0  0
   38.7310   30.7180   40.9260 C   0  0  0  0  0  0  0  0  0  0  0  0
   39.2140   30.5270   39.7020 N   0  0  0  0  0  0  0  0  0  0  0  0
   39.8130   33.7660   38.9090 H   0  0  0  0  0  0  0  0  0  0  0  0
   38.9170   34.0670   41.1770 H   0  0  0  0  0  0  0  0  0  0  0  0
   35.8810   29.9760   40.6800 Cl  0  0  0  0  0  0  0  0  0  0  0  0
   37.0080   29.1150   41.7020 C   0  0  0  0  0  0  0  0  0  0  0  0
   38.3100   29.5680   41.7230 C   0  0  0  0  0  0  0  0  0  0  0  0
   39.1950   28.8860   42.5320 C   0  0  0  0  0  0  0  0  0  0  0  0
   40.2500   29.1950   42.5950 H   0  0  0  0  0  0  0  0  0  0  0  0
   38.8490   27.7860   43.3120 C   0  0  0  0  0  0  0  0  0  0  0  0
   39.5610   27.2680   43.9360 H   0  0  0  0  0  0  0  0  0  0  0  0
   37.5180   27.4120   43.2180 C   0  0  0  0  0  3  0  0  0  0  0  0
   36.5740   28.0380   42.4380 C   0  0  0  0  0  3  0  0  0  0  0  0
   40.1310   31.5010   37.6510 C   0  0  0  0  0  0  0  0  0  0  0  0
   40.9750   32.2930   37.1420 O   0  0  0  0  0  0  0  0  0  0  0  0
   39.9520   30.7920   36.8420 H   0  0  0  0  0  0  0  0  0  0  0  0
  1  2  2  0  0  0  0
  1  6  1  0  0  0  0
  2  3  1  0  0  0  0
  3  8  1  0  0  0  0
  3  4  2  0  0  0  0
  5  4  1  0  0  0  0
  5 11  1  0  0  0  0
  6  5  2  0  0  0  0
  7  2  1  0  0  0  0
  9 10  1  0  0  0  0
 10 11  2  0  0  0  0
 10 17  1  0  0  0  0
 11 12  1  0  0  0  0
 12 13  1  0  0  0  0
 12 14  2  0  0  0  0
 14 15  1  0  0  0  0
 16 14  1  0  0  0  0
 17 16  2  0  0  0  0
 18  1  1  0  0  0  0
 19 18  2  0  0  0  0
 20 18  1  0  0  0  0
M  END
>  <minimizedAffinity>
-4.20038939

$$$$

 OpenBabel03252503583D

 20 21  0  0  0  0  0  0  0  0999 V2000
   37.9750   26.8690   41.5660 C   0  0  0  0  0  0  0  0  0  0  0  0
   37.5480   26.6610   42.8920 C   0  0  0  0  0  0  0  0  0  0  0  0
   37.2910   27.7800   43.6780 C   0  0  0  0  0  0  0  0  0  0  0  0
   37.4690   29.0160   43.1140 N   0  0  0  0  0  0  0  0  0  0  0  0
   37.8780   29.1560   41.8460 C   0  0  0  0  0  0  0  0  0  0  0  0
   38.1320   28.1090   41.0660 N   0  0  0  0  0  0  0  0  0  0  0  0
   37.4210   25.6610   43.2990 H   0  0  0  0  0  0  0  0  0  0  0  0
   36.9630   27.6260   44.6990 H   0  0  0  0  0  0  0  0  0  0  0  0
   35.5770   30.2150   40.3220 Cl  0  0  0  0  0  0  0  0  0  0  0  0
   37.0480   31.1220   40.5870 C   0  0  0  0  0  0  0  0  0  0  0  0
   38.0430   30.5070   41.3160 C   0  0  0  0  0  0  0  0  0  0  0  0
   39.2020   31.2270   41.5210 C   0  0  0  0  0  0  0  0  0  0  0  0
   40.0360   30.7950   42.0960 H   0  0  0  0  0  0  0  0  0  0  0  0
   39.4150   32.5150   41.0390 C   0  0  0  0  0  0  0  0  0  0  0  0
   40.3310   33.0590   41.2140 H   0  0  0  0  0  0  0  0  0  0  0  0
   38.3540   33.0410   40.3200 C   0  0  0  0  0  3  0  0  0  0  0  0
   37.1680   32.3910   40.0710 C   0  0  0  0  0  3  0  0  0  0  0  0
   38.2220   25.6760   40.8140 C   0  0  0  0  0  0  0  0  0  0  0  0
   37.6210   24.5730   40.9700 O   0  0  0  0  0  0  0  0  0  0  0  0
   38.9190   25.4540   40.0040 H   0  0  0  0  0  0  0  0  0  0  0  0
  1  2  1  0  0  0  0
  2  7  1  0  0  0  0
  2  3  2  0  0  0  0
  3  8  1  0  0  0  0
  4  3  1  0  0  0  0
  5  4  2  0  0  0  0
  6  1  2  0  0  0  0
  6  5  1  0  0  0  0
  9 10  1  0  0  0  0
 10 11  1  0  0  0  0
 11 12  2  0  0  0  0
 11  5  1  0  0  0  0
 12 13  1  0  0  0  0
 14 15  1  0  0  0  0
 14 12  1  0  0  0  0
 16 14  2  0  0  0  0
 17 16  1  0  0  0  0
 17 10  2  0  0  0  0
 18 19  2  0  0  0  0
 18  1  1  0  0  0  0
 20 18  1  0  0  0  0
M  END
>  <minimizedAffinity>
-4.19968891

$$$$

 OpenBabel03252503583D

 20 21  0  0  0  0  0  0  0  0999 V2000
   40.1930   32.7100   38.9230 C   0  0  0  0  0  0  0  0  0  0  0  0
   40.0930   33.9600   39.5630 C   0  0  0  0  0  0  0  0  0  0  0  0
   39.1010   34.1230   40.5250 C   0  0  0  0  0  0  0  0  0  0  0  0
   38.2820   33.0570   40.7910 N   0  0  0  0  0  0  0  0  0  0  0  0
   38.4220   31.8890   40.1500 C   0  0  0  0  0  0  0  0  0  0  0  0
   39.3590   31.6980   39.2260 N   0  0  0  0  0  0  0  0  0  0  0  0
   40.7650   34.7790   39.3200 H   0  0  0  0  0  0  0  0  0  0  0  0
   39.0190   35.0820   41.0210 H   0  0  0  0  0  0  0  0  0  0  0  0
   39.2400   30.2150   42.4450 Cl  0  0  0  0  0  0  0  0  0  0  0  0
   37.7710   29.9420   41.5380 C   0  0  0  0  0  0  0  0  0  0  0  0
   37.5100   30.7990   40.4900 C   0  0  0  0  0  0  0  0  0  0  0  0
   36.3500   30.5780   39.7760 C   0  0  0  0  0  0  0  0  0  0  0  0
   36.0820   31.2260   38.9270 H   0  0  0  0  0  0  0  0  0  0  0  0
   35.4470   29.5560   40.0540 C   0  0  0  0  0  0  0  0  0  0  0  0
   34.5450   29.4040   39.4810 H   0  0  0  0  0  0  0  0  0  0  0  0
   35.8020   28.7520   41.1250 C   0  0  0  0  0  3  0  0  0  0  0  0
   36.9380   28.9050   41.8860 C   0  0  0  0  0  3  0  0  0  0  0  0
   41.2340   32.6110   37.9440 C   0  0  0  0  0  0  0  0  0  0  0  0
   41.9690   33.5650   37.5570 O   0  0  0  0  0  0  0  0  0  0  0  0
   41.6070   31.7700   37.3570 H   0  0  0  0  0  0  0  0  0  0  0  0
  1  6  2  0  0  0  0
  1  2  1  0  0  0  0
  2  3  2  0  0  0  0
  3  4  1  0  0  0  0
  3  8  1  0  0  0  0
  5 11  1  0  0  0  0
  5  4  2  0  0  0  0
  6  5  1  0  0  0  0
  7  2  1  0  0  0  0
 10 17  1  0  0  0  0
 10  9  1  0  0  0  0
 11 10  2  0  0  0  0
 12 14  2  0  0  0  0
 12 11  1  0  0  0  0
 13 12  1  0  0  0  0
 14 16  1  0  0  0  0
 15 14  1  0  0  0  0
 16 17  2  0  0  0  0
 18  1  1  0  0  0  0
 19 18  2  0  0  0  0
 20 18  1  0  0  0  0
M  END
>  <minimizedAffinity>
-4.18581009

$$$$

 OpenBabel03252503583D

 20 21  0  0  0  0  0  0  0  0999 V2000
   37.8000   30.3370   39.2430 C   0  0  0  0  0  0  0  0  0  0  0  0
   36.7330   31.0960   39.7610 C   0  0  0  0  0  0  0  0  0  0  0  0
   36.2740   30.7890   41.0380 C   0  0  0  0  0  0  0  0  0  0  0  0
   36.8880   29.7670   41.7140 N   0  0  0  0  0  0  0  0  0  0  0  0
   37.8990   29.0770   41.1710 C   0  0  0  0  0  0  0  0  0  0  0  0
   38.3640   29.3430   39.9540 N   0  0  0  0  0  0  0  0  0  0  0  0
   36.2750   31.8990   39.1890 H   0  0  0  0  0  0  0  0  0  0  0  0
   35.4530   31.3700   41.4420 H   0  0  0  0  0  0  0  0  0  0  0  0
   36.8410   26.3680   40.6420 Cl  0  0  0  0  0  0  0  0  0  0  0  0
   38.1030   26.6910   41.8080 C   0  0  0  0  0  0  0  0  0  0  0  0
   38.5030   28.0020   41.9550 C   0  0  0  0  0  0  0  0  0  0  0  0
   39.4990   28.2510   42.8770 C   0  0  0  0  0  0  0  0  0  0  0  0
   39.8650   29.2760   43.0440 H   0  0  0  0  0  0  0  0  0  0  0  0
   40.1080   27.2680   43.6500 C   0  0  0  0  0  0  0  0  0  0  0  0
   40.8870   27.4880   44.3650 H   0  0  0  0  0  0  0  0  0  0  0  0
   39.6340   25.9860   43.4260 C   0  0  0  0  0  3  0  0  0  0  0  0
   38.6470   25.6540   42.5280 C   0  0  0  0  0  3  0  0  0  0  0  0
   38.2220   30.7050   37.9240 C   0  0  0  0  0  0  0  0  0  0  0  0
   37.8840   31.7600   37.3140 O   0  0  0  0  0  0  0  0  0  0  0  0
   38.8730   30.2110   37.2020 H   0  0  0  0  0  0  0  0  0  0  0  0
  1  2  2  0  0  0  0
  1  6  1  0  0  0  0
  2  3  1  0  0  0  0
  3  8  1  0  0  0  0
  3  4  2  0  0  0  0
  5  4  1  0  0  0  0
  5 11  1  0  0  0  0
  6  5  2  0  0  0  0
  7  2  1  0  0  0  0
  9 10  1  0  0  0  0
 10 11  2  0  0  0  0
 10 17  1  0  0  0  0
 11 12  1  0  0  0  0
 12 13  1  0  0  0  0
 12 14  2  0  0  0  0
 14 15  1  0  0  0  0
 16 14  1  0  0  0  0
 17 16  2  0  0  0  0
 18  1  1  0  0  0  0
 19 18  2  0  0  0  0
 20 18  1  0  0  0  0
M  END
>  <minimizedAffinity>
-4.18321943

$$$$

 OpenBabel03252503583D

 20 21  0  0  0  0  0  0  0  0999 V2000
   38.0540   30.4930   40.9910 C   0  0  0  0  0  0  0  0  0  0  0  0
   39.1010   30.9410   41.8180 C   0  0  0  0  0  0  0  0  0  0  0  0
   39.8140   29.9900   42.5420 C   0  0  0  0  0  0  0  0  0  0  0  0
   39.4540   28.6750   42.4030 N   0  0  0  0  0  0  0  0  0  0  0  0
   38.4480   28.3050   41.6010 C   0  0  0  0  0  0  0  0  0  0  0  0
   37.7460   29.1860   40.8950 N   0  0  0  0  0  0  0  0  0  0  0  0
   39.3530   31.9960   41.8980 H   0  0  0  0  0  0  0  0  0  0  0  0
   40.6210   30.3280   43.1810 H   0  0  0  0  0  0  0  0  0  0  0  0
   36.4220   27.3300   43.5210 Cl  0  0  0  0  0  0  0  0  0  0  0  0
   37.1960   26.2980   42.3410 C   0  0  0  0  0  0  0  0  0  0  0  0
   38.1240   26.8830   41.5060 C   0  0  0  0  0  0  0  0  0  0  0  0
   38.7330   26.0640   40.5780 C   0  0  0  0  0  0  0  0  0  0  0  0
   39.4830   26.4670   39.8800 H   0  0  0  0  0  0  0  0  0  0  0  0
   38.4640   24.7040   40.4430 C   0  0  0  0  0  0  0  0  0  0  0  0
   38.9530   24.0840   39.7070 H   0  0  0  0  0  0  0  0  0  0  0  0
   37.5180   24.2160   41.3300 C   0  0  0  0  0  3  0  0  0  0  0  0
   36.8670   24.9640   42.2830 C   0  0  0  0  0  3  0  0  0  0  0  0
   37.3630   31.5240   40.2760 C   0  0  0  0  0  0  0  0  0  0  0  0
   37.5830   32.7650   40.3830 O   0  0  0  0  0  0  0  0  0  0  0  0
   36.5590   31.4880   39.5390 H   0  0  0  0  0  0  0  0  0  0  0  0
  1  2  1  0  0  0  0
  2  7  1  0  0  0  0
  2  3  2  0  0  0  0
  3  8  1  0  0  0  0
  4  3  1  0  0  0  0
  5  4  2  0  0  0  0
  6  1  2  0  0  0  0
  6  5  1  0  0  0  0
 10  9  1  0  0  0  0
 11  5  1  0  0  0  0
 11 10  2  0  0  0  0
 12 11  1  0  0  0  0
 13 12  1  0  0  0  0
 14 12  2  0  0  0  0
 14 16  1  0  0  0  0
 15 14  1  0  0  0  0
 16 17  2  0  0  0  0
 17 10  1  0  0  0  0
 18 19  2  0  0  0  0
 18  1  1  0  0  0  0
 20 18  1  0  0  0  0
M  END
>  <minimizedAffinity>
-4.12217999

$$$$
