
 OpenBabel03242521353D

 31 34  0  0  0  0  0  0  0  0999 V2000
   32.6220   26.9300   35.9460 C   0  0  0  0  0  0  0  0  0  0  0  0
   33.6510   26.9370   36.9120 C   0  0  0  0  0  0  0  0  0  0  0  0
   33.9130   28.1010   37.6080 C   0  0  0  0  0  0  0  0  0  0  0  0
   33.1660   29.2120   37.3420 N   0  0  0  0  0  0  0  0  0  0  0  0
   32.1740   29.1820   36.4040 C   0  0  0  0  0  0  0  0  0  0  0  0
   31.9220   28.0430   35.7250 N   0  0  0  0  0  0  0  0  0  0  0  0
   32.4560   26.0040   35.4320 H   0  0  0  0  0  0  0  0  0  0  0  0
   34.2660   26.0900   37.1590 H   0  0  0  0  0  0  0  0  0  0  0  0
   35.9960   27.3500   38.5860 C   0  0  0  0  0  0  0  0  0  0  0  0
   34.9450   28.2320   38.6260 C   0  0  0  0  0  0  0  0  0  0  0  0
   34.9130   29.1960   39.6220 C   0  0  0  0  0  0  0  0  0  0  0  0
   35.9120   29.2980   40.5800 C   0  0  0  0  0  0  0  0  0  0  0  0
   36.0980   30.1370   41.6260 N   0  0  0  0  0  0  0  0  0  0  0  0
   37.2740   29.7670   42.2330 C   0  0  0  0  0  0  0  0  0  0  0  0
   37.7950   28.7060   41.5530 N   0  0  0  0  0  0  0  0  0  0  0  0
   36.9760   28.3990   40.5310 C   0  0  0  0  0  0  0  0  0  0  0  0
   37.0070   27.4410   39.5410 C   0  0  0  0  0  0  0  0  0  0  0  0
   36.1330   26.5560   37.8590 H   0  0  0  0  0  0  0  0  0  0  0  0
   34.0810   29.8840   39.6420 H   0  0  0  0  0  0  0  0  0  0  0  0
   35.4710   30.9310   41.9360 H   0  0  0  0  0  0  0  0  0  0  0  0
   37.6740   30.2690   43.1070 H   0  0  0  0  0  0  0  0  0  0  0  0
   37.8630   26.7800   39.5680 H   0  0  0  0  0  0  0  0  0  0  0  0
   30.4870   30.0070   38.6990 Cl  0  0  0  0  0  0  0  0  0  0  0  0
   30.5930   30.8680   37.1750 C   0  0  0  0  0  0  0  0  0  0  0  0
   31.4100   30.4040   36.1630 C   0  0  0  0  0  0  0  0  0  0  0  0
   31.5530   31.0170   34.9360 C   0  0  0  0  0  0  0  0  0  0  0  0
   32.2030   30.6250   34.1640 H   0  0  0  0  0  0  0  0  0  0  0  0
   30.7960   32.1800   34.7700 C   0  0  0  0  0  0  0  0  0  0  0  0
   30.8930   32.6830   33.8050 H   0  0  0  0  0  0  0  0  0  0  0  0
   29.9690   32.6800   35.7490 C   0  0  0  0  0  3  0  0  0  0  0  0
   29.8710   32.0190   36.9530 C   0  0  0  0  0  3  0  0  0  0  0  0
  1  2  1  0  0  0  0
  2  8  1  0  0  0  0
  2  3  2  0  0  0  0
  3 10  1  0  0  0  0
  4  3  1  0  0  0  0
  5  4  2  0  0  0  0
  6  1  2  0  0  0  0
  6  5  1  0  0  0  0
  7  1  1  0  0  0  0
  9 10  2  0  0  0  0
  9 17  1  0  0  0  0
 10 11  1  0  0  0  0
 11 19  1  0  0  0  0
 11 12  2  0  0  0  0
 12 13  1  0  0  0  0
 13 20  1  0  0  0  0
 13 14  1  0  0  0  0
 14 21  1  0  0  0  0
 15 14  2  0  0  0  0
 16 12  1  0  0  0  0
 16 15  1  0  0  0  0
 17 22  1  0  0  0  0
 17 16  2  0  0  0  0
 18  9  1  0  0  0  0
 24 23  1  0  0  0  0
 25  5  1  0  0  0  0
 25 24  2  0  0  0  0
 26 25  1  0  0  0  0
 27 26  1  0  0  0  0
 28 26  2  0  0  0  0
 28 30  1  0  0  0  0
 29 28  1  0  0  0  0
 30 31  2  0  0  0  0
 31 24  1  0  0  0  0
M  END
>  <minimizedAffinity>
-6.14866495

$$$$

 OpenBabel03242521353D

 31 34  0  0  0  0  0  0  0  0999 V2000
   35.8440   30.4100   40.8560 C   0  0  0  0  0  0  0  0  0  0  0  0
   36.9180   31.0210   40.1760 C   0  0  0  0  0  0  0  0  0  0  0  0
   37.9520   30.2350   39.7050 C   0  0  0  0  0  0  0  0  0  0  0  0
   37.9020   28.8870   39.9120 N   0  0  0  0  0  0  0  0  0  0  0  0
   36.8520   28.3160   40.5720 C   0  0  0  0  0  0  0  0  0  0  0  0
   35.8450   29.0870   41.0310 N   0  0  0  0  0  0  0  0  0  0  0  0
   35.0650   31.0600   41.2020 H   0  0  0  0  0  0  0  0  0  0  0  0
   37.0040   32.0760   39.9870 H   0  0  0  0  0  0  0  0  0  0  0  0
   39.8470   29.8600   38.2470 C   0  0  0  0  0  0  0  0  0  0  0  0
   39.1110   30.7480   38.9900 C   0  0  0  0  0  0  0  0  0  0  0  0
   39.5000   32.0790   39.0280 C   0  0  0  0  0  0  0  0  0  0  0  0
   40.6100   32.5410   38.3360 C   0  0  0  0  0  0  0  0  0  0  0  0
   41.1760   33.7650   38.2200 N   0  0  0  0  0  0  0  0  0  0  0  0
   42.2680   33.6270   37.3970 C   0  0  0  0  0  0  0  0  0  0  0  0
   42.3600   32.3200   37.0180 N   0  0  0  0  0  0  0  0  0  0  0  0
   41.3520   31.6320   37.5830 C   0  0  0  0  0  0  0  0  0  0  0  0
   40.9640   30.3100   37.5460 C   0  0  0  0  0  0  0  0  0  0  0  0
   39.6440   28.7990   38.1390 H   0  0  0  0  0  0  0  0  0  0  0  0
   38.9130   32.7670   39.6170 H   0  0  0  0  0  0  0  0  0  0  0  0
   40.8560   34.6680   38.6680 H   0  0  0  0  0  0  0  0  0  0  0  0
   42.9150   34.4540   37.1270 H   0  0  0  0  0  0  0  0  0  0  0  0
   41.5870   29.6640   36.9400 H   0  0  0  0  0  0  0  0  0  0  0  0
   37.7240   27.4690   43.2780 Cl  0  0  0  0  0  0  0  0  0  0  0  0
   37.2480   26.3750   41.9910 C   0  0  0  0  0  0  0  0  0  0  0  0
   36.8570   26.8670   40.7620 C   0  0  0  0  0  0  0  0  0  0  0  0
   36.4680   26.0810   39.6970 C   0  0  0  0  0  0  0  0  0  0  0  0
   36.1660   26.5010   38.7450 H   0  0  0  0  0  0  0  0  0  0  0  0
   36.4940   24.7050   39.9440 C   0  0  0  0  0  0  0  0  0  0  0  0
   36.1910   24.0620   39.1150 H   0  0  0  0  0  0  0  0  0  0  0  0
   36.8770   24.1700   41.1520 C   0  0  0  0  0  3  0  0  0  0  0  0
   37.2540   25.0110   42.1750 C   0  0  0  0  0  3  0  0  0  0  0  0
  1  6  1  0  0  0  0
  1  7  1  0  0  0  0
  2  1  2  0  0  0  0
  3  4  2  0  0  0  0
  3  2  1  0  0  0  0
  4  5  1  0  0  0  0
  5 25  1  0  0  0  0
  5  6  2  0  0  0  0
  8  2  1  0  0  0  0
  9 10  1  0  0  0  0
 10 11  2  0  0  0  0
 10  3  1  0  0  0  0
 11 19  1  0  0  0  0
 12 11  1  0  0  0  0
 13 12  1  0  0  0  0
 13 20  1  0  0  0  0
 14 13  1  0  0  0  0
 15 14  2  0  0  0  0
 15 16  1  0  0  0  0
 16 12  2  0  0  0  0
 17 16  1  0  0  0  0
 17  9  2  0  0  0  0
 18  9  1  0  0  0  0
 21 14  1  0  0  0  0
 22 17  1  0  0  0  0
 24 31  1  0  0  0  0
 24 23  1  0  0  0  0
 25 24  2  0  0  0  0
 26 28  2  0  0  0  0
 26 25  1  0  0  0  0
 27 26  1  0  0  0  0
 28 30  1  0  0  0  0
 29 28  1  0  0  0  0
 30 31  2  0  0  0  0
M  END
>  <minimizedAffinity>
-5.84944248

$$$$

 OpenBabel03242521353D

 31 34  0  0  0  0  0  0  0  0999 V2000
   39.5920   26.9420   43.6780 C   0  0  0  0  0  0  0  0  0  0  0  0
   39.3330   28.2590   43.2420 C   0  0  0  0  0  0  0  0  0  0  0  0
   38.6510   28.4540   42.0570 C   0  0  0  0  0  0  0  0  0  0  0  0
   38.2460   27.3640   41.3410 N   0  0  0  0  0  0  0  0  0  0  0  0
   38.5070   26.0990   41.7820 C   0  0  0  0  0  0  0  0  0  0  0  0
   39.1740   25.9120   42.9400 N   0  0  0  0  0  0  0  0  0  0  0  0
   40.1240   26.8410   44.6030 H   0  0  0  0  0  0  0  0  0  0  0  0
   39.6300   29.1480   43.7680 H   0  0  0  0  0  0  0  0  0  0  0  0
   37.1180   29.9010   40.8670 C   0  0  0  0  0  0  0  0  0  0  0  0
   38.3250   29.7600   41.5050 C   0  0  0  0  0  0  0  0  0  0  0  0
   39.1700   30.8560   41.5940 C   0  0  0  0  0  0  0  0  0  0  0  0
   38.8330   32.0910   41.0590 C   0  0  0  0  0  0  0  0  0  0  0  0
   39.4770   33.2820   41.0210 N   0  0  0  0  0  0  0  0  0  0  0  0
   38.6560   34.1600   40.3550 C   0  0  0  0  0  0  0  0  0  0  0  0
   37.5210   33.4990   39.9910 N   0  0  0  0  0  0  0  0  0  0  0  0
   37.6050   32.2250   40.4140 C   0  0  0  0  0  0  0  0  0  0  0  0
   36.7660   31.1350   40.3250 C   0  0  0  0  0  0  0  0  0  0  0  0
   36.3750   29.1210   40.7340 H   0  0  0  0  0  0  0  0  0  0  0  0
   40.1170   30.7330   42.0990 H   0  0  0  0  0  0  0  0  0  0  0  0
   40.4280   33.5140   41.4210 H   0  0  0  0  0  0  0  0  0  0  0  0
   38.9200   35.1970   40.1750 H   0  0  0  0  0  0  0  0  0  0  0  0
   35.8310   31.3150   39.8110 H   0  0  0  0  0  0  0  0  0  0  0  0
   40.6130   24.9420   40.0420 Cl  0  0  0  0  0  0  0  0  0  0  0  0
   38.9580   24.3670   40.1280 C   0  0  0  0  0  0  0  0  0  0  0  0
   38.0480   24.9730   40.9720 C   0  0  0  0  0  0  0  0  0  0  0  0
   36.7300   24.5860   41.1010 C   0  0  0  0  0  0  0  0  0  0  0  0
   36.0430   25.0850   41.7740 H   0  0  0  0  0  0  0  0  0  0  0  0
   36.3550   23.5050   40.2990 C   0  0  0  0  0  0  0  0  0  0  0  0
   35.3160   23.1810   40.3850 H   0  0  0  0  0  0  0  0  0  0  0  0
   37.2270   22.8700   39.4450 C   0  0  0  0  0  3  0  0  0  0  0  0
   38.5300   23.3060   39.3630 C   0  0  0  0  0  3  0  0  0  0  0  0
  1  7  1  0  0  0  0
  2  1  1  0  0  0  0
  2  8  1  0  0  0  0
  3  2  2  0  0  0  0
  4  5  2  0  0  0  0
  4  3  1  0  0  0  0
  5  6  1  0  0  0  0
  6  1  2  0  0  0  0
  9 10  1  0  0  0  0
 10 11  2  0  0  0  0
 10  3  1  0  0  0  0
 11 19  1  0  0  0  0
 12 11  1  0  0  0  0
 13 12  1  0  0  0  0
 13 20  1  0  0  0  0
 14 13  1  0  0  0  0
 15 14  2  0  0  0  0
 15 16  1  0  0  0  0
 16 12  2  0  0  0  0
 17 16  1  0  0  0  0
 17  9  2  0  0  0  0
 18  9  1  0  0  0  0
 21 14  1  0  0  0  0
 22 17  1  0  0  0  0
 23 24  1  0  0  0  0
 24 25  1  0  0  0  0
 25 26  2  0  0  0  0
 25  5  1  0  0  0  0
 26 27  1  0  0  0  0
 28 29  1  0  0  0  0
 28 26  1  0  0  0  0
 30 28  2  0  0  0  0
 31 30  1  0  0  0  0
 31 24  2  0  0  0  0
M  END
>  <minimizedAffinity>
-5.79082155

$$$$

 OpenBabel03242521353D

 31 34  0  0  0  0  0  0  0  0999 V2000
   37.4440   32.8150   40.0530 C   0  0  0  0  0  0  0  0  0  0  0  0
   38.5370   32.7160   39.1660 C   0  0  0  0  0  0  0  0  0  0  0  0
   39.2760   31.5500   39.1370 C   0  0  0  0  0  0  0  0  0  0  0  0
   38.9270   30.5250   39.9690 N   0  0  0  0  0  0  0  0  0  0  0  0
   37.8650   30.6430   40.8190 C   0  0  0  0  0  0  0  0  0  0  0  0
   37.1450   31.7840   40.8450 N   0  0  0  0  0  0  0  0  0  0  0  0
   36.9010   33.7390   40.0400 H   0  0  0  0  0  0  0  0  0  0  0  0
   38.8520   33.4920   38.4920 H   0  0  0  0  0  0  0  0  0  0  0  0
   41.1980   32.4130   37.9440 C   0  0  0  0  0  0  0  0  0  0  0  0
   40.4220   31.3280   38.2670 C   0  0  0  0  0  0  0  0  0  0  0  0
   40.7590   30.0840   37.7560 C   0  0  0  0  0  0  0  0  0  0  0  0
   41.8580   29.9010   36.9290 C   0  0  0  0  0  0  0  0  0  0  0  0
   42.3780   28.8090   36.3210 N   0  0  0  0  0  0  0  0  0  0  0  0
   43.4830   29.2280   35.6190 C   0  0  0  0  0  0  0  0  0  0  0  0
   43.6280   30.5710   35.8040 N   0  0  0  0  0  0  0  0  0  0  0  0
   42.6410   31.0080   36.6070 C   0  0  0  0  0  0  0  0  0  0  0  0
   42.3050   32.2450   37.1150 C   0  0  0  0  0  0  0  0  0  0  0  0
   41.0370   33.4330   38.2800 H   0  0  0  0  0  0  0  0  0  0  0  0
   40.1410   29.2380   38.0170 H   0  0  0  0  0  0  0  0  0  0  0  0
   42.0190   27.8150   36.3630 H   0  0  0  0  0  0  0  0  0  0  0  0
   44.1010   28.5580   35.0310 H   0  0  0  0  0  0  0  0  0  0  0  0
   42.9590   33.0560   36.8220 H   0  0  0  0  0  0  0  0  0  0  0  0
   35.8460   28.7990   39.6700 Cl  0  0  0  0  0  0  0  0  0  0  0  0
   36.6090   28.5970   41.2360 C   0  0  0  0  0  0  0  0  0  0  0  0
   37.5410   29.5120   41.6850 C   0  0  0  0  0  0  0  0  0  0  0  0
   38.1880   29.4300   42.9000 C   0  0  0  0  0  0  0  0  0  0  0  0
   38.9150   30.1660   43.2210 H   0  0  0  0  0  0  0  0  0  0  0  0
   37.8340   28.3250   43.6800 C   0  0  0  0  0  0  0  0  0  0  0  0
   38.3340   28.2400   44.6470 H   0  0  0  0  0  0  0  0  0  0  0  0
   36.9120   27.3890   43.2740 C   0  0  0  0  0  3  0  0  0  0  0  0
   36.3010   27.5290   42.0480 C   0  0  0  0  0  3  0  0  0  0  0  0
  1  6  1  0  0  0  0
  2  1  2  0  0  0  0
  3  2  1  0  0  0  0
  3  4  2  0  0  0  0
  4  5  1  0  0  0  0
  5  6  2  0  0  0  0
  5 25  1  0  0  0  0
  7  1  1  0  0  0  0
  8  2  1  0  0  0  0
  9 10  1  0  0  0  0
  9 18  1  0  0  0  0
 10  3  1  0  0  0  0
 11 19  1  0  0  0  0
 11 10  2  0  0  0  0
 12 11  1  0  0  0  0
 13 20  1  0  0  0  0
 13 12  1  0  0  0  0
 14 15  2  0  0  0  0
 14 13  1  0  0  0  0
 15 16  1  0  0  0  0
 16 12  2  0  0  0  0
 16 17  1  0  0  0  0
 17  9  2  0  0  0  0
 21 14  1  0  0  0  0
 22 17  1  0  0  0  0
 23 24  1  0  0  0  0
 24 25  2  0  0  0  0
 24 31  1  0  0  0  0
 25 26  1  0  0  0  0
 26 27  1  0  0  0  0
 26 28  2  0  0  0  0
 28 29  1  0  0  0  0
 30 28  1  0  0  0  0
 31 30  2  0  0  0  0
M  END
>  <minimizedAffinity>
-5.69503593

$$$$

 OpenBabel03242521353D

 31 34  0  0  0  0  0  0  0  0999 V2000
   35.8280   30.4420   40.6880 C   0  0  0  0  0  0  0  0  0  0  0  0
   37.0370   31.1370   40.9060 C   0  0  0  0  0  0  0  0  0  0  0  0
   38.1810   30.4210   41.1980 C   0  0  0  0  0  0  0  0  0  0  0  0
   38.1100   29.0600   41.2650 N   0  0  0  0  0  0  0  0  0  0  0  0
   36.9300   28.4080   41.0500 C   0  0  0  0  0  0  0  0  0  0  0  0
   35.8130   29.1100   40.7660 N   0  0  0  0  0  0  0  0  0  0  0  0
   34.9670   31.0400   40.4650 H   0  0  0  0  0  0  0  0  0  0  0  0
   37.1460   32.2060   40.8640 H   0  0  0  0  0  0  0  0  0  0  0  0
   40.2620   30.4810   42.4340 C   0  0  0  0  0  0  0  0  0  0  0  0
   39.4840   31.0230   41.4420 C   0  0  0  0  0  0  0  0  0  0  0  0
   39.9670   32.1080   40.7250 C   0  0  0  0  0  0  0  0  0  0  0  0
   41.2130   32.6620   40.9790 C   0  0  0  0  0  0  0  0  0  0  0  0
   41.8870   33.6980   40.4260 N   0  0  0  0  0  0  0  0  0  0  0  0
   43.0900   33.7910   41.0840 C   0  0  0  0  0  0  0  0  0  0  0  0
   43.1390   32.8130   42.0330 N   0  0  0  0  0  0  0  0  0  0  0  0
   41.9970   32.1050   41.9880 C   0  0  0  0  0  0  0  0  0  0  0  0
   41.5160   31.0270   42.7000 C   0  0  0  0  0  0  0  0  0  0  0  0
   39.9960   29.6360   43.0610 H   0  0  0  0  0  0  0  0  0  0  0  0
   39.3450   32.5250   39.9480 H   0  0  0  0  0  0  0  0  0  0  0  0
   41.5680   34.3270   39.6380 H   0  0  0  0  0  0  0  0  0  0  0  0
   43.8390   34.5390   40.8470 H   0  0  0  0  0  0  0  0  0  0  0  0
   42.1800   30.6490   43.4660 H   0  0  0  0  0  0  0  0  0  0  0  0
   36.9400   27.0540   38.4100 Cl  0  0  0  0  0  0  0  0  0  0  0  0
   36.9210   26.2290   39.9580 C   0  0  0  0  0  0  0  0  0  0  0  0
   36.9170   26.9490   41.1360 C   0  0  0  0  0  0  0  0  0  0  0  0
   36.9020   26.3830   42.3940 C   0  0  0  0  0  0  0  0  0  0  0  0
   36.9000   26.9790   43.2980 H   0  0  0  0  0  0  0  0  0  0  0  0
   36.8910   24.9850   42.4070 C   0  0  0  0  0  0  0  0  0  0  0  0
   36.8790   24.5140   43.3920 H   0  0  0  0  0  0  0  0  0  0  0  0
   36.8940   24.2270   41.2600 C   0  0  0  0  0  3  0  0  0  0  0  0
   36.9090   24.8550   40.0350 C   0  0  0  0  0  3  0  0  0  0  0  0
  1  6  2  0  0  0  0
  1  2  1  0  0  0  0
  2  3  2  0  0  0  0
  3  4  1  0  0  0  0
  3 10  1  0  0  0  0
  5 25  1  0  0  0  0
  5  4  2  0  0  0  0
  6  5  1  0  0  0  0
  7  1  1  0  0  0  0
  8  2  1  0  0  0  0
  9 17  1  0  0  0  0
  9 18  1  0  0  0  0
 10  9  2  0  0  0  0
 11 12  2  0  0  0  0
 11 10  1  0  0  0  0
 12 16  1  0  0  0  0
 13 12  1  0  0  0  0
 13 14  1  0  0  0  0
 14 15  2  0  0  0  0
 16 15  1  0  0  0  0
 16 17  2  0  0  0  0
 17 22  1  0  0  0  0
 19 11  1  0  0  0  0
 20 13  1  0  0  0  0
 21 14  1  0  0  0  0
 23 24  1  0  0  0  0
 24 31  2  0  0  0  0
 24 25  1  0  0  0  0
 25 26  2  0  0  0  0
 26 28  1  0  0  0  0
 26 27  1  0  0  0  0
 28 29  1  0  0  0  0
 30 28  2  0  0  0  0
 31 30  1  0  0  0  0
M  END
>  <minimizedAffinity>
-5.58603621

$$$$

 OpenBabel03242521353D

 31 34  0  0  0  0  0  0  0  0999 V2000
   35.4430   29.3170   40.7180 C   0  0  0  0  0  0  0  0  0  0  0  0
   36.3310   30.3240   40.2830 C   0  0  0  0  0  0  0  0  0  0  0  0
   37.6890   30.0750   40.2980 C   0  0  0  0  0  0  0  0  0  0  0  0
   38.1330   28.8600   40.7330 N   0  0  0  0  0  0  0  0  0  0  0  0
   37.2550   27.9000   41.1490 C   0  0  0  0  0  0  0  0  0  0  0  0
   35.9290   28.1470   41.1340 N   0  0  0  0  0  0  0  0  0  0  0  0
   34.3980   29.5570   40.6890 H   0  0  0  0  0  0  0  0  0  0  0  0
   36.0320   31.2950   39.9310 H   0  0  0  0  0  0  0  0  0  0  0  0
   38.8810   31.2150   38.5260 C   0  0  0  0  0  0  0  0  0  0  0  0
   38.7010   31.0310   39.8740 C   0  0  0  0  0  0  0  0  0  0  0  0
   39.4830   31.7550   40.7620 C   0  0  0  0  0  0  0  0  0  0  0  0
   40.4410   32.6610   40.3300 C   0  0  0  0  0  0  0  0  0  0  0  0
   41.3060   33.4670   40.9890 N   0  0  0  0  0  0  0  0  0  0  0  0
   42.0220   34.1520   40.0370 C   0  0  0  0  0  0  0  0  0  0  0  0
   41.5890   33.7580   38.8060 N   0  0  0  0  0  0  0  0  0  0  0  0
   40.6170   32.8420   38.9590 C   0  0  0  0  0  0  0  0  0  0  0  0
   39.8390   32.1220   38.0770 C   0  0  0  0  0  0  0  0  0  0  0  0
   38.3340   30.7100   37.7370 H   0  0  0  0  0  0  0  0  0  0  0  0
   39.3320   31.6010   41.8200 H   0  0  0  0  0  0  0  0  0  0  0  0
   41.4250   33.5660   42.0360 H   0  0  0  0  0  0  0  0  0  0  0  0
   42.7940   34.8740   40.2810 H   0  0  0  0  0  0  0  0  0  0  0  0
   40.0320   32.3160   37.0300 H   0  0  0  0  0  0  0  0  0  0  0  0
   39.3260   28.1530   43.2580 Cl  0  0  0  0  0  0  0  0  0  0  0  0
   38.7630   26.6340   42.5850 C   0  0  0  0  0  0  0  0  0  0  0  0
   37.7920   26.6200   41.6040 C   0  0  0  0  0  0  0  0  0  0  0  0
   37.2930   25.4730   41.0210 C   0  0  0  0  0  0  0  0  0  0  0  0
   36.5300   25.4980   40.2530 H   0  0  0  0  0  0  0  0  0  0  0  0
   37.8470   24.2830   41.5010 C   0  0  0  0  0  0  0  0  0  0  0  0
   37.4660   23.3620   41.0540 H   0  0  0  0  0  0  0  0  0  0  0  0
   38.8150   24.2490   42.4770 C   0  0  0  0  0  3  0  0  0  0  0  0
   39.2710   25.4300   43.0170 C   0  0  0  0  0  3  0  0  0  0  0  0
  1  6  1  0  0  0  0
  2  3  1  0  0  0  0
  2  1  2  0  0  0  0
  3  4  2  0  0  0  0
  4  5  1  0  0  0  0
  5 25  1  0  0  0  0
  6  5  2  0  0  0  0
  7  1  1  0  0  0  0
  8  2  1  0  0  0  0
  9 10  1  0  0  0  0
 10  3  1  0  0  0  0
 10 11  2  0  0  0  0
 11 19  1  0  0  0  0
 12 11  1  0  0  0  0
 12 13  1  0  0  0  0
 13 20  1  0  0  0  0
 14 21  1  0  0  0  0
 14 13  1  0  0  0  0
 15 16  1  0  0  0  0
 15 14  2  0  0  0  0
 16 12  2  0  0  0  0
 17  9  2  0  0  0  0
 17 16  1  0  0  0  0
 18  9  1  0  0  0  0
 22 17  1  0  0  0  0
 24 31  1  0  0  0  0
 24 23  1  0  0  0  0
 25 24  2  0  0  0  0
 26 28  2  0  0  0  0
 26 25  1  0  0  0  0
 27 26  1  0  0  0  0
 28 30  1  0  0  0  0
 29 28  1  0  0  0  0
 30 31  2  0  0  0  0
M  END
>  <minimizedAffinity>
-5.56476736

$$$$

 OpenBabel03242521353D

 31 34  0  0  0  0  0  0  0  0999 V2000
   37.0050   32.5470   39.9230 C   0  0  0  0  0  0  0  0  0  0  0  0
   38.3130   32.8950   39.5220 C   0  0  0  0  0  0  0  0  0  0  0  0
   39.3580   32.0450   39.8270 C   0  0  0  0  0  0  0  0  0  0  0  0
   39.0950   30.8910   40.5070 N   0  0  0  0  0  0  0  0  0  0  0  0
   37.8220   30.5750   40.8840 C   0  0  0  0  0  0  0  0  0  0  0  0
   36.8030   31.4080   40.5860 N   0  0  0  0  0  0  0  0  0  0  0  0
   36.2270   33.2380   39.6650 H   0  0  0  0  0  0  0  0  0  0  0  0
   38.5720   33.7890   38.9850 H   0  0  0  0  0  0  0  0  0  0  0  0
   41.7170   31.6290   40.1730 C   0  0  0  0  0  0  0  0  0  0  0  0
   40.7460   32.2940   39.4670 C   0  0  0  0  0  0  0  0  0  0  0  0
   41.1260   33.1620   38.4550 C   0  0  0  0  0  0  0  0  0  0  0  0
   42.4580   33.3800   38.1330 C   0  0  0  0  0  0  0  0  0  0  0  0
   43.0630   34.1610   37.2070 N   0  0  0  0  0  0  0  0  0  0  0  0
   44.4170   33.9730   37.3460 C   0  0  0  0  0  0  0  0  0  0  0  0
   44.6270   33.0800   38.3550 N   0  0  0  0  0  0  0  0  0  0  0  0
   43.4380   32.7000   38.8550 C   0  0  0  0  0  0  0  0  0  0  0  0
   43.0590   31.8370   39.8610 C   0  0  0  0  0  0  0  0  0  0  0  0
   41.5470   30.9270   40.9830 H   0  0  0  0  0  0  0  0  0  0  0  0
   40.3530   33.6790   37.9070 H   0  0  0  0  0  0  0  0  0  0  0  0
   42.6020   34.8010   36.5030 H   0  0  0  0  0  0  0  0  0  0  0  0
   45.1530   34.4780   36.7290 H   0  0  0  0  0  0  0  0  0  0  0  0
   43.8740   31.3460   40.3760 H   0  0  0  0  0  0  0  0  0  0  0  0
   36.8860   28.3430   39.1690 Cl  0  0  0  0  0  0  0  0  0  0  0  0
   37.1670   28.2280   40.8970 C   0  0  0  0  0  0  0  0  0  0  0  0
   37.6040   29.3260   41.6110 C   0  0  0  0  0  0  0  0  0  0  0  0
   37.8490   29.3240   42.9680 C   0  0  0  0  0  0  0  0  0  0  0  0
   38.1920   30.2050   43.4970 H   0  0  0  0  0  0  0  0  0  0  0  0
   37.6220   28.0990   43.6030 C   0  0  0  0  0  0  0  0  0  0  0  0
   37.8100   28.0740   44.6790 H   0  0  0  0  0  0  0  0  0  0  0  0
   37.1870   26.9800   42.9330 C   0  0  0  0  0  3  0  0  0  0  0  0
   36.9610   27.0490   41.5770 C   0  0  0  0  0  3  0  0  0  0  0  0
  1  6  1  0  0  0  0
  2  3  1  0  0  0  0
  2  1  2  0  0  0  0
  3  4  2  0  0  0  0
  4  5  1  0  0  0  0
  5 25  1  0  0  0  0
  6  5  2  0  0  0  0
  7  1  1  0  0  0  0
  8  2  1  0  0  0  0
  9 18  1  0  0  0  0
 10  3  1  0  0  0  0
 10  9  2  0  0  0  0
 11 10  1  0  0  0  0
 12 11  2  0  0  0  0
 12 16  1  0  0  0  0
 13 14  1  0  0  0  0
 13 12  1  0  0  0  0
 14 15  2  0  0  0  0
 15 16  1  0  0  0  0
 16 17  2  0  0  0  0
 17  9  1  0  0  0  0
 17 22  1  0  0  0  0
 19 11  1  0  0  0  0
 20 13  1  0  0  0  0
 21 14  1  0  0  0  0
 23 24  1  0  0  0  0
 24 31  2  0  0  0  0
 24 25  1  0  0  0  0
 25 26  2  0  0  0  0
 26 27  1  0  0  0  0
 26 28  1  0  0  0  0
 28 29  1  0  0  0  0
 30 28  2  0  0  0  0
 31 30  1  0  0  0  0
M  END
>  <minimizedAffinity>
-5.50157022

$$$$

 OpenBabel03242521353D

 31 34  0  0  0  0  0  0  0  0999 V2000
   36.1980   30.0020   38.0350 C   0  0  0  0  0  0  0  0  0  0  0  0
   37.2730   30.9160   38.0500 C   0  0  0  0  0  0  0  0  0  0  0  0
   38.2630   30.7760   39.0020 C   0  0  0  0  0  0  0  0  0  0  0  0
   38.1730   29.7540   39.9020 N   0  0  0  0  0  0  0  0  0  0  0  0
   37.1240   28.8800   39.8690 C   0  0  0  0  0  0  0  0  0  0  0  0
   36.1590   29.0210   38.9370 N   0  0  0  0  0  0  0  0  0  0  0  0
   35.4550   30.1510   37.2770 H   0  0  0  0  0  0  0  0  0  0  0  0
   37.3900   31.7360   37.3640 H   0  0  0  0  0  0  0  0  0  0  0  0
   39.9880   32.1150   37.9580 C   0  0  0  0  0  0  0  0  0  0  0  0
   39.4180   31.6540   39.1190 C   0  0  0  0  0  0  0  0  0  0  0  0
   39.9620   32.0390   40.3350 C   0  0  0  0  0  0  0  0  0  0  0  0
   41.0640   32.8770   40.4160 C   0  0  0  0  0  0  0  0  0  0  0  0
   41.7580   33.3820   41.4630 N   0  0  0  0  0  0  0  0  0  0  0  0
   42.7630   34.1610   40.9400 C   0  0  0  0  0  0  0  0  0  0  0  0
   42.6730   34.1250   39.5800 N   0  0  0  0  0  0  0  0  0  0  0  0
   41.6360   33.3420   39.2330 C   0  0  0  0  0  0  0  0  0  0  0  0
   41.0950   32.9590   38.0250 C   0  0  0  0  0  0  0  0  0  0  0  0
   39.6550   31.8860   36.9510 H   0  0  0  0  0  0  0  0  0  0  0  0
   39.5040   31.6680   41.2400 H   0  0  0  0  0  0  0  0  0  0  0  0
   41.5800   33.2210   42.4930 H   0  0  0  0  0  0  0  0  0  0  0  0
   43.4810   34.6930   41.5550 H   0  0  0  0  0  0  0  0  0  0  0  0
   41.5920   33.3590   37.1510 H   0  0  0  0  0  0  0  0  0  0  0  0
   38.1820   26.2940   38.8730 Cl  0  0  0  0  0  0  0  0  0  0  0  0
   37.5550   26.5630   40.4890 C   0  0  0  0  0  0  0  0  0  0  0  0
   37.0840   27.8060   40.8590 C   0  0  0  0  0  0  0  0  0  0  0  0
   36.5750   28.1050   42.1060 C   0  0  0  0  0  0  0  0  0  0  0  0
   36.2130   29.0930   42.3640 H   0  0  0  0  0  0  0  0  0  0  0  0
   36.5640   27.0360   43.0070 C   0  0  0  0  0  0  0  0  0  0  0  0
   36.1650   27.2490   44.0010 H   0  0  0  0  0  0  0  0  0  0  0  0
   37.0240   25.7810   42.6820 C   0  0  0  0  0  3  0  0  0  0  0  0
   37.5190   25.5490   41.4190 C   0  0  0  0  0  3  0  0  0  0  0  0
  1  2  2  0  0  0  0
  1  6  1  0  0  0  0
  2  3  1  0  0  0  0
  3 10  1  0  0  0  0
  3  4  2  0  0  0  0
  5  4  1  0  0  0  0
  5 25  1  0  0  0  0
  6  5  2  0  0  0  0
  7  1  1  0  0  0  0
  8  2  1  0  0  0  0
  9 17  2  0  0  0  0
  9 10  1  0  0  0  0
 10 11  2  0  0  0  0
 11 12  1  0  0  0  0
 11 19  1  0  0  0  0
 12 13  1  0  0  0  0
 13 20  1  0  0  0  0
 14 13  1  0  0  0  0
 14 21  1  0  0  0  0
 15 14  2  0  0  0  0
 16 15  1  0  0  0  0
 16 12  2  0  0  0  0
 17 16  1  0  0  0  0
 18  9  1  0  0  0  0
 22 17  1  0  0  0  0
 23 24  1  0  0  0  0
 24 25  2  0  0  0  0
 24 31  1  0  0  0  0
 25 26  1  0  0  0  0
 26 27  1  0  0  0  0
 26 28  2  0  0  0  0
 28 29  1  0  0  0  0
 30 28  1  0  0  0  0
 31 30  2  0  0  0  0
M  END
>  <minimizedAffinity>
-5.45667791

$$$$

 OpenBabel03242521353D

 31 34  0  0  0  0  0  0  0  0999 V2000
   32.9200   27.0440   36.0030 C   0  0  0  0  0  0  0  0  0  0  0  0
   33.9680   27.0500   36.9480 C   0  0  0  0  0  0  0  0  0  0  0  0
   34.0850   28.1170   37.8170 C   0  0  0  0  0  0  0  0  0  0  0  0
   33.1800   29.1360   37.7360 N   0  0  0  0  0  0  0  0  0  0  0  0
   32.1730   29.1090   36.8140 C   0  0  0  0  0  0  0  0  0  0  0  0
   32.0630   28.0650   35.9670 N   0  0  0  0  0  0  0  0  0  0  0  0
   32.8710   26.1950   35.3500 H   0  0  0  0  0  0  0  0  0  0  0  0
   34.7050   26.2740   37.0530 H   0  0  0  0  0  0  0  0  0  0  0  0
   34.9350   29.1670   39.8260 C   0  0  0  0  0  0  0  0  0  0  0  0
   35.1200   28.2370   38.8330 C   0  0  0  0  0  0  0  0  0  0  0  0
   36.2700   27.4630   38.8420 C   0  0  0  0  0  0  0  0  0  0  0  0
   37.2410   27.5980   39.8240 C   0  0  0  0  0  0  0  0  0  0  0  0
   38.4220   26.9720   40.0400 N   0  0  0  0  0  0  0  0  0  0  0  0
   38.9650   27.5210   41.1760 C   0  0  0  0  0  0  0  0  0  0  0  0
   38.1140   28.4780   41.6430 N   0  0  0  0  0  0  0  0  0  0  0  0
   37.0460   28.5440   40.8280 C   0  0  0  0  0  0  0  0  0  0  0  0
   35.9020   29.3130   40.8190 C   0  0  0  0  0  0  0  0  0  0  0  0
   34.0810   29.8280   39.9270 H   0  0  0  0  0  0  0  0  0  0  0  0
   36.4040   26.7360   38.0550 H   0  0  0  0  0  0  0  0  0  0  0  0
   38.8600   26.2040   39.4590 H   0  0  0  0  0  0  0  0  0  0  0  0
   39.9180   27.2080   41.5890 H   0  0  0  0  0  0  0  0  0  0  0  0
   35.8190   30.0250   41.6300 H   0  0  0  0  0  0  0  0  0  0  0  0
   32.2820   30.6740   34.2970 Cl  0  0  0  0  0  0  0  0  0  0  0  0
   31.2130   31.0180   35.6440 C   0  0  0  0  0  0  0  0  0  0  0  0
   31.2360   30.2300   36.7770 C   0  0  0  0  0  0  0  0  0  0  0  0
   30.4320   30.4280   37.8800 C   0  0  0  0  0  0  0  0  0  0  0  0
   30.4760   29.7890   38.7530 H   0  0  0  0  0  0  0  0  0  0  0  0
   29.5590   31.5150   37.7800 C   0  0  0  0  0  0  0  0  0  0  0  0
   28.9120   31.6920   38.6420 H   0  0  0  0  0  0  0  0  0  0  0  0
   29.5010   32.3280   36.6720 C   0  0  0  0  0  3  0  0  0  0  0  0
   30.3310   32.0750   35.6040 C   0  0  0  0  0  3  0  0  0  0  0  0
  1  2  1  0  0  0  0
  2  8  1  0  0  0  0
  2  3  2  0  0  0  0
  3 10  1  0  0  0  0
  4  3  1  0  0  0  0
  5  4  2  0  0  0  0
  6  1  2  0  0  0  0
  6  5  1  0  0  0  0
  7  1  1  0  0  0  0
  9 18  1  0  0  0  0
  9 17  1  0  0  0  0
 10 11  1  0  0  0  0
 10  9  2  0  0  0  0
 11 12  2  0  0  0  0
 12 13  1  0  0  0  0
 12 16  1  0  0  0  0
 13 14  1  0  0  0  0
 14 21  1  0  0  0  0
 14 15  2  0  0  0  0
 16 15  1  0  0  0  0
 17 16  2  0  0  0  0
 17 22  1  0  0  0  0
 19 11  1  0  0  0  0
 20 13  1  0  0  0  0
 23 24  1  0  0  0  0
 24 25  1  0  0  0  0
 25  5  1  0  0  0  0
 25 26  2  0  0  0  0
 26 27  1  0  0  0  0
 28 26  1  0  0  0  0
 28 29  1  0  0  0  0
 30 28  2  0  0  0  0
 31 24  2  0  0  0  0
 31 30  1  0  0  0  0
M  END
>  <minimizedAffinity>
-5.43331146

$$$$
