
     RDKit          3D

 43 46  0  0  0  0  0  0  0  0999 V2000
   45.1369   33.9339   40.7004 C   0  0  0  0  0  0  0  0  0  0  0  0
   44.0784   33.6356   39.8792 C   0  0  0  0  0  0  0  0  0  0  0  0
   44.3802   33.1604   38.6268 C   0  0  0  0  0  0  0  0  0  0  0  0
   45.6576   32.9740   38.1680 C   0  0  0  0  0  0  0  0  0  0  0  0
   46.6826   33.2836   39.0182 C   0  0  0  0  0  0  0  0  0  0  0  0
   46.4510   33.7650   40.2892 C   0  0  0  0  0  0  0  0  0  0  0  0
   40.7988   35.2648   40.7845 C   0  0  0  0  0  0  0  0  0  0  0  0
   42.0951   35.0852   40.2716 C   0  0  0  0  0  0  0  0  0  0  0  0
   42.7450   33.8457   40.3986 C   0  0  0  0  0  0  0  0  0  0  0  0
   42.0326   32.8861   41.0340 N   0  0  0  0  0  0  0  0  0  0  0  0
   40.8046   33.0696   41.5154 C   0  0  0  0  0  0  0  0  0  0  0  0
   40.1908   34.2559   41.3903 N   0  0  0  0  0  0  0  0  0  0  0  0
   40.1929   36.5230   40.6317 N   0  0  0  0  0  0  0  0  0  0  0  0
   47.6025   34.0647   41.1162 C   0  0  0  0  0  0  0  0  0  0  0  0
   48.1402   35.3269   40.9533 C   0  0  0  0  0  0  0  0  0  0  0  0
   49.2404   35.8030   41.6546 C   0  0  0  0  0  0  0  0  0  0  0  0
   49.8216   34.9544   42.5652 C   0  0  0  0  0  0  0  0  0  0  0  0
   49.3085   33.6971   42.7465 C   0  0  0  0  0  0  0  0  0  0  0  0
   48.2039   33.2434   42.0304 C   0  0  0  0  0  0  0  0  0  0  0  0
   44.7205   34.8449   43.1195 N   0  0  0  0  0  0  0  0  0  0  0  0
   44.9009   34.4397   42.0316 C   0  0  0  0  0  0  0  0  0  0  0  0
   43.5529   32.9213   37.9712 H   0  0  0  0  0  0  0  0  0  0  0  0
   45.8774   32.5984   37.1763 H   0  0  0  0  0  0  0  0  0  0  0  0
   47.7030   33.1423   38.6725 H   0  0  0  0  0  0  0  0  0  0  0  0
   42.6426   35.8675   39.7677 H   0  0  0  0  0  0  0  0  0  0  0  0
   40.3305   32.2163   42.0102 H   0  0  0  0  0  0  0  0  0  0  0  0
   39.9083   37.1814   41.3832 H   0  0  0  0  0  0  0  0  0  0  0  0
   40.0776   36.6806   39.6005 H   0  0  0  0  0  0  0  0  0  0  0  0
   47.7282   36.0611   40.2428 H   0  0  0  0  0  0  0  0  0  0  0  0
   49.6422   36.7941   41.5097 H   0  0  0  0  0  0  0  0  0  0  0  0
   50.6876   35.3104   43.1258 H   0  0  0  0  0  0  0  0  0  0  0  0
   49.7762   33.0361   43.4677 H   0  0  0  0  0  0  0  0  0  0  0  0
   50.2708   31.0563   42.4134 Cl  0  0  0  0  0  0  0  0  0  0  0  0
   48.5256   30.8590   42.3876 C   0  0  0  0  0  0  0  0  0  0  0  0
   47.6537   31.9215   42.2077 C   0  0  0  0  0  0  0  0  0  0  0  0
   46.3189   31.5846   42.2156 C   0  0  0  0  0  0  0  0  0  0  0  0
   45.6054   32.3849   42.0760 H   0  0  0  0  0  0  0  0  0  0  0  0
   45.8299   30.3068   42.3854 C   0  0  0  0  0  0  0  0  0  0  0  0
   44.7776   30.1482   42.3758 H   0  0  0  0  0  0  0  0  0  0  0  0
   46.7287   29.2745   42.5621 C   0  0  0  0  0  0  0  0  0  0  0  0
   48.0787   29.5544   42.5625 C   0  0  0  0  0  0  0  0  0  0  0  0
   46.3465   28.2775   42.6945 H   0  0  0  0  0  0  0  0  0  0  0  0
   48.7101   28.7019   42.7045 H   0  0  0  0  0  0  0  0  0  0  0  0
  1 21  1  0
  2  9  1  0
  2  1  2  0
  3  2  1  0
  4  3  2  0
  4  5  1  0
  5  6  2  0
  6  1  1  0
  6 14  1  0
  7 12  2  0
  8  9  2  0
  8  7  1  0
  9 10  1  0
 10 11  2  0
 12 11  1  0
 13  7  1  0
 14 19  1  0
 15 14  2  0
 15 16  1  0
 16 17  2  0
 17 18  1  0
 19 18  2  0
 21 20  3  0
  3 22  1  0
  4 23  1  0
  5 24  1  0
  8 25  1  0
 11 26  1  0
 13 27  1  0
 13 28  1  0
 15 29  1  0
 16 30  1  0
 17 31  1  0
 18 32  1  0
 33 34  1  0
 34 35  2  0
 35 36  1  0
 36 37  1  0
 36 38  2  0
 38 39  1  0
 38 40  1  0
 40 41  2  0
 41 34  1  0
 40 42  1  0
 41 43  1  0
 19 35  1  0
M  ISO  8  22  14  23  14  24  14  25  14  26  14  29  14  30  14  31  14
M  ISO  3  32  14  37  15  39  16
M  END
>  <DihAtoms>  (1) 
13,18,34,33

>  <DihDeg>  (1) 
-114.37864420908197

$$$$
