
 OpenBabel03252508393D

 41 44  0  0  0  0  0  0  0  0999 V2000
   45.1380   33.9700   40.7320 C   0  0  0  0  0  0  0  0  0  0  0  0
   44.0790   33.6270   39.9280 C   0  0  0  0  0  0  0  0  0  0  0  0
   44.3820   33.0940   38.7000 C   0  0  0  0  0  0  0  0  0  0  0  0
   45.6600   32.8920   38.2480 C   0  0  0  0  0  0  0  0  0  0  0  0
   46.6850   33.2480   39.0800 C   0  0  0  0  0  0  0  0  0  0  0  0
   46.4520   33.7880   40.3270 C   0  0  0  0  0  0  0  0  0  0  0  0
   43.5550   32.8190   38.0580 H   0  0  0  0  0  0  0  0  0  0  0  0
   45.8790   32.4700   37.2750 H   0  0  0  0  0  0  0  0  0  0  0  0
   47.7050   33.0940   38.7390 H   0  0  0  0  0  0  0  0  0  0  0  0
   40.8120   35.2970   40.8040 C   0  0  0  0  0  0  0  0  0  0  0  0
   42.1090   35.0990   40.2980 C   0  0  0  0  0  0  0  0  0  0  0  0
   42.7460   33.8550   40.4400 C   0  0  0  0  0  0  0  0  0  0  0  0
   42.0220   32.9080   41.0810 N   0  0  0  0  0  0  0  0  0  0  0  0
   40.7940   33.1090   41.5550 C   0  0  0  0  0  0  0  0  0  0  0  0
   40.1920   34.3000   41.4150 N   0  0  0  0  0  0  0  0  0  0  0  0
   40.2190   36.5590   40.6360 N   0  0  0  0  0  0  0  0  0  0  0  0
   42.6670   35.8710   39.7890 H   0  0  0  0  0  0  0  0  0  0  0  0
   40.3090   32.2640   42.0560 H   0  0  0  0  0  0  0  0  0  0  0  0
   39.9370   37.2270   41.3790 H   0  0  0  0  0  0  0  0  0  0  0  0
   40.1100   36.7080   39.6020 H   0  0  0  0  0  0  0  0  0  0  0  0
   47.6030   34.1330   41.1370 C   0  0  0  0  0  0  0  0  0  0  0  0
   48.1440   35.3820   40.9010 C   0  0  0  0  0  0  0  0  0  0  0  0
   49.2450   35.8950   41.5750 C   0  0  0  0  0  0  0  0  0  0  0  0
   49.8240   35.0990   42.5340 C   0  0  0  0  0  0  0  0  0  0  0  0
   49.3070   33.8560   42.7880 C   0  0  0  0  0  0  0  0  0  0  0  0
   48.2020   33.3640   42.0980 C   0  0  0  0  0  0  0  0  0  0  0  0
   47.7350   36.0740   40.1490 H   0  0  0  0  0  0  0  0  0  0  0  0
   49.6500   36.8750   41.3730 H   0  0  0  0  0  0  0  0  0  0  0  0
   50.6900   35.4850   43.0740 H   0  0  0  0  0  0  0  0  0  0  0  0
   49.7710   33.2380   43.5480 H   0  0  0  0  0  0  0  0  0  0  0  0
   46.8360   33.0730   44.7910 Cl  0  0  0  0  0  0  0  0  0  0  0  0
   47.0060   31.8320   43.5600 C   0  0  0  0  0  0  0  0  0  0  0  0
   47.6480   32.0570   42.3520 C   0  0  0  0  0  0  0  0  0  0  0  0
   47.6870   30.9720   41.5050 C   0  0  0  0  0  0  0  0  0  0  0  0
   48.1810   31.1050   40.5530 H   0  0  0  0  0  0  0  0  0  0  0  0
   47.1480   29.7350   41.7840 C   0  0  0  0  0  0  0  0  0  0  0  0
   47.2310   28.9570   41.0620 H   0  0  0  0  0  0  0  0  0  0  0  0
   46.5160   29.5490   42.9980 C   0  0  0  0  0  3  0  0  0  0  0  0
   46.4470   30.6010   43.8850 C   0  0  0  0  0  3  0  0  0  0  0  0
   44.7210   34.9930   43.1070 N   0  0  0  0  0  0  0  0  0  0  0  0
   44.9020   34.5380   42.0390 C   0  0  0  0  0  0  0  0  0  0  0  0
  1 41  1  0  0  0  0
  2 12  1  0  0  0  0
  2  1  2  0  0  0  0
  3  2  1  0  0  0  0
  4  3  2  0  0  0  0
  4  5  1  0  0  0  0
  5  6  2  0  0  0  0
  6  1  1  0  0  0  0
  6 21  1  0  0  0  0
  7  3  1  0  0  0  0
  8  4  1  0  0  0  0
  9  5  1  0  0  0  0
 10 15  1  0  0  0  0
 11 12  1  0  0  0  0
 11 10  2  0  0  0  0
 12 13  2  0  0  0  0
 13 14  1  0  0  0  0
 14 18  1  0  0  0  0
 15 14  2  0  0  0  0
 16 10  1  0  0  0  0
 16 19  1  0  0  0  0
 17 11  1  0  0  0  0
 20 16  1  0  0  0  0
 21 26  1  0  0  0  0
 22 21  2  0  0  0  0
 22 23  1  0  0  0  0
 23 24  2  0  0  0  0
 24 25  1  0  0  0  0
 24 29  1  0  0  0  0
 25 30  1  0  0  0  0
 26 33  1  0  0  0  0
 26 25  2  0  0  0  0
 27 22  1  0  0  0  0
 28 23  1  0  0  0  0
 32 39  1  0  0  0  0
 32 31  1  0  0  0  0
 33 32  2  0  0  0  0
 34 36  2  0  0  0  0
 34 33  1  0  0  0  0
 35 34  1  0  0  0  0
 36 38  1  0  0  0  0
 37 36  1  0  0  0  0
 38 39  2  0  0  0  0
 41 40  3  0  0  0  0
M  END
>  <minimizedAffinity>
-6.30491924

>  <minimizedRMSD>
0.510457754

$$$$
