
     RDKit          3D

 27 28  0  0  0  0  0  0  0  0999 V2000
   47.0924   34.3858   43.0933 C   0  0  0  0  0  0  0  0  0  0  0  0
   45.7749   34.5961   43.5049 C   0  0  0  0  0  0  0  0  0  0  0  0
   45.2578   33.7603   44.5046 C   0  0  0  0  0  0  0  0  0  0  0  0
   46.0510   32.8008   45.0170 N   0  0  0  0  0  0  0  0  0  0  0  0
   47.3282   32.6279   44.5898 C   0  0  0  0  0  0  0  0  0  0  0  0
   47.8562   33.4085   43.6355 N   0  0  0  0  0  0  0  0  0  0  0  0
   44.9845   35.6862   42.8719 C   0  0  0  0  0  0  0  0  0  0  0  0
   45.6184   36.9061   43.0672 F   0  0  0  0  0  0  0  0  0  0  0  0
   44.9577   35.4619   41.5087 F   0  0  0  0  0  0  0  0  0  0  0  0
   43.7184   35.8081   43.3435 F   0  0  0  0  0  0  0  0  0  0  0  0
   47.5792   35.1964   42.1306 O   0  0  0  0  0  0  0  0  0  0  0  0
   48.8720   35.1887   41.5674 C   0  0  0  0  0  0  0  0  0  0  0  0
   49.7615   35.4877   42.6071 F   0  0  0  0  0  0  0  0  0  0  0  0
   49.1266   33.9681   41.0090 F   0  0  0  0  0  0  0  0  0  0  0  0
   49.0104   36.2353   40.6787 F   0  0  0  0  0  0  0  0  0  0  0  0
   44.2536   33.9108   44.8271 H   0  0  0  0  0  0  0  0  0  0  0  0
   46.6754   29.8549   43.6689 Cl  0  0  0  0  0  0  0  0  0  0  0  0
   47.9288   30.2477   44.7917 C   0  0  0  0  0  0  0  0  0  0  0  0
   48.1648   31.5752   45.1672 C   0  0  0  0  0  0  0  0  0  0  0  0
   49.1773   31.8471   46.0684 C   0  0  0  0  0  0  0  0  0  0  0  0
   49.3790   32.8652   46.3741 H   0  0  0  0  0  0  0  0  0  0  0  0
   49.9219   30.7988   46.5677 C   0  0  0  0  0  0  0  0  0  0  0  0
   50.7268   30.9362   47.2737 H   0  0  0  0  0  0  0  0  0  0  0  0
   49.7196   29.4798   46.2220 C   0  0  0  0  0  0  0  0  0  0  0  0
   48.6939   29.2078   45.3097 C   0  0  0  0  0  0  0  0  0  0  0  0
   50.2988   28.6523   46.6089 H   0  0  0  0  0  0  0  0  0  0  0  0
   48.5210   28.1814   45.0275 H   0  0  0  0  0  0  0  0  0  0  0  0
  1  2  2  0
  1  6  1  0
  2  3  1  0
  3  4  2  0
  5  4  1  0
  6  5  2  0
  7  8  1  0
  7 10  1  0
  7  2  1  0
  9  7  1  0
 11  1  1  0
 12 11  1  0
 12 13  1  0
 14 12  1  0
 15 12  1  0
  3 16  1  0
 17 18  1  0
 18 19  2  0
 19 20  1  0
 20 21  1  0
 20 22  2  0
 22 23  1  0
 22 24  1  0
 24 25  2  0
 25 18  1  0
 24 26  1  0
 25 27  1  0
  5 19  1  0
M  ISO  3  16  14  21  15  23  16
M  END
>  <DihAtoms>  (1) 
3,4,18,17

>  <DihDeg>  (1) 
9.916450804998988e-05

$$$$
