
 OpenBabel03252502393D

 46 49  0  0  1  0  0  0  0  0999 V2000
   45.5400   32.6720   41.1190 C   0  0  1  0  0  0  0  0  0  0  0  0
   46.1200   32.4690   42.0690 H   0  0  0  0  0  0  0  0  0  0  0  0
   44.9180   31.4220   40.7750 N   0  0  0  0  0  0  0  0  0  0  0  0
   45.4760   30.3130   41.4520 C   0  0  0  0  0  0  0  0  0  0  0  0
   44.9840   29.0750   40.6840 C   0  0  0  0  0  0  0  0  0  0  0  0
   43.5900   29.0050   41.0420 N   0  0  0  0  0  0  0  0  0  0  0  0
   42.8580   30.1320   40.6290 C   0  0  0  0  0  0  0  0  0  0  0  0
   43.5210   31.4780   40.8770 C   0  0  0  0  0  0  0  0  0  0  0  0
   46.5750   30.3000   41.4630 H   0  0  0  0  0  0  0  0  0  0  0  0
   45.0600   30.2560   42.4630 H   0  0  0  0  0  0  0  0  0  0  0  0
   45.0970   29.2740   39.5970 H   0  0  0  0  0  0  0  0  0  0  0  0
   45.4700   28.1520   41.0150 H   0  0  0  0  0  0  0  0  0  0  0  0
   43.2000   28.1640   40.6130 H   0  0  0  0  0  0  0  0  0  0  0  0
   41.8380   30.0850   41.0930 H   0  0  0  0  0  0  0  0  0  0  0  0
   42.6320   30.0300   39.5260 H   0  0  0  0  0  0  0  0  0  0  0  0
   42.9190   32.1490   40.3110 H   0  0  0  0  0  0  0  0  0  0  0  0
   43.3320   31.5310   41.9980 H   0  0  0  0  0  0  0  0  0  0  0  0
   47.4870   34.0800   40.4460 C   0  0  0  0  0  0  0  0  0  0  0  0
   46.4290   33.2370   40.1520 C   0  0  0  0  0  0  0  0  0  0  0  0
   46.2480   32.9340   38.7890 C   0  0  0  0  0  0  0  0  0  0  0  0
   47.0940   33.4670   37.8530 N   0  0  0  0  0  0  0  0  0  0  0  0
   48.1060   34.2840   38.2090 C   0  0  0  0  0  0  0  0  0  0  0  0
   48.3040   34.5930   39.5160 N   0  0  0  0  0  0  0  0  0  0  0  0
   47.6690   34.3420   41.4710 H   0  0  0  0  0  0  0  0  0  0  0  0
   45.4690   32.2920   38.4110 H   0  0  0  0  0  0  0  0  0  0  0  0
   48.7020   34.6380   37.3570 H   0  0  0  0  0  0  0  0  0  0  0  0
   44.4460   33.7030   41.4220 C   0  0  0  0  0  0  0  0  0  0  0  0
   44.1590   34.3480   40.5940 H   0  0  0  0  0  0  0  0  0  0  0  0
   43.5630   32.9840   41.4180 H   0  0  0  0  0  0  0  0  0  0  0  0
   44.5720   34.4230   42.6450 C   0  0  0  0  0  0  0  0  0  0  0  0
   44.3500   35.6760   43.1050 C   0  0  0  0  0  0  0  0  0  0  0  0
   44.5630   36.1750   44.3750 C   0  0  0  0  0  0  0  0  0  0  0  0
   45.0480   35.3040   45.2490 N   0  0  0  0  0  0  0  0  0  0  0  0
   45.2960   34.0630   44.8960 C   0  0  0  0  0  0  0  0  0  0  0  0
   45.0620   33.6640   43.6530 N   0  0  0  0  0  0  0  0  0  0  0  0
   43.9550   36.3280   42.3010 H   0  0  0  0  0  0  0  0  0  0  0  0
   44.3110   37.2250   44.5230 H   0  0  0  0  0  0  0  0  0  0  0  0
   47.6190   32.2860   44.0400 Cl  0  0  0  0  0  0  0  0  0  0  0  0
   46.8700   32.3020   45.6160 C   0  0  0  0  0  0  0  0  0  0  0  0
   45.8380   33.1260   45.9160 C   0  0  0  0  0  0  0  0  0  0  0  0
   45.2570   33.1270   47.1690 C   0  0  0  0  0  0  0  0  0  0  0  0
   44.4270   33.8170   47.3450 H   0  0  0  0  0  0  0  0  0  0  0  0
   45.6920   32.2890   48.1890 C   0  0  0  0  0  0  0  0  0  0  0  0
   45.2080   32.3240   49.1540 H   0  0  0  0  0  0  0  0  0  0  0  0
   46.7440   31.4570   47.8640 C   0  0  0  0  0  0  0  0  0  0  0  0
   47.3390   31.4410   46.6180 C   0  0  0  0  0  0  0  0  0  0  0  0
  1 27  1  0  0  0  0
  1  2  1  1  0  0  0
  3  8  1  0  0  0  0
  3  1  1  0  0  0  0
  3  4  1  0  0  0  0
  4  9  1  0  0  0  0
  4 10  1  0  0  0  0
  5 12  1  0  0  0  0
  5  6  1  0  0  0  0
  5  4  1  0  0  0  0
  7  8  1  0  0  0  0
  7  6  1  0  0  0  0
  7 14  1  0  0  0  0
  8 17  1  0  0  0  0
 11  5  1  0  0  0  0
 13  6  1  0  0  0  0
 15  7  1  0  0  0  0
 16  8  1  0  0  0  0
 18 24  1  0  0  0  0
 19 18  1  0  0  0  0
 19  1  1  0  0  0  0
 20 19  2  0  0  0  0
 21 22  2  0  0  0  0
 21 20  1  0  0  0  0
 22 23  1  0  0  0  0
 23 18  2  0  0  0  0
 25 20  1  0  0  0  0
 26 22  1  0  0  0  0
 27 30  1  0  0  0  0
 28 27  1  0  0  0  0
 29 27  1  0  0  0  0
 30 31  2  0  0  0  0
 30 35  1  0  0  0  0
 31 32  1  0  0  0  0
 32 37  1  0  0  0  0
 32 33  2  0  0  0  0
 34 33  1  0  0  0  0
 34 40  1  0  0  0  0
 35 34  2  0  0  0  0
 36 31  1  0  0  0  0
 38 39  1  0  0  0  0
 39 40  2  0  0  0  0
 39 46  1  0  0  0  0
 40 41  1  0  0  0  0
 41 42  1  0  0  0  0
 41 43  2  0  0  0  0
 43 44  1  0  0  0  0
 45 43  1  0  0  0  0
 46 45  2  0  0  0  0
M  END
>  <minimizedAffinity>
-5.00268269

>  <minimizedRMSD>
4.45004177

$$$$
