REMARK  Name = 
REMARK  6 active torsions:
REMARK  status: ('A' for Active; 'I' for Inactive)
REMARK    1  A    between atoms: C_1  and  C_2
REMARK    2  A    between atoms: C_1  and  O_12
REMARK    3  A    between atoms: C_6  and  C_8
REMARK    4  A    between atoms: O_12  and  C_17
REMARK    5  A    between atoms: C_14  and  C_19
REMARK    6  A    between atoms: C_15  and  C_30
REMARK                            x       y       z     vdW  Elec       q    Type
REMARK                         _______ _______ _______ _____ _____    ______ ____
ROOT
ATOM      1  C   UNL     1      44.892  34.964  45.077  0.00  0.00    +0.000 A 
ATOM      2  C   UNL     1      45.763  34.671  44.031  0.00  0.00    +0.000 A 
ATOM      3  C   UNL     1      46.703  33.655  44.223  0.00  0.00    +0.000 A 
ATOM      4  N   UNL     1      46.716  33.012  45.408  0.00  0.00    +0.000 NA
ATOM      5  C   UNL     1      45.861  33.319  46.395  0.00  0.00    +0.000 A 
ATOM      6  N   UNL     1      44.948  34.296  46.230  0.00  0.00    +0.000 NA
ATOM      7  H   UNL     1      44.155  35.767  44.905  0.00  0.00    +0.000 HD
ENDROOT
BRANCH   3  10
ATOM      8 CL   UNL     1      46.100  31.013  43.112  0.00  0.00    +0.000 Cl
ATOM      9  C   UNL     1      47.369  32.142  42.622  0.00  0.00    +0.000 A 
ATOM     10  C   UNL     1      47.666  33.390  43.155  0.00  0.00    +0.000 A 
ATOM     11  C   UNL     1      48.715  34.106  42.629  0.00  0.00    +0.000 A 
ATOM     12  H   UNL     1      48.832  35.049  43.131  0.00  0.00    +0.000 HD
ATOM     13  C   UNL     1      49.437  33.567  41.591  0.00  0.00    +0.000 A 
ATOM     14  H   UNL     1      50.241  34.173  41.217  0.00  0.00    +0.000 HD
ATOM     15  C   UNL     1      49.179  32.325  41.023  0.00  0.00    +0.000 A 
ATOM     16  C   UNL     1      48.122  31.615  41.564  0.00  0.00    +0.000 A 
ENDBRANCH   3  10
BRANCH   2  17
ATOM     17  C   UNL     1      45.663  35.463  42.762  0.00  0.00    +0.000 C 
ATOM     18  F   UNL     1      45.297  36.734  43.162  0.00  0.00    +0.000 F 
ATOM     19  F   UNL     1      44.637  34.888  42.013  0.00  0.00    +0.000 F 
ATOM     20  F   UNL     1      46.866  35.451  42.117  0.00  0.00    +0.000 F 
ENDBRANCH   2  17
BRANCH   5  21
ATOM     21  O   UNL     1      45.848  32.679  47.624  0.00  0.00    +0.000 OA
BRANCH  21  22
ATOM     22  C   UNL     1      45.410  31.356  47.752  0.00  0.00    +0.000 C 
ATOM     23  H   UNL     1      44.736  31.109  46.936  0.00  0.00    +0.000 HD
ATOM     24  H   UNL     1      44.798  31.256  48.690  0.00  0.00    +0.000 HD
BRANCH  22  25
ATOM     25  C   UNL     1      46.586  30.485  47.858  0.00  0.00    +0.000 A 
ATOM     26  C   UNL     1      46.820  29.218  47.378  0.00  0.00    +0.000 A 
ATOM     27  C   UNL     1      48.029  28.632  47.638  0.00  0.00    +0.000 A 
ATOM     28  N   UNL     1      48.970  29.253  48.337  0.00  0.00    +0.000 NA
ATOM     29  C   UNL     1      48.743  30.500  48.813  0.00  0.00    +0.000 A 
ATOM     30  N   UNL     1      47.549  31.134  48.582  0.00  0.00    +0.000 NA
ATOM     31  H   UNL     1      45.940  28.884  46.838  0.00  0.00    +0.000 HD
ATOM     32  H   UNL     1      48.108  27.641  47.216  0.00  0.00    +0.000 HD
BRANCH  29  33
ATOM     33  C   UNL     1      49.855  31.116  49.578  0.00  0.00    +0.000 C 
ATOM     34  F   UNL     1      49.828  32.478  49.500  0.00  0.00    +0.000 F 
ATOM     35  F   UNL     1      51.086  30.633  49.109  0.00  0.00    +0.000 F 
ATOM     36  F   UNL     1      49.792  30.782  50.920  0.00  0.00    +0.000 F 
ENDBRANCH  29  33
ENDBRANCH  22  25
ENDBRANCH  21  22
ENDBRANCH   5  21
TORSDOF 6
