
 OpenBabel03242513153D

 30 32  0  0  0  0  0  0  0  0999 V2000
   39.2330   27.2890   39.9660 Cl  0  0  0  0  0  0  0  0  0  0  0  0
   38.2820   27.5270   41.4350 C   0  0  0  0  0  0  0  0  0  0  0  0
   38.2760   28.7380   42.0460 C   0  0  0  0  0  0  0  0  0  0  0  0
   37.5140   28.8800   43.1760 C   0  0  0  0  0  0  0  0  0  0  0  0
   36.7790   27.8350   43.6800 C   0  0  0  0  0  0  0  0  0  0  0  0
   36.7900   26.5760   43.0370 C   0  0  0  0  0  0  0  0  0  0  0  0
   37.5640   26.4360   41.8910 C   0  0  0  0  0  0  0  0  0  0  0  0
   37.3640   29.7380   43.7870 H   0  0  0  0  0  0  0  0  0  0  0  0
   36.1440   27.8200   44.5560 H   0  0  0  0  0  0  0  0  0  0  0  0
   36.2360   25.7230   43.3830 H   0  0  0  0  0  0  0  0  0  0  0  0
   39.5970   24.2980   42.6810 Cl  0  0  0  0  0  0  0  0  0  0  0  0
   38.4040   24.0570   41.4340 C   0  0  0  0  0  0  0  0  0  0  0  0
   37.5780   25.1370   41.2240 C   0  0  0  0  0  0  0  0  0  0  0  0
   36.5740   25.0770   40.2510 C   0  0  0  0  0  0  0  0  0  0  0  0
   35.8680   25.8570   39.9950 H   0  0  0  0  0  0  0  0  0  0  0  0
   36.4100   23.9190   39.4890 C   0  0  0  0  0  0  0  0  0  0  0  0
   35.6570   23.8090   38.7260 H   0  0  0  0  0  0  0  0  0  0  0  0
   37.2500   22.8310   39.7100 C   0  0  0  0  0  3  0  0  0  0  0  0
   38.2360   22.9160   40.6800 C   0  0  0  0  0  3  0  0  0  0  0  0
   39.0650   29.8260   41.5080 C   0  0  0  0  0  0  0  0  0  0  0  0
   40.3060   29.7840   41.7420 O   0  0  0  0  0  0  0  0  0  0  0  0
   37.0500   31.5770   39.0480 C   0  0  0  0  0  0  0  0  0  0  0  0
   37.3250   32.9390   39.2750 C   0  0  0  0  0  0  0  0  0  0  0  0
   38.2340   33.2190   40.3030 C   0  0  0  0  0  0  0  0  0  0  0  0
   38.7770   32.1860   41.0000 N   0  0  0  0  0  0  0  0  0  0  0  0
   38.4860   30.9040   40.7500 C   0  0  0  0  0  0  0  0  0  0  0  0
   37.6190   30.6220   39.7690 N   0  0  0  0  0  0  0  0  0  0  0  0
   36.3420   31.4140   38.2410 H   0  0  0  0  0  0  0  0  0  0  0  0
   36.9190   33.7860   38.7480 H   0  0  0  0  0  0  0  0  0  0  0  0
   38.5410   34.2260   40.5890 H   0  0  0  0  0  0  0  0  0  0  0  0
  1  2  1  0  0  0  0
  2  7  2  0  0  0  0
  2  3  1  0  0  0  0
  3  4  2  0  0  0  0
  4  5  1  0  0  0  0
  4  8  1  0  0  0  0
  5  9  1  0  0  0  0
  6 10  1  0  0  0  0
  6  5  2  0  0  0  0
  7  6  1  0  0  0  0
 12 11  1  0  0  0  0
 13 12  1  0  0  0  0
 13  7  1  0  0  0  0
 14 13  2  0  0  0  0
 15 14  1  0  0  0  0
 16 18  2  0  0  0  0
 16 14  1  0  0  0  0
 17 16  1  0  0  0  0
 18 19  1  0  0  0  0
 19 12  2  0  0  0  0
 20 21  2  0  0  0  0
 20  3  1  0  0  0  0
 22 23  2  0  0  0  0
 22 27  1  0  0  0  0
 23 24  1  0  0  0  0
 24 30  1  0  0  0  0
 24 25  2  0  0  0  0
 26 25  1  0  0  0  0
 26 20  1  0  0  0  0
 27 26  2  0  0  0  0
 28 22  1  0  0  0  0
 29 23  1  0  0  0  0
M  END
>  <minimizedAffinity>
-5.88055992

$$$$

 OpenBabel03242513153D

 30 32  0  0  0  0  0  0  0  0999 V2000
   39.2230   27.6990   39.8800 Cl  0  0  0  0  0  0  0  0  0  0  0  0
   38.3020   27.7640   41.3850 C   0  0  0  0  0  0  0  0  0  0  0  0
   38.3560   28.8750   42.1620 C   0  0  0  0  0  0  0  0  0  0  0  0
   37.6150   28.8850   43.3150 C   0  0  0  0  0  0  0  0  0  0  0  0
   36.8420   27.8110   43.6790 C   0  0  0  0  0  0  0  0  0  0  0  0
   36.7910   26.6560   42.8640 C   0  0  0  0  0  0  0  0  0  0  0  0
   37.5440   26.6490   41.6950 C   0  0  0  0  0  0  0  0  0  0  0  0
   37.5100   29.6540   44.0440 H   0  0  0  0  0  0  0  0  0  0  0  0
   36.2180   27.6970   44.5550 H   0  0  0  0  0  0  0  0  0  0  0  0
   36.2050   25.7860   43.0960 H   0  0  0  0  0  0  0  0  0  0  0  0
   35.9770   26.6620   39.0740 Cl  0  0  0  0  0  0  0  0  0  0  0  0
   36.8490   25.2680   39.6500 C   0  0  0  0  0  0  0  0  0  0  0  0
   37.4930   25.4590   40.8510 C   0  0  0  0  0  0  0  0  0  0  0  0
   38.2330   24.4200   41.4270 C   0  0  0  0  0  0  0  0  0  0  0  0
   38.7780   24.4500   42.3620 H   0  0  0  0  0  0  0  0  0  0  0  0
   38.3180   23.1850   40.7830 C   0  0  0  0  0  0  0  0  0  0  0  0
   38.8700   22.3460   41.1730 H   0  0  0  0  0  0  0  0  0  0  0  0
   37.6640   23.0020   39.5670 C   0  0  0  0  0  3  0  0  0  0  0  0
   36.9380   24.0470   39.0180 C   0  0  0  0  0  3  0  0  0  0  0  0
   39.1840   29.9960   41.7690 C   0  0  0  0  0  0  0  0  0  0  0  0
   40.4110   29.9130   42.0640 O   0  0  0  0  0  0  0  0  0  0  0  0
   37.0810   32.0260   39.6180 C   0  0  0  0  0  0  0  0  0  0  0  0
   37.5950   33.3300   39.7550 C   0  0  0  0  0  0  0  0  0  0  0  0
   38.6930   33.4700   40.6130 C   0  0  0  0  0  0  0  0  0  0  0  0
   39.1800   32.3690   41.2430 N   0  0  0  0  0  0  0  0  0  0  0  0
   38.6590   31.1460   41.0830 C   0  0  0  0  0  0  0  0  0  0  0  0
   37.6100   30.9980   40.2650 N   0  0  0  0  0  0  0  0  0  0  0  0
   36.2330   31.9720   38.9420 H   0  0  0  0  0  0  0  0  0  0  0  0
   37.2410   34.2270   39.2760 H   0  0  0  0  0  0  0  0  0  0  0  0
   39.1930   34.4180   40.8140 H   0  0  0  0  0  0  0  0  0  0  0  0
  1  2  1  0  0  0  0
  2  7  2  0  0  0  0
  2  3  1  0  0  0  0
  3  4  2  0  0  0  0
  4  5  1  0  0  0  0
  4  8  1  0  0  0  0
  5  9  1  0  0  0  0
  6 10  1  0  0  0  0
  6  5  2  0  0  0  0
  7  6  1  0  0  0  0
 11 12  1  0  0  0  0
 12 13  1  0  0  0  0
 13 14  2  0  0  0  0
 13  7  1  0  0  0  0
 14 15  1  0  0  0  0
 16 17  1  0  0  0  0
 16 14  1  0  0  0  0
 18 16  2  0  0  0  0
 19 18  1  0  0  0  0
 19 12  2  0  0  0  0
 20 21  2  0  0  0  0
 20  3  1  0  0  0  0
 22 23  2  0  0  0  0
 22 27  1  0  0  0  0
 23 24  1  0  0  0  0
 24 30  1  0  0  0  0
 24 25  2  0  0  0  0
 26 25  1  0  0  0  0
 26 20  1  0  0  0  0
 27 26  2  0  0  0  0
 28 22  1  0  0  0  0
 29 23  1  0  0  0  0
M  END
>  <minimizedAffinity>
-5.71961355

$$$$

 OpenBabel03242513153D

 30 32  0  0  0  0  0  0  0  0999 V2000
   36.4410   26.8650   38.6800 Cl  0  0  0  0  0  0  0  0  0  0  0  0
   36.6680   27.0030   40.4260 C   0  0  0  0  0  0  0  0  0  0  0  0
   36.2330   28.1110   41.0770 C   0  0  0  0  0  0  0  0  0  0  0  0
   36.4190   28.1690   42.4330 C   0  0  0  0  0  0  0  0  0  0  0  0
   37.0260   27.1440   43.1170 C   0  0  0  0  0  0  0  0  0  0  0  0
   37.4760   25.9930   42.4310 C   0  0  0  0  0  0  0  0  0  0  0  0
   37.2850   25.9370   41.0550 C   0  0  0  0  0  0  0  0  0  0  0  0
   36.1420   28.9320   43.1220 H   0  0  0  0  0  0  0  0  0  0  0  0
   37.2300   27.0710   44.1770 H   0  0  0  0  0  0  0  0  0  0  0  0
   37.9560   25.1600   42.9110 H   0  0  0  0  0  0  0  0  0  0  0  0
   40.0790   25.8460   39.8260 Cl  0  0  0  0  0  0  0  0  0  0  0  0
   38.9570   24.5170   39.7270 C   0  0  0  0  0  0  0  0  0  0  0  0
   37.7490   24.7500   40.3430 C   0  0  0  0  0  0  0  0  0  0  0  0
   36.7550   23.7640   40.3400 C   0  0  0  0  0  0  0  0  0  0  0  0
   35.7710   23.8300   40.7870 H   0  0  0  0  0  0  0  0  0  0  0  0
   36.9890   22.5410   39.7100 C   0  0  0  0  0  0  0  0  0  0  0  0
   36.2670   21.7430   39.6720 H   0  0  0  0  0  0  0  0  0  0  0  0
   38.2150   22.3150   39.0900 C   0  0  0  0  0  3  0  0  0  0  0  0
   39.1820   23.3070   39.1080 C   0  0  0  0  0  3  0  0  0  0  0  0
   35.6050   29.1870   40.3400 C   0  0  0  0  0  0  0  0  0  0  0  0
   34.3650   29.0680   40.1270 O   0  0  0  0  0  0  0  0  0  0  0  0
   37.3000   31.4670   38.0810 C   0  0  0  0  0  0  0  0  0  0  0  0
   37.7180   32.5300   38.9040 C   0  0  0  0  0  0  0  0  0  0  0  0
   37.3940   32.4190   40.2620 C   0  0  0  0  0  0  0  0  0  0  0  0
   36.7140   31.3220   40.6880 N   0  0  0  0  0  0  0  0  0  0  0  0
   36.3350   30.3340   39.8680 C   0  0  0  0  0  0  0  0  0  0  0  0
   36.6390   30.4270   38.5680 N   0  0  0  0  0  0  0  0  0  0  0  0
   37.5760   31.6020   37.0390 H   0  0  0  0  0  0  0  0  0  0  0  0
   38.2570   33.4140   38.6090 H   0  0  0  0  0  0  0  0  0  0  0  0
   37.6540   33.1650   41.0140 H   0  0  0  0  0  0  0  0  0  0  0  0
  1  2  1  0  0  0  0
  2  7  2  0  0  0  0
  2  3  1  0  0  0  0
  3  4  2  0  0  0  0
  4  5  1  0  0  0  0
  4  8  1  0  0  0  0
  5  9  1  0  0  0  0
  6 10  1  0  0  0  0
  6  5  2  0  0  0  0
  7  6  1  0  0  0  0
 12 11  1  0  0  0  0
 12 13  1  0  0  0  0
 13  7  1  0  0  0  0
 14 13  2  0  0  0  0
 14 15  1  0  0  0  0
 16 14  1  0  0  0  0
 17 16  1  0  0  0  0
 18 19  1  0  0  0  0
 18 16  2  0  0  0  0
 19 12  2  0  0  0  0
 20  3  1  0  0  0  0
 21 20  2  0  0  0  0
 22 27  2  0  0  0  0
 22 23  1  0  0  0  0
 23 24  2  0  0  0  0
 24 25  1  0  0  0  0
 24 30  1  0  0  0  0
 26 20  1  0  0  0  0
 26 25  2  0  0  0  0
 27 26  1  0  0  0  0
 28 22  1  0  0  0  0
 29 23  1  0  0  0  0
M  END
>  <minimizedAffinity>
-5.61391163

$$$$

 OpenBabel03242513153D

 30 32  0  0  0  0  0  0  0  0999 V2000
   39.6500   28.4550   41.3790 Cl  0  0  0  0  0  0  0  0  0  0  0  0
   38.1470   29.2950   40.9870 C   0  0  0  0  0  0  0  0  0  0  0  0
   38.1530   30.6390   40.8050 C   0  0  0  0  0  0  0  0  0  0  0  0
   36.9660   31.2460   40.4900 C   0  0  0  0  0  0  0  0  0  0  0  0
   35.8040   30.5250   40.3620 C   0  0  0  0  0  0  0  0  0  0  0  0
   35.8070   29.1240   40.5530 C   0  0  0  0  0  0  0  0  0  0  0  0
   37.0130   28.5110   40.8730 C   0  0  0  0  0  0  0  0  0  0  0  0
   36.7620   32.2730   40.2960 H   0  0  0  0  0  0  0  0  0  0  0  0
   34.8130   30.8840   40.1200 H   0  0  0  0  0  0  0  0  0  0  0  0
   34.9310   28.5080   40.4660 H   0  0  0  0  0  0  0  0  0  0  0  0
   36.8470   27.3200   43.6800 Cl  0  0  0  0  0  0  0  0  0  0  0  0
   36.9540   26.3440   42.2400 C   0  0  0  0  0  0  0  0  0  0  0  0
   37.0190   27.0650   41.0700 C   0  0  0  0  0  0  0  0  0  0  0  0
   37.1070   26.4040   39.8390 C   0  0  0  0  0  0  0  0  0  0  0  0
   37.1640   26.8590   38.8590 H   0  0  0  0  0  0  0  0  0  0  0  0
   37.1280   25.0090   39.7970 C   0  0  0  0  0  0  0  0  0  0  0  0
   37.1940   24.4420   38.8840 H   0  0  0  0  0  0  0  0  0  0  0  0
   37.0610   24.2890   40.9870 C   0  0  0  0  0  3  0  0  0  0  0  0
   36.9740   24.9670   42.1920 C   0  0  0  0  0  3  0  0  0  0  0  0
   39.3840   31.3860   40.9540 C   0  0  0  0  0  0  0  0  0  0  0  0
   39.8180   31.5180   42.1340 O   0  0  0  0  0  0  0  0  0  0  0  0
   40.9390   31.6820   37.6880 C   0  0  0  0  0  0  0  0  0  0  0  0
   41.4150   33.0060   37.6440 C   0  0  0  0  0  0  0  0  0  0  0  0
   41.1790   33.7810   38.7870 C   0  0  0  0  0  0  0  0  0  0  0  0
   40.5220   33.2210   39.8370 N   0  0  0  0  0  0  0  0  0  0  0  0
   40.0870   31.9550   39.8350 C   0  0  0  0  0  0  0  0  0  0  0  0
   40.3070   31.2030   38.7490 N   0  0  0  0  0  0  0  0  0  0  0  0
   41.1480   31.1240   36.7800 H   0  0  0  0  0  0  0  0  0  0  0  0
   41.9380   33.4880   36.8360 H   0  0  0  0  0  0  0  0  0  0  0  0
   41.4900   34.8210   38.8940 H   0  0  0  0  0  0  0  0  0  0  0  0
  2  1  1  0  0  0  0
  3 20  1  0  0  0  0
  3  2  2  0  0  0  0
  4  3  1  0  0  0  0
  5  4  2  0  0  0  0
  5  6  1  0  0  0  0
  6  7  2  0  0  0  0
  7  2  1  0  0  0  0
  7 13  1  0  0  0  0
  8  4  1  0  0  0  0
  9  5  1  0  0  0  0
 10  6  1  0  0  0  0
 12 11  1  0  0  0  0
 13 12  2  0  0  0  0
 14 13  1  0  0  0  0
 15 14  1  0  0  0  0
 16 14  2  0  0  0  0
 16 18  1  0  0  0  0
 17 16  1  0  0  0  0
 18 19  2  0  0  0  0
 19 12  1  0  0  0  0
 20 21  2  0  0  0  0
 22 27  1  0  0  0  0
 23 22  2  0  0  0  0
 23 24  1  0  0  0  0
 24 30  1  0  0  0  0
 24 25  2  0  0  0  0
 26 25  1  0  0  0  0
 26 20  1  0  0  0  0
 27 26  2  0  0  0  0
 28 22  1  0  0  0  0
 29 23  1  0  0  0  0
M  END
>  <minimizedAffinity>
-5.55748701

$$$$

 OpenBabel03242513153D

 30 32  0  0  0  0  0  0  0  0999 V2000
   36.5330   26.9450   38.5280 Cl  0  0  0  0  0  0  0  0  0  0  0  0
   36.7070   27.0010   40.2850 C   0  0  0  0  0  0  0  0  0  0  0  0
   36.2230   28.0620   40.9770 C   0  0  0  0  0  0  0  0  0  0  0  0
   36.3700   28.0570   42.3400 C   0  0  0  0  0  0  0  0  0  0  0  0
   36.9860   27.0150   42.9890 C   0  0  0  0  0  0  0  0  0  0  0  0
   37.4880   25.9130   42.2600 C   0  0  0  0  0  0  0  0  0  0  0  0
   37.3370   25.9220   40.8780 C   0  0  0  0  0  0  0  0  0  0  0  0
   36.0520   28.7760   43.0570 H   0  0  0  0  0  0  0  0  0  0  0  0
   37.1630   26.8940   44.0490 H   0  0  0  0  0  0  0  0  0  0  0  0
   37.9780   25.0710   42.7120 H   0  0  0  0  0  0  0  0  0  0  0  0
   35.5120   23.5940   40.1190 Cl  0  0  0  0  0  0  0  0  0  0  0  0
   37.1990   23.6540   39.6900 C   0  0  0  0  0  0  0  0  0  0  0  0
   37.8540   24.7850   40.1210 C   0  0  0  0  0  0  0  0  0  0  0  0
   39.2140   24.9620   39.8430 C   0  0  0  0  0  0  0  0  0  0  0  0
   39.8330   25.8020   40.1290 H   0  0  0  0  0  0  0  0  0  0  0  0
   39.9110   23.9880   39.1260 C   0  0  0  0  0  0  0  0  0  0  0  0
   40.9560   24.0640   38.8800 H   0  0  0  0  0  0  0  0  0  0  0  0
   39.2390   22.8470   38.6930 C   0  0  0  0  0  3  0  0  0  0  0  0
   37.8920   22.6970   38.9810 C   0  0  0  0  0  3  0  0  0  0  0  0
   35.5850   29.1570   40.2770 C   0  0  0  0  0  0  0  0  0  0  0  0
   34.3410   29.0450   40.0810 O   0  0  0  0  0  0  0  0  0  0  0  0
   37.3370   32.3350   40.3400 C   0  0  0  0  0  0  0  0  0  0  0  0
   37.7220   32.5500   39.0030 C   0  0  0  0  0  0  0  0  0  0  0  0
   37.3470   31.5570   38.0890 C   0  0  0  0  0  0  0  0  0  0  0  0
   36.6540   30.4780   38.5390 N   0  0  0  0  0  0  0  0  0  0  0  0
   36.3090   30.3140   39.8210 C   0  0  0  0  0  0  0  0  0  0  0  0
   36.6610   31.2550   40.7050 N   0  0  0  0  0  0  0  0  0  0  0  0
   37.6510   33.1320   41.0070 H   0  0  0  0  0  0  0  0  0  0  0  0
   38.2690   33.3880   38.6060 H   0  0  0  0  0  0  0  0  0  0  0  0
   37.5760   31.5910   37.0230 H   0  0  0  0  0  0  0  0  0  0  0  0
  1  2  1  0  0  0  0
  2  7  2  0  0  0  0
  2  3  1  0  0  0  0
  3  4  2  0  0  0  0
  4  5  1  0  0  0  0
  4  8  1  0  0  0  0
  5  9  1  0  0  0  0
  6 10  1  0  0  0  0
  6  5  2  0  0  0  0
  7  6  1  0  0  0  0
 12 11  1  0  0  0  0
 12 13  1  0  0  0  0
 13  7  1  0  0  0  0
 14 13  2  0  0  0  0
 14 15  1  0  0  0  0
 16 14  1  0  0  0  0
 17 16  1  0  0  0  0
 18 19  1  0  0  0  0
 18 16  2  0  0  0  0
 19 12  2  0  0  0  0
 20  3  1  0  0  0  0
 21 20  2  0  0  0  0
 22 27  1  0  0  0  0
 22 28  1  0  0  0  0
 23 22  2  0  0  0  0
 24 25  2  0  0  0  0
 24 23  1  0  0  0  0
 25 26  1  0  0  0  0
 26 20  1  0  0  0  0
 26 27  2  0  0  0  0
 29 23  1  0  0  0  0
 30 24  1  0  0  0  0
M  END
>  <minimizedAffinity>
-5.55536509

$$$$

 OpenBabel03242513153D

 30 32  0  0  0  0  0  0  0  0999 V2000
   39.1090   29.9310   42.3410 Cl  0  0  0  0  0  0  0  0  0  0  0  0
   37.7370   29.7050   41.2530 C   0  0  0  0  0  0  0  0  0  0  0  0
   36.8640   28.6890   41.4690 C   0  0  0  0  0  0  0  0  0  0  0  0
   35.8070   28.5600   40.6060 C   0  0  0  0  0  0  0  0  0  0  0  0
   35.6320   29.4250   39.5550 C   0  0  0  0  0  0  0  0  0  0  0  0
   36.5460   30.4810   39.3350 C   0  0  0  0  0  0  0  0  0  0  0  0
   37.6160   30.6090   40.2130 C   0  0  0  0  0  0  0  0  0  0  0  0
   35.0140   27.8500   40.6100 H   0  0  0  0  0  0  0  0  0  0  0  0
   34.8470   29.4280   38.8100 H   0  0  0  0  0  0  0  0  0  0  0  0
   36.4600   31.1880   38.5310 H   0  0  0  0  0  0  0  0  0  0  0  0
   40.2250   30.1260   38.7000 Cl  0  0  0  0  0  0  0  0  0  0  0  0
   39.7750   31.6830   39.3410 C   0  0  0  0  0  0  0  0  0  0  0  0
   38.5620   31.6990   39.9900 C   0  0  0  0  0  0  0  0  0  0  0  0
   38.0800   32.8870   40.5520 C   0  0  0  0  0  0  0  0  0  0  0  0
   37.1470   33.0230   41.0850 H   0  0  0  0  0  0  0  0  0  0  0  0
   38.8310   34.0590   40.4550 C   0  0  0  0  0  0  0  0  0  0  0  0
   38.5160   35.0040   40.8660 H   0  0  0  0  0  0  0  0  0  0  0  0
   40.0570   34.0320   39.7950 C   0  0  0  0  0  3  0  0  0  0  0  0
   40.5110   32.8440   39.2470 C   0  0  0  0  0  3  0  0  0  0  0  0
   37.0690   27.7790   42.5770 C   0  0  0  0  0  0  0  0  0  0  0  0
   36.5480   28.1150   43.6780 O   0  0  0  0  0  0  0  0  0  0  0  0
   37.9800   24.4180   41.5530 C   0  0  0  0  0  0  0  0  0  0  0  0
   39.2340   24.1970   42.1530 C   0  0  0  0  0  0  0  0  0  0  0  0
   39.7410   25.2510   42.9220 C   0  0  0  0  0  0  0  0  0  0  0  0
   39.0110   26.3910   43.0380 N   0  0  0  0  0  0  0  0  0  0  0  0
   37.8200   26.5590   42.4490 C   0  0  0  0  0  0  0  0  0  0  0  0
   37.3240   25.5580   41.7110 N   0  0  0  0  0  0  0  0  0  0  0  0
   37.6310   23.5710   40.9690 H   0  0  0  0  0  0  0  0  0  0  0  0
   39.8440   23.3120   42.0870 H   0  0  0  0  0  0  0  0  0  0  0  0
   40.6990   25.2210   43.4440 H   0  0  0  0  0  0  0  0  0  0  0  0
  2  3  1  0  0  0  0
  2  1  1  0  0  0  0
  3 20  1  0  0  0  0
  4  8  1  0  0  0  0
  4  3  2  0  0  0  0
  5  4  1  0  0  0  0
  6  5  2  0  0  0  0
  6  7  1  0  0  0  0
  7  2  2  0  0  0  0
  9  5  1  0  0  0  0
 10  6  1  0  0  0  0
 11 12  1  0  0  0  0
 12 13  1  0  0  0  0
 13  7  1  0  0  0  0
 13 14  2  0  0  0  0
 14 15  1  0  0  0  0
 16 14  1  0  0  0  0
 16 17  1  0  0  0  0
 18 16  2  0  0  0  0
 19 12  2  0  0  0  0
 19 18  1  0  0  0  0
 20 21  2  0  0  0  0
 22 27  2  0  0  0  0
 22 23  1  0  0  0  0
 23 24  2  0  0  0  0
 24 25  1  0  0  0  0
 24 30  1  0  0  0  0
 26 20  1  0  0  0  0
 26 25  2  0  0  0  0
 27 26  1  0  0  0  0
 28 22  1  0  0  0  0
 29 23  1  0  0  0  0
M  END
>  <minimizedAffinity>
-5.48917532

$$$$

 OpenBabel03242513153D

 30 32  0  0  0  0  0  0  0  0999 V2000
   37.0710   27.8880   39.3000 Cl  0  0  0  0  0  0  0  0  0  0  0  0
   37.4550   27.9030   41.0240 C   0  0  0  0  0  0  0  0  0  0  0  0
   37.3670   29.0610   41.7240 C   0  0  0  0  0  0  0  0  0  0  0  0
   37.6630   29.0230   43.0620 C   0  0  0  0  0  0  0  0  0  0  0  0
   38.0380   27.8550   43.6790 C   0  0  0  0  0  0  0  0  0  0  0  0
   38.1270   26.6520   42.9420 C   0  0  0  0  0  0  0  0  0  0  0  0
   37.8260   26.6950   41.5850 C   0  0  0  0  0  0  0  0  0  0  0  0
   37.6410   29.8070   43.7820 H   0  0  0  0  0  0  0  0  0  0  0  0
   38.2950   27.6960   44.7170 H   0  0  0  0  0  0  0  0  0  0  0  0
   38.4140   25.7090   43.3690 H   0  0  0  0  0  0  0  0  0  0  0  0
   40.4030   25.9470   40.1260 Cl  0  0  0  0  0  0  0  0  0  0  0  0
   38.9760   24.9470   40.1030 C   0  0  0  0  0  0  0  0  0  0  0  0
   37.9170   25.4540   40.8200 C   0  0  0  0  0  0  0  0  0  0  0  0
   36.7090   24.7510   40.8870 C   0  0  0  0  0  0  0  0  0  0  0  0
   35.8120   25.0460   41.4150 H   0  0  0  0  0  0  0  0  0  0  0  0
   36.5770   23.5310   40.2220 C   0  0  0  0  0  0  0  0  0  0  0  0
   35.6750   22.9410   40.2330 H   0  0  0  0  0  0  0  0  0  0  0  0
   37.6540   23.0250   39.4990 C   0  0  0  0  0  3  0  0  0  0  0  0
   38.8390   23.7420   39.4500 C   0  0  0  0  0  3  0  0  0  0  0  0
   36.9810   30.2870   41.0570 C   0  0  0  0  0  0  0  0  0  0  0  0
   35.7410   30.4530   40.8700 O   0  0  0  0  0  0  0  0  0  0  0  0
   38.4010   33.4930   40.1210 C   0  0  0  0  0  0  0  0  0  0  0  0
   39.7450   33.2050   39.8130 C   0  0  0  0  0  0  0  0  0  0  0  0
   40.1290   31.8640   39.9380 C   0  0  0  0  0  0  0  0  0  0  0  0
   39.2060   30.9500   40.3390 N   0  0  0  0  0  0  0  0  0  0  0  0
   37.9380   31.2690   40.6220 C   0  0  0  0  0  0  0  0  0  0  0  0
   37.5570   32.5470   40.5060 N   0  0  0  0  0  0  0  0  0  0  0  0
   38.1550   34.5440   40.0080 H   0  0  0  0  0  0  0  0  0  0  0  0
   40.5060   33.8950   39.4930 H   0  0  0  0  0  0  0  0  0  0  0  0
   41.1350   31.4960   39.7330 H   0  0  0  0  0  0  0  0  0  0  0  0
  1  2  1  0  0  0  0
  2  7  2  0  0  0  0
  2  3  1  0  0  0  0
  3  4  2  0  0  0  0
  4  5  1  0  0  0  0
  4  8  1  0  0  0  0
  5  9  1  0  0  0  0
  6 10  1  0  0  0  0
  6  5  2  0  0  0  0
  7  6  1  0  0  0  0
 12 11  1  0  0  0  0
 12 13  1  0  0  0  0
 13 14  2  0  0  0  0
 13  7  1  0  0  0  0
 14 15  1  0  0  0  0
 16 17  1  0  0  0  0
 16 14  1  0  0  0  0
 18 16  2  0  0  0  0
 19 18  1  0  0  0  0
 19 12  2  0  0  0  0
 20  3  1  0  0  0  0
 21 20  2  0  0  0  0
 22 27  1  0  0  0  0
 23 24  1  0  0  0  0
 23 22  2  0  0  0  0
 24 25  2  0  0  0  0
 25 26  1  0  0  0  0
 26 20  1  0  0  0  0
 27 26  2  0  0  0  0
 28 22  1  0  0  0  0
 29 23  1  0  0  0  0
 30 24  1  0  0  0  0
M  END
>  <minimizedAffinity>
-5.40284634

$$$$

 OpenBabel03242513153D

 30 32  0  0  0  0  0  0  0  0999 V2000
   40.2580   29.3780   40.2000 Cl  0  0  0  0  0  0  0  0  0  0  0  0
   39.0470   30.6570   40.0710 C   0  0  0  0  0  0  0  0  0  0  0  0
   39.3370   31.7940   39.3890 C   0  0  0  0  0  0  0  0  0  0  0  0
   38.3620   32.7540   39.3050 C   0  0  0  0  0  0  0  0  0  0  0  0
   37.1320   32.5790   39.8890 C   0  0  0  0  0  0  0  0  0  0  0  0
   36.8380   31.3910   40.5980 C   0  0  0  0  0  0  0  0  0  0  0  0
   37.8290   30.4190   40.6810 C   0  0  0  0  0  0  0  0  0  0  0  0
   38.3830   33.6970   38.8110 H   0  0  0  0  0  0  0  0  0  0  0  0
   36.2880   33.2550   39.8950 H   0  0  0  0  0  0  0  0  0  0  0  0
   35.8950   31.1970   41.0750 H   0  0  0  0  0  0  0  0  0  0  0  0
   36.8140   27.9400   39.2150 Cl  0  0  0  0  0  0  0  0  0  0  0  0
   37.0680   27.9840   40.9390 C   0  0  0  0  0  0  0  0  0  0  0  0
   37.5290   29.1910   41.4120 C   0  0  0  0  0  0  0  0  0  0  0  0
   37.7780   29.3640   42.7790 C   0  0  0  0  0  0  0  0  0  0  0  0
   38.1380   30.2600   43.2670 H   0  0  0  0  0  0  0  0  0  0  0  0
   37.5560   28.3090   43.6660 C   0  0  0  0  0  0  0  0  0  0  0  0
   37.7270   28.3770   44.7270 H   0  0  0  0  0  0  0  0  0  0  0  0
   37.0900   27.0910   43.1760 C   0  0  0  0  0  3  0  0  0  0  0  0
   36.8530   26.9470   41.8190 C   0  0  0  0  0  3  0  0  0  0  0  0
   40.6420   31.9680   38.7880 C   0  0  0  0  0  0  0  0  0  0  0  0
   40.8050   31.4450   37.6490 O   0  0  0  0  0  0  0  0  0  0  0  0
   43.6850   33.8940   39.2360 C   0  0  0  0  0  0  0  0  0  0  0  0
   43.7620   34.1100   40.6260 C   0  0  0  0  0  0  0  0  0  0  0  0
   42.7260   33.5600   41.3900 C   0  0  0  0  0  0  0  0  0  0  0  0
   41.7380   32.8720   40.7600 N   0  0  0  0  0  0  0  0  0  0  0  0
   41.7050   32.6910   39.4350 C   0  0  0  0  0  0  0  0  0  0  0  0
   42.6890   33.2100   38.6920 N   0  0  0  0  0  0  0  0  0  0  0  0
   44.5120   34.3390   38.6900 H   0  0  0  0  0  0  0  0  0  0  0  0
   44.5240   34.6470   41.1640 H   0  0  0  0  0  0  0  0  0  0  0  0
   42.6550   33.6470   42.4750 H   0  0  0  0  0  0  0  0  0  0  0  0
  2  1  1  0  0  0  0
  2  7  1  0  0  0  0
  3  2  2  0  0  0  0
  4  3  1  0  0  0  0
  4  5  2  0  0  0  0
  5  9  1  0  0  0  0
  5  6  1  0  0  0  0
  6  7  2  0  0  0  0
  6 10  1  0  0  0  0
  7 13  1  0  0  0  0
  8  4  1  0  0  0  0
 11 12  1  0  0  0  0
 12 13  2  0  0  0  0
 12 19  1  0  0  0  0
 13 14  1  0  0  0  0
 14 15  1  0  0  0  0
 14 16  2  0  0  0  0
 16 17  1  0  0  0  0
 18 16  1  0  0  0  0
 19 18  2  0  0  0  0
 20  3  1  0  0  0  0
 20 26  1  0  0  0  0
 21 20  2  0  0  0  0
 22 23  1  0  0  0  0
 23 29  1  0  0  0  0
 23 24  2  0  0  0  0
 24 30  1  0  0  0  0
 25 24  1  0  0  0  0
 26 25  2  0  0  0  0
 27 22  2  0  0  0  0
 27 26  1  0  0  0  0
 28 22  1  0  0  0  0
M  END
>  <minimizedAffinity>
-5.3646903

$$$$

 OpenBabel03242513153D

 30 32  0  0  0  0  0  0  0  0999 V2000
   38.4060   28.0970   39.4530 Cl  0  0  0  0  0  0  0  0  0  0  0  0
   39.4740   28.4140   40.8230 C   0  0  0  0  0  0  0  0  0  0  0  0
   40.2140   29.5500   40.8510 C   0  0  0  0  0  0  0  0  0  0  0  0
   41.0190   29.7610   41.9400 C   0  0  0  0  0  0  0  0  0  0  0  0
   41.0810   28.8560   42.9710 C   0  0  0  0  0  0  0  0  0  0  0  0
   40.3060   27.6740   42.9330 C   0  0  0  0  0  0  0  0  0  0  0  0
   39.4900   27.4640   41.8270 C   0  0  0  0  0  0  0  0  0  0  0  0
   41.6580   30.5840   42.1600 H   0  0  0  0  0  0  0  0  0  0  0  0
   41.6710   28.9060   43.8760 H   0  0  0  0  0  0  0  0  0  0  0  0
   40.3120   26.9300   43.7090 H   0  0  0  0  0  0  0  0  0  0  0  0
   36.6430   27.4300   42.9320 Cl  0  0  0  0  0  0  0  0  0  0  0  0
   37.4030   26.0290   42.2260 C   0  0  0  0  0  0  0  0  0  0  0  0
   38.6880   26.2440   41.7850 C   0  0  0  0  0  0  0  0  0  0  0  0
   39.4140   25.2030   41.1950 C   0  0  0  0  0  0  0  0  0  0  0  0
   40.4260   25.2500   40.8130 H   0  0  0  0  0  0  0  0  0  0  0  0
   38.8340   23.9420   41.0540 C   0  0  0  0  0  0  0  0  0  0  0  0
   39.3380   23.1000   40.6100 H   0  0  0  0  0  0  0  0  0  0  0  0
   37.5320   23.7350   41.5030 C   0  0  0  0  0  3  0  0  0  0  0  0
   36.8350   24.7820   42.0830 C   0  0  0  0  0  3  0  0  0  0  0  0
   40.1460   30.4900   39.7520 C   0  0  0  0  0  0  0  0  0  0  0  0
   40.9300   30.2740   38.7840 O   0  0  0  0  0  0  0  0  0  0  0  0
   37.2080   32.5090   39.0670 C   0  0  0  0  0  0  0  0  0  0  0  0
   37.4630   33.7310   39.7160 C   0  0  0  0  0  0  0  0  0  0  0  0
   38.6870   33.8240   40.3900 C   0  0  0  0  0  0  0  0  0  0  0  0
   39.5290   32.7570   40.3750 N   0  0  0  0  0  0  0  0  0  0  0  0
   39.2440   31.6120   39.7440 C   0  0  0  0  0  0  0  0  0  0  0  0
   38.0780   31.5090   39.0960 N   0  0  0  0  0  0  0  0  0  0  0  0
   36.2480   32.4880   38.5590 H   0  0  0  0  0  0  0  0  0  0  0  0
   36.8270   34.5990   39.7520 H   0  0  0  0  0  0  0  0  0  0  0  0
   39.0180   34.7090   40.9350 H   0  0  0  0  0  0  0  0  0  0  0  0
  1  2  1  0  0  0  0
  2  3  2  0  0  0  0
  2  7  1  0  0  0  0
  3  4  1  0  0  0  0
  4  8  1  0  0  0  0
  4  5  2  0  0  0  0
  5  9  1  0  0  0  0
  6  5  1  0  0  0  0
  6 10  1  0  0  0  0
  7  6  2  0  0  0  0
 12 11  1  0  0  0  0
 13  7  1  0  0  0  0
 13 12  2  0  0  0  0
 14 13  1  0  0  0  0
 15 14  1  0  0  0  0
 16 14  2  0  0  0  0
 16 18  1  0  0  0  0
 17 16  1  0  0  0  0
 18 19  2  0  0  0  0
 19 12  1  0  0  0  0
 20  3  1  0  0  0  0
 21 20  2  0  0  0  0
 22 27  2  0  0  0  0
 22 23  1  0  0  0  0
 23 29  1  0  0  0  0
 23 24  2  0  0  0  0
 24 30  1  0  0  0  0
 25 24  1  0  0  0  0
 26 20  1  0  0  0  0
 26 25  2  0  0  0  0
 27 26  1  0  0  0  0
 28 22  1  0  0  0  0
M  END
>  <minimizedAffinity>
-5.33503389

$$$$
