
 OpenBabel03252508293D

 39 42  0  0  1  0  0  0  0  0999 V2000
   42.5990   31.4910   40.1470 N   0  0  0  0  0  0  0  0  0  0  0  0
   43.1780   30.8110   41.3100 C   0  0  2  0  0  0  0  0  0  0  0  0
   42.1770   30.5180   42.3610 C   0  0  0  0  0  0  0  0  0  0  0  0
   40.8100   30.7680   41.9320 N   0  0  0  0  0  0  0  0  0  0  0  0
   40.5870   32.0060   41.2810 C   0  0  0  0  0  0  0  0  0  0  0  0
   41.8480   32.6210   40.7350 C   0  0  2  0  0  0  0  0  0  0  0  0
   43.4060   31.9490   39.6610 H   0  0  0  0  0  0  0  0  0  0  0  0
   43.7130   29.9000   40.9280 H   0  0  0  0  0  0  0  0  0  0  0  0
   42.2140   31.0960   43.2910 H   0  0  0  0  0  0  0  0  0  0  0  0
   42.2110   29.4110   42.5520 H   0  0  0  0  0  0  0  0  0  0  0  0
   40.1910   30.5690   42.7380 H   0  0  0  0  0  0  0  0  0  0  0  0
   39.9460   31.7920   40.3830 H   0  0  0  0  0  0  0  0  0  0  0  0
   40.0170   32.7580   41.8690 H   0  0  0  0  0  0  0  0  0  0  0  0
   42.4240   32.9950   41.6060 H   0  0  0  0  0  0  0  0  0  0  0  0
   43.4880   35.1780   41.1130 Cl  0  0  0  0  0  0  0  0  0  0  0  0
   42.2940   34.8970   39.8620 C   0  0  0  0  0  0  0  0  0  0  0  0
   41.6070   33.7010   39.7800 C   0  0  0  0  0  0  0  0  0  0  0  0
   40.6670   33.5060   38.7790 C   0  0  0  0  0  0  0  0  0  0  0  0
   40.1150   32.5760   38.6940 H   0  0  0  0  0  0  0  0  0  0  0  0
   40.3920   34.4770   37.8510 C   0  0  0  0  0  0  0  0  0  0  0  0
   39.6620   34.3540   37.0560 H   0  0  0  0  0  0  0  0  0  0  0  0
   41.0640   35.6980   37.8990 C   0  0  0  0  0  3  0  0  0  0  0  0
   41.9990   35.8490   38.9210 C   0  0  0  0  0  3  0  0  0  0  0  0
   45.9530   32.9820   42.0740 C   0  0  0  0  0  0  0  0  0  0  0  0
   45.3440   32.7610   43.3160 C   0  0  0  0  0  0  0  0  0  0  0  0
   44.2530   31.9240   43.1620 C   0  0  0  0  0  0  0  0  0  0  0  0
   44.2210   31.6620   41.8590 N   0  0  0  0  0  0  0  0  0  0  0  0
   45.2100   32.2760   41.2240 N   0  0  0  0  0  0  0  0  0  0  0  0
   45.7770   33.2440   44.1990 H   0  0  0  0  0  0  0  0  0  0  0  0
   43.7800   31.7430   44.1210 H   0  0  0  0  0  0  0  0  0  0  0  0
   48.5800   35.2670   40.6490 C   0  0  0  0  0  0  0  0  0  0  0  0
   47.3720   34.4990   40.6990 C   0  0  0  0  0  0  0  0  0  0  0  0
   47.1430   33.8050   41.8610 C   0  0  0  0  0  0  0  0  0  0  0  0
   48.0420   33.8750   42.8800 N   0  0  0  0  0  0  0  0  0  0  0  0
   49.1720   34.6070   42.8050 C   0  0  0  0  0  0  0  0  0  0  0  0
   49.4150   35.2930   41.6800 N   0  0  0  0  0  0  0  0  0  0  0  0
   48.7470   35.8090   39.7250 H   0  0  0  0  0  0  0  0  0  0  0  0
   46.6530   34.4340   39.9020 H   0  0  0  0  0  0  0  0  0  0  0  0
   49.8060   34.5800   43.6840 H   0  0  0  0  0  0  0  0  0  0  0  0
  1  6  1  0  0  0  0
  1  2  1  0  0  0  0
  2  8  1  6  0  0  0
  2 27  1  0  0  0  0
  2  3  1  0  0  0  0
  3 10  1  0  0  0  0
  3  9  1  0  0  0  0
  4  3  1  0  0  0  0
  4 11  1  0  0  0  0
  5 13  1  0  0  0  0
  5  4  1  0  0  0  0
  6  5  1  0  0  0  0
  6 14  1  1  0  0  0
  7  1  1  0  0  0  0
 12  5  1  0  0  0  0
 16 15  1  0  0  0  0
 17 16  1  0  0  0  0
 17  6  1  0  0  0  0
 18 17  2  0  0  0  0
 19 18  1  0  0  0  0
 20 22  2  0  0  0  0
 20 18  1  0  0  0  0
 21 20  1  0  0  0  0
 22 23  1  0  0  0  0
 23 16  2  0  0  0  0
 24 25  1  0  0  0  0
 25 29  1  0  0  0  0
 26 25  2  0  0  0  0
 26 30  1  0  0  0  0
 27 26  1  0  0  0  0
 28 27  1  0  0  0  0
 28 24  2  0  0  0  0
 31 32  2  0  0  0  0
 31 36  1  0  0  0  0
 32 33  1  0  0  0  0
 33 24  1  0  0  0  0
 33 34  2  0  0  0  0
 35 34  1  0  0  0  0
 35 39  1  0  0  0  0
 36 35  2  0  0  0  0
 37 31  1  0  0  0  0
 38 32  1  0  0  0  0
M  END
>  <minimizedAffinity>
-4.97666597

>  <minimizedRMSD>
3.0980916

$$$$
