
     RDKit          3D

 41 44  0  0  0  0  0  0  0  0999 V2000
   45.6331   34.6197   42.0293 C   0  0  0  0  0  0  0  0  0  0  0  0
   44.9021   35.6530   42.6282 C   0  0  0  0  0  0  0  0  0  0  0  0
   43.5560   35.5007   42.3483 C   0  0  0  0  0  0  0  0  0  0  0  0
   43.4977   34.4030   41.5989 N   0  0  0  0  0  0  0  0  0  0  0  0
   44.7064   33.8880   41.4125 N   0  0  0  0  0  0  0  0  0  0  0  0
   49.3586   35.1376   41.9734 C   0  0  0  0  0  0  0  0  0  0  0  0
   47.9709   35.4537   41.8160 C   0  0  0  0  0  0  0  0  0  0  0  0
   47.0829   34.4550   42.1274 C   0  0  0  0  0  0  0  0  0  0  0  0
   47.5435   33.2490   42.5573 N   0  0  0  0  0  0  0  0  0  0  0  0
   48.8583   32.9787   42.6964 C   0  0  0  0  0  0  0  0  0  0  0  0
   49.7422   33.9407   42.3975 N   0  0  0  0  0  0  0  0  0  0  0  0
   42.3504   33.7334   39.6442 N   0  0  0  0  0  0  0  0  0  0  0  0
   42.2212   33.9307   41.0907 C   0  0  2  0  0  0  0  0  0  0  0  0
   41.1595   34.9011   41.4457 C   0  0  0  0  0  0  0  0  0  0  0  0
   40.3360   35.2859   40.3113 N   0  0  0  0  0  0  0  0  0  0  0  0
   41.0375   35.6361   39.1319 C   0  0  0  0  0  0  0  0  0  0  0  0
   42.4476   35.1080   39.1060 C   0  0  2  0  0  0  0  0  0  0  0  0
   45.4484   36.4063   43.2069 H   0  0  0  0  0  0  0  0  0  0  0  0
   42.9818   36.2936   42.8144 H   0  0  0  0  0  0  0  0  0  0  0  0
   50.0465   35.9370   41.7233 H   0  0  0  0  0  0  0  0  0  0  0  0
   47.5922   36.4022   41.4773 H   0  0  0  0  0  0  0  0  0  0  0  0
   49.0955   31.9820   43.0467 H   0  0  0  0  0  0  0  0  0  0  0  0
   43.3084   33.3365   39.5012 H   0  0  0  0  0  0  0  0  0  0  0  0
   42.0781   32.9159   41.5524 H   0  0  0  0  0  0  0  0  0  0  0  0
   41.4604   35.8834   41.8292 H   0  0  0  0  0  0  0  0  0  0  0  0
   40.4497   34.3765   42.1409 H   0  0  0  0  0  0  0  0  0  0  0  0
   39.6512   35.9855   40.6483 H   0  0  0  0  0  0  0  0  0  0  0  0
   40.5135   35.1280   38.2773 H   0  0  0  0  0  0  0  0  0  0  0  0
   41.0288   36.7170   38.8749 H   0  0  0  0  0  0  0  0  0  0  0  0
   43.0289   35.7151   39.8295 H   0  0  0  0  0  0  0  0  0  0  0  0
   44.5371   32.9572   38.4906 Cl  0  0  0  0  0  0  0  0  0  0  0  0
   44.0227   34.2330   37.4049 C   0  0  0  0  0  0  0  0  0  0  0  0
   43.0681   35.1571   37.7831 C   0  0  0  0  0  0  0  0  0  0  0  0
   42.6798   36.1560   36.9043 C   0  0  0  0  0  0  0  0  0  0  0  0
   41.9322   36.8930   37.1785 H   0  0  0  0  0  0  0  0  0  0  0  0
   43.2213   36.2600   35.6483 C   0  0  0  0  0  0  0  0  0  0  0  0
   42.9384   37.0307   34.9366 H   0  0  0  0  0  0  0  0  0  0  0  0
   44.1875   35.3474   35.2281 C   0  0  0  0  0  0  0  0  0  0  0  0
   44.5465   34.3607   36.1454 C   0  0  0  0  0  0  0  0  0  0  0  0
   44.6680   35.3589   34.2476 H   0  0  0  0  0  0  0  0  0  0  0  0
   45.2930   33.6520   35.8266 H   0  0  0  0  0  0  0  0  0  0  0  0
  1  8  1  0
  1  2  1  0
  3  2  2  0
  4  3  1  0
  5  4  1  0
  5  1  2  0
  6 11  2  0
  7  6  1  0
  7  8  2  0
  8  9  1  0
  9 10  2  0
 11 10  1  0
 12 13  1  0
 13 14  1  0
 13  4  1  0
 15 14  1  0
 16 15  1  0
 17 16  1  0
 17 12  1  0
  2 18  1  0
  3 19  1  0
  6 20  1  0
  7 21  1  0
 10 22  1  0
 12 23  1  0
 13 24  1  1
 14 25  1  0
 14 26  1  0
 15 27  1  0
 16 28  1  0
 16 29  1  0
 17 30  1  1
 31 32  1  0
 32 33  2  0
 33 34  1  0
 34 35  1  0
 34 36  2  0
 36 37  1  0
 36 38  1  0
 38 39  2  0
 39 32  1  0
 38 40  1  0
 39 41  1  0
 17 33  1  0
M  ISO  8  18  14  19  14  20  14  21  14  22  14  23   5  24  13  25  13
M  ISO  7  26  13  27   5  28  13  29  13  30  13  35  15  37  16
M  END
>  <DihAtoms>  (1) 
15,16,32,31

>  <DihDeg>  (1) 
-90.00390294992116

$$$$
