
 OpenBabel03242523473D

 19 20  0  0  0  0  0  0  0  0999 V2000
   45.0690   35.7790   44.0230 C   0  0  0  0  0  0  0  0  0  0  0  0
   45.5090   35.5980   42.7000 C   0  0  0  0  0  0  0  0  0  0  0  0
   45.9810   34.3330   42.3300 C   0  0  0  0  0  0  0  0  0  0  0  0
   45.9860   33.3620   43.2670 N   0  0  0  0  0  0  0  0  0  0  0  0
   45.5570   33.5710   44.5180 C   0  0  0  0  0  0  0  0  0  0  0  0
   45.0960   34.7800   44.9050 N   0  0  0  0  0  0  0  0  0  0  0  0
   45.4730   36.4130   42.0240 H   0  0  0  0  0  0  0  0  0  0  0  0
   45.6090   32.7130   45.1830 H   0  0  0  0  0  0  0  0  0  0  0  0
   48.6570   35.4460   41.7760 Cl  0  0  0  0  0  0  0  0  0  0  0  0
   47.6900   34.5490   40.6080 C   0  0  0  0  0  0  0  0  0  0  0  0
   46.4500   34.0770   40.9860 C   0  0  0  0  0  0  0  0  0  0  0  0
   45.7630   33.3870   40.0080 C   0  0  0  0  0  0  0  0  0  0  0  0
   44.7940   33.0000   40.2520 H   0  0  0  0  0  0  0  0  0  0  0  0
   46.2620   33.1730   38.7390 C   0  0  0  0  0  0  0  0  0  0  0  0
   45.6760   32.6180   37.9970 H   0  0  0  0  0  0  0  0  0  0  0  0
   47.5140   33.6710   38.4180 C   0  0  0  0  0  0  0  0  0  0  0  0
   48.2450   34.3710   39.3590 C   0  0  0  0  0  0  0  0  0  0  0  0
   44.6120   37.0170   44.3630 O   0  0  0  0  0  0  0  0  0  0  0  0
   43.6360   37.2220   44.0990 H   0  0  0  0  0  0  0  0  0  0  0  0
  1 18  1  0  0  0  0
  1  6  1  0  0  0  0
  2  1  2  0  0  0  0
  3  2  1  0  0  0  0
  3  4  2  0  0  0  0
  4  5  1  0  0  0  0
  5  6  2  0  0  0  0
  5  8  1  0  0  0  0
  7  2  1  0  0  0  0
 10 11  1  0  0  0  0
 10  9  1  0  0  0  0
 11  3  1  0  0  0  0
 12 13  1  0  0  0  0
 12 11  2  0  0  0  0
 14 12  1  0  0  0  0
 15 14  1  0  0  0  0
 16 14  2  0  0  0  0
 16 17  1  0  0  0  0
 17 10  2  0  0  0  0
 19 18  1  0  0  0  0
M  END
>  <minimizedAffinity>
-4.76829624

>  <minimizedRMSD>
2.88199091

$$$$
