
 OpenBabel03252508293D

 39 42  0  0  1  0  0  0  0  0999 V2000
   41.1730   33.4230   39.4900 N   0  0  0  0  0  0  0  0  0  0  0  0
   41.2570   33.0220   40.8970 C   0  0  2  0  0  0  0  0  0  0  0  0
   40.0670   33.4220   41.6820 C   0  0  0  0  0  0  0  0  0  0  0  0
   38.9840   33.9320   40.8550 N   0  0  0  0  0  0  0  0  0  0  0  0
   39.3540   34.8890   39.8790 C   0  0  0  0  0  0  0  0  0  0  0  0
   40.8240   34.8600   39.5520 C   0  0  2  0  0  0  0  0  0  0  0  0
   42.1580   33.4180   39.1380 H   0  0  0  0  0  0  0  0  0  0  0  0
   41.4590   31.9160   40.9140 H   0  0  0  0  0  0  0  0  0  0  0  0
   40.1730   34.2330   42.4110 H   0  0  0  0  0  0  0  0  0  0  0  0
   39.6470   32.4890   42.1470 H   0  0  0  0  0  0  0  0  0  0  0  0
   38.2160   34.2150   41.4900 H   0  0  0  0  0  0  0  0  0  0  0  0
   38.8320   34.6020   38.9260 H   0  0  0  0  0  0  0  0  0  0  0  0
   39.0280   35.9310   40.0850 H   0  0  0  0  0  0  0  0  0  0  0  0
   41.3530   35.3000   40.4220 H   0  0  0  0  0  0  0  0  0  0  0  0
   43.7420   34.7060   38.6410 Cl  0  0  0  0  0  0  0  0  0  0  0  0
   42.4550   35.5750   37.8300 C   0  0  0  0  0  0  0  0  0  0  0  0
   41.1660   35.5810   38.3270 C   0  0  0  0  0  0  0  0  0  0  0  0
   40.1670   36.2770   37.6660 C   0  0  0  0  0  0  0  0  0  0  0  0
   39.1480   36.2970   38.0370 H   0  0  0  0  0  0  0  0  0  0  0  0
   40.4200   36.9750   36.5120 C   0  0  0  0  0  0  0  0  0  0  0  0
   39.6590   37.5310   35.9700 H   0  0  0  0  0  0  0  0  0  0  0  0
   41.7070   36.9950   35.9770 C   0  0  0  0  0  3  0  0  0  0  0  0
   42.6780   36.2810   36.6760 C   0  0  0  0  0  3  0  0  0  0  0  0
   44.4900   34.0070   42.1530 C   0  0  0  0  0  0  0  0  0  0  0  0
   43.6770   35.1200   42.3990 C   0  0  0  0  0  0  0  0  0  0  0  0
   42.3890   34.8680   41.9640 C   0  0  0  0  0  0  0  0  0  0  0  0
   42.4440   33.6330   41.4720 N   0  0  0  0  0  0  0  0  0  0  0  0
   43.6660   33.1300   41.5810 N   0  0  0  0  0  0  0  0  0  0  0  0
   44.1300   35.9970   42.8740 H   0  0  0  0  0  0  0  0  0  0  0  0
   41.7510   35.7230   42.1580 H   0  0  0  0  0  0  0  0  0  0  0  0
   48.1780   34.6340   42.5540 C   0  0  0  0  0  0  0  0  0  0  0  0
   46.8280   34.8660   42.1340 C   0  0  0  0  0  0  0  0  0  0  0  0
   45.9090   33.9140   42.4950 C   0  0  0  0  0  0  0  0  0  0  0  0
   46.3050   32.8280   43.2130 N   0  0  0  0  0  0  0  0  0  0  0  0
   47.5840   32.6350   43.5960 C   0  0  0  0  0  0  0  0  0  0  0  0
   48.4980   33.5530   43.2540 N   0  0  0  0  0  0  0  0  0  0  0  0
   48.8910   35.3950   42.2610 H   0  0  0  0  0  0  0  0  0  0  0  0
   46.5000   35.7190   41.5670 H   0  0  0  0  0  0  0  0  0  0  0  0
   47.7710   31.7310   44.1630 H   0  0  0  0  0  0  0  0  0  0  0  0
  1  6  1  0  0  0  0
  1  2  1  0  0  0  0
  2  8  1  1  0  0  0
  2 27  1  0  0  0  0
  2  3  1  0  0  0  0
  3 10  1  0  0  0  0
  3  9  1  0  0  0  0
  4 11  1  0  0  0  0
  4  3  1  0  0  0  0
  5 13  1  0  0  0  0
  5  4  1  0  0  0  0
  6  5  1  0  0  0  0
  6 14  1  1  0  0  0
  7  1  1  0  0  0  0
 12  5  1  0  0  0  0
 16 17  1  0  0  0  0
 16 15  1  0  0  0  0
 17  6  1  0  0  0  0
 18 19  1  0  0  0  0
 18 17  2  0  0  0  0
 20 18  1  0  0  0  0
 21 20  1  0  0  0  0
 22 20  2  0  0  0  0
 22 23  1  0  0  0  0
 23 16  2  0  0  0  0
 24 25  1  0  0  0  0
 24 33  1  0  0  0  0
 25 29  1  0  0  0  0
 26 30  1  0  0  0  0
 26 25  2  0  0  0  0
 27 28  1  0  0  0  0
 27 26  1  0  0  0  0
 28 24  2  0  0  0  0
 31 36  1  0  0  0  0
 32 33  1  0  0  0  0
 32 31  2  0  0  0  0
 33 34  2  0  0  0  0
 34 35  1  0  0  0  0
 35 39  1  0  0  0  0
 36 35  2  0  0  0  0
 37 31  1  0  0  0  0
 38 32  1  0  0  0  0
M  END
>  <minimizedAffinity>
-3.18769574

>  <minimizedRMSD>
1.85187089

$$$$
