
     RDKit          3D

 34 36  0  0  0  0  0  0  0  0999 V2000
   44.6037   35.1092   44.2157 C   0  0  0  0  0  0  0  0  0  0  0  0
   44.7717   34.1046   43.2679 C   0  0  0  0  0  0  0  0  0  0  0  0
   45.3648   32.9241   43.6750 C   0  0  0  0  0  0  0  0  0  0  0  0
   45.7631   32.7734   44.9659 N   0  0  0  0  0  0  0  0  0  0  0  0
   45.5875   33.7730   45.8758 C   0  0  0  0  0  0  0  0  0  0  0  0
   45.0134   34.9288   45.5033 N   0  0  0  0  0  0  0  0  0  0  0  0
   44.3110   34.4032   41.9621 N   0  0  0  0  0  0  0  0  0  0  0  0
   44.4417   33.3963   40.9512 C   0  0  1  0  0  0  0  0  0  0  0  0
   43.7789   33.7105   39.6573 C   0  0  0  0  0  0  0  0  0  0  0  0
   42.5262   34.3584   39.7698 N   0  0  0  0  0  0  0  0  0  0  0  0
   42.4048   35.3466   40.7616 C   0  0  0  0  0  0  0  0  0  0  0  0
   43.7122   35.6118   41.4924 C   0  0  0  0  0  0  0  0  0  0  0  0
   44.1672   36.0900   44.0944 H   0  0  0  0  0  0  0  0  0  0  0  0
   45.4871   32.1666   42.9478 H   0  0  0  0  0  0  0  0  0  0  0  0
   45.9429   33.5424   46.8751 H   0  0  0  0  0  0  0  0  0  0  0  0
   44.0600   32.4433   41.3730 H   0  0  0  0  0  0  0  0  0  0  0  0
   44.4734   34.3436   39.0300 H   0  0  0  0  0  0  0  0  0  0  0  0
   43.6464   32.7698   39.0824 H   0  0  0  0  0  0  0  0  0  0  0  0
   41.9521   34.3814   38.9421 H   0  0  0  0  0  0  0  0  0  0  0  0
   42.1339   36.3227   40.2825 H   0  0  0  0  0  0  0  0  0  0  0  0
   41.6309   35.1709   41.5363 H   0  0  0  0  0  0  0  0  0  0  0  0
   43.5793   36.4195   42.2000 H   0  0  0  0  0  0  0  0  0  0  0  0
   44.3796   36.0341   40.6831 H   0  0  0  0  0  0  0  0  0  0  0  0
   46.3764   35.5240   41.6730 Cl  0  0  0  0  0  0  0  0  0  0  0  0
   46.8919   34.0545   40.8443 C   0  0  0  0  0  0  0  0  0  0  0  0
   45.8752   33.1336   40.5642 C   0  0  0  0  0  0  0  0  0  0  0  0
   46.2749   31.9889   39.9190 C   0  0  0  0  0  0  0  0  0  0  0  0
   45.5681   31.2402   39.6695 H   0  0  0  0  0  0  0  0  0  0  0  0
   47.5815   31.7375   39.5596 C   0  0  0  0  0  0  0  0  0  0  0  0
   47.8995   30.8447   39.0553 H   0  0  0  0  0  0  0  0  0  0  0  0
   48.5521   32.6704   39.8540 C   0  0  0  0  0  0  0  0  0  0  0  0
   48.2033   33.8346   40.5000 C   0  0  0  0  0  0  0  0  0  0  0  0
   49.6163   32.5984   39.6279 H   0  0  0  0  0  0  0  0  0  0  0  0
   48.8990   34.6275   40.7732 H   0  0  0  0  0  0  0  0  0  0  0  0
  1  6  2  0
  2  3  2  0
  2  1  1  0
  3  4  1  0
  4  5  2  0
  6  5  1  0
  7  2  1  0
  8  7  1  0
  9 10  1  0
  9  8  1  0
 10 11  1  0
 11 12  1  0
 12  7  1  0
  1 13  1  0
  3 14  1  0
  5 15  1  0
  8 16  1  1
  9 17  1  0
  9 18  1  0
 10 19  1  0
 11 20  1  0
 11 21  1  0
 12 22  1  0
 12 23  1  0
 24 25  1  0
 25 26  2  0
 26 27  1  0
 27 28  1  0
 27 29  2  0
 29 30  1  0
 29 31  1  0
 31 32  2  0
 32 25  1  0
 31 33  1  0
 32 34  1  0
  8 26  1  0
M  ISO  8  13  14  14  14  15  14  16  13  17  13  18  13  19   5  20  13
M  ISO  5  21  13  22  13  23  13  28  15  30  16
M  END
>  <DihAtoms>  (1) 
6,7,25,24

>  <DihDeg>  (1) 
146.12686295270726

$$$$
