REMARK  Name = 
REMARK  5 active torsions:
REMARK  status: ('A' for Active; 'I' for Inactive)
REMARK    1  A    between atoms: C_2  and  C_7
REMARK    2  A    between atoms: C_5  and  O_11
REMARK    3  A    between atoms: O_11  and  C_12
REMARK    4  A    between atoms: C_12  and  C_13
REMARK    5  A    between atoms: C_17  and  C_27
REMARK                            x       y       z     vdW  Elec       q    Type
REMARK                         _______ _______ _______ _____ _____    ______ ____
ROOT
ATOM      1  C   UNL     1      46.526  30.773  48.018  0.00  0.00    +0.000 A 
ATOM      2  C   UNL     1      47.080  29.657  47.433  0.00  0.00    +0.000 A 
ATOM      3  C   UNL     1      48.305  29.226  47.818  0.00  0.00    +0.000 A 
ATOM      4  N   UNL     1      48.993  29.877  48.770  0.00  0.00    +0.000 NA
ATOM      5  C   UNL     1      48.466  30.963  49.347  0.00  0.00    +0.000 A 
ATOM      6  N   UNL     1      47.235  31.417  48.977  0.00  0.00    +0.000 NA
ATOM      7  H   UNL     1      46.444  29.213  46.683  0.00  0.00    +0.000 HD
ATOM      8  H   UNL     1      48.675  28.343  47.314  0.00  0.00    +0.000 HD
ENDROOT
BRANCH   5  11
ATOM      9 CL   UNL     1      51.182  32.076  48.503  0.00  0.00    +0.000 Cl
ATOM     10  C   UNL     1      50.460  32.210  50.089  0.00  0.00    +0.000 A 
ATOM     11  C   UNL     1      49.225  31.679  50.396  0.00  0.00    +0.000 A 
ATOM     12  C   UNL     1      48.610  31.755  51.624  0.00  0.00    +0.000 A 
ATOM     13  H   UNL     1      47.639  31.326  51.828  0.00  0.00    +0.000 HD
ATOM     14  C   UNL     1      49.335  32.429  52.592  0.00  0.00    +0.000 A 
ATOM     15  H   UNL     1      48.947  32.549  53.595  0.00  0.00    +0.000 HD
ATOM     16  C   UNL     1      50.573  32.984  52.358  0.00  0.00    +0.000 A 
ATOM     17  C   UNL     1      51.135  32.867  51.085  0.00  0.00    +0.000 A 
ENDBRANCH   5  11
BRANCH   1  18
ATOM     18  C   UNL     1      45.231  31.422  47.771  0.00  0.00    +0.000 C 
ATOM     19  H   UNL     1      44.583  31.205  48.663  0.00  0.00    +0.000 HD
ATOM     20  H   UNL     1      44.675  31.005  46.901  0.00  0.00    +0.000 HD
BRANCH  18  21
ATOM     21  O   UNL     1      45.458  32.805  47.686  0.00  0.00    +0.000 OA
BRANCH  21  26
ATOM     22  C   UNL     1      44.825  35.157  45.091  0.00  0.00    +0.000 A 
ATOM     23  C   UNL     1      45.704  34.785  44.086  0.00  0.00    +0.000 A 
ATOM     24  C   UNL     1      46.533  33.686  44.331  0.00  0.00    +0.000 A 
ATOM     25  N   UNL     1      46.453  33.040  45.505  0.00  0.00    +0.000 NA
ATOM     26  C   UNL     1      45.572  33.444  46.461  0.00  0.00    +0.000 A 
ATOM     27  N   UNL     1      44.774  34.486  46.252  0.00  0.00    +0.000 NA
ATOM     28  H   UNL     1      44.178  36.005  44.913  0.00  0.00    +0.000 HD
ATOM     29  H   UNL     1      47.218  33.404  43.535  0.00  0.00    +0.000 HD
BRANCH  23  30
ATOM     30  C   UNL     1      45.706  35.579  42.819  0.00  0.00    +0.000 C 
ATOM     31  F   UNL     1      45.220  36.814  43.156  0.00  0.00    +0.000 F 
ATOM     32  F   UNL     1      44.813  34.928  41.958  0.00  0.00    +0.000 F 
ATOM     33  F   UNL     1      46.971  35.600  42.306  0.00  0.00    +0.000 F 
ENDBRANCH  23  30
ENDBRANCH  21  26
ENDBRANCH  18  21
ENDBRANCH   1  18
TORSDOF 5
