
 OpenBabel03242514453D

 21 22  0  0  0  0  0  0  0  0999 V2000
   39.0650   31.6030   40.1730 C   0  0  0  0  0  0  0  0  0  0  0  0
   37.7270   31.8770   39.8720 C   0  0  0  0  0  0  0  0  0  0  0  0
   37.3320   33.2250   39.7870 C   0  0  0  0  0  0  0  0  0  0  0  0
   38.2820   34.1600   40.0040 N   0  0  0  0  0  0  0  0  0  0  0  0
   39.5690   33.8610   40.2940 C   0  0  0  0  0  0  0  0  0  0  0  0
   39.9580   32.5620   40.3790 N   0  0  0  0  0  0  0  0  0  0  0  0
   36.3420   33.5410   39.5630 H   0  0  0  0  0  0  0  0  0  0  0  0
   40.2470   34.6850   40.4510 H   0  0  0  0  0  0  0  0  0  0  0  0
   37.5260   31.2070   37.0220 Cl  0  0  0  0  0  0  0  0  0  0  0  0
   36.5790   30.4760   38.3190 C   0  0  0  0  0  0  0  0  0  0  0  0
   36.7270   30.8410   39.6420 C   0  0  0  0  0  0  0  0  0  0  0  0
   35.9590   30.2400   40.6420 C   0  0  0  0  0  0  0  0  0  0  0  0
   36.1300   30.5780   41.6630 H   0  0  0  0  0  0  0  0  0  0  0  0
   35.0510   29.2700   40.2620 C   0  0  0  0  0  0  0  0  0  0  0  0
   34.4670   28.8230   41.0770 H   0  0  0  0  0  0  0  0  0  0  0  0
   34.9130   28.9130   38.9230 C   0  0  0  0  0  3  0  0  0  0  0  0
   35.6730   29.5100   37.9440 C   0  0  0  0  0  3  0  0  0  0  0  0
   39.4320   30.1480   40.2520 C   0  0  0  0  0  0  0  0  0  0  0  0
   40.5520   30.0330   40.1980 H   0  0  0  0  0  0  0  0  0  0  0  0
   39.0130   29.5640   39.4330 H   0  0  0  0  0  0  0  0  0  0  0  0
   39.1320   29.7870   41.2780 H   0  0  0  0  0  0  0  0  0  0  0  0
  1 18  1  0  0  0  0
  1  6  1  0  0  0  0
  2  1  2  0  0  0  0
  3  2  1  0  0  0  0
  3  4  2  0  0  0  0
  4  5  1  0  0  0  0
  5  6  2  0  0  0  0
  5  8  1  0  0  0  0
  7  3  1  0  0  0  0
  9 10  1  0  0  0  0
 10 11  1  0  0  0  0
 11  2  1  0  0  0  0
 11 12  2  0  0  0  0
 12 13  1  0  0  0  0
 14 12  1  0  0  0  0
 14 15  1  0  0  0  0
 16 14  2  0  0  0  0
 17 10  2  0  0  0  0
 17 16  1  0  0  0  0
 18 21  1  0  0  0  0
 19 18  1  0  0  0  0
 20 18  1  0  0  0  0
M  END
>  <minimizedAffinity>
-4.41874313

$$$$

 OpenBabel03242514453D

 21 22  0  0  0  0  0  0  0  0999 V2000
   37.6410   31.3120   40.9290 C   0  0  0  0  0  0  0  0  0  0  0  0
   38.4440   30.3770   41.5910 C   0  0  0  0  0  0  0  0  0  0  0  0
   39.7890   30.7130   41.8310 C   0  0  0  0  0  0  0  0  0  0  0  0
   40.2070   31.9230   41.4000 N   0  0  0  0  0  0  0  0  0  0  0  0
   39.4050   32.8050   40.7610 C   0  0  0  0  0  0  0  0  0  0  0  0
   38.1050   32.4870   40.5250 N   0  0  0  0  0  0  0  0  0  0  0  0
   40.4810   30.0770   42.3250 H   0  0  0  0  0  0  0  0  0  0  0  0
   39.8420   33.7440   40.4570 H   0  0  0  0  0  0  0  0  0  0  0  0
   38.6490   28.3640   39.4660 Cl  0  0  0  0  0  0  0  0  0  0  0  0
   38.0240   28.0820   41.0910 C   0  0  0  0  0  0  0  0  0  0  0  0
   37.9570   29.0790   42.0440 C   0  0  0  0  0  0  0  0  0  0  0  0
   37.4550   28.8190   43.3220 C   0  0  0  0  0  0  0  0  0  0  0  0
   37.4320   29.6540   44.0200 H   0  0  0  0  0  0  0  0  0  0  0  0
   37.0310   27.5330   43.5970 C   0  0  0  0  0  0  0  0  0  0  0  0
   36.6440   27.3700   44.6120 H   0  0  0  0  0  0  0  0  0  0  0  0
   37.1050   26.5380   42.6260 C   0  0  0  0  0  3  0  0  0  0  0  0
   37.6000   26.8030   41.3700 C   0  0  0  0  0  3  0  0  0  0  0  0
   36.2140   30.9020   40.6990 C   0  0  0  0  0  0  0  0  0  0  0  0
   35.5930   31.8070   40.4430 H   0  0  0  0  0  0  0  0  0  0  0  0
   35.7610   30.4440   41.5780 H   0  0  0  0  0  0  0  0  0  0  0  0
   36.2030   30.2480   39.7790 H   0  0  0  0  0  0  0  0  0  0  0  0
  1  2  1  0  0  0  0
  2  3  2  0  0  0  0
  2 11  1  0  0  0  0
  3  7  1  0  0  0  0
  4  3  1  0  0  0  0
  5  4  2  0  0  0  0
  6  5  1  0  0  0  0
  6  1  2  0  0  0  0
  8  5  1  0  0  0  0
  9 10  1  0  0  0  0
 10 17  2  0  0  0  0
 10 11  1  0  0  0  0
 11 12  2  0  0  0  0
 12 14  1  0  0  0  0
 12 13  1  0  0  0  0
 14 15  1  0  0  0  0
 16 14  2  0  0  0  0
 17 16  1  0  0  0  0
 18  1  1  0  0  0  0
 18 20  1  0  0  0  0
 19 18  1  0  0  0  0
 21 18  1  0  0  0  0
M  END
>  <minimizedAffinity>
-4.41693783

$$$$

 OpenBabel03242514453D

 21 22  0  0  0  0  0  0  0  0999 V2000
   38.1830   29.2250   40.8390 C   0  0  0  0  0  0  0  0  0  0  0  0
   36.9820   28.5090   40.8740 C   0  0  0  0  0  0  0  0  0  0  0  0
   35.7780   29.2360   40.8440 C   0  0  0  0  0  0  0  0  0  0  0  0
   35.8730   30.5820   40.7840 N   0  0  0  0  0  0  0  0  0  0  0  0
   37.0510   31.2460   40.7520 C   0  0  0  0  0  0  0  0  0  0  0  0
   38.2190   30.5500   40.7810 N   0  0  0  0  0  0  0  0  0  0  0  0
   34.8130   28.7910   40.8660 H   0  0  0  0  0  0  0  0  0  0  0  0
   37.0140   32.3230   40.7050 H   0  0  0  0  0  0  0  0  0  0  0  0
   37.1000   27.5610   43.6490 Cl  0  0  0  0  0  0  0  0  0  0  0  0
   36.9680   26.5380   42.2180 C   0  0  0  0  0  0  0  0  0  0  0  0
   36.9170   27.0530   40.9390 C   0  0  0  0  0  0  0  0  0  0  0  0
   36.8130   26.2120   39.8280 C   0  0  0  0  0  0  0  0  0  0  0  0
   36.7780   26.6890   38.8510 H   0  0  0  0  0  0  0  0  0  0  0  0
   36.7620   24.8490   40.0560 C   0  0  0  0  0  0  0  0  0  0  0  0
   36.6810   24.2230   39.1580 H   0  0  0  0  0  0  0  0  0  0  0  0
   36.8150   24.3440   41.3530 C   0  0  0  0  0  3  0  0  0  0  0  0
   36.9180   25.1800   42.4400 C   0  0  0  0  0  3  0  0  0  0  0  0
   39.4380   28.3990   40.8740 C   0  0  0  0  0  0  0  0  0  0  0  0
   40.3160   29.0240   40.5440 H   0  0  0  0  0  0  0  0  0  0  0  0
   39.3930   27.5380   40.2070 H   0  0  0  0  0  0  0  0  0  0  0  0
   39.6310   28.1380   41.9540 H   0  0  0  0  0  0  0  0  0  0  0  0
  1  2  1  0  0  0  0
  1 18  1  0  0  0  0
  2 11  1  0  0  0  0
  3  7  1  0  0  0  0
  3  2  2  0  0  0  0
  4  3  1  0  0  0  0
  5  6  1  0  0  0  0
  5  4  2  0  0  0  0
  6  1  2  0  0  0  0
  8  5  1  0  0  0  0
 10 17  1  0  0  0  0
 10  9  1  0  0  0  0
 11 10  2  0  0  0  0
 12 14  2  0  0  0  0
 12 11  1  0  0  0  0
 13 12  1  0  0  0  0
 14 16  1  0  0  0  0
 15 14  1  0  0  0  0
 16 17  2  0  0  0  0
 18 21  1  0  0  0  0
 19 18  1  0  0  0  0
 20 18  1  0  0  0  0
M  END
>  <minimizedAffinity>
-4.41693115

$$$$

 OpenBabel03242514453D

 21 22  0  0  0  0  0  0  0  0999 V2000
   38.1510   29.9810   39.1880 C   0  0  0  0  0  0  0  0  0  0  0  0
   37.4400   30.2650   40.3580 C   0  0  0  0  0  0  0  0  0  0  0  0
   36.8110   31.5190   40.4620 C   0  0  0  0  0  0  0  0  0  0  0  0
   36.9420   32.3610   39.4150 N   0  0  0  0  0  0  0  0  0  0  0  0
   37.6380   32.0570   38.2950 C   0  0  0  0  0  0  0  0  0  0  0  0
   38.2490   30.8480   38.1880 N   0  0  0  0  0  0  0  0  0  0  0  0
   36.2470   31.8330   41.3060 H   0  0  0  0  0  0  0  0  0  0  0  0
   37.6800   32.8040   37.5180 H   0  0  0  0  0  0  0  0  0  0  0  0
   39.5010   30.7530   42.3900 Cl  0  0  0  0  0  0  0  0  0  0  0  0
   38.2600   29.5010   42.4650 C   0  0  0  0  0  0  0  0  0  0  0  0
   37.3190   29.3280   41.4700 C   0  0  0  0  0  0  0  0  0  0  0  0
   36.3510   28.3260   41.5640 C   0  0  0  0  0  0  0  0  0  0  0  0
   35.6410   28.2490   40.7420 H   0  0  0  0  0  0  0  0  0  0  0  0
   36.3680   27.5170   42.6850 C   0  0  0  0  0  0  0  0  0  0  0  0
   35.5920   26.7410   42.7200 H   0  0  0  0  0  0  0  0  0  0  0  0
   37.3250   27.7040   43.6800 C   0  0  0  0  0  3  0  0  0  0  0  0
   38.2750   28.6940   43.5790 C   0  0  0  0  0  3  0  0  0  0  0  0
   38.8040   28.6290   39.1300 C   0  0  0  0  0  0  0  0  0  0  0  0
   39.0830   28.3840   38.0660 H   0  0  0  0  0  0  0  0  0  0  0  0
   38.1480   27.8310   39.4780 H   0  0  0  0  0  0  0  0  0  0  0  0
   39.7760   28.7080   39.6960 H   0  0  0  0  0  0  0  0  0  0  0  0
  1  2  1  0  0  0  0
  2  3  2  0  0  0  0
  2 11  1  0  0  0  0
  3  7  1  0  0  0  0
  4  3  1  0  0  0  0
  5  4  2  0  0  0  0
  6  5  1  0  0  0  0
  6  1  2  0  0  0  0
  8  5  1  0  0  0  0
  9 10  1  0  0  0  0
 10 17  1  0  0  0  0
 11 12  1  0  0  0  0
 11 10  2  0  0  0  0
 12 14  2  0  0  0  0
 13 12  1  0  0  0  0
 14 15  1  0  0  0  0
 14 16  1  0  0  0  0
 17 16  2  0  0  0  0
 18  1  1  0  0  0  0
 18 20  1  0  0  0  0
 18 21  1  0  0  0  0
 19 18  1  0  0  0  0
M  END
>  <minimizedAffinity>
-4.37287855

$$$$

 OpenBabel03242514453D

 21 22  0  0  0  0  0  0  0  0999 V2000
   38.0980   30.1040   39.0520 C   0  0  0  0  0  0  0  0  0  0  0  0
   37.6640   30.3970   40.3490 C   0  0  0  0  0  0  0  0  0  0  0  0
   37.1220   31.6720   40.5920 C   0  0  0  0  0  0  0  0  0  0  0  0
   37.0620   32.5250   39.5470 N   0  0  0  0  0  0  0  0  0  0  0  0
   37.4920   32.2120   38.3030 C   0  0  0  0  0  0  0  0  0  0  0  0
   38.0170   30.9820   38.0600 N   0  0  0  0  0  0  0  0  0  0  0  0
   36.7630   31.9950   41.5390 H   0  0  0  0  0  0  0  0  0  0  0  0
   37.3990   32.9680   37.5400 H   0  0  0  0  0  0  0  0  0  0  0  0
   35.1740   28.8670   40.6200 Cl  0  0  0  0  0  0  0  0  0  0  0  0
   36.6020   28.6940   41.6400 C   0  0  0  0  0  0  0  0  0  0  0  0
   37.7430   29.4490   41.4550 C   0  0  0  0  0  0  0  0  0  0  0  0
   38.8560   29.2850   42.2840 C   0  0  0  0  0  0  0  0  0  0  0  0
   39.7190   29.9150   42.0780 H   0  0  0  0  0  0  0  0  0  0  0  0
   38.7740   28.3420   43.2910 C   0  0  0  0  0  0  0  0  0  0  0  0
   39.6690   28.2440   43.9200 H   0  0  0  0  0  0  0  0  0  0  0  0
   37.6160   27.5880   43.4660 C   0  0  0  0  0  3  0  0  0  0  0  0
   36.5250   27.7570   42.6450 C   0  0  0  0  0  3  0  0  0  0  0  0
   38.6670   28.7280   38.8480 C   0  0  0  0  0  0  0  0  0  0  0  0
   38.7040   28.4890   37.7470 H   0  0  0  0  0  0  0  0  0  0  0  0
   38.0680   27.9510   39.3220 H   0  0  0  0  0  0  0  0  0  0  0  0
   39.7400   28.7610   39.1950 H   0  0  0  0  0  0  0  0  0  0  0  0
  1  2  1  0  0  0  0
  2  3  2  0  0  0  0
  2 11  1  0  0  0  0
  3  7  1  0  0  0  0
  4  3  1  0  0  0  0
  5  4  2  0  0  0  0
  6  5  1  0  0  0  0
  6  1  2  0  0  0  0
  8  5  1  0  0  0  0
  9 10  1  0  0  0  0
 10 17  1  0  0  0  0
 11 10  2  0  0  0  0
 11 12  1  0  0  0  0
 12 14  2  0  0  0  0
 13 12  1  0  0  0  0
 14 16  1  0  0  0  0
 14 15  1  0  0  0  0
 17 16  2  0  0  0  0
 18  1  1  0  0  0  0
 18 21  1  0  0  0  0
 18 20  1  0  0  0  0
 19 18  1  0  0  0  0
M  END
>  <minimizedAffinity>
-4.36104155

$$$$

 OpenBabel03242514453D

 21 22  0  0  0  0  0  0  0  0999 V2000
   39.2380   30.9920   41.5500 C   0  0  0  0  0  0  0  0  0  0  0  0
   37.9690   30.4150   41.4410 C   0  0  0  0  0  0  0  0  0  0  0  0
   36.9530   31.1670   40.8220 C   0  0  0  0  0  0  0  0  0  0  0  0
   37.2830   32.3980   40.3760 N   0  0  0  0  0  0  0  0  0  0  0  0
   38.5220   32.9280   40.4980 C   0  0  0  0  0  0  0  0  0  0  0  0
   39.5080   32.2080   41.0950 N   0  0  0  0  0  0  0  0  0  0  0  0
   35.9570   30.8220   40.6870 H   0  0  0  0  0  0  0  0  0  0  0  0
   38.6780   33.9220   40.1080 H   0  0  0  0  0  0  0  0  0  0  0  0
   38.1960   28.4110   39.3090 Cl  0  0  0  0  0  0  0  0  0  0  0  0
   37.7350   28.0860   40.9790 C   0  0  0  0  0  0  0  0  0  0  0  0
   37.6480   29.0800   41.9330 C   0  0  0  0  0  0  0  0  0  0  0  0
   37.2790   28.7850   43.2480 C   0  0  0  0  0  0  0  0  0  0  0  0
   37.2310   29.6190   43.9450 H   0  0  0  0  0  0  0  0  0  0  0  0
   37.0050   27.4660   43.5580 C   0  0  0  0  0  0  0  0  0  0  0  0
   36.7190   27.2750   44.6010 H   0  0  0  0  0  0  0  0  0  0  0  0
   37.0970   26.4740   42.5850 C   0  0  0  0  0  3  0  0  0  0  0  0
   37.4610   26.7740   41.2930 C   0  0  0  0  0  3  0  0  0  0  0  0
   40.2850   30.1460   42.2200 C   0  0  0  0  0  0  0  0  0  0  0  0
   41.3100   30.5570   41.9940 H   0  0  0  0  0  0  0  0  0  0  0  0
   40.2740   29.1120   41.8740 H   0  0  0  0  0  0  0  0  0  0  0  0
   40.1410   30.2630   43.3320 H   0  0  0  0  0  0  0  0  0  0  0  0
  1 18  1  0  0  0  0
  2  1  1  0  0  0  0
  2 11  1  0  0  0  0
  3  2  2  0  0  0  0
  4  5  2  0  0  0  0
  4  3  1  0  0  0  0
  5  6  1  0  0  0  0
  6  1  2  0  0  0  0
  7  3  1  0  0  0  0
  8  5  1  0  0  0  0
  9 10  1  0  0  0  0
 10 17  2  0  0  0  0
 10 11  1  0  0  0  0
 11 12  2  0  0  0  0
 12 14  1  0  0  0  0
 12 13  1  0  0  0  0
 14 15  1  0  0  0  0
 16 14  2  0  0  0  0
 17 16  1  0  0  0  0
 18 21  1  0  0  0  0
 19 18  1  0  0  0  0
 20 18  1  0  0  0  0
M  END
>  <minimizedAffinity>
-4.33517408

$$$$

 OpenBabel03242514453D

 21 22  0  0  0  0  0  0  0  0999 V2000
   36.5540   28.7490   41.6390 C   0  0  0  0  0  0  0  0  0  0  0  0
   37.6040   29.6310   41.3630 C   0  0  0  0  0  0  0  0  0  0  0  0
   38.7350   29.5940   42.1980 C   0  0  0  0  0  0  0  0  0  0  0  0
   38.7220   28.7020   43.2130 N   0  0  0  0  0  0  0  0  0  0  0  0
   37.6890   27.8630   43.4540 C   0  0  0  0  0  0  0  0  0  0  0  0
   36.5930   27.8930   42.6520 N   0  0  0  0  0  0  0  0  0  0  0  0
   39.5860   30.2190   42.0750 H   0  0  0  0  0  0  0  0  0  0  0  0
   37.7810   27.1900   44.2930 H   0  0  0  0  0  0  0  0  0  0  0  0
   38.6400   28.4170   38.9000 Cl  0  0  0  0  0  0  0  0  0  0  0  0
   38.0600   30.0740   39.0630 C   0  0  0  0  0  0  0  0  0  0  0  0
   37.5840   30.5810   40.2560 C   0  0  0  0  0  0  0  0  0  0  0  0
   37.1330   31.9000   40.3480 C   0  0  0  0  0  0  0  0  0  0  0  0
   36.7720   32.2290   41.3200 H   0  0  0  0  0  0  0  0  0  0  0  0
   37.1780   32.6760   39.2050 C   0  0  0  0  0  0  0  0  0  0  0  0
   36.8150   33.7060   39.3190 H   0  0  0  0  0  0  0  0  0  0  0  0
   37.6610   32.1510   38.0090 C   0  0  0  0  0  3  0  0  0  0  0  0
   38.1040   30.8510   37.9280 C   0  0  0  0  0  3  0  0  0  0  0  0
   35.3710   28.8310   40.7160 C   0  0  0  0  0  0  0  0  0  0  0  0
   34.7340   27.9080   40.8280 H   0  0  0  0  0  0  0  0  0  0  0  0
   35.6600   28.8920   39.6670 H   0  0  0  0  0  0  0  0  0  0  0  0
   34.7350   29.6920   41.0720 H   0  0  0  0  0  0  0  0  0  0  0  0
  1  6  1  0  0  0  0
  2  1  2  0  0  0  0
  2  3  1  0  0  0  0
  3  4  2  0  0  0  0
  4  5  1  0  0  0  0
  5  8  1  0  0  0  0
  6  5  2  0  0  0  0
  7  3  1  0  0  0  0
  9 10  1  0  0  0  0
 10 11  1  0  0  0  0
 11 12  2  0  0  0  0
 11  2  1  0  0  0  0
 12 13  1  0  0  0  0
 14 15  1  0  0  0  0
 14 12  1  0  0  0  0
 16 14  2  0  0  0  0
 17 16  1  0  0  0  0
 17 10  2  0  0  0  0
 18 19  1  0  0  0  0
 18 21  1  0  0  0  0
 18  1  1  0  0  0  0
 20 18  1  0  0  0  0
M  END
>  <minimizedAffinity>
-4.29713964

$$$$

 OpenBabel03242514453D

 21 22  0  0  0  0  0  0  0  0999 V2000
   35.9530   29.1710   39.0080 C   0  0  0  0  0  0  0  0  0  0  0  0
   37.1320   28.6890   39.5860 C   0  0  0  0  0  0  0  0  0  0  0  0
   38.2810   28.6120   38.7780 C   0  0  0  0  0  0  0  0  0  0  0  0
   38.1590   29.0130   37.4940 N   0  0  0  0  0  0  0  0  0  0  0  0
   37.0030   29.4750   36.9640 C   0  0  0  0  0  0  0  0  0  0  0  0
   35.8890   29.5510   37.7380 N   0  0  0  0  0  0  0  0  0  0  0  0
   39.2250   28.2620   39.1180 H   0  0  0  0  0  0  0  0  0  0  0  0
   37.0140   29.7680   35.9260 H   0  0  0  0  0  0  0  0  0  0  0  0
   38.0350   30.8860   41.3080 Cl  0  0  0  0  0  0  0  0  0  0  0  0
   37.6490   29.2520   41.8460 C   0  0  0  0  0  0  0  0  0  0  0  0
   37.2280   28.2640   40.9790 C   0  0  0  0  0  0  0  0  0  0  0  0
   36.9310   26.9800   41.4410 C   0  0  0  0  0  0  0  0  0  0  0  0
   36.6050   26.2530   40.6990 H   0  0  0  0  0  0  0  0  0  0  0  0
   37.0720   26.7340   42.7940 C   0  0  0  0  0  0  0  0  0  0  0  0
   36.8290   25.7130   43.1170 H   0  0  0  0  0  0  0  0  0  0  0  0
   37.4980   27.7410   43.6570 C   0  0  0  0  0  3  0  0  0  0  0  0
   37.7880   29.0030   43.1930 C   0  0  0  0  0  3  0  0  0  0  0  0
   34.7570   29.2310   39.9150 C   0  0  0  0  0  0  0  0  0  0  0  0
   33.9670   29.8950   39.4620 H   0  0  0  0  0  0  0  0  0  0  0  0
   34.9940   29.6430   40.8960 H   0  0  0  0  0  0  0  0  0  0  0  0
   34.3130   28.1950   39.9440 H   0  0  0  0  0  0  0  0  0  0  0  0
  1  2  1  0  0  0  0
  1 18  1  0  0  0  0
  2 11  1  0  0  0  0
  3  7  1  0  0  0  0
  3  2  2  0  0  0  0
  4  3  1  0  0  0  0
  5  4  2  0  0  0  0
  5  6  1  0  0  0  0
  6  1  2  0  0  0  0
  8  5  1  0  0  0  0
  9 10  1  0  0  0  0
 10 17  1  0  0  0  0
 11 12  1  0  0  0  0
 11 10  2  0  0  0  0
 12 14  2  0  0  0  0
 13 12  1  0  0  0  0
 14 15  1  0  0  0  0
 14 16  1  0  0  0  0
 17 16  2  0  0  0  0
 18 21  1  0  0  0  0
 18 20  1  0  0  0  0
 19 18  1  0  0  0  0
M  END
>  <minimizedAffinity>
-4.20425558

$$$$

 OpenBabel03242514453D

 21 22  0  0  0  0  0  0  0  0999 V2000
   38.3130   25.0700   42.2400 C   0  0  0  0  0  0  0  0  0  0  0  0
   38.5550   26.3230   41.6680 C   0  0  0  0  0  0  0  0  0  0  0  0
   39.8460   26.8690   41.7950 C   0  0  0  0  0  0  0  0  0  0  0  0
   40.7610   26.1350   42.4640 N   0  0  0  0  0  0  0  0  0  0  0  0
   40.4950   24.9250   43.0070 C   0  0  0  0  0  0  0  0  0  0  0  0
   39.2500   24.3920   42.8890 N   0  0  0  0  0  0  0  0  0  0  0  0
   40.1340   27.8110   41.3970 H   0  0  0  0  0  0  0  0  0  0  0  0
   41.2990   24.4240   43.5220 H   0  0  0  0  0  0  0  0  0  0  0  0
   37.0880   28.1080   43.4780 Cl  0  0  0  0  0  0  0  0  0  0  0  0
   36.8110   27.9490   41.7440 C   0  0  0  0  0  0  0  0  0  0  0  0
   37.5410   27.0880   40.9510 C   0  0  0  0  0  0  0  0  0  0  0  0
   37.2930   26.9880   39.5790 C   0  0  0  0  0  0  0  0  0  0  0  0
   37.9080   26.2880   39.0180 H   0  0  0  0  0  0  0  0  0  0  0  0
   36.2950   27.7820   39.0470 C   0  0  0  0  0  0  0  0  0  0  0  0
   36.1300   27.6750   37.9660 H   0  0  0  0  0  0  0  0  0  0  0  0
   35.5660   28.6470   39.8600 C   0  0  0  0  0  3  0  0  0  0  0  0
   35.8170   28.7380   41.2100 C   0  0  0  0  0  3  0  0  0  0  0  0
   36.9180   24.5350   42.0760 C   0  0  0  0  0  0  0  0  0  0  0  0
   36.9050   23.4290   42.2940 H   0  0  0  0  0  0  0  0  0  0  0  0
   36.5350   24.6640   41.0640 H   0  0  0  0  0  0  0  0  0  0  0  0
   36.2840   25.0170   42.8750 H   0  0  0  0  0  0  0  0  0  0  0  0
  1  6  1  0  0  0  0
  2  3  1  0  0  0  0
  2  1  2  0  0  0  0
  3  4  2  0  0  0  0
  4  5  1  0  0  0  0
  5  8  1  0  0  0  0
  6  5  2  0  0  0  0
  7  3  1  0  0  0  0
 10  9  1  0  0  0  0
 11  2  1  0  0  0  0
 11 10  2  0  0  0  0
 12 11  1  0  0  0  0
 13 12  1  0  0  0  0
 14 12  2  0  0  0  0
 14 16  1  0  0  0  0
 15 14  1  0  0  0  0
 16 17  2  0  0  0  0
 17 10  1  0  0  0  0
 18  1  1  0  0  0  0
 18 19  1  0  0  0  0
 18 21  1  0  0  0  0
 20 18  1  0  0  0  0
M  END
>  <minimizedAffinity>
-4.20343685

$$$$
