
 OpenBabel03252504053D

 19 20  0  0  0  0  0  0  0  0999 V2000
   45.6290   32.1220   48.3670 C   0  0  0  0  0  0  0  0  0  0  0  0
   45.3420   33.1360   47.4340 C   0  0  0  0  0  0  0  0  0  0  0  0
   45.9790   33.0630   46.2000 C   0  0  0  0  0  0  0  0  0  0  0  0
   46.8500   32.0290   45.9370 N   0  0  0  0  0  0  0  0  0  0  0  0
   47.0940   31.0720   46.8710 C   0  0  0  0  0  0  0  0  0  0  0  0
   46.4880   31.1270   48.0680 N   0  0  0  0  0  0  0  0  0  0  0  0
   45.1090   32.2210   49.3350 H   0  0  0  0  0  0  0  0  0  0  0  0
   47.7670   30.2420   46.7330 H   0  0  0  0  0  0  0  0  0  0  0  0
   47.6800   32.8310   43.7150 Cl  0  0  0  0  0  0  0  0  0  0  0  0
   46.4720   34.1020   43.8690 C   0  0  0  0  0  0  0  0  0  0  0  0
   45.8310   34.0160   45.1120 C   0  0  0  0  0  0  0  0  0  0  0  0
   44.8280   34.9310   45.4460 C   0  0  0  0  0  0  0  0  0  0  0  0
   44.2160   35.0580   46.3100 H   0  0  0  0  0  0  0  0  0  0  0  0
   44.4980   35.9140   44.4980 C   0  0  0  0  0  0  0  0  0  0  0  0
   43.7360   36.7010   44.6010 H   0  0  0  0  0  0  0  0  0  0  0  0
   45.1490   35.9680   43.2830 C   0  0  0  0  0  0  0  0  0  0  0  0
   46.1510   35.0560   42.9520 C   0  0  0  0  0  0  0  0  0  0  0  0
   44.4780   34.1970   47.6550 O   0  0  0  0  0  0  0  0  0  0  0  0
   43.5920   34.1510   48.1370 H   0  0  0  0  0  0  0  0  0  0  0  0
  1  7  1  0  0  0  0
  2 18  1  0  0  0  0
  2  1  2  0  0  0  0
  3  2  1  0  0  0  0
  4  3  2  0  0  0  0
  4  5  1  0  0  0  0
  5  6  2  0  0  0  0
  6  1  1  0  0  0  0
  8  5  1  0  0  0  0
  9 10  1  0  0  0  0
 10 11  1  0  0  0  0
 11 12  2  0  0  0  0
 11  3  1  0  0  0  0
 12 13  1  0  0  0  0
 14 15  1  0  0  0  0
 14 12  1  0  0  0  0
 16 14  2  0  0  0  0
 17 16  1  0  0  0  0
 17 10  2  0  0  0  0
 18 19  1  0  0  0  0
M  END
>  <minimizedAffinity>
-5.59368277

>  <minimizedRMSD>
4.30028439

$$$$
