
 OpenBabel03242521033D

 27 29  0  0  0  0  0  0  0  0999 V2000
   39.1380   31.3610   38.9180 C   0  0  0  0  0  0  0  0  0  0  0  0
   38.1800   32.3520   38.7980 C   0  0  0  0  0  0  0  0  0  0  0  0
   37.0070   32.4040   39.5280 C   0  0  0  0  0  0  0  0  0  0  0  0
   36.7690   31.3900   40.4500 C   0  0  0  0  0  0  0  0  0  0  0  0
   37.7300   30.4250   40.5490 C   0  0  0  0  0  0  0  0  0  0  0  0
   38.8380   30.4280   39.8210 N   0  0  0  0  0  0  0  0  0  0  0  0
   38.3210   33.1630   38.0930 H   0  0  0  0  0  0  0  0  0  0  0  0
   36.2920   33.2130   39.3860 H   0  0  0  0  0  0  0  0  0  0  0  0
   35.8530   31.4310   41.0190 H   0  0  0  0  0  0  0  0  0  0  0  0
   42.1430   30.3800   36.8650 C   0  0  0  0  0  0  0  0  0  0  0  0
   40.9630   30.2190   37.6000 C   0  0  0  0  0  0  0  0  0  0  0  0
   40.3550   31.3430   38.1300 C   0  0  0  0  0  0  0  0  0  0  0  0
   40.9490   32.5460   37.8980 N   0  0  0  0  0  0  0  0  0  0  0  0
   42.0820   32.6910   37.1890 C   0  0  0  0  0  0  0  0  0  0  0  0
   42.6710   31.5870   36.6750 N   0  0  0  0  0  0  0  0  0  0  0  0
   42.5350   29.4310   36.4950 H   0  0  0  0  0  0  0  0  0  0  0  0
   40.4530   29.2980   37.8130 H   0  0  0  0  0  0  0  0  0  0  0  0
   42.5090   33.6760   37.0380 H   0  0  0  0  0  0  0  0  0  0  0  0
   36.5250   27.9430   39.4090 Cl  0  0  0  0  0  0  0  0  0  0  0  0
   37.0010   28.1100   41.1080 C   0  0  0  0  0  0  0  0  0  0  0  0
   37.5500   29.3280   41.4950 C   0  0  0  0  0  0  0  0  0  0  0  0
   37.8850   29.3540   42.8280 C   0  0  0  0  0  0  0  0  0  0  0  0
   38.3200   30.2570   43.2310 H   0  0  0  0  0  0  0  0  0  0  0  0
   37.6930   28.2860   43.6770 C   0  0  0  0  0  0  0  0  0  0  0  0
   37.9880   28.3880   44.7320 H   0  0  0  0  0  0  0  0  0  0  0  0
   37.1470   27.1230   43.2200 C   0  0  0  0  0  3  0  0  0  0  0  0
   36.7850   27.0150   41.8980 C   0  0  0  0  0  3  0  0  0  0  0  0
  1  6  1  0  0  0  0
  2  1  2  0  0  0  0
  2  3  1  0  0  0  0
  3  4  2  0  0  0  0
  4  5  1  0  0  0  0
  4  9  1  0  0  0  0
  5 21  1  0  0  0  0
  6  5  2  0  0  0  0
  7  2  1  0  0  0  0
  8  3  1  0  0  0  0
 10 11  1  0  0  0  0
 11 17  1  0  0  0  0
 11 12  2  0  0  0  0
 12  1  1  0  0  0  0
 13 12  1  0  0  0  0
 14 13  2  0  0  0  0
 15 10  2  0  0  0  0
 15 14  1  0  0  0  0
 16 10  1  0  0  0  0
 18 14  1  0  0  0  0
 19 20  1  0  0  0  0
 20 21  2  0  0  0  0
 20 27  1  0  0  0  0
 21 22  1  0  0  0  0
 22 23  1  0  0  0  0
 22 24  2  0  0  0  0
 24 25  1  0  0  0  0
 26 24  1  0  0  0  0
 27 26  2  0  0  0  0
M  END
>  <minimizedAffinity>
-5.28189945

$$$$

 OpenBabel03242521033D

 27 29  0  0  0  0  0  0  0  0999 V2000
   37.7010   30.5550   40.9200 C   0  0  0  0  0  0  0  0  0  0  0  0
   36.3460   30.3290   40.7550 C   0  0  0  0  0  0  0  0  0  0  0  0
   35.7170   29.1200   40.9830 C   0  0  0  0  0  0  0  0  0  0  0  0
   36.4970   28.0510   41.4110 C   0  0  0  0  0  0  0  0  0  0  0  0
   37.8310   28.3000   41.5660 C   0  0  0  0  0  0  0  0  0  0  0  0
   38.3800   29.4840   41.3310 N   0  0  0  0  0  0  0  0  0  0  0  0
   35.6980   31.1320   40.4240 H   0  0  0  0  0  0  0  0  0  0  0  0
   34.6440   29.0080   40.8330 H   0  0  0  0  0  0  0  0  0  0  0  0
   36.0050   27.1080   41.5880 H   0  0  0  0  0  0  0  0  0  0  0  0
   38.4350   34.1400   40.0160 C   0  0  0  0  0  0  0  0  0  0  0  0
   37.6800   32.9790   40.2150 C   0  0  0  0  0  0  0  0  0  0  0  0
   38.3230   31.8400   40.6660 C   0  0  0  0  0  0  0  0  0  0  0  0
   39.6630   31.9250   40.8920 N   0  0  0  0  0  0  0  0  0  0  0  0
   40.3800   33.0460   40.6990 C   0  0  0  0  0  0  0  0  0  0  0  0
   39.7440   34.1550   40.2560 N   0  0  0  0  0  0  0  0  0  0  0  0
   37.8280   34.9750   39.6600 H   0  0  0  0  0  0  0  0  0  0  0  0
   36.6250   32.8570   40.0530 H   0  0  0  0  0  0  0  0  0  0  0  0
   41.4470   33.0520   40.8960 H   0  0  0  0  0  0  0  0  0  0  0  0
   38.8950   26.5440   39.4000 Cl  0  0  0  0  0  0  0  0  0  0  0  0
   39.2850   26.3300   41.1150 C   0  0  0  0  0  0  0  0  0  0  0  0
   38.7140   27.2270   42.0120 C   0  0  0  0  0  0  0  0  0  0  0  0
   39.0780   26.9740   43.3130 C   0  0  0  0  0  0  0  0  0  0  0  0
   38.6880   27.6160   44.0900 H   0  0  0  0  0  0  0  0  0  0  0  0
   39.9180   25.9440   43.6760 C   0  0  0  0  0  0  0  0  0  0  0  0
   40.1620   25.8100   44.7410 H   0  0  0  0  0  0  0  0  0  0  0  0
   40.4390   25.1050   42.7360 C   0  0  0  0  0  3  0  0  0  0  0  0
   40.1240   25.2890   41.4110 C   0  0  0  0  0  3  0  0  0  0  0  0
  1  6  1  0  0  0  0
  2  1  2  0  0  0  0
  2  3  1  0  0  0  0
  3  4  2  0  0  0  0
  4  5  1  0  0  0  0
  4  9  1  0  0  0  0
  5 21  1  0  0  0  0
  6  5  2  0  0  0  0
  7  2  1  0  0  0  0
  8  3  1  0  0  0  0
 10 11  2  0  0  0  0
 10 15  1  0  0  0  0
 11 12  1  0  0  0  0
 12 13  2  0  0  0  0
 12  1  1  0  0  0  0
 14 13  1  0  0  0  0
 14 18  1  0  0  0  0
 15 14  2  0  0  0  0
 16 10  1  0  0  0  0
 17 11  1  0  0  0  0
 19 20  1  0  0  0  0
 20 27  2  0  0  0  0
 20 21  1  0  0  0  0
 21 22  2  0  0  0  0
 22 24  1  0  0  0  0
 22 23  1  0  0  0  0
 24 25  1  0  0  0  0
 26 24  2  0  0  0  0
 27 26  1  0  0  0  0
M  END
>  <minimizedAffinity>
-5.26468039

$$$$

 OpenBabel03242521033D

 27 29  0  0  0  0  0  0  0  0999 V2000
   38.2560   30.4340   41.0550 C   0  0  0  0  0  0  0  0  0  0  0  0
   37.0820   31.1320   40.8300 C   0  0  0  0  0  0  0  0  0  0  0  0
   35.8410   30.5480   40.6530 C   0  0  0  0  0  0  0  0  0  0  0  0
   35.7620   29.1610   40.7050 C   0  0  0  0  0  0  0  0  0  0  0  0
   36.9340   28.4960   40.9280 C   0  0  0  0  0  0  0  0  0  0  0  0
   38.0970   29.1110   41.0910 N   0  0  0  0  0  0  0  0  0  0  0  0
   37.0940   32.2150   40.7820 H   0  0  0  0  0  0  0  0  0  0  0  0
   34.9550   31.1550   40.4790 H   0  0  0  0  0  0  0  0  0  0  0  0
   34.7940   28.7060   40.5660 H   0  0  0  0  0  0  0  0  0  0  0  0
   41.7020   31.4640   42.1810 C   0  0  0  0  0  0  0  0  0  0  0  0
   40.5180   30.7190   42.1370 C   0  0  0  0  0  0  0  0  0  0  0  0
   39.5380   31.0860   41.2330 C   0  0  0  0  0  0  0  0  0  0  0  0
   39.7920   32.1600   40.4350 N   0  0  0  0  0  0  0  0  0  0  0  0
   40.9330   32.8700   40.4850 C   0  0  0  0  0  0  0  0  0  0  0  0
   41.8860   32.5050   41.3720 N   0  0  0  0  0  0  0  0  0  0  0  0
   42.4030   31.0880   42.9290 H   0  0  0  0  0  0  0  0  0  0  0  0
   40.2670   29.8670   42.7400 H   0  0  0  0  0  0  0  0  0  0  0  0
   41.0770   33.7180   39.8230 H   0  0  0  0  0  0  0  0  0  0  0  0
   36.7970   27.3480   43.6800 Cl  0  0  0  0  0  0  0  0  0  0  0  0
   36.8690   26.3620   42.2100 C   0  0  0  0  0  0  0  0  0  0  0  0
   36.9300   27.0380   40.9950 C   0  0  0  0  0  0  0  0  0  0  0  0
   36.9820   26.1840   39.9200 C   0  0  0  0  0  0  0  0  0  0  0  0
   37.0310   26.6090   38.9280 H   0  0  0  0  0  0  0  0  0  0  0  0
   36.9730   24.8110   40.0430 C   0  0  0  0  0  0  0  0  0  0  0  0
   37.0170   24.1970   39.1310 H   0  0  0  0  0  0  0  0  0  0  0  0
   36.9120   24.2230   41.2720 C   0  0  0  0  0  3  0  0  0  0  0  0
   36.8570   25.0070   42.3990 C   0  0  0  0  0  3  0  0  0  0  0  0
  1  6  1  0  0  0  0
  1 12  1  0  0  0  0
  2  1  2  0  0  0  0
  3  4  2  0  0  0  0
  3  2  1  0  0  0  0
  4  5  1  0  0  0  0
  5 21  1  0  0  0  0
  5  6  2  0  0  0  0
  7  2  1  0  0  0  0
  8  3  1  0  0  0  0
  9  4  1  0  0  0  0
 10 16  1  0  0  0  0
 11 10  1  0  0  0  0
 11 17  1  0  0  0  0
 12 11  2  0  0  0  0
 13 14  2  0  0  0  0
 13 12  1  0  0  0  0
 14 15  1  0  0  0  0
 15 10  2  0  0  0  0
 18 14  1  0  0  0  0
 20 27  1  0  0  0  0
 20 19  1  0  0  0  0
 21 20  2  0  0  0  0
 22 24  2  0  0  0  0
 22 21  1  0  0  0  0
 23 22  1  0  0  0  0
 24 26  1  0  0  0  0
 25 24  1  0  0  0  0
 26 27  2  0  0  0  0
M  END
>  <minimizedAffinity>
-5.24715519

$$$$

 OpenBabel03242521033D

 27 29  0  0  0  0  0  0  0  0999 V2000
   39.4090   32.2520   40.6230 C   0  0  0  0  0  0  0  0  0  0  0  0
   38.3640   32.9780   40.0810 C   0  0  0  0  0  0  0  0  0  0  0  0
   37.0490   32.5510   40.0360 C   0  0  0  0  0  0  0  0  0  0  0  0
   36.7520   31.3030   40.5730 C   0  0  0  0  0  0  0  0  0  0  0  0
   37.8020   30.6060   41.1010 C   0  0  0  0  0  0  0  0  0  0  0  0
   39.0440   31.0680   41.1170 N   0  0  0  0  0  0  0  0  0  0  0  0
   38.5460   33.9560   39.6510 H   0  0  0  0  0  0  0  0  0  0  0  0
   36.2720   33.1710   39.5940 H   0  0  0  0  0  0  0  0  0  0  0  0
   35.7270   30.9700   40.5370 H   0  0  0  0  0  0  0  0  0  0  0  0
   42.6440   34.0820   40.0000 C   0  0  0  0  0  0  0  0  0  0  0  0
   41.2960   33.7400   39.8500 C   0  0  0  0  0  0  0  0  0  0  0  0
   40.7750   32.7360   40.6470 C   0  0  0  0  0  0  0  0  0  0  0  0
   41.6180   32.1410   41.5360 N   0  0  0  0  0  0  0  0  0  0  0  0
   42.9120   32.4780   41.6740 C   0  0  0  0  0  0  0  0  0  0  0  0
   43.4140   33.4600   40.8900 N   0  0  0  0  0  0  0  0  0  0  0  0
   42.9480   34.8830   39.3240 H   0  0  0  0  0  0  0  0  0  0  0  0
   40.5900   34.1740   39.1680 H   0  0  0  0  0  0  0  0  0  0  0  0
   43.5350   31.9660   42.4000 H   0  0  0  0  0  0  0  0  0  0  0  0
   37.5650   28.3700   39.1380 Cl  0  0  0  0  0  0  0  0  0  0  0  0
   37.4370   28.1520   40.8920 C   0  0  0  0  0  0  0  0  0  0  0  0
   37.5680   29.2890   41.6830 C   0  0  0  0  0  0  0  0  0  0  0  0
   37.4530   29.0110   43.0240 C   0  0  0  0  0  0  0  0  0  0  0  0
   37.5390   29.8280   43.7280 H   0  0  0  0  0  0  0  0  0  0  0  0
   37.2320   27.7440   43.5190 C   0  0  0  0  0  0  0  0  0  0  0  0
   37.1520   27.6070   44.6080 H   0  0  0  0  0  0  0  0  0  0  0  0
   37.1140   26.6790   42.6760 C   0  0  0  0  0  3  0  0  0  0  0  0
   37.2170   26.8710   41.3190 C   0  0  0  0  0  3  0  0  0  0  0  0
  1 12  1  0  0  0  0
  1  6  1  0  0  0  0
  2  1  2  0  0  0  0
  3  2  1  0  0  0  0
  3  4  2  0  0  0  0
  4  5  1  0  0  0  0
  5  6  2  0  0  0  0
  5 21  1  0  0  0  0
  7  2  1  0  0  0  0
  8  3  1  0  0  0  0
  9  4  1  0  0  0  0
 10 15  1  0  0  0  0
 11 10  2  0  0  0  0
 11 12  1  0  0  0  0
 12 13  2  0  0  0  0
 13 14  1  0  0  0  0
 14 18  1  0  0  0  0
 15 14  2  0  0  0  0
 16 10  1  0  0  0  0
 17 11  1  0  0  0  0
 19 20  1  0  0  0  0
 20 27  2  0  0  0  0
 20 21  1  0  0  0  0
 21 22  2  0  0  0  0
 22 24  1  0  0  0  0
 22 23  1  0  0  0  0
 24 25  1  0  0  0  0
 26 24  2  0  0  0  0
 27 26  1  0  0  0  0
M  END
>  <minimizedAffinity>
-5.20530272

$$$$

 OpenBabel03242521033D

 27 29  0  0  0  0  0  0  0  0999 V2000
   39.2000   30.0320   41.4200 C   0  0  0  0  0  0  0  0  0  0  0  0
   40.2930   30.1670   42.2580 C   0  0  0  0  0  0  0  0  0  0  0  0
   40.9000   29.1250   42.9350 C   0  0  0  0  0  0  0  0  0  0  0  0
   40.3780   27.8470   42.7630 C   0  0  0  0  0  0  0  0  0  0  0  0
   39.3000   27.7410   41.9310 C   0  0  0  0  0  0  0  0  0  0  0  0
   38.7600   28.7780   41.3080 N   0  0  0  0  0  0  0  0  0  0  0  0
   40.7340   31.1430   42.4220 H   0  0  0  0  0  0  0  0  0  0  0  0
   41.7580   29.2990   43.5810 H   0  0  0  0  0  0  0  0  0  0  0  0
   40.8510   27.0350   43.2920 H   0  0  0  0  0  0  0  0  0  0  0  0
   38.2050   33.4480   40.1780 C   0  0  0  0  0  0  0  0  0  0  0  0
   38.8940   32.4880   40.9270 C   0  0  0  0  0  0  0  0  0  0  0  0
   38.5920   31.1530   40.7310 C   0  0  0  0  0  0  0  0  0  0  0  0
   37.6340   30.8560   39.8100 N   0  0  0  0  0  0  0  0  0  0  0  0
   36.9770   31.7850   39.0940 C   0  0  0  0  0  0  0  0  0  0  0  0
   37.2780   33.0890   39.2930 N   0  0  0  0  0  0  0  0  0  0  0  0
   38.5220   34.4660   40.4130 H   0  0  0  0  0  0  0  0  0  0  0  0
   39.6560   32.6660   41.6630 H   0  0  0  0  0  0  0  0  0  0  0  0
   36.2220   31.4870   38.3740 H   0  0  0  0  0  0  0  0  0  0  0  0
   36.7310   27.2500   43.3700 Cl  0  0  0  0  0  0  0  0  0  0  0  0
   37.5000   26.0610   42.3060 C   0  0  0  0  0  0  0  0  0  0  0  0
   38.6980   26.4310   41.7020 C   0  0  0  0  0  0  0  0  0  0  0  0
   39.2100   25.4410   40.8990 C   0  0  0  0  0  0  0  0  0  0  0  0
   40.1410   25.6270   40.3830 H   0  0  0  0  0  0  0  0  0  0  0  0
   38.5960   24.2200   40.7190 C   0  0  0  0  0  0  0  0  0  0  0  0
   39.0720   23.4800   40.0580 H   0  0  0  0  0  0  0  0  0  0  0  0
   37.4200   23.9320   41.3470 C   0  0  0  0  0  3  0  0  0  0  0  0
   36.8410   24.8690   42.1680 C   0  0  0  0  0  3  0  0  0  0  0  0
  1  2  1  0  0  0  0
  2  7  1  0  0  0  0
  2  3  2  0  0  0  0
  3  8  1  0  0  0  0
  4  3  1  0  0  0  0
  4  9  1  0  0  0  0
  5  4  2  0  0  0  0
  6  1  2  0  0  0  0
  6  5  1  0  0  0  0
 10 16  1  0  0  0  0
 10 11  1  0  0  0  0
 11 17  1  0  0  0  0
 12 11  2  0  0  0  0
 12  1  1  0  0  0  0
 13 12  1  0  0  0  0
 14 15  1  0  0  0  0
 14 13  2  0  0  0  0
 15 10  2  0  0  0  0
 18 14  1  0  0  0  0
 20 19  1  0  0  0  0
 21  5  1  0  0  0  0
 21 20  2  0  0  0  0
 22 21  1  0  0  0  0
 23 22  1  0  0  0  0
 24 22  2  0  0  0  0
 24 26  1  0  0  0  0
 25 24  1  0  0  0  0
 26 27  2  0  0  0  0
 27 20  1  0  0  0  0
M  END
>  <minimizedAffinity>
-5.18416166

$$$$

 OpenBabel03242521033D

 27 29  0  0  0  0  0  0  0  0999 V2000
   37.3560   29.0100   41.3300 C   0  0  0  0  0  0  0  0  0  0  0  0
   37.3410   29.1500   42.7070 C   0  0  0  0  0  0  0  0  0  0  0  0
   37.3850   28.0990   43.6050 C   0  0  0  0  0  0  0  0  0  0  0  0
   37.4480   26.8080   43.0920 C   0  0  0  0  0  0  0  0  0  0  0  0
   37.4610   26.6970   41.7300 C   0  0  0  0  0  0  0  0  0  0  0  0
   37.4170   27.7440   40.9180 N   0  0  0  0  0  0  0  0  0  0  0  0
   37.2930   30.1360   43.1530 H   0  0  0  0  0  0  0  0  0  0  0  0
   37.3690   28.2760   44.6780 H   0  0  0  0  0  0  0  0  0  0  0  0
   37.4810   25.9880   43.7920 H   0  0  0  0  0  0  0  0  0  0  0  0
   37.0000   31.2790   38.3420 C   0  0  0  0  0  0  0  0  0  0  0  0
   36.9970   30.0880   39.0760 C   0  0  0  0  0  0  0  0  0  0  0  0
   37.3060   30.1400   40.4240 C   0  0  0  0  0  0  0  0  0  0  0  0
   37.5950   31.3610   40.9540 N   0  0  0  0  0  0  0  0  0  0  0  0
   37.5940   32.5000   40.2410 C   0  0  0  0  0  0  0  0  0  0  0  0
   37.2910   32.4410   38.9230 N   0  0  0  0  0  0  0  0  0  0  0  0
   36.7430   31.1220   37.2930 H   0  0  0  0  0  0  0  0  0  0  0  0
   36.7780   29.1020   38.7100 H   0  0  0  0  0  0  0  0  0  0  0  0
   37.8330   33.4440   40.7190 H   0  0  0  0  0  0  0  0  0  0  0  0
   40.2100   25.5850   41.3930 Cl  0  0  0  0  0  0  0  0  0  0  0  0
   38.7390   24.7290   40.8990 C   0  0  0  0  0  0  0  0  0  0  0  0
   37.5260   25.3740   41.1190 C   0  0  0  0  0  0  0  0  0  0  0  0
   36.4510   24.6270   40.7020 C   0  0  0  0  0  0  0  0  0  0  0  0
   35.4590   25.0390   40.8280 H   0  0  0  0  0  0  0  0  0  0  0  0
   36.5720   23.3790   40.1300 C   0  0  0  0  0  0  0  0  0  0  0  0
   35.6600   22.8460   39.8230 H   0  0  0  0  0  0  0  0  0  0  0  0
   37.7990   22.8140   39.9480 C   0  0  0  0  0  3  0  0  0  0  0  0
   38.9270   23.4950   40.3380 C   0  0  0  0  0  3  0  0  0  0  0  0
  1  2  1  0  0  0  0
  2  7  1  0  0  0  0
  2  3  2  0  0  0  0
  3  8  1  0  0  0  0
  4  3  1  0  0  0  0
  4  9  1  0  0  0  0
  5  4  2  0  0  0  0
  6  1  2  0  0  0  0
  6  5  1  0  0  0  0
 10 15  2  0  0  0  0
 10 11  1  0  0  0  0
 11 12  2  0  0  0  0
 12 13  1  0  0  0  0
 12  1  1  0  0  0  0
 14 18  1  0  0  0  0
 14 13  2  0  0  0  0
 15 14  1  0  0  0  0
 16 10  1  0  0  0  0
 17 11  1  0  0  0  0
 20 21  1  0  0  0  0
 20 19  1  0  0  0  0
 21  5  1  0  0  0  0
 22 23  1  0  0  0  0
 22 21  2  0  0  0  0
 24 22  1  0  0  0  0
 25 24  1  0  0  0  0
 26 24  2  0  0  0  0
 26 27  1  0  0  0  0
 27 20  2  0  0  0  0
M  END
>  <minimizedAffinity>
-5.11036158

$$$$

 OpenBabel03242521033D

 27 29  0  0  0  0  0  0  0  0999 V2000
   37.1740   26.9950   41.5070 C   0  0  0  0  0  0  0  0  0  0  0  0
   37.2840   26.9600   42.8860 C   0  0  0  0  0  0  0  0  0  0  0  0
   37.6010   28.0490   43.6770 C   0  0  0  0  0  0  0  0  0  0  0  0
   37.8260   29.2680   43.0460 C   0  0  0  0  0  0  0  0  0  0  0  0
   37.7110   29.2750   41.6850 C   0  0  0  0  0  0  0  0  0  0  0  0
   37.4030   28.1970   40.9780 N   0  0  0  0  0  0  0  0  0  0  0  0
   37.1180   26.0330   43.4210 H   0  0  0  0  0  0  0  0  0  0  0  0
   37.6730   27.9550   44.7590 H   0  0  0  0  0  0  0  0  0  0  0  0
   38.0740   30.1160   43.6640 H   0  0  0  0  0  0  0  0  0  0  0  0
   36.5280   23.5030   40.2450 C   0  0  0  0  0  0  0  0  0  0  0  0
   36.8770   24.5140   41.1470 C   0  0  0  0  0  0  0  0  0  0  0  0
   36.8420   25.8270   40.7140 C   0  0  0  0  0  0  0  0  0  0  0  0
   36.4660   26.0530   39.4240 N   0  0  0  0  0  0  0  0  0  0  0  0
   36.1330   25.0740   38.5650 C   0  0  0  0  0  0  0  0  0  0  0  0
   36.1700   23.7920   38.9970 N   0  0  0  0  0  0  0  0  0  0  0  0
   36.5900   22.5080   40.6910 H   0  0  0  0  0  0  0  0  0  0  0  0
   37.1790   24.3930   42.1700 H   0  0  0  0  0  0  0  0  0  0  0  0
   35.8420   25.3160   37.5490 H   0  0  0  0  0  0  0  0  0  0  0  0
   40.5230   29.7520   40.8060 Cl  0  0  0  0  0  0  0  0  0  0  0  0
   39.1920   30.8750   40.4810 C   0  0  0  0  0  0  0  0  0  0  0  0
   37.9330   30.5180   40.9530 C   0  0  0  0  0  0  0  0  0  0  0  0
   36.9730   31.4530   40.6490 C   0  0  0  0  0  0  0  0  0  0  0  0
   35.9570   31.2720   40.9720 H   0  0  0  0  0  0  0  0  0  0  0  0
   37.2400   32.6120   39.9530 C   0  0  0  0  0  0  0  0  0  0  0  0
   36.4140   33.3100   39.7500 H   0  0  0  0  0  0  0  0  0  0  0  0
   38.5030   32.8900   39.5220 C   0  0  0  0  0  3  0  0  0  0  0  0
   39.5220   32.0060   39.7860 C   0  0  0  0  0  3  0  0  0  0  0  0
  1  2  1  0  0  0  0
  2  7  1  0  0  0  0
  2  3  2  0  0  0  0
  3  8  1  0  0  0  0
  4  9  1  0  0  0  0
  4  3  1  0  0  0  0
  5  4  2  0  0  0  0
  6  1  2  0  0  0  0
  6  5  1  0  0  0  0
 10 16  1  0  0  0  0
 10 11  1  0  0  0  0
 11 17  1  0  0  0  0
 12 11  2  0  0  0  0
 12  1  1  0  0  0  0
 13 12  1  0  0  0  0
 14 15  1  0  0  0  0
 14 13  2  0  0  0  0
 15 10  2  0  0  0  0
 18 14  1  0  0  0  0
 20 19  1  0  0  0  0
 20 21  1  0  0  0  0
 21  5  1  0  0  0  0
 22 21  2  0  0  0  0
 22 23  1  0  0  0  0
 24 22  1  0  0  0  0
 25 24  1  0  0  0  0
 26 27  1  0  0  0  0
 26 24  2  0  0  0  0
 27 20  2  0  0  0  0
M  END
>  <minimizedAffinity>
-5.10389853

$$$$

 OpenBabel03242521033D

 27 29  0  0  0  0  0  0  0  0999 V2000
   38.6160   29.8120   42.0210 C   0  0  0  0  0  0  0  0  0  0  0  0
   38.3450   29.1560   43.2090 C   0  0  0  0  0  0  0  0  0  0  0  0
   37.2890   28.2850   43.4040 C   0  0  0  0  0  0  0  0  0  0  0  0
   36.4360   28.0480   42.3320 C   0  0  0  0  0  0  0  0  0  0  0  0
   36.7250   28.7070   41.1710 C   0  0  0  0  0  0  0  0  0  0  0  0
   37.7540   29.5320   41.0430 N   0  0  0  0  0  0  0  0  0  0  0  0
   38.9830   29.3090   44.0720 H   0  0  0  0  0  0  0  0  0  0  0  0
   37.1310   27.8010   44.3660 H   0  0  0  0  0  0  0  0  0  0  0  0
   35.6120   27.3690   42.4850 H   0  0  0  0  0  0  0  0  0  0  0  0
   40.9590   32.5610   40.9470 C   0  0  0  0  0  0  0  0  0  0  0  0
   39.7960   31.7840   40.9780 C   0  0  0  0  0  0  0  0  0  0  0  0
   39.7340   30.7200   41.8600 C   0  0  0  0  0  0  0  0  0  0  0  0
   40.8200   30.4970   42.6500 N   0  0  0  0  0  0  0  0  0  0  0  0
   41.9330   31.2500   42.6140 C   0  0  0  0  0  0  0  0  0  0  0  0
   41.9860   32.2880   41.7480 N   0  0  0  0  0  0  0  0  0  0  0  0
   40.9000   33.3710   40.2170 H   0  0  0  0  0  0  0  0  0  0  0  0
   38.9140   31.9140   40.3790 H   0  0  0  0  0  0  0  0  0  0  0  0
   42.7680   31.0220   43.2690 H   0  0  0  0  0  0  0  0  0  0  0  0
   37.7450   26.7390   39.1730 Cl  0  0  0  0  0  0  0  0  0  0  0  0
   36.2190   27.6210   38.9880 C   0  0  0  0  0  0  0  0  0  0  0  0
   35.8730   28.5080   40.0030 C   0  0  0  0  0  0  0  0  0  0  0  0
   34.6760   29.1380   39.7640 C   0  0  0  0  0  0  0  0  0  0  0  0
   34.3150   29.8500   40.4930 H   0  0  0  0  0  0  0  0  0  0  0  0
   33.9120   28.9100   38.6400 C   0  0  0  0  0  0  0  0  0  0  0  0
   32.9640   29.4570   38.5240 H   0  0  0  0  0  0  0  0  0  0  0  0
   34.3200   28.0230   37.6890 C   0  0  0  0  0  3  0  0  0  0  0  0
   35.5070   27.3490   37.8520 C   0  0  0  0  0  3  0  0  0  0  0  0
  1  2  1  0  0  0  0
  2  3  2  0  0  0  0
  2  7  1  0  0  0  0
  3  8  1  0  0  0  0
  4  9  1  0  0  0  0
  4  3  1  0  0  0  0
  5  4  2  0  0  0  0
  6  5  1  0  0  0  0
  6  1  2  0  0  0  0
 10 11  2  0  0  0  0
 10 15  1  0  0  0  0
 11 12  1  0  0  0  0
 12  1  1  0  0  0  0
 12 13  2  0  0  0  0
 14 13  1  0  0  0  0
 14 18  1  0  0  0  0
 15 14  2  0  0  0  0
 16 10  1  0  0  0  0
 17 11  1  0  0  0  0
 20 19  1  0  0  0  0
 20 21  1  0  0  0  0
 21  5  1  0  0  0  0
 22 21  2  0  0  0  0
 22 23  1  0  0  0  0
 24 22  1  0  0  0  0
 25 24  1  0  0  0  0
 26 27  1  0  0  0  0
 26 24  2  0  0  0  0
 27 20  2  0  0  0  0
M  END
>  <minimizedAffinity>
-4.99423647

$$$$

 OpenBabel03242521033D

 27 29  0  0  0  0  0  0  0  0999 V2000
   38.4310   29.2910   41.6350 C   0  0  0  0  0  0  0  0  0  0  0  0
   38.0360   29.4370   42.9530 C   0  0  0  0  0  0  0  0  0  0  0  0
   37.3490   28.4810   43.6790 C   0  0  0  0  0  0  0  0  0  0  0  0
   37.0300   27.2860   43.0430 C   0  0  0  0  0  0  0  0  0  0  0  0
   37.4310   27.1680   41.7420 C   0  0  0  0  0  0  0  0  0  0  0  0
   38.0890   28.1200   41.0970 N   0  0  0  0  0  0  0  0  0  0  0  0
   38.2620   30.3500   43.4910 H   0  0  0  0  0  0  0  0  0  0  0  0
   37.0670   28.6580   44.7150 H   0  0  0  0  0  0  0  0  0  0  0  0
   36.4940   26.5410   43.6090 H   0  0  0  0  0  0  0  0  0  0  0  0
   40.3410   32.3720   40.6030 C   0  0  0  0  0  0  0  0  0  0  0  0
   39.6800   31.4770   41.4510 C   0  0  0  0  0  0  0  0  0  0  0  0
   39.1480   30.3210   40.9090 C   0  0  0  0  0  0  0  0  0  0  0  0
   39.3040   30.1270   39.5700 N   0  0  0  0  0  0  0  0  0  0  0  0
   39.9420   30.9930   38.7630 C   0  0  0  0  0  0  0  0  0  0  0  0
   40.4590   32.1210   39.3010 N   0  0  0  0  0  0  0  0  0  0  0  0
   40.7200   33.2470   41.1350 H   0  0  0  0  0  0  0  0  0  0  0  0
   39.5280   31.5790   42.5100 H   0  0  0  0  0  0  0  0  0  0  0  0
   40.0340   30.7830   37.7030 H   0  0  0  0  0  0  0  0  0  0  0  0
   36.0240   27.5510   39.1380 Cl  0  0  0  0  0  0  0  0  0  0  0  0
   36.4800   25.9640   39.7800 C   0  0  0  0  0  0  0  0  0  0  0  0
   37.1330   25.9420   41.0090 C   0  0  0  0  0  0  0  0  0  0  0  0
   37.4420   24.6660   41.4160 C   0  0  0  0  0  0  0  0  0  0  0  0
   37.9520   24.5370   42.3600 H   0  0  0  0  0  0  0  0  0  0  0  0
   37.1360   23.5420   40.6800 C   0  0  0  0  0  0  0  0  0  0  0  0
   37.4200   22.5550   41.0770 H   0  0  0  0  0  0  0  0  0  0  0  0
   36.4940   23.6480   39.4820 C   0  0  0  0  0  3  0  0  0  0  0  0
   36.1480   24.8880   39.0030 C   0  0  0  0  0  3  0  0  0  0  0  0
  1  2  1  0  0  0  0
  2  7  1  0  0  0  0
  2  3  2  0  0  0  0
  3  8  1  0  0  0  0
  4  9  1  0  0  0  0
  4  3  1  0  0  0  0
  5  4  2  0  0  0  0
  6  1  2  0  0  0  0
  6  5  1  0  0  0  0
 10 16  1  0  0  0  0
 10 11  1  0  0  0  0
 11 17  1  0  0  0  0
 12 11  2  0  0  0  0
 12  1  1  0  0  0  0
 13 12  1  0  0  0  0
 14 15  1  0  0  0  0
 14 13  2  0  0  0  0
 15 10  2  0  0  0  0
 18 14  1  0  0  0  0
 19 20  1  0  0  0  0
 20 21  1  0  0  0  0
 21 22  2  0  0  0  0
 21  5  1  0  0  0  0
 22 23  1  0  0  0  0
 24 25  1  0  0  0  0
 24 22  1  0  0  0  0
 26 24  2  0  0  0  0
 27 26  1  0  0  0  0
 27 20  2  0  0  0  0
M  END
>  <minimizedAffinity>
-4.97227907

$$$$
