
 OpenBabel03252508323D

 32 34  0  0  1  0  0  0  0  0999 V2000
   44.3440   34.4900   41.9360 N   0  0  0  0  0  0  0  0  0  0  0  0
   44.6690   33.4520   41.0030 C   0  0  1  0  0  0  0  0  0  0  0  0
   44.1100   33.6360   39.6360 C   0  0  0  0  0  0  0  0  0  0  0  0
   42.7970   34.1610   39.5930 N   0  0  0  0  0  0  0  0  0  0  0  0
   42.4870   35.1810   40.5090 C   0  0  0  0  0  0  0  0  0  0  0  0
   43.6850   35.6090   41.3420 C   0  0  0  0  0  0  0  0  0  0  0  0
   44.3370   32.4880   41.4420 H   0  0  0  0  0  0  0  0  0  0  0  0
   44.8010   34.3030   39.0410 H   0  0  0  0  0  0  0  0  0  0  0  0
   44.1240   32.6600   39.1070 H   0  0  0  0  0  0  0  0  0  0  0  0
   42.3090   34.0870   38.7150 H   0  0  0  0  0  0  0  0  0  0  0  0
   42.1750   36.1010   39.9500 H   0  0  0  0  0  0  0  0  0  0  0  0
   41.6600   34.9680   41.2160 H   0  0  0  0  0  0  0  0  0  0  0  0
   43.4070   36.4330   41.9860 H   0  0  0  0  0  0  0  0  0  0  0  0
   44.3870   36.0550   40.5760 H   0  0  0  0  0  0  0  0  0  0  0  0
   44.4300   35.3710   44.1460 C   0  0  0  0  0  0  0  0  0  0  0  0
   44.7000   34.3040   43.2950 C   0  0  0  0  0  0  0  0  0  0  0  0
   45.2820   33.1740   43.8390 C   0  0  0  0  0  0  0  0  0  0  0  0
   45.5720   33.1310   45.1660 N   0  0  0  0  0  0  0  0  0  0  0  0
   45.2980   34.1910   45.9790 C   0  0  0  0  0  0  0  0  0  0  0  0
   44.7330   35.2990   45.4720 N   0  0  0  0  0  0  0  0  0  0  0  0
   43.9840   36.3270   43.9130 H   0  0  0  0  0  0  0  0  0  0  0  0
   45.4810   32.3680   43.1850 H   0  0  0  0  0  0  0  0  0  0  0  0
   45.5730   34.0450   47.0190 H   0  0  0  0  0  0  0  0  0  0  0  0
   45.7110   30.6770   40.9850 Cl  0  0  0  0  0  0  0  0  0  0  0  0
   46.7750   32.0610   40.7350 C   0  0  0  0  0  0  0  0  0  0  0  0
   46.1510   33.3140   40.7680 C   0  0  0  0  0  0  0  0  0  0  0  0
   46.9780   34.3930   40.5730 C   0  0  0  0  0  0  0  0  0  0  0  0
   46.5870   35.3770   40.5830 H   0  0  0  0  0  0  0  0  0  0  0  0
   48.3360   34.2790   40.3580 C   0  0  0  0  0  0  0  0  0  0  0  0
   48.9870   35.1190   40.2050 H   0  0  0  0  0  0  0  0  0  0  0  0
   48.9110   33.0270   40.3340 C   0  0  0  0  0  3  0  0  0  0  0  0
   48.1250   31.9140   40.5230 C   0  0  0  0  0  3  0  0  0  0  0  0
  1 16  1  0  0  0  0
  2  7  1  1  0  0  0
  2  1  1  0  0  0  0
  3  2  1  0  0  0  0
  4  3  1  0  0  0  0
  4  5  1  0  0  0  0
  5 12  1  0  0  0  0
  5  6  1  0  0  0  0
  6  1  1  0  0  0  0
  6 13  1  0  0  0  0
  8  3  1  0  0  0  0
  9  3  1  0  0  0  0
 10  4  1  0  0  0  0
 11  5  1  0  0  0  0
 14  6  1  0  0  0  0
 15 20  1  0  0  0  0
 16 17  1  0  0  0  0
 16 15  2  0  0  0  0
 17 18  2  0  0  0  0
 18 19  1  0  0  0  0
 19 23  1  0  0  0  0
 20 19  2  0  0  0  0
 21 15  1  0  0  0  0
 22 17  1  0  0  0  0
 25 26  1  0  0  0  0
 25 24  1  0  0  0  0
 26  2  1  0  0  0  0
 27 28  1  0  0  0  0
 27 26  2  0  0  0  0
 29 27  1  0  0  0  0
 30 29  1  0  0  0  0
 31 29  2  0  0  0  0
 31 32  1  0  0  0  0
 32 25  2  0  0  0  0
M  END
>  <minimizedAffinity>
-4.43049669

>  <minimizedRMSD>
0.468442082

$$$$
