
 OpenBabel03252508293D

 39 42  0  0  1  0  0  0  0  0999 V2000
   42.7410   31.5150   40.4670 N   0  0  0  0  0  0  0  0  0  0  0  0
   43.5500   31.0640   41.6030 C   0  0  2  0  0  0  0  0  0  0  0  0
   42.7300   30.6660   42.7700 C   0  0  0  0  0  0  0  0  0  0  0  0
   41.3080   30.6020   42.4730 N   0  0  0  0  0  0  0  0  0  0  0  0
   40.7760   31.7120   41.7720 C   0  0  0  0  0  0  0  0  0  0  0  0
   41.8280   32.5180   41.0580 C   0  0  2  0  0  0  0  0  0  0  0  0
   43.3870   32.0830   39.8710 H   0  0  0  0  0  0  0  0  0  0  0  0
   44.2250   30.2490   41.2250 H   0  0  0  0  0  0  0  0  0  0  0  0
   42.7310   31.3150   43.6520 H   0  0  0  0  0  0  0  0  0  0  0  0
   43.0090   29.6080   43.0260 H   0  0  0  0  0  0  0  0  0  0  0  0
   40.8190   30.3510   43.3510 H   0  0  0  0  0  0  0  0  0  0  0  0
   40.1150   31.3000   40.9620 H   0  0  0  0  0  0  0  0  0  0  0  0
   40.1190   32.3810   42.3680 H   0  0  0  0  0  0  0  0  0  0  0  0
   42.3900   33.0710   41.8390 H   0  0  0  0  0  0  0  0  0  0  0  0
   41.5150   35.4350   41.9340 Cl  0  0  0  0  0  0  0  0  0  0  0  0
   41.1020   34.7830   40.3610 C   0  0  0  0  0  0  0  0  0  0  0  0
   41.2830   33.4450   40.0670 C   0  0  0  0  0  0  0  0  0  0  0  0
   40.9490   32.9560   38.8140 C   0  0  0  0  0  0  0  0  0  0  0  0
   41.0820   31.9090   38.5600 H   0  0  0  0  0  0  0  0  0  0  0  0
   40.4340   33.7690   37.8380 C   0  0  0  0  0  0  0  0  0  0  0  0
   40.1620   33.4170   36.8470 H   0  0  0  0  0  0  0  0  0  0  0  0
   40.2350   35.1250   38.0940 C   0  0  0  0  0  3  0  0  0  0  0  0
   40.5860   35.5720   39.3670 C   0  0  0  0  0  3  0  0  0  0  0  0
   46.1900   33.4410   42.2170 C   0  0  0  0  0  0  0  0  0  0  0  0
   45.0760   34.0010   42.8540 C   0  0  0  0  0  0  0  0  0  0  0  0
   43.9790   33.1720   42.6980 C   0  0  0  0  0  0  0  0  0  0  0  0
   44.4390   32.1480   41.9840 N   0  0  0  0  0  0  0  0  0  0  0  0
   45.7260   32.3030   41.7030 N   0  0  0  0  0  0  0  0  0  0  0  0
   45.1990   34.9620   43.3640 H   0  0  0  0  0  0  0  0  0  0  0  0
   43.1130   33.5960   43.1950 H   0  0  0  0  0  0  0  0  0  0  0  0
   49.1300   35.7440   41.7620 C   0  0  0  0  0  0  0  0  0  0  0  0
   47.7690   35.3010   41.7130 C   0  0  0  0  0  0  0  0  0  0  0  0
   47.5250   34.0370   42.1890 C   0  0  0  0  0  0  0  0  0  0  0  0
   48.5520   33.2860   42.6720 N   0  0  0  0  0  0  0  0  0  0  0  0
   49.8250   33.7290   42.7070 C   0  0  0  0  0  0  0  0  0  0  0  0
   50.0850   34.9600   42.2470 N   0  0  0  0  0  0  0  0  0  0  0  0
   49.3060   36.7430   41.3820 H   0  0  0  0  0  0  0  0  0  0  0  0
   46.9480   35.8830   41.3340 H   0  0  0  0  0  0  0  0  0  0  0  0
   50.5510   33.0350   43.1150 H   0  0  0  0  0  0  0  0  0  0  0  0
  1  6  1  0  0  0  0
  1  2  1  0  0  0  0
  2  8  1  6  0  0  0
  2 27  1  0  0  0  0
  2  3  1  0  0  0  0
  3 10  1  0  0  0  0
  3  9  1  0  0  0  0
  4  3  1  0  0  0  0
  4 11  1  0  0  0  0
  5 13  1  0  0  0  0
  5  4  1  0  0  0  0
  6  5  1  0  0  0  0
  6 14  1  1  0  0  0
  7  1  1  0  0  0  0
 12  5  1  0  0  0  0
 16 15  1  0  0  0  0
 17 16  1  0  0  0  0
 17  6  1  0  0  0  0
 18 17  2  0  0  0  0
 19 18  1  0  0  0  0
 20 22  2  0  0  0  0
 20 18  1  0  0  0  0
 21 20  1  0  0  0  0
 22 23  1  0  0  0  0
 23 16  2  0  0  0  0
 24 25  1  0  0  0  0
 25 29  1  0  0  0  0
 26 25  2  0  0  0  0
 26 30  1  0  0  0  0
 27 26  1  0  0  0  0
 28 27  1  0  0  0  0
 28 24  2  0  0  0  0
 31 36  1  0  0  0  0
 32 31  2  0  0  0  0
 32 33  1  0  0  0  0
 33 24  1  0  0  0  0
 33 34  2  0  0  0  0
 34 35  1  0  0  0  0
 35 39  1  0  0  0  0
 36 35  2  0  0  0  0
 37 31  1  0  0  0  0
 38 32  1  0  0  0  0
M  END
>  <minimizedAffinity>
-5.0843544

>  <minimizedRMSD>
3.25249815

$$$$
