
 OpenBabel03252506563D

 38 42  0  0  0  0  0  0  0  0999 V2000
   47.2860   31.3400   45.1810 C   0  0  0  0  0  0  0  0  0  0  0  0
   46.8980   32.6790   45.1290 C   0  0  0  0  0  0  0  0  0  0  0  0
   46.2650   33.3100   46.1840 C   0  0  0  0  0  0  0  0  0  0  0  0
   45.9920   32.6110   47.3560 C   0  0  0  0  0  0  0  0  0  0  0  0
   45.4070   32.9020   48.5470 N   0  0  0  0  0  0  0  0  0  0  0  0
   45.4310   31.7770   49.3160 C   0  0  0  0  0  0  0  0  0  0  0  0
   46.0350   30.8090   48.5800 N   0  0  0  0  0  0  0  0  0  0  0  0
   46.3840   31.2990   47.3800 C   0  0  0  0  0  0  0  0  0  0  0  0
   47.0090   30.6350   46.3700 C   0  0  0  0  0  0  0  0  0  0  0  0
   47.7780   30.8560   44.3580 H   0  0  0  0  0  0  0  0  0  0  0  0
   45.9670   34.3580   46.1280 H   0  0  0  0  0  0  0  0  0  0  0  0
   45.0230   33.8230   48.7920 H   0  0  0  0  0  0  0  0  0  0  0  0
   45.0530   31.6640   50.3110 H   0  0  0  0  0  0  0  0  0  0  0  0
   46.5600   35.1240   42.4140 C   0  0  0  0  0  0  0  0  0  0  0  0
   47.6950   34.8640   41.6350 C   0  0  0  0  0  0  0  0  0  0  0  0
   48.5680   33.8550   42.0440 C   0  0  0  0  0  0  0  0  0  0  0  0
   48.2710   33.1660   43.1910 N   0  0  0  0  0  0  0  0  0  0  0  0
   47.1670   33.4400   43.9210 C   0  0  0  0  0  0  0  0  0  0  0  0
   46.3240   34.4080   43.5330 N   0  0  0  0  0  0  0  0  0  0  0  0
   45.8310   35.8940   42.1630 H   0  0  0  0  0  0  0  0  0  0  0  0
   47.8630   35.4420   40.7530 H   0  0  0  0  0  0  0  0  0  0  0  0
   49.4570   33.6260   41.4680 H   0  0  0  0  0  0  0  0  0  0  0  0
   47.3920   29.2260   46.4880 C   0  0  0  0  0  0  0  0  0  0  0  0
   48.5170   28.6650   45.9150 C   0  0  0  0  0  0  0  0  0  0  0  0
   48.4480   27.3160   46.3070 C   0  0  0  0  0  0  0  0  0  0  0  0
   47.3150   27.1490   47.0740 C   0  0  0  0  0  0  0  0  0  0  0  0
   46.7280   28.3220   47.1470 O   0  0  0  0  0  0  0  0  0  0  0  0
   49.2850   29.0960   45.3120 H   0  0  0  0  0  0  0  0  0  0  0  0
   49.1480   26.5080   46.0690 H   0  0  0  0  0  0  0  0  0  0  0  0
   44.9280   25.9130   45.7630 Cl  0  0  0  0  0  0  0  0  0  0  0  0
   45.7590   25.2540   47.1620 C   0  0  0  0  0  0  0  0  0  0  0  0
   46.8560   25.9090   47.6880 C   0  0  0  0  0  0  0  0  0  0  0  0
   47.5230   25.4080   48.7870 C   0  0  0  0  0  0  0  0  0  0  0  0
   48.3790   25.9130   49.2040 H   0  0  0  0  0  0  0  0  0  0  0  0
   47.1020   24.2360   49.3800 C   0  0  0  0  0  0  0  0  0  0  0  0
   47.6250   23.8430   50.2430 H   0  0  0  0  0  0  0  0  0  0  0  0
   46.0040   23.6050   48.8330 C   0  0  0  0  0  3  0  0  0  0  0  0
   45.3030   24.0720   47.7300 C   0  0  0  0  0  3  0  0  0  0  0  0
  1  9  1  0  0  0  0
  2  1  2  0  0  0  0
  2  3  1  0  0  0  0
  3  4  2  0  0  0  0
  4  8  1  0  0  0  0
  4  5  1  0  0  0  0
  5 12  1  0  0  0  0
  5  6  1  0  0  0  0
  6 13  1  0  0  0  0
  7  6  2  0  0  0  0
  8  7  1  0  0  0  0
  9 23  1  0  0  0  0
  9  8  2  0  0  0  0
 10  1  1  0  0  0  0
 11  3  1  0  0  0  0
 14 19  1  0  0  0  0
 15 16  1  0  0  0  0
 15 14  2  0  0  0  0
 16 17  2  0  0  0  0
 17 18  1  0  0  0  0
 18  2  1  0  0  0  0
 19 18  2  0  0  0  0
 20 14  1  0  0  0  0
 21 15  1  0  0  0  0
 22 16  1  0  0  0  0
 23 27  1  0  0  0  0
 24 25  1  0  0  0  0
 24 23  2  0  0  0  0
 25 26  2  0  0  0  0
 26 27  1  0  0  0  0
 26 32  1  0  0  0  0
 28 24  1  0  0  0  0
 29 25  1  0  0  0  0
 30 31  1  0  0  0  0
 31 32  2  0  0  0  0
 31 38  1  0  0  0  0
 32 33  1  0  0  0  0
 33 34  1  0  0  0  0
 33 35  2  0  0  0  0
 35 36  1  0  0  0  0
 37 35  1  0  0  0  0
 38 37  2  0  0  0  0
M  END
>  <minimizedAffinity>
-5.96380472

>  <minimizedRMSD>
1.14888906

$$$$
