
 OpenBabel03242519233D

 34 36  0  0  0  0  0  0  0  0999 V2000
   36.7550   28.2930   41.6180 C   0  0  0  0  0  0  0  0  0  0  0  0
   37.0810   29.5700   42.1280 C   0  0  0  0  0  0  0  0  0  0  0  0
   36.7440   30.7150   41.3940 C   0  0  0  0  0  0  0  0  0  0  0  0
   36.1040   30.5100   40.1970 N   0  0  0  0  0  0  0  0  0  0  0  0
   35.8040   29.2700   39.7320 C   0  0  0  0  0  0  0  0  0  0  0  0
   36.1280   28.1830   40.4390 N   0  0  0  0  0  0  0  0  0  0  0  0
   37.5690   29.8060   43.0360 H   0  0  0  0  0  0  0  0  0  0  0  0
   36.9600   31.7180   41.7190 H   0  0  0  0  0  0  0  0  0  0  0  0
   37.1510   27.1450   42.4540 C   0  0  0  0  0  0  0  0  0  0  0  0
   37.9530   27.5380   43.6290 C   0  0  0  0  0  0  0  0  0  0  0  0
   39.3840   27.0950   43.5530 C   0  0  0  0  0  0  0  0  0  0  0  0
   39.5090   25.5980   43.3320 C   0  0  0  0  0  0  0  0  0  0  0  0
   38.5220   25.0540   42.3310 C   0  0  0  0  0  0  0  0  0  0  0  0
   37.8710   26.1620   41.5420 C   0  0  0  0  0  0  0  0  0  0  0  0
   36.1950   26.6100   42.7340 H   0  0  0  0  0  0  0  0  0  0  0  0
   37.9430   28.6120   43.8710 H   0  0  0  0  0  0  0  0  0  0  0  0
   37.5250   27.0330   44.5340 H   0  0  0  0  0  0  0  0  0  0  0  0
   39.8680   27.3010   44.5450 H   0  0  0  0  0  0  0  0  0  0  0  0
   40.0030   27.5730   42.8020 H   0  0  0  0  0  0  0  0  0  0  0  0
   39.4570   25.0420   44.3070 H   0  0  0  0  0  0  0  0  0  0  0  0
   40.5260   25.3850   42.9450 H   0  0  0  0  0  0  0  0  0  0  0  0
   37.6990   24.5670   42.9290 H   0  0  0  0  0  0  0  0  0  0  0  0
   38.9510   24.3250   41.6480 H   0  0  0  0  0  0  0  0  0  0  0  0
   37.1050   25.7140   40.8810 H   0  0  0  0  0  0  0  0  0  0  0  0
   38.6140   26.6910   40.9080 H   0  0  0  0  0  0  0  0  0  0  0  0
   37.6240   29.3580   37.3920 Cl  0  0  0  0  0  0  0  0  0  0  0  0
   35.8720   29.1340   37.2750 C   0  0  0  0  0  0  0  0  0  0  0  0
   35.1200   29.1110   38.4510 C   0  0  0  0  0  0  0  0  0  0  0  0
   33.7500   28.9380   38.3980 C   0  0  0  0  0  0  0  0  0  0  0  0
   33.2300   28.9280   39.3290 H   0  0  0  0  0  0  0  0  0  0  0  0
   33.1630   28.7930   37.1470 C   0  0  0  0  0  0  0  0  0  0  0  0
   32.1090   28.6590   37.0960 H   0  0  0  0  0  0  0  0  0  0  0  0
   33.9080   28.8150   35.9770 C   0  0  0  0  0  3  0  0  0  0  0  0
   35.2720   28.9890   36.0590 C   0  0  0  0  0  3  0  0  0  0  0  0
  1  2  1  0  0  0  0
  1  9  1  0  0  0  0
  2  7  1  0  0  0  0
  3  8  1  0  0  0  0
  3  2  2  0  0  0  0
  4  3  1  0  0  0  0
  5  4  2  0  0  0  0
  5  6  1  0  0  0  0
  6  1  2  0  0  0  0
  9 15  1  0  0  0  0
  9 10  1  0  0  0  0
 10 16  1  0  0  0  0
 10 17  1  0  0  0  0
 11 10  1  0  0  0  0
 11 18  1  0  0  0  0
 12 11  1  0  0  0  0
 12 20  1  0  0  0  0
 13 22  1  0  0  0  0
 13 12  1  0  0  0  0
 14 13  1  0  0  0  0
 14  9  1  0  0  0  0
 19 11  1  0  0  0  0
 21 12  1  0  0  0  0
 23 13  1  0  0  0  0
 24 14  1  0  0  0  0
 25 14  1  0  0  0  0
 27 26  1  0  0  0  0
 27 28  1  0  0  0  0
 28  5  1  0  0  0  0
 29 28  2  0  0  0  0
 29 30  1  0  0  0  0
 31 29  1  0  0  0  0
 32 31  1  0  0  0  0
 33 34  1  0  0  0  0
 33 31  2  0  0  0  0
 34 27  2  0  0  0  0
M  END
>  <minimizedAffinity>
-5.52156878

$$$$

 OpenBabel03242519233D

 34 36  0  0  0  0  0  0  0  0999 V2000
   37.8050   27.0630   41.5350 C   0  0  0  0  0  0  0  0  0  0  0  0
   37.4440   26.9120   42.8940 C   0  0  0  0  0  0  0  0  0  0  0  0
   37.2190   28.0500   43.6790 C   0  0  0  0  0  0  0  0  0  0  0  0
   37.3680   29.2650   43.0580 N   0  0  0  0  0  0  0  0  0  0  0  0
   37.7150   29.3780   41.7500 C   0  0  0  0  0  0  0  0  0  0  0  0
   37.9280   28.2880   41.0070 N   0  0  0  0  0  0  0  0  0  0  0  0
   37.3110   26.0160   43.4390 H   0  0  0  0  0  0  0  0  0  0  0  0
   36.9420   28.0120   44.7190 H   0  0  0  0  0  0  0  0  0  0  0  0
   38.0280   25.8130   40.7860 C   0  0  0  0  0  0  0  0  0  0  0  0
   37.2850   25.7640   39.5110 C   0  0  0  0  0  0  0  0  0  0  0  0
   36.1710   24.7610   39.5040 C   0  0  0  0  0  0  0  0  0  0  0  0
   36.6540   23.3670   39.8610 C   0  0  0  0  0  0  0  0  0  0  0  0
   37.6480   23.3470   40.9940 C   0  0  0  0  0  0  0  0  0  0  0  0
   37.6760   24.6670   41.7240 C   0  0  0  0  0  0  0  0  0  0  0  0
   39.1460   25.7210   40.6470 H   0  0  0  0  0  0  0  0  0  0  0  0
   36.8760   26.7270   39.1650 H   0  0  0  0  0  0  0  0  0  0  0  0
   37.9920   25.4430   38.7020 H   0  0  0  0  0  0  0  0  0  0  0  0
   35.7710   24.6880   38.4570 H   0  0  0  0  0  0  0  0  0  0  0  0
   35.3220   24.9690   40.1450 H   0  0  0  0  0  0  0  0  0  0  0  0
   37.0520   22.8350   38.9550 H   0  0  0  0  0  0  0  0  0  0  0  0
   35.7800   22.7620   40.1750 H   0  0  0  0  0  0  0  0  0  0  0  0
   38.6650   23.2250   40.5230 H   0  0  0  0  0  0  0  0  0  0  0  0
   37.4820   22.5420   41.7070 H   0  0  0  0  0  0  0  0  0  0  0  0
   38.4720   24.6230   42.4920 H   0  0  0  0  0  0  0  0  0  0  0  0
   36.7100   24.8630   42.2340 H   0  0  0  0  0  0  0  0  0  0  0  0
   40.2150   30.7790   42.5170 Cl  0  0  0  0  0  0  0  0  0  0  0  0
   38.9970   31.4540   41.4240 C   0  0  0  0  0  0  0  0  0  0  0  0
   37.8600   30.6980   41.1390 C   0  0  0  0  0  0  0  0  0  0  0  0
   36.8880   31.1930   40.2900 C   0  0  0  0  0  0  0  0  0  0  0  0
   36.0420   30.5690   40.1110 H   0  0  0  0  0  0  0  0  0  0  0  0
   37.0870   32.4540   39.7440 C   0  0  0  0  0  0  0  0  0  0  0  0
   36.3450   32.8440   39.0890 H   0  0  0  0  0  0  0  0  0  0  0  0
   38.2170   33.2090   40.0250 C   0  0  0  0  0  3  0  0  0  0  0  0
   39.1700   32.6910   40.8750 C   0  0  0  0  0  3  0  0  0  0  0  0
  1  2  1  0  0  0  0
  2  7  1  0  0  0  0
  2  3  2  0  0  0  0
  3  8  1  0  0  0  0
  4  3  1  0  0  0  0
  5  4  2  0  0  0  0
  6  1  2  0  0  0  0
  6  5  1  0  0  0  0
  9  1  1  0  0  0  0
  9 14  1  0  0  0  0
 10  9  1  0  0  0  0
 11 10  1  0  0  0  0
 11 12  1  0  0  0  0
 11 19  1  0  0  0  0
 12 21  1  0  0  0  0
 12 13  1  0  0  0  0
 13 23  1  0  0  0  0
 13 14  1  0  0  0  0
 14 25  1  0  0  0  0
 14 24  1  0  0  0  0
 15  9  1  0  0  0  0
 16 10  1  0  0  0  0
 17 10  1  0  0  0  0
 18 11  1  0  0  0  0
 20 12  1  0  0  0  0
 22 13  1  0  0  0  0
 27 26  1  0  0  0  0
 28 27  1  0  0  0  0
 28  5  1  0  0  0  0
 29 28  2  0  0  0  0
 30 29  1  0  0  0  0
 31 33  2  0  0  0  0
 31 29  1  0  0  0  0
 32 31  1  0  0  0  0
 33 34  1  0  0  0  0
 34 27  2  0  0  0  0
M  END
>  <minimizedAffinity>
-5.44101095

$$$$

 OpenBabel03242519233D

 34 36  0  0  0  0  0  0  0  0999 V2000
   37.1900   26.6140   42.0550 C   0  0  0  0  0  0  0  0  0  0  0  0
   37.1780   27.1080   43.3790 C   0  0  0  0  0  0  0  0  0  0  0  0
   37.3720   28.4760   43.6080 C   0  0  0  0  0  0  0  0  0  0  0  0
   37.5660   29.2630   42.5000 N   0  0  0  0  0  0  0  0  0  0  0  0
   37.5730   28.7590   41.2390 C   0  0  0  0  0  0  0  0  0  0  0  0
   37.3860   27.4530   41.0290 N   0  0  0  0  0  0  0  0  0  0  0  0
   37.0350   26.5680   44.2770 H   0  0  0  0  0  0  0  0  0  0  0  0
   37.3750   28.9230   44.5870 H   0  0  0  0  0  0  0  0  0  0  0  0
   36.9830   25.1610   41.9080 C   0  0  0  0  0  0  0  0  0  0  0  0
   38.1560   24.3670   42.3220 C   0  0  0  0  0  0  0  0  0  0  0  0
   38.8530   23.6870   41.1820 C   0  0  0  0  0  0  0  0  0  0  0  0
   37.9100   22.8130   40.3740 C   0  0  0  0  0  0  0  0  0  0  0  0
   36.5630   23.4450   40.1350 C   0  0  0  0  0  0  0  0  0  0  0  0
   36.5790   24.9170   40.4600 C   0  0  0  0  0  0  0  0  0  0  0  0
   36.0530   24.9110   42.4980 H   0  0  0  0  0  0  0  0  0  0  0  0
   38.9150   24.9130   42.9060 H   0  0  0  0  0  0  0  0  0  0  0  0
   37.8060   23.5460   43.0000 H   0  0  0  0  0  0  0  0  0  0  0  0
   39.6270   22.9930   41.6070 H   0  0  0  0  0  0  0  0  0  0  0  0
   39.3680   24.3260   40.4730 H   0  0  0  0  0  0  0  0  0  0  0  0
   37.8120   21.7940   40.8370 H   0  0  0  0  0  0  0  0  0  0  0  0
   38.3700   22.6250   39.3830 H   0  0  0  0  0  0  0  0  0  0  0  0
   35.8530   22.9670   40.8690 H   0  0  0  0  0  0  0  0  0  0  0  0
   36.1870   23.3000   39.1250 H   0  0  0  0  0  0  0  0  0  0  0  0
   35.5520   25.3110   40.3410 H   0  0  0  0  0  0  0  0  0  0  0  0
   37.2490   25.4720   39.7700 H   0  0  0  0  0  0  0  0  0  0  0  0
   35.0630   29.5660   39.8780 Cl  0  0  0  0  0  0  0  0  0  0  0  0
   36.6760   30.0920   39.3730 C   0  0  0  0  0  0  0  0  0  0  0  0
   37.7840   29.6430   40.0950 C   0  0  0  0  0  0  0  0  0  0  0  0
   39.0580   30.0340   39.7300 C   0  0  0  0  0  0  0  0  0  0  0  0
   39.8640   29.6600   40.3190 H   0  0  0  0  0  0  0  0  0  0  0  0
   39.1880   30.8760   38.6330 C   0  0  0  0  0  0  0  0  0  0  0  0
   40.1650   31.1820   38.3440 H   0  0  0  0  0  0  0  0  0  0  0  0
   38.0890   31.3240   37.9130 C   0  0  0  0  0  3  0  0  0  0  0  0
   36.8300   30.9190   38.2990 C   0  0  0  0  0  3  0  0  0  0  0  0
  1  2  1  0  0  0  0
  2  3  2  0  0  0  0
  2  7  1  0  0  0  0
  3  8  1  0  0  0  0
  4  3  1  0  0  0  0
  5  4  2  0  0  0  0
  6  5  1  0  0  0  0
  6  1  2  0  0  0  0
  9  1  1  0  0  0  0
  9 10  1  0  0  0  0
  9 15  1  0  0  0  0
 10 16  1  0  0  0  0
 10 17  1  0  0  0  0
 11 18  1  0  0  0  0
 11 10  1  0  0  0  0
 12 20  1  0  0  0  0
 12 11  1  0  0  0  0
 13 12  1  0  0  0  0
 13 14  1  0  0  0  0
 13 22  1  0  0  0  0
 14  9  1  0  0  0  0
 19 11  1  0  0  0  0
 21 12  1  0  0  0  0
 23 13  1  0  0  0  0
 24 14  1  0  0  0  0
 25 14  1  0  0  0  0
 27 26  1  0  0  0  0
 27 28  1  0  0  0  0
 28  5  1  0  0  0  0
 29 28  2  0  0  0  0
 29 30  1  0  0  0  0
 31 29  1  0  0  0  0
 32 31  1  0  0  0  0
 33 34  1  0  0  0  0
 33 31  2  0  0  0  0
 34 27  2  0  0  0  0
M  END
>  <minimizedAffinity>
-5.38342237

$$$$

 OpenBabel03242519233D

 34 36  0  0  0  0  0  0  0  0999 V2000
   37.4400   30.2500   40.2060 C   0  0  0  0  0  0  0  0  0  0  0  0
   36.0300   30.1790   40.1300 C   0  0  0  0  0  0  0  0  0  0  0  0
   35.3620   29.0780   40.6800 C   0  0  0  0  0  0  0  0  0  0  0  0
   36.1440   28.1160   41.2710 N   0  0  0  0  0  0  0  0  0  0  0  0
   37.4980   28.2120   41.3290 C   0  0  0  0  0  0  0  0  0  0  0  0
   38.1280   29.2660   40.8020 N   0  0  0  0  0  0  0  0  0  0  0  0
   35.3630   30.8750   39.6950 H   0  0  0  0  0  0  0  0  0  0  0  0
   34.2920   28.9570   40.6600 H   0  0  0  0  0  0  0  0  0  0  0  0
   38.0590   31.4410   39.5970 C   0  0  0  0  0  0  0  0  0  0  0  0
   39.5300   31.4540   39.7230 C   0  0  0  0  0  0  0  0  0  0  0  0
   40.0420   32.5130   40.6530 C   0  0  0  0  0  0  0  0  0  0  0  0
   39.5540   33.8980   40.2670 C   0  0  0  0  0  0  0  0  0  0  0  0
   38.1060   33.9310   39.8500 C   0  0  0  0  0  0  0  0  0  0  0  0
   37.3950   32.6560   40.2290 C   0  0  0  0  0  0  0  0  0  0  0  0
   37.7100   31.4660   38.5220 H   0  0  0  0  0  0  0  0  0  0  0  0
   39.9880   30.4960   40.0140 H   0  0  0  0  0  0  0  0  0  0  0  0
   39.9680   31.6910   38.7180 H   0  0  0  0  0  0  0  0  0  0  0  0
   41.1610   32.5460   40.5640 H   0  0  0  0  0  0  0  0  0  0  0  0
   39.8190   32.3870   41.7060 H   0  0  0  0  0  0  0  0  0  0  0  0
   40.2190   34.3550   39.4850 H   0  0  0  0  0  0  0  0  0  0  0  0
   39.6620   34.5650   41.1470 H   0  0  0  0  0  0  0  0  0  0  0  0
   38.1010   33.9720   38.7230 H   0  0  0  0  0  0  0  0  0  0  0  0
   37.5580   34.7830   40.2440 H   0  0  0  0  0  0  0  0  0  0  0  0
   36.3630   32.7030   39.8340 H   0  0  0  0  0  0  0  0  0  0  0  0
   37.3420   32.5410   41.3330 H   0  0  0  0  0  0  0  0  0  0  0  0
   37.3560   25.6000   39.9290 Cl  0  0  0  0  0  0  0  0  0  0  0  0
   38.2950   25.8840   41.4030 C   0  0  0  0  0  0  0  0  0  0  0  0
   38.2820   27.1590   41.9700 C   0  0  0  0  0  0  0  0  0  0  0  0
   39.0040   27.4170   43.1210 C   0  0  0  0  0  0  0  0  0  0  0  0
   38.9550   28.4100   43.5060 H   0  0  0  0  0  0  0  0  0  0  0  0
   39.7270   26.3720   43.6790 C   0  0  0  0  0  0  0  0  0  0  0  0
   40.2860   26.5600   44.5650 H   0  0  0  0  0  0  0  0  0  0  0  0
   39.7420   25.1030   43.1180 C   0  0  0  0  0  3  0  0  0  0  0  0
   39.0140   24.8740   41.9710 C   0  0  0  0  0  3  0  0  0  0  0  0
  1  6  1  0  0  0  0
  2  1  2  0  0  0  0
  2  3  1  0  0  0  0
  3  4  2  0  0  0  0
  4  5  1  0  0  0  0
  5 28  1  0  0  0  0
  6  5  2  0  0  0  0
  7  2  1  0  0  0  0
  8  3  1  0  0  0  0
  9 10  1  0  0  0  0
  9  1  1  0  0  0  0
  9 14  1  0  0  0  0
 10 16  1  0  0  0  0
 10 11  1  0  0  0  0
 11 19  1  0  0  0  0
 12 11  1  0  0  0  0
 12 21  1  0  0  0  0
 13 14  1  0  0  0  0
 13 23  1  0  0  0  0
 13 12  1  0  0  0  0
 14 25  1  0  0  0  0
 15  9  1  0  0  0  0
 17 10  1  0  0  0  0
 18 11  1  0  0  0  0
 20 12  1  0  0  0  0
 22 13  1  0  0  0  0
 24 14  1  0  0  0  0
 26 27  1  0  0  0  0
 27 28  2  0  0  0  0
 27 34  1  0  0  0  0
 28 29  1  0  0  0  0
 29 30  1  0  0  0  0
 29 31  2  0  0  0  0
 31 32  1  0  0  0  0
 33 31  1  0  0  0  0
 34 33  2  0  0  0  0
M  END
>  <minimizedAffinity>
-5.33967543

$$$$

 OpenBabel03242519233D

 34 36  0  0  0  0  0  0  0  0999 V2000
   38.4620   30.4600   40.3650 C   0  0  0  0  0  0  0  0  0  0  0  0
   37.3760   31.3230   40.6360 C   0  0  0  0  0  0  0  0  0  0  0  0
   36.1370   30.7810   41.0030 C   0  0  0  0  0  0  0  0  0  0  0  0
   36.0610   29.4120   41.0750 N   0  0  0  0  0  0  0  0  0  0  0  0
   37.1230   28.6080   40.8090 C   0  0  0  0  0  0  0  0  0  0  0  0
   38.3020   29.1330   40.4600 N   0  0  0  0  0  0  0  0  0  0  0  0
   37.3560   32.3800   40.6020 H   0  0  0  0  0  0  0  0  0  0  0  0
   35.2670   31.3760   41.2230 H   0  0  0  0  0  0  0  0  0  0  0  0
   39.7250   31.1150   39.9820 C   0  0  0  0  0  0  0  0  0  0  0  0
   40.1580   32.1440   40.9480 C   0  0  0  0  0  0  0  0  0  0  0  0
   40.0700   33.5420   40.4150 C   0  0  0  0  0  0  0  0  0  0  0  0
   40.8430   33.7090   39.1190 C   0  0  0  0  0  0  0  0  0  0  0  0
   40.6770   32.5530   38.1670 C   0  0  0  0  0  0  0  0  0  0  0  0
   39.5290   31.6640   38.5750 C   0  0  0  0  0  0  0  0  0  0  0  0
   40.4850   30.2890   39.8500 H   0  0  0  0  0  0  0  0  0  0  0  0
   39.6460   32.1200   41.9240 H   0  0  0  0  0  0  0  0  0  0  0  0
   41.2400   31.9740   41.1850 H   0  0  0  0  0  0  0  0  0  0  0  0
   40.5590   34.2310   41.1550 H   0  0  0  0  0  0  0  0  0  0  0  0
   39.0760   33.9360   40.2370 H   0  0  0  0  0  0  0  0  0  0  0  0
   41.9270   33.9240   39.3220 H   0  0  0  0  0  0  0  0  0  0  0  0
   40.4710   34.6190   38.6050 H   0  0  0  0  0  0  0  0  0  0  0  0
   41.6100   31.9270   38.2610 H   0  0  0  0  0  0  0  0  0  0  0  0
   40.5490   32.8560   37.1300 H   0  0  0  0  0  0  0  0  0  0  0  0
   39.5010   30.7950   37.8910 H   0  0  0  0  0  0  0  0  0  0  0  0
   38.5600   32.2010   38.4980 H   0  0  0  0  0  0  0  0  0  0  0  0
   37.5760   27.5420   43.5390 Cl  0  0  0  0  0  0  0  0  0  0  0  0
   37.1760   26.5370   42.1380 C   0  0  0  0  0  0  0  0  0  0  0  0
   36.9870   27.1570   40.9020 C   0  0  0  0  0  0  0  0  0  0  0  0
   36.6740   26.4040   39.7860 C   0  0  0  0  0  0  0  0  0  0  0  0
   36.5410   26.9330   38.8700 H   0  0  0  0  0  0  0  0  0  0  0  0
   36.5590   25.0280   39.9430 C   0  0  0  0  0  0  0  0  0  0  0  0
   36.3190   24.4400   39.0910 H   0  0  0  0  0  0  0  0  0  0  0  0
   36.7470   24.4090   41.1720 C   0  0  0  0  0  3  0  0  0  0  0  0
   37.0580   25.1840   42.2670 C   0  0  0  0  0  3  0  0  0  0  0  0
  1  6  2  0  0  0  0
  1  2  1  0  0  0  0
  2  3  2  0  0  0  0
  3  4  1  0  0  0  0
  3  8  1  0  0  0  0
  5 28  1  0  0  0  0
  5  4  2  0  0  0  0
  6  5  1  0  0  0  0
  7  2  1  0  0  0  0
  9  1  1  0  0  0  0
  9 10  1  0  0  0  0
 10 17  1  0  0  0  0
 10 16  1  0  0  0  0
 11 10  1  0  0  0  0
 11 18  1  0  0  0  0
 12 20  1  0  0  0  0
 12 11  1  0  0  0  0
 13 22  1  0  0  0  0
 13 14  1  0  0  0  0
 13 12  1  0  0  0  0
 14  9  1  0  0  0  0
 15  9  1  0  0  0  0
 19 11  1  0  0  0  0
 21 12  1  0  0  0  0
 23 13  1  0  0  0  0
 24 14  1  0  0  0  0
 25 14  1  0  0  0  0
 27 34  1  0  0  0  0
 27 26  1  0  0  0  0
 28 27  2  0  0  0  0
 29 31  2  0  0  0  0
 29 28  1  0  0  0  0
 30 29  1  0  0  0  0
 31 33  1  0  0  0  0
 32 31  1  0  0  0  0
 33 34  2  0  0  0  0
M  END
>  <minimizedAffinity>
-5.3011961

$$$$

 OpenBabel03242519233D

 34 36  0  0  0  0  0  0  0  0999 V2000
   37.7110   30.2700   40.8600 C   0  0  0  0  0  0  0  0  0  0  0  0
   36.5340   30.1890   40.0810 C   0  0  0  0  0  0  0  0  0  0  0  0
   36.5070   30.7680   38.8060 C   0  0  0  0  0  0  0  0  0  0  0  0
   37.6580   31.3910   38.3890 N   0  0  0  0  0  0  0  0  0  0  0  0
   38.7740   31.4520   39.1610 C   0  0  0  0  0  0  0  0  0  0  0  0
   38.7910   30.8970   40.3760 N   0  0  0  0  0  0  0  0  0  0  0  0
   35.6150   29.7300   40.3310 H   0  0  0  0  0  0  0  0  0  0  0  0
   35.6480   30.7460   38.1580 H   0  0  0  0  0  0  0  0  0  0  0  0
   37.6470   29.6390   42.1910 C   0  0  0  0  0  0  0  0  0  0  0  0
   38.9640   29.5520   42.8510 C   0  0  0  0  0  0  0  0  0  0  0  0
   39.4830   28.1500   42.9710 C   0  0  0  0  0  0  0  0  0  0  0  0
   38.5000   27.2350   43.6790 C   0  0  0  0  0  0  0  0  0  0  0  0
   37.0690   27.4500   43.2600 C   0  0  0  0  0  0  0  0  0  0  0  0
   36.9820   28.2820   42.0050 C   0  0  0  0  0  0  0  0  0  0  0  0
   36.8940   30.2330   42.7890 H   0  0  0  0  0  0  0  0  0  0  0  0
   39.7590   30.1710   42.4050 H   0  0  0  0  0  0  0  0  0  0  0  0
   38.8590   29.9290   43.9010 H   0  0  0  0  0  0  0  0  0  0  0  0
   40.4030   28.1700   43.6150 H   0  0  0  0  0  0  0  0  0  0  0  0
   39.7620   27.6520   42.0490 H   0  0  0  0  0  0  0  0  0  0  0  0
   38.6180   27.3040   44.7940 H   0  0  0  0  0  0  0  0  0  0  0  0
   38.7630   26.1850   43.4380 H   0  0  0  0  0  0  0  0  0  0  0  0
   36.5860   28.0600   44.0760 H   0  0  0  0  0  0  0  0  0  0  0  0
   36.5110   26.5270   43.1220 H   0  0  0  0  0  0  0  0  0  0  0  0
   35.9140   28.4730   41.7860 H   0  0  0  0  0  0  0  0  0  0  0  0
   37.4260   27.7470   41.1380 H   0  0  0  0  0  0  0  0  0  0  0  0
   39.1720   34.1600   40.3040 Cl  0  0  0  0  0  0  0  0  0  0  0  0
   40.2670   33.4090   39.1330 C   0  0  0  0  0  0  0  0  0  0  0  0
   39.9720   32.1270   38.6670 C   0  0  0  0  0  0  0  0  0  0  0  0
   40.8050   31.5100   37.7530 C   0  0  0  0  0  0  0  0  0  0  0  0
   40.5270   30.5310   37.4340 H   0  0  0  0  0  0  0  0  0  0  0  0
   41.9270   32.2070   37.3250 C   0  0  0  0  0  0  0  0  0  0  0  0
   42.5740   31.7410   36.6210 H   0  0  0  0  0  0  0  0  0  0  0  0
   42.2230   33.4820   37.7870 C   0  0  0  0  0  3  0  0  0  0  0  0
   41.3750   34.0740   38.6980 C   0  0  0  0  0  3  0  0  0  0  0  0
  1  9  1  0  0  0  0
  2  7  1  0  0  0  0
  2  1  2  0  0  0  0
  3  2  1  0  0  0  0
  4  3  2  0  0  0  0
  4  5  1  0  0  0  0
  5  6  2  0  0  0  0
  6  1  1  0  0  0  0
  8  3  1  0  0  0  0
  9 15  1  0  0  0  0
  9 10  1  0  0  0  0
 10 11  1  0  0  0  0
 10 17  1  0  0  0  0
 11 18  1  0  0  0  0
 11 12  1  0  0  0  0
 12 20  1  0  0  0  0
 13 12  1  0  0  0  0
 13 22  1  0  0  0  0
 14  9  1  0  0  0  0
 14 13  1  0  0  0  0
 16 10  1  0  0  0  0
 19 11  1  0  0  0  0
 21 12  1  0  0  0  0
 23 13  1  0  0  0  0
 24 14  1  0  0  0  0
 25 14  1  0  0  0  0
 27 26  1  0  0  0  0
 28 27  2  0  0  0  0
 28  5  1  0  0  0  0
 29 28  1  0  0  0  0
 30 29  1  0  0  0  0
 31 29  2  0  0  0  0
 31 33  1  0  0  0  0
 32 31  1  0  0  0  0
 33 34  2  0  0  0  0
 34 27  1  0  0  0  0
M  END
>  <minimizedAffinity>
-5.29573727

$$$$

 OpenBabel03242519233D

 34 36  0  0  0  0  0  0  0  0999 V2000
   37.1100   28.7930   41.7020 C   0  0  0  0  0  0  0  0  0  0  0  0
   37.5670   28.8900   43.0360 C   0  0  0  0  0  0  0  0  0  0  0  0
   38.0720   27.7530   43.6790 C   0  0  0  0  0  0  0  0  0  0  0  0
   38.0880   26.5900   42.9490 N   0  0  0  0  0  0  0  0  0  0  0  0
   37.6420   26.5280   41.6670 C   0  0  0  0  0  0  0  0  0  0  0  0
   37.1620   27.6170   41.0610 N   0  0  0  0  0  0  0  0  0  0  0  0
   37.5860   29.7440   43.6600 H   0  0  0  0  0  0  0  0  0  0  0  0
   38.4370   27.7520   44.6920 H   0  0  0  0  0  0  0  0  0  0  0  0
   36.5900   30.0380   41.1070 C   0  0  0  0  0  0  0  0  0  0  0  0
   36.0050   29.8350   39.7670 C   0  0  0  0  0  0  0  0  0  0  0  0
   36.8090   30.4550   38.6630 C   0  0  0  0  0  0  0  0  0  0  0  0
   37.0480   31.9370   38.8920 C   0  0  0  0  0  0  0  0  0  0  0  0
   37.3870   32.2770   40.3210 C   0  0  0  0  0  0  0  0  0  0  0  0
   37.7350   31.0410   41.1130 C   0  0  0  0  0  0  0  0  0  0  0  0
   35.8510   30.4600   41.8500 H   0  0  0  0  0  0  0  0  0  0  0  0
   35.8030   28.7880   39.4920 H   0  0  0  0  0  0  0  0  0  0  0  0
   35.0050   30.3400   39.7380 H   0  0  0  0  0  0  0  0  0  0  0  0
   36.2130   30.3840   37.7130 H   0  0  0  0  0  0  0  0  0  0  0  0
   37.7760   30.0120   38.4540 H   0  0  0  0  0  0  0  0  0  0  0  0
   36.1820   32.5470   38.5160 H   0  0  0  0  0  0  0  0  0  0  0  0
   37.9040   32.2540   38.2630 H   0  0  0  0  0  0  0  0  0  0  0  0
   36.4450   32.6920   40.7800 H   0  0  0  0  0  0  0  0  0  0  0  0
   38.1870   33.0070   40.4170 H   0  0  0  0  0  0  0  0  0  0  0  0
   37.8990   31.3380   42.1660 H   0  0  0  0  0  0  0  0  0  0  0  0
   38.6670   30.5720   40.7330 H   0  0  0  0  0  0  0  0  0  0  0  0
   40.2570   25.9830   40.3770 Cl  0  0  0  0  0  0  0  0  0  0  0  0
   38.8630   24.8960   40.2860 C   0  0  0  0  0  0  0  0  0  0  0  0
   37.6840   25.2640   40.9360 C   0  0  0  0  0  0  0  0  0  0  0  0
   36.5750   24.4390   40.8870 C   0  0  0  0  0  0  0  0  0  0  0  0
   35.7040   24.7740   41.4030 H   0  0  0  0  0  0  0  0  0  0  0  0
   36.6820   23.2520   40.1740 C   0  0  0  0  0  0  0  0  0  0  0  0
   35.8340   22.6110   40.1300 H   0  0  0  0  0  0  0  0  0  0  0  0
   37.8530   22.8840   39.5270 C   0  0  0  0  0  3  0  0  0  0  0  0
   38.9430   23.7240   39.5930 C   0  0  0  0  0  3  0  0  0  0  0  0
  1  2  1  0  0  0  0
  2  7  1  0  0  0  0
  2  3  2  0  0  0  0
  3  8  1  0  0  0  0
  4  3  1  0  0  0  0
  5  4  2  0  0  0  0
  6  5  1  0  0  0  0
  6  1  2  0  0  0  0
  9 14  1  0  0  0  0
  9  1  1  0  0  0  0
  9 15  1  0  0  0  0
 10  9  1  0  0  0  0
 11 12  1  0  0  0  0
 11 10  1  0  0  0  0
 12 13  1  0  0  0  0
 13 23  1  0  0  0  0
 13 22  1  0  0  0  0
 13 14  1  0  0  0  0
 14 24  1  0  0  0  0
 16 10  1  0  0  0  0
 17 10  1  0  0  0  0
 18 11  1  0  0  0  0
 19 11  1  0  0  0  0
 20 12  1  0  0  0  0
 21 12  1  0  0  0  0
 25 14  1  0  0  0  0
 27 26  1  0  0  0  0
 27 28  1  0  0  0  0
 28  5  1  0  0  0  0
 29 28  2  0  0  0  0
 29 30  1  0  0  0  0
 31 29  1  0  0  0  0
 32 31  1  0  0  0  0
 33 34  1  0  0  0  0
 33 31  2  0  0  0  0
 34 27  2  0  0  0  0
M  END
>  <minimizedAffinity>
-5.19702625

$$$$

 OpenBabel03242519233D

 34 36  0  0  0  0  0  0  0  0999 V2000
   39.4200   29.7240   40.7250 C   0  0  0  0  0  0  0  0  0  0  0  0
   40.3310   30.0730   41.7480 C   0  0  0  0  0  0  0  0  0  0  0  0
   40.6900   29.1190   42.7090 C   0  0  0  0  0  0  0  0  0  0  0  0
   40.1180   27.8770   42.5860 N   0  0  0  0  0  0  0  0  0  0  0  0
   39.2450   27.5710   41.5910 C   0  0  0  0  0  0  0  0  0  0  0  0
   38.9080   28.4870   40.6780 N   0  0  0  0  0  0  0  0  0  0  0  0
   40.8110   31.0020   41.9070 H   0  0  0  0  0  0  0  0  0  0  0  0
   41.3770   29.3130   43.5150 H   0  0  0  0  0  0  0  0  0  0  0  0
   39.0940   30.7910   39.7610 C   0  0  0  0  0  0  0  0  0  0  0  0
   39.4160   32.1410   40.2650 C   0  0  0  0  0  0  0  0  0  0  0  0
   38.2050   32.9780   40.5520 C   0  0  0  0  0  0  0  0  0  0  0  0
   37.2900   33.0930   39.3460 C   0  0  0  0  0  0  0  0  0  0  0  0
   37.1210   31.7970   38.5940 C   0  0  0  0  0  0  0  0  0  0  0  0
   37.6250   30.6250   39.3980 C   0  0  0  0  0  0  0  0  0  0  0  0
   39.6440   30.5360   38.8060 H   0  0  0  0  0  0  0  0  0  0  0  0
   40.0680   32.1710   41.1530 H   0  0  0  0  0  0  0  0  0  0  0  0
   39.9850   32.6890   39.4690 H   0  0  0  0  0  0  0  0  0  0  0  0
   38.5480   34.0230   40.7780 H   0  0  0  0  0  0  0  0  0  0  0  0
   37.5850   32.6690   41.3850 H   0  0  0  0  0  0  0  0  0  0  0  0
   37.6240   33.9240   38.6670 H   0  0  0  0  0  0  0  0  0  0  0  0
   36.2870   33.4070   39.6970 H   0  0  0  0  0  0  0  0  0  0  0  0
   37.7860   31.8670   37.6860 H   0  0  0  0  0  0  0  0  0  0  0  0
   36.0980   31.6070   38.2780 H   0  0  0  0  0  0  0  0  0  0  0  0
   37.5480   29.7150   38.7720 H   0  0  0  0  0  0  0  0  0  0  0  0
   37.0130   30.4730   40.3120 H   0  0  0  0  0  0  0  0  0  0  0  0
   36.6820   27.2890   43.0580 Cl  0  0  0  0  0  0  0  0  0  0  0  0
   37.4580   25.9770   42.1580 C   0  0  0  0  0  0  0  0  0  0  0  0
   38.6660   26.2330   41.5080 C   0  0  0  0  0  0  0  0  0  0  0  0
   39.2990   25.2320   40.7950 C   0  0  0  0  0  0  0  0  0  0  0  0
   40.2190   25.4880   40.3200 H   0  0  0  0  0  0  0  0  0  0  0  0
   38.6950   23.9820   40.7570 C   0  0  0  0  0  0  0  0  0  0  0  0
   39.1740   23.2050   40.2120 H   0  0  0  0  0  0  0  0  0  0  0  0
   37.4930   23.7240   41.4030 C   0  0  0  0  0  3  0  0  0  0  0  0
   36.8830   24.7410   42.1050 C   0  0  0  0  0  3  0  0  0  0  0  0
  1  2  1  0  0  0  0
  2  7  1  0  0  0  0
  2  3  2  0  0  0  0
  3  8  1  0  0  0  0
  4  3  1  0  0  0  0
  5  4  2  0  0  0  0
  6  1  2  0  0  0  0
  6  5  1  0  0  0  0
  9 10  1  0  0  0  0
  9  1  1  0  0  0  0
 10 11  1  0  0  0  0
 10 16  1  0  0  0  0
 11 18  1  0  0  0  0
 11 19  1  0  0  0  0
 12 21  1  0  0  0  0
 12 11  1  0  0  0  0
 13 12  1  0  0  0  0
 13 14  1  0  0  0  0
 14  9  1  0  0  0  0
 14 25  1  0  0  0  0
 15  9  1  0  0  0  0
 17 10  1  0  0  0  0
 20 12  1  0  0  0  0
 22 13  1  0  0  0  0
 23 13  1  0  0  0  0
 24 14  1  0  0  0  0
 27 26  1  0  0  0  0
 28  5  1  0  0  0  0
 28 27  2  0  0  0  0
 29 28  1  0  0  0  0
 30 29  1  0  0  0  0
 31 29  2  0  0  0  0
 31 33  1  0  0  0  0
 32 31  1  0  0  0  0
 33 34  2  0  0  0  0
 34 27  1  0  0  0  0
M  END
>  <minimizedAffinity>
-5.1452961

$$$$

 OpenBabel03242519233D

 34 36  0  0  0  0  0  0  0  0999 V2000
   36.6190   29.0630   39.3630 C   0  0  0  0  0  0  0  0  0  0  0  0
   35.9930   30.2520   39.8000 C   0  0  0  0  0  0  0  0  0  0  0  0
   36.3500   30.8090   41.0350 C   0  0  0  0  0  0  0  0  0  0  0  0
   37.3090   30.1410   41.7550 N   0  0  0  0  0  0  0  0  0  0  0  0
   37.8940   28.9990   41.3090 C   0  0  0  0  0  0  0  0  0  0  0  0
   37.5480   28.4760   40.1290 N   0  0  0  0  0  0  0  0  0  0  0  0
   35.2510   30.8210   39.3050 H   0  0  0  0  0  0  0  0  0  0  0  0
   35.9160   31.7100   41.4320 H   0  0  0  0  0  0  0  0  0  0  0  0
   36.1790   28.5460   38.0540 C   0  0  0  0  0  0  0  0  0  0  0  0
   34.9970   29.2540   37.5240 C   0  0  0  0  0  0  0  0  0  0  0  0
   33.7550   28.4130   37.5010 C   0  0  0  0  0  0  0  0  0  0  0  0
   33.9550   27.1170   36.7360 C   0  0  0  0  0  0  0  0  0  0  0  0
   35.2810   26.4550   37.0110 C   0  0  0  0  0  0  0  0  0  0  0  0
   35.9520   27.0510   38.2240 C   0  0  0  0  0  0  0  0  0  0  0  0
   37.0750   28.6120   37.3680 H   0  0  0  0  0  0  0  0  0  0  0  0
   34.7530   30.2060   38.0210 H   0  0  0  0  0  0  0  0  0  0  0  0
   35.1990   29.5290   36.4560 H   0  0  0  0  0  0  0  0  0  0  0  0
   32.9590   28.9780   36.9460 H   0  0  0  0  0  0  0  0  0  0  0  0
   33.3300   28.1440   38.4620 H   0  0  0  0  0  0  0  0  0  0  0  0
   33.7930   27.2720   35.6340 H   0  0  0  0  0  0  0  0  0  0  0  0
   33.1600   26.4060   37.0360 H   0  0  0  0  0  0  0  0  0  0  0  0
   35.9460   26.6960   36.1330 H   0  0  0  0  0  0  0  0  0  0  0  0
   35.2140   25.3760   37.1280 H   0  0  0  0  0  0  0  0  0  0  0  0
   36.9490   26.5830   38.3340 H   0  0  0  0  0  0  0  0  0  0  0  0
   35.3670   26.8470   39.1450 H   0  0  0  0  0  0  0  0  0  0  0  0
   36.8450   26.7290   42.9040 Cl  0  0  0  0  0  0  0  0  0  0  0  0
   38.5380   27.2450   42.9110 C   0  0  0  0  0  0  0  0  0  0  0  0
   38.9110   28.3300   42.1160 C   0  0  0  0  0  0  0  0  0  0  0  0
   40.2250   28.7610   42.0970 C   0  0  0  0  0  0  0  0  0  0  0  0
   40.4480   29.5940   41.4700 H   0  0  0  0  0  0  0  0  0  0  0  0
   41.1410   28.0800   42.8880 C   0  0  0  0  0  0  0  0  0  0  0  0
   42.1540   28.4040   42.8800 H   0  0  0  0  0  0  0  0  0  0  0  0
   40.7730   27.0010   43.6790 C   0  0  0  0  0  3  0  0  0  0  0  0
   39.4570   26.5930   43.6790 C   0  0  0  0  0  3  0  0  0  0  0  0
  1  2  2  0  0  0  0
  1  6  1  0  0  0  0
  2  3  1  0  0  0  0
  3  8  1  0  0  0  0
  3  4  2  0  0  0  0
  5  4  1  0  0  0  0
  5 28  1  0  0  0  0
  6  5  2  0  0  0  0
  7  2  1  0  0  0  0
  9 14  1  0  0  0  0
  9  1  1  0  0  0  0
 10 16  1  0  0  0  0
 10  9  1  0  0  0  0
 11 10  1  0  0  0  0
 11 19  1  0  0  0  0
 12 13  1  0  0  0  0
 12 21  1  0  0  0  0
 12 11  1  0  0  0  0
 13 23  1  0  0  0  0
 13 14  1  0  0  0  0
 14 24  1  0  0  0  0
 14 25  1  0  0  0  0
 15  9  1  0  0  0  0
 17 10  1  0  0  0  0
 18 11  1  0  0  0  0
 20 12  1  0  0  0  0
 22 13  1  0  0  0  0
 26 27  1  0  0  0  0
 27 34  1  0  0  0  0
 28 27  2  0  0  0  0
 29 28  1  0  0  0  0
 29 31  2  0  0  0  0
 30 29  1  0  0  0  0
 31 33  1  0  0  0  0
 32 31  1  0  0  0  0
 33 34  2  0  0  0  0
M  END
>  <minimizedAffinity>
-5.12122345

$$$$
