
     RDKit          3D

 40 44  0  0  0  0  0  0  0  0999 V2000
   47.2673   31.3900   45.1498 C   0  0  0  0  0  0  0  0  0  0  0  0
   46.8711   32.7282   45.1334 C   0  0  0  0  0  0  0  0  0  0  0  0
   46.2359   33.3268   46.2052 C   0  0  0  0  0  0  0  0  0  0  0  0
   45.9670   32.5961   47.3576 C   0  0  0  0  0  0  0  0  0  0  0  0
   45.3810   32.8521   48.5567 N   0  0  0  0  0  0  0  0  0  0  0  0
   45.4123   31.7066   49.2964 C   0  0  0  0  0  0  0  0  0  0  0  0
   46.0204   30.7617   48.5344 N   0  0  0  0  0  0  0  0  0  0  0  0
   46.3661   31.2860   47.3475 C   0  0  0  0  0  0  0  0  0  0  0  0
   46.9936   30.6522   46.3188 C   0  0  0  0  0  0  0  0  0  0  0  0
   46.4730   35.1790   42.4322 C   0  0  0  0  0  0  0  0  0  0  0  0
   47.6562   35.0112   41.6996 C   0  0  0  0  0  0  0  0  0  0  0  0
   48.5815   34.0611   42.1348 C   0  0  0  0  0  0  0  0  0  0  0  0
   48.2858   33.3372   43.2607 N   0  0  0  0  0  0  0  0  0  0  0  0
   47.1357   33.5220   43.9461 C   0  0  0  0  0  0  0  0  0  0  0  0
   46.2432   34.4327   43.5333 N   0  0  0  0  0  0  0  0  0  0  0  0
   47.3836   29.2433   46.4003 C   0  0  0  0  0  0  0  0  0  0  0  0
   48.6732   28.7945   46.6157 C   0  0  0  0  0  0  0  0  0  0  0  0
   48.5386   27.3936   46.6118 C   0  0  0  0  0  0  0  0  0  0  0  0
   47.2122   27.0905   46.4001 C   0  0  0  0  0  0  0  0  0  0  0  0
   46.5733   28.2322   46.2816 O   0  0  0  0  0  0  0  0  0  0  0  0
   47.7606   30.9306   44.3138 H   0  0  0  0  0  0  0  0  0  0  0  0
   45.9320   34.3748   46.1771 H   0  0  0  0  0  0  0  0  0  0  0  0
   44.9917   33.7640   48.8266 H   0  0  0  0  0  0  0  0  0  0  0  0
   45.0346   31.5654   50.2867 H   0  0  0  0  0  0  0  0  0  0  0  0
   45.7021   35.8990   42.1578 H   0  0  0  0  0  0  0  0  0  0  0  0
   47.8187   35.6114   40.8318 H   0  0  0  0  0  0  0  0  0  0  0  0
   49.5071   33.9026   41.5951 H   0  0  0  0  0  0  0  0  0  0  0  0
   49.5868   29.3275   46.7573 H   0  0  0  0  0  0  0  0  0  0  0  0
   49.3233   26.6406   46.7490 H   0  0  0  0  0  0  0  0  0  0  0  0
   47.1444   25.9108   43.6520 Cl  0  0  0  0  0  0  0  0  0  0  0  0
   46.5455   25.1197   45.0989 C   0  0  0  0  0  0  0  0  0  0  0  0
   46.6260   25.7570   46.3220 C   0  0  0  0  0  0  0  0  0  0  0  0
   46.1610   25.1528   47.4718 C   0  0  0  0  0  0  0  0  0  0  0  0
   46.2203   25.6430   48.4287 H   0  0  0  0  0  0  0  0  0  0  0  0
   45.6036   23.8914   47.4157 C   0  0  0  0  0  0  0  0  0  0  0  0
   45.2387   23.4171   48.3174 H   0  0  0  0  0  0  0  0  0  0  0  0
   45.5364   23.2799   46.1809 C   0  0  0  0  0  0  0  0  0  0  0  0
   45.9909   23.8492   45.0011 C   0  0  0  0  0  0  0  0  0  0  0  0
   45.1008   22.3027   46.1604 H   0  0  0  0  0  0  0  0  0  0  0  0
   45.9080   23.3097   44.0530 H   0  0  0  0  0  0  0  0  0  0  0  0
  1  9  2  0
  2  1  1  0
  2  3  2  0
  3  4  1  0
  4  5  1  0
  5  6  1  0
  7  6  2  0
  8  4  2  0
  8  7  1  0
  9 16  1  0
  9  8  1  0
 10 15  2  0
 11 12  2  0
 11 10  1  0
 12 13  1  0
 13 14  2  0
 14  2  1  0
 15 14  1  0
 16 17  2  0
 17 18  1  0
 19 18  2  0
 20 16  1  0
 20 19  1  0
  1 21  1  0
  3 22  1  0
  5 23  1  0
  6 24  1  0
 10 25  1  0
 11 26  1  0
 12 27  1  0
 17 28  1  0
 18 29  1  0
 30 31  1  0
 31 32  2  0
 32 33  1  0
 33 34  1  0
 33 35  2  0
 35 36  1  0
 35 37  1  0
 37 38  2  0
 38 31  1  0
 37 39  1  0
 38 40  1  0
 19 32  1  0
M  ISO  8  21  14  22  14  23   9  24  14  25  14  26  14  27  14  28  14
M  ISO  3  29  14  34  15  36  16
M  END
>  <DihAtoms>  (1) 
17,18,31,30

>  <DihDeg>  (1) 
179.99958251210373

$$$$
