
 OpenBabel03252502543D

 31 33  0  0  0  0  0  0  0  0999 V2000
   39.4230   27.1010   39.8640 Br  0  0  0  0  0  0  0  0  0  0  0  0
   38.3860   27.5020   41.4490 C   0  0  0  0  0  0  0  0  0  0  0  0
   38.5490   28.7680   41.9490 C   0  0  0  0  0  0  0  0  0  0  0  0
   37.7910   29.0360   43.0930 C   0  0  0  0  0  0  0  0  0  0  0  0
   36.9490   28.1170   43.6780 C   0  0  0  0  0  0  0  0  0  0  0  0
   36.8430   26.8700   43.1130 C   0  0  0  0  0  0  0  0  0  0  0  0
   37.5600   26.5360   41.9870 C   0  0  0  0  0  0  0  0  0  0  0  0
   37.8710   30.0250   43.5460 H   0  0  0  0  0  0  0  0  0  0  0  0
   36.3870   28.3800   44.5620 H   0  0  0  0  0  0  0  0  0  0  0  0
   36.2060   26.1090   43.5180 H   0  0  0  0  0  0  0  0  0  0  0  0
   39.5150   24.4200   42.9130 Cl  0  0  0  0  0  0  0  0  0  0  0  0
   38.3560   24.1940   41.6250 C   0  0  0  0  0  0  0  0  0  0  0  0
   37.5230   25.2360   41.3010 C   0  0  0  0  0  0  0  0  0  0  0  0
   36.5790   25.1330   40.2920 C   0  0  0  0  0  0  0  0  0  0  0  0
   35.9230   25.9600   40.0380 H   0  0  0  0  0  0  0  0  0  0  0  0
   36.4720   23.9370   39.5870 C   0  0  0  0  0  0  0  0  0  0  0  0
   35.7370   23.8160   38.7810 H   0  0  0  0  0  0  0  0  0  0  0  0
   37.3150   22.8730   39.9110 C   0  0  0  0  0  3  0  0  0  0  0  0
   38.2360   23.0090   40.9130 C   0  0  0  0  0  3  0  0  0  0  0  0
   39.4110   29.8390   41.4240 C   0  0  0  0  0  0  0  0  0  0  0  0
   40.0590   30.3020   42.1860 H   0  0  0  0  0  0  0  0  0  0  0  0
   40.0880   29.3890   40.6630 H   0  0  0  0  0  0  0  0  0  0  0  0
   37.0250   31.7080   39.2540 C   0  0  0  0  0  0  0  0  0  0  0  0
   37.3430   33.0370   39.5450 C   0  0  0  0  0  0  0  0  0  0  0  0
   38.3500   33.2630   40.4610 C   0  0  0  0  0  0  0  0  0  0  0  0
   38.9870   32.2100   41.0390 N   0  0  0  0  0  0  0  0  0  0  0  0
   38.6460   30.9170   40.7280 C   0  0  0  0  0  0  0  0  0  0  0  0
   37.6710   30.7060   39.8410 N   0  0  0  0  0  0  0  0  0  0  0  0
   36.2310   31.5460   38.5330 H   0  0  0  0  0  0  0  0  0  0  0  0
   36.8620   33.9010   39.1080 H   0  0  0  0  0  0  0  0  0  0  0  0
   38.7070   34.2390   40.7860 H   0  0  0  0  0  0  0  0  0  0  0  0
  1  2  1  0  0  0  0
  2  3  2  0  0  0  0
  2  7  1  0  0  0  0
  3  4  1  0  0  0  0
  4  8  1  0  0  0  0
  4  5  2  0  0  0  0
  5  9  1  0  0  0  0
  6 10  1  0  0  0  0
  6  5  1  0  0  0  0
  7  6  2  0  0  0  0
 12 11  1  0  0  0  0
 13 12  1  0  0  0  0
 13  7  1  0  0  0  0
 14 13  2  0  0  0  0
 15 14  1  0  0  0  0
 16 18  2  0  0  0  0
 16 14  1  0  0  0  0
 17 16  1  0  0  0  0
 18 19  1  0  0  0  0
 19 12  2  0  0  0  0
 20  3  1  0  0  0  0
 20 21  1  0  0  0  0
 22 20  1  0  0  0  0
 23 24  2  0  0  0  0
 23 28  1  0  0  0  0
 24 25  1  0  0  0  0
 25 31  1  0  0  0  0
 25 26  2  0  0  0  0
 27 26  1  0  0  0  0
 27 20  1  0  0  0  0
 28 27  2  0  0  0  0
 29 23  1  0  0  0  0
 30 24  1  0  0  0  0
M  END
>  <minimizedAffinity>
-5.79409075

$$$$

 OpenBabel03252502543D

 31 33  0  0  0  0  0  0  0  0999 V2000
   36.3040   26.5420   39.0240 Br  0  0  0  0  0  0  0  0  0  0  0  0
   36.9110   26.9420   40.8190 C   0  0  0  0  0  0  0  0  0  0  0  0
   36.4310   28.1100   41.3510 C   0  0  0  0  0  0  0  0  0  0  0  0
   36.8830   28.3790   42.6470 C   0  0  0  0  0  0  0  0  0  0  0  0
   37.7350   27.5500   43.3420 C   0  0  0  0  0  0  0  0  0  0  0  0
   38.1690   26.3970   42.7350 C   0  0  0  0  0  0  0  0  0  0  0  0
   37.7660   26.0690   41.4600 C   0  0  0  0  0  0  0  0  0  0  0  0
   36.5410   29.2940   43.1340 H   0  0  0  0  0  0  0  0  0  0  0  0
   38.0510   27.8080   44.3410 H   0  0  0  0  0  0  0  0  0  0  0  0
   38.8320   25.7080   43.2190 H   0  0  0  0  0  0  0  0  0  0  0  0
   40.1730   26.2930   39.6400 Cl  0  0  0  0  0  0  0  0  0  0  0  0
   39.2380   24.8340   39.8610 C   0  0  0  0  0  0  0  0  0  0  0  0
   38.1670   24.8640   40.7180 C   0  0  0  0  0  0  0  0  0  0  0  0
   37.3780   23.7480   40.9450 C   0  0  0  0  0  0  0  0  0  0  0  0
   36.5310   23.7760   41.6230 H   0  0  0  0  0  0  0  0  0  0  0  0
   37.6830   22.5610   40.2840 C   0  0  0  0  0  0  0  0  0  0  0  0
   37.0830   21.6550   40.4370 H   0  0  0  0  0  0  0  0  0  0  0  0
   38.7720   22.5220   39.4110 C   0  0  0  0  0  3  0  0  0  0  0  0
   39.5290   23.6430   39.2110 C   0  0  0  0  0  3  0  0  0  0  0  0
   35.5220   29.0800   40.7210 C   0  0  0  0  0  0  0  0  0  0  0  0
   34.8640   28.6400   39.9550 H   0  0  0  0  0  0  0  0  0  0  0  0
   34.8570   29.4890   41.5150 H   0  0  0  0  0  0  0  0  0  0  0  0
   37.2680   32.3350   40.2150 C   0  0  0  0  0  0  0  0  0  0  0  0
   37.5480   32.3080   38.8460 C   0  0  0  0  0  0  0  0  0  0  0  0
   37.1400   31.1970   38.1360 C   0  0  0  0  0  0  0  0  0  0  0  0
   36.4930   30.1860   38.7760 N   0  0  0  0  0  0  0  0  0  0  0  0
   36.2370   30.2480   40.1240 C   0  0  0  0  0  0  0  0  0  0  0  0
   36.6340   31.3260   40.8040 N   0  0  0  0  0  0  0  0  0  0  0  0
   37.5950   33.2140   40.7600 H   0  0  0  0  0  0  0  0  0  0  0  0
   38.0580   33.0900   38.3010 H   0  0  0  0  0  0  0  0  0  0  0  0
   37.2870   31.0360   37.0700 H   0  0  0  0  0  0  0  0  0  0  0  0
  1  2  1  0  0  0  0
  2  3  2  0  0  0  0
  2  7  1  0  0  0  0
  3  4  1  0  0  0  0
  4  8  1  0  0  0  0
  4  5  2  0  0  0  0
  5  9  1  0  0  0  0
  6 10  1  0  0  0  0
  6  5  1  0  0  0  0
  7  6  2  0  0  0  0
 11 12  1  0  0  0  0
 12 13  1  0  0  0  0
 13 14  2  0  0  0  0
 13  7  1  0  0  0  0
 14 15  1  0  0  0  0
 16 17  1  0  0  0  0
 16 14  1  0  0  0  0
 18 16  2  0  0  0  0
 19 18  1  0  0  0  0
 19 12  2  0  0  0  0
 20  3  1  0  0  0  0
 20 22  1  0  0  0  0
 21 20  1  0  0  0  0
 23 29  1  0  0  0  0
 23 28  1  0  0  0  0
 24 23  2  0  0  0  0
 25 26  2  0  0  0  0
 25 24  1  0  0  0  0
 26 27  1  0  0  0  0
 27 20  1  0  0  0  0
 27 28  2  0  0  0  0
 30 24  1  0  0  0  0
 31 25  1  0  0  0  0
M  END
>  <minimizedAffinity>
-5.60268068

$$$$

 OpenBabel03252502543D

 31 33  0  0  0  0  0  0  0  0999 V2000
   39.3230   30.3460   42.5480 Br  0  0  0  0  0  0  0  0  0  0  0  0
   37.7640   30.0330   41.4420 C   0  0  0  0  0  0  0  0  0  0  0  0
   36.9530   29.0080   41.8540 C   0  0  0  0  0  0  0  0  0  0  0  0
   35.8340   28.8000   41.0400 C   0  0  0  0  0  0  0  0  0  0  0  0
   35.5580   29.5530   39.9210 C   0  0  0  0  0  0  0  0  0  0  0  0
   36.4240   30.5630   39.5790 C   0  0  0  0  0  0  0  0  0  0  0  0
   37.5460   30.8240   40.3330 C   0  0  0  0  0  0  0  0  0  0  0  0
   35.1420   27.9990   41.3070 H   0  0  0  0  0  0  0  0  0  0  0  0
   34.6780   29.3470   39.3300 H   0  0  0  0  0  0  0  0  0  0  0  0
   36.2680   31.1860   38.7210 H   0  0  0  0  0  0  0  0  0  0  0  0
   39.9200   30.0860   38.6080 Cl  0  0  0  0  0  0  0  0  0  0  0  0
   39.6560   31.6710   39.2940 C   0  0  0  0  0  0  0  0  0  0  0  0
   38.5360   31.8760   40.0600 C   0  0  0  0  0  0  0  0  0  0  0  0
   38.2580   33.1050   40.6380 C   0  0  0  0  0  0  0  0  0  0  0  0
   37.3710   33.2630   41.2440 H   0  0  0  0  0  0  0  0  0  0  0  0
   39.1410   34.1610   40.4330 C   0  0  0  0  0  0  0  0  0  0  0  0
   38.9560   35.1500   40.8740 H   0  0  0  0  0  0  0  0  0  0  0  0
   40.2820   33.9600   39.6550 C   0  0  0  0  0  3  0  0  0  0  0  0
   40.5250   32.7340   39.1000 C   0  0  0  0  0  3  0  0  0  0  0  0
   37.1310   28.1310   43.0220 C   0  0  0  0  0  0  0  0  0  0  0  0
   37.6870   28.6000   43.8490 H   0  0  0  0  0  0  0  0  0  0  0  0
   36.1200   27.8830   43.4180 H   0  0  0  0  0  0  0  0  0  0  0  0
   39.6260   25.4650   42.2690 C   0  0  0  0  0  0  0  0  0  0  0  0
   38.8090   24.3530   42.0460 C   0  0  0  0  0  0  0  0  0  0  0  0
   37.4450   24.5350   42.1550 C   0  0  0  0  0  0  0  0  0  0  0  0
   36.9500   25.7630   42.4690 N   0  0  0  0  0  0  0  0  0  0  0  0
   37.7850   26.8320   42.6820 C   0  0  0  0  0  0  0  0  0  0  0  0
   39.1020   26.6480   42.5740 N   0  0  0  0  0  0  0  0  0  0  0  0
   40.6950   25.3060   42.1800 H   0  0  0  0  0  0  0  0  0  0  0  0
   39.1620   23.3630   41.7940 H   0  0  0  0  0  0  0  0  0  0  0  0
   36.6880   23.7670   42.0100 H   0  0  0  0  0  0  0  0  0  0  0  0
  2  3  1  0  0  0  0
  2  1  1  0  0  0  0
  3 20  1  0  0  0  0
  4  8  1  0  0  0  0
  4  3  2  0  0  0  0
  5  4  1  0  0  0  0
  6  5  2  0  0  0  0
  6  7  1  0  0  0  0
  7  2  2  0  0  0  0
  9  5  1  0  0  0  0
 10  6  1  0  0  0  0
 11 12  1  0  0  0  0
 12 13  1  0  0  0  0
 13  7  1  0  0  0  0
 13 14  2  0  0  0  0
 14 15  1  0  0  0  0
 16 14  1  0  0  0  0
 16 17  1  0  0  0  0
 18 16  2  0  0  0  0
 19 12  2  0  0  0  0
 19 18  1  0  0  0  0
 20 22  1  0  0  0  0
 20 21  1  0  0  0  0
 23 28  1  0  0  0  0
 24 25  1  0  0  0  0
 24 23  2  0  0  0  0
 25 26  2  0  0  0  0
 26 27  1  0  0  0  0
 27 20  1  0  0  0  0
 28 27  2  0  0  0  0
 29 23  1  0  0  0  0
 30 24  1  0  0  0  0
 31 25  1  0  0  0  0
M  END
>  <minimizedAffinity>
-5.59699535

$$$$

 OpenBabel03252502543D

 31 33  0  0  0  0  0  0  0  0999 V2000
   39.6900   28.1130   42.0400 Br  0  0  0  0  0  0  0  0  0  0  0  0
   38.1420   29.0780   41.3920 C   0  0  0  0  0  0  0  0  0  0  0  0
   38.2730   30.4420   41.3670 C   0  0  0  0  0  0  0  0  0  0  0  0
   37.1430   31.1190   40.8950 C   0  0  0  0  0  0  0  0  0  0  0  0
   35.9920   30.4830   40.4860 C   0  0  0  0  0  0  0  0  0  0  0  0
   35.9450   29.1110   40.5430 C   0  0  0  0  0  0  0  0  0  0  0  0
   37.0180   28.3800   40.9970 C   0  0  0  0  0  0  0  0  0  0  0  0
   37.1750   32.2090   40.8480 H   0  0  0  0  0  0  0  0  0  0  0  0
   35.1500   31.0570   40.1310 H   0  0  0  0  0  0  0  0  0  0  0  0
   35.0800   28.5550   40.2400 H   0  0  0  0  0  0  0  0  0  0  0  0
   36.3590   27.1450   43.6800 Cl  0  0  0  0  0  0  0  0  0  0  0  0
   36.8010   26.2320   42.2570 C   0  0  0  0  0  0  0  0  0  0  0  0
   37.0760   26.9140   41.0990 C   0  0  0  0  0  0  0  0  0  0  0  0
   37.4330   26.2610   39.9300 C   0  0  0  0  0  0  0  0  0  0  0  0
   37.6520   26.8040   39.0160 H   0  0  0  0  0  0  0  0  0  0  0  0
   37.5140   24.8710   39.9330 C   0  0  0  0  0  0  0  0  0  0  0  0
   37.7930   24.3160   39.0280 H   0  0  0  0  0  0  0  0  0  0  0  0
   37.2340   24.1700   41.1070 C   0  0  0  0  0  3  0  0  0  0  0  0
   36.8850   24.8470   42.2420 C   0  0  0  0  0  3  0  0  0  0  0  0
   39.4380   31.2430   41.7730 C   0  0  0  0  0  0  0  0  0  0  0  0
   39.2360   31.9300   42.6100 H   0  0  0  0  0  0  0  0  0  0  0  0
   40.2280   30.5400   42.1230 H   0  0  0  0  0  0  0  0  0  0  0  0
   40.5010   33.9870   39.4840 C   0  0  0  0  0  0  0  0  0  0  0  0
   41.1970   33.2900   38.4930 C   0  0  0  0  0  0  0  0  0  0  0  0
   41.2860   31.9190   38.6250 C   0  0  0  0  0  0  0  0  0  0  0  0
   40.7070   31.3030   39.6920 N   0  0  0  0  0  0  0  0  0  0  0  0
   40.0320   32.0230   40.6460 C   0  0  0  0  0  0  0  0  0  0  0  0
   39.9500   33.3480   40.5120 N   0  0  0  0  0  0  0  0  0  0  0  0
   40.4400   35.0640   39.3670 H   0  0  0  0  0  0  0  0  0  0  0  0
   41.6690   33.7410   37.6320 H   0  0  0  0  0  0  0  0  0  0  0  0
   41.7920   31.2460   37.9360 H   0  0  0  0  0  0  0  0  0  0  0  0
  2  1  1  0  0  0  0
  3  2  1  0  0  0  0
  3 20  1  0  0  0  0
  4  3  2  0  0  0  0
  5  6  2  0  0  0  0
  5  4  1  0  0  0  0
  6  7  1  0  0  0  0
  7 13  1  0  0  0  0
  7  2  2  0  0  0  0
  8  4  1  0  0  0  0
  9  5  1  0  0  0  0
 10  6  1  0  0  0  0
 12 11  1  0  0  0  0
 13 12  2  0  0  0  0
 14 16  2  0  0  0  0
 14 13  1  0  0  0  0
 15 14  1  0  0  0  0
 16 18  1  0  0  0  0
 17 16  1  0  0  0  0
 18 19  2  0  0  0  0
 19 12  1  0  0  0  0
 20 22  1  0  0  0  0
 20 21  1  0  0  0  0
 23 28  1  0  0  0  0
 24 25  1  0  0  0  0
 24 23  2  0  0  0  0
 25 26  2  0  0  0  0
 26 27  1  0  0  0  0
 27 20  1  0  0  0  0
 28 27  2  0  0  0  0
 29 23  1  0  0  0  0
 30 24  1  0  0  0  0
 31 25  1  0  0  0  0
M  END
>  <minimizedAffinity>
-5.48346567

$$$$

 OpenBabel03252502543D

 31 33  0  0  0  0  0  0  0  0999 V2000
   39.8710   26.8380   40.2750 Br  0  0  0  0  0  0  0  0  0  0  0  0
   38.6580   27.3790   41.6840 C   0  0  0  0  0  0  0  0  0  0  0  0
   38.9990   28.5360   42.3350 C   0  0  0  0  0  0  0  0  0  0  0  0
   38.1090   28.9080   43.3490 C   0  0  0  0  0  0  0  0  0  0  0  0
   36.9840   28.1850   43.6740 C   0  0  0  0  0  0  0  0  0  0  0  0
   36.7150   27.0360   42.9700 C   0  0  0  0  0  0  0  0  0  0  0  0
   37.5470   26.6090   41.9610 C   0  0  0  0  0  0  0  0  0  0  0  0
   38.3180   29.8200   43.9100 H   0  0  0  0  0  0  0  0  0  0  0  0
   36.3320   28.5200   44.4660 H   0  0  0  0  0  0  0  0  0  0  0  0
   35.8560   26.4270   43.1720 H   0  0  0  0  0  0  0  0  0  0  0  0
   36.1160   26.9280   39.3140 Cl  0  0  0  0  0  0  0  0  0  0  0  0
   36.7230   25.4090   39.9280 C   0  0  0  0  0  0  0  0  0  0  0  0
   37.3550   25.4000   41.1460 C   0  0  0  0  0  0  0  0  0  0  0  0
   37.8630   24.2360   41.6990 C   0  0  0  0  0  0  0  0  0  0  0  0
   38.3620   24.2320   42.6630 H   0  0  0  0  0  0  0  0  0  0  0  0
   37.7270   23.0410   40.9970 C   0  0  0  0  0  0  0  0  0  0  0  0
   38.1160   22.0970   41.4010 H   0  0  0  0  0  0  0  0  0  0  0  0
   37.0860   23.0430   39.7570 C   0  0  0  0  0  3  0  0  0  0  0  0
   36.5960   24.2110   39.2410 C   0  0  0  0  0  3  0  0  0  0  0  0
   40.1650   29.3980   42.0890 C   0  0  0  0  0  0  0  0  0  0  0  0
   40.6760   29.7290   43.0070 H   0  0  0  0  0  0  0  0  0  0  0  0
   40.9090   28.8070   41.5070 H   0  0  0  0  0  0  0  0  0  0  0  0
   39.3020   32.8480   40.9680 C   0  0  0  0  0  0  0  0  0  0  0  0
   39.2570   32.7020   39.5800 C   0  0  0  0  0  0  0  0  0  0  0  0
   39.5170   31.4490   39.0630 C   0  0  0  0  0  0  0  0  0  0  0  0
   39.8030   30.4180   39.9030 N   0  0  0  0  0  0  0  0  0  0  0  0
   39.8390   30.6000   41.2640 C   0  0  0  0  0  0  0  0  0  0  0  0
   39.5860   31.8150   41.7550 N   0  0  0  0  0  0  0  0  0  0  0  0
   39.0960   33.8380   41.3590 H   0  0  0  0  0  0  0  0  0  0  0  0
   39.0330   33.4950   38.8790 H   0  0  0  0  0  0  0  0  0  0  0  0
   39.5170   31.1840   38.0080 H   0  0  0  0  0  0  0  0  0  0  0  0
  1  2  1  0  0  0  0
  2  7  2  0  0  0  0
  2  3  1  0  0  0  0
  3  4  2  0  0  0  0
  4  5  1  0  0  0  0
  4  8  1  0  0  0  0
  5  9  1  0  0  0  0
  6 10  1  0  0  0  0
  6  5  2  0  0  0  0
  7  6  1  0  0  0  0
 11 12  1  0  0  0  0
 12 13  1  0  0  0  0
 13 14  2  0  0  0  0
 13  7  1  0  0  0  0
 14 15  1  0  0  0  0
 16 17  1  0  0  0  0
 16 14  1  0  0  0  0
 18 16  2  0  0  0  0
 19 18  1  0  0  0  0
 19 12  2  0  0  0  0
 20  3  1  0  0  0  0
 20 21  1  0  0  0  0
 22 20  1  0  0  0  0
 23 29  1  0  0  0  0
 23 28  1  0  0  0  0
 24 23  2  0  0  0  0
 25 24  1  0  0  0  0
 25 26  2  0  0  0  0
 26 27  1  0  0  0  0
 27 28  2  0  0  0  0
 27 20  1  0  0  0  0
 30 24  1  0  0  0  0
 31 25  1  0  0  0  0
M  END
>  <minimizedAffinity>
-5.36144638

$$$$

 OpenBabel03252502543D

 31 33  0  0  0  0  0  0  0  0999 V2000
   39.7330   28.7280   39.7270 Br  0  0  0  0  0  0  0  0  0  0  0  0
   37.8210   28.9590   39.9270 C   0  0  0  0  0  0  0  0  0  0  0  0
   37.2590   29.9040   39.1090 C   0  0  0  0  0  0  0  0  0  0  0  0
   35.8770   30.0540   39.2700 C   0  0  0  0  0  0  0  0  0  0  0  0
   35.1330   29.3210   40.1680 C   0  0  0  0  0  0  0  0  0  0  0  0
   35.7760   28.3930   40.9500 C   0  0  0  0  0  0  0  0  0  0  0  0
   37.1340   28.1930   40.8460 C   0  0  0  0  0  0  0  0  0  0  0  0
   35.3610   30.7900   38.6510 H   0  0  0  0  0  0  0  0  0  0  0  0
   34.0690   29.4790   40.2490 H   0  0  0  0  0  0  0  0  0  0  0  0
   35.2570   27.7900   41.6680 H   0  0  0  0  0  0  0  0  0  0  0  0
   38.3570   29.1750   43.4330 Cl  0  0  0  0  0  0  0  0  0  0  0  0
   38.5270   27.5480   42.8190 C   0  0  0  0  0  0  0  0  0  0  0  0
   37.9210   27.2290   41.6300 C   0  0  0  0  0  0  0  0  0  0  0  0
   38.0100   25.9610   41.0780 C   0  0  0  0  0  0  0  0  0  0  0  0
   37.5300   25.7130   40.1370 H   0  0  0  0  0  0  0  0  0  0  0  0
   38.7370   24.9830   41.7520 C   0  0  0  0  0  0  0  0  0  0  0  0
   38.8310   23.9660   41.3490 H   0  0  0  0  0  0  0  0  0  0  0  0
   39.3560   25.3000   42.9630 C   0  0  0  0  0  3  0  0  0  0  0  0
   39.2460   26.5620   43.4780 C   0  0  0  0  0  3  0  0  0  0  0  0
   37.9340   30.7510   38.1130 C   0  0  0  0  0  0  0  0  0  0  0  0
   38.6570   30.2070   37.4840 H   0  0  0  0  0  0  0  0  0  0  0  0
   37.1560   31.1550   37.4270 H   0  0  0  0  0  0  0  0  0  0  0  0
   40.4710   33.2830   39.1390 C   0  0  0  0  0  0  0  0  0  0  0  0
   39.7110   34.1610   39.9170 C   0  0  0  0  0  0  0  0  0  0  0  0
   38.3700   33.8730   40.0720 C   0  0  0  0  0  0  0  0  0  0  0  0
   37.8420   32.7700   39.4770 N   0  0  0  0  0  0  0  0  0  0  0  0
   38.6200   31.9310   38.7200 C   0  0  0  0  0  0  0  0  0  0  0  0
   39.9160   32.2150   38.5740 N   0  0  0  0  0  0  0  0  0  0  0  0
   41.5230   33.5220   39.0260 H   0  0  0  0  0  0  0  0  0  0  0  0
   40.0930   35.0460   40.4060 H   0  0  0  0  0  0  0  0  0  0  0  0
   37.6570   34.4620   40.6460 H   0  0  0  0  0  0  0  0  0  0  0  0
  1  2  1  0  0  0  0
  2  7  1  0  0  0  0
  3  4  1  0  0  0  0
  3  2  2  0  0  0  0
  4  5  2  0  0  0  0
  5  9  1  0  0  0  0
  5  6  1  0  0  0  0
  6 10  1  0  0  0  0
  7  6  2  0  0  0  0
  7 13  1  0  0  0  0
  8  4  1  0  0  0  0
 12 11  1  0  0  0  0
 12 19  1  0  0  0  0
 13 12  2  0  0  0  0
 14 13  1  0  0  0  0
 14 16  2  0  0  0  0
 15 14  1  0  0  0  0
 16 18  1  0  0  0  0
 17 16  1  0  0  0  0
 18 19  2  0  0  0  0
 20 27  1  0  0  0  0
 20  3  1  0  0  0  0
 21 20  1  0  0  0  0
 22 20  1  0  0  0  0
 23 24  1  0  0  0  0
 24 25  2  0  0  0  0
 24 30  1  0  0  0  0
 25 31  1  0  0  0  0
 26 25  1  0  0  0  0
 27 26  2  0  0  0  0
 28 27  1  0  0  0  0
 28 23  2  0  0  0  0
 29 23  1  0  0  0  0
M  END
>  <minimizedAffinity>
-5.35773516

$$$$

 OpenBabel03252502543D

 31 33  0  0  0  0  0  0  0  0999 V2000
   39.4010   29.6580   39.9590 Br  0  0  0  0  0  0  0  0  0  0  0  0
   38.8830   31.5230   39.9730 C   0  0  0  0  0  0  0  0  0  0  0  0
   39.8850   32.4050   40.2870 C   0  0  0  0  0  0  0  0  0  0  0  0
   39.4890   33.7460   40.2920 C   0  0  0  0  0  0  0  0  0  0  0  0
   38.2070   34.1600   40.0060 C   0  0  0  0  0  0  0  0  0  0  0  0
   37.2630   33.2110   39.7010 C   0  0  0  0  0  0  0  0  0  0  0  0
   37.5810   31.8720   39.6780 C   0  0  0  0  0  0  0  0  0  0  0  0
   40.2350   34.5050   40.5330 H   0  0  0  0  0  0  0  0  0  0  0  0
   37.9580   35.2110   40.0250 H   0  0  0  0  0  0  0  0  0  0  0  0
   36.2470   33.4650   39.4700 H   0  0  0  0  0  0  0  0  0  0  0  0
   37.4080   30.9770   36.7930 Cl  0  0  0  0  0  0  0  0  0  0  0  0
   36.4810   30.2780   38.0980 C   0  0  0  0  0  0  0  0  0  0  0  0
   36.6530   30.7750   39.3650 C   0  0  0  0  0  0  0  0  0  0  0  0
   35.9540   30.2730   40.4510 C   0  0  0  0  0  0  0  0  0  0  0  0
   36.0910   30.6700   41.4520 H   0  0  0  0  0  0  0  0  0  0  0  0
   35.0510   29.2320   40.2490 C   0  0  0  0  0  0  0  0  0  0  0  0
   34.4790   28.8060   41.0830 H   0  0  0  0  0  0  0  0  0  0  0  0
   34.8720   28.7200   38.9630 C   0  0  0  0  0  3  0  0  0  0  0  0
   35.5790   29.2400   37.9140 C   0  0  0  0  0  3  0  0  0  0  0  0
   41.2870   32.0970   40.6100 C   0  0  0  0  0  0  0  0  0  0  0  0
   41.6290   32.5300   41.5640 H   0  0  0  0  0  0  0  0  0  0  0  0
   41.3770   30.9910   40.7130 H   0  0  0  0  0  0  0  0  0  0  0  0
   43.1070   32.4150   37.3720 C   0  0  0  0  0  0  0  0  0  0  0  0
   44.0740   33.3780   37.6730 C   0  0  0  0  0  0  0  0  0  0  0  0
   44.0850   33.8890   38.9550 C   0  0  0  0  0  0  0  0  0  0  0  0
   43.1740   33.4500   39.8650 N   0  0  0  0  0  0  0  0  0  0  0  0
   42.2370   32.5030   39.5320 C   0  0  0  0  0  0  0  0  0  0  0  0
   42.2340   32.0130   38.2900 N   0  0  0  0  0  0  0  0  0  0  0  0
   43.1110   32.0230   36.3610 H   0  0  0  0  0  0  0  0  0  0  0  0
   44.8140   33.7520   36.9800 H   0  0  0  0  0  0  0  0  0  0  0  0
   44.7750   34.6400   39.3330 H   0  0  0  0  0  0  0  0  0  0  0  0
  1  2  1  0  0  0  0
  2  3  1  0  0  0  0
  3  4  2  0  0  0  0
  3 20  1  0  0  0  0
  4  8  1  0  0  0  0
  5  9  1  0  0  0  0
  5  4  1  0  0  0  0
  6  5  2  0  0  0  0
  7  6  1  0  0  0  0
  7  2  2  0  0  0  0
 10  6  1  0  0  0  0
 11 12  1  0  0  0  0
 12 13  1  0  0  0  0
 13  7  1  0  0  0  0
 13 14  2  0  0  0  0
 14 15  1  0  0  0  0
 16 14  1  0  0  0  0
 16 17  1  0  0  0  0
 18 16  2  0  0  0  0
 19 12  2  0  0  0  0
 19 18  1  0  0  0  0
 20 22  1  0  0  0  0
 20 21  1  0  0  0  0
 23 24  2  0  0  0  0
 23 28  1  0  0  0  0
 24 25  1  0  0  0  0
 25 31  1  0  0  0  0
 25 26  2  0  0  0  0
 27 26  1  0  0  0  0
 27 20  1  0  0  0  0
 28 27  2  0  0  0  0
 29 23  1  0  0  0  0
 30 24  1  0  0  0  0
M  END
>  <minimizedAffinity>
-5.32667112

$$$$

 OpenBabel03252502543D

 31 33  0  0  0  0  0  0  0  0999 V2000
   40.0930   28.6780   40.0340 Br  0  0  0  0  0  0  0  0  0  0  0  0
   38.8300   30.0810   39.6030 C   0  0  0  0  0  0  0  0  0  0  0  0
   39.2120   30.9180   38.5870 C   0  0  0  0  0  0  0  0  0  0  0  0
   38.2850   31.9240   38.2930 C   0  0  0  0  0  0  0  0  0  0  0  0
   37.0880   32.0710   38.9570 C   0  0  0  0  0  0  0  0  0  0  0  0
   36.7820   31.1870   39.9630 C   0  0  0  0  0  0  0  0  0  0  0  0
   37.6470   30.1740   40.3080 C   0  0  0  0  0  0  0  0  0  0  0  0
   38.5220   32.6280   37.4940 H   0  0  0  0  0  0  0  0  0  0  0  0
   36.4100   32.8670   38.6870 H   0  0  0  0  0  0  0  0  0  0  0  0
   35.8680   31.2460   40.5200 H   0  0  0  0  0  0  0  0  0  0  0  0
   36.2330   27.6160   39.5250 Cl  0  0  0  0  0  0  0  0  0  0  0  0
   36.7930   27.9770   41.1410 C   0  0  0  0  0  0  0  0  0  0  0  0
   37.4220   29.1760   41.3640 C   0  0  0  0  0  0  0  0  0  0  0  0
   37.8940   29.5340   42.6170 C   0  0  0  0  0  0  0  0  0  0  0  0
   38.3900   30.4840   42.7900 H   0  0  0  0  0  0  0  0  0  0  0  0
   37.7240   28.6500   43.6790 C   0  0  0  0  0  0  0  0  0  0  0  0
   38.0830   28.8960   44.6860 H   0  0  0  0  0  0  0  0  0  0  0  0
   37.0850   27.4280   43.4590 C   0  0  0  0  0  3  0  0  0  0  0  0
   36.6320   27.1080   42.2090 C   0  0  0  0  0  3  0  0  0  0  0  0
   40.4550   30.8720   37.8010 C   0  0  0  0  0  0  0  0  0  0  0  0
   41.0300   29.9420   37.9320 H   0  0  0  0  0  0  0  0  0  0  0  0
   40.1770   30.9260   36.7230 H   0  0  0  0  0  0  0  0  0  0  0  0
   42.5010   33.9700   37.4590 C   0  0  0  0  0  0  0  0  0  0  0  0
   43.0360   34.1110   38.7420 C   0  0  0  0  0  0  0  0  0  0  0  0
   42.6940   33.1590   39.6810 C   0  0  0  0  0  0  0  0  0  0  0  0
   41.8640   32.1370   39.3370 N   0  0  0  0  0  0  0  0  0  0  0  0
   41.3560   32.0330   38.0660 C   0  0  0  0  0  0  0  0  0  0  0  0
   41.6920   32.9570   37.1630 N   0  0  0  0  0  0  0  0  0  0  0  0
   42.7790   34.7250   36.7320 H   0  0  0  0  0  0  0  0  0  0  0  0
   43.6990   34.9050   39.0550 H   0  0  0  0  0  0  0  0  0  0  0  0
   43.0320   33.1370   40.7150 H   0  0  0  0  0  0  0  0  0  0  0  0
  2  1  1  0  0  0  0
  2  7  1  0  0  0  0
  3  2  2  0  0  0  0
  4  3  1  0  0  0  0
  4  5  2  0  0  0  0
  5  6  1  0  0  0  0
  6  7  2  0  0  0  0
  6 10  1  0  0  0  0
  7 13  1  0  0  0  0
  8  4  1  0  0  0  0
  9  5  1  0  0  0  0
 11 12  1  0  0  0  0
 12 13  2  0  0  0  0
 12 19  1  0  0  0  0
 13 14  1  0  0  0  0
 14 15  1  0  0  0  0
 14 16  2  0  0  0  0
 16 17  1  0  0  0  0
 18 16  1  0  0  0  0
 19 18  2  0  0  0  0
 20 21  1  0  0  0  0
 20 27  1  0  0  0  0
 20  3  1  0  0  0  0
 22 20  1  0  0  0  0
 23 24  1  0  0  0  0
 24 30  1  0  0  0  0
 24 25  2  0  0  0  0
 25 31  1  0  0  0  0
 26 25  1  0  0  0  0
 27 26  2  0  0  0  0
 28 23  2  0  0  0  0
 28 27  1  0  0  0  0
 29 23  1  0  0  0  0
M  END
>  <minimizedAffinity>
-5.27581167

$$$$

 OpenBabel03252502543D

 31 33  0  0  0  0  0  0  0  0999 V2000
   39.7020   27.8440   39.9900 Br  0  0  0  0  0  0  0  0  0  0  0  0
   38.4220   27.7270   41.4380 C   0  0  0  0  0  0  0  0  0  0  0  0
   37.1390   28.0890   41.1140 C   0  0  0  0  0  0  0  0  0  0  0  0
   36.2320   27.9970   42.1750 C   0  0  0  0  0  0  0  0  0  0  0  0
   36.5820   27.5790   43.4390 C   0  0  0  0  0  0  0  0  0  0  0  0
   37.8890   27.2330   43.6790 C   0  0  0  0  0  0  0  0  0  0  0  0
   38.8370   27.3010   42.6830 C   0  0  0  0  0  0  0  0  0  0  0  0
   35.1920   28.2690   41.9900 H   0  0  0  0  0  0  0  0  0  0  0  0
   35.8380   27.5270   44.2200 H   0  0  0  0  0  0  0  0  0  0  0  0
   38.2280   26.9010   44.6400 H   0  0  0  0  0  0  0  0  0  0  0  0
   39.6100   24.3990   42.3120 Cl  0  0  0  0  0  0  0  0  0  0  0  0
   40.7390   25.6790   42.6850 C   0  0  0  0  0  0  0  0  0  0  0  0
   40.2590   26.9560   42.8280 C   0  0  0  0  0  0  0  0  0  0  0  0
   41.0920   28.0230   43.1230 C   0  0  0  0  0  0  0  0  0  0  0  0
   40.7090   29.0320   43.2370 H   0  0  0  0  0  0  0  0  0  0  0  0
   42.4560   27.7910   43.2790 C   0  0  0  0  0  0  0  0  0  0  0  0
   43.1490   28.6090   43.5130 H   0  0  0  0  0  0  0  0  0  0  0  0
   42.9520   26.4940   43.1340 C   0  0  0  0  0  3  0  0  0  0  0  0
   42.1010   25.4640   42.8420 C   0  0  0  0  0  3  0  0  0  0  0  0
   36.6350   28.5500   39.8120 C   0  0  0  0  0  0  0  0  0  0  0  0
   37.0130   27.9670   38.9570 H   0  0  0  0  0  0  0  0  0  0  0  0
   35.5280   28.4310   39.8140 H   0  0  0  0  0  0  0  0  0  0  0  0
   37.1690   32.2180   40.2160 C   0  0  0  0  0  0  0  0  0  0  0  0
   37.4300   32.6230   38.9040 C   0  0  0  0  0  0  0  0  0  0  0  0
   37.4160   31.6500   37.9250 C   0  0  0  0  0  0  0  0  0  0  0  0
   37.1570   30.3570   38.2590 N   0  0  0  0  0  0  0  0  0  0  0  0
   36.9070   29.9980   39.5600 C   0  0  0  0  0  0  0  0  0  0  0  0
   36.9210   30.9440   40.5020 N   0  0  0  0  0  0  0  0  0  0  0  0
   37.1830   32.9930   40.9740 H   0  0  0  0  0  0  0  0  0  0  0  0
   37.6390   33.6380   38.5980 H   0  0  0  0  0  0  0  0  0  0  0  0
   37.5990   31.8140   36.8650 H   0  0  0  0  0  0  0  0  0  0  0  0
  1  2  1  0  0  0  0
  2  7  1  0  0  0  0
  3  2  2  0  0  0  0
  3  4  1  0  0  0  0
  4  5  2  0  0  0  0
  5  6  1  0  0  0  0
  5  9  1  0  0  0  0
  6 10  1  0  0  0  0
  7 13  1  0  0  0  0
  7  6  2  0  0  0  0
  8  4  1  0  0  0  0
 11 12  1  0  0  0  0
 12 13  2  0  0  0  0
 12 19  1  0  0  0  0
 13 14  1  0  0  0  0
 14 15  1  0  0  0  0
 14 16  2  0  0  0  0
 16 17  1  0  0  0  0
 18 16  1  0  0  0  0
 19 18  2  0  0  0  0
 20 22  1  0  0  0  0
 20  3  1  0  0  0  0
 21 20  1  0  0  0  0
 23 28  1  0  0  0  0
 23 29  1  0  0  0  0
 24 23  2  0  0  0  0
 25 26  2  0  0  0  0
 25 24  1  0  0  0  0
 26 27  1  0  0  0  0
 27 20  1  0  0  0  0
 27 28  2  0  0  0  0
 30 24  1  0  0  0  0
 31 25  1  0  0  0  0
M  END
>  <minimizedAffinity>
-5.24343967

$$$$
