
 OpenBabel03252507073D

 24 25  0  0  0  0  0  0  0  0999 V2000
   44.6380   35.7020   44.6110 C   0  0  0  0  0  0  0  0  0  0  0  0
   45.2520   35.8400   43.3580 C   0  0  0  0  0  0  0  0  0  0  0  0
   46.2020   34.9000   42.9850 C   0  0  0  0  0  0  0  0  0  0  0  0
   46.5020   33.8810   43.8520 N   0  0  0  0  0  0  0  0  0  0  0  0
   45.8910   33.7870   45.0410 C   0  0  0  0  0  0  0  0  0  0  0  0
   44.9700   34.6790   45.4280 N   0  0  0  0  0  0  0  0  0  0  0  0
   43.8860   36.4080   44.9580 H   0  0  0  0  0  0  0  0  0  0  0  0
   44.9660   36.6710   42.7230 H   0  0  0  0  0  0  0  0  0  0  0  0
   44.5620   33.8720   47.6960 Cl  0  0  0  0  0  0  0  0  0  0  0  0
   45.6890   32.6040   47.2000 C   0  0  0  0  0  0  0  0  0  0  0  0
   46.2220   32.6960   45.9510 C   0  0  0  0  0  0  0  0  0  0  0  0
   47.0980   31.6930   45.5930 C   0  0  0  0  0  0  0  0  0  0  0  0
   47.5720   31.6810   44.6170 H   0  0  0  0  0  0  0  0  0  0  0  0
   47.4350   30.6450   46.4250 C   0  0  0  0  0  0  0  0  0  0  0  0
   48.1150   29.8620   46.1530 H   0  0  0  0  0  0  0  0  0  0  0  0
   46.8620   30.6100   47.6740 C   0  0  0  0  0  3  0  0  0  0  0  0
   45.9790   31.5860   48.0870 C   0  0  0  0  0  3  0  0  0  0  0  0
   46.7990   35.0550   41.7400 O   0  0  0  0  0  0  0  0  0  0  0  0
   48.6440   33.3660   40.9040 O   0  0  0  0  0  0  0  0  0  0  0  0
   48.4730   34.7210   41.5660 P   0  0  0  0  0  0  0  0  0  0  0  0
   49.1620   35.9630   40.6660 O   0  0  0  0  0  0  0  0  0  0  0  0
   49.0230   35.8660   39.7100 H   0  0  0  0  0  0  0  0  0  0  0  0
   49.1400   34.6610   43.1160 O   0  0  0  0  0  0  0  0  0  0  0  0
   50.1050   34.8850   43.0310 H   0  0  0  0  0  0  0  0  0  0  0  0
  1  7  1  0  0  0  0
  1  6  1  0  0  0  0
  2  1  2  0  0  0  0
  3  2  1  0  0  0  0
  3  4  2  0  0  0  0
  4  5  1  0  0  0  0
  5  6  2  0  0  0  0
  5 11  1  0  0  0  0
  8  2  1  0  0  0  0
 10  9  1  0  0  0  0
 10 17  1  0  0  0  0
 11 10  2  0  0  0  0
 12 11  1  0  0  0  0
 12 14  2  0  0  0  0
 13 12  1  0  0  0  0
 14 16  1  0  0  0  0
 15 14  1  0  0  0  0
 16 17  2  0  0  0  0
 18  3  1  0  0  0  0
 19 20  2  0  0  0  0
 20 18  1  0  0  0  0
 20 23  1  0  0  0  0
 21 20  1  0  0  0  0
 22 21  1  0  0  0  0
 24 23  1  0  0  0  0
M  END
>  <minimizedAffinity>
-5.54761791

>  <minimizedRMSD>
0.463375747

$$$$
