REMARK  Name = 
REMARK  4 active torsions:
REMARK  status: ('A' for Active; 'I' for Inactive)
REMARK    1  A    between atoms: C_1  and  C_9
REMARK    2  A    between atoms: C_6  and  C_13
REMARK    3  A    between atoms: C_17  and  C_19
REMARK    4  A    between atoms: C_19  and  C_39
REMARK                            x       y       z     vdW  Elec       q    Type
REMARK                         _______ _______ _______ _____ _____    ______ ____
ROOT
ATOM      1  C   UNL     1      47.876  32.925  41.827  0.00  0.00    +0.000 C 
ATOM      2  C   UNL     1      47.568  32.186  40.600  0.00  0.00    +0.000 C 
ATOM      3  C   UNL     1      48.587  32.630  39.553  0.00  0.00    +0.000 C 
ATOM      4  C   UNL     1      48.248  34.066  39.203  0.00  0.00    +0.000 C 
ATOM      5  C   UNL     1      48.160  34.983  40.390  0.00  0.00    +0.000 C 
ATOM      6  C   UNL     1      47.655  34.431  41.651  0.00  0.00    +0.000 C 
ATOM      7  H   UNL     1      48.993  32.866  42.008  0.00  0.00    +0.000 HD
ATOM      8  H   UNL     1      46.568  32.359  40.203  0.00  0.00    +0.000 HD
ATOM      9  H   UNL     1      47.754  31.097  40.794  0.00  0.00    +0.000 HD
ATOM     10  H   UNL     1      48.403  32.051  38.614  0.00  0.00    +0.000 HD
ATOM     11  H   UNL     1      49.617  32.522  39.925  0.00  0.00    +0.000 HD
ATOM     12  H   UNL     1      47.297  34.035  38.619  0.00  0.00    +0.000 HD
ATOM     13  H   UNL     1      49.024  34.444  38.500  0.00  0.00    +0.000 HD
ATOM     14  H   UNL     1      49.167  35.456  40.512  0.00  0.00    +0.000 HD
ATOM     15  H   UNL     1      47.491  35.832  40.084  0.00  0.00    +0.000 HD
ATOM     16  H   UNL     1      48.243  34.894  42.502  0.00  0.00    +0.000 HD
ENDROOT
BRANCH   1  19
ATOM     17  C   UNL     1      45.472  31.091  44.101  0.00  0.00    +0.000 A 
ATOM     18  C   UNL     1      46.158  31.568  42.977  0.00  0.00    +0.000 A 
ATOM     19  C   UNL     1      47.221  32.474  43.037  0.00  0.00    +0.000 A 
ATOM     20  N   UNL     1      47.569  32.883  44.262  0.00  0.00    +0.000 NA
ATOM     21  C   UNL     1      46.915  32.432  45.366  0.00  0.00    +0.000 A 
ATOM     22  N   UNL     1      45.900  31.566  45.299  0.00  0.00    +0.000 NA
ATOM     23  H   UNL     1      44.672  30.402  43.970  0.00  0.00    +0.000 HD
ATOM     24  H   UNL     1      45.850  31.216  41.999  0.00  0.00    +0.000 HD
ATOM     25  H   UNL     1      47.237  32.797  46.348  0.00  0.00    +0.000 HD
ENDBRANCH   1  19
BRANCH   6  26
ATOM     26  C   UNL     1      46.269  34.810  41.924  0.00  0.00    +0.000 A 
ATOM     27  C   UNL     1      45.805  35.493  43.046  0.00  0.00    +0.000 A 
ATOM     28  C   UNL     1      44.437  35.761  43.079  0.00  0.00    +0.000 A 
ATOM     29  C   UNL     1      43.663  35.338  42.020  0.00  0.00    +0.000 A 
ATOM     30  C   UNL     1      44.142  34.658  40.909  0.00  0.00    +0.000 A 
ATOM     31  N   UNL     1      45.480  34.406  40.895  0.00  0.00    +0.000 NA
ATOM     32  H   UNL     1      46.545  35.754  43.790  0.00  0.00    +0.000 HD
ATOM     33  H   UNL     1      44.081  36.286  43.940  0.00  0.00    +0.000 HD
ATOM     34  H   UNL     1      42.607  35.587  42.122  0.00  0.00    +0.000 HD
BRANCH  30  35
ATOM     35  C   UNL     1      43.230  34.257  39.847  0.00  0.00    +0.000 C 
ATOM     36  O   UNL     1      42.374  35.086  39.453  0.00  0.00    +0.000 OA
BRANCH  35  39
ATOM     37 CL   UNL     1      42.071  32.068  41.420  0.00  0.00    +0.000 Cl
ATOM     38  C   UNL     1      42.496  31.920  39.707  0.00  0.00    +0.000 A 
ATOM     39  C   UNL     1      43.048  33.041  39.071  0.00  0.00    +0.000 A 
ATOM     40  C   UNL     1      43.346  32.851  37.761  0.00  0.00    +0.000 A 
ATOM     41  H   UNL     1      43.757  33.670  37.224  0.00  0.00    +0.000 HD
ATOM     42  C   UNL     1      43.155  31.688  37.048  0.00  0.00    +0.000 A 
ATOM     43  H   UNL     1      43.417  31.610  36.006  0.00  0.00    +0.000 HD
ATOM     44  C   UNL     1      42.609  30.619  37.728  0.00  0.00    +0.000 A 
ATOM     45  C   UNL     1      42.268  30.703  39.060  0.00  0.00    +0.000 A 
ENDBRANCH  35  39
ENDBRANCH  30  35
ENDBRANCH   6  26
TORSDOF 4
