
 OpenBabel03242516523D

 45 48  0  0  1  0  0  0  0  0999 V2000
   47.8450   32.8980   41.8370 C   0  0  1  0  0  0  0  0  0  0  0  0
   47.5180   32.2830   40.5480 C   0  0  0  0  0  0  0  0  0  0  0  0
   48.5370   32.8090   39.5400 C   0  0  0  0  0  0  0  0  0  0  0  0
   48.2170   34.2770   39.3290 C   0  0  0  0  0  0  0  0  0  0  0  0
   48.1510   35.0790   40.5980 C   0  0  0  0  0  0  0  0  0  0  0  0
   47.6450   34.4170   41.8050 C   0  0  1  0  0  0  0  0  0  0  0  0
   48.9620   32.8070   42.0030 H   0  0  0  0  0  0  0  0  0  0  0  0
   46.5190   32.5070   40.1770 H   0  0  0  0  0  0  0  0  0  0  0  0
   47.6890   31.1780   40.6370 H   0  0  0  0  0  0  0  0  0  0  0  0
   48.3390   32.3240   38.5520 H   0  0  0  0  0  0  0  0  0  0  0  0
   49.5680   32.6520   39.8920 H   0  0  0  0  0  0  0  0  0  0  0  0
   47.2620   34.3140   38.7520 H   0  0  0  0  0  0  0  0  0  0  0  0
   48.9940   34.7080   38.6590 H   0  0  0  0  0  0  0  0  0  0  0  0
   49.1650   35.5240   40.7570 H   0  0  0  0  0  0  0  0  0  0  0  0
   47.4920   35.9620   40.3790 H   0  0  0  0  0  0  0  0  0  0  0  0
   48.2460   34.7890   42.6920 H   0  0  0  0  0  0  0  0  0  0  0  0
   45.4100   30.9150   43.9470 C   0  0  0  0  0  0  0  0  0  0  0  0
   46.0970   31.4850   42.8680 C   0  0  0  0  0  0  0  0  0  0  0  0
   47.1910   32.3440   43.0040 C   0  0  0  0  0  0  0  0  0  0  0  0
   47.5690   32.6110   44.2590 N   0  0  0  0  0  0  0  0  0  0  0  0
   46.9150   32.0680   45.3210 C   0  0  0  0  0  0  0  0  0  0  0  0
   45.8700   31.2480   45.1810 N   0  0  0  0  0  0  0  0  0  0  0  0
   44.5850   30.2710   43.7580 H   0  0  0  0  0  0  0  0  0  0  0  0
   45.7640   31.2480   41.8630 H   0  0  0  0  0  0  0  0  0  0  0  0
   47.2620   32.3170   46.3300 H   0  0  0  0  0  0  0  0  0  0  0  0
   46.2670   34.7880   42.1240 C   0  0  0  0  0  0  0  0  0  0  0  0
   45.8190   35.3640   43.3110 C   0  0  0  0  0  0  0  0  0  0  0  0
   44.4560   35.6480   43.3790 C   0  0  0  0  0  0  0  0  0  0  0  0
   43.6700   35.3440   42.2890 C   0  0  0  0  0  0  0  0  0  0  0  0
   44.1330   34.7700   41.1130 C   0  0  0  0  0  0  0  0  0  0  0  0
   45.4670   34.5000   41.0650 N   0  0  0  0  0  0  0  0  0  0  0  0
   46.5670   35.5390   44.0720 H   0  0  0  0  0  0  0  0  0  0  0  0
   44.1130   36.0910   44.2900 H   0  0  0  0  0  0  0  0  0  0  0  0
   42.6190   35.5980   42.4220 H   0  0  0  0  0  0  0  0  0  0  0  0
   43.2090   34.4900   40.0220 C   0  0  0  0  0  0  0  0  0  0  0  0
   42.6000   35.4530   39.4960 O   0  0  0  0  0  0  0  0  0  0  0  0
   40.8700   33.2420   41.2810 Cl  0  0  0  0  0  0  0  0  0  0  0  0
   41.6690   32.5890   39.8410 C   0  0  0  0  0  0  0  0  0  0  0  0
   42.7820   33.2790   39.3400 C   0  0  0  0  0  0  0  0  0  0  0  0
   43.3380   32.7190   38.2360 C   0  0  0  0  0  0  0  0  0  0  0  0
   44.1780   33.2050   37.8060 H   0  0  0  0  0  0  0  0  0  0  0  0
   42.9050   31.5730   37.6050 C   0  0  0  0  0  0  0  0  0  0  0  0
   43.3990   31.1850   36.7290 H   0  0  0  0  0  0  0  0  0  0  0  0
   41.8070   30.9380   38.1440 C   0  0  0  0  0  3  0  0  0  0  0  0
   41.1650   31.4210   39.2630 C   0  0  0  0  0  3  0  0  0  0  0  0
  1  7  1  1  0  0  0
  1 19  1  0  0  0  0
  2  9  1  0  0  0  0
  2  1  1  0  0  0  0
  3 11  1  0  0  0  0
  3  2  1  0  0  0  0
  4  3  1  0  0  0  0
  4  5  1  0  0  0  0
  5 14  1  0  0  0  0
  5  6  1  0  0  0  0
  6  1  1  0  0  0  0
  6 26  1  0  0  0  0
  6 16  1  1  0  0  0
  8  2  1  0  0  0  0
 10  3  1  0  0  0  0
 12  4  1  0  0  0  0
 13  4  1  0  0  0  0
 15  5  1  0  0  0  0
 17 22  1  0  0  0  0
 18 19  1  0  0  0  0
 18 17  2  0  0  0  0
 19 20  2  0  0  0  0
 20 21  1  0  0  0  0
 21 25  1  0  0  0  0
 22 21  2  0  0  0  0
 23 17  1  0  0  0  0
 24 18  1  0  0  0  0
 26 27  1  0  0  0  0
 27 28  2  0  0  0  0
 27 32  1  0  0  0  0
 28 33  1  0  0  0  0
 29 34  1  0  0  0  0
 29 28  1  0  0  0  0
 30 29  2  0  0  0  0
 31 30  1  0  0  0  0
 31 26  2  0  0  0  0
 35 30  1  0  0  0  0
 36 35  2  0  0  0  0
 38 37  1  0  0  0  0
 39 38  1  0  0  0  0
 39 35  1  0  0  0  0
 40 39  2  0  0  0  0
 41 40  1  0  0  0  0
 42 44  2  0  0  0  0
 42 40  1  0  0  0  0
 43 42  1  0  0  0  0
 44 45  1  0  0  0  0
 45 38  2  0  0  0  0
M  END
>  <minimizedAffinity>
-5.60579634

>  <minimizedRMSD>
0.692944765

$$$$
