
 OpenBabel03242516513D

 45 48  0  0  1  0  0  0  0  0999 V2000
   47.8450   32.8970   41.8360 C   0  0  1  0  0  0  0  0  0  0  0  0
   47.5180   32.2830   40.5460 C   0  0  0  0  0  0  0  0  0  0  0  0
   48.5380   32.8100   39.5390 C   0  0  0  0  0  0  0  0  0  0  0  0
   48.2190   34.2780   39.3310 C   0  0  0  0  0  0  0  0  0  0  0  0
   48.1520   35.0780   40.6010 C   0  0  0  0  0  0  0  0  0  0  0  0
   47.6460   34.4160   41.8070 C   0  0  1  0  0  0  0  0  0  0  0  0
   48.9620   32.8040   42.0030 H   0  0  0  0  0  0  0  0  0  0  0  0
   46.5190   32.5080   40.1750 H   0  0  0  0  0  0  0  0  0  0  0  0
   47.6880   31.1780   40.6340 H   0  0  0  0  0  0  0  0  0  0  0  0
   48.3390   32.3270   38.5500 H   0  0  0  0  0  0  0  0  0  0  0  0
   49.5680   32.6520   39.8920 H   0  0  0  0  0  0  0  0  0  0  0  0
   47.2640   34.3170   38.7530 H   0  0  0  0  0  0  0  0  0  0  0  0
   48.9960   34.7100   38.6610 H   0  0  0  0  0  0  0  0  0  0  0  0
   49.1670   35.5230   40.7600 H   0  0  0  0  0  0  0  0  0  0  0  0
   47.4940   35.9630   40.3820 H   0  0  0  0  0  0  0  0  0  0  0  0
   48.2460   34.7860   42.6940 H   0  0  0  0  0  0  0  0  0  0  0  0
   45.4090   30.9110   43.9420 C   0  0  0  0  0  0  0  0  0  0  0  0
   46.0960   31.4810   42.8640 C   0  0  0  0  0  0  0  0  0  0  0  0
   47.1900   32.3420   43.0020 C   0  0  0  0  0  0  0  0  0  0  0  0
   47.5660   32.6070   44.2580 N   0  0  0  0  0  0  0  0  0  0  0  0
   46.9110   32.0640   45.3180 C   0  0  0  0  0  0  0  0  0  0  0  0
   45.8670   31.2420   45.1770 N   0  0  0  0  0  0  0  0  0  0  0  0
   44.5840   30.2650   43.7520 H   0  0  0  0  0  0  0  0  0  0  0  0
   45.7650   31.2450   41.8590 H   0  0  0  0  0  0  0  0  0  0  0  0
   47.2570   32.3120   46.3280 H   0  0  0  0  0  0  0  0  0  0  0  0
   46.2670   34.7870   42.1250 C   0  0  0  0  0  0  0  0  0  0  0  0
   45.8200   35.3630   43.3120 C   0  0  0  0  0  0  0  0  0  0  0  0
   44.4570   35.6480   43.3800 C   0  0  0  0  0  0  0  0  0  0  0  0
   43.6710   35.3430   42.2890 C   0  0  0  0  0  0  0  0  0  0  0  0
   44.1330   34.7690   41.1130 C   0  0  0  0  0  0  0  0  0  0  0  0
   45.4670   34.4990   41.0660 N   0  0  0  0  0  0  0  0  0  0  0  0
   46.5680   35.5380   44.0730 H   0  0  0  0  0  0  0  0  0  0  0  0
   44.1130   36.0900   44.2910 H   0  0  0  0  0  0  0  0  0  0  0  0
   42.6190   35.5970   42.4220 H   0  0  0  0  0  0  0  0  0  0  0  0
   43.2100   34.4890   40.0230 C   0  0  0  0  0  0  0  0  0  0  0  0
   42.6010   35.4520   39.4970 O   0  0  0  0  0  0  0  0  0  0  0  0
   40.8700   33.2430   41.2800 Cl  0  0  0  0  0  0  0  0  0  0  0  0
   41.6690   32.5890   39.8410 C   0  0  0  0  0  0  0  0  0  0  0  0
   42.7820   33.2790   39.3400 C   0  0  0  0  0  0  0  0  0  0  0  0
   43.3380   32.7180   38.2370 C   0  0  0  0  0  0  0  0  0  0  0  0
   44.1800   33.2040   37.8070 H   0  0  0  0  0  0  0  0  0  0  0  0
   42.9060   31.5730   37.6060 C   0  0  0  0  0  0  0  0  0  0  0  0
   43.4000   31.1840   36.7300 H   0  0  0  0  0  0  0  0  0  0  0  0
   41.8070   30.9380   38.1450 C   0  0  0  0  0  3  0  0  0  0  0  0
   41.1640   31.4220   39.2630 C   0  0  0  0  0  3  0  0  0  0  0  0
  1  7  1  1  0  0  0
  1 19  1  0  0  0  0
  2  9  1  0  0  0  0
  2  1  1  0  0  0  0
  3 11  1  0  0  0  0
  3  2  1  0  0  0  0
  4  3  1  0  0  0  0
  4  5  1  0  0  0  0
  5 14  1  0  0  0  0
  5  6  1  0  0  0  0
  6  1  1  0  0  0  0
  6 26  1  0  0  0  0
  6 16  1  1  0  0  0
  8  2  1  0  0  0  0
 10  3  1  0  0  0  0
 12  4  1  0  0  0  0
 13  4  1  0  0  0  0
 15  5  1  0  0  0  0
 17 22  1  0  0  0  0
 18 19  1  0  0  0  0
 18 17  2  0  0  0  0
 19 20  2  0  0  0  0
 20 21  1  0  0  0  0
 21 25  1  0  0  0  0
 22 21  2  0  0  0  0
 23 17  1  0  0  0  0
 24 18  1  0  0  0  0
 26 27  1  0  0  0  0
 27 28  2  0  0  0  0
 27 32  1  0  0  0  0
 28 33  1  0  0  0  0
 29 34  1  0  0  0  0
 29 28  1  0  0  0  0
 30 29  2  0  0  0  0
 31 30  1  0  0  0  0
 31 26  2  0  0  0  0
 35 30  1  0  0  0  0
 36 35  2  0  0  0  0
 38 37  1  0  0  0  0
 39 38  1  0  0  0  0
 39 35  1  0  0  0  0
 40 39  2  0  0  0  0
 41 40  1  0  0  0  0
 42 44  2  0  0  0  0
 42 40  1  0  0  0  0
 43 42  1  0  0  0  0
 44 45  1  0  0  0  0
 45 38  2  0  0  0  0
M  END
>  <minimizedAffinity>
-5.60155487

>  <minimizedRMSD>
0.565026104

$$$$
