
     RDKit          3D

 30 32  0  0  0  0  0  0  0  0999 V2000
   44.4610   35.9496   44.8369 C   0  0  0  0  0  0  0  0  0  0  0  0
   45.1563   35.8759   43.6211 C   0  0  0  0  0  0  0  0  0  0  0  0
   46.0542   34.8477   43.3717 C   0  0  0  0  0  0  0  0  0  0  0  0
   46.2218   33.9234   44.3621 N   0  0  0  0  0  0  0  0  0  0  0  0
   45.5389   34.0183   45.5245 C   0  0  0  0  0  0  0  0  0  0  0  0
   44.6709   35.0166   45.7592 N   0  0  0  0  0  0  0  0  0  0  0  0
   44.5412   33.0945   41.3015 Br  0  0  0  0  0  0  0  0  0  0  0  0
   46.2273   33.9939   41.1087 C   0  0  0  0  0  0  0  0  0  0  0  0
   46.7941   34.7461   42.1106 C   0  0  0  0  0  0  0  0  0  0  0  0
   48.0054   35.3453   41.8613 C   0  0  0  0  0  0  0  0  0  0  0  0
   48.6653   35.2192   40.6529 C   0  0  0  0  0  0  0  0  0  0  0  0
   48.1002   34.4611   39.6346 C   0  0  0  0  0  0  0  0  0  0  0  0
   46.8885   33.8664   39.8949 C   0  0  0  0  0  0  0  0  0  0  0  0
   43.8014   36.8122   44.8683 H   0  0  0  0  0  0  0  0  0  0  0  0
   45.0526   36.5869   42.8115 H   0  0  0  0  0  0  0  0  0  0  0  0
   45.6576   33.2935   46.3251 H   0  0  0  0  0  0  0  0  0  0  0  0
   48.4315   35.9337   42.6689 H   0  0  0  0  0  0  0  0  0  0  0  0
   49.6154   35.7333   40.5621 H   0  0  0  0  0  0  0  0  0  0  0  0
   48.6235   34.3670   38.6906 H   0  0  0  0  0  0  0  0  0  0  0  0
   48.2986   34.5119   37.3999 Cl  0  0  0  0  0  0  0  0  0  0  0  0
   46.9846   33.3548   37.5731 C   0  0  0  0  0  0  0  0  0  0  0  0
   46.3440   33.0823   38.7866 C   0  0  0  0  0  0  0  0  0  0  0  0
   45.3203   32.1587   38.8363 C   0  0  0  0  0  0  0  0  0  0  0  0
   44.8873   32.0144   39.8105 H   0  0  0  0  0  0  0  0  0  0  0  0
   44.9522   31.5242   37.6822 C   0  0  0  0  0  0  0  0  0  0  0  0
   44.1401   30.7977   37.7449 H   0  0  0  0  0  0  0  0  0  0  0  0
   45.5645   31.7712   36.4701 C   0  0  0  0  0  0  0  0  0  0  0  0
   46.6027   32.7017   36.3958 C   0  0  0  0  0  0  0  0  0  0  0  0
   45.2796   31.2734   35.5512 H   0  0  0  0  0  0  0  0  0  0  0  0
   47.0928   32.9063   35.4531 H   0  0  0  0  0  0  0  0  0  0  0  0
  1  6  2  0
  2  1  1  0
  3  2  2  0
  3  4  1  0
  4  5  2  0
  5  6  1  0
  8  7  1  0
  8  9  2  0
  9  3  1  0
 10  9  1  0
 11 10  2  0
 12 13  2  0
 12 11  1  0
 13  8  1  0
  1 14  1  0
  2 15  1  0
  5 16  1  0
 10 17  1  0
 11 18  1  0
 12 19  1  0
 20 21  1  0
 21 22  2  0
 22 23  1  0
 23 24  1  0
 23 25  2  0
 25 26  1  0
 25 27  1  0
 27 28  2  0
 28 21  1  0
 27 29  1  0
 28 30  1  0
 13 22  1  0
M  ISO  8  14  14  15  14  16  14  17  14  18  14  19  14  24  15  26  16
M  END
>  <DihAtoms>  (1) 
11,12,21,20

>  <DihDeg>  (1) 
-89.9996795327551

$$$$
