REMARK  Name = 
REMARK  5 active torsions:
REMARK  status: ('A' for Active; 'I' for Inactive)
REMARK    1  A    between atoms: C_1  and  C_2
REMARK    2  A    between atoms: C_1  and  C_9
REMARK    3  A    between atoms: C_3  and  S_8
REMARK    4  A    between atoms: C_9  and  C_10
REMARK    5  A    between atoms: C_13  and  C_25
REMARK                            x       y       z     vdW  Elec       q    Type
REMARK                         _______ _______ _______ _____ _____    ______ ____
ROOT
ATOM      1  C   UNL     1      45.600  34.541  41.681  0.00  0.00    +0.000 C 
ATOM      2  H   UNL     1      45.871  35.522  42.161  0.00  0.00    +0.000 HD
ATOM      3  H   UNL     1      45.601  33.811  42.521  0.00  0.00    +0.000 HD
ENDROOT
BRANCH   1   4
ATOM      4  C   UNL     1      44.248  34.645  41.068  0.00  0.00    +0.000 A 
ATOM      5  C   UNL     1      43.226  35.419  41.730  0.00  0.00    +0.000 A 
ATOM      6  S   UNL     1      41.798  35.215  40.572  0.00  0.00    +0.000 S 
ATOM      7  C   UNL     1      42.839  34.140  39.431  0.00  0.00    +0.000 A 
ATOM      8  N   UNL     1      43.845  34.097  39.946  0.00  0.00    +0.000 NA
ATOM      9  H   UNL     1      43.329  35.950  42.651  0.00  0.00    +0.000 HD
BRANCH   7  12
ATOM     10 CL   UNL     1      40.598  35.809  38.153  0.00  0.00    +0.000 Cl
ATOM     11  C   UNL     1      41.167  34.283  37.555  0.00  0.00    +0.000 A 
ATOM     12  C   UNL     1      42.162  33.611  38.180  0.00  0.00    +0.000 A 
ATOM     13  C   UNL     1      42.682  32.414  37.801  0.00  0.00    +0.000 A 
ATOM     14  H   UNL     1      43.478  31.890  38.312  0.00  0.00    +0.000 HD
ATOM     15  C   UNL     1      42.150  31.826  36.673  0.00  0.00    +0.000 A 
ATOM     16  H   UNL     1      42.476  30.880  36.271  0.00  0.00    +0.000 HD
ATOM     17  C   UNL     1      41.127  32.475  35.996  0.00  0.00    +0.000 A 
ATOM     18  C   UNL     1      40.609  33.707  36.408  0.00  0.00    +0.000 A 
ENDBRANCH   7  12
ENDBRANCH   1   4
BRANCH   1  19
ATOM     19  C   UNL     1      46.689  34.235  40.700  0.00  0.00    +0.000 C 
ATOM     20  H   UNL     1      46.439  33.330  40.159  0.00  0.00    +0.000 HD
ATOM     21  H   UNL     1      46.653  35.059  39.926  0.00  0.00    +0.000 HD
BRANCH  19  22
ATOM     22  C   UNL     1      48.036  34.184  41.300  0.00  0.00    +0.000 A 
ATOM     23  C   UNL     1      48.744  32.973  41.178  0.00  0.00    +0.000 A 
ATOM     24  C   UNL     1      50.009  32.881  41.726  0.00  0.00    +0.000 A 
ATOM     25  N   UNL     1      50.528  33.970  42.368  0.00  0.00    +0.000 NA
ATOM     26  C   UNL     1      49.817  35.115  42.464  0.00  0.00    +0.000 A 
ATOM     27  N   UNL     1      48.607  35.196  41.937  0.00  0.00    +0.000 NA
ATOM     28  H   UNL     1      50.521  31.932  41.611  0.00  0.00    +0.000 HD
ATOM     29  H   UNL     1      50.325  35.915  42.993  0.00  0.00    +0.000 HD
BRANCH  23  30
ATOM     30  S   UNL     1      47.997  31.576  40.318  0.00  0.00    +0.000 S 
ATOM     31  H   UNL     1      47.286  30.783  41.244  0.00  0.00    +0.000 HD
ENDBRANCH  23  30
ENDBRANCH  19  22
ENDBRANCH   1  19
TORSDOF 5
