
 OpenBabel03252506183D

 23 24  0  0  0  0  0  0  0  0999 V2000
   44.7840   35.5500   43.4800 C   0  0  0  0  0  0  0  0  0  0  0  0
   44.3780   35.5970   42.1330 C   0  0  0  0  0  0  0  0  0  0  0  0
   44.3150   34.3760   41.4410 C   0  0  0  0  0  0  0  0  0  0  0  0
   44.6390   33.2360   42.0880 N   0  0  0  0  0  0  0  0  0  0  0  0
   45.0250   33.2370   43.3900 C   0  0  0  0  0  0  0  0  0  0  0  0
   45.0960   34.3930   44.0820 N   0  0  0  0  0  0  0  0  0  0  0  0
   44.1310   36.5380   41.6650 H   0  0  0  0  0  0  0  0  0  0  0  0
   44.0060   34.4000   40.4060 H   0  0  0  0  0  0  0  0  0  0  0  0
   46.4680   33.4360   46.0470 Cl  0  0  0  0  0  0  0  0  0  0  0  0
   46.0260   31.9690   45.2360 C   0  0  0  0  0  0  0  0  0  0  0  0
   45.3570   31.9500   44.0060 C   0  0  0  0  0  0  0  0  0  0  0  0
   44.9940   30.8060   43.3410 C   0  0  0  0  0  0  0  0  0  0  0  0
   44.4800   30.8350   42.3930 H   0  0  0  0  0  0  0  0  0  0  0  0
   45.3250   29.6160   43.9550 C   0  0  0  0  0  0  0  0  0  0  0  0
   45.0580   28.6780   43.4670 H   0  0  0  0  0  0  0  0  0  0  0  0
   45.9820   29.5130   45.1650 C   0  0  0  0  0  3  0  0  0  0  0  0
   46.3080   30.7200   45.7630 C   0  0  0  0  0  3  0  0  0  0  0  0
   44.8550   36.8230   44.2240 C   0  0  0  0  0  3  0  0  0  0  0  0
   45.2720   37.8900   43.5770 C   0  0  0  0  0  3  0  0  0  0  0  0
   45.3630   39.2000   44.2840 C   0  0  0  0  0  0  0  0  0  0  0  0
   45.9930   39.0200   45.1910 H   0  0  0  0  0  0  0  0  0  0  0  0
   45.8800   39.9510   43.6720 H   0  0  0  0  0  0  0  0  0  0  0  0
   44.3470   39.5430   44.6090 H   0  0  0  0  0  0  0  0  0  0  0  0
  1  6  1  0  0  0  0
  1 18  1  0  0  0  0
  2  1  2  0  0  0  0
  3  4  2  0  0  0  0
  3  2  1  0  0  0  0
  4  5  1  0  0  0  0
  5 11  1  0  0  0  0
  5  6  2  0  0  0  0
  7  2  1  0  0  0  0
  8  3  1  0  0  0  0
 10 17  1  0  0  0  0
 10  9  1  0  0  0  0
 11 10  2  0  0  0  0
 12 14  2  0  0  0  0
 12 11  1  0  0  0  0
 13 12  1  0  0  0  0
 14 16  1  0  0  0  0
 15 14  1  0  0  0  0
 16 17  2  0  0  0  0
 19 18  2  0  0  0  0
 19 20  1  0  0  0  0
 20 23  1  0  0  0  0
 20 21  1  0  0  0  0
 22 20  1  0  0  0  0
M  END
>  <minimizedAffinity>
-3.4014318

>  <minimizedRMSD>
0.534378171

$$$$
