
     RDKit          3D

 27 28  0  0  0  0  0  0  0  0999 V2000
   44.6787   35.5214   43.5944 C   0  0  0  0  0  0  0  0  0  0  0  0
   43.9272   35.4318   42.4065 C   0  0  0  0  0  0  0  0  0  0  0  0
   43.7820   34.1564   41.8366 C   0  0  0  0  0  0  0  0  0  0  0  0
   44.3584   33.0953   42.4419 N   0  0  0  0  0  0  0  0  0  0  0  0
   45.0755   33.2276   43.5880 C   0  0  0  0  0  0  0  0  0  0  0  0
   45.2333   34.4387   44.1600 N   0  0  0  0  0  0  0  0  0  0  0  0
   44.8421   36.8528   44.2076 C   0  0  0  0  0  0  0  0  0  0  0  0
   45.2514   37.8385   43.4394 C   0  0  0  0  0  0  0  0  0  0  0  0
   45.4323   39.2036   44.0116 C   0  0  0  0  0  0  0  0  0  0  0  0
   43.4877   36.3138   41.9648 H   0  0  0  0  0  0  0  0  0  0  0  0
   43.2072   34.0749   40.9246 H   0  0  0  0  0  0  0  0  0  0  0  0
   44.6192   36.9664   45.2634 H   0  0  0  0  0  0  0  0  0  0  0  0
   45.4336   37.5890   42.4229 H   0  0  0  0  0  0  0  0  0  0  0  0
   46.1142   39.0838   44.8909 H   0  0  0  0  0  0  0  0  0  0  0  0
   45.9325   39.8752   43.3014 H   0  0  0  0  0  0  0  0  0  0  0  0
   44.4509   39.6151   44.3663 H   0  0  0  0  0  0  0  0  0  0  0  0
   43.9706   30.6245   42.4998 Cl  0  0  0  0  0  0  0  0  0  0  0  0
   45.1990   30.7816   43.7142 C   0  0  0  0  0  0  0  0  0  0  0  0
   45.6634   32.0194   44.1713 C   0  0  0  0  0  0  0  0  0  0  0  0
   46.6329   32.1755   45.1297 C   0  0  0  0  0  0  0  0  0  0  0  0
   46.9645   33.1501   45.4559 H   0  0  0  0  0  0  0  0  0  0  0  0
   47.1610   31.0134   45.6538 C   0  0  0  0  0  0  0  0  0  0  0  0
   47.9349   31.0834   46.4189 H   0  0  0  0  0  0  0  0  0  0  0  0
   46.7811   29.7409   45.2803 C   0  0  0  0  0  0  0  0  0  0  0  0
   45.7958   29.6829   44.3061 C   0  0  0  0  0  0  0  0  0  0  0  0
   47.2099   28.8452   45.7058 H   0  0  0  0  0  0  0  0  0  0  0  0
   45.4275   28.7261   43.9435 H   0  0  0  0  0  0  0  0  0  0  0  0
  1  6  2  0
  1  7  1  0
  2  1  1  0
  3  2  2  0
  3  4  1  0
  4  5  2  0
  5  6  1  0
  8  9  1  0
  8  7  2  0
  2 10  1  0
  3 11  1  0
  7 12  1  0
  8 13  1  0
  9 14  1  0
  9 15  1  0
  9 16  1  0
 17 18  1  0
 18 19  2  0
 19 20  1  0
 20 21  1  0
 20 22  2  0
 22 23  1  0
 22 24  1  0
 24 25  2  0
 25 18  1  0
 24 26  1  0
 25 27  1  0
  5 19  1  0
M  ISO  7  10  14  11  14  14   8  15   8  16   8  21  15  23  16
M  END
>  <DihAtoms>  (1) 
3,4,18,17

>  <DihDeg>  (1) 
179.99220588561985

$$$$
