
 OpenBabel03252507433D

 31 33  0  0  0  0  0  0  0  0999 V2000
   45.7570   34.7690   42.1490 C   0  0  0  0  0  0  0  0  0  0  0  0
   46.1050   35.8090   42.4000 H   0  0  0  0  0  0  0  0  0  0  0  0
   45.9170   34.1890   43.0850 H   0  0  0  0  0  0  0  0  0  0  0  0
   44.3150   34.8030   41.7840 C   0  0  0  0  0  0  0  0  0  0  0  0
   43.4570   35.8040   42.3700 C   0  0  0  0  0  0  0  0  0  0  0  0
   41.8290   35.3980   41.5920 S   0  0  0  0  0  0  0  0  0  0  0  0
   42.6060   33.9750   40.6370 C   0  0  0  0  0  0  0  0  0  0  0  0
   43.6910   34.0000   40.9550 N   0  0  0  0  0  0  0  0  0  0  0  0
   43.7480   36.5580   43.0680 H   0  0  0  0  0  0  0  0  0  0  0  0
   41.5260   35.3110   38.0890 Cl  0  0  0  0  0  0  0  0  0  0  0  0
   41.1690   33.6880   38.5900 C   0  0  0  0  0  0  0  0  0  0  0  0
   41.6890   33.1760   39.7300 C   0  0  0  0  0  0  0  0  0  0  0  0
   41.4770   31.9240   40.2150 C   0  0  0  0  0  0  0  0  0  0  0  0
   41.9000   31.5300   41.1300 H   0  0  0  0  0  0  0  0  0  0  0  0
   40.6570   31.0950   39.4790 C   0  0  0  0  0  0  0  0  0  0  0  0
   40.4120   30.0820   39.7570 H   0  0  0  0  0  0  0  0  0  0  0  0
   40.1000   31.5730   38.3020 C   0  0  0  0  0  3  0  0  0  0  0  0
   40.3340   32.8670   37.8250 C   0  0  0  0  0  3  0  0  0  0  0  0
   46.6500   34.2780   41.0520 C   0  0  0  0  0  0  0  0  0  0  0  0
   46.2110   33.3950   40.6030 H   0  0  0  0  0  0  0  0  0  0  0  0
   46.6130   35.0680   40.2420 H   0  0  0  0  0  0  0  0  0  0  0  0
   48.0490   34.0680   41.4690 C   0  0  0  0  0  0  0  0  0  0  0  0
   48.6480   32.8470   41.1050 C   0  0  0  0  0  0  0  0  0  0  0  0
   49.9570   32.6080   41.4770 C   0  0  0  0  0  0  0  0  0  0  0  0
   50.6240   33.5670   42.1850 N   0  0  0  0  0  0  0  0  0  0  0  0
   50.0150   34.7260   42.5160 C   0  0  0  0  0  0  0  0  0  0  0  0
   48.7620   34.9480   42.1570 N   0  0  0  0  0  0  0  0  0  0  0  0
   50.3810   31.6560   41.1780 H   0  0  0  0  0  0  0  0  0  0  0  0
   50.6380   35.4160   43.0770 H   0  0  0  0  0  0  0  0  0  0  0  0
   47.7070   31.6260   40.1700 S   0  0  0  0  0  0  0  0  0  0  0  0
   47.0500   30.7560   41.0660 H   0  0  0  0  0  0  0  0  0  0  0  0
  1  2  1  0  0  0  0
  1  3  1  0  0  0  0
  4  1  1  0  0  0  0
  4  5  2  0  0  0  0
  5  9  1  0  0  0  0
  6  5  1  0  0  0  0
  7  8  2  0  0  0  0
  7  6  1  0  0  0  0
  8  4  1  0  0  0  0
 10 11  1  0  0  0  0
 11 12  1  0  0  0  0
 12 13  2  0  0  0  0
 12  7  1  0  0  0  0
 13 14  1  0  0  0  0
 15 16  1  0  0  0  0
 15 13  1  0  0  0  0
 17 15  2  0  0  0  0
 18 17  1  0  0  0  0
 18 11  2  0  0  0  0
 19 22  1  0  0  0  0
 19  1  1  0  0  0  0
 20 19  1  0  0  0  0
 21 19  1  0  0  0  0
 22 27  1  0  0  0  0
 23 22  2  0  0  0  0
 23 24  1  0  0  0  0
 24 25  2  0  0  0  0
 25 26  1  0  0  0  0
 26 29  1  0  0  0  0
 27 26  2  0  0  0  0
 28 24  1  0  0  0  0
 30 31  1  0  0  0  0
 30 23  1  0  0  0  0
M  END
>  <minimizedAffinity>
-4.41075516

>  <minimizedRMSD>
1.32403851

$$$$
