
 OpenBabel03252506183D

 23 24  0  0  0  0  0  0  0  0999 V2000
   44.8270   35.5150   43.6990 C   0  0  0  0  0  0  0  0  0  0  0  0
   43.9960   35.2580   42.5920 C   0  0  0  0  0  0  0  0  0  0  0  0
   43.9750   33.9410   42.1020 C   0  0  0  0  0  0  0  0  0  0  0  0
   44.7360   33.0020   42.7040 N   0  0  0  0  0  0  0  0  0  0  0  0
   45.5230   33.2960   43.7720 C   0  0  0  0  0  0  0  0  0  0  0  0
   45.5660   34.5500   44.2660 N   0  0  0  0  0  0  0  0  0  0  0  0
   43.4080   36.0470   42.1490 H   0  0  0  0  0  0  0  0  0  0  0  0
   43.3410   33.7310   41.2520 H   0  0  0  0  0  0  0  0  0  0  0  0
   47.8560   32.3630   42.0770 Cl  0  0  0  0  0  0  0  0  0  0  0  0
   47.4070   31.7310   43.6290 C   0  0  0  0  0  0  0  0  0  0  0  0
   46.3140   32.2100   44.3580 C   0  0  0  0  0  0  0  0  0  0  0  0
   45.9340   31.7320   45.5870 C   0  0  0  0  0  0  0  0  0  0  0  0
   45.0830   32.1290   46.1190 H   0  0  0  0  0  0  0  0  0  0  0  0
   46.7040   30.7110   46.1040 C   0  0  0  0  0  0  0  0  0  0  0  0
   46.4440   30.2950   47.0790 H   0  0  0  0  0  0  0  0  0  0  0  0
   47.8020   30.1600   45.4760 C   0  0  0  0  0  3  0  0  0  0  0  0
   48.1090   30.7080   44.2400 C   0  0  0  0  0  3  0  0  0  0  0  0
   44.8630   36.8920   44.2290 C   0  0  0  0  0  3  0  0  0  0  0  0
   45.3290   37.8410   43.4450 C   0  0  0  0  0  3  0  0  0  0  0  0
   45.3860   39.2490   43.9340 C   0  0  0  0  0  0  0  0  0  0  0  0
   45.9560   39.2210   44.8970 H   0  0  0  0  0  0  0  0  0  0  0  0
   45.9470   39.8910   43.2420 H   0  0  0  0  0  0  0  0  0  0  0  0
   44.3540   39.6380   44.1330 H   0  0  0  0  0  0  0  0  0  0  0  0
  1 18  1  0  0  0  0
  1  6  1  0  0  0  0
  2  1  2  0  0  0  0
  3  2  1  0  0  0  0
  3  4  2  0  0  0  0
  4  5  1  0  0  0  0
  5  6  2  0  0  0  0
  5 11  1  0  0  0  0
  7  2  1  0  0  0  0
  8  3  1  0  0  0  0
  9 10  1  0  0  0  0
 10 17  2  0  0  0  0
 10 11  1  0  0  0  0
 11 12  2  0  0  0  0
 12 14  1  0  0  0  0
 12 13  1  0  0  0  0
 14 15  1  0  0  0  0
 16 14  2  0  0  0  0
 17 16  1  0  0  0  0
 19 20  1  0  0  0  0
 19 18  2  0  0  0  0
 20 23  1  0  0  0  0
 20 21  1  0  0  0  0
 22 20  1  0  0  0  0
M  END
>  <minimizedAffinity>
-3.35222983

>  <minimizedRMSD>
0.795473993

$$$$
