
 OpenBabel03252506183D

 23 24  0  0  0  0  0  0  0  0999 V2000
   44.8270   35.5150   43.7000 C   0  0  0  0  0  0  0  0  0  0  0  0
   43.9970   35.2580   42.5920 C   0  0  0  0  0  0  0  0  0  0  0  0
   43.9750   33.9410   42.1020 C   0  0  0  0  0  0  0  0  0  0  0  0
   44.7360   33.0020   42.7050 N   0  0  0  0  0  0  0  0  0  0  0  0
   45.5230   33.2960   43.7730 C   0  0  0  0  0  0  0  0  0  0  0  0
   45.5660   34.5500   44.2660 N   0  0  0  0  0  0  0  0  0  0  0  0
   43.4090   36.0470   42.1480 H   0  0  0  0  0  0  0  0  0  0  0  0
   43.3420   33.7310   41.2520 H   0  0  0  0  0  0  0  0  0  0  0  0
   47.8550   32.3630   42.0770 Cl  0  0  0  0  0  0  0  0  0  0  0  0
   47.4060   31.7320   43.6290 C   0  0  0  0  0  0  0  0  0  0  0  0
   46.3130   32.2100   44.3590 C   0  0  0  0  0  0  0  0  0  0  0  0
   45.9340   31.7310   45.5870 C   0  0  0  0  0  0  0  0  0  0  0  0
   45.0830   32.1280   46.1190 H   0  0  0  0  0  0  0  0  0  0  0  0
   46.7040   30.7100   46.1050 C   0  0  0  0  0  0  0  0  0  0  0  0
   46.4440   30.2940   47.0780 H   0  0  0  0  0  0  0  0  0  0  0  0
   47.8010   30.1590   45.4760 C   0  0  0  0  0  3  0  0  0  0  0  0
   48.1080   30.7080   44.2400 C   0  0  0  0  0  3  0  0  0  0  0  0
   44.8620   36.8920   44.2290 C   0  0  0  0  0  3  0  0  0  0  0  0
   45.3290   37.8410   43.4450 C   0  0  0  0  0  3  0  0  0  0  0  0
   45.3860   39.2490   43.9340 C   0  0  0  0  0  0  0  0  0  0  0  0
   45.9560   39.2210   44.8970 H   0  0  0  0  0  0  0  0  0  0  0  0
   45.9470   39.8910   43.2420 H   0  0  0  0  0  0  0  0  0  0  0  0
   44.3540   39.6380   44.1320 H   0  0  0  0  0  0  0  0  0  0  0  0
  1 18  1  0  0  0  0
  1  6  1  0  0  0  0
  2  1  2  0  0  0  0
  3  2  1  0  0  0  0
  3  4  2  0  0  0  0
  4  5  1  0  0  0  0
  5  6  2  0  0  0  0
  5 11  1  0  0  0  0
  7  2  1  0  0  0  0
  8  3  1  0  0  0  0
  9 10  1  0  0  0  0
 10 17  2  0  0  0  0
 10 11  1  0  0  0  0
 11 12  2  0  0  0  0
 12 14  1  0  0  0  0
 12 13  1  0  0  0  0
 14 15  1  0  0  0  0
 16 14  2  0  0  0  0
 17 16  1  0  0  0  0
 19 20  1  0  0  0  0
 19 18  2  0  0  0  0
 20 23  1  0  0  0  0
 20 21  1  0  0  0  0
 22 20  1  0  0  0  0
M  END
>  <minimizedAffinity>
-3.35198379

>  <minimizedRMSD>
1.29460704

$$$$
