
 OpenBabel03242523233D

 43 46  0  0  1  0  0  0  0  0999 V2000
   47.5030   32.8310   43.6410 C   0  0  0  0  0  0  0  0  0  0  0  0
   48.1120   33.3300   42.5660 C   0  0  0  0  0  0  0  0  0  0  0  0
   48.9890   32.4670   41.9460 C   0  0  0  0  0  0  0  0  0  0  0  0
   49.1550   31.1830   42.4900 N   0  0  0  0  0  0  0  0  0  0  0  0
   48.5190   30.7600   43.5580 C   0  0  0  0  0  0  0  0  0  0  0  0
   47.6360   31.5940   44.2010 N   0  0  0  0  0  0  0  0  0  0  0  0
   49.5750   32.6880   41.0630 H   0  0  0  0  0  0  0  0  0  0  0  0
   48.7700   29.7410   43.8370 H   0  0  0  0  0  0  0  0  0  0  0  0
   48.0340   34.6560   42.0660 C   0  0  1  0  0  0  0  0  0  0  0  0
   48.8550   35.2980   41.2070 C   0  0  0  0  0  0  0  0  0  0  0  0
   47.4940   34.9130   40.6520 C   0  0  1  0  0  0  0  0  0  0  0  0
   47.6590   35.3480   42.8470 H   0  0  0  0  0  0  0  0  0  0  0  0
   49.0360   36.4120   41.0880 H   0  0  0  0  0  0  0  0  0  0  0  0
   49.7910   34.8010   40.8740 H   0  0  0  0  0  0  0  0  0  0  0  0
   46.7190   35.7070   40.6290 H   0  0  0  0  0  0  0  0  0  0  0  0
   45.9410   32.2110   40.0880 Cl  0  0  0  0  0  0  0  0  0  0  0  0
   47.1300   32.9230   39.0590 C   0  0  0  0  0  0  0  0  0  0  0  0
   47.6660   34.1330   39.4800 C   0  0  0  0  0  0  0  0  0  0  0  0
   48.5830   34.6170   38.5200 C   0  0  0  0  0  0  0  0  0  0  0  0
   49.1010   35.5740   38.7010 H   0  0  0  0  0  0  0  0  0  0  0  0
   48.9190   34.0050   37.3340 C   0  0  0  0  0  0  0  0  0  0  0  0
   49.6320   34.4490   36.6590 H   0  0  0  0  0  0  0  0  0  0  0  0
   48.3250   32.8220   37.0370 C   0  0  0  0  0  0  0  0  0  0  0  0
   47.4200   32.2710   37.9050 C   0  0  0  0  0  0  0  0  0  0  0  0
   46.4740   33.5050   44.4620 C   0  0  0  0  0  0  0  0  0  0  0  0
   45.9800   33.8710   45.4880 O   0  0  0  0  0  0  0  0  0  0  0  0
   44.5280   31.5770   43.0410 Cl  0  0  0  0  0  0  0  0  0  0  0  0
   44.4830   33.3230   42.8010 C   0  0  0  0  0  0  0  0  0  0  0  0
   45.4350   34.0670   43.5410 C   0  0  0  0  0  0  0  0  0  0  0  0
   45.2940   35.4110   43.2690 C   0  0  0  0  0  0  0  0  0  0  0  0
   44.4600   36.0580   42.4690 C   0  0  0  0  0  0  0  0  0  0  0  0
   43.5700   35.2640   41.7850 C   0  0  0  0  0  0  0  0  0  0  0  0
   43.5690   33.9100   41.9400 C   0  0  0  0  0  0  0  0  0  0  0  0
   45.9660   36.1140   43.8190 H   0  0  0  0  0  0  0  0  0  0  0  0
   44.4320   37.1330   42.3200 H   0  0  0  0  0  0  0  0  0  0  0  0
   42.8540   35.7610   41.1030 H   0  0  0  0  0  0  0  0  0  0  0  0
   42.6330   33.2370   41.2060 O   0  0  0  0  0  0  0  0  0  0  0  0
   40.2840   32.6210   40.2190 O   0  0  0  0  0  0  0  0  0  0  0  0
   40.9990   32.9610   41.5050 P   0  0  0  0  0  0  0  0  0  0  0  0
   40.8480   31.7050   42.6380 O   0  0  0  0  0  0  0  0  0  0  0  0
   41.1470   30.8740   42.2130 H   0  0  0  0  0  0  0  0  0  0  0  0
   40.2750   34.3110   42.2400 O   0  0  0  0  0  0  0  0  0  0  0  0
   40.8270   35.1230   42.1550 H   0  0  0  0  0  0  0  0  0  0  0  0
  1  6  1  0  0  0  0
  1 25  1  0  0  0  0
  2  1  2  0  0  0  0
  3  4  2  0  0  0  0
  3  2  1  0  0  0  0
  4  5  1  0  0  0  0
  5  8  1  0  0  0  0
  5  6  2  0  0  0  0
  7  3  1  0  0  0  0
  9  2  1  0  0  0  0
  9 12  1  1  0  0  0
 10  9  1  0  0  0  0
 11 15  1  6  0  0  0
 11 10  1  0  0  0  0
 11  9  1  0  0  0  0
 13 10  1  0  0  0  0
 14 10  1  0  0  0  0
 17 18  1  0  0  0  0
 17 16  1  0  0  0  0
 18 11  1  0  0  0  0
 19 20  1  0  0  0  0
 19 18  2  0  0  0  0
 21 19  1  0  0  0  0
 22 21  1  0  0  0  0
 23 21  2  0  0  0  0
 23 24  1  0  0  0  0
 24 17  2  0  0  0  0
 25 26  2  0  0  0  0
 28 27  1  0  0  0  0
 28 29  1  0  0  0  0
 29 25  1  0  0  0  0
 30 29  2  0  0  0  0
 30 34  1  0  0  0  0
 31 30  1  0  0  0  0
 32 33  1  0  0  0  0
 32 31  2  0  0  0  0
 33 28  2  0  0  0  0
 35 31  1  0  0  0  0
 36 32  1  0  0  0  0
 37 39  1  0  0  0  0
 37 33  1  0  0  0  0
 38 39  2  0  0  0  0
 39 42  1  0  0  0  0
 39 40  1  0  0  0  0
 41 40  1  0  0  0  0
 43 42  1  0  0  0  0
M  END
>  <minimizedAffinity>
-6.15416908

>  <minimizedRMSD>
0.800188184

$$$$
