REMARK  Name = 
REMARK  3 active torsions:
REMARK  status: ('A' for Active; 'I' for Inactive)
REMARK    1  A    between atoms: C_1  and  C_7
REMARK    2  A    between atoms: C_5  and  C_19
REMARK    3  A    between atoms: C_8  and  C_9
REMARK                            x       y       z     vdW  Elec       q    Type
REMARK                         _______ _______ _______ _____ _____    ______ ____
ROOT
ATOM      1  C   UNL     1      44.679  35.521  43.594  0.00  0.00    +0.000 A 
ATOM      2  C   UNL     1      43.927  35.432  42.407  0.00  0.00    +0.000 A 
ATOM      3  C   UNL     1      43.782  34.156  41.837  0.00  0.00    +0.000 A 
ATOM      4  N   UNL     1      44.358  33.095  42.442  0.00  0.00    +0.000 NA
ATOM      5  C   UNL     1      45.075  33.228  43.588  0.00  0.00    +0.000 A 
ATOM      6  N   UNL     1      45.233  34.439  44.160  0.00  0.00    +0.000 NA
ATOM      7  H   UNL     1      43.488  36.314  41.965  0.00  0.00    +0.000 HD
ATOM      8  H   UNL     1      43.207  34.075  40.925  0.00  0.00    +0.000 HD
ENDROOT
BRANCH   5  11
ATOM      9 CL   UNL     1      47.200  33.735  45.688  0.00  0.00    +0.000 Cl
ATOM     10  C   UNL     1      46.652  32.181  45.148  0.00  0.00    +0.000 A 
ATOM     11  C   UNL     1      45.663  32.019  44.171  0.00  0.00    +0.000 A 
ATOM     12  C   UNL     1      45.209  30.804  43.724  0.00  0.00    +0.000 A 
ATOM     13  H   UNL     1      44.444  30.722  42.967  0.00  0.00    +0.000 HD
ATOM     14  C   UNL     1      45.788  29.691  44.298  0.00  0.00    +0.000 A 
ATOM     15  H   UNL     1      45.462  28.701  43.977  0.00  0.00    +0.000 HD
ATOM     16  C   UNL     1      46.769  29.729  45.268  0.00  0.00    +0.000 A 
ATOM     17  C   UNL     1      47.164  31.000  45.657  0.00  0.00    +0.000 A 
ENDBRANCH   5  11
BRANCH   1  18
ATOM     18  C   UNL     1      44.842  36.853  44.208  0.00  0.00    +0.000 C 
ATOM     19  C   UNL     1      45.251  37.839  43.439  0.00  0.00    +0.000 C 
BRANCH  19  20
ATOM     20  C   UNL     1      45.432  39.204  44.012  0.00  0.00    +0.000 C 
ATOM     21  H   UNL     1      46.114  39.084  44.891  0.00  0.00    +0.000 HD
ATOM     22  H   UNL     1      45.932  39.875  43.301  0.00  0.00    +0.000 HD
ATOM     23  H   UNL     1      44.451  39.615  44.366  0.00  0.00    +0.000 HD
ENDBRANCH  19  20
ENDBRANCH   1  18
TORSDOF 3
