
 OpenBabel03242510143D

 42 45  0  0  1  0  0  0  0  0999 V2000
   37.9400   29.7430   41.5830 N   0  0  0  0  0  0  0  0  0  0  0  0
   38.3900   29.4720   42.9510 C   0  0  0  0  0  0  0  0  0  0  0  0
   38.7670   28.0260   43.1460 C   0  0  0  0  0  0  0  0  0  0  0  0
   37.6270   27.1540   42.9890 N   0  0  0  0  0  0  0  0  0  0  0  0
   36.6110   27.8500   42.2110 C   0  0  0  0  0  0  0  0  0  0  0  0
   37.2640   28.5770   41.0680 C   0  0  1  0  0  0  0  0  0  0  0  0
   39.3500   30.0520   43.0660 H   0  0  0  0  0  0  0  0  0  0  0  0
   37.7050   29.8620   43.7030 H   0  0  0  0  0  0  0  0  0  0  0  0
   39.4900   27.7620   42.3410 H   0  0  0  0  0  0  0  0  0  0  0  0
   39.2600   27.9220   44.1240 H   0  0  0  0  0  0  0  0  0  0  0  0
   37.2620   26.7480   43.8570 H   0  0  0  0  0  0  0  0  0  0  0  0
   36.2040   28.6140   42.9310 H   0  0  0  0  0  0  0  0  0  0  0  0
   35.7960   27.1810   41.8900 H   0  0  0  0  0  0  0  0  0  0  0  0
   38.1540   27.8840   40.8070 H   0  0  0  0  0  0  0  0  0  0  0  0
   40.8580   30.2080   40.5440 Br  0  0  0  0  0  0  0  0  0  0  0  0
   39.3140   31.3100   40.2710 C   0  0  0  0  0  0  0  0  0  0  0  0
   39.4350   32.4550   39.5360 C   0  0  0  0  0  0  0  0  0  0  0  0
   38.3170   33.2810   39.3340 C   0  0  0  0  0  0  0  0  0  0  0  0
   37.1150   32.9020   39.8930 C   0  0  0  0  0  0  0  0  0  0  0  0
   37.0610   31.7300   40.6260 C   0  0  0  0  0  0  0  0  0  0  0  0
   38.1190   30.9240   40.8310 C   0  0  0  0  0  0  0  0  0  0  0  0
   38.5010   34.1720   38.7380 H   0  0  0  0  0  0  0  0  0  0  0  0
   36.3060   33.5900   39.6920 H   0  0  0  0  0  0  0  0  0  0  0  0
   36.0520   31.6050   40.9930 H   0  0  0  0  0  0  0  0  0  0  0  0
   42.7670   33.8880   39.1620 C   0  0  0  0  0  0  0  0  0  0  0  0
   43.1590   33.4890   37.8540 C   0  0  0  0  0  0  0  0  0  0  0  0
   42.2440   32.7250   37.1320 C   0  0  0  0  0  0  0  0  0  0  0  0
   41.0590   32.4100   37.6980 N   0  0  0  0  0  0  0  0  0  0  0  0
   40.7190   32.8170   38.9690 C   0  0  0  0  0  0  0  0  0  0  0  0
   41.5880   33.5510   39.6730 N   0  0  0  0  0  0  0  0  0  0  0  0
   43.5400   34.4740   39.6380 H   0  0  0  0  0  0  0  0  0  0  0  0
   44.0770   33.7120   37.3680 H   0  0  0  0  0  0  0  0  0  0  0  0
   42.3710   32.3360   36.1300 H   0  0  0  0  0  0  0  0  0  0  0  0
   38.6370   28.2990   38.3070 Cl  0  0  0  0  0  0  0  0  0  0  0  0
   36.9290   28.5570   38.5640 C   0  0  0  0  0  0  0  0  0  0  0  0
   36.4860   28.6940   39.8660 C   0  0  0  0  0  0  0  0  0  0  0  0
   35.1020   28.9390   39.9010 C   0  0  0  0  0  0  0  0  0  0  0  0
   34.6540   29.0630   40.8970 H   0  0  0  0  0  0  0  0  0  0  0  0
   34.2510   29.0370   38.8220 C   0  0  0  0  0  0  0  0  0  0  0  0
   33.2020   29.2290   38.9970 H   0  0  0  0  0  0  0  0  0  0  0  0
   34.8120   28.8810   37.5740 C   0  0  0  0  0  3  0  0  0  0  0  0
   36.1620   28.6380   37.4280 C   0  0  0  0  0  3  0  0  0  0  0  0
  1  2  1  0  0  0  0
  2  7  1  0  0  0  0
  2  3  1  0  0  0  0
  2  8  1  0  0  0  0
  3 10  1  0  0  0  0
  4  3  1  0  0  0  0
  4 11  1  0  0  0  0
  5 12  1  0  0  0  0
  5  4  1  0  0  0  0
  6 14  1  6  0  0  0
  6  1  1  0  0  0  0
  6  5  1  0  0  0  0
  9  3  1  0  0  0  0
 13  5  1  0  0  0  0
 16 15  1  0  0  0  0
 16 21  1  0  0  0  0
 17 16  2  0  0  0  0
 18 17  1  0  0  0  0
 18 19  2  0  0  0  0
 19 20  1  0  0  0  0
 20 21  2  0  0  0  0
 20 24  1  0  0  0  0
 21  1  1  0  0  0  0
 22 18  1  0  0  0  0
 23 19  1  0  0  0  0
 25 31  1  0  0  0  0
 25 30  1  0  0  0  0
 26 25  2  0  0  0  0
 27 28  2  0  0  0  0
 27 26  1  0  0  0  0
 28 29  1  0  0  0  0
 29 17  1  0  0  0  0
 29 30  2  0  0  0  0
 32 26  1  0  0  0  0
 33 27  1  0  0  0  0
 34 35  1  0  0  0  0
 35 36  1  0  0  0  0
 36 37  2  0  0  0  0
 36  6  1  0  0  0  0
 37 38  1  0  0  0  0
 39 40  1  0  0  0  0
 39 37  1  0  0  0  0
 41 39  2  0  0  0  0
 42 41  1  0  0  0  0
 42 35  2  0  0  0  0
M  END
>  <minimizedAffinity>
-5.99082184

$$$$

 OpenBabel03242510143D

 42 45  0  0  1  0  0  0  0  0999 V2000
   38.6320   30.7400   39.5250 N   0  0  0  0  0  0  0  0  0  0  0  0
   39.3220   31.9300   40.0280 C   0  0  0  0  0  0  0  0  0  0  0  0
   38.4100   32.8090   40.8460 C   0  0  0  0  0  0  0  0  0  0  0  0
   37.3400   33.3560   40.0440 N   0  0  0  0  0  0  0  0  0  0  0  0
   37.1670   32.5180   38.8650 C   0  0  0  0  0  0  0  0  0  0  0  0
   37.2520   31.0700   39.2590 C   0  0  1  0  0  0  0  0  0  0  0  0
   40.0930   31.5400   40.7520 H   0  0  0  0  0  0  0  0  0  0  0  0
   39.8730   32.4570   39.2500 H   0  0  0  0  0  0  0  0  0  0  0  0
   37.9370   32.1630   41.6210 H   0  0  0  0  0  0  0  0  0  0  0  0
   39.0190   33.5800   41.3400 H   0  0  0  0  0  0  0  0  0  0  0  0
   37.4240   34.3530   39.8220 H   0  0  0  0  0  0  0  0  0  0  0  0
   38.0640   32.7670   38.2300 H   0  0  0  0  0  0  0  0  0  0  0  0
   36.2470   32.7620   38.3080 H   0  0  0  0  0  0  0  0  0  0  0  0
   36.8010   31.0740   40.3260 H   0  0  0  0  0  0  0  0  0  0  0  0
   38.4980   28.8560   42.0240 Br  0  0  0  0  0  0  0  0  0  0  0  0
   39.1940   28.4650   40.2810 C   0  0  0  0  0  0  0  0  0  0  0  0
   39.7090   27.2240   40.0340 C   0  0  0  0  0  0  0  0  0  0  0  0
   40.2330   26.9220   38.7670 C   0  0  0  0  0  0  0  0  0  0  0  0
   40.2110   27.9030   37.7990 C   0  0  0  0  0  0  0  0  0  0  0  0
   39.6760   29.1400   38.1160 C   0  0  0  0  0  0  0  0  0  0  0  0
   39.1670   29.4490   39.3220 C   0  0  0  0  0  0  0  0  0  0  0  0
   40.6220   25.9120   38.6550 H   0  0  0  0  0  0  0  0  0  0  0  0
   40.6330   27.5920   36.8540 H   0  0  0  0  0  0  0  0  0  0  0  0
   39.7560   29.7770   37.2460 H   0  0  0  0  0  0  0  0  0  0  0  0
   38.6670   24.4810   42.1980 C   0  0  0  0  0  0  0  0  0  0  0  0
   39.7610   24.3240   43.0930 C   0  0  0  0  0  0  0  0  0  0  0  0
   40.8420   25.1870   42.9160 C   0  0  0  0  0  0  0  0  0  0  0  0
   40.7960   26.1050   41.9270 N   0  0  0  0  0  0  0  0  0  0  0  0
   39.7150   26.2230   41.0820 C   0  0  0  0  0  0  0  0  0  0  0  0
   38.6710   25.4020   41.2410 N   0  0  0  0  0  0  0  0  0  0  0  0
   37.8820   23.7710   42.4160 H   0  0  0  0  0  0  0  0  0  0  0  0
   39.8430   23.6190   43.8840 H   0  0  0  0  0  0  0  0  0  0  0  0
   41.7540   25.2120   43.4990 H   0  0  0  0  0  0  0  0  0  0  0  0
   35.2490   29.1950   40.6930 Cl  0  0  0  0  0  0  0  0  0  0  0  0
   35.4860   29.2870   38.9660 C   0  0  0  0  0  0  0  0  0  0  0  0
   36.4500   30.1570   38.4920 C   0  0  0  0  0  0  0  0  0  0  0  0
   36.5480   30.0820   37.0920 C   0  0  0  0  0  0  0  0  0  0  0  0
   37.2910   30.7400   36.6200 H   0  0  0  0  0  0  0  0  0  0  0  0
   35.8120   29.2750   36.2520 C   0  0  0  0  0  0  0  0  0  0  0  0
   35.9940   29.3210   35.1880 H   0  0  0  0  0  0  0  0  0  0  0  0
   34.8800   28.4520   36.8450 C   0  0  0  0  0  3  0  0  0  0  0  0
   34.7040   28.4470   38.2130 C   0  0  0  0  0  3  0  0  0  0  0  0
  1  2  1  0  0  0  0
  2  7  1  0  0  0  0
  2  3  1  0  0  0  0
  3 10  1  0  0  0  0
  3  9  1  0  0  0  0
  4  3  1  0  0  0  0
  5  6  1  0  0  0  0
  5  4  1  0  0  0  0
  6  1  1  0  0  0  0
  6 14  1  1  0  0  0
  8  2  1  0  0  0  0
 11  4  1  0  0  0  0
 12  5  1  0  0  0  0
 13  5  1  0  0  0  0
 16 15  1  0  0  0  0
 17 16  1  0  0  0  0
 17 29  1  0  0  0  0
 18 17  2  0  0  0  0
 19 20  2  0  0  0  0
 19 18  1  0  0  0  0
 20 21  1  0  0  0  0
 21  1  1  0  0  0  0
 21 16  2  0  0  0  0
 22 18  1  0  0  0  0
 23 19  1  0  0  0  0
 24 20  1  0  0  0  0
 25 31  1  0  0  0  0
 25 26  1  0  0  0  0
 26 32  1  0  0  0  0
 27 26  2  0  0  0  0
 27 33  1  0  0  0  0
 28 27  1  0  0  0  0
 29 30  1  0  0  0  0
 29 28  2  0  0  0  0
 30 25  2  0  0  0  0
 35 34  1  0  0  0  0
 36 35  1  0  0  0  0
 36  6  1  0  0  0  0
 37 36  2  0  0  0  0
 38 37  1  0  0  0  0
 39 41  2  0  0  0  0
 39 37  1  0  0  0  0
 40 39  1  0  0  0  0
 41 42  1  0  0  0  0
 42 35  2  0  0  0  0
M  END
>  <minimizedAffinity>
-5.89149761

$$$$

 OpenBabel03242510143D

 42 45  0  0  1  0  0  0  0  0999 V2000
   37.1300   28.4590   38.0280 N   0  0  0  0  0  0  0  0  0  0  0  0
   36.6230   27.5420   37.0040 C   0  0  0  0  0  0  0  0  0  0  0  0
   37.4720   27.5620   35.7580 C   0  0  0  0  0  0  0  0  0  0  0  0
   37.4290   28.8490   35.1060 N   0  0  0  0  0  0  0  0  0  0  0  0
   37.0200   29.8510   36.0810 C   0  0  0  0  0  0  0  0  0  0  0  0
   37.7280   29.6040   37.3840 C   0  0  1  0  0  0  0  0  0  0  0  0
   36.7520   26.5120   37.4410 H   0  0  0  0  0  0  0  0  0  0  0  0
   35.5560   27.6650   36.8210 H   0  0  0  0  0  0  0  0  0  0  0  0
   38.5260   27.3930   36.0750 H   0  0  0  0  0  0  0  0  0  0  0  0
   37.1530   26.7350   35.1060 H   0  0  0  0  0  0  0  0  0  0  0  0
   36.8840   28.8840   34.2390 H   0  0  0  0  0  0  0  0  0  0  0  0
   35.9230   29.6450   36.2270 H   0  0  0  0  0  0  0  0  0  0  0  0
   37.1510   30.8800   35.7050 H   0  0  0  0  0  0  0  0  0  0  0  0
   38.7460   29.1750   37.0380 H   0  0  0  0  0  0  0  0  0  0  0  0
   39.6270   27.0320   39.2690 Br  0  0  0  0  0  0  0  0  0  0  0  0
   38.0820   27.7160   40.1740 C   0  0  0  0  0  0  0  0  0  0  0  0
   38.0010   27.6000   41.5330 C   0  0  0  0  0  0  0  0  0  0  0  0
   36.8720   28.0850   42.2130 C   0  0  0  0  0  0  0  0  0  0  0  0
   35.8670   28.6730   41.4740 C   0  0  0  0  0  0  0  0  0  0  0  0
   36.0110   28.7580   40.1010 C   0  0  0  0  0  0  0  0  0  0  0  0
   37.0850   28.3010   39.4300 C   0  0  0  0  0  0  0  0  0  0  0  0
   36.8890   27.9530   43.2920 H   0  0  0  0  0  0  0  0  0  0  0  0
   35.0350   29.0190   42.0700 H   0  0  0  0  0  0  0  0  0  0  0  0
   35.1290   29.2310   39.6960 H   0  0  0  0  0  0  0  0  0  0  0  0
   40.0620   25.0680   43.1560 C   0  0  0  0  0  0  0  0  0  0  0  0
   41.1560   25.8100   43.6800 C   0  0  0  0  0  0  0  0  0  0  0  0
   41.1460   27.1850   43.4510 C   0  0  0  0  0  0  0  0  0  0  0  0
   40.1220   27.7290   42.7590 N   0  0  0  0  0  0  0  0  0  0  0  0
   39.0800   26.9720   42.2690 C   0  0  0  0  0  0  0  0  0  0  0  0
   39.0770   25.6520   42.4830 N   0  0  0  0  0  0  0  0  0  0  0  0
   40.1600   24.0170   43.3860 H   0  0  0  0  0  0  0  0  0  0  0  0
   41.9820   25.4280   44.2280 H   0  0  0  0  0  0  0  0  0  0  0  0
   41.8910   27.9020   43.7720 H   0  0  0  0  0  0  0  0  0  0  0  0
   40.6640   30.2320   38.1370 Cl  0  0  0  0  0  0  0  0  0  0  0  0
   39.2830   31.2140   38.5560 C   0  0  0  0  0  0  0  0  0  0  0  0
   38.0330   30.7680   38.1690 C   0  0  0  0  0  0  0  0  0  0  0  0
   37.0280   31.6420   38.6180 C   0  0  0  0  0  0  0  0  0  0  0  0
   35.9950   31.3720   38.3590 H   0  0  0  0  0  0  0  0  0  0  0  0
   37.2010   32.8000   39.3450 C   0  0  0  0  0  0  0  0  0  0  0  0
   36.3320   33.3800   39.6230 H   0  0  0  0  0  0  0  0  0  0  0  0
   38.4960   33.1400   39.6690 C   0  0  0  0  0  3  0  0  0  0  0  0
   39.5570   32.3490   39.2770 C   0  0  0  0  0  3  0  0  0  0  0  0
  1 21  1  0  0  0  0
  2  7  1  0  0  0  0
  2  1  1  0  0  0  0
  3  9  1  0  0  0  0
  3  2  1  0  0  0  0
  4  3  1  0  0  0  0
  4  5  1  0  0  0  0
  5 12  1  0  0  0  0
  5  6  1  0  0  0  0
  6 14  1  6  0  0  0
  6  1  1  0  0  0  0
  6 36  1  0  0  0  0
  8  2  1  0  0  0  0
 10  3  1  0  0  0  0
 11  4  1  0  0  0  0
 13  5  1  0  0  0  0
 15 16  1  0  0  0  0
 16 17  1  0  0  0  0
 17 18  2  0  0  0  0
 17 29  1  0  0  0  0
 18 22  1  0  0  0  0
 19 23  1  0  0  0  0
 19 18  1  0  0  0  0
 20 19  2  0  0  0  0
 21 20  1  0  0  0  0
 21 16  2  0  0  0  0
 24 20  1  0  0  0  0
 25 31  1  0  0  0  0
 25 26  1  0  0  0  0
 26 32  1  0  0  0  0
 27 26  2  0  0  0  0
 27 33  1  0  0  0  0
 28 27  1  0  0  0  0
 29 30  1  0  0  0  0
 29 28  2  0  0  0  0
 30 25  2  0  0  0  0
 34 35  1  0  0  0  0
 35 42  1  0  0  0  0
 36 35  2  0  0  0  0
 36 37  1  0  0  0  0
 37 39  2  0  0  0  0
 38 37  1  0  0  0  0
 39 40  1  0  0  0  0
 39 41  1  0  0  0  0
 42 41  2  0  0  0  0
M  END
>  <minimizedAffinity>
-5.78885841

$$$$

 OpenBabel03242510143D

 42 45  0  0  1  0  0  0  0  0999 V2000
   37.6130   25.7660   40.5880 N   0  0  0  0  0  0  0  0  0  0  0  0
   36.5050   25.2960   39.7530 C   0  0  0  0  0  0  0  0  0  0  0  0
   36.4770   23.7930   39.6440 C   0  0  0  0  0  0  0  0  0  0  0  0
   37.6470   23.2870   38.9650 N   0  0  0  0  0  0  0  0  0  0  0  0
   38.7030   24.2870   39.0500 C   0  0  0  0  0  0  0  0  0  0  0  0
   38.7340   24.8700   40.4350 C   0  0  1  0  0  0  0  0  0  0  0  0
   35.5710   25.5750   40.3170 H   0  0  0  0  0  0  0  0  0  0  0  0
   36.4510   25.8160   38.7960 H   0  0  0  0  0  0  0  0  0  0  0  0
   36.5030   23.3870   40.6810 H   0  0  0  0  0  0  0  0  0  0  0  0
   35.5340   23.4960   39.1620 H   0  0  0  0  0  0  0  0  0  0  0  0
   37.4880   22.9480   38.0110 H   0  0  0  0  0  0  0  0  0  0  0  0
   38.3660   25.0890   38.3340 H   0  0  0  0  0  0  0  0  0  0  0  0
   39.6800   23.8940   38.7220 H   0  0  0  0  0  0  0  0  0  0  0  0
   38.4110   23.9720   41.0910 H   0  0  0  0  0  0  0  0  0  0  0  0
   38.3390   28.4620   39.1690 Br  0  0  0  0  0  0  0  0  0  0  0  0
   37.9200   28.1710   41.0170 C   0  0  0  0  0  0  0  0  0  0  0  0
   37.9190   29.2350   41.8740 C   0  0  0  0  0  0  0  0  0  0  0  0
   37.6250   29.0400   43.2340 C   0  0  0  0  0  0  0  0  0  0  0  0
   37.3440   27.7610   43.6650 C   0  0  0  0  0  0  0  0  0  0  0  0
   37.3630   26.7280   42.7450 C   0  0  0  0  0  0  0  0  0  0  0  0
   37.6400   26.8930   41.4380 C   0  0  0  0  0  0  0  0  0  0  0  0
   37.6460   29.9390   43.8450 H   0  0  0  0  0  0  0  0  0  0  0  0
   37.1300   27.6960   44.7220 H   0  0  0  0  0  0  0  0  0  0  0  0
   37.1330   25.8080   43.2630 H   0  0  0  0  0  0  0  0  0  0  0  0
   39.7470   32.2790   41.0460 C   0  0  0  0  0  0  0  0  0  0  0  0
   38.7680   33.0990   40.4220 C   0  0  0  0  0  0  0  0  0  0  0  0
   37.4860   32.5650   40.3050 C   0  0  0  0  0  0  0  0  0  0  0  0
   37.2450   31.3240   40.7800 N   0  0  0  0  0  0  0  0  0  0  0  0
   38.2240   30.5620   41.3780 C   0  0  0  0  0  0  0  0  0  0  0  0
   39.4580   31.0630   41.4970 N   0  0  0  0  0  0  0  0  0  0  0  0
   40.7040   32.7800   41.0900 H   0  0  0  0  0  0  0  0  0  0  0  0
   38.9100   34.0790   40.0340 H   0  0  0  0  0  0  0  0  0  0  0  0
   36.6220   33.0430   39.8610 H   0  0  0  0  0  0  0  0  0  0  0  0
   39.5990   24.1310   43.3140 Cl  0  0  0  0  0  0  0  0  0  0  0  0
   40.5790   24.9950   42.1570 C   0  0  0  0  0  0  0  0  0  0  0  0
   40.0240   25.2740   40.9220 C   0  0  0  0  0  0  0  0  0  0  0  0
   40.9190   26.0090   40.1250 C   0  0  0  0  0  0  0  0  0  0  0  0
   40.5670   26.2810   39.1200 H   0  0  0  0  0  0  0  0  0  0  0  0
   42.1880   26.4220   40.4700 C   0  0  0  0  0  0  0  0  0  0  0  0
   42.7700   26.9840   39.7530 H   0  0  0  0  0  0  0  0  0  0  0  0
   42.6290   26.0800   41.7300 C   0  0  0  0  0  3  0  0  0  0  0  0
   41.8290   25.3600   42.5910 C   0  0  0  0  0  3  0  0  0  0  0  0
  1 21  1  0  0  0  0
  2  7  1  0  0  0  0
  2  1  1  0  0  0  0
  3  2  1  0  0  0  0
  3  9  1  0  0  0  0
  4  5  1  0  0  0  0
  4  3  1  0  0  0  0
  5  6  1  0  0  0  0
  6  1  1  0  0  0  0
  6 36  1  0  0  0  0
  6 14  1  1  0  0  0
  8  2  1  0  0  0  0
 10  3  1  0  0  0  0
 11  4  1  0  0  0  0
 12  5  1  0  0  0  0
 13  5  1  0  0  0  0
 15 16  1  0  0  0  0
 16 21  2  0  0  0  0
 16 17  1  0  0  0  0
 17 18  2  0  0  0  0
 18 19  1  0  0  0  0
 18 22  1  0  0  0  0
 19 23  1  0  0  0  0
 20 24  1  0  0  0  0
 20 19  2  0  0  0  0
 21 20  1  0  0  0  0
 25 31  1  0  0  0  0
 25 30  1  0  0  0  0
 26 25  2  0  0  0  0
 27 26  1  0  0  0  0
 27 28  2  0  0  0  0
 28 29  1  0  0  0  0
 29 30  2  0  0  0  0
 29 17  1  0  0  0  0
 32 26  1  0  0  0  0
 33 27  1  0  0  0  0
 35 42  1  0  0  0  0
 35 34  1  0  0  0  0
 36 35  2  0  0  0  0
 37 39  2  0  0  0  0
 37 36  1  0  0  0  0
 38 37  1  0  0  0  0
 39 41  1  0  0  0  0
 40 39  1  0  0  0  0
 41 42  2  0  0  0  0
M  END
>  <minimizedAffinity>
-5.76536226

$$$$

 OpenBabel03242510143D

 42 45  0  0  1  0  0  0  0  0999 V2000
   37.7740   30.3510   40.6120 N   0  0  0  0  0  0  0  0  0  0  0  0
   36.6710   31.0680   39.9680 C   0  0  0  0  0  0  0  0  0  0  0  0
   37.0810   31.6620   38.6440 C   0  0  0  0  0  0  0  0  0  0  0  0
   38.0930   32.6790   38.8080 N   0  0  0  0  0  0  0  0  0  0  0  0
   38.7610   32.4700   40.0860 C   0  0  0  0  0  0  0  0  0  0  0  0
   39.0190   31.0020   40.2840 C   0  0  1  0  0  0  0  0  0  0  0  0
   35.9090   30.2760   39.7200 H   0  0  0  0  0  0  0  0  0  0  0  0
   36.1770   31.7690   40.6390 H   0  0  0  0  0  0  0  0  0  0  0  0
   37.5390   30.8430   38.0430 H   0  0  0  0  0  0  0  0  0  0  0  0
   36.1790   32.0270   38.1310 H   0  0  0  0  0  0  0  0  0  0  0  0
   37.7710   33.6430   38.6740 H   0  0  0  0  0  0  0  0  0  0  0  0
   37.9940   32.8010   40.8420 H   0  0  0  0  0  0  0  0  0  0  0  0
   39.6680   33.0880   40.1910 H   0  0  0  0  0  0  0  0  0  0  0  0
   39.2010   30.6330   39.2020 H   0  0  0  0  0  0  0  0  0  0  0  0
   37.8050   27.6400   39.0430 Br  0  0  0  0  0  0  0  0  0  0  0  0
   37.7140   27.9110   40.9380 C   0  0  0  0  0  0  0  0  0  0  0  0
   37.6560   26.8240   41.7640 C   0  0  0  0  0  0  0  0  0  0  0  0
   37.5790   27.0010   43.1550 C   0  0  0  0  0  0  0  0  0  0  0  0
   37.5630   28.2880   43.6490 C   0  0  0  0  0  0  0  0  0  0  0  0
   37.6240   29.3460   42.7580 C   0  0  0  0  0  0  0  0  0  0  0  0
   37.7000   29.1970   41.4230 C   0  0  0  0  0  0  0  0  0  0  0  0
   37.5370   26.0840   43.7370 H   0  0  0  0  0  0  0  0  0  0  0  0
   37.5020   28.3400   44.7270 H   0  0  0  0  0  0  0  0  0  0  0  0
   37.5880   30.2670   43.3220 H   0  0  0  0  0  0  0  0  0  0  0  0
   38.8460   23.5870   40.5780 C   0  0  0  0  0  0  0  0  0  0  0  0
   37.6640   22.9420   40.1210 C   0  0  0  0  0  0  0  0  0  0  0  0
   36.4740   23.6580   40.2390 C   0  0  0  0  0  0  0  0  0  0  0  0
   36.5040   24.8990   40.7700 N   0  0  0  0  0  0  0  0  0  0  0  0
   37.6720   25.4880   41.2010 C   0  0  0  0  0  0  0  0  0  0  0  0
   38.8210   24.8120   41.0930 N   0  0  0  0  0  0  0  0  0  0  0  0
   39.7110   22.9540   40.4440 H   0  0  0  0  0  0  0  0  0  0  0  0
   37.5910   21.9700   39.6970 H   0  0  0  0  0  0  0  0  0  0  0  0
   35.4860   23.3280   39.9460 H   0  0  0  0  0  0  0  0  0  0  0  0
   41.0230   28.9420   39.1330 Cl  0  0  0  0  0  0  0  0  0  0  0  0
   41.2130   29.8010   40.6410 C   0  0  0  0  0  0  0  0  0  0  0  0
   40.2030   30.6640   41.0240 C   0  0  0  0  0  0  0  0  0  0  0  0
   40.4850   31.2410   42.2750 C   0  0  0  0  0  0  0  0  0  0  0  0
   39.7370   31.9440   42.6670 H   0  0  0  0  0  0  0  0  0  0  0  0
   41.5970   31.0200   43.0570 C   0  0  0  0  0  0  0  0  0  0  0  0
   41.6840   31.5350   44.0030 H   0  0  0  0  0  0  0  0  0  0  0  0
   42.5350   30.1390   42.5650 C   0  0  0  0  0  3  0  0  0  0  0  0
   42.3550   29.5170   41.3470 C   0  0  0  0  0  3  0  0  0  0  0  0
  1 21  1  0  0  0  0
  2  1  1  0  0  0  0
  2  8  1  0  0  0  0
  3  4  1  0  0  0  0
  3  2  1  0  0  0  0
  4  5  1  0  0  0  0
  5 13  1  0  0  0  0
  5  6  1  0  0  0  0
  5 12  1  0  0  0  0
  6 14  1  6  0  0  0
  6  1  1  0  0  0  0
  6 36  1  0  0  0  0
  7  2  1  0  0  0  0
  9  3  1  0  0  0  0
 10  3  1  0  0  0  0
 11  4  1  0  0  0  0
 15 16  1  0  0  0  0
 16 21  2  0  0  0  0
 16 17  1  0  0  0  0
 17 18  2  0  0  0  0
 18 19  1  0  0  0  0
 18 22  1  0  0  0  0
 19 23  1  0  0  0  0
 20 24  1  0  0  0  0
 20 19  2  0  0  0  0
 21 20  1  0  0  0  0
 25 30  1  0  0  0  0
 26 27  1  0  0  0  0
 26 25  2  0  0  0  0
 27 28  2  0  0  0  0
 28 29  1  0  0  0  0
 29 17  1  0  0  0  0
 30 29  2  0  0  0  0
 31 25  1  0  0  0  0
 32 26  1  0  0  0  0
 33 27  1  0  0  0  0
 34 35  1  0  0  0  0
 35 36  2  0  0  0  0
 35 42  1  0  0  0  0
 36 37  1  0  0  0  0
 37 38  1  0  0  0  0
 37 39  2  0  0  0  0
 39 40  1  0  0  0  0
 41 39  1  0  0  0  0
 42 41  2  0  0  0  0
M  END
>  <minimizedAffinity>
-5.63195181

$$$$

 OpenBabel03242510143D

 42 45  0  0  1  0  0  0  0  0999 V2000
   38.3020   29.1560   40.9210 N   0  0  0  0  0  0  0  0  0  0  0  0
   39.0630   30.3510   41.2930 C   0  0  0  0  0  0  0  0  0  0  0  0
   40.5470   30.0880   41.3230 C   0  0  0  0  0  0  0  0  0  0  0  0
   40.8980   29.1350   42.3490 N   0  0  0  0  0  0  0  0  0  0  0  0
   39.7130   28.3540   42.6830 C   0  0  0  0  0  0  0  0  0  0  0  0
   38.9810   27.9870   41.4230 C   0  0  1  0  0  0  0  0  0  0  0  0
   38.9030   31.0780   40.4470 H   0  0  0  0  0  0  0  0  0  0  0  0
   38.6750   30.8340   42.1890 H   0  0  0  0  0  0  0  0  0  0  0  0
   40.8210   29.6280   40.3460 H   0  0  0  0  0  0  0  0  0  0  0  0
   41.0700   31.0500   41.4290 H   0  0  0  0  0  0  0  0  0  0  0  0
   41.3670   29.5280   43.1720 H   0  0  0  0  0  0  0  0  0  0  0  0
   39.0760   29.0780   43.2660 H   0  0  0  0  0  0  0  0  0  0  0  0
   39.9500   27.4840   43.3170 H   0  0  0  0  0  0  0  0  0  0  0  0
   39.8430   27.8680   40.6590 H   0  0  0  0  0  0  0  0  0  0  0  0
   38.6740   28.6560   37.8510 Br  0  0  0  0  0  0  0  0  0  0  0  0
   37.0380   28.8640   38.8280 C   0  0  0  0  0  0  0  0  0  0  0  0
   35.8490   28.7930   38.1580 C   0  0  0  0  0  0  0  0  0  0  0  0
   34.6400   28.9530   38.8540 C   0  0  0  0  0  0  0  0  0  0  0  0
   34.6940   29.1820   40.2120 C   0  0  0  0  0  0  0  0  0  0  0  0
   35.9300   29.2430   40.8300 C   0  0  0  0  0  0  0  0  0  0  0  0
   37.1000   29.0900   40.1820 C   0  0  0  0  0  0  0  0  0  0  0  0
   33.7420   28.8820   38.2440 H   0  0  0  0  0  0  0  0  0  0  0  0
   33.7230   29.2950   40.6730 H   0  0  0  0  0  0  0  0  0  0  0  0
   35.7750   29.4400   41.8810 H   0  0  0  0  0  0  0  0  0  0  0  0
   35.9640   29.3620   34.5580 C   0  0  0  0  0  0  0  0  0  0  0  0
   35.8160   28.0600   34.0070 C   0  0  0  0  0  0  0  0  0  0  0  0
   35.6790   27.0100   34.9120 C   0  0  0  0  0  0  0  0  0  0  0  0
   35.6940   27.2760   36.2360 N   0  0  0  0  0  0  0  0  0  0  0  0
   35.8400   28.5540   36.7280 C   0  0  0  0  0  0  0  0  0  0  0  0
   35.9710   29.5710   35.8700 N   0  0  0  0  0  0  0  0  0  0  0  0
   36.0610   30.1050   33.7790 H   0  0  0  0  0  0  0  0  0  0  0  0
   35.7980   27.8020   32.9760 H   0  0  0  0  0  0  0  0  0  0  0  0
   35.5580   25.9600   34.6750 H   0  0  0  0  0  0  0  0  0  0  0  0
   36.9520   27.3690   43.6780 Cl  0  0  0  0  0  0  0  0  0  0  0  0
   37.3290   26.3110   42.3420 C   0  0  0  0  0  0  0  0  0  0  0  0
   38.2890   26.7280   41.4380 C   0  0  0  0  0  0  0  0  0  0  0  0
   38.5080   25.7500   40.4530 C   0  0  0  0  0  0  0  0  0  0  0  0
   39.2580   25.9900   39.6860 H   0  0  0  0  0  0  0  0  0  0  0  0
   37.8840   24.5260   40.3470 C   0  0  0  0  0  0  0  0  0  0  0  0
   38.1520   23.8690   39.5320 H   0  0  0  0  0  0  0  0  0  0  0  0
   36.9430   24.2260   41.3080 C   0  0  0  0  0  3  0  0  0  0  0  0
   36.6530   25.1160   42.3200 C   0  0  0  0  0  3  0  0  0  0  0  0
  1  2  1  0  0  0  0
  1  6  1  0  0  0  0
  2  3  1  0  0  0  0
  2  8  1  0  0  0  0
  3 10  1  0  0  0  0
  3  4  1  0  0  0  0
  4  5  1  0  0  0  0
  4 11  1  0  0  0  0
  5 12  1  0  0  0  0
  5 13  1  0  0  0  0
  6 14  1  6  0  0  0
  6 36  1  0  0  0  0
  6  5  1  0  0  0  0
  7  2  1  0  0  0  0
  9  3  1  0  0  0  0
 15 16  1  0  0  0  0
 16 21  1  0  0  0  0
 17 16  2  0  0  0  0
 17 18  1  0  0  0  0
 18 19  2  0  0  0  0
 19 23  1  0  0  0  0
 19 20  1  0  0  0  0
 20 24  1  0  0  0  0
 21 20  2  0  0  0  0
 21  1  1  0  0  0  0
 22 18  1  0  0  0  0
 25 30  1  0  0  0  0
 26 25  2  0  0  0  0
 26 27  1  0  0  0  0
 27 28  2  0  0  0  0
 28 29  1  0  0  0  0
 29 17  1  0  0  0  0
 30 29  2  0  0  0  0
 31 25  1  0  0  0  0
 32 26  1  0  0  0  0
 33 27  1  0  0  0  0
 35 34  1  0  0  0  0
 36 35  2  0  0  0  0
 37 36  1  0  0  0  0
 38 37  1  0  0  0  0
 39 37  2  0  0  0  0
 39 41  1  0  0  0  0
 40 39  1  0  0  0  0
 41 42  2  0  0  0  0
 42 35  1  0  0  0  0
M  END
>  <minimizedAffinity>
-5.5834384

$$$$

 OpenBabel03242510143D

 42 45  0  0  1  0  0  0  0  0999 V2000
   37.9610   28.3340   40.9290 N   0  0  0  0  0  0  0  0  0  0  0  0
   37.7680   27.1580   41.7820 C   0  0  0  0  0  0  0  0  0  0  0  0
   36.6120   27.3340   42.7330 C   0  0  0  0  0  0  0  0  0  0  0  0
   36.8580   28.3980   43.6790 N   0  0  0  0  0  0  0  0  0  0  0  0
   37.8730   29.2850   43.1260 C   0  0  0  0  0  0  0  0  0  0  0  0
   37.5970   29.5190   41.6670 C   0  0  1  0  0  0  0  0  0  0  0  0
   37.4580   26.3330   41.0810 H   0  0  0  0  0  0  0  0  0  0  0  0
   38.6920   26.8270   42.2550 H   0  0  0  0  0  0  0  0  0  0  0  0
   35.7280   27.6380   42.1260 H   0  0  0  0  0  0  0  0  0  0  0  0
   36.4050   26.3670   43.2140 H   0  0  0  0  0  0  0  0  0  0  0  0
   37.0650   28.0940   44.6360 H   0  0  0  0  0  0  0  0  0  0  0  0
   38.8240   28.6890   43.2170 H   0  0  0  0  0  0  0  0  0  0  0  0
   37.9720   30.2200   43.7040 H   0  0  0  0  0  0  0  0  0  0  0  0
   36.4400   29.4800   41.6230 H   0  0  0  0  0  0  0  0  0  0  0  0
   35.6860   28.3420   38.7760 Br  0  0  0  0  0  0  0  0  0  0  0  0
   37.5810   28.3930   38.4970 C   0  0  0  0  0  0  0  0  0  0  0  0
   38.0650   28.4420   37.2200 C   0  0  0  0  0  0  0  0  0  0  0  0
   39.4510   28.4700   36.9940 C   0  0  0  0  0  0  0  0  0  0  0  0
   40.2910   28.4450   38.0870 C   0  0  0  0  0  0  0  0  0  0  0  0
   39.7360   28.3940   39.3540 C   0  0  0  0  0  0  0  0  0  0  0  0
   38.4120   28.3690   39.5920 C   0  0  0  0  0  0  0  0  0  0  0  0
   39.7490   28.5090   35.9490 H   0  0  0  0  0  0  0  0  0  0  0  0
   41.3400   28.4670   37.8300 H   0  0  0  0  0  0  0  0  0  0  0  0
   40.5400   28.3680   40.0750 H   0  0  0  0  0  0  0  0  0  0  0  0
   35.8920   29.6570   34.5560 C   0  0  0  0  0  0  0  0  0  0  0  0
   35.3890   28.4660   33.9630 C   0  0  0  0  0  0  0  0  0  0  0  0
   35.8240   27.2620   34.5130 C   0  0  0  0  0  0  0  0  0  0  0  0
   36.6820   27.2870   35.5560 N   0  0  0  0  0  0  0  0  0  0  0  0
   37.1450   28.4640   36.1000 C   0  0  0  0  0  0  0  0  0  0  0  0
   36.7350   29.6270   35.5820 N   0  0  0  0  0  0  0  0  0  0  0  0
   35.4970   30.5330   34.0620 H   0  0  0  0  0  0  0  0  0  0  0  0
   34.7150   28.3960   33.1450 H   0  0  0  0  0  0  0  0  0  0  0  0
   35.5480   26.2650   34.1930 H   0  0  0  0  0  0  0  0  0  0  0  0
   40.4370   30.6300   42.2000 Cl  0  0  0  0  0  0  0  0  0  0  0  0
   39.2000   31.4290   41.2620 C   0  0  0  0  0  0  0  0  0  0  0  0
   37.9710   30.8070   41.1510 C   0  0  0  0  0  0  0  0  0  0  0  0
   37.0760   31.5950   40.4060 C   0  0  0  0  0  0  0  0  0  0  0  0
   36.0670   31.1830   40.2630 H   0  0  0  0  0  0  0  0  0  0  0  0
   37.3300   32.8230   39.8370 C   0  0  0  0  0  0  0  0  0  0  0  0
   36.5440   33.3190   39.2860 H   0  0  0  0  0  0  0  0  0  0  0  0
   38.5960   33.3390   40.0150 C   0  0  0  0  0  3  0  0  0  0  0  0
   39.5490   32.6460   40.7320 C   0  0  0  0  0  3  0  0  0  0  0  0
  1  6  1  0  0  0  0
  1  2  1  0  0  0  0
  2  8  1  0  0  0  0
  2  3  1  0  0  0  0
  3 10  1  0  0  0  0
  3  4  1  0  0  0  0
  4 11  1  0  0  0  0
  5 12  1  0  0  0  0
  5  4  1  0  0  0  0
  5 13  1  0  0  0  0
  6 14  1  6  0  0  0
  6  5  1  0  0  0  0
  7  2  1  0  0  0  0
  9  3  1  0  0  0  0
 16 15  1  0  0  0  0
 16 21  1  0  0  0  0
 17 16  2  0  0  0  0
 18 17  1  0  0  0  0
 18 19  2  0  0  0  0
 19 20  1  0  0  0  0
 20 21  2  0  0  0  0
 20 24  1  0  0  0  0
 21  1  1  0  0  0  0
 22 18  1  0  0  0  0
 23 19  1  0  0  0  0
 25 30  1  0  0  0  0
 26 27  1  0  0  0  0
 26 25  2  0  0  0  0
 27 28  2  0  0  0  0
 28 29  1  0  0  0  0
 29 17  1  0  0  0  0
 30 29  2  0  0  0  0
 31 25  1  0  0  0  0
 32 26  1  0  0  0  0
 33 27  1  0  0  0  0
 35 34  1  0  0  0  0
 36 35  1  0  0  0  0
 36  6  1  0  0  0  0
 37 36  2  0  0  0  0
 38 37  1  0  0  0  0
 39 41  2  0  0  0  0
 39 37  1  0  0  0  0
 40 39  1  0  0  0  0
 41 42  1  0  0  0  0
 42 35  2  0  0  0  0
M  END
>  <minimizedAffinity>
-5.52884102

$$$$

 OpenBabel03242510143D

 42 45  0  0  1  0  0  0  0  0999 V2000
   37.9520   29.2940   38.2990 N   0  0  0  0  0  0  0  0  0  0  0  0
   37.9440   28.8980   36.8880 C   0  0  0  0  0  0  0  0  0  0  0  0
   36.9980   27.7540   36.6290 C   0  0  0  0  0  0  0  0  0  0  0  0
   37.4170   26.5520   37.3110 N   0  0  0  0  0  0  0  0  0  0  0  0
   38.2930   26.9250   38.4140 C   0  0  0  0  0  0  0  0  0  0  0  0
   37.7310   28.1280   39.1190 C   0  0  1  0  0  0  0  0  0  0  0  0
   37.5100   29.7800   36.3370 H   0  0  0  0  0  0  0  0  0  0  0  0
   38.9460   28.7510   36.4880 H   0  0  0  0  0  0  0  0  0  0  0  0
   36.0090   28.0400   37.0540 H   0  0  0  0  0  0  0  0  0  0  0  0
   36.9000   27.6220   35.5410 H   0  0  0  0  0  0  0  0  0  0  0  0
   37.8130   25.8220   36.7110 H   0  0  0  0  0  0  0  0  0  0  0  0
   39.2490   27.2280   37.9010 H   0  0  0  0  0  0  0  0  0  0  0  0
   38.4960   26.0800   39.0930 H   0  0  0  0  0  0  0  0  0  0  0  0
   36.5890   27.9730   39.0060 H   0  0  0  0  0  0  0  0  0  0  0  0
   40.9380   30.1620   38.6780 Br  0  0  0  0  0  0  0  0  0  0  0  0
   39.3540   31.1680   39.0660 C   0  0  0  0  0  0  0  0  0  0  0  0
   39.4750   32.4320   39.5710 C   0  0  0  0  0  0  0  0  0  0  0  0
   38.3260   33.1810   39.8720 C   0  0  0  0  0  0  0  0  0  0  0  0
   37.0930   32.6070   39.6430 C   0  0  0  0  0  0  0  0  0  0  0  0
   37.0400   31.3230   39.1300 C   0  0  0  0  0  0  0  0  0  0  0  0
   38.1290   30.5890   38.8340 C   0  0  0  0  0  0  0  0  0  0  0  0
   38.5120   34.1760   40.2690 H   0  0  0  0  0  0  0  0  0  0  0  0
   36.2610   33.2460   39.9000 H   0  0  0  0  0  0  0  0  0  0  0  0
   36.0030   31.0390   39.0310 H   0  0  0  0  0  0  0  0  0  0  0  0
   42.6360   34.1610   39.0170 C   0  0  0  0  0  0  0  0  0  0  0  0
   43.3010   34.0560   40.2700 C   0  0  0  0  0  0  0  0  0  0  0  0
   42.6240   33.3790   41.2830 C   0  0  0  0  0  0  0  0  0  0  0  0
   41.3990   32.8710   41.0280 N   0  0  0  0  0  0  0  0  0  0  0  0
   40.7910   32.9950   39.7990 C   0  0  0  0  0  0  0  0  0  0  0  0
   41.4300   33.6420   38.8180 N   0  0  0  0  0  0  0  0  0  0  0  0
   43.2400   34.7000   38.3010 H   0  0  0  0  0  0  0  0  0  0  0  0
   44.2610   34.4390   40.5170 H   0  0  0  0  0  0  0  0  0  0  0  0
   42.9730   33.2040   42.2930 H   0  0  0  0  0  0  0  0  0  0  0  0
   35.4410   28.9030   41.0540 Cl  0  0  0  0  0  0  0  0  0  0  0  0
   37.0710   28.4970   41.5300 C   0  0  0  0  0  0  0  0  0  0  0  0
   37.9820   28.2080   40.5320 C   0  0  0  0  0  0  0  0  0  0  0  0
   39.2530   27.9470   41.0730 C   0  0  0  0  0  0  0  0  0  0  0  0
   40.0490   27.7060   40.3550 H   0  0  0  0  0  0  0  0  0  0  0  0
   39.6040   27.9600   42.4050 C   0  0  0  0  0  0  0  0  0  0  0  0
   40.6260   27.7380   42.6810 H   0  0  0  0  0  0  0  0  0  0  0  0
   38.6060   28.2620   43.3060 C   0  0  0  0  0  3  0  0  0  0  0  0
   37.3230   28.5350   42.8790 C   0  0  0  0  0  3  0  0  0  0  0  0
  1 21  1  0  0  0  0
  1  6  1  0  0  0  0
  2  1  1  0  0  0  0
  3  2  1  0  0  0  0
  3  9  1  0  0  0  0
  3  4  1  0  0  0  0
  4  5  1  0  0  0  0
  5 13  1  0  0  0  0
  5  6  1  0  0  0  0
  6 14  1  6  0  0  0
  6 36  1  0  0  0  0
  7  2  1  0  0  0  0
  8  2  1  0  0  0  0
 10  3  1  0  0  0  0
 11  4  1  0  0  0  0
 12  5  1  0  0  0  0
 15 16  1  0  0  0  0
 16 17  1  0  0  0  0
 17 29  1  0  0  0  0
 17 18  2  0  0  0  0
 18 22  1  0  0  0  0
 19 18  1  0  0  0  0
 19 23  1  0  0  0  0
 20 19  2  0  0  0  0
 21 16  2  0  0  0  0
 21 20  1  0  0  0  0
 24 20  1  0  0  0  0
 25 26  1  0  0  0  0
 26 32  1  0  0  0  0
 26 27  2  0  0  0  0
 27 33  1  0  0  0  0
 28 27  1  0  0  0  0
 29 28  2  0  0  0  0
 30 25  2  0  0  0  0
 30 29  1  0  0  0  0
 31 25  1  0  0  0  0
 34 35  1  0  0  0  0
 35 42  1  0  0  0  0
 36 37  1  0  0  0  0
 36 35  2  0  0  0  0
 37 39  2  0  0  0  0
 38 37  1  0  0  0  0
 39 40  1  0  0  0  0
 39 41  1  0  0  0  0
 42 41  2  0  0  0  0
M  END
>  <minimizedAffinity>
-5.51943636

$$$$

 OpenBabel03242510143D

 42 45  0  0  1  0  0  0  0  0999 V2000
   38.9070   26.8390   42.1220 N   0  0  0  0  0  0  0  0  0  0  0  0
   39.4450   25.8310   43.0400 C   0  0  0  0  0  0  0  0  0  0  0  0
   39.3260   24.4370   42.4790 C   0  0  0  0  0  0  0  0  0  0  0  0
   37.9460   24.0430   42.3210 N   0  0  0  0  0  0  0  0  0  0  0  0
   37.1240   25.2450   42.2580 C   0  0  0  0  0  0  0  0  0  0  0  0
   37.7990   26.2720   41.3930 C   0  0  1  0  0  0  0  0  0  0  0  0
   40.5500   26.0410   43.0940 H   0  0  0  0  0  0  0  0  0  0  0  0
   39.0630   25.9400   44.0540 H   0  0  0  0  0  0  0  0  0  0  0  0
   39.7780   24.4510   41.4610 H   0  0  0  0  0  0  0  0  0  0  0  0
   39.9000   23.7530   43.1220 H   0  0  0  0  0  0  0  0  0  0  0  0
   37.6040   23.3560   43.0010 H   0  0  0  0  0  0  0  0  0  0  0  0
   37.1220   25.6200   43.3200 H   0  0  0  0  0  0  0  0  0  0  0  0
   36.0880   25.0280   41.9460 H   0  0  0  0  0  0  0  0  0  0  0  0
   38.3430   25.6180   40.6070 H   0  0  0  0  0  0  0  0  0  0  0  0
   40.6760   27.2540   39.5710 Br  0  0  0  0  0  0  0  0  0  0  0  0
   40.1360   28.5620   40.8630 C   0  0  0  0  0  0  0  0  0  0  0  0
   40.5390   29.8580   40.7070 C   0  0  0  0  0  0  0  0  0  0  0  0
   40.1620   30.8290   41.6490 C   0  0  0  0  0  0  0  0  0  0  0  0
   39.3860   30.4350   42.7190 C   0  0  0  0  0  0  0  0  0  0  0  0
   39.0130   29.1070   42.8180 C   0  0  0  0  0  0  0  0  0  0  0  0
   39.3610   28.1610   41.9260 C   0  0  0  0  0  0  0  0  0  0  0  0
   40.5250   31.8340   41.4490 H   0  0  0  0  0  0  0  0  0  0  0  0
   39.1400   31.2400   43.3970 H   0  0  0  0  0  0  0  0  0  0  0  0
   38.4250   28.9860   43.7170 H   0  0  0  0  0  0  0  0  0  0  0  0
   43.4490   30.4990   38.6060 C   0  0  0  0  0  0  0  0  0  0  0  0
   42.8860   30.9420   37.3780 C   0  0  0  0  0  0  0  0  0  0  0  0
   41.4950   31.0050   37.3140 C   0  0  0  0  0  0  0  0  0  0  0  0
   40.7700   30.6510   38.3970 N   0  0  0  0  0  0  0  0  0  0  0  0
   41.3570   30.2280   39.5690 C   0  0  0  0  0  0  0  0  0  0  0  0
   42.6910   30.1630   39.6440 N   0  0  0  0  0  0  0  0  0  0  0  0
   44.5280   30.4860   38.5560 H   0  0  0  0  0  0  0  0  0  0  0  0
   43.4130   31.2300   36.5010 H   0  0  0  0  0  0  0  0  0  0  0  0
   40.8970   31.3160   36.4660 H   0  0  0  0  0  0  0  0  0  0  0  0
   37.4680   25.8870   38.3380 Cl  0  0  0  0  0  0  0  0  0  0  0  0
   36.6390   27.0850   39.3000 C   0  0  0  0  0  0  0  0  0  0  0  0
   36.9300   27.1430   40.6510 C   0  0  0  0  0  0  0  0  0  0  0  0
   36.2180   28.1830   41.2720 C   0  0  0  0  0  0  0  0  0  0  0  0
   36.3840   28.3100   42.3510 H   0  0  0  0  0  0  0  0  0  0  0  0
   35.3360   29.0570   40.6740 C   0  0  0  0  0  0  0  0  0  0  0  0
   34.8560   29.8130   41.2780 H   0  0  0  0  0  0  0  0  0  0  0  0
   35.1280   28.8970   39.3220 C   0  0  0  0  0  3  0  0  0  0  0  0
   35.7780   27.9060   38.6160 C   0  0  0  0  0  3  0  0  0  0  0  0
  1  2  1  0  0  0  0
  2  7  1  0  0  0  0
  2  8  1  0  0  0  0
  3  2  1  0  0  0  0
  3 10  1  0  0  0  0
  4  3  1  0  0  0  0
  4 11  1  0  0  0  0
  5  4  1  0  0  0  0
  5 12  1  0  0  0  0
  6 14  1  6  0  0  0
  6  1  1  0  0  0  0
  6  5  1  0  0  0  0
  9  3  1  0  0  0  0
 13  5  1  0  0  0  0
 15 16  1  0  0  0  0
 16 21  1  0  0  0  0
 17 16  2  0  0  0  0
 17 18  1  0  0  0  0
 18 19  2  0  0  0  0
 19 20  1  0  0  0  0
 19 23  1  0  0  0  0
 20 24  1  0  0  0  0
 21  1  1  0  0  0  0
 21 20  2  0  0  0  0
 22 18  1  0  0  0  0
 25 30  1  0  0  0  0
 26 25  2  0  0  0  0
 27 26  1  0  0  0  0
 27 28  2  0  0  0  0
 28 29  1  0  0  0  0
 29 30  2  0  0  0  0
 29 17  1  0  0  0  0
 31 25  1  0  0  0  0
 32 26  1  0  0  0  0
 33 27  1  0  0  0  0
 34 35  1  0  0  0  0
 35 36  1  0  0  0  0
 36 37  2  0  0  0  0
 36  6  1  0  0  0  0
 37 38  1  0  0  0  0
 39 37  1  0  0  0  0
 39 40  1  0  0  0  0
 41 39  2  0  0  0  0
 42 35  2  0  0  0  0
 42 41  1  0  0  0  0
M  END
>  <minimizedAffinity>
-5.49490643

$$$$
