
 OpenBabel03252506183D

 23 24  0  0  0  0  0  0  0  0999 V2000
   44.9190   35.3180   44.0490 C   0  0  0  0  0  0  0  0  0  0  0  0
   44.5040   34.8250   42.7970 C   0  0  0  0  0  0  0  0  0  0  0  0
   44.6640   33.4480   42.5680 C   0  0  0  0  0  0  0  0  0  0  0  0
   45.1980   32.6760   43.5390 N   0  0  0  0  0  0  0  0  0  0  0  0
   45.5840   33.1950   44.7330 C   0  0  0  0  0  0  0  0  0  0  0  0
   45.4440   34.5130   44.9840 N   0  0  0  0  0  0  0  0  0  0  0  0
   44.0830   35.4880   42.0560 H   0  0  0  0  0  0  0  0  0  0  0  0
   44.3490   33.0580   41.6100 H   0  0  0  0  0  0  0  0  0  0  0  0
   45.1300   30.2560   44.1560 Cl  0  0  0  0  0  0  0  0  0  0  0  0
   45.9810   30.9060   45.5210 C   0  0  0  0  0  0  0  0  0  0  0  0
   46.1530   32.2790   45.7250 C   0  0  0  0  0  0  0  0  0  0  0  0
   46.8200   32.8250   46.7930 C   0  0  0  0  0  0  0  0  0  0  0  0
   46.9320   33.8910   46.9160 H   0  0  0  0  0  0  0  0  0  0  0  0
   47.3410   31.9280   47.7050 C   0  0  0  0  0  0  0  0  0  0  0  0
   47.8800   32.3100   48.5720 H   0  0  0  0  0  0  0  0  0  0  0  0
   47.2320   30.5570   47.6060 C   0  0  0  0  0  3  0  0  0  0  0  0
   46.5420   30.0990   46.4940 C   0  0  0  0  0  3  0  0  0  0  0  0
   44.7580   36.7610   44.3090 C   0  0  0  0  0  3  0  0  0  0  0  0
   45.4040   37.6030   43.5310 C   0  0  0  0  0  3  0  0  0  0  0  0
   45.2750   39.0720   43.7530 C   0  0  0  0  0  0  0  0  0  0  0  0
   45.5400   39.2480   44.8260 H   0  0  0  0  0  0  0  0  0  0  0  0
   45.9930   39.6350   43.1430 H   0  0  0  0  0  0  0  0  0  0  0  0
   44.2180   39.4040   43.5800 H   0  0  0  0  0  0  0  0  0  0  0  0
  1 18  1  0  0  0  0
  1  6  1  0  0  0  0
  2  1  2  0  0  0  0
  3  2  1  0  0  0  0
  3  4  2  0  0  0  0
  4  5  1  0  0  0  0
  5  6  2  0  0  0  0
  5 11  1  0  0  0  0
  7  2  1  0  0  0  0
  8  3  1  0  0  0  0
  9 10  1  0  0  0  0
 10 11  2  0  0  0  0
 10 17  1  0  0  0  0
 11 12  1  0  0  0  0
 12 13  1  0  0  0  0
 12 14  2  0  0  0  0
 14 15  1  0  0  0  0
 16 14  1  0  0  0  0
 17 16  2  0  0  0  0
 19 20  1  0  0  0  0
 19 18  2  0  0  0  0
 20 21  1  0  0  0  0
 22 20  1  0  0  0  0
 23 20  1  0  0  0  0
M  END
>  <minimizedAffinity>
-3.801893

>  <minimizedRMSD>
1.5663594

$$$$
