REMARK  Name = 
REMARK  2 active torsions:
REMARK  status: ('A' for Active; 'I' for Inactive)
REMARK    1  A    between atoms: C_3  and  S_7
REMARK    2  A    between atoms: C_5  and  C_13
REMARK                            x       y       z     vdW  Elec       q    Type
REMARK                         _______ _______ _______ _____ _____    ______ ____
ROOT
ATOM      1  C   UNL     1      44.541  36.031  44.526  0.00  0.00    +0.000 A 
ATOM      2  C   UNL     1      45.257  35.899  43.318  0.00  0.00    +0.000 A 
ATOM      3  C   UNL     1      46.127  34.802  43.203  0.00  0.00    +0.000 A 
ATOM      4  N   UNL     1      46.233  33.936  44.248  0.00  0.00    +0.000 NA
ATOM      5  C   UNL     1      45.525  34.099  45.397  0.00  0.00    +0.000 A 
ATOM      6  N   UNL     1      44.693  35.132  45.529  0.00  0.00    +0.000 NA
ATOM      7  H   UNL     1      43.864  36.875  44.628  0.00  0.00    +0.000 HD
ATOM      8  H   UNL     1      45.149  36.605  42.506  0.00  0.00    +0.000 HD
ENDROOT
BRANCH   5  11
ATOM      9 CL   UNL     1      43.411  34.164  47.575  0.00  0.00    +0.000 Cl
ATOM     10  C   UNL     1      44.788  33.073  47.513  0.00  0.00    +0.000 A 
ATOM     11  C   UNL     1      45.691  33.128  46.475  0.00  0.00    +0.000 A 
ATOM     12  C   UNL     1      46.771  32.260  46.444  0.00  0.00    +0.000 A 
ATOM     13  H   UNL     1      47.495  32.281  45.642  0.00  0.00    +0.000 HD
ATOM     14  C   UNL     1      46.944  31.343  47.444  0.00  0.00    +0.000 A 
ATOM     15  H   UNL     1      47.800  30.670  47.399  0.00  0.00    +0.000 HD
ATOM     16  C   UNL     1      46.030  31.284  48.500  0.00  0.00    +0.000 A 
ATOM     17  C   UNL     1      44.963  32.152  48.518  0.00  0.00    +0.000 A 
ENDBRANCH   5  11
BRANCH   3  18
ATOM     18  S   UNL     1      47.076  34.555  41.707  0.00  0.00    +0.000 S 
ATOM     19  H   UNL     1      48.415  34.897  42.002  0.00  0.00    +0.000 HD
ENDBRANCH   3  18
TORSDOF 2
