
 OpenBabel03242523203D

 37 40  0  0  0  0  0  0  0  0999 V2000
   44.1770   31.5380   41.2410 Cl  0  0  0  0  0  0  0  0  0  0  0  0
   43.5980   33.1650   40.8810 C   0  0  0  0  0  0  0  0  0  0  0  0
   42.5510   33.2320   39.9380 C   0  0  0  0  0  0  0  0  0  0  0  0
   42.1730   34.5490   39.7280 C   0  0  0  0  0  0  0  0  0  0  0  0
   42.6440   35.6790   40.2730 C   0  0  0  0  0  0  0  0  0  0  0  0
   43.6570   35.5240   41.1780 C   0  0  0  0  0  0  0  0  0  0  0  0
   44.1370   34.2980   41.4860 C   0  0  0  0  0  0  0  0  0  0  0  0
   41.3800   34.7890   38.9870 H   0  0  0  0  0  0  0  0  0  0  0  0
   42.3270   36.6730   40.0890 H   0  0  0  0  0  0  0  0  0  0  0  0
   44.1560   36.3210   41.7130 H   0  0  0  0  0  0  0  0  0  0  0  0
   46.8070   34.1580   40.2050 Cl  0  0  0  0  0  0  0  0  0  0  0  0
   46.4980   33.9160   41.9240 C   0  0  0  0  0  0  0  0  0  0  0  0
   45.2280   33.9970   42.4450 C   0  0  0  0  0  0  0  0  0  0  0  0
   45.0080   33.8060   43.7890 C   0  0  0  0  0  0  0  0  0  0  0  0
   43.9940   33.8800   44.1540 H   0  0  0  0  0  0  0  0  0  0  0  0
   46.0930   33.5300   44.6030 C   0  0  0  0  0  0  0  0  0  0  0  0
   45.9470   33.3750   45.6650 H   0  0  0  0  0  0  0  0  0  0  0  0
   47.3660   33.4540   44.0460 C   0  0  0  0  0  3  0  0  0  0  0  0
   47.6070   33.6420   42.7060 C   0  0  0  0  0  3  0  0  0  0  0  0
   41.8960   32.0890   39.2490 C   0  0  0  0  0  0  0  0  0  0  0  0
   42.7870   31.8140   38.4820 O   0  0  0  0  0  0  0  0  0  0  0  0
   40.5620   31.8900   39.8280 C   0  0  0  0  0  0  0  0  0  0  0  0
   39.3950   32.2650   39.2870 C   0  0  0  0  0  0  0  0  0  0  0  0
   38.2930   32.0510   40.0830 C   0  0  0  0  0  0  0  0  0  0  0  0
   38.4790   31.4720   41.3520 N   0  0  0  0  0  0  0  0  0  0  0  0
   39.6580   31.1260   41.8140 C   0  0  0  0  0  0  0  0  0  0  0  0
   40.7820   31.3290   41.0450 N   0  0  0  0  0  0  0  0  0  0  0  0
   37.2660   32.2920   39.8190 H   0  0  0  0  0  0  0  0  0  0  0  0
   39.6500   30.6890   42.8100 H   0  0  0  0  0  0  0  0  0  0  0  0
   39.1910   32.7390   37.9600 C   0  0  0  0  0  0  0  0  0  0  0  0
   38.0750   33.2970   37.4220 C   0  0  0  0  0  0  0  0  0  0  0  0
   39.1270   34.3150   37.7680 C   0  0  0  0  0  0  0  0  0  0  0  0
   39.7950   32.2120   37.1980 H   0  0  0  0  0  0  0  0  0  0  0  0
   37.1470   33.3730   38.0650 H   0  0  0  0  0  0  0  0  0  0  0  0
   37.7480   33.3610   36.3600 H   0  0  0  0  0  0  0  0  0  0  0  0
   39.0300   34.8520   38.7310 H   0  0  0  0  0  0  0  0  0  0  0  0
   39.8260   34.6830   37.0010 H   0  0  0  0  0  0  0  0  0  0  0  0
  2  1  1  0  0  0  0
  2  7  1  0  0  0  0
  3  2  2  0  0  0  0
  4  3  1  0  0  0  0
  4  5  2  0  0  0  0
  5  6  1  0  0  0  0
  6  7  2  0  0  0  0
  6 10  1  0  0  0  0
  7 13  1  0  0  0  0
  8  4  1  0  0  0  0
  9  5  1  0  0  0  0
 11 12  1  0  0  0  0
 12 13  2  0  0  0  0
 12 19  1  0  0  0  0
 13 14  1  0  0  0  0
 14 15  1  0  0  0  0
 14 16  2  0  0  0  0
 16 17  1  0  0  0  0
 18 16  1  0  0  0  0
 19 18  2  0  0  0  0
 20 22  1  0  0  0  0
 20  3  1  0  0  0  0
 21 20  2  0  0  0  0
 22 27  1  0  0  0  0
 23 22  2  0  0  0  0
 23 24  1  0  0  0  0
 24 25  2  0  0  0  0
 25 26  1  0  0  0  0
 26 29  1  0  0  0  0
 27 26  2  0  0  0  0
 28 24  1  0  0  0  0
 30 23  1  0  0  0  0
 31 32  1  0  0  0  0
 31 30  1  0  0  0  0
 31 34  1  0  0  0  0
 32 30  1  0  0  0  0
 32 36  1  0  0  0  0
 33 30  1  0  0  0  0
 35 31  1  0  0  0  0
 37 32  1  0  0  0  0
M  END
>  <minimizedAffinity>
-5.60539913

>  <minimizedRMSD>
7.27593136

$$$$
