REMARK  Name = 
REMARK  4 active torsions:
REMARK  status: ('A' for Active; 'I' for Inactive)
REMARK    1  A    between atoms: C_1  and  C_10
REMARK    2  A    between atoms: C_2  and  C_7
REMARK    3  A    between atoms: C_10  and  C_14
REMARK    4  A    between atoms: C_18  and  C_31
REMARK                            x       y       z     vdW  Elec       q    Type
REMARK                         _______ _______ _______ _____ _____    ______ ____
ROOT
ATOM      1 CL   UNL     1      44.681  31.666  42.927  0.00  0.00    +0.000 Cl
ATOM      2  C   UNL     1      44.649  33.422  42.758  0.00  0.00    +0.000 A 
ATOM      3  C   UNL     1      45.520  34.121  43.620  0.00  0.00    +0.000 A 
ATOM      4  C   UNL     1      45.417  35.487  43.407  0.00  0.00    +0.000 A 
ATOM      5  C   UNL     1      44.651  36.171  42.546  0.00  0.00    +0.000 A 
ATOM      6  C   UNL     1      43.837  35.416  41.747  0.00  0.00    +0.000 A 
ATOM      7  C   UNL     1      43.824  34.067  41.839  0.00  0.00    +0.000 A 
ATOM      8  H   UNL     1      46.011  36.193  44.027  0.00  0.00    +0.000 HD
ATOM      9  H   UNL     1      44.600  37.220  42.409  0.00  0.00    +0.000 HD
ATOM     10  H   UNL     1      43.155  35.795  40.998  0.00  0.00    +0.000 HD
ENDROOT
BRANCH   7  13
ATOM     11 CL   UNL     1      41.235  35.250  41.005  0.00  0.00    +0.000 Cl
ATOM     12  C   UNL     1      41.772  33.618  40.611  0.00  0.00    +0.000 A 
ATOM     13  C   UNL     1      42.991  33.139  41.035  0.00  0.00    +0.000 A 
ATOM     14  C   UNL     1      43.392  31.863  40.718  0.00  0.00    +0.000 A 
ATOM     15  H   UNL     1      44.356  31.531  41.073  0.00  0.00    +0.000 HD
ATOM     16  C   UNL     1      42.542  31.073  39.963  0.00  0.00    +0.000 A 
ATOM     17  H   UNL     1      42.835  30.064  39.699  0.00  0.00    +0.000 HD
ATOM     18  C   UNL     1      41.317  31.585  39.548  0.00  0.00    +0.000 A 
ATOM     19  C   UNL     1      40.898  32.857  39.855  0.00  0.00    +0.000 A 
ENDBRANCH   7  13
BRANCH   3  20
ATOM     20  C   UNL     1      46.449  33.532  44.620  0.00  0.00    +0.000 C 
ATOM     21  O   UNL     1      45.880  33.895  45.621  0.00  0.00    +0.000 OA
BRANCH  20  22
ATOM     22  C   UNL     1      47.532  32.842  43.909  0.00  0.00    +0.000 A 
ATOM     23  C   UNL     1      48.372  33.386  43.017  0.00  0.00    +0.000 A 
ATOM     24  C   UNL     1      49.234  32.497  42.418  0.00  0.00    +0.000 A 
ATOM     25  N   UNL     1      49.167  31.139  42.784  0.00  0.00    +0.000 NA
ATOM     26  C   UNL     1      48.316  30.680  43.672  0.00  0.00    +0.000 A 
ATOM     27  N   UNL     1      47.437  31.542  44.289  0.00  0.00    +0.000 NA
ATOM     28  H   UNL     1      49.983  32.748  41.670  0.00  0.00    +0.000 HD
ATOM     29  H   UNL     1      48.378  29.610  43.856  0.00  0.00    +0.000 HD
BRANCH  23  30
ATOM     30  C   UNL     1      48.523  34.773  42.733  0.00  0.00    +0.000 C 
ATOM     31  C   UNL     1      49.522  35.395  42.054  0.00  0.00    +0.000 C 
ATOM     32  C   UNL     1      48.276  35.224  41.230  0.00  0.00    +0.000 C 
ATOM     33  H   UNL     1      48.064  35.437  43.489  0.00  0.00    +0.000 HD
ATOM     34  H   UNL     1      50.393  34.772  41.687  0.00  0.00    +0.000 HD
ATOM     35  H   UNL     1      49.867  36.452  42.098  0.00  0.00    +0.000 HD
ATOM     36  H   UNL     1      48.228  34.364  40.535  0.00  0.00    +0.000 HD
ATOM     37  H   UNL     1      47.544  36.043  41.142  0.00  0.00    +0.000 HD
ENDBRANCH  23  30
ENDBRANCH  20  22
ENDBRANCH   3  20
TORSDOF 4
