
 OpenBabel03252504013D

 34 37  0  0  0  0  0  0  0  0999 V2000
   36.9360   28.6340   41.6440 C   0  0  0  0  0  0  0  0  0  0  0  0
   35.6830   28.7270   41.0270 C   0  0  0  0  0  0  0  0  0  0  0  0
   35.5250   29.6810   40.0390 C   0  0  0  0  0  0  0  0  0  0  0  0
   36.5780   30.4680   39.7210 N   0  0  0  0  0  0  0  0  0  0  0  0
   37.7840   30.3470   40.3450 C   0  0  0  0  0  0  0  0  0  0  0  0
   37.9610   29.4240   41.3100 N   0  0  0  0  0  0  0  0  0  0  0  0
   34.8690   28.0640   41.3230 H   0  0  0  0  0  0  0  0  0  0  0  0
   34.5610   29.7640   39.5520 H   0  0  0  0  0  0  0  0  0  0  0  0
   39.7010   31.6940   41.0120 C   0  0  0  0  0  0  0  0  0  0  0  0
   38.9160   31.2150   39.9830 C   0  0  0  0  0  0  0  0  0  0  0  0
   39.2010   31.5500   38.6720 C   0  0  0  0  0  0  0  0  0  0  0  0
   40.2880   32.3740   38.4250 C   0  0  0  0  0  0  0  0  0  0  0  0
   40.8100   32.8670   37.2860 N   0  0  0  0  0  0  0  0  0  0  0  0
   41.8870   33.6310   37.5690 C   0  0  0  0  0  0  0  0  0  0  0  0
   42.0820   33.6460   38.9260 C   0  0  0  0  0  0  0  0  0  0  0  0
   41.0800   32.8580   39.4560 C   0  0  0  0  0  0  0  0  0  0  0  0
   40.7780   32.5120   40.7600 C   0  0  0  0  0  0  0  0  0  0  0  0
   39.4740   31.4280   42.0510 H   0  0  0  0  0  0  0  0  0  0  0  0
   38.5800   31.1690   37.8740 H   0  0  0  0  0  0  0  0  0  0  0  0
   40.4680   32.7090   36.3020 H   0  0  0  0  0  0  0  0  0  0  0  0
   42.5200   34.1650   36.8590 H   0  0  0  0  0  0  0  0  0  0  0  0
   42.8470   34.1520   39.5260 H   0  0  0  0  0  0  0  0  0  0  0  0
   41.3540   32.8550   41.5970 H   0  0  0  0  0  0  0  0  0  0  0  0
   37.0550   27.6180   42.6760 C   0  0  0  0  0  0  0  0  0  0  0  0
   36.1730   27.4160   43.5750 O   0  0  0  0  0  0  0  0  0  0  0  0
   36.8650   25.1460   41.1010 Cl  0  0  0  0  0  0  0  0  0  0  0  0
   38.2040   25.4870   42.1760 C   0  0  0  0  0  0  0  0  0  0  0  0
   38.1660   26.6880   42.8550 C   0  0  0  0  0  0  0  0  0  0  0  0
   39.2210   26.9570   43.7020 C   0  0  0  0  0  0  0  0  0  0  0  0
   39.2370   27.8930   44.2620 H   0  0  0  0  0  0  0  0  0  0  0  0
   40.2560   26.0570   43.8500 C   0  0  0  0  0  0  0  0  0  0  0  0
   41.0710   26.2960   44.5220 H   0  0  0  0  0  0  0  0  0  0  0  0
   40.2380   24.8730   43.1430 C   0  0  0  0  0  3  0  0  0  0  0  0
   39.1990   24.5370   42.2680 C   0  0  0  0  0  3  0  0  0  0  0  0
  1 24  1  0  0  0  0
  2  7  1  0  0  0  0
  2  1  2  0  0  0  0
  3  2  1  0  0  0  0
  4  3  2  0  0  0  0
  4  5  1  0  0  0  0
  5  6  2  0  0  0  0
  6  1  1  0  0  0  0
  8  3  1  0  0  0  0
  9 18  1  0  0  0  0
 10  5  1  0  0  0  0
 10  9  2  0  0  0  0
 11 10  1  0  0  0  0
 12 11  2  0  0  0  0
 12 16  1  0  0  0  0
 13 14  1  0  0  0  0
 13 12  1  0  0  0  0
 14 15  2  0  0  0  0
 15 16  1  0  0  0  0
 15 22  1  0  0  0  0
 16 17  2  0  0  0  0
 17  9  1  0  0  0  0
 17 23  1  0  0  0  0
 19 11  1  0  0  0  0
 20 13  1  0  0  0  0
 21 14  1  0  0  0  0
 24 28  1  0  0  0  0
 24 25  2  0  0  0  0
 26 27  1  0  0  0  0
 27 34  2  0  0  0  0
 27 28  1  0  0  0  0
 28 29  2  0  0  0  0
 29 31  1  0  0  0  0
 29 30  1  0  0  0  0
 31 32  1  0  0  0  0
 33 31  2  0  0  0  0
 34 33  1  0  0  0  0
M  END
>  <minimizedAffinity>
-6.69573832

$$$$

 OpenBabel03252504013D

 34 37  0  0  0  0  0  0  0  0999 V2000
   33.7900   28.7910   36.7560 C   0  0  0  0  0  0  0  0  0  0  0  0
   34.6390   29.0930   35.6840 C   0  0  0  0  0  0  0  0  0  0  0  0
   36.0010   29.0630   35.9180 C   0  0  0  0  0  0  0  0  0  0  0  0
   36.4410   28.7460   37.1580 N   0  0  0  0  0  0  0  0  0  0  0  0
   35.5830   28.4580   38.1770 C   0  0  0  0  0  0  0  0  0  0  0  0
   34.2520   28.4810   37.9720 N   0  0  0  0  0  0  0  0  0  0  0  0
   34.2290   29.3400   34.7050 H   0  0  0  0  0  0  0  0  0  0  0  0
   36.6710   29.2940   35.0980 H   0  0  0  0  0  0  0  0  0  0  0  0
   36.5030   26.8190   39.7260 C   0  0  0  0  0  0  0  0  0  0  0  0
   36.0840   28.1170   39.5170 C   0  0  0  0  0  0  0  0  0  0  0  0
   36.1420   29.0430   40.5430 C   0  0  0  0  0  0  0  0  0  0  0  0
   36.6280   28.6310   41.7740 C   0  0  0  0  0  0  0  0  0  0  0  0
   36.8050   29.2800   42.9410 N   0  0  0  0  0  0  0  0  0  0  0  0
   37.3160   28.4350   43.8620 C   0  0  0  0  0  0  0  0  0  0  0  0
   37.4820   27.1990   43.2930 C   0  0  0  0  0  0  0  0  0  0  0  0
   37.0500   27.3280   41.9880 C   0  0  0  0  0  0  0  0  0  0  0  0
   36.9840   26.4160   40.9500 C   0  0  0  0  0  0  0  0  0  0  0  0
   36.4560   26.0850   38.9120 H   0  0  0  0  0  0  0  0  0  0  0  0
   35.8110   30.0570   40.3700 H   0  0  0  0  0  0  0  0  0  0  0  0
   36.5920   30.2900   43.1520 H   0  0  0  0  0  0  0  0  0  0  0  0
   37.5680   28.6650   44.8980 H   0  0  0  0  0  0  0  0  0  0  0  0
   37.8670   26.2670   43.7230 H   0  0  0  0  0  0  0  0  0  0  0  0
   37.2960   25.3960   41.0560 H   0  0  0  0  0  0  0  0  0  0  0  0
   32.3680   28.8350   36.4630 C   0  0  0  0  0  0  0  0  0  0  0  0
   31.7420   27.9070   35.8520 O   0  0  0  0  0  0  0  0  0  0  0  0
   31.9530   30.8280   34.3460 Cl  0  0  0  0  0  0  0  0  0  0  0  0
   31.1580   30.9160   35.9020 C   0  0  0  0  0  0  0  0  0  0  0  0
   31.4440   29.9130   36.8050 C   0  0  0  0  0  0  0  0  0  0  0  0
   30.8160   29.9820   38.0310 C   0  0  0  0  0  0  0  0  0  0  0  0
   31.0100   29.2120   38.7800 H   0  0  0  0  0  0  0  0  0  0  0  0
   29.9480   31.0130   38.3240 C   0  0  0  0  0  0  0  0  0  0  0  0
   29.4700   31.0410   39.2960 H   0  0  0  0  0  0  0  0  0  0  0  0
   29.7010   31.9880   37.3800 C   0  0  0  0  0  3  0  0  0  0  0  0
   30.3040   31.9770   36.1160 C   0  0  0  0  0  3  0  0  0  0  0  0
  1  6  1  0  0  0  0
  2  3  1  0  0  0  0
  2  1  2  0  0  0  0
  3  4  2  0  0  0  0
  4  5  1  0  0  0  0
  5 10  1  0  0  0  0
  6  5  2  0  0  0  0
  7  2  1  0  0  0  0
  8  3  1  0  0  0  0
  9 17  1  0  0  0  0
 10  9  2  0  0  0  0
 10 11  1  0  0  0  0
 11 12  2  0  0  0  0
 12 16  1  0  0  0  0
 12 13  1  0  0  0  0
 13 20  1  0  0  0  0
 13 14  1  0  0  0  0
 14 21  1  0  0  0  0
 15 22  1  0  0  0  0
 15 14  2  0  0  0  0
 16 15  1  0  0  0  0
 17 23  1  0  0  0  0
 17 16  2  0  0  0  0
 18  9  1  0  0  0  0
 19 11  1  0  0  0  0
 24  1  1  0  0  0  0
 24 28  1  0  0  0  0
 25 24  2  0  0  0  0
 26 27  1  0  0  0  0
 27 34  2  0  0  0  0
 27 28  1  0  0  0  0
 28 29  2  0  0  0  0
 29 31  1  0  0  0  0
 29 30  1  0  0  0  0
 31 32  1  0  0  0  0
 33 31  2  0  0  0  0
 34 33  1  0  0  0  0
M  END
>  <minimizedAffinity>
-6.67200708

$$$$

 OpenBabel03252504013D

 34 37  0  0  0  0  0  0  0  0999 V2000
   36.9080   28.6720   41.8310 C   0  0  0  0  0  0  0  0  0  0  0  0
   35.7510   28.6510   41.0430 C   0  0  0  0  0  0  0  0  0  0  0  0
   35.5910   29.6600   40.1130 C   0  0  0  0  0  0  0  0  0  0  0  0
   36.5510   30.6090   40.0110 N   0  0  0  0  0  0  0  0  0  0  0  0
   37.6650   30.5950   40.7970 C   0  0  0  0  0  0  0  0  0  0  0  0
   37.8420   29.6210   41.7100 N   0  0  0  0  0  0  0  0  0  0  0  0
   35.0100   27.8610   41.1680 H   0  0  0  0  0  0  0  0  0  0  0  0
   34.7010   29.6570   39.4950 H   0  0  0  0  0  0  0  0  0  0  0  0
   38.2660   32.9370   40.4980 C   0  0  0  0  0  0  0  0  0  0  0  0
   38.6960   31.6370   40.6690 C   0  0  0  0  0  0  0  0  0  0  0  0
   40.0480   31.3490   40.7150 C   0  0  0  0  0  0  0  0  0  0  0  0
   40.9490   32.3950   40.5850 C   0  0  0  0  0  0  0  0  0  0  0  0
   42.2940   32.4360   40.5890 N   0  0  0  0  0  0  0  0  0  0  0  0
   42.7140   33.7100   40.4280 C   0  0  0  0  0  0  0  0  0  0  0  0
   41.6210   34.5300   40.3140 C   0  0  0  0  0  0  0  0  0  0  0  0
   40.5210   33.7030   40.4140 C   0  0  0  0  0  0  0  0  0  0  0  0
   39.1650   33.9710   40.3700 C   0  0  0  0  0  0  0  0  0  0  0  0
   37.1940   33.1650   40.4620 H   0  0  0  0  0  0  0  0  0  0  0  0
   40.3750   30.3270   40.8490 H   0  0  0  0  0  0  0  0  0  0  0  0
   42.9610   31.6280   40.6980 H   0  0  0  0  0  0  0  0  0  0  0  0
   43.7450   34.0630   40.3880 H   0  0  0  0  0  0  0  0  0  0  0  0
   41.5620   35.6160   40.1730 H   0  0  0  0  0  0  0  0  0  0  0  0
   38.7750   34.9610   40.2400 H   0  0  0  0  0  0  0  0  0  0  0  0
   37.0320   27.5930   42.7950 C   0  0  0  0  0  0  0  0  0  0  0  0
   36.1510   27.3290   43.6790 O   0  0  0  0  0  0  0  0  0  0  0  0
   36.7930   25.1690   41.1530 Cl  0  0  0  0  0  0  0  0  0  0  0  0
   38.1630   25.4780   42.1970 C   0  0  0  0  0  0  0  0  0  0  0  0
   38.1470   26.6570   42.9130 C   0  0  0  0  0  0  0  0  0  0  0  0
   39.2280   26.9010   43.7350 C   0  0  0  0  0  0  0  0  0  0  0  0
   39.2610   27.8200   44.3220 H   0  0  0  0  0  0  0  0  0  0  0  0
   40.2660   25.9980   43.8250 C   0  0  0  0  0  0  0  0  0  0  0  0
   41.1010   26.2160   44.4800 H   0  0  0  0  0  0  0  0  0  0  0  0
   40.2260   24.8350   43.0840 C   0  0  0  0  0  3  0  0  0  0  0  0
   39.1600   24.5260   42.2310 C   0  0  0  0  0  3  0  0  0  0  0  0
  1 24  1  0  0  0  0
  2  7  1  0  0  0  0
  2  1  2  0  0  0  0
  3  2  1  0  0  0  0
  4  3  2  0  0  0  0
  4  5  1  0  0  0  0
  5  6  2  0  0  0  0
  6  1  1  0  0  0  0
  8  3  1  0  0  0  0
  9 10  1  0  0  0  0
 10 11  2  0  0  0  0
 10  5  1  0  0  0  0
 11 19  1  0  0  0  0
 12 13  1  0  0  0  0
 12 11  1  0  0  0  0
 13 20  1  0  0  0  0
 14 13  1  0  0  0  0
 15 16  1  0  0  0  0
 15 14  2  0  0  0  0
 16 12  2  0  0  0  0
 17 16  1  0  0  0  0
 17  9  2  0  0  0  0
 18  9  1  0  0  0  0
 21 14  1  0  0  0  0
 22 15  1  0  0  0  0
 23 17  1  0  0  0  0
 24 28  1  0  0  0  0
 24 25  2  0  0  0  0
 26 27  1  0  0  0  0
 27 34  2  0  0  0  0
 27 28  1  0  0  0  0
 28 29  2  0  0  0  0
 29 31  1  0  0  0  0
 29 30  1  0  0  0  0
 31 32  1  0  0  0  0
 33 31  2  0  0  0  0
 34 33  1  0  0  0  0
M  END
>  <minimizedAffinity>
-6.63065815

$$$$

 OpenBabel03252504013D

 34 37  0  0  0  0  0  0  0  0999 V2000
   33.8430   28.8940   36.6000 C   0  0  0  0  0  0  0  0  0  0  0  0
   34.7150   29.1930   35.5460 C   0  0  0  0  0  0  0  0  0  0  0  0
   36.0720   29.1490   35.8050 C   0  0  0  0  0  0  0  0  0  0  0  0
   36.4860   28.8230   37.0520 N   0  0  0  0  0  0  0  0  0  0  0  0
   35.6050   28.5380   38.0530 C   0  0  0  0  0  0  0  0  0  0  0  0
   34.2790   28.5740   37.8230 N   0  0  0  0  0  0  0  0  0  0  0  0
   34.3250   29.4480   34.5600 H   0  0  0  0  0  0  0  0  0  0  0  0
   36.7590   29.3780   35.0000 H   0  0  0  0  0  0  0  0  0  0  0  0
   36.4200   26.8690   39.6290 C   0  0  0  0  0  0  0  0  0  0  0  0
   36.0780   28.1860   39.4010 C   0  0  0  0  0  0  0  0  0  0  0  0
   36.1830   29.1210   40.4150 C   0  0  0  0  0  0  0  0  0  0  0  0
   36.6370   28.6980   41.6550 C   0  0  0  0  0  0  0  0  0  0  0  0
   36.8440   29.3510   42.8140 N   0  0  0  0  0  0  0  0  0  0  0  0
   37.3000   28.4900   43.7490 C   0  0  0  0  0  0  0  0  0  0  0  0
   37.3980   27.2390   43.1980 C   0  0  0  0  0  0  0  0  0  0  0  0
   36.9830   27.3750   41.8880 C   0  0  0  0  0  0  0  0  0  0  0  0
   36.8700   26.4560   40.8610 C   0  0  0  0  0  0  0  0  0  0  0  0
   36.3370   26.1290   38.8240 H   0  0  0  0  0  0  0  0  0  0  0  0
   35.9120   30.1500   40.2270 H   0  0  0  0  0  0  0  0  0  0  0  0
   36.6880   30.3740   43.0110 H   0  0  0  0  0  0  0  0  0  0  0  0
   37.5580   28.7190   44.7850 H   0  0  0  0  0  0  0  0  0  0  0  0
   37.7270   26.2930   43.6420 H   0  0  0  0  0  0  0  0  0  0  0  0
   37.1230   25.4210   40.9820 H   0  0  0  0  0  0  0  0  0  0  0  0
   32.4280   28.9520   36.2810 C   0  0  0  0  0  0  0  0  0  0  0  0
   31.6860   27.9210   36.1600 O   0  0  0  0  0  0  0  0  0  0  0  0
   30.9860   29.9560   38.6350 Cl  0  0  0  0  0  0  0  0  0  0  0  0
   30.9110   30.7370   37.0710 C   0  0  0  0  0  0  0  0  0  0  0  0
   31.6380   30.1590   36.0500 C   0  0  0  0  0  0  0  0  0  0  0  0
   31.5790   30.7750   34.8180 C   0  0  0  0  0  0  0  0  0  0  0  0
   32.1360   30.3560   33.9790 H   0  0  0  0  0  0  0  0  0  0  0  0
   30.8240   31.9140   34.6320 C   0  0  0  0  0  0  0  0  0  0  0  0
   30.7970   32.3750   33.6520 H   0  0  0  0  0  0  0  0  0  0  0  0
   30.1180   32.4460   35.6910 C   0  0  0  0  0  3  0  0  0  0  0  0
   30.1340   31.8710   36.9670 C   0  0  0  0  0  3  0  0  0  0  0  0
  1  6  1  0  0  0  0
  2  3  1  0  0  0  0
  2  1  2  0  0  0  0
  3  4  2  0  0  0  0
  4  5  1  0  0  0  0
  5 10  1  0  0  0  0
  6  5  2  0  0  0  0
  7  2  1  0  0  0  0
  8  3  1  0  0  0  0
  9 17  1  0  0  0  0
 10  9  2  0  0  0  0
 10 11  1  0  0  0  0
 11 12  2  0  0  0  0
 12 16  1  0  0  0  0
 12 13  1  0  0  0  0
 13 20  1  0  0  0  0
 13 14  1  0  0  0  0
 14 21  1  0  0  0  0
 15 22  1  0  0  0  0
 15 14  2  0  0  0  0
 16 15  1  0  0  0  0
 17 23  1  0  0  0  0
 17 16  2  0  0  0  0
 18  9  1  0  0  0  0
 19 11  1  0  0  0  0
 24  1  1  0  0  0  0
 25 24  2  0  0  0  0
 27 26  1  0  0  0  0
 28 24  1  0  0  0  0
 28 27  2  0  0  0  0
 29 28  1  0  0  0  0
 30 29  1  0  0  0  0
 31 29  2  0  0  0  0
 31 33  1  0  0  0  0
 32 31  1  0  0  0  0
 33 34  2  0  0  0  0
 34 27  1  0  0  0  0
M  END
>  <minimizedAffinity>
-6.61375093

$$$$

 OpenBabel03252504013D

 34 37  0  0  0  0  0  0  0  0999 V2000
   36.9330   28.5840   41.7660 C   0  0  0  0  0  0  0  0  0  0  0  0
   37.6090   29.7750   42.0540 C   0  0  0  0  0  0  0  0  0  0  0  0
   37.5220   30.8000   41.1310 C   0  0  0  0  0  0  0  0  0  0  0  0
   36.7960   30.6030   40.0070 N   0  0  0  0  0  0  0  0  0  0  0  0
   36.1520   29.4280   39.7610 C   0  0  0  0  0  0  0  0  0  0  0  0
   36.2210   28.4150   40.6470 N   0  0  0  0  0  0  0  0  0  0  0  0
   38.1790   29.8790   42.9780 H   0  0  0  0  0  0  0  0  0  0  0  0
   38.0400   31.7290   41.3410 H   0  0  0  0  0  0  0  0  0  0  0  0
   36.0340   29.3560   37.3290 C   0  0  0  0  0  0  0  0  0  0  0  0
   35.3680   29.2350   38.5310 C   0  0  0  0  0  0  0  0  0  0  0  0
   34.0160   28.9430   38.5540 C   0  0  0  0  0  0  0  0  0  0  0  0
   33.3570   28.7790   37.3450 C   0  0  0  0  0  0  0  0  0  0  0  0
   32.0760   28.4970   37.0430 N   0  0  0  0  0  0  0  0  0  0  0  0
   31.9240   28.4380   35.7030 C   0  0  0  0  0  0  0  0  0  0  0  0
   33.1310   28.6880   35.1030 C   0  0  0  0  0  0  0  0  0  0  0  0
   34.0230   28.9000   36.1350 C   0  0  0  0  0  0  0  0  0  0  0  0
   35.3750   29.1920   36.1330 C   0  0  0  0  0  0  0  0  0  0  0  0
   37.1050   29.5870   37.3110 H   0  0  0  0  0  0  0  0  0  0  0  0
   33.5030   28.8500   39.5010 H   0  0  0  0  0  0  0  0  0  0  0  0
   31.2790   28.3370   37.7130 H   0  0  0  0  0  0  0  0  0  0  0  0
   31.0040   28.2300   35.1530 H   0  0  0  0  0  0  0  0  0  0  0  0
   33.4000   28.7260   34.0410 H   0  0  0  0  0  0  0  0  0  0  0  0
   35.9420   29.2970   35.2290 H   0  0  0  0  0  0  0  0  0  0  0  0
   37.0530   27.5360   42.7640 C   0  0  0  0  0  0  0  0  0  0  0  0
   36.1610   27.2900   43.6430 O   0  0  0  0  0  0  0  0  0  0  0  0
   36.8260   25.0240   41.2580 Cl  0  0  0  0  0  0  0  0  0  0  0  0
   38.1970   25.3990   42.2780 C   0  0  0  0  0  0  0  0  0  0  0  0
   38.1750   26.6160   42.9280 C   0  0  0  0  0  0  0  0  0  0  0  0
   39.2570   26.9120   43.7310 C   0  0  0  0  0  0  0  0  0  0  0  0
   39.2860   27.8620   44.2670 H   0  0  0  0  0  0  0  0  0  0  0  0
   40.3020   26.0230   43.8660 C   0  0  0  0  0  0  0  0  0  0  0  0
   41.1380   26.2830   44.5040 H   0  0  0  0  0  0  0  0  0  0  0  0
   40.2680   24.8210   43.1900 C   0  0  0  0  0  3  0  0  0  0  0  0
   39.2010   24.4580   42.3590 C   0  0  0  0  0  3  0  0  0  0  0  0
  1  2  1  0  0  0  0
  1 24  1  0  0  0  0
  2  7  1  0  0  0  0
  3  8  1  0  0  0  0
  3  2  2  0  0  0  0
  4  3  1  0  0  0  0
  5  4  2  0  0  0  0
  5  6  1  0  0  0  0
  6  1  2  0  0  0  0
  9 10  1  0  0  0  0
 10 11  2  0  0  0  0
 10  5  1  0  0  0  0
 11 19  1  0  0  0  0
 12 11  1  0  0  0  0
 13 12  1  0  0  0  0
 13 20  1  0  0  0  0
 14 13  1  0  0  0  0
 15 14  2  0  0  0  0
 15 16  1  0  0  0  0
 16 12  2  0  0  0  0
 17 16  1  0  0  0  0
 17  9  2  0  0  0  0
 18  9  1  0  0  0  0
 21 14  1  0  0  0  0
 22 15  1  0  0  0  0
 23 17  1  0  0  0  0
 24 28  1  0  0  0  0
 24 25  2  0  0  0  0
 26 27  1  0  0  0  0
 27 34  2  0  0  0  0
 27 28  1  0  0  0  0
 28 29  2  0  0  0  0
 29 31  1  0  0  0  0
 29 30  1  0  0  0  0
 31 32  1  0  0  0  0
 33 31  2  0  0  0  0
 34 33  1  0  0  0  0
M  END
>  <minimizedAffinity>
-6.54029179

$$$$

 OpenBabel03252504013D

 34 37  0  0  0  0  0  0  0  0999 V2000
   36.5790   28.5320   41.6560 C   0  0  0  0  0  0  0  0  0  0  0  0
   37.1510   29.7590   42.0130 C   0  0  0  0  0  0  0  0  0  0  0  0
   37.0120   30.8120   41.1290 C   0  0  0  0  0  0  0  0  0  0  0  0
   36.3360   30.6070   39.9750 N   0  0  0  0  0  0  0  0  0  0  0  0
   35.7930   29.3970   39.6620 C   0  0  0  0  0  0  0  0  0  0  0  0
   35.9160   28.3560   40.5090 N   0  0  0  0  0  0  0  0  0  0  0  0
   37.6840   29.8680   42.9580 H   0  0  0  0  0  0  0  0  0  0  0  0
   37.4490   31.7680   41.3920 H   0  0  0  0  0  0  0  0  0  0  0  0
   35.7800   29.3090   37.2280 C   0  0  0  0  0  0  0  0  0  0  0  0
   35.0620   29.1960   38.4010 C   0  0  0  0  0  0  0  0  0  0  0  0
   33.7110   28.9050   38.3670 C   0  0  0  0  0  0  0  0  0  0  0  0
   33.1050   28.7320   37.1320 C   0  0  0  0  0  0  0  0  0  0  0  0
   31.8380   28.4480   36.7770 N   0  0  0  0  0  0  0  0  0  0  0  0
   31.7440   28.3800   35.4320 C   0  0  0  0  0  0  0  0  0  0  0  0
   32.9750   28.6260   34.8830 C   0  0  0  0  0  0  0  0  0  0  0  0
   33.8230   28.8450   35.9510 C   0  0  0  0  0  0  0  0  0  0  0  0
   35.1740   29.1370   36.0050 C   0  0  0  0  0  0  0  0  0  0  0  0
   36.8510   29.5400   37.2550 H   0  0  0  0  0  0  0  0  0  0  0  0
   33.1570   28.8180   39.2920 H   0  0  0  0  0  0  0  0  0  0  0  0
   31.0130   28.2930   37.4130 H   0  0  0  0  0  0  0  0  0  0  0  0
   30.8490   28.1680   34.8450 H   0  0  0  0  0  0  0  0  0  0  0  0
   33.2900   28.6570   33.8340 H   0  0  0  0  0  0  0  0  0  0  0  0
   35.7790   29.2360   35.1260 H   0  0  0  0  0  0  0  0  0  0  0  0
   36.7510   27.4560   42.6160 C   0  0  0  0  0  0  0  0  0  0  0  0
   36.2360   27.4590   43.7830 O   0  0  0  0  0  0  0  0  0  0  0  0
   39.5470   27.5830   43.5060 Cl  0  0  0  0  0  0  0  0  0  0  0  0
   38.8430   26.1500   42.7900 C   0  0  0  0  0  0  0  0  0  0  0  0
   37.5170   26.2280   42.4170 C   0  0  0  0  0  0  0  0  0  0  0  0
   36.9620   25.0980   41.8530 C   0  0  0  0  0  0  0  0  0  0  0  0
   35.9160   25.1100   41.5410 H   0  0  0  0  0  0  0  0  0  0  0  0
   37.7110   23.9540   41.6790 C   0  0  0  0  0  0  0  0  0  0  0  0
   37.2480   23.0820   41.2330 H   0  0  0  0  0  0  0  0  0  0  0  0
   39.0330   23.9360   42.0730 C   0  0  0  0  0  3  0  0  0  0  0  0
   39.6580   25.0470   42.6510 C   0  0  0  0  0  3  0  0  0  0  0  0
  1  2  1  0  0  0  0
  1 24  1  0  0  0  0
  2  7  1  0  0  0  0
  3  8  1  0  0  0  0
  3  2  2  0  0  0  0
  4  3  1  0  0  0  0
  5  4  2  0  0  0  0
  5  6  1  0  0  0  0
  6  1  2  0  0  0  0
  9 18  1  0  0  0  0
  9 10  1  0  0  0  0
 10  5  1  0  0  0  0
 11 10  2  0  0  0  0
 11 19  1  0  0  0  0
 12 11  1  0  0  0  0
 13 12  1  0  0  0  0
 13 20  1  0  0  0  0
 14 13  1  0  0  0  0
 15 14  2  0  0  0  0
 15 16  1  0  0  0  0
 16 17  1  0  0  0  0
 16 12  2  0  0  0  0
 17  9  2  0  0  0  0
 21 14  1  0  0  0  0
 22 15  1  0  0  0  0
 23 17  1  0  0  0  0
 24 25  2  0  0  0  0
 27 26  1  0  0  0  0
 28 24  1  0  0  0  0
 28 27  2  0  0  0  0
 29 28  1  0  0  0  0
 30 29  1  0  0  0  0
 31 29  2  0  0  0  0
 31 33  1  0  0  0  0
 32 31  1  0  0  0  0
 33 34  2  0  0  0  0
 34 27  1  0  0  0  0
M  END
>  <minimizedAffinity>
-6.43861055

$$$$

 OpenBabel03252504013D

 34 37  0  0  0  0  0  0  0  0999 V2000
   36.6850   29.6910   39.2760 C   0  0  0  0  0  0  0  0  0  0  0  0
   36.0510   29.3920   38.0640 C   0  0  0  0  0  0  0  0  0  0  0  0
   36.5450   29.9880   36.9190 C   0  0  0  0  0  0  0  0  0  0  0  0
   37.6060   30.8210   37.0260 N   0  0  0  0  0  0  0  0  0  0  0  0
   38.1960   31.0880   38.2250 C   0  0  0  0  0  0  0  0  0  0  0  0
   37.7320   30.5180   39.3540 N   0  0  0  0  0  0  0  0  0  0  0  0
   35.1990   28.7110   38.0370 H   0  0  0  0  0  0  0  0  0  0  0  0
   36.0660   29.7660   35.9730 H   0  0  0  0  0  0  0  0  0  0  0  0
   39.3790   32.8770   39.3810 C   0  0  0  0  0  0  0  0  0  0  0  0
   39.3490   31.9970   38.3180 C   0  0  0  0  0  0  0  0  0  0  0  0
   40.3730   31.9900   37.3890 C   0  0  0  0  0  0  0  0  0  0  0  0
   41.4200   32.8840   37.5560 C   0  0  0  0  0  0  0  0  0  0  0  0
   42.5360   33.1160   36.8400 N   0  0  0  0  0  0  0  0  0  0  0  0
   43.2550   34.1020   37.4180 C   0  0  0  0  0  0  0  0  0  0  0  0
   42.6000   34.5340   38.5420 C   0  0  0  0  0  0  0  0  0  0  0  0
   41.4540   33.7690   38.6230 C   0  0  0  0  0  0  0  0  0  0  0  0
   40.4190   33.7610   39.5420 C   0  0  0  0  0  0  0  0  0  0  0  0
   38.5660   32.8820   40.1170 H   0  0  0  0  0  0  0  0  0  0  0  0
   40.3410   31.2980   36.5590 H   0  0  0  0  0  0  0  0  0  0  0  0
   42.8460   32.6290   35.9590 H   0  0  0  0  0  0  0  0  0  0  0  0
   44.2050   34.5130   37.0730 H   0  0  0  0  0  0  0  0  0  0  0  0
   42.8710   35.3130   39.2640 H   0  0  0  0  0  0  0  0  0  0  0  0
   40.3920   34.4210   40.3860 H   0  0  0  0  0  0  0  0  0  0  0  0
   36.1310   29.0420   40.4510 C   0  0  0  0  0  0  0  0  0  0  0  0
   34.8810   28.9850   40.7050 O   0  0  0  0  0  0  0  0  0  0  0  0
   36.5840   26.1740   40.0120 Cl  0  0  0  0  0  0  0  0  0  0  0  0
   37.1650   27.0210   41.4280 C   0  0  0  0  0  0  0  0  0  0  0  0
   36.8810   28.3690   41.5080 C   0  0  0  0  0  0  0  0  0  0  0  0
   37.3400   29.0360   42.6240 C   0  0  0  0  0  0  0  0  0  0  0  0
   37.1410   30.1040   42.7330 H   0  0  0  0  0  0  0  0  0  0  0  0
   38.0460   28.3720   43.6050 C   0  0  0  0  0  0  0  0  0  0  0  0
   38.3940   28.9230   44.4700 H   0  0  0  0  0  0  0  0  0  0  0  0
   38.2990   27.0230   43.4690 C   0  0  0  0  0  3  0  0  0  0  0  0
   37.8630   26.2860   42.3620 C   0  0  0  0  0  3  0  0  0  0  0  0
  1  6  1  0  0  0  0
  1 24  1  0  0  0  0
  2  1  2  0  0  0  0
  3  4  2  0  0  0  0
  3  2  1  0  0  0  0
  4  5  1  0  0  0  0
  5 10  1  0  0  0  0
  5  6  2  0  0  0  0
  7  2  1  0  0  0  0
  8  3  1  0  0  0  0
  9 17  1  0  0  0  0
  9 18  1  0  0  0  0
 10  9  2  0  0  0  0
 11 12  2  0  0  0  0
 11 10  1  0  0  0  0
 12 16  1  0  0  0  0
 13 14  1  0  0  0  0
 13 12  1  0  0  0  0
 14 15  2  0  0  0  0
 15 16  1  0  0  0  0
 15 22  1  0  0  0  0
 16 17  2  0  0  0  0
 17 23  1  0  0  0  0
 19 11  1  0  0  0  0
 20 13  1  0  0  0  0
 21 14  1  0  0  0  0
 24 25  2  0  0  0  0
 24 28  1  0  0  0  0
 26 27  1  0  0  0  0
 27 28  2  0  0  0  0
 27 34  1  0  0  0  0
 28 29  1  0  0  0  0
 29 30  1  0  0  0  0
 29 31  2  0  0  0  0
 31 32  1  0  0  0  0
 33 31  1  0  0  0  0
 34 33  2  0  0  0  0
M  END
>  <minimizedAffinity>
-6.27799177

$$$$

 OpenBabel03252504013D

 34 37  0  0  0  0  0  0  0  0999 V2000
   37.7270   28.9220   41.7110 C   0  0  0  0  0  0  0  0  0  0  0  0
   38.3870   30.1100   42.0490 C   0  0  0  0  0  0  0  0  0  0  0  0
   38.4660   31.0960   41.0830 C   0  0  0  0  0  0  0  0  0  0  0  0
   37.9070   30.8660   39.8720 N   0  0  0  0  0  0  0  0  0  0  0  0
   37.2730   29.6950   39.5810 C   0  0  0  0  0  0  0  0  0  0  0  0
   37.1830   28.7210   40.5070 N   0  0  0  0  0  0  0  0  0  0  0  0
   38.8180   30.2410   43.0410 H   0  0  0  0  0  0  0  0  0  0  0  0
   38.9740   32.0210   41.3290 H   0  0  0  0  0  0  0  0  0  0  0  0
   35.3080   29.2640   38.2060 C   0  0  0  0  0  0  0  0  0  0  0  0
   36.6720   29.4670   38.2570 C   0  0  0  0  0  0  0  0  0  0  0  0
   37.4240   29.4510   37.0970 C   0  0  0  0  0  0  0  0  0  0  0  0
   36.7730   29.2280   35.8930 C   0  0  0  0  0  0  0  0  0  0  0  0
   37.2150   29.1560   34.6240 N   0  0  0  0  0  0  0  0  0  0  0  0
   36.1800   28.9170   33.7910 C   0  0  0  0  0  0  0  0  0  0  0  0
   35.0250   28.8290   34.5240 C   0  0  0  0  0  0  0  0  0  0  0  0
   35.4020   29.0240   35.8380 C   0  0  0  0  0  0  0  0  0  0  0  0
   34.6670   29.0430   37.0100 C   0  0  0  0  0  0  0  0  0  0  0  0
   34.7120   29.2770   39.1270 H   0  0  0  0  0  0  0  0  0  0  0  0
   38.4920   29.6110   37.1470 H   0  0  0  0  0  0  0  0  0  0  0  0
   38.2060   29.2620   34.2830 H   0  0  0  0  0  0  0  0  0  0  0  0
   36.2200   28.8060   32.7060 H   0  0  0  0  0  0  0  0  0  0  0  0
   33.9940   28.6450   34.2020 H   0  0  0  0  0  0  0  0  0  0  0  0
   33.6060   28.8920   37.0290 H   0  0  0  0  0  0  0  0  0  0  0  0
   37.6690   27.9170   42.7570 C   0  0  0  0  0  0  0  0  0  0  0  0
   36.7940   27.9110   43.6860 O   0  0  0  0  0  0  0  0  0  0  0  0
   36.8670   25.4850   41.3180 Cl  0  0  0  0  0  0  0  0  0  0  0  0
   38.3130   25.5750   42.2990 C   0  0  0  0  0  0  0  0  0  0  0  0
   38.5710   26.7790   42.9200 C   0  0  0  0  0  0  0  0  0  0  0  0
   39.7110   26.8500   43.6930 C   0  0  0  0  0  0  0  0  0  0  0  0
   39.9580   27.7810   44.2050 H   0  0  0  0  0  0  0  0  0  0  0  0
   40.5430   25.7580   43.8270 C   0  0  0  0  0  0  0  0  0  0  0  0
   41.4310   25.8440   44.4410 H   0  0  0  0  0  0  0  0  0  0  0  0
   40.2330   24.5800   43.1810 C   0  0  0  0  0  3  0  0  0  0  0  0
   39.0920   24.4400   42.3820 C   0  0  0  0  0  3  0  0  0  0  0  0
  1  2  1  0  0  0  0
  1 24  1  0  0  0  0
  2  7  1  0  0  0  0
  3  8  1  0  0  0  0
  3  2  2  0  0  0  0
  4  3  1  0  0  0  0
  5  4  2  0  0  0  0
  5  6  1  0  0  0  0
  6  1  2  0  0  0  0
  9 10  1  0  0  0  0
  9 18  1  0  0  0  0
 10  5  1  0  0  0  0
 11 19  1  0  0  0  0
 11 10  2  0  0  0  0
 12 11  1  0  0  0  0
 13 12  1  0  0  0  0
 14 15  2  0  0  0  0
 14 13  1  0  0  0  0
 15 16  1  0  0  0  0
 16 12  2  0  0  0  0
 16 17  1  0  0  0  0
 17 23  1  0  0  0  0
 17  9  2  0  0  0  0
 20 13  1  0  0  0  0
 21 14  1  0  0  0  0
 22 15  1  0  0  0  0
 24 28  1  0  0  0  0
 24 25  2  0  0  0  0
 26 27  1  0  0  0  0
 27 34  2  0  0  0  0
 27 28  1  0  0  0  0
 28 29  2  0  0  0  0
 29 31  1  0  0  0  0
 29 30  1  0  0  0  0
 31 32  1  0  0  0  0
 33 31  2  0  0  0  0
 34 33  1  0  0  0  0
M  END
>  <minimizedAffinity>
-6.2592926

$$$$

 OpenBabel03252504013D

 34 37  0  0  0  0  0  0  0  0999 V2000
   37.7670   26.8780   41.4320 C   0  0  0  0  0  0  0  0  0  0  0  0
   37.4160   26.6030   42.7600 C   0  0  0  0  0  0  0  0  0  0  0  0
   37.2660   27.6750   43.6180 C   0  0  0  0  0  0  0  0  0  0  0  0
   37.4630   28.9250   43.1380 N   0  0  0  0  0  0  0  0  0  0  0  0
   37.8040   29.1530   41.8380 C   0  0  0  0  0  0  0  0  0  0  0  0
   37.9550   28.1230   40.9830 N   0  0  0  0  0  0  0  0  0  0  0  0
   37.2690   25.5750   43.0910 H   0  0  0  0  0  0  0  0  0  0  0  0
   36.9940   27.4780   44.6480 H   0  0  0  0  0  0  0  0  0  0  0  0
   36.9820   31.1020   40.6300 C   0  0  0  0  0  0  0  0  0  0  0  0
   38.0140   30.5210   41.3380 C   0  0  0  0  0  0  0  0  0  0  0  0
   39.1890   31.2160   41.5560 C   0  0  0  0  0  0  0  0  0  0  0  0
   39.2990   32.5010   41.0460 C   0  0  0  0  0  0  0  0  0  0  0  0
   40.2900   33.4100   41.0890 N   0  0  0  0  0  0  0  0  0  0  0  0
   39.9120   34.5310   40.4370 C   0  0  0  0  0  0  0  0  0  0  0  0
   38.6420   34.3600   39.9500 C   0  0  0  0  0  0  0  0  0  0  0  0
   38.2640   33.0890   40.3350 C   0  0  0  0  0  0  0  0  0  0  0  0
   37.0960   32.3770   40.1270 C   0  0  0  0  0  0  0  0  0  0  0  0
   36.0500   30.5510   40.4580 H   0  0  0  0  0  0  0  0  0  0  0  0
   39.9920   30.7520   42.1110 H   0  0  0  0  0  0  0  0  0  0  0  0
   41.2330   33.3110   41.5480 H   0  0  0  0  0  0  0  0  0  0  0  0
   40.4970   35.4420   40.3000 H   0  0  0  0  0  0  0  0  0  0  0  0
   38.0060   35.0410   39.3740 H   0  0  0  0  0  0  0  0  0  0  0  0
   36.2620   32.7800   39.5860 H   0  0  0  0  0  0  0  0  0  0  0  0
   37.9140   25.7210   40.5680 C   0  0  0  0  0  0  0  0  0  0  0  0
   39.0340   25.1640   40.3140 O   0  0  0  0  0  0  0  0  0  0  0  0
   37.2260   26.8340   37.9380 Cl  0  0  0  0  0  0  0  0  0  0  0  0
   36.4200   25.4380   38.6190 C   0  0  0  0  0  0  0  0  0  0  0  0
   36.8430   25.0200   39.8640 C   0  0  0  0  0  0  0  0  0  0  0  0
   36.2080   23.9190   40.4000 C   0  0  0  0  0  0  0  0  0  0  0  0
   36.5070   23.5500   41.3820 H   0  0  0  0  0  0  0  0  0  0  0  0
   35.2010   23.2790   39.7100 C   0  0  0  0  0  0  0  0  0  0  0  0
   34.7200   22.4160   40.1560 H   0  0  0  0  0  0  0  0  0  0  0  0
   34.8210   23.7430   38.4680 C   0  0  0  0  0  3  0  0  0  0  0  0
   35.4230   24.8540   37.8660 C   0  0  0  0  0  3  0  0  0  0  0  0
  1  2  1  0  0  0  0
  2  7  1  0  0  0  0
  2  3  2  0  0  0  0
  3  8  1  0  0  0  0
  4  3  1  0  0  0  0
  5  4  2  0  0  0  0
  6  1  2  0  0  0  0
  6  5  1  0  0  0  0
  9 10  1  0  0  0  0
 10 11  2  0  0  0  0
 10  5  1  0  0  0  0
 11 19  1  0  0  0  0
 12 13  1  0  0  0  0
 12 11  1  0  0  0  0
 13 20  1  0  0  0  0
 14 13  1  0  0  0  0
 15 16  1  0  0  0  0
 15 14  2  0  0  0  0
 16 12  2  0  0  0  0
 17 16  1  0  0  0  0
 17  9  2  0  0  0  0
 18  9  1  0  0  0  0
 21 14  1  0  0  0  0
 22 15  1  0  0  0  0
 23 17  1  0  0  0  0
 24  1  1  0  0  0  0
 25 24  2  0  0  0  0
 26 27  1  0  0  0  0
 27 28  1  0  0  0  0
 28 29  2  0  0  0  0
 28 24  1  0  0  0  0
 29 30  1  0  0  0  0
 31 32  1  0  0  0  0
 31 29  1  0  0  0  0
 33 31  2  0  0  0  0
 34 33  1  0  0  0  0
 34 27  2  0  0  0  0
M  END
>  <minimizedAffinity>
-6.19491959

$$$$
