
     RDKit          3D

 37 39  0  0  0  0  0  0  0  0999 V2000
   45.1259   34.4155   41.1870 C   0  0  0  0  0  0  0  0  0  0  0  0
   45.5459   35.0216   42.3681 C   0  0  0  0  0  0  0  0  0  0  0  0
   46.9210   35.2469   42.5548 C   0  0  0  0  0  0  0  0  0  0  0  0
   47.8048   34.8672   41.5772 C   0  0  0  0  0  0  0  0  0  0  0  0
   47.4063   34.2719   40.4136 C   0  0  0  0  0  0  0  0  0  0  0  0
   46.0351   34.0571   40.2484 C   0  0  0  0  0  0  0  0  0  0  0  0
   41.4366   34.8463   40.5773 C   0  0  0  0  0  0  0  0  0  0  0  0
   42.8045   35.1794   40.6592 C   0  0  0  0  0  0  0  0  0  0  0  0
   43.7020   34.2123   41.0608 C   0  0  0  0  0  0  0  0  0  0  0  0
   43.1968   32.9765   41.3569 N   0  0  0  0  0  0  0  0  0  0  0  0
   41.8866   32.6682   41.2753 C   0  0  0  0  0  0  0  0  0  0  0  0
   40.9957   33.6083   40.8826 N   0  0  0  0  0  0  0  0  0  0  0  0
   40.4496   35.8667   40.1493 C   0  0  0  0  0  0  0  0  0  0  0  0
   39.2237   35.2190   39.9581 F   0  0  0  0  0  0  0  0  0  0  0  0
   40.8481   36.2988   38.8771 F   0  0  0  0  0  0  0  0  0  0  0  0
   40.3129   36.9039   41.0417 F   0  0  0  0  0  0  0  0  0  0  0  0
   45.4584   32.1467   38.5568 C   0  0  0  0  0  0  0  0  0  0  0  0
   45.9309   31.1440   39.0733 O   0  0  0  0  0  0  0  0  0  0  0  0
   45.4919   33.4528   39.0912 N   0  0  0  0  0  0  0  0  0  0  0  0
   44.8557   35.3244   43.1442 H   0  0  0  0  0  0  0  0  0  0  0  0
   47.2967   35.7091   43.4439 H   0  0  0  0  0  0  0  0  0  0  0  0
   48.8910   34.9979   41.6266 H   0  0  0  0  0  0  0  0  0  0  0  0
   47.9963   33.9300   39.5774 H   0  0  0  0  0  0  0  0  0  0  0  0
   43.1684   36.1598   40.4187 H   0  0  0  0  0  0  0  0  0  0  0  0
   41.5008   31.6886   41.5120 H   0  0  0  0  0  0  0  0  0  0  0  0
   45.0159   34.2154   38.5485 H   0  0  0  0  0  0  0  0  0  0  0  0
   45.5267   34.3863   36.5008 Cl  0  0  0  0  0  0  0  0  0  0  0  0
   44.7428   32.8283   36.2182 C   0  0  0  0  0  0  0  0  0  0  0  0
   44.8085   31.9257   37.2673 C   0  0  0  0  0  0  0  0  0  0  0  0
   44.2237   30.6671   37.1551 C   0  0  0  0  0  0  0  0  0  0  0  0
   44.2439   29.9117   37.9520 H   0  0  0  0  0  0  0  0  0  0  0  0
   43.5610   30.2816   35.9947 C   0  0  0  0  0  0  0  0  0  0  0  0
   43.1090   29.3039   35.9120 H   0  0  0  0  0  0  0  0  0  0  0  0
   43.5099   31.2122   34.9518 C   0  0  0  0  0  0  0  0  0  0  0  0
   44.0911   32.4658   35.0613 C   0  0  0  0  0  0  0  0  0  0  0  0
   43.0086   30.9708   34.0231 H   0  0  0  0  0  0  0  0  0  0  0  0
   44.0789   33.2121   34.2925 H   0  0  0  0  0  0  0  0  0  0  0  0
  1  2  2  0
  2  3  1  0
  4  3  2  0
  5  4  1  0
  6  5  2  0
  6  1  1  0
  7  8  2  0
  7 12  1  0
  8  9  1  0
  9  1  1  0
  9 10  2  0
 11 10  1  0
 12 11  2  0
 13  7  1  0
 13 16  1  0
 14 13  1  0
 15 13  1  0
 17 18  2  0
 17 19  1  0
 19  6  1  0
  2 20  1  0
  3 21  1  0
  4 22  1  0
  5 23  1  0
  8 24  1  0
 11 25  1  0
 19 26  1  0
 27 28  1  0
 28 29  2  0
 29 30  1  0
 30 31  1  0
 30 32  2  0
 32 33  1  0
 32 34  1  0
 34 35  2  0
 35 28  1  0
 34 36  1  0
 35 37  1  0
 17 29  1  0
M  ISO  8  20  14  21  14  22  14  23  14  24  14  25  14  31  15  33  16
M  END
>  <DihAtoms>  (1) 
17,16,28,27

>  <DihDeg>  (1) 
61.546989543054806

$$$$
