
 OpenBabel03252507593D

 29 31  0  0  1  0  0  0  0  0999 V2000
   46.3390   34.6820   43.3230 C   0  0  0  0  0  0  0  0  0  0  0  0
   45.3840   35.7120   43.5680 C   0  0  0  0  0  0  0  0  0  0  0  0
   44.6630   35.6050   44.7560 C   0  0  0  0  0  0  0  0  0  0  0  0
   44.9020   34.5620   45.5830 N   0  0  0  0  0  0  0  0  0  0  0  0
   45.8430   33.6060   45.2740 C   0  0  0  0  0  0  0  0  0  0  0  0
   46.5630   33.6390   44.1710 N   0  0  0  0  0  0  0  0  0  0  0  0
   45.2610   36.5080   42.8480 H   0  0  0  0  0  0  0  0  0  0  0  0
   43.9280   36.3650   44.9830 H   0  0  0  0  0  0  0  0  0  0  0  0
   46.0620   32.4780   46.2320 C   0  0  1  0  0  0  0  0  0  0  0  0
   46.8450   32.7390   47.4940 C   0  0  0  0  0  0  0  0  0  0  0  0
   45.3470   32.6220   47.5190 C   0  0  1  0  0  0  0  0  0  0  0  0
   46.2000   31.5060   45.7550 H   0  0  0  0  0  0  0  0  0  0  0  0
   47.3520   33.7020   47.6260 H   0  0  0  0  0  0  0  0  0  0  0  0
   47.3700   31.8560   47.8960 H   0  0  0  0  0  0  0  0  0  0  0  0
   44.8590   31.7490   47.9640 H   0  0  0  0  0  0  0  0  0  0  0  0
   44.7060   33.8990   47.8450 N   0  0  0  0  0  0  0  0  0  0  0  0
   45.2770   34.4590   48.5100 H   0  0  0  0  0  0  0  0  0  0  0  0
   43.7190   33.7750   48.1540 H   0  0  0  0  0  0  0  0  0  0  0  0
   47.0800   34.8120   42.0820 C   0  0  0  0  0  0  0  0  0  0  0  0
   47.9040   35.7470   41.8470 O   0  0  0  0  0  0  0  0  0  0  0  0
   44.4200   34.6150   40.6000 Cl  0  0  0  0  0  0  0  0  0  0  0  0
   45.7740   33.5840   40.2470 C   0  0  0  0  0  0  0  0  0  0  0  0
   46.8840   33.8120   41.0090 C   0  0  0  0  0  0  0  0  0  0  0  0
   48.0230   33.0290   40.7940 C   0  0  0  0  0  0  0  0  0  0  0  0
   48.9550   33.1370   41.3510 H   0  0  0  0  0  0  0  0  0  0  0  0
   48.0610   32.0350   39.8400 C   0  0  0  0  0  0  0  0  0  0  0  0
   48.9110   31.4130   39.6420 H   0  0  0  0  0  0  0  0  0  0  0  0
   46.9310   31.8140   39.0760 C   0  0  0  0  0  3  0  0  0  0  0  0
   45.8180   32.5900   39.2960 C   0  0  0  0  0  3  0  0  0  0  0  0
  1  2  2  0  0  0  0
  1  6  1  0  0  0  0
  2  3  1  0  0  0  0
  3  8  1  0  0  0  0
  3  4  2  0  0  0  0
  5  4  1  0  0  0  0
  5  9  1  0  0  0  0
  6  5  2  0  0  0  0
  7  2  1  0  0  0  0
  9 12  1  6  0  0  0
  9 10  1  0  0  0  0
  9 11  1  0  0  0  0
 10 11  1  0  0  0  0
 10 13  1  0  0  0  0
 10 14  1  0  0  0  0
 11 16  1  0  0  0  0
 11 15  1  1  0  0  0
 16 18  1  0  0  0  0
 16 17  1  0  0  0  0
 19  1  1  0  0  0  0
 20 19  2  0  0  0  0
 22 21  1  0  0  0  0
 22 23  1  0  0  0  0
 23 19  1  0  0  0  0
 24 23  2  0  0  0  0
 24 25  1  0  0  0  0
 26 24  1  0  0  0  0
 27 26  1  0  0  0  0
 28 29  1  0  0  0  0
 28 26  2  0  0  0  0
 29 22  2  0  0  0  0
M  END
>  <minimizedAffinity>
-5.40693569

>  <minimizedRMSD>
1.05522466

$$$$
