
 OpenBabel03252507593D

 29 31  0  0  1  0  0  0  0  0999 V2000
   46.5650   34.6970   43.1970 C   0  0  0  0  0  0  0  0  0  0  0  0
   45.5710   35.7100   43.3490 C   0  0  0  0  0  0  0  0  0  0  0  0
   44.7520   35.5970   44.4710 C   0  0  0  0  0  0  0  0  0  0  0  0
   44.9400   34.5660   45.3270 N   0  0  0  0  0  0  0  0  0  0  0  0
   45.9230   33.6280   45.1100 C   0  0  0  0  0  0  0  0  0  0  0  0
   46.7350   33.6670   44.0720 N   0  0  0  0  0  0  0  0  0  0  0  0
   45.4950   36.4960   42.6120 H   0  0  0  0  0  0  0  0  0  0  0  0
   43.9850   36.3430   44.6260 H   0  0  0  0  0  0  0  0  0  0  0  0
   46.0820   32.5130   46.0940 C   0  0  1  0  0  0  0  0  0  0  0  0
   46.8150   32.7830   47.3850 C   0  0  0  0  0  0  0  0  0  0  0  0
   45.3160   32.6910   47.3470 C   0  0  1  0  0  0  0  0  0  0  0  0
   46.2230   31.5310   45.6400 H   0  0  0  0  0  0  0  0  0  0  0  0
   47.3320   33.7390   47.5220 H   0  0  0  0  0  0  0  0  0  0  0  0
   47.3070   31.8980   47.8230 H   0  0  0  0  0  0  0  0  0  0  0  0
   44.7940   31.8350   47.7850 H   0  0  0  0  0  0  0  0  0  0  0  0
   44.6840   33.9840   47.6250 N   0  0  0  0  0  0  0  0  0  0  0  0
   45.2360   34.5460   48.3040 H   0  0  0  0  0  0  0  0  0  0  0  0
   43.6820   33.8820   47.8930 H   0  0  0  0  0  0  0  0  0  0  0  0
   47.4070   34.8320   42.0240 C   0  0  0  0  0  0  0  0  0  0  0  0
   48.1650   35.8260   41.8100 O   0  0  0  0  0  0  0  0  0  0  0  0
   44.8950   34.2450   40.3930 Cl  0  0  0  0  0  0  0  0  0  0  0  0
   46.3820   33.3690   40.1840 C   0  0  0  0  0  0  0  0  0  0  0  0
   47.4030   33.7660   40.9990 C   0  0  0  0  0  0  0  0  0  0  0  0
   48.6390   33.1160   40.8990 C   0  0  0  0  0  0  0  0  0  0  0  0
   49.5110   33.3620   41.5070 H   0  0  0  0  0  0  0  0  0  0  0  0
   48.8580   32.0890   40.0060 C   0  0  0  0  0  0  0  0  0  0  0  0
   49.7870   31.5640   39.8980 H   0  0  0  0  0  0  0  0  0  0  0  0
   47.8160   31.6970   39.1880 C   0  0  0  0  0  3  0  0  0  0  0  0
   46.6080   32.3420   39.2940 C   0  0  0  0  0  3  0  0  0  0  0  0
  1  2  2  0  0  0  0
  1  6  1  0  0  0  0
  2  3  1  0  0  0  0
  3  8  1  0  0  0  0
  3  4  2  0  0  0  0
  5  4  1  0  0  0  0
  5  9  1  0  0  0  0
  6  5  2  0  0  0  0
  7  2  1  0  0  0  0
  9 12  1  6  0  0  0
  9 11  1  0  0  0  0
  9 10  1  0  0  0  0
 10 13  1  0  0  0  0
 10 14  1  0  0  0  0
 11 10  1  0  0  0  0
 11 16  1  0  0  0  0
 11 15  1  1  0  0  0
 16 18  1  0  0  0  0
 16 17  1  0  0  0  0
 19  1  1  0  0  0  0
 20 19  2  0  0  0  0
 22 21  1  0  0  0  0
 22 23  1  0  0  0  0
 23 19  1  0  0  0  0
 24 23  2  0  0  0  0
 24 25  1  0  0  0  0
 26 24  1  0  0  0  0
 27 26  1  0  0  0  0
 28 29  1  0  0  0  0
 28 26  2  0  0  0  0
 29 22  2  0  0  0  0
M  END
>  <minimizedAffinity>
-5.35859728

>  <minimizedRMSD>
1.44292188

$$$$
