REMARK  Name = 
REMARK  4 active torsions:
REMARK  status: ('A' for Active; 'I' for Inactive)
REMARK    1  A    between atoms: C_1  and  C_11
REMARK    2  A    between atoms: C_5  and  C_7
REMARK    3  A    between atoms: C_9  and  N_10
REMARK    4  A    between atoms: C_11  and  C_23
REMARK                            x       y       z     vdW  Elec       q    Type
REMARK                         _______ _______ _______ _____ _____    ______ ____
ROOT
ATOM      1  C   UNL     1      46.270  34.753  43.248  0.00  0.00    +0.000 A 
ATOM      2  C   UNL     1      45.306  35.747  43.591  0.00  0.00    +0.000 A 
ATOM      3  C   UNL     1      44.663  35.576  44.816  0.00  0.00    +0.000 A 
ATOM      4  N   UNL     1      44.980  34.510  45.586  0.00  0.00    +0.000 NA
ATOM      5  C   UNL     1      45.923  33.592  45.183  0.00  0.00    +0.000 A 
ATOM      6  N   UNL     1      46.572  33.686  44.040  0.00  0.00    +0.000 NA
ATOM      7  H   UNL     1      45.119  36.565  42.911  0.00  0.00    +0.000 HD
ATOM      8  H   UNL     1      43.925  36.306  45.117  0.00  0.00    +0.000 HD
ENDROOT
BRANCH   5   9
ATOM      9  C   UNL     1      46.230  32.436  46.081  0.00  0.00    +0.000 C 
ATOM     10  C   UNL     1      47.028  32.684  47.337  0.00  0.00    +0.000 C 
ATOM     11  C   UNL     1      45.540  32.479  47.389  0.00  0.00    +0.000 C 
ATOM     12  H   UNL     1      46.411  31.497  45.556  0.00  0.00    +0.000 HD
ATOM     13  H   UNL     1      47.482  33.667  47.503  0.00  0.00    +0.000 HD
ATOM     14  H   UNL     1      47.612  31.815  47.685  0.00  0.00    +0.000 HD
ATOM     15  H   UNL     1      45.114  31.560  47.803  0.00  0.00    +0.000 HD
BRANCH  11  16
ATOM     16  N   UNL     1      44.836  33.700  47.790  0.00  0.00    +0.000 NA
ATOM     17  H   UNL     1      45.390  34.261  48.468  0.00  0.00    +0.000 HD
ATOM     18  H   UNL     1      43.865  33.505  48.114  0.00  0.00    +0.000 HD
ENDBRANCH  11  16
ENDBRANCH   5   9
BRANCH   1  19
ATOM     19  C   UNL     1      46.928  34.949  41.970  0.00  0.00    +0.000 C 
ATOM     20  O   UNL     1      48.059  35.508  41.837  0.00  0.00    +0.000 OA
BRANCH  19  23
ATOM     21 CL   UNL     1      44.195  36.034  41.154  0.00  0.00    +0.000 Cl
ATOM     22  C   UNL     1      45.059  34.853  40.216  0.00  0.00    +0.000 A 
ATOM     23  C   UNL     1      46.268  34.481  40.732  0.00  0.00    +0.000 A 
ATOM     24  C   UNL     1      47.034  33.534  40.042  0.00  0.00    +0.000 A 
ATOM     25  H   UNL     1      48.009  33.176  40.376  0.00  0.00    +0.000 HD
ATOM     26  C   UNL     1      46.608  32.965  38.862  0.00  0.00    +0.000 A 
ATOM     27  H   UNL     1      47.162  32.236  38.302  0.00  0.00    +0.000 HD
ATOM     28  C   UNL     1      45.383  33.350  38.351  0.00  0.00    +0.000 A 
ATOM     29  C   UNL     1      44.640  34.280  39.036  0.00  0.00    +0.000 A 
ENDBRANCH  19  23
ENDBRANCH   1  19
TORSDOF 4
