
 OpenBabel03252509193D

 43 47  0  0  1  0  0  0  0  0999 V2000
   50.4300   28.5080   44.3060 C   0  0  1  0  0  0  0  0  0  0  0  0
   51.9250   28.5220   44.1700 C   0  0  0  0  0  0  0  0  0  0  0  0
   52.6570   28.7910   45.4680 C   0  0  0  0  0  0  0  0  0  0  0  0
   52.1010   28.0060   46.6290 C   0  0  0  0  0  0  0  0  0  0  0  0
   50.6050   28.0350   46.6650 C   0  0  0  0  0  0  0  0  0  0  0  0
   50.0620   29.1070   45.6760 C   0  0  2  0  0  0  0  0  0  0  0  0
   50.0840   27.4780   44.3100 H   0  0  0  0  0  0  0  0  0  0  0  0
   52.2910   29.2790   43.4410 H   0  0  0  0  0  0  0  0  0  0  0  0
   52.2750   27.5410   43.7900 H   0  0  0  0  0  0  0  0  0  0  0  0
   53.6770   28.4140   45.3140 H   0  0  0  0  0  0  0  0  0  0  0  0
   52.6500   29.8790   45.7000 H   0  0  0  0  0  0  0  0  0  0  0  0
   52.4910   28.5150   47.5530 H   0  0  0  0  0  0  0  0  0  0  0  0
   52.5350   26.9870   46.6730 H   0  0  0  0  0  0  0  0  0  0  0  0
   50.2470   27.0570   46.2990 H   0  0  0  0  0  0  0  0  0  0  0  0
   50.1990   28.3410   47.6370 H   0  0  0  0  0  0  0  0  0  0  0  0
   50.6680   30.0300   45.8440 H   0  0  0  0  0  0  0  0  0  0  0  0
   49.0280   31.0760   41.4170 C   0  0  0  0  0  0  0  0  0  0  0  0
   48.3600   29.8510   41.4460 C   0  0  0  0  0  0  0  0  0  0  0  0
   48.7340   28.9470   42.3400 C   0  0  0  0  0  0  0  0  0  0  0  0
   49.7850   29.2160   43.2480 C   0  0  0  0  0  0  0  0  0  0  0  0
   50.2750   30.9080   42.7710 S   0  0  0  0  0  0  0  0  0  0  0  0
   47.5560   29.6570   40.7490 H   0  0  0  0  0  0  0  0  0  0  0  0
   48.3270   27.9600   42.4900 H   0  0  0  0  0  0  0  0  0  0  0  0
   48.4630   33.2350   38.4390 C   0  0  0  0  0  0  0  0  0  0  0  0
   48.1620   34.4460   39.0650 C   0  0  0  0  0  0  0  0  0  0  0  0
   48.1630   34.4770   40.4690 C   0  0  0  0  0  0  0  0  0  0  0  0
   48.4590   33.3250   41.1470 N   0  0  0  0  0  0  0  0  0  0  0  0
   48.7420   32.1870   40.4940 C   0  0  0  0  0  0  0  0  0  0  0  0
   48.7450   32.1390   39.1350 N   0  0  0  0  0  0  0  0  0  0  0  0
   48.4780   33.1440   37.3590 H   0  0  0  0  0  0  0  0  0  0  0  0
   47.9360   35.3240   38.5010 H   0  0  0  0  0  0  0  0  0  0  0  0
   47.9400   35.3770   41.0210 H   0  0  0  0  0  0  0  0  0  0  0  0
   48.6510   29.2790   45.8460 C   0  0  1  0  0  3  0  0  0  0  0  0
   48.1980   30.2800   46.3630 O   0  0  0  0  0  0  0  0  0  0  0  0
   47.3500   26.9540   47.6700 Cl  0  0  0  0  0  0  0  0  0  0  0  0
   46.5840   28.1270   46.5720 C   0  0  1  0  0  3  0  0  0  0  0  0
   47.2720   29.0630   45.8150 C   0  0  2  0  0  0  0  0  0  0  0  0
   46.4320   29.8310   45.0470 C   0  0  0  0  0  0  0  0  0  0  0  0
   46.7450   30.6370   44.4200 H   0  0  0  0  0  0  0  0  0  0  0  0
   45.0680   29.8280   44.9020 C   0  0  0  0  0  0  0  0  0  0  0  0
   44.3870   30.3970   44.3250 H   0  0  0  0  0  0  0  0  0  0  0  0
   44.5120   28.8660   45.6950 C   0  0  0  0  0  3  0  0  0  0  0  0
   45.1690   28.0080   46.5250 C   0  0  0  0  0  3  0  0  0  0  0  0
  1  7  1  6  0  0  0
  1  6  1  0  0  0  0
  2  1  1  0  0  0  0
  2  3  1  0  0  0  0
  3 11  1  0  0  0  0
  3  4  1  0  0  0  0
  4  5  1  0  0  0  0
  4 13  1  0  0  0  0
  4 12  1  0  0  0  0
  5 15  1  0  0  0  0
  6 16  1  1  0  0  0
  6 33  1  0  0  0  0
  6  5  1  0  0  0  0
  8  2  1  0  0  0  0
  9  2  1  0  0  0  0
 10  3  1  0  0  0  0
 14  5  1  0  0  0  0
 17 18  2  0  0  0  0
 17 21  1  0  0  0  0
 18 19  1  0  0  0  0
 19 23  1  0  0  0  0
 19 20  2  0  0  0  0
 20  1  1  0  0  0  0
 21 20  1  0  0  0  0
 22 18  1  0  0  0  0
 24 25  2  0  0  0  0
 24 29  1  0  0  0  0
 25 26  1  0  0  0  0
 26 32  1  0  0  0  0
 26 27  2  0  0  0  0
 28 27  1  0  0  0  0
 28 17  1  0  0  0  0
 29 28  2  0  0  0  0
 30 24  1  0  0  0  0
 31 25  1  0  0  0  0
 33 34  1  6  0  0  0
 36 35  1  6  0  0  0
 37 38  1  6  0  0  0
 37 33  1  0  0  0  0
 37 34  1  0  0  0  0
 37 36  1  0  0  0  0
 39 38  1  0  0  0  0
 40 38  2  0  0  0  0
 40 42  1  0  0  0  0
 41 40  1  0  0  0  0
 42 43  2  0  0  0  0
 43 36  1  0  0  0  0
M  END
>  <minimizedAffinity>
-3.10506153

>  <minimizedRMSD>
6.14325047

$$$$
