
 OpenBabel03242521193D

 38 40  0  0  0  0  0  0  0  0999 V2000
   37.0390   30.3740   36.8530 C   0  0  0  0  0  0  0  0  0  0  0  0
   37.8290   31.4290   37.3600 C   0  0  0  0  0  0  0  0  0  0  0  0
   37.7810   31.6660   38.7200 C   0  0  0  0  0  0  0  0  0  0  0  0
   36.9700   30.8620   39.5000 N   0  0  0  0  0  0  0  0  0  0  0  0
   36.2430   29.8770   38.9750 C   0  0  0  0  0  0  0  0  0  0  0  0
   36.2620   29.6140   37.6490 N   0  0  0  0  0  0  0  0  0  0  0  0
   37.0580   30.1700   35.8000 H   0  0  0  0  0  0  0  0  0  0  0  0
   38.4500   32.0320   36.6960 H   0  0  0  0  0  0  0  0  0  0  0  0
   38.5680   32.7230   39.2530 N   0  0  0  0  0  0  0  0  0  0  0  0
   39.8810   32.4970   39.4750 C   0  0  0  0  0  0  0  0  0  0  0  0
   40.6440   33.5390   39.9970 C   0  0  0  0  0  0  0  0  0  0  0  0
   40.0460   34.7280   40.2620 C   0  0  0  0  0  0  0  0  0  0  0  0
   40.7560   35.6600   40.7360 O   0  0  0  0  0  0  0  0  0  0  0  0
   38.7440   34.9580   40.0440 N   0  0  0  0  0  0  0  0  0  0  0  0
   38.0300   33.9290   39.5360 C   0  0  0  0  0  0  0  0  0  0  0  0
   36.8080   34.0470   39.2990 O   0  0  0  0  0  0  0  0  0  0  0  0
   40.3470   31.5430   39.2590 H   0  0  0  0  0  0  0  0  0  0  0  0
   41.6990   33.4140   40.1950 H   0  0  0  0  0  0  0  0  0  0  0  0
   38.2630   35.8730   40.2420 H   0  0  0  0  0  0  0  0  0  0  0  0
   35.4660   29.1750   40.0400 C   0  0  0  0  0  0  0  0  0  0  0  0
   34.3930   29.4150   40.0280 H   0  0  0  0  0  0  0  0  0  0  0  0
   35.5460   28.0900   39.7890 H   0  0  0  0  0  0  0  0  0  0  0  0
   36.1190   29.3760   41.4000 C   0  0  0  0  0  0  0  0  0  0  0  0
   36.4270   30.4270   41.5670 H   0  0  0  0  0  0  0  0  0  0  0  0
   35.3760   29.1510   42.1960 H   0  0  0  0  0  0  0  0  0  0  0  0
   37.1530   27.4760   42.5750 C   0  0  0  0  0  0  0  0  0  0  0  0
   36.1380   27.5330   43.3170 O   0  0  0  0  0  0  0  0  0  0  0  0
   37.1910   28.4170   41.5300 N   0  0  0  0  0  0  0  0  0  0  0  0
   37.9660   28.4470   40.8480 H   0  0  0  0  0  0  0  0  0  0  0  0
   36.8460   24.7220   41.3110 Cl  0  0  0  0  0  0  0  0  0  0  0  0
   38.2360   25.2210   42.2640 C   0  0  0  0  0  0  0  0  0  0  0  0
   38.2290   26.5010   42.7710 C   0  0  0  0  0  0  0  0  0  0  0  0
   39.3060   26.9410   43.5310 C   0  0  0  0  0  0  0  0  0  0  0  0
   39.3390   27.9370   43.9460 H   0  0  0  0  0  0  0  0  0  0  0  0
   40.3850   26.1160   43.7890 C   0  0  0  0  0  0  0  0  0  0  0  0
   41.2250   26.4880   44.3940 H   0  0  0  0  0  0  0  0  0  0  0  0
   40.3760   24.8260   43.2700 C   0  0  0  0  0  3  0  0  0  0  0  0
   39.3050   24.3670   42.5050 C   0  0  0  0  0  3  0  0  0  0  0  0
  1  2  2  0  0  0  0
  1  6  1  0  0  0  0
  2  3  1  0  0  0  0
  3  9  1  0  0  0  0
  3  4  2  0  0  0  0
  5  4  1  0  0  0  0
  5 20  1  0  0  0  0
  6  5  2  0  0  0  0
  7  1  1  0  0  0  0
  8  2  1  0  0  0  0
  9 10  1  0  0  0  0
  9 15  1  0  0  0  0
 10 11  2  0  0  0  0
 11 18  1  0  0  0  0
 11 12  1  0  0  0  0
 12 13  2  0  0  0  0
 14 19  1  0  0  0  0
 14 12  1  0  0  0  0
 15 14  1  0  0  0  0
 16 15  2  0  0  0  0
 17 10  1  0  0  0  0
 20 23  1  0  0  0  0
 21 20  1  0  0  0  0
 22 20  1  0  0  0  0
 23 28  1  0  0  0  0
 23 24  1  0  0  0  0
 23 25  1  0  0  0  0
 26 32  1  0  0  0  0
 26 27  2  0  0  0  0
 28 26  1  0  0  0  0
 29 28  1  0  0  0  0
 30 31  1  0  0  0  0
 31 38  2  0  0  0  0
 31 32  1  0  0  0  0
 32 33  2  0  0  0  0
 33 35  1  0  0  0  0
 33 34  1  0  0  0  0
 35 36  1  0  0  0  0
 37 35  2  0  0  0  0
 38 37  1  0  0  0  0
M  END
>  <minimizedAffinity>
-6.45889664

$$$$

 OpenBabel03242521193D

 38 40  0  0  0  0  0  0  0  0999 V2000
   40.1710   30.4100   38.6020 C   0  0  0  0  0  0  0  0  0  0  0  0
   41.1090   31.2760   39.2070 C   0  0  0  0  0  0  0  0  0  0  0  0
   40.6170   32.3190   39.9670 C   0  0  0  0  0  0  0  0  0  0  0  0
   39.2460   32.4540   40.0910 N   0  0  0  0  0  0  0  0  0  0  0  0
   38.4010   31.6100   39.5000 C   0  0  0  0  0  0  0  0  0  0  0  0
   38.8420   30.5770   38.7490 N   0  0  0  0  0  0  0  0  0  0  0  0
   40.5280   29.5920   38.0070 H   0  0  0  0  0  0  0  0  0  0  0  0
   42.1810   31.1200   39.0740 H   0  0  0  0  0  0  0  0  0  0  0  0
   41.5420   33.2040   40.5860 N   0  0  0  0  0  0  0  0  0  0  0  0
   42.3690   32.7090   41.5310 C   0  0  0  0  0  0  0  0  0  0  0  0
   43.2730   33.5820   42.1310 C   0  0  0  0  0  0  0  0  0  0  0  0
   43.2860   34.8840   41.7490 C   0  0  0  0  0  0  0  0  0  0  0  0
   44.1140   35.6610   42.3060 O   0  0  0  0  0  0  0  0  0  0  0  0
   42.4680   35.3820   40.8110 N   0  0  0  0  0  0  0  0  0  0  0  0
   41.6030   34.5100   40.2470 C   0  0  0  0  0  0  0  0  0  0  0  0
   40.8000   34.8790   39.3620 O   0  0  0  0  0  0  0  0  0  0  0  0
   42.3490   31.6670   41.8280 H   0  0  0  0  0  0  0  0  0  0  0  0
   43.9580   33.2410   42.8940 H   0  0  0  0  0  0  0  0  0  0  0  0
   42.4640   36.3870   40.5010 H   0  0  0  0  0  0  0  0  0  0  0  0
   36.9870   31.9900   39.8010 C   0  0  0  0  0  0  0  0  0  0  0  0
   36.8570   33.0640   39.9980 H   0  0  0  0  0  0  0  0  0  0  0  0
   36.4240   31.7740   38.8620 H   0  0  0  0  0  0  0  0  0  0  0  0
   36.4130   31.0980   40.8910 C   0  0  0  0  0  0  0  0  0  0  0  0
   35.8450   31.6720   41.6490 H   0  0  0  0  0  0  0  0  0  0  0  0
   35.6820   30.3950   40.4370 H   0  0  0  0  0  0  0  0  0  0  0  0
   37.2870   28.9300   41.6660 C   0  0  0  0  0  0  0  0  0  0  0  0
   36.1550   28.4890   41.3400 O   0  0  0  0  0  0  0  0  0  0  0  0
   37.4900   30.3040   41.4360 N   0  0  0  0  0  0  0  0  0  0  0  0
   38.3890   30.7670   41.6450 H   0  0  0  0  0  0  0  0  0  0  0  0
   36.9460   27.9830   44.5400 Cl  0  0  0  0  0  0  0  0  0  0  0  0
   38.3240   27.5810   43.5250 C   0  0  0  0  0  0  0  0  0  0  0  0
   38.3350   28.0860   42.2440 C   0  0  0  0  0  0  0  0  0  0  0  0
   39.4040   27.7940   41.4050 C   0  0  0  0  0  0  0  0  0  0  0  0
   39.4500   28.1710   40.3940 H   0  0  0  0  0  0  0  0  0  0  0  0
   40.4570   27.0070   41.8320 C   0  0  0  0  0  0  0  0  0  0  0  0
   41.2910   26.7920   41.1470 H   0  0  0  0  0  0  0  0  0  0  0  0
   40.4290   26.5060   43.1290 C   0  0  0  0  0  3  0  0  0  0  0  0
   39.3670   26.7860   43.9860 C   0  0  0  0  0  3  0  0  0  0  0  0
  1  6  2  0  0  0  0
  1  2  1  0  0  0  0
  2  3  2  0  0  0  0
  3  4  1  0  0  0  0
  3  9  1  0  0  0  0
  5 20  1  0  0  0  0
  5  4  2  0  0  0  0
  6  5  1  0  0  0  0
  7  1  1  0  0  0  0
  8  2  1  0  0  0  0
  9 10  1  0  0  0  0
 10 17  1  0  0  0  0
 10 11  2  0  0  0  0
 11 18  1  0  0  0  0
 12 11  1  0  0  0  0
 12 13  2  0  0  0  0
 14 12  1  0  0  0  0
 15  9  1  0  0  0  0
 15 14  1  0  0  0  0
 16 15  2  0  0  0  0
 19 14  1  0  0  0  0
 20 21  1  0  0  0  0
 20 23  1  0  0  0  0
 22 20  1  0  0  0  0
 23 28  1  0  0  0  0
 23 24  1  0  0  0  0
 25 23  1  0  0  0  0
 26 32  1  0  0  0  0
 27 26  2  0  0  0  0
 28 29  1  0  0  0  0
 28 26  1  0  0  0  0
 31 38  1  0  0  0  0
 31 30  1  0  0  0  0
 32 31  2  0  0  0  0
 33 35  2  0  0  0  0
 33 32  1  0  0  0  0
 34 33  1  0  0  0  0
 35 37  1  0  0  0  0
 36 35  1  0  0  0  0
 37 38  2  0  0  0  0
M  END
>  <minimizedAffinity>
-6.25833082

$$$$

 OpenBabel03242521193D

 38 40  0  0  0  0  0  0  0  0999 V2000
   36.0050   28.5790   40.4270 C   0  0  0  0  0  0  0  0  0  0  0  0
   36.5360   29.8520   40.1240 C   0  0  0  0  0  0  0  0  0  0  0  0
   37.3370   30.4530   41.0740 C   0  0  0  0  0  0  0  0  0  0  0  0
   37.5730   29.7780   42.2580 N   0  0  0  0  0  0  0  0  0  0  0  0
   37.0490   28.5760   42.4980 C   0  0  0  0  0  0  0  0  0  0  0  0
   36.2600   27.9550   41.5940 N   0  0  0  0  0  0  0  0  0  0  0  0
   35.3790   28.0910   39.7050 H   0  0  0  0  0  0  0  0  0  0  0  0
   36.3150   30.3380   39.1720 H   0  0  0  0  0  0  0  0  0  0  0  0
   37.8820   31.7350   40.7920 N   0  0  0  0  0  0  0  0  0  0  0  0
   37.1530   32.5920   40.0450 C   0  0  0  0  0  0  0  0  0  0  0  0
   37.6940   33.8460   39.7740 C   0  0  0  0  0  0  0  0  0  0  0  0
   38.9210   34.1560   40.2630 C   0  0  0  0  0  0  0  0  0  0  0  0
   39.3950   35.2990   40.0050 O   0  0  0  0  0  0  0  0  0  0  0  0
   39.6500   33.3100   41.0040 N   0  0  0  0  0  0  0  0  0  0  0  0
   39.0980   32.1010   41.2520 C   0  0  0  0  0  0  0  0  0  0  0  0
   39.7010   31.2440   41.9340 O   0  0  0  0  0  0  0  0  0  0  0  0
   36.1740   32.3320   39.6600 H   0  0  0  0  0  0  0  0  0  0  0  0
   37.1550   34.5720   39.1810 H   0  0  0  0  0  0  0  0  0  0  0  0
   40.6020   33.5330   41.3930 H   0  0  0  0  0  0  0  0  0  0  0  0
   37.4660   28.0840   43.8460 C   0  0  0  0  0  0  0  0  0  0  0  0
   37.5610   28.8860   44.5930 H   0  0  0  0  0  0  0  0  0  0  0  0
   36.6240   27.4360   44.1900 H   0  0  0  0  0  0  0  0  0  0  0  0
   38.7020   27.2050   43.7370 C   0  0  0  0  0  0  0  0  0  0  0  0
   39.6400   27.7790   43.8760 H   0  0  0  0  0  0  0  0  0  0  0  0
   38.6870   26.4530   44.5560 H   0  0  0  0  0  0  0  0  0  0  0  0
   39.2200   25.2070   42.3950 C   0  0  0  0  0  0  0  0  0  0  0  0
   39.7530   24.7790   43.4510 O   0  0  0  0  0  0  0  0  0  0  0  0
   38.6300   26.4810   42.4890 N   0  0  0  0  0  0  0  0  0  0  0  0
   38.1450   26.9200   41.6900 H   0  0  0  0  0  0  0  0  0  0  0  0
   41.3120   25.8610   40.2810 Cl  0  0  0  0  0  0  0  0  0  0  0  0
   40.0800   24.6220   40.0990 C   0  0  0  0  0  0  0  0  0  0  0  0
   39.2020   24.4430   41.1450 C   0  0  0  0  0  0  0  0  0  0  0  0
   38.2100   23.4740   41.0460 C   0  0  0  0  0  0  0  0  0  0  0  0
   37.5030   23.3030   41.8440 H   0  0  0  0  0  0  0  0  0  0  0  0
   38.0870   22.6870   39.9170 C   0  0  0  0  0  0  0  0  0  0  0  0
   37.2930   21.9270   39.8650 H   0  0  0  0  0  0  0  0  0  0  0  0
   38.9810   22.8810   38.8700 C   0  0  0  0  0  3  0  0  0  0  0  0
   39.9830   23.8460   38.9490 C   0  0  0  0  0  3  0  0  0  0  0  0
  1  6  1  0  0  0  0
  2  1  2  0  0  0  0
  2  3  1  0  0  0  0
  3  4  2  0  0  0  0
  4  5  1  0  0  0  0
  5 20  1  0  0  0  0
  6  5  2  0  0  0  0
  7  1  1  0  0  0  0
  8  2  1  0  0  0  0
  9  3  1  0  0  0  0
  9 15  1  0  0  0  0
 10  9  1  0  0  0  0
 11 10  2  0  0  0  0
 11 12  1  0  0  0  0
 12 14  1  0  0  0  0
 13 12  2  0  0  0  0
 14 15  1  0  0  0  0
 14 19  1  0  0  0  0
 15 16  2  0  0  0  0
 17 10  1  0  0  0  0
 18 11  1  0  0  0  0
 20 22  1  0  0  0  0
 20 21  1  0  0  0  0
 23 20  1  0  0  0  0
 23 24  1  0  0  0  0
 23 25  1  0  0  0  0
 26 28  1  0  0  0  0
 26 27  2  0  0  0  0
 28 23  1  0  0  0  0
 29 28  1  0  0  0  0
 31 30  1  0  0  0  0
 31 32  1  0  0  0  0
 32 26  1  0  0  0  0
 33 32  2  0  0  0  0
 33 34  1  0  0  0  0
 35 33  1  0  0  0  0
 36 35  1  0  0  0  0
 37 38  1  0  0  0  0
 37 35  2  0  0  0  0
 38 31  2  0  0  0  0
M  END
>  <minimizedAffinity>
-6.1998868

$$$$

 OpenBabel03242521193D

 38 40  0  0  0  0  0  0  0  0999 V2000
   37.6210   31.0900   37.5860 C   0  0  0  0  0  0  0  0  0  0  0  0
   38.5900   31.9810   38.0950 C   0  0  0  0  0  0  0  0  0  0  0  0
   38.5430   32.2740   39.4440 C   0  0  0  0  0  0  0  0  0  0  0  0
   37.5580   31.6800   40.2120 N   0  0  0  0  0  0  0  0  0  0  0  0
   36.6650   30.8440   39.6850 C   0  0  0  0  0  0  0  0  0  0  0  0
   36.6770   30.5330   38.3700 N   0  0  0  0  0  0  0  0  0  0  0  0
   37.6360   30.8470   36.5410 H   0  0  0  0  0  0  0  0  0  0  0  0
   39.3450   32.4200   37.4400 H   0  0  0  0  0  0  0  0  0  0  0  0
   39.5100   33.1700   39.9790 N   0  0  0  0  0  0  0  0  0  0  0  0
   39.2640   34.4950   39.9060 C   0  0  0  0  0  0  0  0  0  0  0  0
   40.2150   35.3660   40.4330 C   0  0  0  0  0  0  0  0  0  0  0  0
   41.3400   34.8540   40.9940 C   0  0  0  0  0  0  0  0  0  0  0  0
   42.1910   35.6610   41.4660 O   0  0  0  0  0  0  0  0  0  0  0  0
   41.5890   33.5390   41.0690 N   0  0  0  0  0  0  0  0  0  0  0  0
   40.6480   32.7200   40.5490 C   0  0  0  0  0  0  0  0  0  0  0  0
   40.7890   31.4780   40.5730 O   0  0  0  0  0  0  0  0  0  0  0  0
   38.3620   34.8920   39.4560 H   0  0  0  0  0  0  0  0  0  0  0  0
   40.0720   36.4370   40.4020 H   0  0  0  0  0  0  0  0  0  0  0  0
   42.4550   33.1240   41.5000 H   0  0  0  0  0  0  0  0  0  0  0  0
   35.7230   30.3550   40.7370 C   0  0  0  0  0  0  0  0  0  0  0  0
   36.0010   30.6710   41.7530 H   0  0  0  0  0  0  0  0  0  0  0  0
   34.7510   30.8540   40.5090 H   0  0  0  0  0  0  0  0  0  0  0  0
   35.5060   28.8550   40.6050 C   0  0  0  0  0  0  0  0  0  0  0  0
   34.4380   28.5750   40.6980 H   0  0  0  0  0  0  0  0  0  0  0  0
   35.8130   28.5310   39.5870 H   0  0  0  0  0  0  0  0  0  0  0  0
   37.4980   27.4860   41.0730 C   0  0  0  0  0  0  0  0  0  0  0  0
   37.6700   27.5200   39.8270 O   0  0  0  0  0  0  0  0  0  0  0  0
   36.3760   28.1900   41.5480 N   0  0  0  0  0  0  0  0  0  0  0  0
   36.1500   28.2480   42.5540 H   0  0  0  0  0  0  0  0  0  0  0  0
   39.2430   29.1220   42.9580 Cl  0  0  0  0  0  0  0  0  0  0  0  0
   39.2420   27.3660   42.8890 C   0  0  0  0  0  0  0  0  0  0  0  0
   38.3950   26.7690   41.9830 C   0  0  0  0  0  0  0  0  0  0  0  0
   38.3600   25.3820   41.8920 C   0  0  0  0  0  0  0  0  0  0  0  0
   37.7100   24.8760   41.1940 H   0  0  0  0  0  0  0  0  0  0  0  0
   39.1590   24.5910   42.6960 C   0  0  0  0  0  0  0  0  0  0  0  0
   39.1120   23.4960   42.6040 H   0  0  0  0  0  0  0  0  0  0  0  0
   40.0080   25.2110   43.6050 C   0  0  0  0  0  3  0  0  0  0  0  0
   40.0590   26.5990   43.7110 C   0  0  0  0  0  3  0  0  0  0  0  0
  1  2  2  0  0  0  0
  1  6  1  0  0  0  0
  2  3  1  0  0  0  0
  3  9  1  0  0  0  0
  3  4  2  0  0  0  0
  5  4  1  0  0  0  0
  5 20  1  0  0  0  0
  6  5  2  0  0  0  0
  7  1  1  0  0  0  0
  8  2  1  0  0  0  0
  9 15  1  0  0  0  0
 10  9  1  0  0  0  0
 10 11  2  0  0  0  0
 11 12  1  0  0  0  0
 12 14  1  0  0  0  0
 12 13  2  0  0  0  0
 14 19  1  0  0  0  0
 15 16  2  0  0  0  0
 15 14  1  0  0  0  0
 17 10  1  0  0  0  0
 18 11  1  0  0  0  0
 20 21  1  0  0  0  0
 22 20  1  0  0  0  0
 23 24  1  0  0  0  0
 23 20  1  0  0  0  0
 23 28  1  0  0  0  0
 25 23  1  0  0  0  0
 26 28  1  0  0  0  0
 26 32  1  0  0  0  0
 27 26  2  0  0  0  0
 28 29  1  0  0  0  0
 31 30  1  0  0  0  0
 31 38  1  0  0  0  0
 32 31  2  0  0  0  0
 33 32  1  0  0  0  0
 33 35  2  0  0  0  0
 34 33  1  0  0  0  0
 35 37  1  0  0  0  0
 36 35  1  0  0  0  0
 37 38  2  0  0  0  0
M  END
>  <minimizedAffinity>
-6.10548162

$$$$

 OpenBabel03242521193D

 38 40  0  0  0  0  0  0  0  0999 V2000
   36.2040   30.8730   40.5720 C   0  0  0  0  0  0  0  0  0  0  0  0
   37.1660   31.5210   39.7660 C   0  0  0  0  0  0  0  0  0  0  0  0
   38.4940   31.3770   40.1160 C   0  0  0  0  0  0  0  0  0  0  0  0
   38.8030   30.6120   41.2270 N   0  0  0  0  0  0  0  0  0  0  0  0
   37.8580   30.0190   41.9560 C   0  0  0  0  0  0  0  0  0  0  0  0
   36.5480   30.1360   41.6460 N   0  0  0  0  0  0  0  0  0  0  0  0
   35.1660   30.9690   40.3210 H   0  0  0  0  0  0  0  0  0  0  0  0
   36.8630   32.1120   38.9000 H   0  0  0  0  0  0  0  0  0  0  0  0
   39.4810   32.0200   39.3190 N   0  0  0  0  0  0  0  0  0  0  0  0
   39.9990   31.3450   38.2720 C   0  0  0  0  0  0  0  0  0  0  0  0
   40.9650   31.9820   37.4960 C   0  0  0  0  0  0  0  0  0  0  0  0
   41.3440   33.2440   37.8200 C   0  0  0  0  0  0  0  0  0  0  0  0
   42.2220   33.8060   37.1040 O   0  0  0  0  0  0  0  0  0  0  0  0
   40.8320   33.9200   38.8580 N   0  0  0  0  0  0  0  0  0  0  0  0
   39.8980   33.2750   39.5920 C   0  0  0  0  0  0  0  0  0  0  0  0
   39.3620   33.8230   40.5800 O   0  0  0  0  0  0  0  0  0  0  0  0
   39.6880   30.3370   38.0240 H   0  0  0  0  0  0  0  0  0  0  0  0
   41.4150   31.4890   36.6470 H   0  0  0  0  0  0  0  0  0  0  0  0
   41.1130   34.8990   39.1240 H   0  0  0  0  0  0  0  0  0  0  0  0
   38.4720   29.2630   43.0890 C   0  0  0  0  0  0  0  0  0  0  0  0
   39.4650   28.8530   42.8540 H   0  0  0  0  0  0  0  0  0  0  0  0
   38.6290   30.0220   43.8920 H   0  0  0  0  0  0  0  0  0  0  0  0
   37.4980   28.2260   43.6300 C   0  0  0  0  0  0  0  0  0  0  0  0
   37.9570   27.5830   44.4070 H   0  0  0  0  0  0  0  0  0  0  0  0
   36.6540   28.7460   44.1310 H   0  0  0  0  0  0  0  0  0  0  0  0
   37.5830   26.3200   42.0730 C   0  0  0  0  0  0  0  0  0  0  0  0
   38.5940   25.9730   42.7370 O   0  0  0  0  0  0  0  0  0  0  0  0
   36.9490   27.4980   42.5090 N   0  0  0  0  0  0  0  0  0  0  0  0
   36.0980   27.8640   42.0520 H   0  0  0  0  0  0  0  0  0  0  0  0
   37.7990   27.5860   39.3120 Cl  0  0  0  0  0  0  0  0  0  0  0  0
   37.1140   25.9970   39.6170 C   0  0  0  0  0  0  0  0  0  0  0  0
   37.0860   25.5600   40.9230 C   0  0  0  0  0  0  0  0  0  0  0  0
   36.5530   24.3100   41.2140 C   0  0  0  0  0  0  0  0  0  0  0  0
   36.5130   23.9320   42.2240 H   0  0  0  0  0  0  0  0  0  0  0  0
   36.0510   23.4950   40.2170 C   0  0  0  0  0  0  0  0  0  0  0  0
   35.6350   22.5100   40.4740 H   0  0  0  0  0  0  0  0  0  0  0  0
   36.0870   23.9520   38.9040 C   0  0  0  0  0  3  0  0  0  0  0  0
   36.6170   25.2020   38.5920 C   0  0  0  0  0  3  0  0  0  0  0  0
  1  6  1  0  0  0  0
  2  3  1  0  0  0  0
  2  1  2  0  0  0  0
  3  4  2  0  0  0  0
  4  5  1  0  0  0  0
  5 20  1  0  0  0  0
  6  5  2  0  0  0  0
  7  1  1  0  0  0  0
  8  2  1  0  0  0  0
  9 15  1  0  0  0  0
  9  3  1  0  0  0  0
 10  9  1  0  0  0  0
 11 12  1  0  0  0  0
 11 10  2  0  0  0  0
 12 14  1  0  0  0  0
 13 12  2  0  0  0  0
 14 19  1  0  0  0  0
 14 15  1  0  0  0  0
 15 16  2  0  0  0  0
 17 10  1  0  0  0  0
 18 11  1  0  0  0  0
 20 23  1  0  0  0  0
 20 22  1  0  0  0  0
 21 20  1  0  0  0  0
 23 25  1  0  0  0  0
 23 24  1  0  0  0  0
 26 28  1  0  0  0  0
 26 27  2  0  0  0  0
 28 23  1  0  0  0  0
 29 28  1  0  0  0  0
 30 31  1  0  0  0  0
 31 32  1  0  0  0  0
 32 33  2  0  0  0  0
 32 26  1  0  0  0  0
 33 34  1  0  0  0  0
 35 36  1  0  0  0  0
 35 33  1  0  0  0  0
 37 35  2  0  0  0  0
 38 37  1  0  0  0  0
 38 31  2  0  0  0  0
M  END
>  <minimizedAffinity>
-6.10017347

$$$$

 OpenBabel03242521193D

 38 40  0  0  0  0  0  0  0  0999 V2000
   38.4180   34.7610   40.1210 C   0  0  0  0  0  0  0  0  0  0  0  0
   39.8170   34.9470   40.1350 C   0  0  0  0  0  0  0  0  0  0  0  0
   40.6110   33.8400   39.9120 C   0  0  0  0  0  0  0  0  0  0  0  0
   39.9950   32.6220   39.6880 N   0  0  0  0  0  0  0  0  0  0  0  0
   38.6690   32.4970   39.6840 C   0  0  0  0  0  0  0  0  0  0  0  0
   37.8570   33.5560   39.8980 N   0  0  0  0  0  0  0  0  0  0  0  0
   37.7790   35.6050   40.2920 H   0  0  0  0  0  0  0  0  0  0  0  0
   40.2480   35.9330   40.3180 H   0  0  0  0  0  0  0  0  0  0  0  0
   42.0240   34.0030   39.9220 N   0  0  0  0  0  0  0  0  0  0  0  0
   42.6660   33.9570   41.1090 C   0  0  0  0  0  0  0  0  0  0  0  0
   44.0500   34.1170   41.1100 C   0  0  0  0  0  0  0  0  0  0  0  0
   44.6930   34.3130   39.9320 C   0  0  0  0  0  0  0  0  0  0  0  0
   45.9490   34.4560   39.9540 O   0  0  0  0  0  0  0  0  0  0  0  0
   44.0610   34.3600   38.7510 N   0  0  0  0  0  0  0  0  0  0  0  0
   42.7190   34.2010   38.7820 C   0  0  0  0  0  0  0  0  0  0  0  0
   42.0410   34.2290   37.7310 O   0  0  0  0  0  0  0  0  0  0  0  0
   42.1410   33.7990   42.0440 H   0  0  0  0  0  0  0  0  0  0  0  0
   44.6160   34.0890   42.0310 H   0  0  0  0  0  0  0  0  0  0  0  0
   44.5420   34.5100   37.8270 H   0  0  0  0  0  0  0  0  0  0  0  0
   38.2790   31.0790   39.4180 C   0  0  0  0  0  0  0  0  0  0  0  0
   37.7080   30.9500   38.4870 H   0  0  0  0  0  0  0  0  0  0  0  0
   39.2430   30.5370   39.2710 H   0  0  0  0  0  0  0  0  0  0  0  0
   37.5990   30.4730   40.6380 C   0  0  0  0  0  0  0  0  0  0  0  0
   37.5710   31.1750   41.4950 H   0  0  0  0  0  0  0  0  0  0  0  0
   36.5370   30.2570   40.3910 H   0  0  0  0  0  0  0  0  0  0  0  0
   38.0530   28.6160   42.1890 C   0  0  0  0  0  0  0  0  0  0  0  0
   37.2970   29.2430   42.9760 O   0  0  0  0  0  0  0  0  0  0  0  0
   38.2380   29.2100   40.9270 N   0  0  0  0  0  0  0  0  0  0  0  0
   38.8200   28.7720   40.1960 H   0  0  0  0  0  0  0  0  0  0  0  0
   36.9740   26.0480   40.9580 Cl  0  0  0  0  0  0  0  0  0  0  0  0
   38.3300   26.1140   42.0730 C   0  0  0  0  0  0  0  0  0  0  0  0
   38.7020   27.3520   42.5460 C   0  0  0  0  0  0  0  0  0  0  0  0
   39.7690   27.4540   43.4310 C   0  0  0  0  0  0  0  0  0  0  0  0
   40.0910   28.4060   43.8240 H   0  0  0  0  0  0  0  0  0  0  0  0
   40.4640   26.3330   43.8460 C   0  0  0  0  0  0  0  0  0  0  0  0
   41.3060   26.4420   44.5470 H   0  0  0  0  0  0  0  0  0  0  0  0
   40.0760   25.0910   43.3590 C   0  0  0  0  0  3  0  0  0  0  0  0
   39.0090   24.9680   42.4710 C   0  0  0  0  0  3  0  0  0  0  0  0
  1  2  1  0  0  0  0
  1  7  1  0  0  0  0
  2  8  1  0  0  0  0
  3  9  1  0  0  0  0
  3  2  2  0  0  0  0
  4  3  1  0  0  0  0
  5  4  2  0  0  0  0
  5  6  1  0  0  0  0
  6  1  2  0  0  0  0
  9 10  1  0  0  0  0
 10 11  2  0  0  0  0
 10 17  1  0  0  0  0
 11 18  1  0  0  0  0
 12 13  2  0  0  0  0
 12 11  1  0  0  0  0
 14 15  1  0  0  0  0
 14 12  1  0  0  0  0
 15  9  1  0  0  0  0
 16 15  2  0  0  0  0
 19 14  1  0  0  0  0
 20  5  1  0  0  0  0
 20 23  1  0  0  0  0
 21 20  1  0  0  0  0
 22 20  1  0  0  0  0
 23 28  1  0  0  0  0
 23 24  1  0  0  0  0
 25 23  1  0  0  0  0
 26 32  1  0  0  0  0
 26 27  2  0  0  0  0
 28 26  1  0  0  0  0
 29 28  1  0  0  0  0
 30 31  1  0  0  0  0
 31 38  2  0  0  0  0
 31 32  1  0  0  0  0
 32 33  2  0  0  0  0
 33 34  1  0  0  0  0
 33 35  1  0  0  0  0
 35 36  1  0  0  0  0
 37 35  2  0  0  0  0
 38 37  1  0  0  0  0
M  END
>  <minimizedAffinity>
-6.09129381

$$$$

 OpenBabel03242521193D

 38 40  0  0  0  0  0  0  0  0999 V2000
   38.4460   34.2280   40.1210 C   0  0  0  0  0  0  0  0  0  0  0  0
   37.4890   33.2800   39.6970 C   0  0  0  0  0  0  0  0  0  0  0  0
   37.8550   31.9490   39.7200 C   0  0  0  0  0  0  0  0  0  0  0  0
   39.1280   31.6240   40.1550 N   0  0  0  0  0  0  0  0  0  0  0  0
   39.9960   32.5560   40.5460 C   0  0  0  0  0  0  0  0  0  0  0  0
   39.6760   33.8690   40.5380 N   0  0  0  0  0  0  0  0  0  0  0  0
   38.1860   35.2690   40.1130 H   0  0  0  0  0  0  0  0  0  0  0  0
   36.4990   33.5950   39.3640 H   0  0  0  0  0  0  0  0  0  0  0  0
   36.9090   30.9760   39.2980 N   0  0  0  0  0  0  0  0  0  0  0  0
   36.9020   30.6100   37.9980 C   0  0  0  0  0  0  0  0  0  0  0  0
   35.9720   29.6560   37.5920 C   0  0  0  0  0  0  0  0  0  0  0  0
   35.1160   29.1360   38.5090 C   0  0  0  0  0  0  0  0  0  0  0  0
   34.2790   28.2720   38.1210 O   0  0  0  0  0  0  0  0  0  0  0  0
   35.1180   29.4950   39.8000 N   0  0  0  0  0  0  0  0  0  0  0  0
   36.0330   30.4220   40.1630 C   0  0  0  0  0  0  0  0  0  0  0  0
   36.1120   30.8210   41.3460 O   0  0  0  0  0  0  0  0  0  0  0  0
   37.5900   31.0330   37.2750 H   0  0  0  0  0  0  0  0  0  0  0  0
   35.9200   29.3270   36.5640 H   0  0  0  0  0  0  0  0  0  0  0  0
   34.4640   29.1030   40.5250 H   0  0  0  0  0  0  0  0  0  0  0  0
   41.2860   31.9270   40.9610 C   0  0  0  0  0  0  0  0  0  0  0  0
   41.6630   31.1860   40.2400 H   0  0  0  0  0  0  0  0  0  0  0  0
   42.0270   32.7620   40.9660 H   0  0  0  0  0  0  0  0  0  0  0  0
   41.1900   31.3960   42.3840 C   0  0  0  0  0  0  0  0  0  0  0  0
   42.0760   30.7940   42.6690 H   0  0  0  0  0  0  0  0  0  0  0  0
   41.1700   32.2540   43.0900 H   0  0  0  0  0  0  0  0  0  0  0  0
   39.9250   29.2940   42.5870 C   0  0  0  0  0  0  0  0  0  0  0  0
   41.0570   28.7460   42.5520 O   0  0  0  0  0  0  0  0  0  0  0  0
   39.9320   30.6990   42.5190 N   0  0  0  0  0  0  0  0  0  0  0  0
   39.0620   31.2540   42.5630 H   0  0  0  0  0  0  0  0  0  0  0  0
   38.8700   27.9020   40.0930 Cl  0  0  0  0  0  0  0  0  0  0  0  0
   38.0750   27.8550   41.6590 C   0  0  0  0  0  0  0  0  0  0  0  0
   38.6760   28.5360   42.6940 C   0  0  0  0  0  0  0  0  0  0  0  0
   38.0840   28.5270   43.9520 C   0  0  0  0  0  0  0  0  0  0  0  0
   38.5240   29.0490   44.7890 H   0  0  0  0  0  0  0  0  0  0  0  0
   36.9030   27.8490   44.1840 C   0  0  0  0  0  0  0  0  0  0  0  0
   36.4550   27.8580   45.1890 H   0  0  0  0  0  0  0  0  0  0  0  0
   36.3090   27.1670   43.1270 C   0  0  0  0  0  3  0  0  0  0  0  0
   36.8870   27.1630   41.8590 C   0  0  0  0  0  3  0  0  0  0  0  0
  1  6  1  0  0  0  0
  2  3  1  0  0  0  0
  2  1  2  0  0  0  0
  3  4  2  0  0  0  0
  4  5  1  0  0  0  0
  5 20  1  0  0  0  0
  6  5  2  0  0  0  0
  7  1  1  0  0  0  0
  8  2  1  0  0  0  0
  9  3  1  0  0  0  0
  9 15  1  0  0  0  0
 10  9  1  0  0  0  0
 11 10  2  0  0  0  0
 11 12  1  0  0  0  0
 12 14  1  0  0  0  0
 13 12  2  0  0  0  0
 14 15  1  0  0  0  0
 14 19  1  0  0  0  0
 15 16  2  0  0  0  0
 17 10  1  0  0  0  0
 18 11  1  0  0  0  0
 20 22  1  0  0  0  0
 20 23  1  0  0  0  0
 21 20  1  0  0  0  0
 23 28  1  0  0  0  0
 23 24  1  0  0  0  0
 23 25  1  0  0  0  0
 26 32  1  0  0  0  0
 27 26  2  0  0  0  0
 28 29  1  0  0  0  0
 28 26  1  0  0  0  0
 30 31  1  0  0  0  0
 31 38  2  0  0  0  0
 31 32  1  0  0  0  0
 32 33  2  0  0  0  0
 33 35  1  0  0  0  0
 33 34  1  0  0  0  0
 35 36  1  0  0  0  0
 37 35  2  0  0  0  0
 38 37  1  0  0  0  0
M  END
>  <minimizedAffinity>
-6.08475399

$$$$

 OpenBabel03242521193D

 38 40  0  0  0  0  0  0  0  0999 V2000
   35.7980   29.8270   40.4820 C   0  0  0  0  0  0  0  0  0  0  0  0
   36.9120   30.5590   40.0160 C   0  0  0  0  0  0  0  0  0  0  0  0
   37.6000   30.0540   38.9320 C   0  0  0  0  0  0  0  0  0  0  0  0
   37.1620   28.8690   38.3670 N   0  0  0  0  0  0  0  0  0  0  0  0
   36.1040   28.2150   38.8430 C   0  0  0  0  0  0  0  0  0  0  0  0
   35.4040   28.6760   39.9030 N   0  0  0  0  0  0  0  0  0  0  0  0
   35.2470   30.1980   41.3240 H   0  0  0  0  0  0  0  0  0  0  0  0
   37.2130   31.4890   40.5020 H   0  0  0  0  0  0  0  0  0  0  0  0
   38.7260   30.7740   38.4450 N   0  0  0  0  0  0  0  0  0  0  0  0
   39.9060   30.6270   39.0840 C   0  0  0  0  0  0  0  0  0  0  0  0
   41.0040   31.3350   38.6010 C   0  0  0  0  0  0  0  0  0  0  0  0
   40.8470   32.1380   37.5180 C   0  0  0  0  0  0  0  0  0  0  0  0
   41.8550   32.7730   37.0960 O   0  0  0  0  0  0  0  0  0  0  0  0
   39.6790   32.2880   36.8800 N   0  0  0  0  0  0  0  0  0  0  0  0
   38.6320   31.5870   37.3720 C   0  0  0  0  0  0  0  0  0  0  0  0
   37.5010   31.6610   36.8440 O   0  0  0  0  0  0  0  0  0  0  0  0
   40.0190   29.9830   39.9490 H   0  0  0  0  0  0  0  0  0  0  0  0
   41.9730   31.2570   39.0740 H   0  0  0  0  0  0  0  0  0  0  0  0
   39.5380   32.9040   36.0380 H   0  0  0  0  0  0  0  0  0  0  0  0
   35.8560   26.9740   38.0470 C   0  0  0  0  0  0  0  0  0  0  0  0
   34.8620   26.9480   37.5770 H   0  0  0  0  0  0  0  0  0  0  0  0
   36.5960   27.0140   37.2120 H   0  0  0  0  0  0  0  0  0  0  0  0
   36.1710   25.7360   38.8740 C   0  0  0  0  0  0  0  0  0  0  0  0
   35.2640   25.2950   39.3330 H   0  0  0  0  0  0  0  0  0  0  0  0
   36.5820   24.9490   38.2070 H   0  0  0  0  0  0  0  0  0  0  0  0
   37.3400   25.3250   41.0020 C   0  0  0  0  0  0  0  0  0  0  0  0
   36.5370   24.3630   41.1220 O   0  0  0  0  0  0  0  0  0  0  0  0
   37.2060   26.0800   39.8220 N   0  0  0  0  0  0  0  0  0  0  0  0
   37.8260   26.8770   39.6090 H   0  0  0  0  0  0  0  0  0  0  0  0
   36.6920   27.4870   43.0460 Cl  0  0  0  0  0  0  0  0  0  0  0  0
   38.2070   26.5980   42.9970 C   0  0  0  0  0  0  0  0  0  0  0  0
   38.3520   25.6490   42.0100 C   0  0  0  0  0  0  0  0  0  0  0  0
   39.5330   24.9200   41.9310 C   0  0  0  0  0  0  0  0  0  0  0  0
   39.6860   24.1670   41.1730 H   0  0  0  0  0  0  0  0  0  0  0  0
   40.5660   25.1320   42.8250 C   0  0  0  0  0  0  0  0  0  0  0  0
   41.4910   24.5420   42.7400 H   0  0  0  0  0  0  0  0  0  0  0  0
   40.4030   26.0950   43.8140 C   0  0  0  0  0  3  0  0  0  0  0  0
   39.2270   26.8350   43.9100 C   0  0  0  0  0  3  0  0  0  0  0  0
  1  7  1  0  0  0  0
  2  1  1  0  0  0  0
  2  8  1  0  0  0  0
  3  2  2  0  0  0  0
  4  5  2  0  0  0  0
  4  3  1  0  0  0  0
  5  6  1  0  0  0  0
  6  1  2  0  0  0  0
  9  3  1  0  0  0  0
  9 10  1  0  0  0  0
 10 17  1  0  0  0  0
 11 18  1  0  0  0  0
 11 10  2  0  0  0  0
 12 11  1  0  0  0  0
 13 12  2  0  0  0  0
 14 15  1  0  0  0  0
 14 12  1  0  0  0  0
 15  9  1  0  0  0  0
 16 15  2  0  0  0  0
 19 14  1  0  0  0  0
 20  5  1  0  0  0  0
 20 23  1  0  0  0  0
 21 20  1  0  0  0  0
 22 20  1  0  0  0  0
 23 24  1  0  0  0  0
 23 28  1  0  0  0  0
 25 23  1  0  0  0  0
 26 27  2  0  0  0  0
 26 32  1  0  0  0  0
 28 26  1  0  0  0  0
 29 28  1  0  0  0  0
 31 30  1  0  0  0  0
 31 38  1  0  0  0  0
 32 31  2  0  0  0  0
 33 32  1  0  0  0  0
 33 35  2  0  0  0  0
 34 33  1  0  0  0  0
 35 37  1  0  0  0  0
 36 35  1  0  0  0  0
 37 38  2  0  0  0  0
M  END
>  <minimizedAffinity>
-6.04602098

$$$$

 OpenBabel03242521193D

 38 40  0  0  0  0  0  0  0  0999 V2000
   36.8900   30.2510   37.8300 C   0  0  0  0  0  0  0  0  0  0  0  0
   36.6350   29.9120   39.1760 C   0  0  0  0  0  0  0  0  0  0  0  0
   37.6250   29.2370   39.8630 C   0  0  0  0  0  0  0  0  0  0  0  0
   38.8000   28.9370   39.1980 N   0  0  0  0  0  0  0  0  0  0  0  0
   38.9940   29.2790   37.9260 C   0  0  0  0  0  0  0  0  0  0  0  0
   38.0500   29.9390   37.2190 N   0  0  0  0  0  0  0  0  0  0  0  0
   36.1370   30.7750   37.2740 H   0  0  0  0  0  0  0  0  0  0  0  0
   35.6880   30.1750   39.6490 H   0  0  0  0  0  0  0  0  0  0  0  0
   37.3900   28.8850   41.2210 N   0  0  0  0  0  0  0  0  0  0  0  0
   36.7160   27.7450   41.4800 C   0  0  0  0  0  0  0  0  0  0  0  0
   36.4910   27.4060   42.8120 C   0  0  0  0  0  0  0  0  0  0  0  0
   36.9530   28.2270   43.7890 C   0  0  0  0  0  0  0  0  0  0  0  0
   36.7380   27.9020   44.9920 O   0  0  0  0  0  0  0  0  0  0  0  0
   37.6230   29.3600   43.5380 N   0  0  0  0  0  0  0  0  0  0  0  0
   37.8260   29.6610   42.2360 C   0  0  0  0  0  0  0  0  0  0  0  0
   38.4410   30.6970   41.9020 O   0  0  0  0  0  0  0  0  0  0  0  0
   36.3520   27.0970   40.6900 H   0  0  0  0  0  0  0  0  0  0  0  0
   35.9560   26.5060   43.0780 H   0  0  0  0  0  0  0  0  0  0  0  0
   37.9890   30.0090   44.2820 H   0  0  0  0  0  0  0  0  0  0  0  0
   40.3430   28.8310   37.4640 C   0  0  0  0  0  0  0  0  0  0  0  0
   40.5940   27.8070   37.7770 H   0  0  0  0  0  0  0  0  0  0  0  0
   40.2740   28.8090   36.3500 H   0  0  0  0  0  0  0  0  0  0  0  0
   41.4040   29.8580   37.8340 C   0  0  0  0  0  0  0  0  0  0  0  0
   42.0350   29.5230   38.6810 H   0  0  0  0  0  0  0  0  0  0  0  0
   42.0980   29.9880   36.9760 H   0  0  0  0  0  0  0  0  0  0  0  0
   40.9450   31.8080   39.2650 C   0  0  0  0  0  0  0  0  0  0  0  0
   41.7280   31.2510   40.0760 O   0  0  0  0  0  0  0  0  0  0  0  0
   40.7460   31.1260   38.0500 N   0  0  0  0  0  0  0  0  0  0  0  0
   40.1410   31.5020   37.3030 H   0  0  0  0  0  0  0  0  0  0  0  0
   42.6580   34.3200   39.4390 Cl  0  0  0  0  0  0  0  0  0  0  0  0
   40.9140   34.2980   39.6570 C   0  0  0  0  0  0  0  0  0  0  0  0
   40.2780   33.0820   39.5480 C   0  0  0  0  0  0  0  0  0  0  0  0
   38.8990   33.0150   39.7120 C   0  0  0  0  0  0  0  0  0  0  0  0
   38.3640   32.0810   39.6340 H   0  0  0  0  0  0  0  0  0  0  0  0
   38.1540   34.1470   39.9840 C   0  0  0  0  0  0  0  0  0  0  0  0
   37.0640   34.0660   40.1090 H   0  0  0  0  0  0  0  0  0  0  0  0
   38.8130   35.3670   40.0910 C   0  0  0  0  0  3  0  0  0  0  0  0
   40.1940   35.4550   39.9290 C   0  0  0  0  0  3  0  0  0  0  0  0
  1  2  1  0  0  0  0
  2  8  1  0  0  0  0
  2  3  2  0  0  0  0
  3  9  1  0  0  0  0
  4  3  1  0  0  0  0
  5  4  2  0  0  0  0
  6  1  2  0  0  0  0
  6  5  1  0  0  0  0
  7  1  1  0  0  0  0
  9 10  1  0  0  0  0
  9 15  1  0  0  0  0
 10 11  2  0  0  0  0
 11 18  1  0  0  0  0
 11 12  1  0  0  0  0
 12 13  2  0  0  0  0
 14 12  1  0  0  0  0
 14 19  1  0  0  0  0
 15 14  1  0  0  0  0
 16 15  2  0  0  0  0
 17 10  1  0  0  0  0
 20 21  1  0  0  0  0
 20 23  1  0  0  0  0
 20  5  1  0  0  0  0
 22 20  1  0  0  0  0
 23 28  1  0  0  0  0
 23 24  1  0  0  0  0
 25 23  1  0  0  0  0
 26 32  1  0  0  0  0
 26 27  2  0  0  0  0
 28 26  1  0  0  0  0
 29 28  1  0  0  0  0
 30 31  1  0  0  0  0
 31 38  1  0  0  0  0
 32 31  2  0  0  0  0
 32 33  1  0  0  0  0
 33 35  2  0  0  0  0
 34 33  1  0  0  0  0
 35 37  1  0  0  0  0
 35 36  1  0  0  0  0
 38 37  2  0  0  0  0
M  END
>  <minimizedAffinity>
-6.0212698

$$$$
