
 OpenBabel03252507593D

 29 31  0  0  1  0  0  0  0  0999 V2000
   46.0770   34.6650   43.4860 C   0  0  0  0  0  0  0  0  0  0  0  0
   45.1400   35.6390   43.9450 C   0  0  0  0  0  0  0  0  0  0  0  0
   44.6270   35.4350   45.2250 C   0  0  0  0  0  0  0  0  0  0  0  0
   45.0330   34.3590   45.9370 N   0  0  0  0  0  0  0  0  0  0  0  0
   45.9420   33.4630   45.4220 C   0  0  0  0  0  0  0  0  0  0  0  0
   46.4700   33.5870   44.2220 N   0  0  0  0  0  0  0  0  0  0  0  0
   44.8760   36.4670   43.3040 H   0  0  0  0  0  0  0  0  0  0  0  0
   43.9150   36.1490   45.6140 H   0  0  0  0  0  0  0  0  0  0  0  0
   46.3520   32.2940   46.2610 C   0  0  1  0  0  0  0  0  0  0  0  0
   47.0670   32.5510   47.5640 C   0  0  0  0  0  0  0  0  0  0  0  0
   45.6130   32.1690   47.5370 C   0  0  1  0  0  0  0  0  0  0  0  0
   46.6640   31.4200   45.6880 H   0  0  0  0  0  0  0  0  0  0  0  0
   47.3920   33.5680   47.8100 H   0  0  0  0  0  0  0  0  0  0  0  0
   47.7380   31.7360   47.8840 H   0  0  0  0  0  0  0  0  0  0  0  0
   45.2860   31.1810   47.8740 H   0  0  0  0  0  0  0  0  0  0  0  0
   44.7530   33.2700   47.9790 N   0  0  0  0  0  0  0  0  0  0  0  0
   45.2100   33.8460   48.7150 H   0  0  0  0  0  0  0  0  0  0  0  0
   43.8010   32.9400   48.2470 H   0  0  0  0  0  0  0  0  0  0  0  0
   46.5990   34.8940   42.1520 C   0  0  0  0  0  0  0  0  0  0  0  0
   47.6040   35.6290   41.9050 O   0  0  0  0  0  0  0  0  0  0  0  0
   48.2020   33.1420   40.2370 Cl  0  0  0  0  0  0  0  0  0  0  0  0
   46.5000   33.4400   40.0420 C   0  0  0  0  0  0  0  0  0  0  0  0
   45.9450   34.2490   40.9930 C   0  0  0  0  0  0  0  0  0  0  0  0
   44.5800   34.5430   40.9150 C   0  0  0  0  0  0  0  0  0  0  0  0
   44.0500   35.1780   41.6270 H   0  0  0  0  0  0  0  0  0  0  0  0
   43.7780   34.0460   39.9120 C   0  0  0  0  0  0  0  0  0  0  0  0
   42.7280   34.2460   39.8150 H   0  0  0  0  0  0  0  0  0  0  0  0
   44.3520   33.2290   38.9560 C   0  0  0  0  0  3  0  0  0  0  0  0
   45.6930   32.9460   39.0410 C   0  0  0  0  0  3  0  0  0  0  0  0
  1  2  2  0  0  0  0
  1  6  1  0  0  0  0
  2  3  1  0  0  0  0
  3  8  1  0  0  0  0
  3  4  2  0  0  0  0
  5  4  1  0  0  0  0
  5  9  1  0  0  0  0
  6  5  2  0  0  0  0
  7  2  1  0  0  0  0
  9 12  1  6  0  0  0
  9 11  1  0  0  0  0
  9 10  1  0  0  0  0
 10 13  1  0  0  0  0
 10 14  1  0  0  0  0
 11 10  1  0  0  0  0
 11 15  1  1  0  0  0
 11 16  1  0  0  0  0
 16 18  1  0  0  0  0
 16 17  1  0  0  0  0
 19  1  1  0  0  0  0
 20 19  2  0  0  0  0
 22 21  1  0  0  0  0
 22 23  1  0  0  0  0
 23 19  1  0  0  0  0
 24 23  2  0  0  0  0
 24 25  1  0  0  0  0
 26 24  1  0  0  0  0
 27 26  1  0  0  0  0
 28 29  1  0  0  0  0
 28 26  2  0  0  0  0
 29 22  2  0  0  0  0
M  END
>  <minimizedAffinity>
-5.76086283

>  <minimizedRMSD>
0.658851981

$$$$
