REMARK  Name = 
REMARK  4 active torsions:
REMARK  status: ('A' for Active; 'I' for Inactive)
REMARK    1  A    between atoms: C_1  and  C_9
REMARK    2  A    between atoms: C_6  and  N_19
REMARK    3  A    between atoms: C_7  and  C_13
REMARK    4  A    between atoms: C_17  and  C_29
REMARK                            x       y       z     vdW  Elec       q    Type
REMARK                         _______ _______ _______ _____ _____    ______ ____
ROOT
ATOM      1  C   UNL     1      45.126  34.416  41.187  0.00  0.00    +0.000 A 
ATOM      2  C   UNL     1      45.546  35.022  42.368  0.00  0.00    +0.000 A 
ATOM      3  C   UNL     1      46.921  35.247  42.555  0.00  0.00    +0.000 A 
ATOM      4  C   UNL     1      47.805  34.867  41.577  0.00  0.00    +0.000 A 
ATOM      5  C   UNL     1      47.406  34.272  40.414  0.00  0.00    +0.000 A 
ATOM      6  C   UNL     1      46.035  34.057  40.248  0.00  0.00    +0.000 A 
ATOM      7  H   UNL     1      44.856  35.324  43.144  0.00  0.00    +0.000 HD
ATOM      8  H   UNL     1      47.297  35.709  43.444  0.00  0.00    +0.000 HD
ATOM      9  H   UNL     1      48.891  34.998  41.627  0.00  0.00    +0.000 HD
ATOM     10  H   UNL     1      47.996  33.930  39.577  0.00  0.00    +0.000 HD
ENDROOT
BRANCH   1  13
ATOM     11  C   UNL     1      41.437  34.846  40.577  0.00  0.00    +0.000 A 
ATOM     12  C   UNL     1      42.804  35.179  40.659  0.00  0.00    +0.000 A 
ATOM     13  C   UNL     1      43.702  34.212  41.061  0.00  0.00    +0.000 A 
ATOM     14  N   UNL     1      43.197  32.977  41.357  0.00  0.00    +0.000 NA
ATOM     15  C   UNL     1      41.887  32.668  41.275  0.00  0.00    +0.000 A 
ATOM     16  N   UNL     1      40.996  33.608  40.883  0.00  0.00    +0.000 NA
ATOM     17  H   UNL     1      43.168  36.160  40.419  0.00  0.00    +0.000 HD
ATOM     18  H   UNL     1      41.501  31.689  41.512  0.00  0.00    +0.000 HD
BRANCH  11  19
ATOM     19  C   UNL     1      40.450  35.867  40.149  0.00  0.00    +0.000 C 
ATOM     20  F   UNL     1      39.224  35.219  39.958  0.00  0.00    +0.000 F 
ATOM     21  F   UNL     1      40.848  36.299  38.877  0.00  0.00    +0.000 F 
ATOM     22  F   UNL     1      40.313  36.904  41.042  0.00  0.00    +0.000 F 
ENDBRANCH  11  19
ENDBRANCH   1  13
BRANCH   6  25
ATOM     23  C   UNL     1      45.458  32.147  38.557  0.00  0.00    +0.000 C 
ATOM     24  O   UNL     1      45.931  31.144  39.073  0.00  0.00    +0.000 OA
ATOM     25  N   UNL     1      45.492  33.453  39.091  0.00  0.00    +0.000 N 
ATOM     26  H   UNL     1      45.016  34.215  38.548  0.00  0.00    +0.000 HD
BRANCH  23  29
ATOM     27 CL   UNL     1      45.527  34.386  36.501  0.00  0.00    +0.000 Cl
ATOM     28  C   UNL     1      44.743  32.828  36.218  0.00  0.00    +0.000 A 
ATOM     29  C   UNL     1      44.809  31.926  37.267  0.00  0.00    +0.000 A 
ATOM     30  C   UNL     1      44.224  30.667  37.155  0.00  0.00    +0.000 A 
ATOM     31  H   UNL     1      44.244  29.912  37.952  0.00  0.00    +0.000 HD
ATOM     32  C   UNL     1      43.561  30.282  35.995  0.00  0.00    +0.000 A 
ATOM     33  H   UNL     1      43.109  29.304  35.912  0.00  0.00    +0.000 HD
ATOM     34  C   UNL     1      43.510  31.212  34.952  0.00  0.00    +0.000 A 
ATOM     35  C   UNL     1      44.091  32.466  35.061  0.00  0.00    +0.000 A 
ENDBRANCH  23  29
ENDBRANCH   6  25
TORSDOF 4
