
 OpenBabel03242514323D

 26 27  0  0  0  0  0  0  0  0999 V2000
   48.6470   35.7950   41.8090 O   0  0  0  0  0  0  0  0  0  0  0  0
   48.3330   34.3760   41.4420 P   0  0  1  0  0  0  0  0  0  0  0  0
   49.7890   33.5870   41.1620 O   0  0  0  0  0  0  0  0  0  0  0  0
   50.5400   34.0140   41.6210 H   0  0  0  0  0  0  0  0  0  0  0  0
   47.4780   33.6340   42.7240 O   0  0  0  0  0  0  0  0  0  0  0  0
   45.8930   35.4150   42.8180 C   0  0  0  0  0  0  0  0  0  0  0  0
   46.4860   34.3190   43.4220 C   0  0  0  0  0  0  0  0  0  0  0  0
   46.0650   33.9410   44.7090 C   0  0  0  0  0  0  0  0  0  0  0  0
   45.0910   34.6760   45.3000 N   0  0  0  0  0  0  0  0  0  0  0  0
   44.5340   35.7430   44.6790 C   0  0  0  0  0  0  0  0  0  0  0  0
   44.9380   36.0960   43.4600 N   0  0  0  0  0  0  0  0  0  0  0  0
   46.1550   35.7810   41.8260 H   0  0  0  0  0  0  0  0  0  0  0  0
   46.5390   33.0780   45.1690 H   0  0  0  0  0  0  0  0  0  0  0  0
   43.7510   36.3160   45.1800 H   0  0  0  0  0  0  0  0  0  0  0  0
   47.4210   34.3480   40.0470 O   0  0  0  0  0  0  0  0  0  0  0  0
   47.2600   33.3150   39.1960 C   0  0  0  0  0  0  0  0  0  0  0  0
   46.4110   32.4500   39.6530 O   0  0  0  0  0  0  0  0  0  0  0  0
   45.3060   33.4600   36.8040 Cl  0  0  0  0  0  0  0  0  0  0  0  0
   46.9390   32.8760   36.7640 C   0  0  0  0  0  0  0  0  0  0  0  0
   47.7470   32.8400   37.8680 C   0  0  0  0  0  0  0  0  0  0  0  0
   49.0450   32.3620   37.7770 C   0  0  0  0  0  0  0  0  0  0  0  0
   49.6730   32.3440   38.6810 H   0  0  0  0  0  0  0  0  0  0  0  0
   49.6110   31.8980   36.6090 C   0  0  0  0  0  0  0  0  0  0  0  0
   50.6130   31.5240   36.5180 H   0  0  0  0  0  0  0  0  0  0  0  0
   48.8250   31.9200   35.4780 C   0  0  0  0  0  0  0  0  0  0  0  0
   47.5380   32.3990   35.5910 C   0  0  0  0  0  0  0  0  0  0  0  0
  2  1  2  1  0  0  0
  2  5  1  0  0  0  0
  3  2  1  0  0  0  0
  3  4  1  0  0  0  0
  5  7  1  0  0  0  0
  6  7  2  0  0  0  0
  6 11  1  0  0  0  0
  7  8  1  0  0  0  0
  8 13  1  0  0  0  0
  8  9  2  0  0  0  0
 10 14  1  0  0  0  0
 10  9  1  0  0  0  0
 11 10  2  0  0  0  0
 12  6  1  0  0  0  0
 15  2  1  0  0  0  0
 16 17  2  0  0  0  0
 16 15  1  0  0  0  0
 19 18  1  0  0  0  0
 19 20  1  0  0  0  0
 20 16  1  0  0  0  0
 21 20  2  0  0  0  0
 21 22  1  0  0  0  0
 23 21  1  0  0  0  0
 24 23  1  0  0  0  0
 25 26  1  0  0  0  0
 25 23  2  0  0  0  0
 26 19  2  0  0  0  0
M  END
>  <minimizedAffinity>
-4.54317236

>  <minimizedRMSD>
1.31569016

$$$$
