
 OpenBabel03252507593D

 29 31  0  0  1  0  0  0  0  0999 V2000
   46.6740   34.7260   43.1560 C   0  0  0  0  0  0  0  0  0  0  0  0
   45.6280   35.6920   43.2420 C   0  0  0  0  0  0  0  0  0  0  0  0
   44.7520   35.5470   44.3170 C   0  0  0  0  0  0  0  0  0  0  0  0
   44.9380   34.5310   45.1890 N   0  0  0  0  0  0  0  0  0  0  0  0
   45.9730   33.6370   45.0360 C   0  0  0  0  0  0  0  0  0  0  0  0
   46.8410   33.7090   44.0470 N   0  0  0  0  0  0  0  0  0  0  0  0
   45.5590   36.4700   42.4970 H   0  0  0  0  0  0  0  0  0  0  0  0
   43.9440   36.2580   44.4220 H   0  0  0  0  0  0  0  0  0  0  0  0
   46.1260   32.5360   46.0370 C   0  0  1  0  0  0  0  0  0  0  0  0
   46.8330   32.8280   47.3360 C   0  0  0  0  0  0  0  0  0  0  0  0
   45.3360   32.7210   47.2740 C   0  0  1  0  0  0  0  0  0  0  0  0
   46.2850   31.5500   45.5970 H   0  0  0  0  0  0  0  0  0  0  0  0
   47.3390   33.7910   47.4720 H   0  0  0  0  0  0  0  0  0  0  0  0
   47.3260   31.9540   47.7940 H   0  0  0  0  0  0  0  0  0  0  0  0
   44.8150   31.8640   47.7130 H   0  0  0  0  0  0  0  0  0  0  0  0
   44.6860   34.0100   47.5250 N   0  0  0  0  0  0  0  0  0  0  0  0
   45.2200   34.5860   48.2070 H   0  0  0  0  0  0  0  0  0  0  0  0
   43.6810   33.9010   47.7760 H   0  0  0  0  0  0  0  0  0  0  0  0
   47.5750   34.8930   42.0310 C   0  0  0  0  0  0  0  0  0  0  0  0
   48.3480   35.8900   41.8880 O   0  0  0  0  0  0  0  0  0  0  0  0
   49.9440   32.9810   41.8190 Cl  0  0  0  0  0  0  0  0  0  0  0  0
   48.5900   32.9300   40.7300 C   0  0  0  0  0  0  0  0  0  0  0  0
   47.6200   33.8610   40.9730 C   0  0  0  0  0  0  0  0  0  0  0  0
   46.4920   33.8920   40.1460 C   0  0  0  0  0  0  0  0  0  0  0  0
   45.6690   34.5980   40.2620 H   0  0  0  0  0  0  0  0  0  0  0  0
   46.3290   33.0170   39.0950 C   0  0  0  0  0  0  0  0  0  0  0  0
   45.4810   33.0070   38.4360 H   0  0  0  0  0  0  0  0  0  0  0  0
   47.3170   32.0800   38.8590 C   0  0  0  0  0  3  0  0  0  0  0  0
   48.4190   32.0580   39.6770 C   0  0  0  0  0  3  0  0  0  0  0  0
  1  2  2  0  0  0  0
  1  6  1  0  0  0  0
  2  3  1  0  0  0  0
  3  8  1  0  0  0  0
  3  4  2  0  0  0  0
  5  4  1  0  0  0  0
  5  9  1  0  0  0  0
  6  5  2  0  0  0  0
  7  2  1  0  0  0  0
  9 12  1  6  0  0  0
  9 11  1  0  0  0  0
  9 10  1  0  0  0  0
 10 13  1  0  0  0  0
 10 14  1  0  0  0  0
 11 10  1  0  0  0  0
 11 16  1  0  0  0  0
 11 15  1  1  0  0  0
 16 18  1  0  0  0  0
 16 17  1  0  0  0  0
 19  1  1  0  0  0  0
 20 19  2  0  0  0  0
 22 23  1  0  0  0  0
 22 21  1  0  0  0  0
 23 19  1  0  0  0  0
 24 25  1  0  0  0  0
 24 23  2  0  0  0  0
 26 24  1  0  0  0  0
 27 26  1  0  0  0  0
 28 26  2  0  0  0  0
 28 29  1  0  0  0  0
 29 22  2  0  0  0  0
M  END
>  <minimizedAffinity>
-5.44676924

>  <minimizedRMSD>
1.54519498

$$$$
