
 OpenBabel03252502273D

 35 37  0  0  0  0  0  0  0  0999 V2000
   45.1270   34.4280   41.1770 C   0  0  0  0  0  0  0  0  0  0  0  0
   45.4790   35.1150   42.3350 C   0  0  0  0  0  0  0  0  0  0  0  0
   46.8390   35.3790   42.5730 C   0  0  0  0  0  0  0  0  0  0  0  0
   47.7760   34.9550   41.6640 C   0  0  0  0  0  0  0  0  0  0  0  0
   47.4440   34.2800   40.5240 C   0  0  0  0  0  0  0  0  0  0  0  0
   46.0860   34.0280   40.3070 C   0  0  0  0  0  0  0  0  0  0  0  0
   44.7470   35.4520   43.0570 H   0  0  0  0  0  0  0  0  0  0  0  0
   47.1640   35.9030   43.4470 H   0  0  0  0  0  0  0  0  0  0  0  0
   48.8560   35.1100   41.7570 H   0  0  0  0  0  0  0  0  0  0  0  0
   48.0790   33.8980   39.7400 H   0  0  0  0  0  0  0  0  0  0  0  0
   41.4480   34.7760   40.4640 C   0  0  0  0  0  0  0  0  0  0  0  0
   42.8010   35.1440   40.6040 C   0  0  0  0  0  0  0  0  0  0  0  0
   43.7140   34.1880   40.9970 C   0  0  0  0  0  0  0  0  0  0  0  0
   43.2370   32.9290   41.2280 N   0  0  0  0  0  0  0  0  0  0  0  0
   41.9400   32.5860   41.0920 C   0  0  0  0  0  0  0  0  0  0  0  0
   41.0340   33.5150   40.7080 N   0  0  0  0  0  0  0  0  0  0  0  0
   43.1430   36.1440   40.4140 H   0  0  0  0  0  0  0  0  0  0  0  0
   41.5770   31.5870   41.2780 H   0  0  0  0  0  0  0  0  0  0  0  0
   40.4440   35.7840   40.0450 C   0  0  0  0  0  0  0  0  0  0  0  0
   39.2480   35.1080   39.7770 F   0  0  0  0  0  0  0  0  0  0  0  0
   40.8750   36.2860   38.8090 F   0  0  0  0  0  0  0  0  0  0  0  0
   40.2400   36.7750   40.9770 F   0  0  0  0  0  0  0  0  0  0  0  0
   45.7240   32.0300   38.6590 C   0  0  0  0  0  0  0  0  0  0  0  0
   46.3120   31.0990   39.1920 O   0  0  0  0  0  0  0  0  0  0  0  0
   45.6100   33.3420   39.1670 N   0  0  0  0  0  0  0  0  0  0  0  0
   45.0470   34.0320   38.6120 H   0  0  0  0  0  0  0  0  0  0  0  0
   47.2830   32.5820   36.1080 Cl  0  0  0  0  0  0  0  0  0  0  0  0
   45.6570   31.8910   36.1250 C   0  0  0  0  0  0  0  0  0  0  0  0
   45.0980   31.7090   37.3790 C   0  0  0  0  0  0  0  0  0  0  0  0
   43.8190   31.1720   37.5120 C   0  0  0  0  0  0  0  0  0  0  0  0
   43.3250   31.0060   38.4780 H   0  0  0  0  0  0  0  0  0  0  0  0
   43.0730   30.8070   36.3980 C   0  0  0  0  0  0  0  0  0  0  0  0
   42.0810   30.3910   36.5050 H   0  0  0  0  0  0  0  0  0  0  0  0
   43.6620   31.0020   35.1440 C   0  0  0  0  0  3  0  0  0  0  0  0
   44.9340   31.5360   35.0090 C   0  0  0  0  0  3  0  0  0  0  0  0
  1  2  1  0  0  0  0
  2  3  2  0  0  0  0
  2  7  1  0  0  0  0
  3  8  1  0  0  0  0
  4  9  1  0  0  0  0
  4  3  1  0  0  0  0
  5  4  2  0  0  0  0
  6  5  1  0  0  0  0
  6  1  2  0  0  0  0
 10  5  1  0  0  0  0
 11 12  2  0  0  0  0
 11 16  1  0  0  0  0
 12 13  1  0  0  0  0
 13  1  1  0  0  0  0
 13 14  2  0  0  0  0
 15 14  1  0  0  0  0
 15 18  1  0  0  0  0
 16 15  2  0  0  0  0
 17 12  1  0  0  0  0
 19 11  1  0  0  0  0
 19 22  1  0  0  0  0
 20 19  1  0  0  0  0
 21 19  1  0  0  0  0
 23 25  1  0  0  0  0
 23 24  2  0  0  0  0
 25  6  1  0  0  0  0
 26 25  1  0  0  0  0
 27 28  1  0  0  0  0
 28 29  1  0  0  0  0
 29 30  2  0  0  0  0
 29 23  1  0  0  0  0
 30 31  1  0  0  0  0
 32 33  1  0  0  0  0
 32 30  1  0  0  0  0
 34 32  2  0  0  0  0
 35 34  1  0  0  0  0
 35 28  2  0  0  0  0
M  END
>  <minimizedAffinity>
-6.11079597

>  <minimizedRMSD>
0.675328135

$$$$
