
 OpenBabel03252503593D

 34 37  0  0  0  0  0  0  0  0999 V2000
   46.9730   34.9600   42.6760 C   0  0  0  0  0  0  0  0  0  0  0  0
   45.9890   35.9460   42.5320 C   0  0  0  0  0  0  0  0  0  0  0  0
   44.9290   35.9270   43.4190 C   0  0  0  0  0  0  0  0  0  0  0  0
   44.8960   34.9680   44.3720 N   0  0  0  0  0  0  0  0  0  0  0  0
   45.8730   34.0240   44.4810 C   0  0  0  0  0  0  0  0  0  0  0  0
   46.9160   34.0230   43.6280 N   0  0  0  0  0  0  0  0  0  0  0  0
   46.0680   36.6960   41.7450 H   0  0  0  0  0  0  0  0  0  0  0  0
   44.1600   36.6840   43.3200 H   0  0  0  0  0  0  0  0  0  0  0  0
   46.0620   31.6870   45.1420 C   0  0  0  0  0  0  0  0  0  0  0  0
   45.8160   32.9900   45.5250 C   0  0  0  0  0  0  0  0  0  0  0  0
   45.5310   33.2870   46.8450 C   0  0  0  0  0  0  0  0  0  0  0  0
   45.4980   32.2470   47.7620 C   0  0  0  0  0  0  0  0  0  0  0  0
   45.2550   32.2140   49.0860 N   0  0  0  0  0  0  0  0  0  0  0  0
   45.3410   30.9440   49.5360 C   0  0  0  0  0  0  0  0  0  0  0  0
   45.6470   30.1160   48.4870 C   0  0  0  0  0  0  0  0  0  0  0  0
   45.7440   30.9360   47.3810 C   0  0  0  0  0  0  0  0  0  0  0  0
   46.0280   30.6600   46.0560 C   0  0  0  0  0  0  0  0  0  0  0  0
   46.2890   31.4520   44.0950 H   0  0  0  0  0  0  0  0  0  0  0  0
   45.3400   34.3100   47.1360 H   0  0  0  0  0  0  0  0  0  0  0  0
   45.0290   33.0270   49.7170 H   0  0  0  0  0  0  0  0  0  0  0  0
   45.1960   30.5970   50.5610 H   0  0  0  0  0  0  0  0  0  0  0  0
   45.7970   29.0310   48.4610 H   0  0  0  0  0  0  0  0  0  0  0  0
   46.2270   29.6670   45.7030 H   0  0  0  0  0  0  0  0  0  0  0  0
   48.0660   35.0190   41.7220 C   0  0  0  0  0  0  0  0  0  0  0  0
   48.9390   35.9490   41.7030 O   0  0  0  0  0  0  0  0  0  0  0  0
   49.9100   32.8540   42.4580 Cl  0  0  0  0  0  0  0  0  0  0  0  0
   49.1930   32.9920   40.8670 C   0  0  0  0  0  0  0  0  0  0  0  0
   48.3430   34.0580   40.6570 C   0  0  0  0  0  0  0  0  0  0  0  0
   47.7790   34.1670   39.4040 C   0  0  0  0  0  0  0  0  0  0  0  0
   47.1000   34.9940   39.1870 H   0  0  0  0  0  0  0  0  0  0  0  0
   48.0610   33.2430   38.4180 C   0  0  0  0  0  0  0  0  0  0  0  0
   47.6020   33.3550   37.4440 H   0  0  0  0  0  0  0  0  0  0  0  0
   48.9180   32.1960   38.6880 C   0  0  0  0  0  3  0  0  0  0  0  0
   49.5250   32.0280   39.9380 C   0  0  0  0  0  3  0  0  0  0  0  0
  1  6  1  0  0  0  0
  2  1  2  0  0  0  0
  2  3  1  0  0  0  0
  3  4  2  0  0  0  0
  4  5  1  0  0  0  0
  5 10  1  0  0  0  0
  6  5  2  0  0  0  0
  7  2  1  0  0  0  0
  8  3  1  0  0  0  0
  9 10  2  0  0  0  0
  9 17  1  0  0  0  0
 10 11  1  0  0  0  0
 11 19  1  0  0  0  0
 11 12  2  0  0  0  0
 12 13  1  0  0  0  0
 13 14  1  0  0  0  0
 13 20  1  0  0  0  0
 14 21  1  0  0  0  0
 15 14  2  0  0  0  0
 16 12  1  0  0  0  0
 16 15  1  0  0  0  0
 17 16  2  0  0  0  0
 18  9  1  0  0  0  0
 22 15  1  0  0  0  0
 23 17  1  0  0  0  0
 24  1  1  0  0  0  0
 25 24  2  0  0  0  0
 27 26  1  0  0  0  0
 28 27  1  0  0  0  0
 28 24  1  0  0  0  0
 29 28  2  0  0  0  0
 30 29  1  0  0  0  0
 31 33  2  0  0  0  0
 31 29  1  0  0  0  0
 32 31  1  0  0  0  0
 33 34  1  0  0  0  0
 34 27  2  0  0  0  0
M  END
>  <minimizedAffinity>
-6.46009016

>  <minimizedRMSD>
0.574488521

$$$$
