
     RDKit          3D

 31 33  0  0  0  0  0  0  0  0999 V2000
   46.2697   34.7528   43.2484 C   0  0  0  0  0  0  0  0  0  0  0  0
   45.3065   35.7470   43.5907 C   0  0  0  0  0  0  0  0  0  0  0  0
   44.6633   35.5762   44.8160 C   0  0  0  0  0  0  0  0  0  0  0  0
   44.9799   34.5097   45.5858 N   0  0  0  0  0  0  0  0  0  0  0  0
   45.9230   33.5916   45.1832 C   0  0  0  0  0  0  0  0  0  0  0  0
   46.5725   33.6864   44.0398 N   0  0  0  0  0  0  0  0  0  0  0  0
   46.2296   32.4359   46.0811 C   0  0  1  0  0  0  0  0  0  0  0  0
   47.0280   32.6838   47.3375 C   0  0  0  0  0  0  0  0  0  0  0  0
   45.5404   32.4793   47.3891 C   0  0  1  0  0  0  0  0  0  0  0  0
   44.8356   33.7004   47.7900 N   0  0  0  0  0  0  0  0  0  0  0  0
   46.9278   34.9488   41.9699 C   0  0  0  0  0  0  0  0  0  0  0  0
   48.0588   35.5082   41.8365 O   0  0  0  0  0  0  0  0  0  0  0  0
   45.1193   36.5649   42.9115 H   0  0  0  0  0  0  0  0  0  0  0  0
   43.9253   36.3057   45.1172 H   0  0  0  0  0  0  0  0  0  0  0  0
   46.4112   31.4965   45.5555 H   0  0  0  0  0  0  0  0  0  0  0  0
   47.4824   33.6672   47.5033 H   0  0  0  0  0  0  0  0  0  0  0  0
   47.6122   31.8151   47.6849 H   0  0  0  0  0  0  0  0  0  0  0  0
   45.1143   31.5601   47.8030 H   0  0  0  0  0  0  0  0  0  0  0  0
   45.3899   34.2608   48.4677 H   0  0  0  0  0  0  0  0  0  0  0  0
   43.8649   33.5046   48.1136 H   0  0  0  0  0  0  0  0  0  0  0  0
   44.5668   36.4784   40.7885 Cl  0  0  0  0  0  0  0  0  0  0  0  0
   45.2104   35.0334   40.0672 C   0  0  0  0  0  0  0  0  0  0  0  0
   46.2683   34.4809   40.7316 C   0  0  0  0  0  0  0  0  0  0  0  0
   46.8506   33.3150   40.2226 C   0  0  0  0  0  0  0  0  0  0  0  0
   47.6970   32.8026   40.6828 H   0  0  0  0  0  0  0  0  0  0  0  0
   46.3919   32.7066   39.0743 C   0  0  0  0  0  0  0  0  0  0  0  0
   46.8084   31.8135   38.6504 H   0  0  0  0  0  0  0  0  0  0  0  0
   45.3214   33.2757   38.4122 C   0  0  0  0  0  0  0  0  0  0  0  0
   44.7572   34.4201   38.9202 C   0  0  0  0  0  0  0  0  0  0  0  0
   44.9316   32.8287   37.5074 H   0  0  0  0  0  0  0  0  0  0  0  0
   43.9153   34.9037   38.4362 H   0  0  0  0  0  0  0  0  0  0  0  0
  1  2  2  0
  1  6  1  0
  2  3  1  0
  3  4  2  0
  5  4  1  0
  5  7  1  0
  6  5  2  0
  7  8  1  0
  7  9  1  0
  8  9  1  0
  9 10  1  0
 11  1  1  0
 12 11  2  0
  2 13  1  0
  3 14  1  0
  7 15  1  6
  8 16  1  0
  8 17  1  0
  9 18  1  1
 10 19  1  0
 10 20  1  0
 21 22  1  0
 22 23  2  0
 23 24  1  0
 24 25  1  0
 24 26  2  0
 26 27  1  0
 26 28  1  0
 28 29  2  0
 29 22  1  0
 28 30  1  0
 29 31  1  0
 11 23  1  0
M  ISO  8  13  14  14  14  15  13  16  13  17  13  18  13  19   5  20   5
M  ISO  2  25  15  27  16
M  END
>  <DihAtoms>  (1) 
0,10,22,21

>  <DihDeg>  (1) 
135.00378675751168

$$$$
