
 OpenBabel03252508493D

 28 30  0  0  0  0  0  0  0  0999 V2000
   45.8570   34.2420   41.0540 C   0  0  0  0  0  0  0  0  0  0  0  0
   46.4760   34.8020   42.1650 C   0  0  0  0  0  0  0  0  0  0  0  0
   47.8440   35.0950   42.0340 C   0  0  0  0  0  0  0  0  0  0  0  0
   48.4610   34.8130   40.8470 N   0  0  0  0  0  0  0  0  0  0  0  0
   47.8160   34.2760   39.8180 C   0  0  0  0  0  0  0  0  0  0  0  0
   46.5100   33.9810   39.9010 N   0  0  0  0  0  0  0  0  0  0  0  0
   48.3420   35.5350   42.8970 H   0  0  0  0  0  0  0  0  0  0  0  0
   48.3600   34.0750   38.9040 H   0  0  0  0  0  0  0  0  0  0  0  0
   45.7190   35.0570   43.3700 C   0  0  0  0  0  0  0  0  0  0  0  0
   45.1180   36.2680   43.6410 C   0  0  0  0  0  0  0  0  0  0  0  0
   44.5210   36.0720   44.8640 C   0  0  0  0  0  0  0  0  0  0  0  0
   44.7420   34.8120   45.3180 N   0  0  0  0  0  0  0  0  0  0  0  0
   45.4680   34.2250   44.3930 N   0  0  0  0  0  0  0  0  0  0  0  0
   45.1020   37.1850   43.0480 H   0  0  0  0  0  0  0  0  0  0  0  0
   43.9430   36.7880   45.4300 H   0  0  0  0  0  0  0  0  0  0  0  0
   44.4470   34.3280   46.1870 H   0  0  0  0  0  0  0  0  0  0  0  0
   44.5060   33.9390   41.1430 O   0  0  0  0  0  0  0  0  0  0  0  0
   43.4610   34.7180   40.7280 C   0  0  0  0  0  0  0  0  0  0  0  0
   43.2040   35.9300   41.0640 O   0  0  0  0  0  0  0  0  0  0  0  0
   43.2170   31.7120   40.3810 Cl  0  0  0  0  0  0  0  0  0  0  0  0
   42.1970   32.8750   39.5170 C   0  0  0  0  0  0  0  0  0  0  0  0
   42.4220   34.2300   39.7760 C   0  0  0  0  0  0  0  0  0  0  0  0
   41.5790   35.0410   39.0560 C   0  0  0  0  0  0  0  0  0  0  0  0
   41.6730   36.1180   39.1870 H   0  0  0  0  0  0  0  0  0  0  0  0
   40.6250   34.6080   38.1830 C   0  0  0  0  0  0  0  0  0  0  0  0
   40.0030   35.3120   37.6560 H   0  0  0  0  0  0  0  0  0  0  0  0
   40.4820   33.2550   37.9970 C   0  0  0  0  0  3  0  0  0  0  0  0
   41.2740   32.3550   38.6670 C   0  0  0  0  0  3  0  0  0  0  0  0
  1 17  1  0  0  0  0
  1  2  1  0  0  0  0
  2  9  1  0  0  0  0
  3  2  2  0  0  0  0
  3  7  1  0  0  0  0
  4  3  1  0  0  0  0
  5  6  1  0  0  0  0
  5  4  2  0  0  0  0
  6  1  2  0  0  0  0
  8  5  1  0  0  0  0
  9 10  1  0  0  0  0
  9 13  2  0  0  0  0
 10 11  2  0  0  0  0
 11 12  1  0  0  0  0
 11 15  1  0  0  0  0
 12 16  1  0  0  0  0
 13 12  1  0  0  0  0
 14 10  1  0  0  0  0
 18 19  2  0  0  0  0
 18 17  1  0  0  0  0
 21 22  1  0  0  0  0
 21 20  1  0  0  0  0
 22 18  1  0  0  0  0
 23 24  1  0  0  0  0
 23 22  2  0  0  0  0
 25 23  1  0  0  0  0
 26 25  1  0  0  0  0
 27 25  2  0  0  0  0
 27 28  1  0  0  0  0
 28 21  2  0  0  0  0
M  END
>  <minimizedAffinity>
-5.59000111

>  <minimizedRMSD>
0.864807546

$$$$
