
 OpenBabel03252503293D

 25 26  0  0  0  0  0  0  0  0999 V2000
   39.3280   27.8970   41.8160 C   0  0  0  0  0  0  0  0  0  0  0  0
   38.3790   26.9180   41.4690 C   0  0  0  0  0  0  0  0  0  0  0  0
   38.3600   25.7510   42.2630 C   0  0  0  0  0  0  0  0  0  0  0  0
   39.2440   25.6740   43.2770 N   0  0  0  0  0  0  0  0  0  0  0  0
   40.1380   26.6370   43.5750 C   0  0  0  0  0  0  0  0  0  0  0  0
   40.1710   27.7590   42.8280 N   0  0  0  0  0  0  0  0  0  0  0  0
   38.3400   29.9980   41.3960 C   0  0  0  0  0  0  0  0  0  0  0  0
   37.4690   29.6030   42.2430 O   0  0  0  0  0  0  0  0  0  0  0  0
   39.4070   29.1020   41.0600 N   0  0  0  0  0  0  0  0  0  0  0  0
   37.6970   27.0550   40.6320 H   0  0  0  0  0  0  0  0  0  0  0  0
   40.8330   26.5380   44.4000 H   0  0  0  0  0  0  0  0  0  0  0  0
   40.0600   29.4530   40.3400 H   0  0  0  0  0  0  0  0  0  0  0  0
   36.2100   30.2770   39.3230 Cl  0  0  0  0  0  0  0  0  0  0  0  0
   37.2400   31.5830   39.8680 C   0  0  0  0  0  0  0  0  0  0  0  0
   38.1830   31.3470   40.8240 C   0  0  0  0  0  0  0  0  0  0  0  0
   39.0190   32.3360   41.2930 C   0  0  0  0  0  0  0  0  0  0  0  0
   39.7890   32.1910   42.0590 H   0  0  0  0  0  0  0  0  0  0  0  0
   38.9150   33.6370   40.7830 C   0  0  0  0  0  0  0  0  0  0  0  0
   39.5540   34.4520   41.1220 H   0  0  0  0  0  0  0  0  0  0  0  0
   37.9710   33.8860   39.8220 C   0  0  0  0  0  3  0  0  0  0  0  0
   37.1260   32.8670   39.3540 C   0  0  0  0  0  3  0  0  0  0  0  0
   37.3650   24.7530   41.8790 C   0  0  0  0  0  0  0  0  0  0  0  0
   36.8080   25.1430   40.6580 F   0  0  0  0  0  0  0  0  0  0  0  0
   36.3220   24.8520   42.7890 F   0  0  0  0  0  0  0  0  0  0  0  0
   37.8520   23.4980   41.7450 F   0  0  0  0  0  0  0  0  0  0  0  0
  1  6  1  0  0  0  0
  2  1  2  0  0  0  0
  2  3  1  0  0  0  0
  3  4  2  0  0  0  0
  4  5  1  0  0  0  0
  5 11  1  0  0  0  0
  6  5  2  0  0  0  0
  7  8  2  0  0  0  0
  9  7  1  0  0  0  0
  9  1  1  0  0  0  0
 10  2  1  0  0  0  0
 12  9  1  0  0  0  0
 13 14  1  0  0  0  0
 14 15  1  0  0  0  0
 15 16  2  0  0  0  0
 15  7  1  0  0  0  0
 16 17  1  0  0  0  0
 18 19  1  0  0  0  0
 18 16  1  0  0  0  0
 20 18  2  0  0  0  0
 21 20  1  0  0  0  0
 21 14  2  0  0  0  0
 22  3  1  0  0  0  0
 22 24  1  0  0  0  0
 23 22  1  0  0  0  0
 25 22  1  0  0  0  0
M  END
>  <minimizedAffinity>
-5.58442926

$$$$

 OpenBabel03252503293D

 25 26  0  0  0  0  0  0  0  0999 V2000
   38.3390   29.5810   39.4800 C   0  0  0  0  0  0  0  0  0  0  0  0
   38.7140   30.8200   40.0320 C   0  0  0  0  0  0  0  0  0  0  0  0
   38.0550   31.9610   39.5230 C   0  0  0  0  0  0  0  0  0  0  0  0
   37.1320   31.7670   38.5600 N   0  0  0  0  0  0  0  0  0  0  0  0
   36.8020   30.5600   38.0600 C   0  0  0  0  0  0  0  0  0  0  0  0
   37.4210   29.4600   38.5340 N   0  0  0  0  0  0  0  0  0  0  0  0
   38.4410   27.9900   41.2200 C   0  0  0  0  0  0  0  0  0  0  0  0
   37.5750   28.7480   41.7760 O   0  0  0  0  0  0  0  0  0  0  0  0
   38.9600   28.3850   39.9440 N   0  0  0  0  0  0  0  0  0  0  0  0
   39.4720   30.8930   40.8090 H   0  0  0  0  0  0  0  0  0  0  0  0
   36.0530   30.4470   37.2860 H   0  0  0  0  0  0  0  0  0  0  0  0
   39.6870   27.7620   39.5570 H   0  0  0  0  0  0  0  0  0  0  0  0
   36.9370   25.5200   40.4830 Cl  0  0  0  0  0  0  0  0  0  0  0  0
   38.2190   25.5810   41.6720 C   0  0  0  0  0  0  0  0  0  0  0  0
   38.8440   26.7660   41.9330 C   0  0  0  0  0  0  0  0  0  0  0  0
   39.8610   26.8740   42.8560 C   0  0  0  0  0  0  0  0  0  0  0  0
   40.3900   27.8030   43.0960 H   0  0  0  0  0  0  0  0  0  0  0  0
   40.2840   25.7420   43.5640 C   0  0  0  0  0  0  0  0  0  0  0  0
   41.0830   25.7760   44.3040 H   0  0  0  0  0  0  0  0  0  0  0  0
   39.6630   24.5460   43.3100 C   0  0  0  0  0  3  0  0  0  0  0  0
   38.6290   24.4510   42.3670 C   0  0  0  0  0  3  0  0  0  0  0  0
   38.4660   33.2310   40.1130 C   0  0  0  0  0  0  0  0  0  0  0  0
   37.4430   34.1590   39.9020 F   0  0  0  0  0  0  0  0  0  0  0  0
   39.5310   33.7030   39.3570 F   0  0  0  0  0  0  0  0  0  0  0  0
   38.7250   33.1760   41.4400 F   0  0  0  0  0  0  0  0  0  0  0  0
  1  9  1  0  0  0  0
  1  2  1  0  0  0  0
  2 10  1  0  0  0  0
  3  2  2  0  0  0  0
  3 22  1  0  0  0  0
  4  3  1  0  0  0  0
  5  6  1  0  0  0  0
  5  4  2  0  0  0  0
  6  1  2  0  0  0  0
  7  8  2  0  0  0  0
  7 15  1  0  0  0  0
  9  7  1  0  0  0  0
 11  5  1  0  0  0  0
 12  9  1  0  0  0  0
 13 14  1  0  0  0  0
 14 15  2  0  0  0  0
 14 21  1  0  0  0  0
 15 16  1  0  0  0  0
 16 17  1  0  0  0  0
 16 18  2  0  0  0  0
 18 19  1  0  0  0  0
 20 18  1  0  0  0  0
 21 20  2  0  0  0  0
 22 25  1  0  0  0  0
 23 22  1  0  0  0  0
 24 22  1  0  0  0  0
M  END
>  <minimizedAffinity>
-5.21812248

$$$$

 OpenBabel03252503293D

 25 26  0  0  0  0  0  0  0  0999 V2000
   38.2060   29.7320   41.7840 C   0  0  0  0  0  0  0  0  0  0  0  0
   37.7380   30.6360   40.8130 C   0  0  0  0  0  0  0  0  0  0  0  0
   38.4150   31.8730   40.7260 C   0  0  0  0  0  0  0  0  0  0  0  0
   39.4420   32.0800   41.5740 N   0  0  0  0  0  0  0  0  0  0  0  0
   39.8580   31.1840   42.4910 C   0  0  0  0  0  0  0  0  0  0  0  0
   39.2240   29.9980   42.5880 N   0  0  0  0  0  0  0  0  0  0  0  0
   37.9630   27.5640   40.8840 C   0  0  0  0  0  0  0  0  0  0  0  0
   38.7410   28.0050   39.9720 O   0  0  0  0  0  0  0  0  0  0  0  0
   37.5730   28.4640   41.9300 N   0  0  0  0  0  0  0  0  0  0  0  0
   36.8990   30.3940   40.1640 H   0  0  0  0  0  0  0  0  0  0  0  0
   40.6890   31.3890   43.1540 H   0  0  0  0  0  0  0  0  0  0  0  0
   36.9100   28.0710   42.6180 H   0  0  0  0  0  0  0  0  0  0  0  0
   39.1060   25.7210   42.9340 Cl  0  0  0  0  0  0  0  0  0  0  0  0
   37.9850   25.2360   41.6810 C   0  0  0  0  0  0  0  0  0  0  0  0
   37.5200   26.1620   40.7930 C   0  0  0  0  0  0  0  0  0  0  0  0
   36.6350   25.8390   39.7880 C   0  0  0  0  0  0  0  0  0  0  0  0
   36.2370   26.5500   39.0550 H   0  0  0  0  0  0  0  0  0  0  0  0
   36.1830   24.5200   39.6540 C   0  0  0  0  0  0  0  0  0  0  0  0
   35.4830   24.2160   38.8760 H   0  0  0  0  0  0  0  0  0  0  0  0
   36.6420   23.5810   40.5410 C   0  0  0  0  0  3  0  0  0  0  0  0
   37.5440   23.9250   41.5590 C   0  0  0  0  0  3  0  0  0  0  0  0
   37.9060   32.7900   39.7110 C   0  0  0  0  0  0  0  0  0  0  0  0
   36.6650   32.3160   39.2800 F   0  0  0  0  0  0  0  0  0  0  0  0
   38.7350   32.6660   38.6040 F   0  0  0  0  0  0  0  0  0  0  0  0
   37.7530   34.0660   40.1330 F   0  0  0  0  0  0  0  0  0  0  0  0
  1  9  1  0  0  0  0
  1  6  1  0  0  0  0
  2  1  2  0  0  0  0
  3  2  1  0  0  0  0
  3  4  2  0  0  0  0
  4  5  1  0  0  0  0
  5  6  2  0  0  0  0
  5 11  1  0  0  0  0
  7  9  1  0  0  0  0
  8  7  2  0  0  0  0
  9 12  1  0  0  0  0
 10  2  1  0  0  0  0
 14 13  1  0  0  0  0
 15  7  1  0  0  0  0
 15 14  2  0  0  0  0
 16 15  1  0  0  0  0
 17 16  1  0  0  0  0
 18 16  2  0  0  0  0
 18 20  1  0  0  0  0
 19 18  1  0  0  0  0
 20 21  2  0  0  0  0
 21 14  1  0  0  0  0
 22 25  1  0  0  0  0
 22  3  1  0  0  0  0
 23 22  1  0  0  0  0
 24 22  1  0  0  0  0
M  END
>  <minimizedAffinity>
-5.20537519

$$$$

 OpenBabel03252503293D

 25 26  0  0  0  0  0  0  0  0999 V2000
   37.9200   29.6780   38.5190 C   0  0  0  0  0  0  0  0  0  0  0  0
   37.9500   30.8050   39.3600 C   0  0  0  0  0  0  0  0  0  0  0  0
   37.7150   32.0550   38.7470 C   0  0  0  0  0  0  0  0  0  0  0  0
   37.4830   32.0630   37.4190 N   0  0  0  0  0  0  0  0  0  0  0  0
   37.4630   30.9570   36.6490 C   0  0  0  0  0  0  0  0  0  0  0  0
   37.6850   29.7540   37.2170 N   0  0  0  0  0  0  0  0  0  0  0  0
   36.9940   27.9050   39.7710 C   0  0  0  0  0  0  0  0  0  0  0  0
   35.9830   28.6800   39.8620 O   0  0  0  0  0  0  0  0  0  0  0  0
   38.1480   28.3820   39.0650 N   0  0  0  0  0  0  0  0  0  0  0  0
   38.1450   30.7160   40.4270 H   0  0  0  0  0  0  0  0  0  0  0  0
   37.2720   31.0050   35.5840 H   0  0  0  0  0  0  0  0  0  0  0  0
   38.9520   27.7350   39.0570 H   0  0  0  0  0  0  0  0  0  0  0  0
   37.7230   27.7950   42.6630 Cl  0  0  0  0  0  0  0  0  0  0  0  0
   37.2150   26.4140   41.7160 C   0  0  0  0  0  0  0  0  0  0  0  0
   36.9020   26.5750   40.3980 C   0  0  0  0  0  0  0  0  0  0  0  0
   36.4950   25.5250   39.6040 C   0  0  0  0  0  0  0  0  0  0  0  0
   36.2350   25.6100   38.5430 H   0  0  0  0  0  0  0  0  0  0  0  0
   36.3920   24.2390   40.1480 C   0  0  0  0  0  0  0  0  0  0  0  0
   36.0750   23.3770   39.5610 H   0  0  0  0  0  0  0  0  0  0  0  0
   36.7030   24.0640   41.4720 C   0  0  0  0  0  3  0  0  0  0  0  0
   37.1170   25.1430   42.2680 C   0  0  0  0  0  3  0  0  0  0  0  0
   37.7530   33.2050   39.6450 C   0  0  0  0  0  0  0  0  0  0  0  0
   39.0190   33.7890   39.5490 F   0  0  0  0  0  0  0  0  0  0  0  0
   37.6920   32.7090   40.9400 F   0  0  0  0  0  0  0  0  0  0  0  0
   36.8250   34.1540   39.3830 F   0  0  0  0  0  0  0  0  0  0  0  0
  1  9  1  0  0  0  0
  1  2  1  0  0  0  0
  2 10  1  0  0  0  0
  3  2  2  0  0  0  0
  3 22  1  0  0  0  0
  4  3  1  0  0  0  0
  5  6  1  0  0  0  0
  5  4  2  0  0  0  0
  6  1  2  0  0  0  0
  7  8  2  0  0  0  0
  7 15  1  0  0  0  0
  9  7  1  0  0  0  0
 11  5  1  0  0  0  0
 12  9  1  0  0  0  0
 14 21  1  0  0  0  0
 14 13  1  0  0  0  0
 15 14  2  0  0  0  0
 16 18  2  0  0  0  0
 16 15  1  0  0  0  0
 17 16  1  0  0  0  0
 18 20  1  0  0  0  0
 19 18  1  0  0  0  0
 20 21  2  0  0  0  0
 22 24  1  0  0  0  0
 23 22  1  0  0  0  0
 25 22  1  0  0  0  0
M  END
>  <minimizedAffinity>
-5.20341158

$$$$

 OpenBabel03252503293D

 25 26  0  0  0  0  0  0  0  0999 V2000
   38.4590   29.6320   39.3140 C   0  0  0  0  0  0  0  0  0  0  0  0
   38.7240   30.8920   39.8800 C   0  0  0  0  0  0  0  0  0  0  0  0
   38.0570   31.9940   39.3020 C   0  0  0  0  0  0  0  0  0  0  0  0
   37.2310   31.7480   38.2660 N   0  0  0  0  0  0  0  0  0  0  0  0
   37.0050   30.5220   37.7540 C   0  0  0  0  0  0  0  0  0  0  0  0
   37.6330   29.4570   38.2940 N   0  0  0  0  0  0  0  0  0  0  0  0
   38.4870   28.0620   41.0760 C   0  0  0  0  0  0  0  0  0  0  0  0
   37.5400   28.7800   41.5460 O   0  0  0  0  0  0  0  0  0  0  0  0
   39.0950   28.4720   39.8440 N   0  0  0  0  0  0  0  0  0  0  0  0
   39.4070   31.0090   40.7190 H   0  0  0  0  0  0  0  0  0  0  0  0
   36.3330   30.3650   36.9200 H   0  0  0  0  0  0  0  0  0  0  0  0
   39.8820   27.8820   39.5300 H   0  0  0  0  0  0  0  0  0  0  0  0
   40.7350   28.4510   43.0000 Cl  0  0  0  0  0  0  0  0  0  0  0  0
   39.9050   26.9330   42.7400 C   0  0  0  0  0  0  0  0  0  0  0  0
   38.8860   26.8650   41.8360 C   0  0  0  0  0  0  0  0  0  0  0  0
   38.1950   25.6980   41.5920 C   0  0  0  0  0  0  0  0  0  0  0  0
   37.3710   25.5990   40.8750 H   0  0  0  0  0  0  0  0  0  0  0  0
   38.5340   24.5290   42.2840 C   0  0  0  0  0  0  0  0  0  0  0  0
   38.0180   23.5830   42.1260 H   0  0  0  0  0  0  0  0  0  0  0  0
   39.5560   24.5850   43.1960 C   0  0  0  0  0  3  0  0  0  0  0  0
   40.2510   25.7810   43.4340 C   0  0  0  0  0  3  0  0  0  0  0  0
   38.3520   33.2880   39.9100 C   0  0  0  0  0  0  0  0  0  0  0  0
   38.5350   33.0920   41.2810 F   0  0  0  0  0  0  0  0  0  0  0  0
   37.1970   34.0530   39.8150 F   0  0  0  0  0  0  0  0  0  0  0  0
   39.4520   33.9030   39.4160 F   0  0  0  0  0  0  0  0  0  0  0  0
  1  9  1  0  0  0  0
  1  2  1  0  0  0  0
  2 10  1  0  0  0  0
  3  2  2  0  0  0  0
  3 22  1  0  0  0  0
  4  3  1  0  0  0  0
  5  4  2  0  0  0  0
  5  6  1  0  0  0  0
  6  1  2  0  0  0  0
  7  8  2  0  0  0  0
  7 15  1  0  0  0  0
  9  7  1  0  0  0  0
 11  5  1  0  0  0  0
 12  9  1  0  0  0  0
 14 13  1  0  0  0  0
 14 21  1  0  0  0  0
 15 14  2  0  0  0  0
 16 15  1  0  0  0  0
 16 18  2  0  0  0  0
 17 16  1  0  0  0  0
 18 20  1  0  0  0  0
 19 18  1  0  0  0  0
 20 21  2  0  0  0  0
 22 23  1  0  0  0  0
 24 22  1  0  0  0  0
 25 22  1  0  0  0  0
M  END
>  <minimizedAffinity>
-5.12336874

$$$$

 OpenBabel03252503293D

 25 26  0  0  0  0  0  0  0  0999 V2000
   38.3390   29.8460   41.7920 C   0  0  0  0  0  0  0  0  0  0  0  0
   37.8280   30.7310   40.8250 C   0  0  0  0  0  0  0  0  0  0  0  0
   38.4830   31.9770   40.7040 C   0  0  0  0  0  0  0  0  0  0  0  0
   39.5320   32.2090   41.5180 N   0  0  0  0  0  0  0  0  0  0  0  0
   39.9890   31.3310   42.4320 C   0  0  0  0  0  0  0  0  0  0  0  0
   39.3770   30.1370   42.5620 N   0  0  0  0  0  0  0  0  0  0  0  0
   38.1020   27.6640   40.9250 C   0  0  0  0  0  0  0  0  0  0  0  0
   38.8460   28.1060   39.9850 O   0  0  0  0  0  0  0  0  0  0  0  0
   37.7300   28.5700   41.9720 N   0  0  0  0  0  0  0  0  0  0  0  0
   36.9740   30.4690   40.2050 H   0  0  0  0  0  0  0  0  0  0  0  0
   40.8370   31.5560   43.0670 H   0  0  0  0  0  0  0  0  0  0  0  0
   37.0950   28.1760   42.6840 H   0  0  0  0  0  0  0  0  0  0  0  0
   35.9860   27.0430   38.9130 Cl  0  0  0  0  0  0  0  0  0  0  0  0
   36.7150   25.8630   39.9810 C   0  0  0  0  0  0  0  0  0  0  0  0
   37.6780   26.2540   40.8650 C   0  0  0  0  0  0  0  0  0  0  0  0
   38.2880   25.3700   41.7270 C   0  0  0  0  0  0  0  0  0  0  0  0
   39.0650   25.6410   42.4520 H   0  0  0  0  0  0  0  0  0  0  0  0
   37.9230   24.0180   41.7140 C   0  0  0  0  0  0  0  0  0  0  0  0
   38.3760   23.2810   42.3760 H   0  0  0  0  0  0  0  0  0  0  0  0
   36.9570   23.6130   40.8300 C   0  0  0  0  0  3  0  0  0  0  0  0
   36.3440   24.5260   39.9570 C   0  0  0  0  0  3  0  0  0  0  0  0
   37.9300   32.8740   39.6940 C   0  0  0  0  0  0  0  0  0  0  0  0
   36.6680   32.3970   39.3330 F   0  0  0  0  0  0  0  0  0  0  0  0
   38.7040   32.7210   38.5510 F   0  0  0  0  0  0  0  0  0  0  0  0
   37.8030   34.1600   40.0940 F   0  0  0  0  0  0  0  0  0  0  0  0
  1  9  1  0  0  0  0
  1  6  1  0  0  0  0
  2  1  2  0  0  0  0
  3  2  1  0  0  0  0
  3  4  2  0  0  0  0
  4  5  1  0  0  0  0
  5  6  2  0  0  0  0
  5 11  1  0  0  0  0
  7  9  1  0  0  0  0
  8  7  2  0  0  0  0
  9 12  1  0  0  0  0
 10  2  1  0  0  0  0
 13 14  1  0  0  0  0
 14 15  1  0  0  0  0
 15  7  1  0  0  0  0
 15 16  2  0  0  0  0
 16 17  1  0  0  0  0
 18 16  1  0  0  0  0
 18 19  1  0  0  0  0
 20 18  2  0  0  0  0
 21 14  2  0  0  0  0
 21 20  1  0  0  0  0
 22 25  1  0  0  0  0
 22  3  1  0  0  0  0
 23 22  1  0  0  0  0
 24 22  1  0  0  0  0
M  END
>  <minimizedAffinity>
-5.04723263

$$$$

 OpenBabel03252503293D

 25 26  0  0  0  0  0  0  0  0999 V2000
   36.7790   28.5450   36.2870 C   0  0  0  0  0  0  0  0  0  0  0  0
   36.8050   29.8040   35.6610 C   0  0  0  0  0  0  0  0  0  0  0  0
   36.2280   29.8790   34.3740 C   0  0  0  0  0  0  0  0  0  0  0  0
   35.7080   28.7470   33.8590 N   0  0  0  0  0  0  0  0  0  0  0  0
   35.7040   27.5590   34.4950 C   0  0  0  0  0  0  0  0  0  0  0  0
   36.2500   27.4690   35.7250 N   0  0  0  0  0  0  0  0  0  0  0  0
   36.4740   28.9270   38.5960 C   0  0  0  0  0  0  0  0  0  0  0  0
   35.3920   29.4910   38.2190 O   0  0  0  0  0  0  0  0  0  0  0  0
   37.3410   28.3920   37.5880 N   0  0  0  0  0  0  0  0  0  0  0  0
   37.2450   30.6730   36.1440 H   0  0  0  0  0  0  0  0  0  0  0  0
   35.2750   26.6720   34.0470 H   0  0  0  0  0  0  0  0  0  0  0  0
   38.2220   27.9840   37.9420 H   0  0  0  0  0  0  0  0  0  0  0  0
   37.4530   31.4660   39.8220 Cl  0  0  0  0  0  0  0  0  0  0  0  0
   37.2070   29.9730   40.7000 C   0  0  0  0  0  0  0  0  0  0  0  0
   36.7530   28.8670   40.0410 C   0  0  0  0  0  0  0  0  0  0  0  0
   36.5390   27.6660   40.6810 C   0  0  0  0  0  0  0  0  0  0  0  0
   36.1750   26.7550   40.1910 H   0  0  0  0  0  0  0  0  0  0  0  0
   36.7890   27.5520   42.0540 C   0  0  0  0  0  0  0  0  0  0  0  0
   36.6350   26.6240   42.6030 H   0  0  0  0  0  0  0  0  0  0  0  0
   37.2450   28.6560   42.7260 C   0  0  0  0  0  3  0  0  0  0  0  0
   37.4590   29.8730   42.0610 C   0  0  0  0  0  3  0  0  0  0  0  0
   36.2700   31.1980   33.7490 C   0  0  0  0  0  0  0  0  0  0  0  0
   37.0780   31.1140   32.6120 F   0  0  0  0  0  0  0  0  0  0  0  0
   36.9650   32.0320   34.6140 F   0  0  0  0  0  0  0  0  0  0  0  0
   35.0620   31.6830   33.3800 F   0  0  0  0  0  0  0  0  0  0  0  0
  1  9  1  0  0  0  0
  2 10  1  0  0  0  0
  2  1  2  0  0  0  0
  3  2  1  0  0  0  0
  4  3  2  0  0  0  0
  4  5  1  0  0  0  0
  5  6  2  0  0  0  0
  6  1  1  0  0  0  0
  7 15  1  0  0  0  0
  8  7  2  0  0  0  0
  9 12  1  0  0  0  0
  9  7  1  0  0  0  0
 11  5  1  0  0  0  0
 13 14  1  0  0  0  0
 14 21  1  0  0  0  0
 15 16  1  0  0  0  0
 15 14  2  0  0  0  0
 16 18  2  0  0  0  0
 17 16  1  0  0  0  0
 18 19  1  0  0  0  0
 18 20  1  0  0  0  0
 21 20  2  0  0  0  0
 22  3  1  0  0  0  0
 22 24  1  0  0  0  0
 23 22  1  0  0  0  0
 25 22  1  0  0  0  0
M  END
>  <minimizedAffinity>
-4.96173906

$$$$

 OpenBabel03252503293D

 25 26  0  0  0  0  0  0  0  0999 V2000
   37.9350   26.2400   40.6360 C   0  0  0  0  0  0  0  0  0  0  0  0
   36.9750   25.5190   39.9030 C   0  0  0  0  0  0  0  0  0  0  0  0
   36.6370   24.2400   40.3960 C   0  0  0  0  0  0  0  0  0  0  0  0
   37.2570   23.8210   41.5170 N   0  0  0  0  0  0  0  0  0  0  0  0
   38.1730   24.5460   42.1890 C   0  0  0  0  0  0  0  0  0  0  0  0
   38.5090   25.7700   41.7330 N   0  0  0  0  0  0  0  0  0  0  0  0
   37.3300   28.5170   40.5180 C   0  0  0  0  0  0  0  0  0  0  0  0
   36.2510   28.1160   41.0710 O   0  0  0  0  0  0  0  0  0  0  0  0
   38.3280   27.5380   40.2000 N   0  0  0  0  0  0  0  0  0  0  0  0
   36.5180   25.9280   39.0040 H   0  0  0  0  0  0  0  0  0  0  0  0
   38.6490   24.1730   43.0880 H   0  0  0  0  0  0  0  0  0  0  0  0
   39.1620   27.9080   39.7160 H   0  0  0  0  0  0  0  0  0  0  0  0
   38.8090   30.0790   42.5870 Cl  0  0  0  0  0  0  0  0  0  0  0  0
   38.1280   30.7640   41.1280 C   0  0  0  0  0  0  0  0  0  0  0  0
   37.4700   29.9580   40.2450 C   0  0  0  0  0  0  0  0  0  0  0  0
   36.9160   30.4410   39.0800 C   0  0  0  0  0  0  0  0  0  0  0  0
   36.3800   29.8300   38.3440 H   0  0  0  0  0  0  0  0  0  0  0  0
   37.0180   31.8030   38.7710 C   0  0  0  0  0  0  0  0  0  0  0  0
   36.5960   32.2320   37.8630 H   0  0  0  0  0  0  0  0  0  0  0  0
   37.6760   32.6230   39.6510 C   0  0  0  0  0  3  0  0  0  0  0  0
   38.2360   32.1160   40.8340 C   0  0  0  0  0  3  0  0  0  0  0  0
   35.6380   23.5160   39.6140 C   0  0  0  0  0  0  0  0  0  0  0  0
   35.1140   24.3930   38.6610 F   0  0  0  0  0  0  0  0  0  0  0  0
   34.5760   23.2460   40.4670 F   0  0  0  0  0  0  0  0  0  0  0  0
   36.1120   22.4220   38.9740 F   0  0  0  0  0  0  0  0  0  0  0  0
  1  6  1  0  0  0  0
  2  3  1  0  0  0  0
  2  1  2  0  0  0  0
  3  4  2  0  0  0  0
  4  5  1  0  0  0  0
  5 11  1  0  0  0  0
  6  5  2  0  0  0  0
  7  8  2  0  0  0  0
  9  7  1  0  0  0  0
  9  1  1  0  0  0  0
 10  2  1  0  0  0  0
 12  9  1  0  0  0  0
 14 13  1  0  0  0  0
 15  7  1  0  0  0  0
 15 14  2  0  0  0  0
 16 15  1  0  0  0  0
 17 16  1  0  0  0  0
 18 16  2  0  0  0  0
 18 20  1  0  0  0  0
 19 18  1  0  0  0  0
 20 21  2  0  0  0  0
 21 14  1  0  0  0  0
 22  3  1  0  0  0  0
 22 24  1  0  0  0  0
 23 22  1  0  0  0  0
 25 22  1  0  0  0  0
M  END
>  <minimizedAffinity>
-4.87963486

$$$$

 OpenBabel03252503293D

 25 26  0  0  0  0  0  0  0  0999 V2000
   36.4640   26.9020   39.7720 C   0  0  0  0  0  0  0  0  0  0  0  0
   37.1850   26.1220   40.6940 C   0  0  0  0  0  0  0  0  0  0  0  0
   37.3050   24.7460   40.3980 C   0  0  0  0  0  0  0  0  0  0  0  0
   36.7230   24.3010   39.2660 N   0  0  0  0  0  0  0  0  0  0  0  0
   36.0400   25.0850   38.4080 C   0  0  0  0  0  0  0  0  0  0  0  0
   35.9160   26.4010   38.6750 N   0  0  0  0  0  0  0  0  0  0  0  0
   37.5010   29.0200   39.6970 C   0  0  0  0  0  0  0  0  0  0  0  0
   38.5260   28.3520   39.3280 O   0  0  0  0  0  0  0  0  0  0  0  0
   36.3010   28.2980   40.0030 N   0  0  0  0  0  0  0  0  0  0  0  0
   37.6260   26.5570   41.5880 H   0  0  0  0  0  0  0  0  0  0  0  0
   35.5880   24.6880   37.5080 H   0  0  0  0  0  0  0  0  0  0  0  0
   35.5160   28.8800   40.3360 H   0  0  0  0  0  0  0  0  0  0  0  0
   38.8000   30.0570   42.1760 Cl  0  0  0  0  0  0  0  0  0  0  0  0
   38.2050   31.0630   40.8740 C   0  0  0  0  0  0  0  0  0  0  0  0
   37.6280   30.4850   39.7810 C   0  0  0  0  0  0  0  0  0  0  0  0
   37.1440   31.2270   38.7260 C   0  0  0  0  0  0  0  0  0  0  0  0
   36.6740   30.8040   37.8300 H   0  0  0  0  0  0  0  0  0  0  0  0
   37.2360   32.6240   38.7540 C   0  0  0  0  0  0  0  0  0  0  0  0
   36.8680   33.2530   37.9450 H   0  0  0  0  0  0  0  0  0  0  0  0
   37.8140   33.2160   39.8470 C   0  0  0  0  0  3  0  0  0  0  0  0
   38.3030   32.4470   40.9150 C   0  0  0  0  0  3  0  0  0  0  0  0
   38.0580   23.9630   41.3730 C   0  0  0  0  0  0  0  0  0  0  0  0
   39.3730   24.4350   41.3870 F   0  0  0  0  0  0  0  0  0  0  0  0
   38.1520   22.6730   40.8690 F   0  0  0  0  0  0  0  0  0  0  0  0
   37.5700   24.0190   42.6340 F   0  0  0  0  0  0  0  0  0  0  0  0
  1  9  1  0  0  0  0
  1  2  1  0  0  0  0
  2 10  1  0  0  0  0
  3  2  2  0  0  0  0
  3 22  1  0  0  0  0
  4  3  1  0  0  0  0
  5  6  1  0  0  0  0
  5  4  2  0  0  0  0
  6  1  2  0  0  0  0
  7 15  1  0  0  0  0
  7  9  1  0  0  0  0
  8  7  2  0  0  0  0
  9 12  1  0  0  0  0
 11  5  1  0  0  0  0
 14 21  1  0  0  0  0
 14 13  1  0  0  0  0
 15 14  2  0  0  0  0
 16 18  2  0  0  0  0
 16 15  1  0  0  0  0
 17 16  1  0  0  0  0
 18 20  1  0  0  0  0
 19 18  1  0  0  0  0
 20 21  2  0  0  0  0
 22 23  1  0  0  0  0
 22 25  1  0  0  0  0
 24 22  1  0  0  0  0
M  END
>  <minimizedAffinity>
-4.85745144

$$$$
