
 OpenBabel03252501123D

 20 21  0  0  0  0  0  0  0  0999 V2000
   36.9830   27.6220   42.6980 C   0  0  0  0  0  0  0  0  0  0  0  0
   36.2000   27.4080   43.6730 O   0  0  0  0  0  0  0  0  0  0  0  0
   35.9360   29.0840   39.4590 C   0  0  0  0  0  0  0  0  0  0  0  0
   36.1970   28.1410   40.4570 C   0  0  0  0  0  0  0  0  0  0  0  0
   36.7180   28.6080   41.6750 C   0  0  0  0  0  0  0  0  0  0  0  0
   36.9430   29.9530   41.8250 N   0  0  0  0  0  0  0  0  0  0  0  0
   36.6710   30.8090   40.8260 C   0  0  0  0  0  0  0  0  0  0  0  0
   36.1700   30.3820   39.6480 N   0  0  0  0  0  0  0  0  0  0  0  0
   35.5390   28.7980   38.5080 H   0  0  0  0  0  0  0  0  0  0  0  0
   35.9810   27.1160   40.2230 H   0  0  0  0  0  0  0  0  0  0  0  0
   36.9030   31.8470   41.0950 H   0  0  0  0  0  0  0  0  0  0  0  0
   36.6930   24.7570   41.6790 Cl  0  0  0  0  0  0  0  0  0  0  0  0
   38.1040   25.3960   42.4450 C   0  0  0  0  0  0  0  0  0  0  0  0
   38.1030   26.7090   42.8590 C   0  0  0  0  0  0  0  0  0  0  0  0
   39.2040   27.2630   43.4750 C   0  0  0  0  0  0  0  0  0  0  0  0
   39.3030   28.2880   43.8360 H   0  0  0  0  0  0  0  0  0  0  0  0
   40.3320   26.4770   43.6790 C   0  0  0  0  0  0  0  0  0  0  0  0
   41.2140   26.8590   44.1520 H   0  0  0  0  0  0  0  0  0  0  0  0
   40.3320   25.1670   43.2670 C   0  0  0  0  0  3  0  0  0  0  0  0
   39.2360   24.5990   42.6470 C   0  0  0  0  0  3  0  0  0  0  0  0
  1 14  1  0  0  0  0
  1  2  2  0  0  0  0
  3  8  2  0  0  0  0
  3  4  1  0  0  0  0
  4  5  2  0  0  0  0
  5  6  1  0  0  0  0
  5  1  1  0  0  0  0
  7 11  1  0  0  0  0
  7  6  2  0  0  0  0
  8  7  1  0  0  0  0
  9  3  1  0  0  0  0
 10  4  1  0  0  0  0
 12 13  1  0  0  0  0
 13 20  2  0  0  0  0
 13 14  1  0  0  0  0
 14 15  2  0  0  0  0
 15 17  1  0  0  0  0
 15 16  1  0  0  0  0
 17 18  1  0  0  0  0
 19 17  2  0  0  0  0
 20 19  1  0  0  0  0
M  END
>  <minimizedAffinity>
-4.87582064

$$$$

 OpenBabel03252501123D

 20 21  0  0  0  0  0  0  0  0999 V2000
   36.7670   27.5320   42.5890 C   0  0  0  0  0  0  0  0  0  0  0  0
   36.1300   27.3950   43.6770 O   0  0  0  0  0  0  0  0  0  0  0  0
   35.5590   29.6370   39.7900 C   0  0  0  0  0  0  0  0  0  0  0  0
   35.7230   28.5380   40.6380 C   0  0  0  0  0  0  0  0  0  0  0  0
   36.6080   28.6770   41.7200 C   0  0  0  0  0  0  0  0  0  0  0  0
   37.2620   29.8700   41.8900 N   0  0  0  0  0  0  0  0  0  0  0  0
   37.0610   30.8890   41.0380 C   0  0  0  0  0  0  0  0  0  0  0  0
   36.2160   30.7780   39.9930 N   0  0  0  0  0  0  0  0  0  0  0  0
   34.9010   29.6010   38.9470 H   0  0  0  0  0  0  0  0  0  0  0  0
   35.1580   27.6570   40.4040 H   0  0  0  0  0  0  0  0  0  0  0  0
   37.6530   31.7740   41.3040 H   0  0  0  0  0  0  0  0  0  0  0  0
   39.6990   27.7450   43.4170 Cl  0  0  0  0  0  0  0  0  0  0  0  0
   38.9500   26.3190   42.7910 C   0  0  0  0  0  0  0  0  0  0  0  0
   37.6150   26.3590   42.4550 C   0  0  0  0  0  0  0  0  0  0  0  0
   36.9740   25.2480   41.9510 C   0  0  0  0  0  0  0  0  0  0  0  0
   35.9250   25.1780   41.6570 H   0  0  0  0  0  0  0  0  0  0  0  0
   37.6930   24.0710   41.7820 C   0  0  0  0  0  0  0  0  0  0  0  0
   37.2420   23.1790   41.3950 H   0  0  0  0  0  0  0  0  0  0  0  0
   39.0240   24.0320   42.1170 C   0  0  0  0  0  3  0  0  0  0  0  0
   39.6790   25.1370   42.6230 C   0  0  0  0  0  3  0  0  0  0  0  0
  1  2  2  0  0  0  0
  3  8  2  0  0  0  0
  3  4  1  0  0  0  0
  4  5  2  0  0  0  0
  5  6  1  0  0  0  0
  5  1  1  0  0  0  0
  7 11  1  0  0  0  0
  7  6  2  0  0  0  0
  8  7  1  0  0  0  0
  9  3  1  0  0  0  0
 10  4  1  0  0  0  0
 13 12  1  0  0  0  0
 14  1  1  0  0  0  0
 14 13  2  0  0  0  0
 15 14  1  0  0  0  0
 16 15  1  0  0  0  0
 17 15  2  0  0  0  0
 17 19  1  0  0  0  0
 18 17  1  0  0  0  0
 19 20  2  0  0  0  0
 20 13  1  0  0  0  0
M  END
>  <minimizedAffinity>
-4.80480814

$$$$

 OpenBabel03252501123D

 20 21  0  0  0  0  0  0  0  0999 V2000
   36.9470   27.4730   42.6710 C   0  0  0  0  0  0  0  0  0  0  0  0
   36.1940   27.6280   43.6790 O   0  0  0  0  0  0  0  0  0  0  0  0
   37.9660   24.0430   41.7140 C   0  0  0  0  0  0  0  0  0  0  0  0
   37.1730   25.1770   41.9060 C   0  0  0  0  0  0  0  0  0  0  0  0
   37.7800   26.3070   42.4790 C   0  0  0  0  0  0  0  0  0  0  0  0
   39.1070   26.2430   42.8200 N   0  0  0  0  0  0  0  0  0  0  0  0
   39.8140   25.1210   42.6100 C   0  0  0  0  0  0  0  0  0  0  0  0
   39.2520   24.0250   42.0600 N   0  0  0  0  0  0  0  0  0  0  0  0
   37.5690   23.1480   41.2820 H   0  0  0  0  0  0  0  0  0  0  0  0
   36.1470   25.1080   41.6000 H   0  0  0  0  0  0  0  0  0  0  0  0
   40.8580   25.2240   42.9320 H   0  0  0  0  0  0  0  0  0  0  0  0
   38.9050   29.7930   43.0040 Cl  0  0  0  0  0  0  0  0  0  0  0  0
   37.5850   29.7670   41.8900 C   0  0  0  0  0  0  0  0  0  0  0  0
   36.7750   28.6540   41.8400 C   0  0  0  0  0  0  0  0  0  0  0  0
   35.7090   28.5870   40.9690 C   0  0  0  0  0  0  0  0  0  0  0  0
   35.0130   27.7540   40.8540 H   0  0  0  0  0  0  0  0  0  0  0  0
   35.4540   29.6630   40.1280 C   0  0  0  0  0  0  0  0  0  0  0  0
   34.6390   29.6610   39.4320 H   0  0  0  0  0  0  0  0  0  0  0  0
   36.2620   30.7720   40.1780 C   0  0  0  0  0  3  0  0  0  0  0  0
   37.3330   30.8530   41.0460 C   0  0  0  0  0  3  0  0  0  0  0  0
  1  2  2  0  0  0  0
  3  4  2  0  0  0  0
  3  8  1  0  0  0  0
  4  5  1  0  0  0  0
  5  1  1  0  0  0  0
  5  6  2  0  0  0  0
  7  6  1  0  0  0  0
  7 11  1  0  0  0  0
  8  7  2  0  0  0  0
  9  3  1  0  0  0  0
 10  4  1  0  0  0  0
 13 12  1  0  0  0  0
 14 13  1  0  0  0  0
 14  1  1  0  0  0  0
 15 14  2  0  0  0  0
 16 15  1  0  0  0  0
 17 19  2  0  0  0  0
 17 15  1  0  0  0  0
 18 17  1  0  0  0  0
 19 20  1  0  0  0  0
 20 13  2  0  0  0  0
M  END
>  <minimizedAffinity>
-4.74304056

$$$$

 OpenBabel03252501123D

 20 21  0  0  0  0  0  0  0  0999 V2000
   38.2670   29.9780   40.3570 C   0  0  0  0  0  0  0  0  0  0  0  0
   38.5480   29.2350   39.3680 O   0  0  0  0  0  0  0  0  0  0  0  0
   37.2220   33.4260   39.4950 C   0  0  0  0  0  0  0  0  0  0  0  0
   37.2290   32.0300   39.5710 C   0  0  0  0  0  0  0  0  0  0  0  0
   38.2740   31.4220   40.2860 C   0  0  0  0  0  0  0  0  0  0  0  0
   39.2270   32.2170   40.8680 N   0  0  0  0  0  0  0  0  0  0  0  0
   39.1640   33.5550   40.7570 C   0  0  0  0  0  0  0  0  0  0  0  0
   38.1700   34.1600   40.0760 N   0  0  0  0  0  0  0  0  0  0  0  0
   36.4560   33.9550   38.9670 H   0  0  0  0  0  0  0  0  0  0  0  0
   36.4290   31.5150   39.0750 H   0  0  0  0  0  0  0  0  0  0  0  0
   39.9940   34.0520   41.2740 H   0  0  0  0  0  0  0  0  0  0  0  0
   35.3810   29.0640   40.7590 Cl  0  0  0  0  0  0  0  0  0  0  0  0
   36.7110   28.6070   41.7620 C   0  0  0  0  0  0  0  0  0  0  0  0
   37.9670   29.0910   41.4690 C   0  0  0  0  0  0  0  0  0  0  0  0
   39.0580   28.7550   42.2400 C   0  0  0  0  0  0  0  0  0  0  0  0
   40.0880   29.0840   42.0910 H   0  0  0  0  0  0  0  0  0  0  0  0
   38.8820   27.9120   43.3300 C   0  0  0  0  0  0  0  0  0  0  0  0
   39.6980   27.6190   43.9610 H   0  0  0  0  0  0  0  0  0  0  0  0
   37.6300   27.4290   43.6220 C   0  0  0  0  0  3  0  0  0  0  0  0
   36.5280   27.7570   42.8580 C   0  0  0  0  0  3  0  0  0  0  0  0
  1 14  1  0  0  0  0
  2  1  2  0  0  0  0
  3  4  2  0  0  0  0
  3  8  1  0  0  0  0
  4  5  1  0  0  0  0
  5  1  1  0  0  0  0
  5  6  2  0  0  0  0
  7  6  1  0  0  0  0
  7 11  1  0  0  0  0
  8  7  2  0  0  0  0
  9  3  1  0  0  0  0
 10  4  1  0  0  0  0
 12 13  1  0  0  0  0
 13 20  1  0  0  0  0
 14 13  2  0  0  0  0
 14 15  1  0  0  0  0
 15 17  2  0  0  0  0
 16 15  1  0  0  0  0
 17 19  1  0  0  0  0
 17 18  1  0  0  0  0
 20 19  2  0  0  0  0
M  END
>  <minimizedAffinity>
-4.66126633

$$$$

 OpenBabel03252501123D

 20 21  0  0  0  0  0  0  0  0999 V2000
   35.7740   29.2580   40.3070 C   0  0  0  0  0  0  0  0  0  0  0  0
   34.5160   29.1180   40.2300 O   0  0  0  0  0  0  0  0  0  0  0  0
   37.4330   31.7070   38.0760 C   0  0  0  0  0  0  0  0  0  0  0  0
   36.7680   30.5550   38.5080 C   0  0  0  0  0  0  0  0  0  0  0  0
   36.4630   30.4540   39.8750 C   0  0  0  0  0  0  0  0  0  0  0  0
   36.8290   31.4770   40.7120 N   0  0  0  0  0  0  0  0  0  0  0  0
   37.4680   32.5570   40.2340 C   0  0  0  0  0  0  0  0  0  0  0  0
   37.7700   32.6770   38.9250 N   0  0  0  0  0  0  0  0  0  0  0  0
   37.6960   31.8500   37.0490 H   0  0  0  0  0  0  0  0  0  0  0  0
   36.5340   29.8230   37.7600 H   0  0  0  0  0  0  0  0  0  0  0  0
   37.6930   33.2870   41.0220 H   0  0  0  0  0  0  0  0  0  0  0  0
   36.3670   26.9090   38.4480 Cl  0  0  0  0  0  0  0  0  0  0  0  0
   36.6010   26.8980   40.1600 C   0  0  0  0  0  0  0  0  0  0  0  0
   36.2930   28.0290   40.8830 C   0  0  0  0  0  0  0  0  0  0  0  0
   36.4620   28.0680   42.2500 C   0  0  0  0  0  0  0  0  0  0  0  0
   36.2490   28.9110   42.9100 H   0  0  0  0  0  0  0  0  0  0  0  0
   36.9530   26.9440   42.9030 C   0  0  0  0  0  0  0  0  0  0  0  0
   37.1040   26.9230   43.9650 H   0  0  0  0  0  0  0  0  0  0  0  0
   37.2600   25.8170   42.1820 C   0  0  0  0  0  3  0  0  0  0  0  0
   37.0960   25.7640   40.8120 C   0  0  0  0  0  3  0  0  0  0  0  0
  1 14  1  0  0  0  0
  2  1  2  0  0  0  0
  3  4  2  0  0  0  0
  3  8  1  0  0  0  0
  4  5  1  0  0  0  0
  5  1  1  0  0  0  0
  5  6  2  0  0  0  0
  7  6  1  0  0  0  0
  7 11  1  0  0  0  0
  8  7  2  0  0  0  0
  9  3  1  0  0  0  0
 10  4  1  0  0  0  0
 12 13  1  0  0  0  0
 13 20  2  0  0  0  0
 13 14  1  0  0  0  0
 14 15  2  0  0  0  0
 15 17  1  0  0  0  0
 15 16  1  0  0  0  0
 17 18  1  0  0  0  0
 19 17  2  0  0  0  0
 20 19  1  0  0  0  0
M  END
>  <minimizedAffinity>
-4.63476419

$$$$

 OpenBabel03252501123D

 20 21  0  0  0  0  0  0  0  0999 V2000
   36.3170   28.9580   40.9000 C   0  0  0  0  0  0  0  0  0  0  0  0
   35.0600   29.0360   40.7520 O   0  0  0  0  0  0  0  0  0  0  0  0
   37.5240   32.4160   40.3490 C   0  0  0  0  0  0  0  0  0  0  0  0
   36.6980   31.2890   40.3280 C   0  0  0  0  0  0  0  0  0  0  0  0
   37.1820   30.1160   40.9290 C   0  0  0  0  0  0  0  0  0  0  0  0
   38.4280   30.1320   41.5020 N   0  0  0  0  0  0  0  0  0  0  0  0
   39.1730   31.2500   41.4880 C   0  0  0  0  0  0  0  0  0  0  0  0
   38.7280   32.3870   40.9170 N   0  0  0  0  0  0  0  0  0  0  0  0
   37.2180   33.3430   39.9100 H   0  0  0  0  0  0  0  0  0  0  0  0
   35.7430   31.3970   39.8500 H   0  0  0  0  0  0  0  0  0  0  0  0
   40.1420   31.1070   41.9840 H   0  0  0  0  0  0  0  0  0  0  0  0
   36.8750   27.8180   43.6780 Cl  0  0  0  0  0  0  0  0  0  0  0  0
   36.9030   26.9050   42.2110 C   0  0  0  0  0  0  0  0  0  0  0  0
   36.6320   27.5440   41.0220 C   0  0  0  0  0  0  0  0  0  0  0  0
   36.6430   26.8580   39.8260 C   0  0  0  0  0  0  0  0  0  0  0  0
   36.4420   27.2710   38.8360 H   0  0  0  0  0  0  0  0  0  0  0  0
   36.9330   25.4990   39.8290 C   0  0  0  0  0  0  0  0  0  0  0  0
   36.9540   24.9190   38.9270 H   0  0  0  0  0  0  0  0  0  0  0  0
   37.2040   24.8630   41.0150 C   0  0  0  0  0  3  0  0  0  0  0  0
   37.1960   25.5380   42.2200 C   0  0  0  0  0  3  0  0  0  0  0  0
  1  5  1  0  0  0  0
  1 14  1  0  0  0  0
  2  1  2  0  0  0  0
  3  8  1  0  0  0  0
  4  3  2  0  0  0  0
  4  5  1  0  0  0  0
  5  6  2  0  0  0  0
  7  6  1  0  0  0  0
  7 11  1  0  0  0  0
  8  7  2  0  0  0  0
  9  3  1  0  0  0  0
 10  4  1  0  0  0  0
 13 20  1  0  0  0  0
 13 12  1  0  0  0  0
 14 13  2  0  0  0  0
 15 17  2  0  0  0  0
 15 14  1  0  0  0  0
 16 15  1  0  0  0  0
 17 19  1  0  0  0  0
 18 17  1  0  0  0  0
 19 20  2  0  0  0  0
M  END
>  <minimizedAffinity>
-4.60786867

$$$$

 OpenBabel03252501123D

 20 21  0  0  0  0  0  0  0  0999 V2000
   37.3920   30.8680   41.0140 C   0  0  0  0  0  0  0  0  0  0  0  0
   36.1650   31.1860   41.0490 O   0  0  0  0  0  0  0  0  0  0  0  0
   39.4180   33.7650   39.9080 C   0  0  0  0  0  0  0  0  0  0  0  0
   38.4600   33.0100   40.5890 C   0  0  0  0  0  0  0  0  0  0  0  0
   38.3880   31.6370   40.3010 C   0  0  0  0  0  0  0  0  0  0  0  0
   39.2510   31.1090   39.3760 N   0  0  0  0  0  0  0  0  0  0  0  0
   40.1500   31.8910   38.7540 C   0  0  0  0  0  0  0  0  0  0  0  0
   40.2370   33.2110   39.0150 N   0  0  0  0  0  0  0  0  0  0  0  0
   39.5280   34.8160   40.0780 H   0  0  0  0  0  0  0  0  0  0  0  0
   37.8400   33.5340   41.2910 H   0  0  0  0  0  0  0  0  0  0  0  0
   40.7680   31.3270   38.0440 H   0  0  0  0  0  0  0  0  0  0  0  0
   39.7290   30.6380   42.9670 Cl  0  0  0  0  0  0  0  0  0  0  0  0
   38.5310   29.4200   42.7120 C   0  0  0  0  0  0  0  0  0  0  0  0
   37.5270   29.6520   41.7990 C   0  0  0  0  0  0  0  0  0  0  0  0
   36.5490   28.7100   41.5610 C   0  0  0  0  0  0  0  0  0  0  0  0
   35.7150   28.7980   40.8610 H   0  0  0  0  0  0  0  0  0  0  0  0
   36.5830   27.5090   42.2580 C   0  0  0  0  0  0  0  0  0  0  0  0
   35.8470   26.7430   42.1110 H   0  0  0  0  0  0  0  0  0  0  0  0
   37.5850   27.2780   43.1680 C   0  0  0  0  0  3  0  0  0  0  0  0
   38.5710   28.2130   43.4170 C   0  0  0  0  0  3  0  0  0  0  0  0
  1  2  2  0  0  0  0
  1 14  1  0  0  0  0
  3  9  1  0  0  0  0
  3  4  1  0  0  0  0
  4 10  1  0  0  0  0
  5  4  2  0  0  0  0
  5  1  1  0  0  0  0
  6  5  1  0  0  0  0
  7  8  1  0  0  0  0
  7  6  2  0  0  0  0
  8  3  2  0  0  0  0
 11  7  1  0  0  0  0
 13 12  1  0  0  0  0
 13 20  1  0  0  0  0
 14 13  2  0  0  0  0
 15 14  1  0  0  0  0
 15 17  2  0  0  0  0
 16 15  1  0  0  0  0
 17 19  1  0  0  0  0
 18 17  1  0  0  0  0
 19 20  2  0  0  0  0
M  END
>  <minimizedAffinity>
-4.54433966

$$$$

 OpenBabel03252501123D

 20 21  0  0  0  0  0  0  0  0999 V2000
   35.7230   29.1340   40.3160 C   0  0  0  0  0  0  0  0  0  0  0  0
   34.4780   29.2770   40.1160 O   0  0  0  0  0  0  0  0  0  0  0  0
   37.2120   25.7800   40.8190 C   0  0  0  0  0  0  0  0  0  0  0  0
   36.6640   26.8970   40.1830 C   0  0  0  0  0  0  0  0  0  0  0  0
   36.2870   27.9850   40.9870 C   0  0  0  0  0  0  0  0  0  0  0  0
   36.4730   27.9000   42.3440 N   0  0  0  0  0  0  0  0  0  0  0  0
   37.0050   26.7950   42.8940 C   0  0  0  0  0  0  0  0  0  0  0  0
   37.3740   25.7390   42.1400 N   0  0  0  0  0  0  0  0  0  0  0  0
   37.5200   24.9160   40.2670 H   0  0  0  0  0  0  0  0  0  0  0  0
   36.5670   26.8480   39.1150 H   0  0  0  0  0  0  0  0  0  0  0  0
   37.0900   26.8770   43.9850 H   0  0  0  0  0  0  0  0  0  0  0  0
   36.3040   29.1840   37.3190 Cl  0  0  0  0  0  0  0  0  0  0  0  0
   36.6880   30.4580   38.4210 C   0  0  0  0  0  0  0  0  0  0  0  0
   36.3700   30.3070   39.7530 C   0  0  0  0  0  0  0  0  0  0  0  0
   36.6570   31.2950   40.6700 C   0  0  0  0  0  0  0  0  0  0  0  0
   36.4460   31.2720   41.7410 H   0  0  0  0  0  0  0  0  0  0  0  0
   37.2770   32.4610   40.2360 C   0  0  0  0  0  0  0  0  0  0  0  0
   37.5210   33.2600   40.9080 H   0  0  0  0  0  0  0  0  0  0  0  0
   37.5940   32.6100   38.9090 C   0  0  0  0  0  3  0  0  0  0  0  0
   37.3120   31.6290   37.9790 C   0  0  0  0  0  3  0  0  0  0  0  0
  1  5  1  0  0  0  0
  2  1  2  0  0  0  0
  3  8  1  0  0  0  0
  4  3  2  0  0  0  0
  4  5  1  0  0  0  0
  5  6  2  0  0  0  0
  6  7  1  0  0  0  0
  7 11  1  0  0  0  0
  8  7  2  0  0  0  0
  9  3  1  0  0  0  0
 10  4  1  0  0  0  0
 12 13  1  0  0  0  0
 13 14  1  0  0  0  0
 14  1  1  0  0  0  0
 14 15  2  0  0  0  0
 15 16  1  0  0  0  0
 17 15  1  0  0  0  0
 17 18  1  0  0  0  0
 19 17  2  0  0  0  0
 20 13  2  0  0  0  0
 20 19  1  0  0  0  0
M  END
>  <minimizedAffinity>
-4.53614855

$$$$

 OpenBabel03252501123D

 20 21  0  0  0  0  0  0  0  0999 V2000
   36.4070   29.8990   40.9360 C   0  0  0  0  0  0  0  0  0  0  0  0
   36.0300   31.0730   41.2320 O   0  0  0  0  0  0  0  0  0  0  0  0
   37.4210   27.1060   43.1480 C   0  0  0  0  0  0  0  0  0  0  0  0
   36.6450   27.9020   42.3000 C   0  0  0  0  0  0  0  0  0  0  0  0
   37.2200   29.0860   41.8120 C   0  0  0  0  0  0  0  0  0  0  0  0
   38.5010   29.4020   42.1870 N   0  0  0  0  0  0  0  0  0  0  0  0
   39.1940   28.5940   43.0070 C   0  0  0  0  0  0  0  0  0  0  0  0
   38.6620   27.4520   43.4870 N   0  0  0  0  0  0  0  0  0  0  0  0
   37.0450   26.1910   43.5570 H   0  0  0  0  0  0  0  0  0  0  0  0
   35.6560   27.5510   42.0790 H   0  0  0  0  0  0  0  0  0  0  0  0
   40.2010   28.9800   43.2140 H   0  0  0  0  0  0  0  0  0  0  0  0
   38.1920   30.3230   38.4940 Cl  0  0  0  0  0  0  0  0  0  0  0  0
   36.5600   29.7580   38.4390 C   0  0  0  0  0  0  0  0  0  0  0  0
   35.8640   29.6100   39.6190 C   0  0  0  0  0  0  0  0  0  0  0  0
   34.5600   29.1630   39.6250 C   0  0  0  0  0  0  0  0  0  0  0  0
   33.9270   29.0120   40.5020 H   0  0  0  0  0  0  0  0  0  0  0  0
   33.9440   28.8570   38.4180 C   0  0  0  0  0  0  0  0  0  0  0  0
   32.9320   28.5060   38.3680 H   0  0  0  0  0  0  0  0  0  0  0  0
   34.6380   29.0060   37.2430 C   0  0  0  0  0  3  0  0  0  0  0  0
   35.9450   29.4520   37.2210 C   0  0  0  0  0  3  0  0  0  0  0  0
  1  2  2  0  0  0  0
  1  5  1  0  0  0  0
  3  8  1  0  0  0  0
  3  9  1  0  0  0  0
  4  3  2  0  0  0  0
  5  6  2  0  0  0  0
  5  4  1  0  0  0  0
  6  7  1  0  0  0  0
  7 11  1  0  0  0  0
  7  8  2  0  0  0  0
 10  4  1  0  0  0  0
 13 12  1  0  0  0  0
 13 14  1  0  0  0  0
 14 15  2  0  0  0  0
 14  1  1  0  0  0  0
 15 16  1  0  0  0  0
 17 15  1  0  0  0  0
 18 17  1  0  0  0  0
 19 17  2  0  0  0  0
 20 19  1  0  0  0  0
 20 13  2  0  0  0  0
M  END
>  <minimizedAffinity>
-4.52400255

$$$$
