
 OpenBabel03242513123D

 20 21  0  0  0  0  0  0  0  0999 V2000
   36.7590   27.3710   42.5600 C   0  0  0  0  0  0  0  0  0  0  0  0
   36.1980   27.4140   43.6800 O   0  0  0  0  0  0  0  0  0  0  0  0
   37.5680   23.9760   41.5470 C   0  0  0  0  0  0  0  0  0  0  0  0
   38.9450   23.9860   41.3040 C   0  0  0  0  0  0  0  0  0  0  0  0
   39.5880   25.2120   41.5040 C   0  0  0  0  0  0  0  0  0  0  0  0
   38.8710   26.3080   41.9120 N   0  0  0  0  0  0  0  0  0  0  0  0
   37.5420   26.2280   42.1280 C   0  0  0  0  0  0  0  0  0  0  0  0
   36.9070   25.0590   41.9420 N   0  0  0  0  0  0  0  0  0  0  0  0
   36.9840   23.0640   41.4180 H   0  0  0  0  0  0  0  0  0  0  0  0
   39.4510   23.1010   40.9890 H   0  0  0  0  0  0  0  0  0  0  0  0
   40.6710   25.2790   41.3280 H   0  0  0  0  0  0  0  0  0  0  0  0
   38.6320   29.5920   43.1290 Cl  0  0  0  0  0  0  0  0  0  0  0  0
   37.4040   29.6130   41.8600 C   0  0  0  0  0  0  0  0  0  0  0  0
   36.5950   28.5330   41.6880 C   0  0  0  0  0  0  0  0  0  0  0  0
   35.6510   28.5990   40.6800 C   0  0  0  0  0  0  0  0  0  0  0  0
   34.9930   27.7480   40.5230 H   0  0  0  0  0  0  0  0  0  0  0  0
   35.5470   29.7230   39.8930 C   0  0  0  0  0  0  0  0  0  0  0  0
   34.7950   29.7750   39.0920 H   0  0  0  0  0  0  0  0  0  0  0  0
   36.3840   30.8290   40.0790 C   0  0  0  0  0  3  0  0  0  0  0  0
   37.3210   30.7500   41.0870 C   0  0  0  0  0  3  0  0  0  0  0  0
  1  2  2  0  0  0  0
  3  8  1  0  0  0  0
  4  5  1  0  0  0  0
  4  3  2  0  0  0  0
  5  6  2  0  0  0  0
  6  7  1  0  0  0  0
  7  1  1  0  0  0  0
  8  7  2  0  0  0  0
  9  3  1  0  0  0  0
 10  4  1  0  0  0  0
 11  5  1  0  0  0  0
 13 12  1  0  0  0  0
 14 13  1  0  0  0  0
 14  1  1  0  0  0  0
 15 14  2  0  0  0  0
 16 15  1  0  0  0  0
 17 19  2  0  0  0  0
 17 15  1  0  0  0  0
 18 17  1  0  0  0  0
 19 20  1  0  0  0  0
 20 13  2  0  0  0  0
M  END
>  <minimizedAffinity>
-4.63666582

$$$$

 OpenBabel03242513123D

 20 21  0  0  0  0  0  0  0  0999 V2000
   35.5390   29.2340   40.2880 C   0  0  0  0  0  0  0  0  0  0  0  0
   34.3020   29.1540   40.0960 O   0  0  0  0  0  0  0  0  0  0  0  0
   37.3250   31.5770   38.1610 C   0  0  0  0  0  0  0  0  0  0  0  0
   37.7810   32.5780   39.0230 C   0  0  0  0  0  0  0  0  0  0  0  0
   37.4500   32.4150   40.3720 C   0  0  0  0  0  0  0  0  0  0  0  0
   36.7200   31.3250   40.7760 N   0  0  0  0  0  0  0  0  0  0  0  0
   36.3110   30.3960   39.8890 C   0  0  0  0  0  0  0  0  0  0  0  0
   36.6210   30.5350   38.5890 N   0  0  0  0  0  0  0  0  0  0  0  0
   37.5370   31.6200   37.0920 H   0  0  0  0  0  0  0  0  0  0  0  0
   38.3460   33.4030   38.6520 H   0  0  0  0  0  0  0  0  0  0  0  0
   37.7820   33.1720   41.0970 H   0  0  0  0  0  0  0  0  0  0  0  0
   36.2600   27.0290   38.4480 Cl  0  0  0  0  0  0  0  0  0  0  0  0
   36.5620   27.0260   40.1880 C   0  0  0  0  0  0  0  0  0  0  0  0
   36.1870   28.0970   40.9390 C   0  0  0  0  0  0  0  0  0  0  0  0
   36.4460   28.0450   42.2960 C   0  0  0  0  0  0  0  0  0  0  0  0
   36.1560   28.8880   42.9160 H   0  0  0  0  0  0  0  0  0  0  0  0
   37.0600   26.9440   42.8490 C   0  0  0  0  0  0  0  0  0  0  0  0
   37.2660   26.9030   43.9280 H   0  0  0  0  0  0  0  0  0  0  0  0
   37.4420   25.8480   42.0660 C   0  0  0  0  0  3  0  0  0  0  0  0
   37.1780   25.9120   40.7150 C   0  0  0  0  0  3  0  0  0  0  0  0
  1 14  1  0  0  0  0
  2  1  2  0  0  0  0
  3  8  2  0  0  0  0
  3  4  1  0  0  0  0
  4  5  2  0  0  0  0
  5  6  1  0  0  0  0
  5 11  1  0  0  0  0
  7  1  1  0  0  0  0
  7  6  2  0  0  0  0
  8  7  1  0  0  0  0
  9  3  1  0  0  0  0
 10  4  1  0  0  0  0
 12 13  1  0  0  0  0
 13 20  2  0  0  0  0
 13 14  1  0  0  0  0
 14 15  2  0  0  0  0
 15 17  1  0  0  0  0
 15 16  1  0  0  0  0
 17 18  1  0  0  0  0
 19 17  2  0  0  0  0
 20 19  1  0  0  0  0
M  END
>  <minimizedAffinity>
-4.62978983

$$$$

 OpenBabel03242513123D

 20 21  0  0  0  0  0  0  0  0999 V2000
   36.2780   30.1240   40.8700 C   0  0  0  0  0  0  0  0  0  0  0  0
   36.1720   31.3420   41.1460 O   0  0  0  0  0  0  0  0  0  0  0  0
   38.7950   28.6960   43.0690 C   0  0  0  0  0  0  0  0  0  0  0  0
   38.2800   27.4550   43.4550 C   0  0  0  0  0  0  0  0  0  0  0  0
   37.0280   27.1260   42.9270 C   0  0  0  0  0  0  0  0  0  0  0  0
   36.3820   27.9990   42.0870 N   0  0  0  0  0  0  0  0  0  0  0  0
   36.9380   29.1820   41.7550 C   0  0  0  0  0  0  0  0  0  0  0  0
   38.1400   29.5150   42.2520 N   0  0  0  0  0  0  0  0  0  0  0  0
   39.7650   29.0360   43.4310 H   0  0  0  0  0  0  0  0  0  0  0  0
   38.8280   26.8170   44.1110 H   0  0  0  0  0  0  0  0  0  0  0  0
   36.5730   26.1620   43.1960 H   0  0  0  0  0  0  0  0  0  0  0  0
   38.0970   30.3940   38.5490 Cl  0  0  0  0  0  0  0  0  0  0  0  0
   36.4530   29.7550   38.4680 C   0  0  0  0  0  0  0  0  0  0  0  0
   35.7040   29.6770   39.6020 C   0  0  0  0  0  0  0  0  0  0  0  0
   34.4240   29.1690   39.4850 C   0  0  0  0  0  0  0  0  0  0  0  0
   33.8060   29.0960   40.3770 H   0  0  0  0  0  0  0  0  0  0  0  0
   33.9400   28.7650   38.2610 C   0  0  0  0  0  0  0  0  0  0  0  0
   32.9220   28.3620   38.1690 H   0  0  0  0  0  0  0  0  0  0  0  0
   34.7200   28.8500   37.1010 C   0  0  0  0  0  3  0  0  0  0  0  0
   35.9950   29.3580   37.2320 C   0  0  0  0  0  3  0  0  0  0  0  0
  1  2  2  0  0  0  0
  1  7  1  0  0  0  0
  3  9  1  0  0  0  0
  3  4  1  0  0  0  0
  4 10  1  0  0  0  0
  5 11  1  0  0  0  0
  5  4  2  0  0  0  0
  6  5  1  0  0  0  0
  7  6  2  0  0  0  0
  7  8  1  0  0  0  0
  8  3  2  0  0  0  0
 13 12  1  0  0  0  0
 13 14  1  0  0  0  0
 14  1  1  0  0  0  0
 15 14  2  0  0  0  0
 15 16  1  0  0  0  0
 17 15  1  0  0  0  0
 18 17  1  0  0  0  0
 19 20  1  0  0  0  0
 19 17  2  0  0  0  0
 20 13  2  0  0  0  0
M  END
>  <minimizedAffinity>
-4.61921167

$$$$

 OpenBabel03242513123D

 20 21  0  0  0  0  0  0  0  0999 V2000
   35.5050   29.1780   40.2320 C   0  0  0  0  0  0  0  0  0  0  0  0
   34.2670   29.2140   40.0380 O   0  0  0  0  0  0  0  0  0  0  0  0
   36.9790   27.0370   42.7720 C   0  0  0  0  0  0  0  0  0  0  0  0
   37.4070   25.8970   42.0840 C   0  0  0  0  0  0  0  0  0  0  0  0
   37.1690   25.8940   40.7060 C   0  0  0  0  0  0  0  0  0  0  0  0
   36.5490   26.9640   40.1110 N   0  0  0  0  0  0  0  0  0  0  0  0
   36.1620   28.0330   40.8350 C   0  0  0  0  0  0  0  0  0  0  0  0
   36.3830   28.0550   42.1600 N   0  0  0  0  0  0  0  0  0  0  0  0
   37.1240   27.1270   43.8490 H   0  0  0  0  0  0  0  0  0  0  0  0
   37.8850   25.0950   42.6000 H   0  0  0  0  0  0  0  0  0  0  0  0
   37.4840   25.0230   40.1140 H   0  0  0  0  0  0  0  0  0  0  0  0
   36.1810   29.2430   37.3500 Cl  0  0  0  0  0  0  0  0  0  0  0  0
   36.6440   30.4830   38.5190 C   0  0  0  0  0  0  0  0  0  0  0  0
   36.2780   30.3490   39.8230 C   0  0  0  0  0  0  0  0  0  0  0  0
   36.6650   31.3470   40.6980 C   0  0  0  0  0  0  0  0  0  0  0  0
   36.3840   31.2630   41.7450 H   0  0  0  0  0  0  0  0  0  0  0  0
   37.3930   32.4260   40.2500 C   0  0  0  0  0  0  0  0  0  0  0  0
   37.7010   33.2190   40.9480 H   0  0  0  0  0  0  0  0  0  0  0  0
   37.7650   32.5530   38.9070 C   0  0  0  0  0  3  0  0  0  0  0  0
   37.3720   31.5510   38.0450 C   0  0  0  0  0  3  0  0  0  0  0  0
  1  7  1  0  0  0  0
  2  1  2  0  0  0  0
  3  9  1  0  0  0  0
  4 10  1  0  0  0  0
  4  3  2  0  0  0  0
  5  4  1  0  0  0  0
  6  5  2  0  0  0  0
  6  7  1  0  0  0  0
  7  8  2  0  0  0  0
  8  3  1  0  0  0  0
 11  5  1  0  0  0  0
 12 13  1  0  0  0  0
 13 14  1  0  0  0  0
 14  1  1  0  0  0  0
 14 15  2  0  0  0  0
 15 16  1  0  0  0  0
 17 15  1  0  0  0  0
 17 18  1  0  0  0  0
 19 17  2  0  0  0  0
 20 13  2  0  0  0  0
 20 19  1  0  0  0  0
M  END
>  <minimizedAffinity>
-4.61561918

$$$$

 OpenBabel03242513123D

 20 21  0  0  0  0  0  0  0  0999 V2000
   36.8030   27.4130   42.5520 C   0  0  0  0  0  0  0  0  0  0  0  0
   36.2560   27.4020   43.6800 O   0  0  0  0  0  0  0  0  0  0  0  0
   37.9550   30.4430   40.9090 C   0  0  0  0  0  0  0  0  0  0  0  0
   36.8890   30.8480   40.1010 C   0  0  0  0  0  0  0  0  0  0  0  0
   35.7510   30.0350   40.1440 C   0  0  0  0  0  0  0  0  0  0  0  0
   35.7310   28.9190   40.9430 N   0  0  0  0  0  0  0  0  0  0  0  0
   36.7970   28.5860   41.6980 C   0  0  0  0  0  0  0  0  0  0  0  0
   37.8980   29.3550   41.6710 N   0  0  0  0  0  0  0  0  0  0  0  0
   38.8820   31.0160   40.9400 H   0  0  0  0  0  0  0  0  0  0  0  0
   36.9610   31.7270   39.5000 H   0  0  0  0  0  0  0  0  0  0  0  0
   34.8810   30.3040   39.5290 H   0  0  0  0  0  0  0  0  0  0  0  0
   39.5120   27.0150   43.6800 Cl  0  0  0  0  0  0  0  0  0  0  0  0
   38.7090   25.8950   42.5760 C   0  0  0  0  0  0  0  0  0  0  0  0
   37.4590   26.1810   42.1180 C   0  0  0  0  0  0  0  0  0  0  0  0
   36.8740   25.2710   41.2570 C   0  0  0  0  0  0  0  0  0  0  0  0
   35.8760   25.4770   40.8780 H   0  0  0  0  0  0  0  0  0  0  0  0
   37.5450   24.1280   40.8850 C   0  0  0  0  0  0  0  0  0  0  0  0
   37.0790   23.4060   40.1990 H   0  0  0  0  0  0  0  0  0  0  0  0
   38.8310   23.8450   41.3620 C   0  0  0  0  0  3  0  0  0  0  0  0
   39.4020   24.7600   42.2210 C   0  0  0  0  0  3  0  0  0  0  0  0
  1  2  2  0  0  0  0
  3  9  1  0  0  0  0
  3  8  1  0  0  0  0
  4  5  1  0  0  0  0
  4  3  2  0  0  0  0
  5  6  2  0  0  0  0
  6  7  1  0  0  0  0
  7  1  1  0  0  0  0
  8  7  2  0  0  0  0
 10  4  1  0  0  0  0
 11  5  1  0  0  0  0
 13 12  1  0  0  0  0
 14  1  1  0  0  0  0
 14 13  2  0  0  0  0
 15 14  1  0  0  0  0
 16 15  1  0  0  0  0
 17 15  2  0  0  0  0
 17 19  1  0  0  0  0
 18 17  1  0  0  0  0
 19 20  2  0  0  0  0
 20 13  1  0  0  0  0
M  END
>  <minimizedAffinity>
-4.53373194

$$$$

 OpenBabel03242513123D

 20 21  0  0  0  0  0  0  0  0999 V2000
   38.8430   29.8250   40.4020 C   0  0  0  0  0  0  0  0  0  0  0  0
   39.6890   29.3420   39.6120 O   0  0  0  0  0  0  0  0  0  0  0  0
   36.9460   27.1070   41.8920 C   0  0  0  0  0  0  0  0  0  0  0  0
   36.8710   27.4170   43.2530 C   0  0  0  0  0  0  0  0  0  0  0  0
   37.5010   28.6050   43.6400 C   0  0  0  0  0  0  0  0  0  0  0  0
   38.1410   29.3820   42.7080 N   0  0  0  0  0  0  0  0  0  0  0  0
   38.1750   29.0220   41.4090 C   0  0  0  0  0  0  0  0  0  0  0  0
   37.5750   27.8860   41.0170 N   0  0  0  0  0  0  0  0  0  0  0  0
   36.4840   26.2010   41.4980 H   0  0  0  0  0  0  0  0  0  0  0  0
   36.3590   26.7740   43.9320 H   0  0  0  0  0  0  0  0  0  0  0  0
   37.4750   28.9000   44.6990 H   0  0  0  0  0  0  0  0  0  0  0  0
   36.6050   30.4400   38.5640 Cl  0  0  0  0  0  0  0  0  0  0  0  0
   37.5380   31.6490   39.4510 C   0  0  0  0  0  0  0  0  0  0  0  0
   38.5490   31.2510   40.2700 C   0  0  0  0  0  0  0  0  0  0  0  0
   39.2480   32.2360   40.9430 C   0  0  0  0  0  0  0  0  0  0  0  0
   40.0600   31.9430   41.6030 H   0  0  0  0  0  0  0  0  0  0  0  0
   38.9220   33.5630   40.7760 C   0  0  0  0  0  0  0  0  0  0  0  0
   39.4790   34.3460   41.3100 H   0  0  0  0  0  0  0  0  0  0  0  0
   37.8800   33.9600   39.9290 C   0  0  0  0  0  3  0  0  0  0  0  0
   37.1910   32.9680   39.2650 C   0  0  0  0  0  3  0  0  0  0  0  0
  1  7  1  0  0  0  0
  2  1  2  0  0  0  0
  3  4  1  0  0  0  0
  4  5  2  0  0  0  0
  4 10  1  0  0  0  0
  5 11  1  0  0  0  0
  6  5  1  0  0  0  0
  7  6  2  0  0  0  0
  8  7  1  0  0  0  0
  8  3  2  0  0  0  0
  9  3  1  0  0  0  0
 12 13  1  0  0  0  0
 13 14  1  0  0  0  0
 14  1  1  0  0  0  0
 14 15  2  0  0  0  0
 15 16  1  0  0  0  0
 17 15  1  0  0  0  0
 17 18  1  0  0  0  0
 19 17  2  0  0  0  0
 20 13  2  0  0  0  0
 20 19  1  0  0  0  0
M  END
>  <minimizedAffinity>
-4.423388

$$$$

 OpenBabel03242513123D

 20 21  0  0  0  0  0  0  0  0999 V2000
   38.2700   29.6570   40.0970 C   0  0  0  0  0  0  0  0  0  0  0  0
   38.3730   29.0070   39.0300 O   0  0  0  0  0  0  0  0  0  0  0  0
   37.2360   33.1090   39.6210 C   0  0  0  0  0  0  0  0  0  0  0  0
   38.2820   33.8780   40.1390 C   0  0  0  0  0  0  0  0  0  0  0  0
   39.3640   33.1600   40.6590 C   0  0  0  0  0  0  0  0  0  0  0  0
   39.3520   31.7870   40.6430 N   0  0  0  0  0  0  0  0  0  0  0  0
   38.3080   31.1080   40.1270 C   0  0  0  0  0  0  0  0  0  0  0  0
   37.2610   31.7800   39.6220 N   0  0  0  0  0  0  0  0  0  0  0  0
   36.3510   33.5830   39.1940 H   0  0  0  0  0  0  0  0  0  0  0  0
   38.2360   34.9430   40.1240 H   0  0  0  0  0  0  0  0  0  0  0  0
   40.2160   33.7120   41.0800 H   0  0  0  0  0  0  0  0  0  0  0  0
   35.4710   28.9030   40.6990 Cl  0  0  0  0  0  0  0  0  0  0  0  0
   36.8610   28.4900   41.7050 C   0  0  0  0  0  0  0  0  0  0  0  0
   38.1070   28.8910   41.3300 C   0  0  0  0  0  0  0  0  0  0  0  0
   39.1620   28.5420   42.1530 C   0  0  0  0  0  0  0  0  0  0  0  0
   40.1660   28.8500   41.8740 H   0  0  0  0  0  0  0  0  0  0  0  0
   38.9420   27.8180   43.3030 C   0  0  0  0  0  0  0  0  0  0  0  0
   39.7820   27.5420   43.9570 H   0  0  0  0  0  0  0  0  0  0  0  0
   37.6560   27.4120   43.6790 C   0  0  0  0  0  3  0  0  0  0  0  0
   36.6130   27.7660   42.8500 C   0  0  0  0  0  3  0  0  0  0  0  0
  1  7  1  0  0  0  0
  1 14  1  0  0  0  0
  2  1  2  0  0  0  0
  3  8  2  0  0  0  0
  3  4  1  0  0  0  0
  4  5  2  0  0  0  0
  5 11  1  0  0  0  0
  6  5  1  0  0  0  0
  7  6  2  0  0  0  0
  8  7  1  0  0  0  0
  9  3  1  0  0  0  0
 10  4  1  0  0  0  0
 12 13  1  0  0  0  0
 13 20  1  0  0  0  0
 14 13  2  0  0  0  0
 14 15  1  0  0  0  0
 15 17  2  0  0  0  0
 16 15  1  0  0  0  0
 17 19  1  0  0  0  0
 17 18  1  0  0  0  0
 20 19  2  0  0  0  0
M  END
>  <minimizedAffinity>
-4.41721249

$$$$

 OpenBabel03242513123D

 20 21  0  0  0  0  0  0  0  0999 V2000
   36.1800   29.5200   40.8150 C   0  0  0  0  0  0  0  0  0  0  0  0
   35.0170   29.6760   40.3750 O   0  0  0  0  0  0  0  0  0  0  0  0
   37.6780   32.7770   40.2130 C   0  0  0  0  0  0  0  0  0  0  0  0
   38.9430   32.7110   40.8050 C   0  0  0  0  0  0  0  0  0  0  0  0
   39.2630   31.4970   41.4220 C   0  0  0  0  0  0  0  0  0  0  0  0
   38.3590   30.4640   41.4210 N   0  0  0  0  0  0  0  0  0  0  0  0
   37.1550   30.5960   40.8310 C   0  0  0  0  0  0  0  0  0  0  0  0
   36.8290   31.7540   40.2330 N   0  0  0  0  0  0  0  0  0  0  0  0
   37.3420   33.6830   39.7090 H   0  0  0  0  0  0  0  0  0  0  0  0
   39.6040   33.5470   40.7740 H   0  0  0  0  0  0  0  0  0  0  0  0
   40.2440   31.3880   41.9040 H   0  0  0  0  0  0  0  0  0  0  0  0
   36.9240   27.5740   38.7120 Cl  0  0  0  0  0  0  0  0  0  0  0  0
   36.8870   27.2190   40.4410 C   0  0  0  0  0  0  0  0  0  0  0  0
   36.5280   28.1940   41.3200 C   0  0  0  0  0  0  0  0  0  0  0  0
   36.5150   27.8650   42.6630 C   0  0  0  0  0  0  0  0  0  0  0  0
   36.2320   28.6270   43.3850 H   0  0  0  0  0  0  0  0  0  0  0  0
   36.8530   26.5960   43.0760 C   0  0  0  0  0  0  0  0  0  0  0  0
   36.8420   26.3360   44.1450 H   0  0  0  0  0  0  0  0  0  0  0  0
   37.2200   25.6020   42.1620 C   0  0  0  0  0  3  0  0  0  0  0  0
   37.2290   25.9420   40.8260 C   0  0  0  0  0  3  0  0  0  0  0  0
  1  7  1  0  0  0  0
  1 14  1  0  0  0  0
  2  1  2  0  0  0  0
  3  8  2  0  0  0  0
  3  4  1  0  0  0  0
  4  5  2  0  0  0  0
  5 11  1  0  0  0  0
  6  5  1  0  0  0  0
  7  6  2  0  0  0  0
  8  7  1  0  0  0  0
  9  3  1  0  0  0  0
 10  4  1  0  0  0  0
 12 13  1  0  0  0  0
 13 20  2  0  0  0  0
 13 14  1  0  0  0  0
 14 15  2  0  0  0  0
 15 17  1  0  0  0  0
 15 16  1  0  0  0  0
 17 18  1  0  0  0  0
 19 17  2  0  0  0  0
 20 19  1  0  0  0  0
M  END
>  <minimizedAffinity>
-4.37828112

$$$$

 OpenBabel03242513123D

 20 21  0  0  0  0  0  0  0  0999 V2000
   36.9730   27.3730   42.6760 C   0  0  0  0  0  0  0  0  0  0  0  0
   36.2220   27.3650   43.6800 O   0  0  0  0  0  0  0  0  0  0  0  0
   35.2790   29.1240   39.9800 C   0  0  0  0  0  0  0  0  0  0  0  0
   35.5050   28.3470   38.8400 C   0  0  0  0  0  0  0  0  0  0  0  0
   36.2660   27.1890   39.0360 C   0  0  0  0  0  0  0  0  0  0  0  0
   36.7410   26.8800   40.2870 N   0  0  0  0  0  0  0  0  0  0  0  0
   36.4850   27.6760   41.3440 C   0  0  0  0  0  0  0  0  0  0  0  0
   35.7550   28.7910   41.1750 N   0  0  0  0  0  0  0  0  0  0  0  0
   34.6950   30.0440   39.9230 H   0  0  0  0  0  0  0  0  0  0  0  0
   35.1100   28.6370   37.8930 H   0  0  0  0  0  0  0  0  0  0  0  0
   36.4770   26.5390   38.1760 H   0  0  0  0  0  0  0  0  0  0  0  0
   38.7050   29.7490   43.0250 Cl  0  0  0  0  0  0  0  0  0  0  0  0
   39.2710   28.0780   43.0720 C   0  0  0  0  0  0  0  0  0  0  0  0
   38.3840   27.0610   42.8980 C   0  0  0  0  0  0  0  0  0  0  0  0
   38.8780   25.7700   42.9440 C   0  0  0  0  0  0  0  0  0  0  0  0
   38.1880   24.9410   42.8080 H   0  0  0  0  0  0  0  0  0  0  0  0
   40.2190   25.5420   43.1570 C   0  0  0  0  0  0  0  0  0  0  0  0
   40.6110   24.5150   43.1920 H   0  0  0  0  0  0  0  0  0  0  0  0
   41.1230   26.5960   43.3340 C   0  0  0  0  0  3  0  0  0  0  0  0
   40.6170   27.8780   43.2860 C   0  0  0  0  0  3  0  0  0  0  0  0
  1 14  1  0  0  0  0
  1  2  2  0  0  0  0
  3  8  1  0  0  0  0
  4  5  1  0  0  0  0
  4  3  2  0  0  0  0
  5  6  2  0  0  0  0
  6  7  1  0  0  0  0
  7  1  1  0  0  0  0
  8  7  2  0  0  0  0
  9  3  1  0  0  0  0
 10  4  1  0  0  0  0
 11  5  1  0  0  0  0
 12 13  1  0  0  0  0
 13 20  1  0  0  0  0
 14 15  1  0  0  0  0
 14 13  2  0  0  0  0
 15 17  2  0  0  0  0
 16 15  1  0  0  0  0
 17 18  1  0  0  0  0
 17 19  1  0  0  0  0
 20 19  2  0  0  0  0
M  END
>  <minimizedAffinity>
-4.34553957

$$$$
