
 OpenBabel03252508493D

 28 30  0  0  0  0  0  0  0  0999 V2000
   45.9500   34.1850   41.0600 C   0  0  0  0  0  0  0  0  0  0  0  0
   46.5320   34.8030   42.1590 C   0  0  0  0  0  0  0  0  0  0  0  0
   47.8840   35.1590   42.0310 C   0  0  0  0  0  0  0  0  0  0  0  0
   48.5240   34.8780   40.8570 N   0  0  0  0  0  0  0  0  0  0  0  0
   47.9160   34.2830   39.8380 C   0  0  0  0  0  0  0  0  0  0  0  0
   46.6250   33.9260   39.9180 N   0  0  0  0  0  0  0  0  0  0  0  0
   48.3520   35.6450   42.8860 H   0  0  0  0  0  0  0  0  0  0  0  0
   48.4770   34.0860   38.9330 H   0  0  0  0  0  0  0  0  0  0  0  0
   45.7520   35.0510   43.3530 C   0  0  0  0  0  0  0  0  0  0  0  0
   45.0350   36.2120   43.5570 C   0  0  0  0  0  0  0  0  0  0  0  0
   44.4590   36.0280   44.7910 C   0  0  0  0  0  0  0  0  0  0  0  0
   44.8030   34.8240   45.3150 N   0  0  0  0  0  0  0  0  0  0  0  0
   45.5840   34.2590   44.4230 N   0  0  0  0  0  0  0  0  0  0  0  0
   44.9290   37.0860   42.9110 H   0  0  0  0  0  0  0  0  0  0  0  0
   43.8130   36.7150   45.3180 H   0  0  0  0  0  0  0  0  0  0  0  0
   44.5560   34.3640   46.2120 H   0  0  0  0  0  0  0  0  0  0  0  0
   44.6150   33.8180   41.1460 O   0  0  0  0  0  0  0  0  0  0  0  0
   43.5580   34.4130   40.5140 C   0  0  0  0  0  0  0  0  0  0  0  0
   43.2590   35.6620   40.4900 O   0  0  0  0  0  0  0  0  0  0  0  0
   40.6980   34.4470   41.5280 Cl  0  0  0  0  0  0  0  0  0  0  0  0
   41.2010   33.5670   40.0750 C   0  0  0  0  0  0  0  0  0  0  0  0
   42.5540   33.6420   39.7260 C   0  0  0  0  0  0  0  0  0  0  0  0
   42.8350   32.9270   38.5870 C   0  0  0  0  0  0  0  0  0  0  0  0
   43.8640   32.9220   38.2310 H   0  0  0  0  0  0  0  0  0  0  0  0
   41.9260   32.2180   37.8590 C   0  0  0  0  0  0  0  0  0  0  0  0
   42.2300   31.6830   36.9750 H   0  0  0  0  0  0  0  0  0  0  0  0
   40.6200   32.2060   38.2830 C   0  0  0  0  0  3  0  0  0  0  0  0
   40.2300   32.8880   39.4120 C   0  0  0  0  0  3  0  0  0  0  0  0
  1 17  1  0  0  0  0
  1  2  1  0  0  0  0
  2  9  1  0  0  0  0
  3  2  2  0  0  0  0
  3  7  1  0  0  0  0
  4  3  1  0  0  0  0
  5  6  1  0  0  0  0
  5  4  2  0  0  0  0
  6  1  2  0  0  0  0
  8  5  1  0  0  0  0
  9 10  1  0  0  0  0
  9 13  2  0  0  0  0
 10 11  2  0  0  0  0
 11 12  1  0  0  0  0
 11 15  1  0  0  0  0
 12 16  1  0  0  0  0
 13 12  1  0  0  0  0
 14 10  1  0  0  0  0
 18 17  1  0  0  0  0
 19 18  2  0  0  0  0
 21 20  1  0  0  0  0
 22 21  1  0  0  0  0
 22 18  1  0  0  0  0
 23 22  2  0  0  0  0
 24 23  1  0  0  0  0
 25 27  2  0  0  0  0
 25 23  1  0  0  0  0
 26 25  1  0  0  0  0
 27 28  1  0  0  0  0
 28 21  2  0  0  0  0
M  END
>  <minimizedAffinity>
-5.45171022

>  <minimizedRMSD>
0.368073612

$$$$
