
 OpenBabel03252508493D

 28 30  0  0  0  0  0  0  0  0999 V2000
   46.0260   34.1740   41.0620 C   0  0  0  0  0  0  0  0  0  0  0  0
   46.5740   34.7470   42.2040 C   0  0  0  0  0  0  0  0  0  0  0  0
   47.9170   35.1490   42.1150 C   0  0  0  0  0  0  0  0  0  0  0  0
   48.5810   34.9540   40.9370 N   0  0  0  0  0  0  0  0  0  0  0  0
   48.0040   34.4000   39.8770 C   0  0  0  0  0  0  0  0  0  0  0  0
   46.7240   34.0010   39.9180 N   0  0  0  0  0  0  0  0  0  0  0  0
   48.3590   35.5990   43.0040 H   0  0  0  0  0  0  0  0  0  0  0  0
   48.5820   34.2710   38.9710 H   0  0  0  0  0  0  0  0  0  0  0  0
   45.7720   34.9030   43.3970 C   0  0  0  0  0  0  0  0  0  0  0  0
   45.0970   36.0660   43.7040 C   0  0  0  0  0  0  0  0  0  0  0  0
   44.4800   35.7800   44.8990 C   0  0  0  0  0  0  0  0  0  0  0  0
   44.7600   34.5150   45.3020 N   0  0  0  0  0  0  0  0  0  0  0  0
   45.5410   34.0120   44.3750 N   0  0  0  0  0  0  0  0  0  0  0  0
   45.0450   37.0060   43.1520 H   0  0  0  0  0  0  0  0  0  0  0  0
   43.8480   36.4370   45.4800 H   0  0  0  0  0  0  0  0  0  0  0  0
   44.4690   33.9760   46.1400 H   0  0  0  0  0  0  0  0  0  0  0  0
   44.7020   33.7640   41.1080 O   0  0  0  0  0  0  0  0  0  0  0  0
   43.6140   34.4510   40.6460 C   0  0  0  0  0  0  0  0  0  0  0  0
   43.4170   35.7200   40.6680 O   0  0  0  0  0  0  0  0  0  0  0  0
   44.0270   33.2650   37.8830 Cl  0  0  0  0  0  0  0  0  0  0  0  0
   42.4860   33.1840   38.7520 C   0  0  0  0  0  0  0  0  0  0  0  0
   42.4410   33.7740   40.0190 C   0  0  0  0  0  0  0  0  0  0  0  0
   41.2030   33.6550   40.6030 C   0  0  0  0  0  0  0  0  0  0  0  0
   41.0650   34.0830   41.5940 H   0  0  0  0  0  0  0  0  0  0  0  0
   40.1240   33.0400   40.0410 C   0  0  0  0  0  0  0  0  0  0  0  0
   39.1860   32.9900   40.5670 H   0  0  0  0  0  0  0  0  0  0  0  0
   40.2680   32.4910   38.7900 C   0  0  0  0  0  3  0  0  0  0  0  0
   41.4640   32.5540   38.1170 C   0  0  0  0  0  3  0  0  0  0  0  0
  1 17  1  0  0  0  0
  1  2  1  0  0  0  0
  2  9  1  0  0  0  0
  3  2  2  0  0  0  0
  3  7  1  0  0  0  0
  4  3  1  0  0  0  0
  5  6  1  0  0  0  0
  5  4  2  0  0  0  0
  6  1  2  0  0  0  0
  8  5  1  0  0  0  0
  9 10  1  0  0  0  0
  9 13  2  0  0  0  0
 10 11  2  0  0  0  0
 11 12  1  0  0  0  0
 11 15  1  0  0  0  0
 12 16  1  0  0  0  0
 13 12  1  0  0  0  0
 14 10  1  0  0  0  0
 18 19  2  0  0  0  0
 18 17  1  0  0  0  0
 20 21  1  0  0  0  0
 21 22  1  0  0  0  0
 22 23  2  0  0  0  0
 22 18  1  0  0  0  0
 23 24  1  0  0  0  0
 25 26  1  0  0  0  0
 25 23  1  0  0  0  0
 27 25  2  0  0  0  0
 28 21  2  0  0  0  0
 28 27  1  0  0  0  0
M  END
>  <minimizedAffinity>
-5.35375643

>  <minimizedRMSD>
0.888521135

$$$$
