
 OpenBabel03242516593D

 32 34  0  0  0  0  0  0  0  0999 V2000
   46.4830   34.7190   42.0250 C   0  0  0  0  0  0  0  0  0  0  0  0
   47.8300   35.0810   41.9570 C   0  0  0  0  0  0  0  0  0  0  0  0
   48.5190   34.8460   40.7780 C   0  0  0  0  0  0  0  0  0  0  0  0
   47.8840   34.2740   39.7130 C   0  0  0  0  0  0  0  0  0  0  0  0
   46.5550   33.9020   39.7430 C   0  0  0  0  0  0  0  0  0  0  0  0
   45.8920   34.1540   40.9460 C   0  0  0  0  0  0  0  0  0  0  0  0
   48.3250   35.5370   42.8160 H   0  0  0  0  0  0  0  0  0  0  0  0
   49.5670   35.1080   40.6740 H   0  0  0  0  0  0  0  0  0  0  0  0
   48.3990   34.0750   38.7670 H   0  0  0  0  0  0  0  0  0  0  0  0
   45.9960   33.4470   38.9370 H   0  0  0  0  0  0  0  0  0  0  0  0
   44.4750   36.2690   44.8200 C   0  0  0  0  0  0  0  0  0  0  0  0
   45.0850   36.1260   43.5580 C   0  0  0  0  0  0  0  0  0  0  0  0
   45.8080   34.9870   43.2800 C   0  0  0  0  0  0  0  0  0  0  0  0
   45.8910   34.0410   44.2730 N   0  0  0  0  0  0  0  0  0  0  0  0
   45.3050   34.1850   45.4780 C   0  0  0  0  0  0  0  0  0  0  0  0
   44.5950   35.3020   45.7530 N   0  0  0  0  0  0  0  0  0  0  0  0
   43.9240   37.1850   44.9700 H   0  0  0  0  0  0  0  0  0  0  0  0
   45.0150   36.8720   42.7860 H   0  0  0  0  0  0  0  0  0  0  0  0
   45.3920   33.4220   46.2360 H   0  0  0  0  0  0  0  0  0  0  0  0
   43.2790   34.3430   40.6380 C   0  0  0  0  0  0  0  0  0  0  0  0
   43.1340   35.3170   39.8980 O   0  0  0  0  0  0  0  0  0  0  0  0
   44.5210   33.8210   41.1110 N   0  0  0  0  0  0  0  0  0  0  0  0
   44.5900   32.9780   41.7520 H   0  0  0  0  0  0  0  0  0  0  0  0
   40.5420   35.6820   40.8590 Cl  0  0  0  0  0  0  0  0  0  0  0  0
   40.8110   34.0280   41.2920 C   0  0  0  0  0  0  0  0  0  0  0  0
   42.1060   33.5830   41.1290 C   0  0  0  0  0  0  0  0  0  0  0  0
   42.4270   32.2650   41.4500 C   0  0  0  0  0  0  0  0  0  0  0  0
   43.4330   31.8310   41.3500 H   0  0  0  0  0  0  0  0  0  0  0  0
   41.4740   31.3890   41.9280 C   0  0  0  0  0  0  0  0  0  0  0  0
   41.7230   30.3530   42.1810 H   0  0  0  0  0  0  0  0  0  0  0  0
   40.1590   31.8250   42.0970 C   0  0  0  0  0  0  0  0  0  0  0  0
   39.8650   33.1500   41.7690 C   0  0  0  0  0  0  0  0  0  0  0  0
  1 13  1  0  0  0  0
  2  1  1  0  0  0  0
  2  7  1  0  0  0  0
  3  2  2  0  0  0  0
  4  5  2  0  0  0  0
  4  3  1  0  0  0  0
  5  6  1  0  0  0  0
  6 22  1  0  0  0  0
  6  1  2  0  0  0  0
  8  3  1  0  0  0  0
  9  4  1  0  0  0  0
 10  5  1  0  0  0  0
 11 17  1  0  0  0  0
 11 16  1  0  0  0  0
 12 11  2  0  0  0  0
 13 12  1  0  0  0  0
 13 14  2  0  0  0  0
 14 15  1  0  0  0  0
 15 16  2  0  0  0  0
 15 19  1  0  0  0  0
 18 12  1  0  0  0  0
 20 22  1  0  0  0  0
 20 26  1  0  0  0  0
 21 20  2  0  0  0  0
 22 23  1  0  0  0  0
 24 25  1  0  0  0  0
 25 32  1  0  0  0  0
 26 25  2  0  0  0  0
 26 27  1  0  0  0  0
 27 29  2  0  0  0  0
 28 27  1  0  0  0  0
 29 31  1  0  0  0  0
 29 30  1  0  0  0  0
 32 31  2  0  0  0  0
M  END
>  <minimizedAffinity>
-6.637393

>  <minimizedRMSD>
1.08048332

$$$$
