
 OpenBabel03252508493D

 28 30  0  0  0  0  0  0  0  0999 V2000
   45.8670   34.1950   41.0550 C   0  0  0  0  0  0  0  0  0  0  0  0
   46.4810   34.7810   42.1550 C   0  0  0  0  0  0  0  0  0  0  0  0
   47.8460   35.0830   42.0190 C   0  0  0  0  0  0  0  0  0  0  0  0
   48.4650   34.7860   40.8380 N   0  0  0  0  0  0  0  0  0  0  0  0
   47.8260   34.2230   39.8190 C   0  0  0  0  0  0  0  0  0  0  0  0
   46.5230   33.9180   39.9060 N   0  0  0  0  0  0  0  0  0  0  0  0
   48.3390   35.5440   42.8740 H   0  0  0  0  0  0  0  0  0  0  0  0
   48.3720   34.0110   38.9090 H   0  0  0  0  0  0  0  0  0  0  0  0
   45.7200   35.0510   43.3560 C   0  0  0  0  0  0  0  0  0  0  0  0
   45.0590   36.2400   43.5770 C   0  0  0  0  0  0  0  0  0  0  0  0
   44.4830   36.0690   44.8140 C   0  0  0  0  0  0  0  0  0  0  0  0
   44.7740   34.8440   45.3220 N   0  0  0  0  0  0  0  0  0  0  0  0
   45.5230   34.2550   44.4180 N   0  0  0  0  0  0  0  0  0  0  0  0
   44.9890   37.1260   42.9430 H   0  0  0  0  0  0  0  0  0  0  0  0
   43.8720   36.7790   45.3530 H   0  0  0  0  0  0  0  0  0  0  0  0
   44.5120   34.3860   46.2150 H   0  0  0  0  0  0  0  0  0  0  0  0
   44.5190   33.8810   41.1490 O   0  0  0  0  0  0  0  0  0  0  0  0
   43.4770   34.5630   40.5840 C   0  0  0  0  0  0  0  0  0  0  0  0
   43.2700   35.8310   40.5930 O   0  0  0  0  0  0  0  0  0  0  0  0
   40.6750   34.8490   41.7150 Cl  0  0  0  0  0  0  0  0  0  0  0  0
   41.0380   33.9270   40.2470 C   0  0  0  0  0  0  0  0  0  0  0  0
   42.3760   33.8820   39.8430 C   0  0  0  0  0  0  0  0  0  0  0  0
   42.5460   33.1430   38.6960 C   0  0  0  0  0  0  0  0  0  0  0  0
   43.5550   33.0470   38.2990 H   0  0  0  0  0  0  0  0  0  0  0  0
   41.5500   32.5160   38.0100 C   0  0  0  0  0  0  0  0  0  0  0  0
   41.7680   31.9540   37.1180 H   0  0  0  0  0  0  0  0  0  0  0  0
   40.2660   32.6190   38.4890 C   0  0  0  0  0  3  0  0  0  0  0  0
   39.9850   33.3340   39.6280 C   0  0  0  0  0  3  0  0  0  0  0  0
  1 17  1  0  0  0  0
  1  2  1  0  0  0  0
  2  9  1  0  0  0  0
  3  2  2  0  0  0  0
  3  7  1  0  0  0  0
  4  3  1  0  0  0  0
  5  6  1  0  0  0  0
  5  4  2  0  0  0  0
  6  1  2  0  0  0  0
  8  5  1  0  0  0  0
  9 10  1  0  0  0  0
  9 13  2  0  0  0  0
 10 11  2  0  0  0  0
 11 12  1  0  0  0  0
 11 15  1  0  0  0  0
 12 16  1  0  0  0  0
 13 12  1  0  0  0  0
 14 10  1  0  0  0  0
 18 19  2  0  0  0  0
 18 17  1  0  0  0  0
 21 20  1  0  0  0  0
 22 21  1  0  0  0  0
 22 18  1  0  0  0  0
 23 22  2  0  0  0  0
 24 23  1  0  0  0  0
 25 27  2  0  0  0  0
 25 23  1  0  0  0  0
 26 25  1  0  0  0  0
 27 28  1  0  0  0  0
 28 21  2  0  0  0  0
M  END
>  <minimizedAffinity>
-5.53079224

>  <minimizedRMSD>
1.01868951

$$$$
