
 OpenBabel03242516163D

 43 46  0  0  1  0  0  0  0  0999 V2000
   47.4440   34.2590   41.9300 C   0  0  0  0  0  0  0  0  0  0  0  0
   48.2250   35.4610   41.4340 C   0  0  0  0  0  0  0  0  0  0  0  0
   48.8690   34.3110   42.0630 C   0  0  0  0  0  0  0  0  0  0  0  0
   48.3680   35.6230   40.3420 H   0  0  0  0  0  0  0  0  0  0  0  0
   47.9900   36.4190   41.9390 H   0  0  0  0  0  0  0  0  0  0  0  0
   49.4760   33.6530   41.3700 H   0  0  0  0  0  0  0  0  0  0  0  0
   49.5140   34.7030   42.8590 H   0  0  0  0  0  0  0  0  0  0  0  0
   46.8620   33.4460   40.8040 C   0  0  0  0  0  0  0  0  0  0  0  0
   47.4530   33.7240   39.4360 C   0  0  0  0  0  0  0  0  0  0  0  0
   46.7870   32.7250   38.4960 C   0  0  0  0  0  0  0  0  0  0  0  0
   45.4840   33.2130   38.2700 O   0  0  0  0  0  0  0  0  0  0  0  0
   44.8360   32.8990   39.4930 C   0  0  0  0  0  0  0  0  0  0  0  0
   45.3690   33.8130   40.5920 C   0  0  0  0  0  0  0  0  0  0  0  0
   46.8900   32.3570   40.9660 H   0  0  0  0  0  0  0  0  0  0  0  0
   48.5330   33.4700   39.3880 H   0  0  0  0  0  0  0  0  0  0  0  0
   47.2300   34.7390   39.0840 H   0  0  0  0  0  0  0  0  0  0  0  0
   47.3050   32.7380   37.5030 H   0  0  0  0  0  0  0  0  0  0  0  0
   46.7750   31.7310   38.9510 H   0  0  0  0  0  0  0  0  0  0  0  0
   45.0910   31.8590   39.7840 H   0  0  0  0  0  0  0  0  0  0  0  0
   43.7490   33.0290   39.4100 H   0  0  0  0  0  0  0  0  0  0  0  0
   45.2960   34.8760   40.2660 H   0  0  0  0  0  0  0  0  0  0  0  0
   44.7720   33.5970   41.4840 H   0  0  0  0  0  0  0  0  0  0  0  0
   45.8390   35.6670   43.2400 C   0  0  0  0  0  0  0  0  0  0  0  0
   46.5770   34.4830   43.1180 C   0  0  0  0  0  0  0  0  0  0  0  0
   46.4560   33.5520   44.1470 C   0  0  0  0  0  0  0  0  0  0  0  0
   45.6480   33.8190   45.2030 N   0  0  0  0  0  0  0  0  0  0  0  0
   44.9680   34.9720   45.2600 C   0  0  0  0  0  0  0  0  0  0  0  0
   45.0450   35.8830   44.3190 N   0  0  0  0  0  0  0  0  0  0  0  0
   44.1130   35.2880   46.3710 N   0  0  0  0  0  0  0  0  0  0  0  0
   45.9500   36.3680   42.4330 H   0  0  0  0  0  0  0  0  0  0  0  0
   43.2750   35.8760   46.2650 H   0  0  0  0  0  0  0  0  0  0  0  0
   44.3770   34.8970   47.3020 H   0  0  0  0  0  0  0  0  0  0  0  0
   47.1790   32.3070   44.1520 C   0  0  2  0  0  0  0  0  0  0  0  0
   47.6650   31.7180   45.2010 O   0  0  0  0  0  0  0  0  0  0  0  0
   45.0430   30.8350   42.8040 Cl  0  0  0  0  0  0  0  0  0  0  0  0
   46.7590   30.4480   42.5750 C   0  0  0  0  0  0  0  0  0  0  0  0
   47.6700   31.2650   43.2670 C   0  0  0  0  0  0  0  0  0  0  0  0
   48.9770   30.8990   43.0310 C   0  0  0  0  0  0  0  0  0  0  0  0
   49.7250   31.5170   43.5550 H   0  0  0  0  0  0  0  0  0  0  0  0
   49.3380   29.8510   42.2100 C   0  0  0  0  0  0  0  0  0  0  0  0
   50.4100   29.6550   42.1000 H   0  0  0  0  0  0  0  0  0  0  0  0
   48.3700   29.1280   41.5920 C   0  0  0  0  0  0  0  0  0  0  0  0
   47.0310   29.3870   41.7400 C   0  0  0  0  0  0  0  0  0  0  0  0
  1  3  1  0  0  0  0
  1 24  1  0  0  0  0
  2  1  1  0  0  0  0
  2  5  1  0  0  0  0
  2  3  1  0  0  0  0
  3  7  1  0  0  0  0
  4  2  1  0  0  0  0
  6  3  1  0  0  0  0
  8 14  1  0  0  0  0
  8  1  1  0  0  0  0
  9  8  1  0  0  0  0
 10 18  1  0  0  0  0
 10  9  1  0  0  0  0
 11 10  1  0  0  0  0
 11 12  1  0  0  0  0
 12 19  1  0  0  0  0
 12 13  1  0  0  0  0
 13  8  1  0  0  0  0
 13 22  1  0  0  0  0
 15  9  1  0  0  0  0
 16  9  1  0  0  0  0
 17 10  1  0  0  0  0
 20 12  1  0  0  0  0
 21 13  1  0  0  0  0
 23 28  1  0  0  0  0
 24 23  2  0  0  0  0
 24 25  1  0  0  0  0
 25 33  1  0  0  0  0
 25 26  2  0  0  0  0
 26 27  1  0  0  0  0
 27 29  1  0  0  0  0
 28 27  2  0  0  0  0
 29 32  1  0  0  0  0
 30 23  1  0  0  0  0
 31 29  1  0  0  0  0
 33 34  1  6  0  0  0
 36 35  1  0  0  0  0
 36 37  1  0  0  0  0
 37 33  1  0  0  0  0
 38 37  2  0  0  0  0
 38 39  1  0  0  0  0
 40 38  1  0  0  0  0
 41 40  1  0  0  0  0
 42 43  1  0  0  0  0
 42 40  2  0  0  0  0
 43 36  2  0  0  0  0
M  END
>  <minimizedAffinity>
-5.32924843

>  <minimizedRMSD>
1.96381879

$$$$
