
 OpenBabel03252507153D

 29 31  0  0  0  0  0  0  0  0999 V2000
   45.2420   36.1990   43.5140 C   0  0  0  0  0  0  0  0  0  0  0  0
   45.8540   34.9790   43.1530 C   0  0  0  0  0  0  0  0  0  0  0  0
   45.8090   33.9330   44.0670 C   0  0  0  0  0  0  0  0  0  0  0  0
   45.1980   34.1060   45.2470 N   0  0  0  0  0  0  0  0  0  0  0  0
   44.6050   35.3020   45.5850 C   0  0  0  0  0  0  0  0  0  0  0  0
   44.6420   36.3060   44.7210 N   0  0  0  0  0  0  0  0  0  0  0  0
   45.2830   37.0090   42.7910 H   0  0  0  0  0  0  0  0  0  0  0  0
   44.1390   35.3330   46.5620 H   0  0  0  0  0  0  0  0  0  0  0  0
   46.4390   32.6760   43.6960 C   0  0  0  0  0  0  0  0  0  0  0  0
   45.6680   31.6160   43.2760 C   0  0  0  0  0  0  0  0  0  0  0  0
   46.3030   30.4420   42.9350 C   0  0  0  0  0  0  0  0  0  0  0  0
   47.6850   30.2610   42.9910 C   0  0  0  0  0  0  0  0  0  0  0  0
   48.3930   31.3640   43.4230 C   0  0  0  0  0  0  0  0  0  0  0  0
   47.7590   32.5080   43.7530 N   0  0  0  0  0  0  0  0  0  0  0  0
   44.6030   31.6660   43.2010 H   0  0  0  0  0  0  0  0  0  0  0  0
   45.7090   29.5950   42.5990 H   0  0  0  0  0  0  0  0  0  0  0  0
   48.1800   29.3510   42.7280 H   0  0  0  0  0  0  0  0  0  0  0  0
   49.4860   31.3560   43.5120 H   0  0  0  0  0  0  0  0  0  0  0  0
   46.4840   34.8690   41.8850 C   0  0  0  0  0  0  0  0  0  0  0  0
   47.5970   35.4580   41.7160 O   0  0  0  0  0  0  0  0  0  0  0  0
   43.4970   34.6010   41.3730 Cl  0  0  0  0  0  0  0  0  0  0  0  0
   44.7210   33.9410   40.3140 C   0  0  0  0  0  0  0  0  0  0  0  0
   46.0290   34.1550   40.6970 C   0  0  0  0  0  0  0  0  0  0  0  0
   47.0580   33.6520   39.8940 C   0  0  0  0  0  0  0  0  0  0  0  0
   48.1100   33.7830   40.1360 H   0  0  0  0  0  0  0  0  0  0  0  0
   46.7550   32.9530   38.7370 C   0  0  0  0  0  0  0  0  0  0  0  0
   47.5670   32.5730   38.1310 H   0  0  0  0  0  0  0  0  0  0  0  0
   45.4270   32.7410   38.3560 C   0  0  0  0  0  0  0  0  0  0  0  0
   44.4200   33.2450   39.1610 C   0  0  0  0  0  0  0  0  0  0  0  0
  1  6  1  0  0  0  0
  2  1  2  0  0  0  0
  2  3  1  0  0  0  0
  3  4  2  0  0  0  0
  4  5  1  0  0  0  0
  5  8  1  0  0  0  0
  6  5  2  0  0  0  0
  7  1  1  0  0  0  0
  9 14  1  0  0  0  0
  9  3  1  0  0  0  0
 10  9  2  0  0  0  0
 11 12  2  0  0  0  0
 11 10  1  0  0  0  0
 12 13  1  0  0  0  0
 13 18  1  0  0  0  0
 13 14  2  0  0  0  0
 15 10  1  0  0  0  0
 16 11  1  0  0  0  0
 17 12  1  0  0  0  0
 19  2  1  0  0  0  0
 20 19  2  0  0  0  0
 22 23  1  0  0  0  0
 22 21  1  0  0  0  0
 23 19  1  0  0  0  0
 24 25  1  0  0  0  0
 24 23  2  0  0  0  0
 26 24  1  0  0  0  0
 27 26  1  0  0  0  0
 28 26  2  0  0  0  0
 28 29  1  0  0  0  0
 29 22  2  0  0  0  0
M  END
>  <minimizedAffinity>
-4.70506096

>  <minimizedRMSD>
0.288720101

$$$$
