
 OpenBabel03252508023D

 42 45  0  0  1  0  0  0  0  0999 V2000
   42.0780   33.2650   41.1070 C   0  0  0  0  0  0  0  0  0  0  0  0
   42.8060   34.4040   41.3100 C   0  0  0  0  0  0  0  0  0  0  0  0
   42.1170   35.6340   41.2900 C   0  0  0  0  0  0  0  0  0  0  0  0
   40.7620   35.7400   41.0780 C   0  0  0  0  0  0  0  0  0  0  0  0
   40.0420   34.5920   40.8770 C   0  0  0  0  0  0  0  0  0  0  0  0
   40.7030   33.3990   40.8960 C   0  0  0  0  0  0  0  0  0  0  0  0
   42.6060   36.5890   41.4310 H   0  0  0  0  0  0  0  0  0  0  0  0
   40.2490   36.6820   41.0650 H   0  0  0  0  0  0  0  0  0  0  0  0
   38.9760   34.5740   40.7040 H   0  0  0  0  0  0  0  0  0  0  0  0
   40.1200   32.4770   40.7330 H   0  0  0  0  0  0  0  0  0  0  0  0
   42.7590   31.7270   41.2000 S   0  0  0  0  0  0  0  0  0  0  0  0
   41.7150   30.9090   40.3740 O   0  0  0  0  0  0  0  0  0  0  0  0
   42.7560   31.1720   42.5750 O   0  0  0  0  0  0  0  0  0  0  0  0
   42.8240   32.6760   38.3040 Cl  0  0  0  0  0  0  0  0  0  0  0  0
   43.9840   31.4740   38.9110 C   0  0  0  0  0  0  0  0  0  0  0  0
   43.9450   30.9970   40.2530 C   0  0  0  0  0  0  0  0  0  0  0  0
   44.9580   30.0710   40.4640 C   0  0  0  0  0  0  0  0  0  0  0  0
   44.9370   29.7570   41.5240 H   0  0  0  0  0  0  0  0  0  0  0  0
   45.9350   29.5620   39.6430 C   0  0  0  0  0  0  0  0  0  0  0  0
   46.6240   28.8390   40.0270 H   0  0  0  0  0  0  0  0  0  0  0  0
   45.8140   30.1320   38.4060 C   0  0  0  0  0  3  0  0  0  0  0  0
   44.9030   31.0560   37.9820 C   0  0  0  0  0  3  0  0  0  0  0  0
   44.2370   34.4010   41.5430 C   0  0  0  0  0  0  0  0  0  0  0  0
   45.1120   34.3420   40.6290 O   0  0  0  0  0  0  0  0  0  0  0  0
   44.5840   34.4730   42.9420 C   0  0  0  0  0  0  0  0  0  0  0  0
   44.3050   35.7290   43.5850 C   0  0  0  0  0  0  0  0  0  0  0  0
   44.6250   35.8220   44.9280 C   0  0  0  0  0  0  0  0  0  0  0  0
   45.1740   34.7420   45.5410 N   0  0  0  0  0  0  0  0  0  0  0  0
   45.4200   33.5650   44.8800 C   0  0  0  0  0  0  0  0  0  0  0  0
   45.1240   33.4700   43.6290 N   0  0  0  0  0  0  0  0  0  0  0  0
   43.8840   36.6100   43.1790 H   0  0  0  0  0  0  0  0  0  0  0  0
   44.4550   36.7260   45.5070 H   0  0  0  0  0  0  0  0  0  0  0  0
   46.0100   32.4400   45.6320 C   0  0  1  0  0  0  0  0  0  0  0  0
   46.9670   32.7330   46.7640 C   0  0  0  0  0  0  0  0  0  0  0  0
   45.5500   32.3230   47.0360 C   0  0  1  0  0  0  0  0  0  0  0  0
   46.1300   31.4970   45.0750 H   0  0  0  0  0  0  0  0  0  0  0  0
   47.2980   33.7700   46.8840 H   0  0  0  0  0  0  0  0  0  0  0  0
   47.7160   31.9200   46.9470 H   0  0  0  0  0  0  0  0  0  0  0  0
   45.3300   31.3260   47.4410 H   0  0  0  0  0  0  0  0  0  0  0  0
   44.7730   33.3920   47.6410 N   0  0  0  0  0  0  0  0  0  0  0  0
   45.2340   33.8000   48.4640 H   0  0  0  0  0  0  0  0  0  0  0  0
   43.7710   33.1620   47.7390 H   0  0  0  0  0  0  0  0  0  0  0  0
  1 11  1  0  0  0  0
  1  2  1  0  0  0  0
  2 23  1  0  0  0  0
  3  2  2  0  0  0  0
  3  7  1  0  0  0  0
  4  3  1  0  0  0  0
  5  6  1  0  0  0  0
  5  4  2  0  0  0  0
  6  1  2  0  0  0  0
  8  4  1  0  0  0  0
  9  5  1  0  0  0  0
 10  6  1  0  0  0  0
 11 13  2  0  0  0  0
 12 11  2  0  0  0  0
 14 15  1  0  0  0  0
 15 16  1  0  0  0  0
 16 17  2  0  0  0  0
 16 11  1  0  0  0  0
 17 18  1  0  0  0  0
 19 20  1  0  0  0  0
 19 17  1  0  0  0  0
 21 19  2  0  0  0  0
 22 21  1  0  0  0  0
 22 15  2  0  0  0  0
 23 25  1  0  0  0  0
 24 23  2  0  0  0  0
 25 26  2  0  0  0  0
 25 30  1  0  0  0  0
 26 27  1  0  0  0  0
 27 32  1  0  0  0  0
 27 28  2  0  0  0  0
 29 28  1  0  0  0  0
 29 33  1  0  0  0  0
 30 29  2  0  0  0  0
 31 26  1  0  0  0  0
 33 36  1  6  0  0  0
 33 34  1  0  0  0  0
 33 35  1  0  0  0  0
 34 37  1  0  0  0  0
 34 38  1  0  0  0  0
 34 35  1  0  0  0  0
 35 39  1  1  0  0  0
 35 40  1  0  0  0  0
 40 42  1  0  0  0  0
 40 41  1  0  0  0  0
M  END
>  <minimizedAffinity>
-5.87769604

>  <minimizedRMSD>
1.21556914

$$$$
