
 OpenBabel03242523303D

 22 23  0  0  0  0  0  0  0  0999 V2000
   45.6830   33.1720   46.8270 C   0  0  0  0  0  0  0  0  0  0  0  0
   44.6660   32.9410   47.2520 H   0  0  0  0  0  0  0  0  0  0  0  0
   46.2780   33.6460   47.6350 H   0  0  0  0  0  0  0  0  0  0  0  0
   44.5570   35.8710   44.5570 C   0  0  0  0  0  0  0  0  0  0  0  0
   45.2640   35.6090   43.4040 C   0  0  0  0  0  0  0  0  0  0  0  0
   46.1090   34.5160   43.4250 C   0  0  0  0  0  0  0  0  0  0  0  0
   46.2250   33.7460   44.5380 N   0  0  0  0  0  0  0  0  0  0  0  0
   45.4940   34.0520   45.6610 C   0  0  0  0  0  0  0  0  0  0  0  0
   44.6830   35.1020   45.6460 N   0  0  0  0  0  0  0  0  0  0  0  0
   43.8440   36.6930   44.7170 H   0  0  0  0  0  0  0  0  0  0  0  0
   45.0900   36.2810   42.5980 H   0  0  0  0  0  0  0  0  0  0  0  0
   46.6630   34.3140   42.5180 H   0  0  0  0  0  0  0  0  0  0  0  0
   46.5190   31.6940   46.2640 S   0  0  0  0  0  0  0  0  0  0  0  0
   45.1050   29.7800   48.5330 Cl  0  0  0  0  0  0  0  0  0  0  0  0
   44.8840   29.3820   46.8570 C   0  0  0  0  0  0  0  0  0  0  0  0
   45.5340   30.2690   46.0340 C   0  0  0  0  0  0  0  0  0  0  0  0
   45.4250   30.0150   44.6560 C   0  0  0  0  0  0  0  0  0  0  0  0
   45.8360   30.5510   43.7870 H   0  0  0  0  0  0  0  0  0  0  0  0
   44.6930   28.9210   44.1760 C   0  0  0  0  0  0  0  0  0  0  0  0
   44.5430   28.6340   43.1530 H   0  0  0  0  0  0  0  0  0  0  0  0
   44.0620   28.0690   45.0620 C   0  0  0  0  0  3  0  0  0  0  0  0
   44.1580   28.3030   46.4160 C   0  0  0  0  0  3  0  0  0  0  0  0
  1  2  1  0  0  0  0
  1  3  1  0  0  0  0
  4 10  1  0  0  0  0
  4  9  1  0  0  0  0
  5  6  1  0  0  0  0
  5  4  2  0  0  0  0
  6  7  2  0  0  0  0
  7  8  1  0  0  0  0
  8  1  1  0  0  0  0
  9  8  2  0  0  0  0
 11  5  1  0  0  0  0
 12  6  1  0  0  0  0
 13  1  1  0  0  0  0
 15 14  1  0  0  0  0
 16 13  1  0  0  0  0
 16 15  2  0  0  0  0
 17 16  1  0  0  0  0
 18 17  1  0  0  0  0
 19 17  2  0  0  0  0
 19 21  1  0  0  0  0
 20 19  1  0  0  0  0
 21 22  2  0  0  0  0
 22 15  1  0  0  0  0
M  END
>  <minimizedAffinity>
-3.96463776

>  <minimizedRMSD>
1.60904455

$$$$
