
 OpenBabel03242523313D

 22 23  0  0  0  0  0  0  0  0999 V2000
   37.0470   31.0220   39.3960 C   0  0  0  0  0  0  0  0  0  0  0  0
   37.5710   30.1460   38.9200 H   0  0  0  0  0  0  0  0  0  0  0  0
   36.2040   31.3030   38.7300 H   0  0  0  0  0  0  0  0  0  0  0  0
   38.7560   34.1600   40.3670 C   0  0  0  0  0  0  0  0  0  0  0  0
   39.9900   34.0270   39.7700 C   0  0  0  0  0  0  0  0  0  0  0  0
   40.2140   32.8700   39.0490 C   0  0  0  0  0  0  0  0  0  0  0  0
   39.2500   31.9190   38.9410 N   0  0  0  0  0  0  0  0  0  0  0  0
   38.0340   32.1040   39.5560 C   0  0  0  0  0  0  0  0  0  0  0  0
   37.8170   33.2120   40.2510 N   0  0  0  0  0  0  0  0  0  0  0  0
   38.4080   35.0090   40.9730 H   0  0  0  0  0  0  0  0  0  0  0  0
   40.6620   34.8370   39.9240 H   0  0  0  0  0  0  0  0  0  0  0  0
   41.1850   32.7690   38.5830 H   0  0  0  0  0  0  0  0  0  0  0  0
   36.4120   30.6190   41.0180 S   0  0  0  0  0  0  0  0  0  0  0  0
   39.3460   30.8000   42.4930 Cl  0  0  0  0  0  0  0  0  0  0  0  0
   38.4660   29.3050   42.5770 C   0  0  0  0  0  0  0  0  0  0  0  0
   37.2660   29.3840   41.9140 C   0  0  0  0  0  0  0  0  0  0  0  0
   36.4900   28.2110   41.9140 C   0  0  0  0  0  0  0  0  0  0  0  0
   35.5080   27.9940   41.4700 H   0  0  0  0  0  0  0  0  0  0  0  0
   36.9350   27.0490   42.5580 C   0  0  0  0  0  0  0  0  0  0  0  0
   36.4300   26.1040   42.6210 H   0  0  0  0  0  0  0  0  0  0  0  0
   38.1540   27.0400   43.2060 C   0  0  0  0  0  3  0  0  0  0  0  0
   38.9280   28.1810   43.2160 C   0  0  0  0  0  3  0  0  0  0  0  0
  1  8  1  0  0  0  0
  1 13  1  0  0  0  0
  2  1  1  0  0  0  0
  3  1  1  0  0  0  0
  4 10  1  0  0  0  0
  5 11  1  0  0  0  0
  5  4  2  0  0  0  0
  6  5  1  0  0  0  0
  7  6  2  0  0  0  0
  7  8  1  0  0  0  0
  8  9  2  0  0  0  0
  9  4  1  0  0  0  0
 12  6  1  0  0  0  0
 13 16  1  0  0  0  0
 14 15  1  0  0  0  0
 15 22  1  0  0  0  0
 16 17  1  0  0  0  0
 16 15  2  0  0  0  0
 17 19  2  0  0  0  0
 18 17  1  0  0  0  0
 19 20  1  0  0  0  0
 19 21  1  0  0  0  0
 21 22  2  0  0  0  0
M  END
>  <minimizedAffinity>
-4.54372931

$$$$

 OpenBabel03242523313D

 22 23  0  0  0  0  0  0  0  0999 V2000
   37.2170   31.0280   39.4130 C   0  0  0  0  0  0  0  0  0  0  0  0
   37.7020   30.1240   38.9470 H   0  0  0  0  0  0  0  0  0  0  0  0
   36.3860   31.3380   38.7450 H   0  0  0  0  0  0  0  0  0  0  0  0
   40.3500   32.9860   39.1670 C   0  0  0  0  0  0  0  0  0  0  0  0
   40.0670   34.1010   39.9250 C   0  0  0  0  0  0  0  0  0  0  0  0
   38.8150   34.1600   40.5060 C   0  0  0  0  0  0  0  0  0  0  0  0
   37.9160   33.1580   40.3280 N   0  0  0  0  0  0  0  0  0  0  0  0
   38.2510   32.0670   39.5610 C   0  0  0  0  0  0  0  0  0  0  0  0
   39.4510   32.0070   39.0010 N   0  0  0  0  0  0  0  0  0  0  0  0
   41.2890   32.7740   38.6360 H   0  0  0  0  0  0  0  0  0  0  0  0
   40.8500   34.8180   39.9920 H   0  0  0  0  0  0  0  0  0  0  0  0
   38.5980   35.0380   41.1000 H   0  0  0  0  0  0  0  0  0  0  0  0
   36.5670   30.6700   41.0400 S   0  0  0  0  0  0  0  0  0  0  0  0
   39.4930   30.7300   42.5390 Cl  0  0  0  0  0  0  0  0  0  0  0  0
   38.5500   29.2730   42.6180 C   0  0  0  0  0  0  0  0  0  0  0  0
   37.3600   29.4020   41.9450 C   0  0  0  0  0  0  0  0  0  0  0  0
   36.5350   28.2620   41.9400 C   0  0  0  0  0  0  0  0  0  0  0  0
   35.5480   28.0860   41.4880 H   0  0  0  0  0  0  0  0  0  0  0  0
   36.9260   27.0840   42.5890 C   0  0  0  0  0  0  0  0  0  0  0  0
   36.3800   26.1610   42.6490 H   0  0  0  0  0  0  0  0  0  0  0  0
   38.1380   27.0240   43.2480 C   0  0  0  0  0  3  0  0  0  0  0  0
   38.9590   28.1310   43.2620 C   0  0  0  0  0  3  0  0  0  0  0  0
  1  8  1  0  0  0  0
  1 13  1  0  0  0  0
  2  1  1  0  0  0  0
  3  1  1  0  0  0  0
  4  5  1  0  0  0  0
  5 11  1  0  0  0  0
  5  6  2  0  0  0  0
  6 12  1  0  0  0  0
  7  6  1  0  0  0  0
  8  7  2  0  0  0  0
  9  4  2  0  0  0  0
  9  8  1  0  0  0  0
 10  4  1  0  0  0  0
 13 16  1  0  0  0  0
 14 15  1  0  0  0  0
 15 22  1  0  0  0  0
 16 15  2  0  0  0  0
 17 16  1  0  0  0  0
 17 19  2  0  0  0  0
 18 17  1  0  0  0  0
 19 20  1  0  0  0  0
 19 21  1  0  0  0  0
 21 22  2  0  0  0  0
M  END
>  <minimizedAffinity>
-4.50278711

$$$$

 OpenBabel03242523313D

 22 23  0  0  0  0  0  0  0  0999 V2000
   38.4170   32.7450   40.6890 C   0  0  0  0  0  0  0  0  0  0  0  0
   37.9530   33.7680   40.7580 H   0  0  0  0  0  0  0  0  0  0  0  0
   38.8770   32.5230   41.6740 H   0  0  0  0  0  0  0  0  0  0  0  0
   40.2960   32.0170   37.5820 C   0  0  0  0  0  0  0  0  0  0  0  0
   41.3050   32.9540   37.6150 C   0  0  0  0  0  0  0  0  0  0  0  0
   41.3240   33.8140   38.6960 C   0  0  0  0  0  0  0  0  0  0  0  0
   40.3850   33.7250   39.6730 N   0  0  0  0  0  0  0  0  0  0  0  0
   39.4000   32.7700   39.5920 C   0  0  0  0  0  0  0  0  0  0  0  0
   39.3770   31.9430   38.5540 N   0  0  0  0  0  0  0  0  0  0  0  0
   40.1300   31.2580   36.8040 H   0  0  0  0  0  0  0  0  0  0  0  0
   41.9810   32.9260   36.7940 H   0  0  0  0  0  0  0  0  0  0  0  0
   42.1170   34.5490   38.7170 H   0  0  0  0  0  0  0  0  0  0  0  0
   37.2040   31.4880   40.3050 S   0  0  0  0  0  0  0  0  0  0  0  0
   35.0110   29.0400   40.4110 Cl  0  0  0  0  0  0  0  0  0  0  0  0
   36.3910   28.9630   41.4620 C   0  0  0  0  0  0  0  0  0  0  0  0
   37.2110   30.0540   41.3050 C   0  0  0  0  0  0  0  0  0  0  0  0
   38.3490   30.0870   42.1310 C   0  0  0  0  0  0  0  0  0  0  0  0
   39.1600   30.8250   42.2150 H   0  0  0  0  0  0  0  0  0  0  0  0
   38.6080   29.0590   43.0460 C   0  0  0  0  0  0  0  0  0  0  0  0
   39.4400   28.9810   43.7210 H   0  0  0  0  0  0  0  0  0  0  0  0
   37.7420   27.9900   43.1520 C   0  0  0  0  0  3  0  0  0  0  0  0
   36.6210   27.9420   42.3510 C   0  0  0  0  0  3  0  0  0  0  0  0
  1  2  1  0  0  0  0
  1  3  1  0  0  0  0
  4  5  2  0  0  0  0
  4  9  1  0  0  0  0
  5  6  1  0  0  0  0
  6 12  1  0  0  0  0
  6  7  2  0  0  0  0
  8  7  1  0  0  0  0
  8  1  1  0  0  0  0
  9  8  2  0  0  0  0
 10  4  1  0  0  0  0
 11  5  1  0  0  0  0
 13  1  1  0  0  0  0
 13 16  1  0  0  0  0
 14 15  1  0  0  0  0
 15 22  1  0  0  0  0
 16 15  2  0  0  0  0
 16 17  1  0  0  0  0
 17 18  1  0  0  0  0
 17 19  2  0  0  0  0
 19 21  1  0  0  0  0
 19 20  1  0  0  0  0
 22 21  2  0  0  0  0
M  END
>  <minimizedAffinity>
-4.41515732

$$$$

 OpenBabel03242523313D

 22 23  0  0  0  0  0  0  0  0999 V2000
   37.3530   29.4590   42.4250 C   0  0  0  0  0  0  0  0  0  0  0  0
   36.5420   30.0250   42.9650 H   0  0  0  0  0  0  0  0  0  0  0  0
   38.2410   29.4410   43.0910 H   0  0  0  0  0  0  0  0  0  0  0  0
   38.8010   30.5190   39.1870 C   0  0  0  0  0  0  0  0  0  0  0  0
   37.9400   31.5160   38.7850 C   0  0  0  0  0  0  0  0  0  0  0  0
   36.8830   31.8060   39.6270 C   0  0  0  0  0  0  0  0  0  0  0  0
   36.7170   31.1310   40.7940 N   0  0  0  0  0  0  0  0  0  0  0  0
   37.6080   30.1460   41.1480 C   0  0  0  0  0  0  0  0  0  0  0  0
   38.6230   29.8630   40.3410 N   0  0  0  0  0  0  0  0  0  0  0  0
   39.6890   30.1600   38.6460 H   0  0  0  0  0  0  0  0  0  0  0  0
   38.1720   31.9720   37.8520 H   0  0  0  0  0  0  0  0  0  0  0  0
   36.2090   32.5880   39.3060 H   0  0  0  0  0  0  0  0  0  0  0  0
   36.8590   27.7810   42.0530 S   0  0  0  0  0  0  0  0  0  0  0  0
   36.7350   24.5830   41.2980 Cl  0  0  0  0  0  0  0  0  0  0  0  0
   38.0890   25.1670   42.2170 C   0  0  0  0  0  0  0  0  0  0  0  0
   37.9970   26.5160   42.4540 C   0  0  0  0  0  0  0  0  0  0  0  0
   39.0440   27.0760   43.2090 C   0  0  0  0  0  0  0  0  0  0  0  0
   39.2230   28.1090   43.5410 H   0  0  0  0  0  0  0  0  0  0  0  0
   40.1020   26.2850   43.6750 C   0  0  0  0  0  0  0  0  0  0  0  0
   40.9480   26.6040   44.2560 H   0  0  0  0  0  0  0  0  0  0  0  0
   40.1320   24.9330   43.4000 C   0  0  0  0  0  3  0  0  0  0  0  0
   39.1130   24.3680   42.6620 C   0  0  0  0  0  3  0  0  0  0  0  0
  1  2  1  0  0  0  0
  1  3  1  0  0  0  0
  4  9  1  0  0  0  0
  5  4  2  0  0  0  0
  5  6  1  0  0  0  0
  6  7  2  0  0  0  0
  7  8  1  0  0  0  0
  8  1  1  0  0  0  0
  9  8  2  0  0  0  0
 10  4  1  0  0  0  0
 11  5  1  0  0  0  0
 12  6  1  0  0  0  0
 13  1  1  0  0  0  0
 13 16  1  0  0  0  0
 14 15  1  0  0  0  0
 15 16  2  0  0  0  0
 15 22  1  0  0  0  0
 16 17  1  0  0  0  0
 17 18  1  0  0  0  0
 17 19  2  0  0  0  0
 19 20  1  0  0  0  0
 21 19  1  0  0  0  0
 22 21  2  0  0  0  0
M  END
>  <minimizedAffinity>
-4.28136206

$$$$

 OpenBabel03242523313D

 22 23  0  0  0  0  0  0  0  0999 V2000
   38.7020   29.5650   41.9290 C   0  0  0  0  0  0  0  0  0  0  0  0
   39.1930   29.7460   42.9260 H   0  0  0  0  0  0  0  0  0  0  0  0
   39.3800   28.9110   41.3420 H   0  0  0  0  0  0  0  0  0  0  0  0
   39.0330   33.0820   40.8240 C   0  0  0  0  0  0  0  0  0  0  0  0
   37.9220   33.2530   40.0280 C   0  0  0  0  0  0  0  0  0  0  0  0
   37.0820   32.1650   39.8860 C   0  0  0  0  0  0  0  0  0  0  0  0
   37.3540   30.9900   40.5100 N   0  0  0  0  0  0  0  0  0  0  0  0
   38.4770   30.8740   41.2940 C   0  0  0  0  0  0  0  0  0  0  0  0
   39.2860   31.9160   41.4310 N   0  0  0  0  0  0  0  0  0  0  0  0
   39.8020   33.8360   41.0470 H   0  0  0  0  0  0  0  0  0  0  0  0
   37.8150   34.2180   39.5930 H   0  0  0  0  0  0  0  0  0  0  0  0
   36.2110   32.3040   39.2600 H   0  0  0  0  0  0  0  0  0  0  0  0
   37.1120   28.7640   42.1050 S   0  0  0  0  0  0  0  0  0  0  0  0
   36.5210   27.9130   38.9850 Cl  0  0  0  0  0  0  0  0  0  0  0  0
   36.7170   26.6540   40.1660 C   0  0  0  0  0  0  0  0  0  0  0  0
   36.9540   27.1650   41.4180 C   0  0  0  0  0  0  0  0  0  0  0  0
   37.1090   26.2160   42.4450 C   0  0  0  0  0  0  0  0  0  0  0  0
   37.3040   26.3400   43.5200 H   0  0  0  0  0  0  0  0  0  0  0  0
   37.0240   24.8430   42.1800 C   0  0  0  0  0  0  0  0  0  0  0  0
   37.1250   24.0360   42.8820 H   0  0  0  0  0  0  0  0  0  0  0  0
   36.7830   24.3980   40.8960 C   0  0  0  0  0  3  0  0  0  0  0  0
   36.6280   25.3140   39.8770 C   0  0  0  0  0  3  0  0  0  0  0  0
  1 13  1  0  0  0  0
  1  2  1  0  0  0  0
  3  1  1  0  0  0  0
  4 10  1  0  0  0  0
  4  9  1  0  0  0  0
  5  4  2  0  0  0  0
  6  5  1  0  0  0  0
  6  7  2  0  0  0  0
  7  8  1  0  0  0  0
  8  9  2  0  0  0  0
  8  1  1  0  0  0  0
 11  5  1  0  0  0  0
 12  6  1  0  0  0  0
 14 15  1  0  0  0  0
 15 16  1  0  0  0  0
 16 13  1  0  0  0  0
 16 17  2  0  0  0  0
 17 18  1  0  0  0  0
 19 17  1  0  0  0  0
 19 20  1  0  0  0  0
 21 19  2  0  0  0  0
 22 15  2  0  0  0  0
 22 21  1  0  0  0  0
M  END
>  <minimizedAffinity>
-4.22211885

$$$$

 OpenBabel03242523313D

 22 23  0  0  0  0  0  0  0  0999 V2000
   37.7720   29.7970   39.5400 C   0  0  0  0  0  0  0  0  0  0  0  0
   38.7740   29.2870   39.4830 H   0  0  0  0  0  0  0  0  0  0  0  0
   37.2550   29.6190   38.5740 H   0  0  0  0  0  0  0  0  0  0  0  0
   39.1990   33.0030   40.7190 C   0  0  0  0  0  0  0  0  0  0  0  0
   38.3150   33.9300   40.2100 C   0  0  0  0  0  0  0  0  0  0  0  0
   37.2510   33.4420   39.4770 C   0  0  0  0  0  0  0  0  0  0  0  0
   37.0960   32.1070   39.2780 N   0  0  0  0  0  0  0  0  0  0  0  0
   38.0080   31.2260   39.8090 C   0  0  0  0  0  0  0  0  0  0  0  0
   39.0320   31.6910   40.5110 N   0  0  0  0  0  0  0  0  0  0  0  0
   40.0950   33.2120   41.3210 H   0  0  0  0  0  0  0  0  0  0  0  0
   38.5400   34.9460   40.4330 H   0  0  0  0  0  0  0  0  0  0  0  0
   36.5600   34.1730   39.0800 H   0  0  0  0  0  0  0  0  0  0  0  0
   36.7710   29.1500   40.8740 S   0  0  0  0  0  0  0  0  0  0  0  0
   37.3820   27.5400   43.6750 Cl  0  0  0  0  0  0  0  0  0  0  0  0
   37.0820   26.6160   42.2350 C   0  0  0  0  0  0  0  0  0  0  0  0
   36.8460   27.4260   41.1520 C   0  0  0  0  0  0  0  0  0  0  0  0
   36.6090   26.7630   39.9340 C   0  0  0  0  0  0  0  0  0  0  0  0
   36.3980   27.1530   38.9280 H   0  0  0  0  0  0  0  0  0  0  0  0
   36.6170   25.3640   39.8580 C   0  0  0  0  0  0  0  0  0  0  0  0
   36.4500   24.7570   38.9880 H   0  0  0  0  0  0  0  0  0  0  0  0
   36.8600   24.6100   40.9880 C   0  0  0  0  0  3  0  0  0  0  0  0
   37.0950   25.2430   42.1900 C   0  0  0  0  0  3  0  0  0  0  0  0
  1  8  1  0  0  0  0
  1 13  1  0  0  0  0
  2  1  1  0  0  0  0
  3  1  1  0  0  0  0
  4 10  1  0  0  0  0
  5 11  1  0  0  0  0
  5  4  2  0  0  0  0
  6  5  1  0  0  0  0
  7  6  2  0  0  0  0
  7  8  1  0  0  0  0
  8  9  2  0  0  0  0
  9  4  1  0  0  0  0
 12  6  1  0  0  0  0
 13 16  1  0  0  0  0
 15 14  1  0  0  0  0
 16 15  2  0  0  0  0
 17 16  1  0  0  0  0
 18 17  1  0  0  0  0
 19 17  2  0  0  0  0
 19 21  1  0  0  0  0
 20 19  1  0  0  0  0
 21 22  2  0  0  0  0
 22 15  1  0  0  0  0
M  END
>  <minimizedAffinity>
-4.21342039

$$$$

 OpenBabel03242523313D

 22 23  0  0  0  0  0  0  0  0999 V2000
   38.7170   29.9830   38.9480 C   0  0  0  0  0  0  0  0  0  0  0  0
   39.3280   29.9630   38.0020 H   0  0  0  0  0  0  0  0  0  0  0  0
   37.7270   29.5420   38.7110 H   0  0  0  0  0  0  0  0  0  0  0  0
   39.4370   33.2820   40.4670 C   0  0  0  0  0  0  0  0  0  0  0  0
   38.3130   34.0110   40.1480 C   0  0  0  0  0  0  0  0  0  0  0  0
   37.3320   33.3620   39.4220 C   0  0  0  0  0  0  0  0  0  0  0  0
   37.4850   32.0650   39.0500 N   0  0  0  0  0  0  0  0  0  0  0  0
   38.6280   31.3830   39.3960 C   0  0  0  0  0  0  0  0  0  0  0  0
   39.5720   32.0040   40.0920 N   0  0  0  0  0  0  0  0  0  0  0  0
   40.3090   33.6360   41.0360 H   0  0  0  0  0  0  0  0  0  0  0  0
   38.3070   35.0170   40.4950 H   0  0  0  0  0  0  0  0  0  0  0  0
   36.4520   33.9390   39.1730 H   0  0  0  0  0  0  0  0  0  0  0  0
   39.4870   29.0400   40.2580 S   0  0  0  0  0  0  0  0  0  0  0  0
   37.7620   26.2550   39.9730 Cl  0  0  0  0  0  0  0  0  0  0  0  0
   37.6480   27.1540   41.4550 C   0  0  0  0  0  0  0  0  0  0  0  0
   38.4200   28.2890   41.4210 C   0  0  0  0  0  0  0  0  0  0  0  0
   38.3770   29.0910   42.5760 C   0  0  0  0  0  0  0  0  0  0  0  0
   38.8840   30.0360   42.8190 H   0  0  0  0  0  0  0  0  0  0  0  0
   37.5890   28.7310   43.6770 C   0  0  0  0  0  0  0  0  0  0  0  0
   37.4810   29.2640   44.6030 H   0  0  0  0  0  0  0  0  0  0  0  0
   36.8370   27.5750   43.6430 C   0  0  0  0  0  3  0  0  0  0  0  0
   36.8670   26.7770   42.5200 C   0  0  0  0  0  3  0  0  0  0  0  0
  1  8  1  0  0  0  0
  1 13  1  0  0  0  0
  2  1  1  0  0  0  0
  3  1  1  0  0  0  0
  4 10  1  0  0  0  0
  5  4  1  0  0  0  0
  5 11  1  0  0  0  0
  6  5  2  0  0  0  0
  7  8  2  0  0  0  0
  7  6  1  0  0  0  0
  8  9  1  0  0  0  0
  9  4  2  0  0  0  0
 12  6  1  0  0  0  0
 13 16  1  0  0  0  0
 14 15  1  0  0  0  0
 15 22  1  0  0  0  0
 16 15  2  0  0  0  0
 16 17  1  0  0  0  0
 17 18  1  0  0  0  0
 17 19  2  0  0  0  0
 19 20  1  0  0  0  0
 21 19  1  0  0  0  0
 22 21  2  0  0  0  0
M  END
>  <minimizedAffinity>
-4.15842056

$$$$

 OpenBabel03242523313D

 22 23  0  0  0  0  0  0  0  0999 V2000
   35.9410   28.9370   40.3390 C   0  0  0  0  0  0  0  0  0  0  0  0
   35.2350   29.6900   40.7890 H   0  0  0  0  0  0  0  0  0  0  0  0
   35.3250   28.1840   39.8060 H   0  0  0  0  0  0  0  0  0  0  0  0
   37.8860   26.6260   42.4800 C   0  0  0  0  0  0  0  0  0  0  0  0
   38.2210   27.4210   43.5540 C   0  0  0  0  0  0  0  0  0  0  0  0
   37.7770   28.7290   43.5250 C   0  0  0  0  0  0  0  0  0  0  0  0
   37.0430   29.1930   42.4810 N   0  0  0  0  0  0  0  0  0  0  0  0
   36.7350   28.3550   41.4350 C   0  0  0  0  0  0  0  0  0  0  0  0
   37.1620   27.0990   41.4580 N   0  0  0  0  0  0  0  0  0  0  0  0
   38.1520   25.5690   42.3380 H   0  0  0  0  0  0  0  0  0  0  0  0
   38.7980   26.9470   44.3110 H   0  0  0  0  0  0  0  0  0  0  0  0
   38.0430   29.3500   44.3700 H   0  0  0  0  0  0  0  0  0  0  0  0
   37.0790   29.6960   39.1860 S   0  0  0  0  0  0  0  0  0  0  0  0
   39.9320   30.0530   40.7810 Cl  0  0  0  0  0  0  0  0  0  0  0  0
   39.0300   31.4780   40.3650 C   0  0  0  0  0  0  0  0  0  0  0  0
   37.8650   31.1670   39.7070 C   0  0  0  0  0  0  0  0  0  0  0  0
   37.0590   32.2620   39.3450 C   0  0  0  0  0  0  0  0  0  0  0  0
   36.0930   32.3050   38.8210 H   0  0  0  0  0  0  0  0  0  0  0  0
   37.4430   33.5740   39.6460 C   0  0  0  0  0  0  0  0  0  0  0  0
   36.9090   34.4790   39.4190 H   0  0  0  0  0  0  0  0  0  0  0  0
   38.6290   33.8150   40.3100 C   0  0  0  0  0  3  0  0  0  0  0  0
   39.4320   32.7550   40.6730 C   0  0  0  0  0  3  0  0  0  0  0  0
  1  2  1  0  0  0  0
  1  8  1  0  0  0  0
  3  1  1  0  0  0  0
  4  5  1  0  0  0  0
  5 11  1  0  0  0  0
  6  5  2  0  0  0  0
  6 12  1  0  0  0  0
  7  6  1  0  0  0  0
  8  9  1  0  0  0  0
  8  7  2  0  0  0  0
  9  4  2  0  0  0  0
 10  4  1  0  0  0  0
 13 16  1  0  0  0  0
 13  1  1  0  0  0  0
 15 22  1  0  0  0  0
 15 14  1  0  0  0  0
 16 15  2  0  0  0  0
 17 19  2  0  0  0  0
 17 16  1  0  0  0  0
 18 17  1  0  0  0  0
 19 21  1  0  0  0  0
 20 19  1  0  0  0  0
 21 22  2  0  0  0  0
M  END
>  <minimizedAffinity>
-4.13867235

$$$$

 OpenBabel03242523313D

 22 23  0  0  0  0  0  0  0  0999 V2000
   39.7020   29.1510   41.4360 C   0  0  0  0  0  0  0  0  0  0  0  0
   40.0930   30.1350   41.8190 H   0  0  0  0  0  0  0  0  0  0  0  0
   40.4040   28.8000   40.6510 H   0  0  0  0  0  0  0  0  0  0  0  0
   36.5660   28.9730   39.4760 C   0  0  0  0  0  0  0  0  0  0  0  0
   35.7690   29.9100   40.0980 C   0  0  0  0  0  0  0  0  0  0  0  0
   36.3190   30.5820   41.1720 C   0  0  0  0  0  0  0  0  0  0  0  0
   37.5870   30.3220   41.5820 N   0  0  0  0  0  0  0  0  0  0  0  0
   38.3390   29.3780   40.9240 C   0  0  0  0  0  0  0  0  0  0  0  0
   37.8140   28.7280   39.8940 N   0  0  0  0  0  0  0  0  0  0  0  0
   36.2930   28.3500   38.6120 H   0  0  0  0  0  0  0  0  0  0  0  0
   34.7950   30.0260   39.6870 H   0  0  0  0  0  0  0  0  0  0  0  0
   35.6890   31.3160   41.6580 H   0  0  0  0  0  0  0  0  0  0  0  0
   39.6000   27.9240   42.7330 S   0  0  0  0  0  0  0  0  0  0  0  0
   36.3950   27.3650   43.2100 Cl  0  0  0  0  0  0  0  0  0  0  0  0
   37.3640   26.1000   42.5180 C   0  0  0  0  0  0  0  0  0  0  0  0
   38.6760   26.4820   42.3830 C   0  0  0  0  0  0  0  0  0  0  0  0
   39.5420   25.5120   41.8440 C   0  0  0  0  0  0  0  0  0  0  0  0
   40.6200   25.5450   41.6310 H   0  0  0  0  0  0  0  0  0  0  0  0
   39.0690   24.2470   41.4750 C   0  0  0  0  0  0  0  0  0  0  0  0
   39.6360   23.4350   41.0580 H   0  0  0  0  0  0  0  0  0  0  0  0
   37.7360   23.9300   41.6380 C   0  0  0  0  0  3  0  0  0  0  0  0
   36.8730   24.8670   42.1640 C   0  0  0  0  0  3  0  0  0  0  0  0
  1  2  1  0  0  0  0
  1 13  1  0  0  0  0
  3  1  1  0  0  0  0
  4  9  2  0  0  0  0
  4  5  1  0  0  0  0
  5  6  2  0  0  0  0
  6  7  1  0  0  0  0
  6 12  1  0  0  0  0
  8  1  1  0  0  0  0
  8  7  2  0  0  0  0
  9  8  1  0  0  0  0
 10  4  1  0  0  0  0
 11  5  1  0  0  0  0
 15 14  1  0  0  0  0
 16 15  1  0  0  0  0
 16 13  1  0  0  0  0
 17 16  2  0  0  0  0
 18 17  1  0  0  0  0
 19 21  2  0  0  0  0
 19 17  1  0  0  0  0
 20 19  1  0  0  0  0
 21 22  1  0  0  0  0
 22 15  2  0  0  0  0
M  END
>  <minimizedAffinity>
-4.12650251

$$$$
