
     RDKit          3D

 24 25  0  0  0  0  0  0  0  0999 V2000
   44.5366   35.9839   44.5202 C   0  0  0  0  0  0  0  0  0  0  0  0
   45.2114   35.8889   43.3216 C   0  0  0  0  0  0  0  0  0  0  0  0
   46.0996   34.8396   43.1869 C   0  0  0  0  0  0  0  0  0  0  0  0
   46.2878   33.9517   44.1970 N   0  0  0  0  0  0  0  0  0  0  0  0
   45.5883   34.0934   45.3720 C   0  0  0  0  0  0  0  0  0  0  0  0
   44.7346   35.0996   45.5057 N   0  0  0  0  0  0  0  0  0  0  0  0
   45.8551   33.0918   46.4193 C   0  0  0  0  0  0  0  0  0  0  0  0
   46.5097   31.6311   45.6221 S   0  0  0  0  0  0  0  0  0  0  0  0
   43.7985   36.7493   44.7979 H   0  0  0  0  0  0  0  0  0  0  0  0
   44.9802   36.6424   42.6072 H   0  0  0  0  0  0  0  0  0  0  0  0
   46.6267   34.7696   42.2450 H   0  0  0  0  0  0  0  0  0  0  0  0
   44.8841   32.8807   46.9489 H   0  0  0  0  0  0  0  0  0  0  0  0
   46.5768   33.4493   47.1830 H   0  0  0  0  0  0  0  0  0  0  0  0
   46.1802   28.3715   45.3443 Cl  0  0  0  0  0  0  0  0  0  0  0  0
   45.1528   29.3933   44.3877 C   0  0  0  0  0  0  0  0  0  0  0  0
   45.4096   30.7237   44.6105 C   0  0  0  0  0  0  0  0  0  0  0  0
   44.6342   31.6292   43.8646 C   0  0  0  0  0  0  0  0  0  0  0  0
   44.6284   32.7289   43.8422 H   0  0  0  0  0  0  0  0  0  0  0  0
   43.6666   31.1771   42.9580 C   0  0  0  0  0  0  0  0  0  0  0  0
   43.0222   31.7743   42.3403 H   0  0  0  0  0  0  0  0  0  0  0  0
   43.4596   29.8233   42.7836 C   0  0  0  0  0  0  0  0  0  0  0  0
   44.2108   28.9221   43.5061 C   0  0  0  0  0  0  0  0  0  0  0  0
   42.7291   29.3925   42.1009 H   0  0  0  0  0  0  0  0  0  0  0  0
   44.1485   27.8502   43.4637 H   0  0  0  0  0  0  0  0  0  0  0  0
  1  6  2  0
  2  1  1  0
  3  2  2  0
  3  4  1  0
  4  5  2  0
  5  6  1  0
  5  7  1  0
  8  7  1  0
  1  9  1  0
  2 10  1  0
  3 11  1  0
  7 12  1  0
  7 13  1  0
 14 15  1  0
 15 16  2  0
 16 17  1  0
 17 18  1  0
 17 19  2  0
 19 20  1  0
 19 21  1  0
 21 22  2  0
 22 15  1  0
 21 23  1  0
 22 24  1  0
  8 16  1  0
M  ISO  7   9  14  10  14  11  14  12   8  13   8  18  15  20  16
M  END
>  <DihAtoms>  (1) 
6,7,15,14

>  <DihDeg>  (1) 
-4.212454372194603

$$$$
