
 OpenBabel03242523303D

 22 23  0  0  0  0  0  0  0  0999 V2000
   45.2080   33.7470   46.7960 C   0  0  0  0  0  0  0  0  0  0  0  0
   44.1630   33.3500   46.9310 H   0  0  0  0  0  0  0  0  0  0  0  0
   45.4230   34.4110   47.6590 H   0  0  0  0  0  0  0  0  0  0  0  0
   44.6540   36.1520   44.0360 C   0  0  0  0  0  0  0  0  0  0  0  0
   45.4740   35.6630   43.0430 C   0  0  0  0  0  0  0  0  0  0  0  0
   46.1980   34.5230   43.3350 C   0  0  0  0  0  0  0  0  0  0  0  0
   46.0940   33.9240   44.5490 N   0  0  0  0  0  0  0  0  0  0  0  0
   45.2590   34.4530   45.5040 C   0  0  0  0  0  0  0  0  0  0  0  0
   44.5640   35.5490   45.2280 N   0  0  0  0  0  0  0  0  0  0  0  0
   44.0110   37.0420   43.9780 H   0  0  0  0  0  0  0  0  0  0  0  0
   45.4720   36.2180   42.1350 H   0  0  0  0  0  0  0  0  0  0  0  0
   46.8410   34.1440   42.5520 H   0  0  0  0  0  0  0  0  0  0  0  0
   46.4180   32.4310   46.7450 S   0  0  0  0  0  0  0  0  0  0  0  0
   45.2850   31.2070   49.5780 Cl  0  0  0  0  0  0  0  0  0  0  0  0
   45.3460   30.1660   48.1920 C   0  0  0  0  0  0  0  0  0  0  0  0
   45.8430   30.8170   47.0880 C   0  0  0  0  0  0  0  0  0  0  0  0
   45.9450   30.0440   45.9180 C   0  0  0  0  0  0  0  0  0  0  0  0
   46.3010   30.3020   44.9100 H   0  0  0  0  0  0  0  0  0  0  0  0
   45.5580   28.6970   45.9040 C   0  0  0  0  0  0  0  0  0  0  0  0
   45.5920   28.0170   45.0730 H   0  0  0  0  0  0  0  0  0  0  0  0
   45.0660   28.1060   47.0500 C   0  0  0  0  0  3  0  0  0  0  0  0
   44.9590   28.8480   48.2060 C   0  0  0  0  0  3  0  0  0  0  0  0
  1  2  1  0  0  0  0
  1  3  1  0  0  0  0
  4  9  1  0  0  0  0
  5  6  1  0  0  0  0
  5  4  2  0  0  0  0
  6  7  2  0  0  0  0
  7  8  1  0  0  0  0
  8  1  1  0  0  0  0
  9  8  2  0  0  0  0
 10  4  1  0  0  0  0
 11  5  1  0  0  0  0
 12  6  1  0  0  0  0
 13  1  1  0  0  0  0
 13 16  1  0  0  0  0
 15 22  1  0  0  0  0
 15 14  1  0  0  0  0
 16 15  2  0  0  0  0
 17 16  1  0  0  0  0
 18 17  1  0  0  0  0
 19 17  2  0  0  0  0
 19 21  1  0  0  0  0
 20 19  1  0  0  0  0
 21 22  2  0  0  0  0
M  END
>  <minimizedAffinity>
-4.27318096

>  <minimizedRMSD>
2.89435434

$$$$
