
 OpenBabel03252506153D

 39 41  0  0  0  0  0  0  0  0999 V2000
   46.4680   32.7960   41.1600 F   0  0  0  0  0  0  0  0  0  0  0  0
   47.7000   33.1070   41.5050 C   0  0  0  0  0  0  0  0  0  0  0  0
   47.8750   33.9680   42.5710 C   0  0  0  0  0  0  0  0  0  0  0  0
   49.1470   34.3700   43.0300 C   0  0  0  0  0  0  0  0  0  0  0  0
   50.2810   33.8760   42.3780 C   0  0  0  0  0  0  0  0  0  0  0  0
   50.0500   33.0270   41.3280 C   0  0  0  0  0  0  0  0  0  0  0  0
   48.8410   32.6320   40.8750 C   0  0  0  0  0  0  0  0  0  0  0  0
   49.2130   35.0580   43.8850 H   0  0  0  0  0  0  0  0  0  0  0  0
   51.2220   34.2160   42.7710 H   0  0  0  0  0  0  0  0  0  0  0  0
   51.0250   32.7160   40.9220 H   0  0  0  0  0  0  0  0  0  0  0  0
   45.3710   34.4450   45.2060 C   0  0  0  0  0  0  0  0  0  0  0  0
   44.5830   35.5010   44.6680 C   0  0  0  0  0  0  0  0  0  0  0  0
   44.9270   36.0400   43.3900 C   0  0  0  0  0  0  0  0  0  0  0  0
   46.0100   35.4940   42.7640 N   0  0  0  0  0  0  0  0  0  0  0  0
   46.7190   34.5110   43.2960 C   0  0  0  0  0  0  0  0  0  0  0  0
   46.4060   33.9880   44.5080 N   0  0  0  0  0  0  0  0  0  0  0  0
   43.7380   35.9320   45.1500 H   0  0  0  0  0  0  0  0  0  0  0  0
   44.3480   36.8340   42.9680 H   0  0  0  0  0  0  0  0  0  0  0  0
   45.0050   33.9470   46.4560 N   0  0  0  0  0  0  0  0  0  0  0  0
   45.0250   34.6910   47.2130 H   0  0  0  0  0  0  0  0  0  0  0  0
   44.7420   32.9410   46.6190 H   0  0  0  0  0  0  0  0  0  0  0  0
   48.7400   31.7800   39.8130 O   0  0  0  0  0  0  0  0  0  0  0  0
   49.0310   33.4030   37.7460 O   0  0  0  0  0  0  0  0  0  0  0  0
   49.3410   32.0220   38.2590 P   0  0  2  0  0  0  0  0  0  0  0  0
   48.6810   30.8530   37.2130 O   0  0  0  0  0  0  0  0  0  0  0  0
   50.7090   30.5730   35.1520 Cl  0  0  0  0  0  0  0  0  0  0  0  0
   49.0610   31.1410   34.9720 C   0  0  0  0  0  0  0  0  0  0  0  0
   48.1250   31.2550   36.0060 C   0  0  0  0  0  0  0  0  0  0  0  0
   46.8580   31.7190   35.7200 C   0  0  0  0  0  0  0  0  0  0  0  0
   46.2270   31.7620   36.5980 H   0  0  0  0  0  0  0  0  0  0  0  0
   46.5400   32.0600   34.4230 C   0  0  0  0  0  0  0  0  0  0  0  0
   45.5260   32.4160   34.2720 H   0  0  0  0  0  0  0  0  0  0  0  0
   47.4570   31.9500   33.4010 C   0  0  0  0  0  3  0  0  0  0  0  0
   48.7170   31.4910   33.6740 C   0  0  0  0  0  3  0  0  0  0  0  0
   51.0190   31.7810   38.1760 O   0  0  0  0  0  0  0  0  0  0  0  0
   51.3760   30.5510   38.7650 C   0  0  0  0  0  0  0  0  0  0  0  0
   52.4710   30.1010   38.0230 F   0  0  0  0  0  0  0  0  0  0  0  0
   51.8120   30.7370   40.0560 F   0  0  0  0  0  0  0  0  0  0  0  0
   50.3640   29.6320   38.7800 F   0  0  0  0  0  0  0  0  0  0  0  0
  1  2  1  0  0  0  0
  2  3  1  0  0  0  0
  3  4  2  0  0  0  0
  3 15  1  0  0  0  0
  4  8  1  0  0  0  0
  5  9  1  0  0  0  0
  5  4  1  0  0  0  0
  6  5  2  0  0  0  0
  7  6  1  0  0  0  0
  7  2  2  0  0  0  0
 10  6  1  0  0  0  0
 11 19  1  0  0  0  0
 12 17  1  0  0  0  0
 12 11  1  0  0  0  0
 13 12  2  0  0  0  0
 14 15  2  0  0  0  0
 14 13  1  0  0  0  0
 15 16  1  0  0  0  0
 16 11  2  0  0  0  0
 18 13  1  0  0  0  0
 19 21  1  0  0  0  0
 19 20  1  0  0  0  0
 22  7  1  0  0  0  0
 24 23  2  6  0  0  0
 24 22  1  0  0  0  0
 25 24  1  0  0  0  0
 27 26  1  0  0  0  0
 27 28  1  0  0  0  0
 28 25  1  0  0  0  0
 29 28  2  0  0  0  0
 29 30  1  0  0  0  0
 31 29  1  0  0  0  0
 32 31  1  0  0  0  0
 33 34  1  0  0  0  0
 33 31  2  0  0  0  0
 34 27  2  0  0  0  0
 35 24  1  0  0  0  0
 35 36  1  0  0  0  0
 36 39  1  0  0  0  0
 36 38  1  0  0  0  0
 37 36  1  0  0  0  0
M  END
>  <minimizedAffinity>
-5.2621088

>  <minimizedRMSD>
2.82645369

$$$$
