
     RDKit          3D

 41 43  0  0  0  0  0  0  0  0999 V2000
   45.1897   33.4592   41.1638 F   0  0  0  0  0  0  0  0  0  0  0  0
   46.3596   34.0488   41.0315 C   0  0  0  0  0  0  0  0  0  0  0  0
   46.8344   34.7909   42.0974 C   0  0  0  0  0  0  0  0  0  0  0  0
   48.0744   35.4638   42.0693 C   0  0  0  0  0  0  0  0  0  0  0  0
   48.8579   35.3768   40.9149 C   0  0  0  0  0  0  0  0  0  0  0  0
   48.3399   34.6289   39.8902 C   0  0  0  0  0  0  0  0  0  0  0  0
   47.1567   33.9790   39.8976 C   0  0  0  0  0  0  0  0  0  0  0  0
   45.4826   33.9944   45.4102 C   0  0  0  0  0  0  0  0  0  0  0  0
   44.6257   35.1047   45.6473 C   0  0  0  0  0  0  0  0  0  0  0  0
   44.5222   36.1249   44.6517 C   0  0  0  0  0  0  0  0  0  0  0  0
   45.2681   35.9580   43.5211 N   0  0  0  0  0  0  0  0  0  0  0  0
   46.0546   34.9104   43.3364 C   0  0  0  0  0  0  0  0  0  0  0  0
   46.1646   33.9333   44.2704 N   0  0  0  0  0  0  0  0  0  0  0  0
   45.5595   33.0208   46.4062 N   0  0  0  0  0  0  0  0  0  0  0  0
   46.7483   33.2650   38.8090 O   0  0  0  0  0  0  0  0  0  0  0  0
   48.0548   34.7118   37.0222 O   0  0  0  0  0  0  0  0  0  0  0  0
   47.3018   33.4236   37.2272 P   0  0  2  0  0  0  0  0  0  0  0  0
   45.9795   33.3485   36.1592 O   0  0  0  0  0  0  0  0  0  0  0  0
   48.3065   32.1347   36.7665 O   0  0  0  0  0  0  0  0  0  0  0  0
   47.5512   30.9611   36.5686 C   0  0  0  0  0  0  0  0  0  0  0  0
   47.2035   30.9811   35.2158 F   0  0  0  0  0  0  0  0  0  0  0  0
   48.3257   29.8431   36.7703 F   0  0  0  0  0  0  0  0  0  0  0  0
   46.4490   30.8719   37.3734 F   0  0  0  0  0  0  0  0  0  0  0  0
   48.3893   36.0360   42.9526 H   0  0  0  0  0  0  0  0  0  0  0  0
   49.7909   35.9092   40.9520 H   0  0  0  0  0  0  0  0  0  0  0  0
   49.0634   34.6448   39.0604 H   0  0  0  0  0  0  0  0  0  0  0  0
   44.0405   35.2424   46.5265 H   0  0  0  0  0  0  0  0  0  0  0  0
   43.8835   36.9685   44.8097 H   0  0  0  0  0  0  0  0  0  0  0  0
   45.8991   33.4119   47.3333 H   0  0  0  0  0  0  0  0  0  0  0  0
   45.3059   32.0116   46.2444 H   0  0  0  0  0  0  0  0  0  0  0  0
   48.8350   33.2865   35.6274 Cl  0  0  0  0  0  0  0  0  0  0  0  0
   47.5360   33.6173   34.4976 C   0  0  0  0  0  0  0  0  0  0  0  0
   46.1726   33.6331   34.8139 C   0  0  0  0  0  0  0  0  0  0  0  0
   45.2551   33.9097   33.8215 C   0  0  0  0  0  0  0  0  0  0  0  0
   44.2374   33.8932   34.1861 H   0  0  0  0  0  0  0  0  0  0  0  0
   45.6987   34.1640   32.5423 C   0  0  0  0  0  0  0  0  0  0  0  0
   44.9222   34.3735   31.8136 H   0  0  0  0  0  0  0  0  0  0  0  0
   47.0399   34.1495   32.2258 C   0  0  0  0  0  0  0  0  0  0  0  0
   47.9587   33.8765   33.2021 C   0  0  0  0  0  0  0  0  0  0  0  0
   47.3084   34.3628   31.1830 H   0  0  0  0  0  0  0  0  0  0  0  0
   48.9902   33.8804   32.8908 H   0  0  0  0  0  0  0  0  0  0  0  0
  2  1  1  0
  2  3  2  0
  3 12  1  0
  4  3  1  0
  5  4  2  0
  6  7  2  0
  6  5  1  0
  7  2  1  0
  8  9  2  0
  8 14  1  0
 10  9  1  0
 11 10  2  0
 12 11  1  0
 12 13  2  0
 13  8  1  0
 15  7  1  0
 17 16  2  0
 17 15  1  1
 18 17  1  0
 19 17  1  0
 20 19  1  0
 20 22  1  0
 20 23  1  0
 21 20  1  0
  4 24  1  0
  5 25  1  0
  6 26  1  0
  9 27  1  0
 10 28  1  0
 14 29  1  0
 14 30  1  0
 31 32  1  0
 32 33  2  0
 33 34  1  0
 34 35  1  0
 34 36  2  0
 36 37  1  0
 36 38  1  0
 38 39  2  0
 39 32  1  0
 38 40  1  0
 39 41  1  0
 18 33  1  0
M  ISO  7  24  14  25  14  26  14  27  14  28  14  35  15  37  16
M  END
>  <DihAtoms>  (1) 
16,17,32,31

>  <DihDeg>  (1) 
-179.99705950325674

$$$$
