
 OpenBabel03242523393D

 37 41  0  0  1  0  0  0  0  0999 V2000
   46.7860   32.6930   44.9690 C   0  0  2  0  0  0  0  0  0  0  0  0
   47.3970   31.5750   44.9030 N   0  0  2  0  0  4  0  0  0  0  0  0
   47.4040   30.3400   44.6920 C   0  0  0  0  0  0  0  0  0  0  0  0
   47.7890   30.2370   46.0070 N   0  0  0  0  0  0  0  0  0  0  0  0
   46.9960   31.0140   46.8230 C   0  0  2  0  0  3  0  0  0  0  0  0
   46.7750   30.4940   48.1320 C   0  0  0  0  0  0  0  0  0  0  0  0
   45.9510   31.1960   48.9230 C   0  0  0  0  0  0  0  0  0  0  0  0
   45.3290   32.3440   48.5640 C   0  0  0  0  0  0  0  0  0  0  0  0
   45.6370   32.7370   47.2590 C   0  0  0  0  0  0  0  0  0  0  0  0
   46.4470   32.1890   46.2680 C   0  0  1  0  0  0  0  0  0  0  0  0
   47.6630   33.4390   45.3420 H   0  0  0  0  0  0  0  0  0  0  0  0
   48.2580   31.8230   44.2500 H   0  0  0  0  0  0  0  0  0  0  0  0
   46.4470   29.8140   44.4870 H   0  0  0  0  0  0  0  0  0  0  0  0
   48.1250   29.7410   44.0490 H   0  0  0  0  0  0  0  0  0  0  0  0
   48.6000   29.6250   46.3500 H   0  0  0  0  0  0  0  0  0  0  0  0
   47.2320   29.5970   48.4890 H   0  0  0  0  0  0  0  0  0  0  0  0
   45.7860   30.7850   49.9360 H   0  0  0  0  0  0  0  0  0  0  0  0
   44.6900   32.8460   49.2350 H   0  0  0  0  0  0  0  0  0  0  0  0
   45.0710   33.6550   47.1160 H   0  0  0  0  0  0  0  0  0  0  0  0
   44.5740   35.6560   44.8800 C   0  0  0  0  0  0  0  0  0  0  0  0
   44.0830   35.4480   43.5730 C   0  0  0  0  0  0  0  0  0  0  0  0
   44.5370   34.3330   42.8980 C   0  0  0  0  0  0  0  0  0  0  0  0
   45.4150   33.5340   43.5490 N   0  0  0  0  0  0  0  0  0  0  0  0
   45.8820   33.7540   44.8160 C   0  0  0  0  0  0  0  0  0  0  0  0
   45.4180   34.7920   45.3630 N   0  0  0  0  0  0  0  0  0  0  0  0
   44.2580   36.5100   45.4630 H   0  0  0  0  0  0  0  0  0  0  0  0
   43.3850   36.1860   43.2040 H   0  0  0  0  0  0  0  0  0  0  0  0
   43.9250   34.0550   41.2800 S   0  0  0  0  0  0  0  0  0  0  0  0
   41.3470   35.9510   41.0690 Cl  0  0  0  0  0  0  0  0  0  0  0  0
   41.1440   34.2390   41.2980 C   0  0  0  0  0  0  0  0  0  0  0  0
   42.2460   33.3970   41.3920 C   0  0  0  0  0  0  0  0  0  0  0  0
   42.0400   32.0360   41.5760 C   0  0  0  0  0  0  0  0  0  0  0  0
   42.9080   31.3650   41.6510 H   0  0  0  0  0  0  0  0  0  0  0  0
   40.7680   31.5100   41.6640 C   0  0  0  0  0  0  0  0  0  0  0  0
   40.6500   30.4470   41.8060 H   0  0  0  0  0  0  0  0  0  0  0  0
   39.6950   32.3790   41.5660 C   0  0  0  0  0  3  0  0  0  0  0  0
   39.8630   33.7300   41.3850 C   0  0  0  0  0  3  0  0  0  0  0  0
  1 11  1  1  0  0  0
  1 10  1  0  0  0  0
  2 12  1  1  0  0  0
  2  1  1  0  0  0  0
  2 10  1  0  0  0  0
  3  2  1  0  0  0  0
  3  4  1  0  0  0  0
  4 15  1  0  0  0  0
  4  5  1  0  0  0  0
  5  6  1  6  0  0  0
  6 16  1  0  0  0  0
  6  7  2  0  0  0  0
  7 17  1  0  0  0  0
  8  7  1  0  0  0  0
  8 18  1  0  0  0  0
  9  8  2  0  0  0  0
 10  5  1  0  0  0  0
 10  9  1  6  0  0  0
 13  3  1  0  0  0  0
 14  3  1  0  0  0  0
 19  9  1  0  0  0  0
 20 25  1  0  0  0  0
 20 26  1  0  0  0  0
 21 20  2  0  0  0  0
 22 23  2  0  0  0  0
 22 21  1  0  0  0  0
 23 24  1  0  0  0  0
 24  1  1  0  0  0  0
 24 25  2  0  0  0  0
 27 21  1  0  0  0  0
 28 31  1  0  0  0  0
 28 22  1  0  0  0  0
 29 30  1  0  0  0  0
 30 37  2  0  0  0  0
 30 31  1  0  0  0  0
 31 32  2  0  0  0  0
 32 33  1  0  0  0  0
 32 34  1  0  0  0  0
 34 35  1  0  0  0  0
 36 34  2  0  0  0  0
 37 36  1  0  0  0  0
M  END
>  <minimizedAffinity>
-6.02984333

>  <minimizedRMSD>
1.05896902

$$$$
