REMARK  Name = 
REMARK  2 active torsions:
REMARK  status: ('A' for Active; 'I' for Inactive)
REMARK    1  A    between atoms: C_5  and  C_7
REMARK    2  A    between atoms: N_10  and  C_19
REMARK                            x       y       z     vdW  Elec       q    Type
REMARK                         _______ _______ _______ _____ _____    ______ ____
ROOT
ATOM      1  C   UNL     1      45.726  33.305  46.744  0.00  0.00    +0.000 A 
ATOM      2  C   UNL     1      46.864  32.562  47.082  0.00  0.00    +0.000 A 
ATOM      3  C   UNL     1      46.633  31.955  48.275  0.00  0.00    +0.000 A 
ATOM      4  N   UNL     1      45.398  32.310  48.660  0.00  0.00    +0.000 N 
ATOM      5  N   UNL     1      44.850  33.125  47.735  0.00  0.00    +0.000 NA
ATOM      6  H   UNL     1      47.794  32.447  46.541  0.00  0.00    +0.000 HD
ATOM      7  H   UNL     1      47.213  31.299  48.911  0.00  0.00    +0.000 HD
ENDROOT
BRANCH   1  12
ATOM      8  C   UNL     1      44.560  35.882  44.414  0.00  0.00    +0.000 A 
ATOM      9  C   UNL     1      45.296  35.600  43.247  0.00  0.00    +0.000 A 
ATOM     10  C   UNL     1      46.202  34.502  43.283  0.00  0.00    +0.000 A 
ATOM     11  N   UNL     1      46.303  33.794  44.437  0.00  0.00    +0.000 NA
ATOM     12  C   UNL     1      45.577  34.099  45.536  0.00  0.00    +0.000 A 
ATOM     13  N   UNL     1      44.707  35.136  45.534  0.00  0.00    +0.000 NA
ATOM     14  H   UNL     1      43.854  36.693  44.472  0.00  0.00    +0.000 HD
ATOM     15  H   UNL     1      45.159  36.204  42.382  0.00  0.00    +0.000 HD
ATOM     16  H   UNL     1      46.775  34.273  42.395  0.00  0.00    +0.000 HD
ENDBRANCH   1  12
BRANCH   4  19
ATOM     17 CL   UNL     1      42.617  31.462  48.014  0.00  0.00    +0.000 Cl
ATOM     18  C   UNL     1      43.252  31.630  49.633  0.00  0.00    +0.000 A 
ATOM     19  C   UNL     1      44.563  32.032  49.781  0.00  0.00    +0.000 A 
ATOM     20  C   UNL     1      45.176  32.200  51.010  0.00  0.00    +0.000 A 
ATOM     21  H   UNL     1      46.196  32.513  51.117  0.00  0.00    +0.000 HD
ATOM     22  C   UNL     1      44.441  31.952  52.175  0.00  0.00    +0.000 A 
ATOM     23  H   UNL     1      44.848  32.060  53.172  0.00  0.00    +0.000 HD
ATOM     24  C   UNL     1      43.130  31.551  51.993  0.00  0.00    +0.000 A 
ATOM     25  C   UNL     1      42.514  31.382  50.765  0.00  0.00    +0.000 A 
ENDBRANCH   4  19
TORSDOF 2
