
 OpenBabel03242523403D

 37 41  0  0  1  0  0  0  0  0999 V2000
   46.7890   32.6620   45.0530 C   0  0  2  0  0  0  0  0  0  0  0  0
   47.3970   31.5430   44.9710 N   0  0  2  0  0  4  0  0  0  0  0  0
   47.4000   30.3100   44.7490 C   0  0  0  0  0  0  0  0  0  0  0  0
   47.7970   30.1940   46.0580 N   0  0  0  0  0  0  0  0  0  0  0  0
   47.0140   30.9650   46.8900 C   0  0  2  0  0  3  0  0  0  0  0  0
   46.8050   30.4340   48.1960 C   0  0  0  0  0  0  0  0  0  0  0  0
   45.9900   31.1300   49.0010 C   0  0  0  0  0  0  0  0  0  0  0  0
   45.3670   32.2820   48.6590 C   0  0  0  0  0  0  0  0  0  0  0  0
   45.6630   32.6870   47.3550 C   0  0  0  0  0  0  0  0  0  0  0  0
   46.4620   32.1470   46.3510 C   0  0  1  0  0  0  0  0  0  0  0  0
   47.6710   33.4030   45.4250 H   0  0  0  0  0  0  0  0  0  0  0  0
   48.2520   31.7950   44.3110 H   0  0  0  0  0  0  0  0  0  0  0  0
   46.4390   29.7880   44.5480 H   0  0  0  0  0  0  0  0  0  0  0  0
   48.1130   29.7160   44.0930 H   0  0  0  0  0  0  0  0  0  0  0  0
   48.6100   29.5770   46.3880 H   0  0  0  0  0  0  0  0  0  0  0  0
   47.2640   29.5320   48.5400 H   0  0  0  0  0  0  0  0  0  0  0  0
   45.8340   30.7110   50.0120 H   0  0  0  0  0  0  0  0  0  0  0  0
   44.7360   32.7800   49.3410 H   0  0  0  0  0  0  0  0  0  0  0  0
   45.0980   33.6080   47.2260 H   0  0  0  0  0  0  0  0  0  0  0  0
   44.5230   35.5840   45.0580 C   0  0  0  0  0  0  0  0  0  0  0  0
   44.2490   35.5750   43.6730 C   0  0  0  0  0  0  0  0  0  0  0  0
   44.8400   34.5810   42.9200 C   0  0  0  0  0  0  0  0  0  0  0  0
   45.6310   33.7000   43.5750 N   0  0  0  0  0  0  0  0  0  0  0  0
   45.8860   33.7260   44.9190 C   0  0  0  0  0  0  0  0  0  0  0  0
   45.3090   34.6630   45.5350 N   0  0  0  0  0  0  0  0  0  0  0  0
   44.0910   36.3360   45.7050 H   0  0  0  0  0  0  0  0  0  0  0  0
   43.5940   36.3560   43.3130 H   0  0  0  0  0  0  0  0  0  0  0  0
   44.4980   34.5500   41.2010 S   0  0  0  0  0  0  0  0  0  0  0  0
   42.3880   35.3510   38.9220 Cl  0  0  0  0  0  0  0  0  0  0  0  0
   42.0920   33.9610   39.9250 C   0  0  0  0  0  0  0  0  0  0  0  0
   42.9920   33.5940   40.9190 C   0  0  0  0  0  0  0  0  0  0  0  0
   42.7180   32.4760   41.6970 C   0  0  0  0  0  0  0  0  0  0  0  0
   43.4260   32.1820   42.4840 H   0  0  0  0  0  0  0  0  0  0  0  0
   41.5730   31.7310   41.5010 C   0  0  0  0  0  0  0  0  0  0  0  0
   41.3960   30.8700   42.1260 H   0  0  0  0  0  0  0  0  0  0  0  0
   40.7010   32.1270   40.5020 C   0  0  0  0  0  3  0  0  0  0  0  0
   40.9420   33.2270   39.7140 C   0  0  0  0  0  3  0  0  0  0  0  0
  1 11  1  1  0  0  0
  1 10  1  0  0  0  0
  2 12  1  1  0  0  0
  2  1  1  0  0  0  0
  2 10  1  0  0  0  0
  3  2  1  0  0  0  0
  3  4  1  0  0  0  0
  4 15  1  0  0  0  0
  4  5  1  0  0  0  0
  5  6  1  6  0  0  0
  6 16  1  0  0  0  0
  6  7  2  0  0  0  0
  7 17  1  0  0  0  0
  8  7  1  0  0  0  0
  8 18  1  0  0  0  0
  9  8  2  0  0  0  0
 10  5  1  0  0  0  0
 10  9  1  6  0  0  0
 13  3  1  0  0  0  0
 14  3  1  0  0  0  0
 19  9  1  0  0  0  0
 20 25  1  0  0  0  0
 20 26  1  0  0  0  0
 21 20  2  0  0  0  0
 22 23  2  0  0  0  0
 22 21  1  0  0  0  0
 23 24  1  0  0  0  0
 24  1  1  0  0  0  0
 24 25  2  0  0  0  0
 27 21  1  0  0  0  0
 28 22  1  0  0  0  0
 29 30  1  0  0  0  0
 30 31  1  0  0  0  0
 31 28  1  0  0  0  0
 31 32  2  0  0  0  0
 32 33  1  0  0  0  0
 34 32  1  0  0  0  0
 34 35  1  0  0  0  0
 36 34  2  0  0  0  0
 37 30  2  0  0  0  0
 37 36  1  0  0  0  0
M  END
>  <minimizedAffinity>
-5.90083551

>  <minimizedRMSD>
0.195075169

$$$$
