
 OpenBabel03252500453D

 34 36  0  0  1  0  0  0  0  0999 V2000
   36.5780   30.3610   37.8520 C   0  0  1  0  0  0  0  0  0  0  0  0
   36.4010   28.8900   37.5050 C   0  0  0  0  0  0  0  0  0  0  0  0
   36.3480   29.3560   38.9420 C   0  0  1  0  0  0  0  0  0  0  0  0
   35.6820   30.9430   37.5320 H   0  0  0  0  0  0  0  0  0  0  0  0
   37.3100   28.3220   37.1870 H   0  0  0  0  0  0  0  0  0  0  0  0
   35.4750   28.5140   37.0730 H   0  0  0  0  0  0  0  0  0  0  0  0
   35.3540   29.2740   39.4400 H   0  0  0  0  0  0  0  0  0  0  0  0
   37.9520   30.8860   37.7540 C   0  0  0  0  0  0  0  0  0  0  0  0
   38.6830   30.0560   37.9640 H   0  0  0  0  0  0  0  0  0  0  0  0
   38.1900   31.2100   36.7080 H   0  0  0  0  0  0  0  0  0  0  0  0
   38.2310   32.0570   38.6030 C   0  0  0  0  0  0  0  0  0  0  0  0
   39.5660   32.2790   38.8060 C   0  0  0  0  0  0  0  0  0  0  0  0
   39.9880   33.3560   39.6060 C   0  0  0  0  0  0  0  0  0  0  0  0
   38.9780   34.1300   40.1380 N   0  0  0  0  0  0  0  0  0  0  0  0
   37.6710   33.8880   39.9200 C   0  0  0  0  0  0  0  0  0  0  0  0
   37.3160   32.8610   39.1600 N   0  0  0  0  0  0  0  0  0  0  0  0
   40.4830   31.8070   38.4780 H   0  0  0  0  0  0  0  0  0  0  0  0
   40.9880   33.6690   39.8650 H   0  0  0  0  0  0  0  0  0  0  0  0
   36.9750   34.5680   40.3940 H   0  0  0  0  0  0  0  0  0  0  0  0
   37.4120   29.0530   39.7490 O   0  0  0  0  0  0  0  0  0  0  0  0
   38.3160   30.4080   41.8610 O   0  0  0  0  0  0  0  0  0  0  0  0
   37.1840   29.5340   41.3450 P   0  0  1  0  0  0  0  0  0  0  0  0
   35.7480   30.4540   41.4220 O   0  0  0  0  0  0  0  0  0  0  0  0
   35.8330   31.3160   40.9560 H   0  0  0  0  0  0  0  0  0  0  0  0
   36.9960   28.1540   42.3060 O   0  0  0  0  0  0  0  0  0  0  0  0
   36.6980   25.8410   40.5500 Cl  0  0  0  0  0  0  0  0  0  0  0  0
   37.9060   26.0930   41.7910 C   0  0  0  0  0  0  0  0  0  0  0  0
   37.9830   27.2190   42.5850 C   0  0  0  0  0  0  0  0  0  0  0  0
   38.9680   27.3440   43.5440 C   0  0  0  0  0  0  0  0  0  0  0  0
   38.9670   28.2460   44.1250 H   0  0  0  0  0  0  0  0  0  0  0  0
   39.8770   26.2950   43.6800 C   0  0  0  0  0  0  0  0  0  0  0  0
   40.6460   26.4170   44.4440 H   0  0  0  0  0  0  0  0  0  0  0  0
   39.8060   25.1610   42.8850 C   0  0  0  0  0  3  0  0  0  0  0  0
   38.8050   25.0420   41.9150 C   0  0  0  0  0  3  0  0  0  0  0  0
  1  4  1  6  0  0  0
  1  3  1  0  0  0  0
  2  1  1  0  0  0  0
  2  3  1  0  0  0  0
  3  7  1  1  0  0  0
  3 20  1  0  0  0  0
  5  2  1  0  0  0  0
  6  2  1  0  0  0  0
  8  1  1  0  0  0  0
  8  9  1  0  0  0  0
  8 11  1  0  0  0  0
 10  8  1  0  0  0  0
 11 12  2  0  0  0  0
 11 16  1  0  0  0  0
 12 13  1  0  0  0  0
 13 18  1  0  0  0  0
 13 14  2  0  0  0  0
 15 14  1  0  0  0  0
 15 19  1  0  0  0  0
 16 15  2  0  0  0  0
 17 12  1  0  0  0  0
 20 22  1  0  0  0  0
 22 23  1  0  0  0  0
 22 21  2  1  0  0  0
 22 25  1  0  0  0  0
 24 23  1  0  0  0  0
 25 28  1  0  0  0  0
 26 27  1  0  0  0  0
 27 34  2  0  0  0  0
 27 28  1  0  0  0  0
 28 29  2  0  0  0  0
 29 31  1  0  0  0  0
 29 30  1  0  0  0  0
 31 32  1  0  0  0  0
 33 31  2  0  0  0  0
 34 33  1  0  0  0  0
M  END
>  <minimizedAffinity>
-5.34063387

$$$$

 OpenBabel03252500453D

 34 36  0  0  1  0  0  0  0  0999 V2000
   38.1320   31.7960   38.3900 C   0  0  1  0  0  0  0  0  0  0  0  0
   37.3090   30.9750   37.4080 C   0  0  0  0  0  0  0  0  0  0  0  0
   37.0140   30.9290   38.8900 C   0  0  1  0  0  0  0  0  0  0  0  0
   37.8920   32.8800   38.2810 H   0  0  0  0  0  0  0  0  0  0  0  0
   37.7940   30.0750   36.9560 H   0  0  0  0  0  0  0  0  0  0  0  0
   36.5580   31.4360   36.7690 H   0  0  0  0  0  0  0  0  0  0  0  0
   36.0420   31.3760   39.2030 H   0  0  0  0  0  0  0  0  0  0  0  0
   39.4920   31.2990   38.6660 C   0  0  0  0  0  0  0  0  0  0  0  0
   39.4840   30.7110   39.6250 H   0  0  0  0  0  0  0  0  0  0  0  0
   39.8200   30.5620   37.8890 H   0  0  0  0  0  0  0  0  0  0  0  0
   40.5380   32.3360   38.6930 C   0  0  0  0  0  0  0  0  0  0  0  0
   41.1630   32.5130   37.4880 C   0  0  0  0  0  0  0  0  0  0  0  0
   42.1940   33.4610   37.3610 C   0  0  0  0  0  0  0  0  0  0  0  0
   42.4990   34.1610   38.5100 N   0  0  0  0  0  0  0  0  0  0  0  0
   41.8660   33.9660   39.6830 C   0  0  0  0  0  0  0  0  0  0  0  0
   40.9000   33.0610   39.7590 N   0  0  0  0  0  0  0  0  0  0  0  0
   41.0640   32.0830   36.5000 H   0  0  0  0  0  0  0  0  0  0  0  0
   42.7830   33.7240   36.4960 H   0  0  0  0  0  0  0  0  0  0  0  0
   42.1980   34.5780   40.5110 H   0  0  0  0  0  0  0  0  0  0  0  0
   37.3610   29.7930   39.5720 O   0  0  0  0  0  0  0  0  0  0  0  0
   38.0680   30.2890   42.0960 O   0  0  0  0  0  0  0  0  0  0  0  0
   36.9260   29.8440   41.1970 P   0  0  1  0  0  0  0  0  0  0  0  0
   35.6620   30.9790   41.3720 O   0  0  0  0  0  0  0  0  0  0  0  0
   35.9650   31.9010   41.2090 H   0  0  0  0  0  0  0  0  0  0  0  0
   36.3520   28.3180   41.6530 O   0  0  0  0  0  0  0  0  0  0  0  0
   38.1980   27.3140   43.6780 Cl  0  0  0  0  0  0  0  0  0  0  0  0
   37.7640   26.5610   42.1580 C   0  0  0  0  0  0  0  0  0  0  0  0
   36.8780   27.1000   41.2480 C   0  0  0  0  0  0  0  0  0  0  0  0
   36.5870   26.4430   40.0700 C   0  0  0  0  0  0  0  0  0  0  0  0
   35.8900   26.9210   39.4090 H   0  0  0  0  0  0  0  0  0  0  0  0
   37.2180   25.2220   39.8350 C   0  0  0  0  0  0  0  0  0  0  0  0
   36.9720   24.7230   38.8970 H   0  0  0  0  0  0  0  0  0  0  0  0
   38.1090   24.6750   40.7460 C   0  0  0  0  0  3  0  0  0  0  0  0
   38.3980   25.3460   41.9380 C   0  0  0  0  0  3  0  0  0  0  0  0
  1  4  1  1  0  0  0
  1  8  1  0  0  0  0
  1  3  1  0  0  0  0
  2  1  1  0  0  0  0
  2  3  1  0  0  0  0
  3  7  1  1  0  0  0
  3 20  1  0  0  0  0
  5  2  1  0  0  0  0
  6  2  1  0  0  0  0
  8 11  1  0  0  0  0
  8  9  1  0  0  0  0
 10  8  1  0  0  0  0
 11 16  1  0  0  0  0
 12 11  2  0  0  0  0
 13 12  1  0  0  0  0
 13 14  2  0  0  0  0
 14 15  1  0  0  0  0
 15 16  2  0  0  0  0
 15 19  1  0  0  0  0
 17 12  1  0  0  0  0
 18 13  1  0  0  0  0
 20 22  1  0  0  0  0
 22 23  1  0  0  0  0
 22 25  1  0  0  0  0
 22 21  2  1  0  0  0
 24 23  1  0  0  0  0
 27 26  1  0  0  0  0
 28 25  1  0  0  0  0
 28 27  2  0  0  0  0
 29 28  1  0  0  0  0
 30 29  1  0  0  0  0
 31 29  2  0  0  0  0
 31 33  1  0  0  0  0
 32 31  1  0  0  0  0
 33 34  2  0  0  0  0
 34 27  1  0  0  0  0
M  END
>  <minimizedAffinity>
-5.23356771

$$$$

 OpenBabel03252500453D

 34 36  0  0  1  0  0  0  0  0999 V2000
   37.4330   30.1210   37.5040 C   0  0  1  0  0  0  0  0  0  0  0  0
   36.3350   29.0690   37.5440 C   0  0  0  0  0  0  0  0  0  0  0  0
   36.5550   29.9990   38.7140 C   0  0  1  0  0  0  0  0  0  0  0  0
   37.1620   30.9340   36.7890 H   0  0  0  0  0  0  0  0  0  0  0  0
   36.6460   28.0030   37.6750 H   0  0  0  0  0  0  0  0  0  0  0  0
   35.4090   29.1900   36.9840 H   0  0  0  0  0  0  0  0  0  0  0  0
   35.7410   30.7370   38.9050 H   0  0  0  0  0  0  0  0  0  0  0  0
   38.8110   29.6230   37.6680 C   0  0  0  0  0  0  0  0  0  0  0  0
   38.8010   28.7140   38.3320 H   0  0  0  0  0  0  0  0  0  0  0  0
   39.2270   29.2540   36.6950 H   0  0  0  0  0  0  0  0  0  0  0  0
   39.7770   30.6210   38.1570 C   0  0  0  0  0  0  0  0  0  0  0  0
   40.6960   30.1070   39.0330 C   0  0  0  0  0  0  0  0  0  0  0  0
   41.6780   30.9430   39.5960 C   0  0  0  0  0  0  0  0  0  0  0  0
   41.6290   32.2630   39.1990 N   0  0  0  0  0  0  0  0  0  0  0  0
   40.7130   32.7400   38.3340 C   0  0  0  0  0  0  0  0  0  0  0  0
   39.8050   31.9190   37.8280 N   0  0  0  0  0  0  0  0  0  0  0  0
   40.9000   29.1290   39.4480 H   0  0  0  0  0  0  0  0  0  0  0  0
   42.4660   30.7040   40.2920 H   0  0  0  0  0  0  0  0  0  0  0  0
   40.7810   33.7950   38.1030 H   0  0  0  0  0  0  0  0  0  0  0  0
   37.1200   29.4750   39.8470 O   0  0  0  0  0  0  0  0  0  0  0  0
   38.1060   31.6850   40.9680 O   0  0  0  0  0  0  0  0  0  0  0  0
   37.1120   30.5490   41.1420 P   0  0  1  0  0  0  0  0  0  0  0  0
   35.5540   31.2400   41.2490 O   0  0  0  0  0  0  0  0  0  0  0  0
   35.3580   31.8330   40.4880 H   0  0  0  0  0  0  0  0  0  0  0  0
   37.4190   29.6840   42.5650 O   0  0  0  0  0  0  0  0  0  0  0  0
   36.6070   27.1120   43.6790 Cl  0  0  0  0  0  0  0  0  0  0  0  0
   38.2330   27.6660   43.3430 C   0  0  0  0  0  0  0  0  0  0  0  0
   38.5380   28.9030   42.8120 C   0  0  0  0  0  0  0  0  0  0  0  0
   39.8480   29.2660   42.5750 C   0  0  0  0  0  0  0  0  0  0  0  0
   40.0130   30.2430   42.1610 H   0  0  0  0  0  0  0  0  0  0  0  0
   40.8450   28.3430   42.8890 C   0  0  0  0  0  0  0  0  0  0  0  0
   41.8720   28.6540   42.6920 H   0  0  0  0  0  0  0  0  0  0  0  0
   40.5440   27.0990   43.4220 C   0  0  0  0  0  3  0  0  0  0  0  0
   39.2140   26.7370   43.6590 C   0  0  0  0  0  3  0  0  0  0  0  0
  1  4  1  6  0  0  0
  1  2  1  0  0  0  0
  1  8  1  0  0  0  0
  1  3  1  0  0  0  0
  2  5  1  0  0  0  0
  2  3  1  0  0  0  0
  3  7  1  1  0  0  0
  3 20  1  0  0  0  0
  6  2  1  0  0  0  0
  8 11  1  0  0  0  0
  8  9  1  0  0  0  0
 10  8  1  0  0  0  0
 11 12  1  0  0  0  0
 12 17  1  0  0  0  0
 12 13  2  0  0  0  0
 13 18  1  0  0  0  0
 14 13  1  0  0  0  0
 15 14  2  0  0  0  0
 16 11  2  0  0  0  0
 16 15  1  0  0  0  0
 19 15  1  0  0  0  0
 20 22  1  0  0  0  0
 22 21  2  6  0  0  0
 22 23  1  0  0  0  0
 22 25  1  0  0  0  0
 24 23  1  0  0  0  0
 25 28  1  0  0  0  0
 27 34  1  0  0  0  0
 27 26  1  0  0  0  0
 28 27  2  0  0  0  0
 29 28  1  0  0  0  0
 29 31  2  0  0  0  0
 30 29  1  0  0  0  0
 31 33  1  0  0  0  0
 32 31  1  0  0  0  0
 33 34  2  0  0  0  0
M  END
>  <minimizedAffinity>
-5.20337248

$$$$

 OpenBabel03252500453D

 34 36  0  0  1  0  0  0  0  0999 V2000
   38.7700   28.2880   39.0010 C   0  0  1  0  0  0  0  0  0  0  0  0
   38.6090   29.0190   37.6760 C   0  0  0  0  0  0  0  0  0  0  0  0
   38.4340   29.7510   38.9870 C   0  0  1  0  0  0  0  0  0  0  0  0
   39.8430   28.0400   39.1760 H   0  0  0  0  0  0  0  0  0  0  0  0
   37.6860   28.8110   37.0820 H   0  0  0  0  0  0  0  0  0  0  0  0
   39.4690   29.2930   37.0690 H   0  0  0  0  0  0  0  0  0  0  0  0
   39.2110   30.5160   39.2200 H   0  0  0  0  0  0  0  0  0  0  0  0
   37.6650   27.3890   39.3810 C   0  0  0  0  0  0  0  0  0  0  0  0
   36.8970   27.9690   39.9640 H   0  0  0  0  0  0  0  0  0  0  0  0
   37.1120   27.0230   38.4770 H   0  0  0  0  0  0  0  0  0  0  0  0
   38.0740   26.1770   40.1100 C   0  0  0  0  0  0  0  0  0  0  0  0
   37.0250   25.4930   40.6640 C   0  0  0  0  0  0  0  0  0  0  0  0
   37.2600   24.3190   41.4030 C   0  0  0  0  0  0  0  0  0  0  0  0
   38.5830   23.9410   41.5080 N   0  0  0  0  0  0  0  0  0  0  0  0
   39.5950   24.6340   40.9510 C   0  0  0  0  0  0  0  0  0  0  0  0
   39.3290   25.7360   40.2640 N   0  0  0  0  0  0  0  0  0  0  0  0
   35.9500   25.6170   40.6850 H   0  0  0  0  0  0  0  0  0  0  0  0
   36.5580   23.6680   41.8990 H   0  0  0  0  0  0  0  0  0  0  0  0
   40.5880   24.2340   41.1060 H   0  0  0  0  0  0  0  0  0  0  0  0
   37.1630   30.1050   39.3530 O   0  0  0  0  0  0  0  0  0  0  0  0
   37.3060   32.6310   40.1970 O   0  0  0  0  0  0  0  0  0  0  0  0
   37.1280   31.1890   40.6400 P   0  0  1  0  0  0  0  0  0  0  0  0
   35.6000   31.0680   41.3940 O   0  0  0  0  0  0  0  0  0  0  0  0
   34.8750   31.4040   40.8200 H   0  0  0  0  0  0  0  0  0  0  0  0
   38.3200   30.7440   41.7570 O   0  0  0  0  0  0  0  0  0  0  0  0
   41.0950   29.8470   41.8600 Cl  0  0  0  0  0  0  0  0  0  0  0  0
   39.6850   29.0360   42.5040 C   0  0  0  0  0  0  0  0  0  0  0  0
   38.3980   29.5260   42.4160 C   0  0  0  0  0  0  0  0  0  0  0  0
   37.3360   28.8250   42.9520 C   0  0  0  0  0  0  0  0  0  0  0  0
   36.3630   29.2660   42.8460 H   0  0  0  0  0  0  0  0  0  0  0  0
   37.6100   27.6120   43.5810 C   0  0  0  0  0  0  0  0  0  0  0  0
   36.7550   27.0770   43.9960 H   0  0  0  0  0  0  0  0  0  0  0  0
   38.9010   27.1140   43.6730 C   0  0  0  0  0  3  0  0  0  0  0  0
   39.9730   27.8300   43.1290 C   0  0  0  0  0  3  0  0  0  0  0  0
  1  4  1  1  0  0  0
  1  8  1  0  0  0  0
  2  3  1  0  0  0  0
  2  1  1  0  0  0  0
  3  1  1  0  0  0  0
  3  7  1  1  0  0  0
  3 20  1  0  0  0  0
  5  2  1  0  0  0  0
  6  2  1  0  0  0  0
  8  9  1  0  0  0  0
  8 11  1  0  0  0  0
 10  8  1  0  0  0  0
 11 16  2  0  0  0  0
 11 12  1  0  0  0  0
 12 17  1  0  0  0  0
 12 13  2  0  0  0  0
 13 14  1  0  0  0  0
 13 18  1  0  0  0  0
 15 19  1  0  0  0  0
 15 14  2  0  0  0  0
 16 15  1  0  0  0  0
 20 22  1  0  0  0  0
 22 21  2  6  0  0  0
 22 23  1  0  0  0  0
 22 25  1  0  0  0  0
 24 23  1  0  0  0  0
 25 28  1  0  0  0  0
 26 27  1  0  0  0  0
 27 34  1  0  0  0  0
 28 27  2  0  0  0  0
 28 29  1  0  0  0  0
 29 31  2  0  0  0  0
 30 29  1  0  0  0  0
 31 33  1  0  0  0  0
 31 32  1  0  0  0  0
 34 33  2  0  0  0  0
M  END
>  <minimizedAffinity>
-5.18795824

$$$$

 OpenBabel03252500453D

 34 36  0  0  1  0  0  0  0  0999 V2000
   40.5120   29.2890   40.6540 C   0  0  1  0  0  0  0  0  0  0  0  0
   41.7680   29.1880   39.8010 C   0  0  0  0  0  0  0  0  0  0  0  0
   40.8240   30.3590   39.6490 C   0  0  1  0  0  0  0  0  0  0  0  0
   40.7820   29.5240   41.7100 H   0  0  0  0  0  0  0  0  0  0  0  0
   41.7740   28.4290   38.9800 H   0  0  0  0  0  0  0  0  0  0  0  0
   42.7530   29.3990   40.2110 H   0  0  0  0  0  0  0  0  0  0  0  0
   41.2230   31.3470   39.9740 H   0  0  0  0  0  0  0  0  0  0  0  0
   39.4100   28.3800   40.2900 C   0  0  0  0  0  0  0  0  0  0  0  0
   38.8340   28.8200   39.4280 H   0  0  0  0  0  0  0  0  0  0  0  0
   39.8000   27.4060   39.8970 H   0  0  0  0  0  0  0  0  0  0  0  0
   38.5060   28.0250   41.3980 C   0  0  0  0  0  0  0  0  0  0  0  0
   38.5870   28.8800   42.4640 C   0  0  0  0  0  0  0  0  0  0  0  0
   37.7930   28.6620   43.6040 C   0  0  0  0  0  0  0  0  0  0  0  0
   36.9640   27.5610   43.5470 N   0  0  0  0  0  0  0  0  0  0  0  0
   36.9050   26.7370   42.4820 C   0  0  0  0  0  0  0  0  0  0  0  0
   37.6720   26.9780   41.4280 N   0  0  0  0  0  0  0  0  0  0  0  0
   39.1490   29.7760   42.6900 H   0  0  0  0  0  0  0  0  0  0  0  0
   37.7340   29.2310   44.5190 H   0  0  0  0  0  0  0  0  0  0  0  0
   36.2140   25.9070   42.5600 H   0  0  0  0  0  0  0  0  0  0  0  0
   40.0440   30.4060   38.5230 O   0  0  0  0  0  0  0  0  0  0  0  0
   39.9410   32.9850   39.1960 O   0  0  0  0  0  0  0  0  0  0  0  0
   39.4760   31.9520   38.1820 P   0  0  1  0  0  0  0  0  0  0  0  0
   40.0860   32.4180   36.6570 O   0  0  0  0  0  0  0  0  0  0  0  0
   41.0610   32.5540   36.6720 H   0  0  0  0  0  0  0  0  0  0  0  0
   37.7860   31.9030   38.0970 O   0  0  0  0  0  0  0  0  0  0  0  0
   36.6560   29.7230   36.5200 Cl  0  0  0  0  0  0  0  0  0  0  0  0
   36.3840   30.0690   38.2130 C   0  0  0  0  0  0  0  0  0  0  0  0
   36.9570   31.1240   38.8930 C   0  0  0  0  0  0  0  0  0  0  0  0
   36.6920   31.3310   40.2310 C   0  0  0  0  0  0  0  0  0  0  0  0
   37.1720   32.1710   40.6960 H   0  0  0  0  0  0  0  0  0  0  0  0
   35.8290   30.4400   40.8670 C   0  0  0  0  0  0  0  0  0  0  0  0
   35.6350   30.6250   41.9250 H   0  0  0  0  0  0  0  0  0  0  0  0
   35.2500   29.3780   40.1900 C   0  0  0  0  0  3  0  0  0  0  0  0
   35.5230   29.1740   38.8330 C   0  0  0  0  0  3  0  0  0  0  0  0
  1  4  1  1  0  0  0
  2  6  1  0  0  0  0
  2  1  1  0  0  0  0
  3  2  1  0  0  0  0
  3  7  1  1  0  0  0
  3  1  1  0  0  0  0
  5  2  1  0  0  0  0
  8  1  1  0  0  0  0
  8 11  1  0  0  0  0
  9  8  1  0  0  0  0
 10  8  1  0  0  0  0
 11 16  2  0  0  0  0
 11 12  1  0  0  0  0
 12 17  1  0  0  0  0
 12 13  2  0  0  0  0
 13 18  1  0  0  0  0
 14 13  1  0  0  0  0
 15 19  1  0  0  0  0
 15 14  2  0  0  0  0
 16 15  1  0  0  0  0
 20  3  1  0  0  0  0
 22 20  1  0  0  0  0
 22 21  2  1  0  0  0
 23 24  1  0  0  0  0
 23 22  1  0  0  0  0
 25 22  1  0  0  0  0
 25 28  1  0  0  0  0
 26 27  1  0  0  0  0
 27 34  2  0  0  0  0
 27 28  1  0  0  0  0
 28 29  2  0  0  0  0
 29 30  1  0  0  0  0
 29 31  1  0  0  0  0
 31 32  1  0  0  0  0
 33 31  2  0  0  0  0
 34 33  1  0  0  0  0
M  END
>  <minimizedAffinity>
-5.05944014

$$$$

 OpenBabel03252500453D

 34 36  0  0  1  0  0  0  0  0999 V2000
   37.4040   31.4710   38.0550 C   0  0  1  0  0  0  0  0  0  0  0  0
   37.2390   32.6780   38.9680 C   0  0  0  0  0  0  0  0  0  0  0  0
   38.4630   31.7960   39.0690 C   0  0  1  0  0  0  0  0  0  0  0  0
   37.6150   31.8040   37.0120 H   0  0  0  0  0  0  0  0  0  0  0  0
   36.4870   32.6010   39.7920 H   0  0  0  0  0  0  0  0  0  0  0  0
   37.3900   33.6920   38.6050 H   0  0  0  0  0  0  0  0  0  0  0  0
   39.4240   32.2660   38.7570 H   0  0  0  0  0  0  0  0  0  0  0  0
   36.5630   30.3030   38.3710 C   0  0  0  0  0  0  0  0  0  0  0  0
   37.1230   29.6180   39.0650 H   0  0  0  0  0  0  0  0  0  0  0  0
   35.6520   30.6030   38.9500 H   0  0  0  0  0  0  0  0  0  0  0  0
   36.0590   29.5660   37.1990 C   0  0  0  0  0  0  0  0  0  0  0  0
   36.7310   29.8550   36.0420 C   0  0  0  0  0  0  0  0  0  0  0  0
   36.3550   29.2370   34.8350 C   0  0  0  0  0  0  0  0  0  0  0  0
   35.2990   28.3550   34.9260 N   0  0  0  0  0  0  0  0  0  0  0  0
   34.6570   28.0890   36.0800 C   0  0  0  0  0  0  0  0  0  0  0  0
   35.0420   28.6940   37.1950 N   0  0  0  0  0  0  0  0  0  0  0  0
   37.5650   30.4900   35.7750 H   0  0  0  0  0  0  0  0  0  0  0  0
   36.7720   29.3500   33.8470 H   0  0  0  0  0  0  0  0  0  0  0  0
   33.8430   27.3780   36.0200 H   0  0  0  0  0  0  0  0  0  0  0  0
   38.5630   30.9680   40.1550 O   0  0  0  0  0  0  0  0  0  0  0  0
   41.1130   31.3890   40.8140 O   0  0  0  0  0  0  0  0  0  0  0  0
   39.6760   31.5110   41.2940 P   0  0  1  0  0  0  0  0  0  0  0  0
   39.3710   33.1660   41.5870 O   0  0  0  0  0  0  0  0  0  0  0  0
   39.5830   33.7260   40.8070 H   0  0  0  0  0  0  0  0  0  0  0  0
   39.4410   30.6530   42.7340 O   0  0  0  0  0  0  0  0  0  0  0  0
   41.4700   28.5730   43.0080 Cl  0  0  0  0  0  0  0  0  0  0  0  0
   39.7320   28.3740   42.9810 C   0  0  0  0  0  0  0  0  0  0  0  0
   38.8320   29.4120   42.8480 C   0  0  0  0  0  0  0  0  0  0  0  0
   37.4730   29.1730   42.8360 C   0  0  0  0  0  0  0  0  0  0  0  0
   36.8320   30.0270   42.7290 H   0  0  0  0  0  0  0  0  0  0  0  0
   37.0450   27.8520   42.9630 C   0  0  0  0  0  0  0  0  0  0  0  0
   35.9670   27.6880   42.9500 H   0  0  0  0  0  0  0  0  0  0  0  0
   37.9440   26.8050   43.0970 C   0  0  0  0  0  3  0  0  0  0  0  0
   39.3200   27.0540   43.1090 C   0  0  0  0  0  3  0  0  0  0  0  0
  1  4  1  6  0  0  0
  1  8  1  0  0  0  0
  1  2  1  0  0  0  0
  1  3  1  0  0  0  0
  2  3  1  0  0  0  0
  2  5  1  0  0  0  0
  3  7  1  6  0  0  0
  3 20  1  0  0  0  0
  6  2  1  0  0  0  0
  8 10  1  0  0  0  0
  8  9  1  0  0  0  0
 11  8  1  0  0  0  0
 12 11  2  0  0  0  0
 13 14  2  0  0  0  0
 13 12  1  0  0  0  0
 14 15  1  0  0  0  0
 15 16  2  0  0  0  0
 16 11  1  0  0  0  0
 17 12  1  0  0  0  0
 18 13  1  0  0  0  0
 19 15  1  0  0  0  0
 20 22  1  0  0  0  0
 22 21  2  6  0  0  0
 22 23  1  0  0  0  0
 22 25  1  0  0  0  0
 24 23  1  0  0  0  0
 25 28  1  0  0  0  0
 27 26  1  0  0  0  0
 27 34  1  0  0  0  0
 28 27  2  0  0  0  0
 29 28  1  0  0  0  0
 29 31  2  0  0  0  0
 30 29  1  0  0  0  0
 31 33  1  0  0  0  0
 32 31  1  0  0  0  0
 33 34  2  0  0  0  0
M  END
>  <minimizedAffinity>
-4.99756336

$$$$

 OpenBabel03252500453D

 34 36  0  0  1  0  0  0  0  0999 V2000
   36.1090   27.8840   38.4940 C   0  0  1  0  0  0  0  0  0  0  0  0
   34.6940   28.3870   38.2490 C   0  0  0  0  0  0  0  0  0  0  0  0
   35.7490   29.3020   38.8280 C   0  0  1  0  0  0  0  0  0  0  0  0
   36.6380   27.7350   37.5230 H   0  0  0  0  0  0  0  0  0  0  0  0
   33.8930   28.0300   38.9420 H   0  0  0  0  0  0  0  0  0  0  0  0
   34.3370   28.6180   37.2480 H   0  0  0  0  0  0  0  0  0  0  0  0
   36.0740   30.1420   38.1720 H   0  0  0  0  0  0  0  0  0  0  0  0
   36.2840   26.9850   39.6490 C   0  0  0  0  0  0  0  0  0  0  0  0
   35.8960   27.4920   40.5760 H   0  0  0  0  0  0  0  0  0  0  0  0
   35.6520   26.0660   39.5480 H   0  0  0  0  0  0  0  0  0  0  0  0
   37.6590   26.4970   39.8540 C   0  0  0  0  0  0  0  0  0  0  0  0
   37.7170   25.2480   40.4130 C   0  0  0  0  0  0  0  0  0  0  0  0
   38.9630   24.6530   40.6800 C   0  0  0  0  0  0  0  0  0  0  0  0
   40.0650   25.4100   40.3400 N   0  0  0  0  0  0  0  0  0  0  0  0
   39.9770   26.6360   39.7900 C   0  0  0  0  0  0  0  0  0  0  0  0
   38.7830   27.1610   39.5560 N   0  0  0  0  0  0  0  0  0  0  0  0
   36.9900   24.5140   40.7310 H   0  0  0  0  0  0  0  0  0  0  0  0
   39.1860   23.6900   41.1110 H   0  0  0  0  0  0  0  0  0  0  0  0
   40.9160   27.1280   39.5690 H   0  0  0  0  0  0  0  0  0  0  0  0
   35.6520   29.6260   40.1550 O   0  0  0  0  0  0  0  0  0  0  0  0
   38.1690   30.4290   39.7940 O   0  0  0  0  0  0  0  0  0  0  0  0
   36.9610   30.5250   40.7100 P   0  0  1  0  0  0  0  0  0  0  0  0
   36.4900   32.1660   40.7700 O   0  0  0  0  0  0  0  0  0  0  0  0
   36.3450   32.5430   39.8730 H   0  0  0  0  0  0  0  0  0  0  0  0
   37.3450   30.0150   42.2780 O   0  0  0  0  0  0  0  0  0  0  0  0
   36.3800   27.4730   43.3420 Cl  0  0  0  0  0  0  0  0  0  0  0  0
   38.0410   27.9870   43.1410 C   0  0  0  0  0  0  0  0  0  0  0  0
   38.4200   29.2110   42.6280 C   0  0  0  0  0  0  0  0  0  0  0  0
   39.7540   29.5420   42.5010 C   0  0  0  0  0  0  0  0  0  0  0  0
   39.9750   30.5110   42.0940 H   0  0  0  0  0  0  0  0  0  0  0  0
   40.6980   28.6010   42.9080 C   0  0  0  0  0  0  0  0  0  0  0  0
   41.7450   28.8860   42.7980 H   0  0  0  0  0  0  0  0  0  0  0  0
   40.3240   27.3700   43.4240 C   0  0  0  0  0  3  0  0  0  0  0  0
   38.9700   27.0400   43.5490 C   0  0  0  0  0  3  0  0  0  0  0  0
  1  4  1  6  0  0  0
  1  3  1  0  0  0  0
  1  8  1  0  0  0  0
  2  1  1  0  0  0  0
  2  3  1  0  0  0  0
  2  5  1  0  0  0  0
  3  7  1  6  0  0  0
  3 20  1  0  0  0  0
  6  2  1  0  0  0  0
  8 11  1  0  0  0  0
  8  9  1  0  0  0  0
 10  8  1  0  0  0  0
 11 12  1  0  0  0  0
 12 13  2  0  0  0  0
 12 17  1  0  0  0  0
 13 18  1  0  0  0  0
 14 13  1  0  0  0  0
 15 14  2  0  0  0  0
 16 15  1  0  0  0  0
 16 11  2  0  0  0  0
 19 15  1  0  0  0  0
 20 22  1  0  0  0  0
 22 21  2  6  0  0  0
 22 23  1  0  0  0  0
 22 25  1  0  0  0  0
 24 23  1  0  0  0  0
 25 28  1  0  0  0  0
 27 26  1  0  0  0  0
 27 34  1  0  0  0  0
 28 27  2  0  0  0  0
 29 28  1  0  0  0  0
 29 31  2  0  0  0  0
 30 29  1  0  0  0  0
 31 33  1  0  0  0  0
 32 31  1  0  0  0  0
 33 34  2  0  0  0  0
M  END
>  <minimizedAffinity>
-4.96478558

$$$$

 OpenBabel03252500453D

 34 36  0  0  1  0  0  0  0  0999 V2000
   35.9260   28.4750   39.2770 C   0  0  1  0  0  0  0  0  0  0  0  0
   35.0400   29.0430   38.1780 C   0  0  0  0  0  0  0  0  0  0  0  0
   36.4220   29.6050   38.4230 C   0  0  1  0  0  0  0  0  0  0  0  0
   36.2880   27.4580   38.9920 H   0  0  0  0  0  0  0  0  0  0  0  0
   34.1710   29.6740   38.4910 H   0  0  0  0  0  0  0  0  0  0  0  0
   34.8820   28.5130   37.2420 H   0  0  0  0  0  0  0  0  0  0  0  0
   37.1670   29.4240   37.6150 H   0  0  0  0  0  0  0  0  0  0  0  0
   35.5560   28.8380   40.6570 C   0  0  0  0  0  0  0  0  0  0  0  0
   35.2330   29.9150   40.6840 H   0  0  0  0  0  0  0  0  0  0  0  0
   34.6550   28.2670   40.9990 H   0  0  0  0  0  0  0  0  0  0  0  0
   36.5960   28.5750   41.6670 C   0  0  0  0  0  0  0  0  0  0  0  0
   36.8340   27.2420   41.8720 C   0  0  0  0  0  0  0  0  0  0  0  0
   37.7920   26.8350   42.8170 C   0  0  0  0  0  0  0  0  0  0  0  0
   38.4380   27.8550   43.4840 N   0  0  0  0  0  0  0  0  0  0  0  0
   38.1830   29.1590   43.2610 C   0  0  0  0  0  0  0  0  0  0  0  0
   37.2710   29.5000   42.3620 N   0  0  0  0  0  0  0  0  0  0  0  0
   36.4520   26.3200   41.4550 H   0  0  0  0  0  0  0  0  0  0  0  0
   38.1000   25.8400   43.0990 H   0  0  0  0  0  0  0  0  0  0  0  0
   38.7560   29.8640   43.8490 H   0  0  0  0  0  0  0  0  0  0  0  0
   36.5120   30.8390   39.0110 O   0  0  0  0  0  0  0  0  0  0  0  0
   37.6120   31.7280   36.7500 O   0  0  0  0  0  0  0  0  0  0  0  0
   37.6400   31.8410   38.2650 P   0  0  1  0  0  0  0  0  0  0  0  0
   37.2620   33.4570   38.6670 O   0  0  0  0  0  0  0  0  0  0  0  0
   36.4180   33.7540   38.2580 H   0  0  0  0  0  0  0  0  0  0  0  0
   39.1770   31.4760   38.8740 O   0  0  0  0  0  0  0  0  0  0  0  0
   39.9070   28.8080   37.9410 Cl  0  0  0  0  0  0  0  0  0  0  0  0
   40.7760   30.3050   37.6860 C   0  0  0  0  0  0  0  0  0  0  0  0
   40.3650   31.5340   38.1610 C   0  0  0  0  0  0  0  0  0  0  0  0
   41.1080   32.6710   37.9170 C   0  0  0  0  0  0  0  0  0  0  0  0
   40.7290   33.5920   38.3160 H   0  0  0  0  0  0  0  0  0  0  0  0
   42.2820   32.5330   37.1770 C   0  0  0  0  0  0  0  0  0  0  0  0
   42.8520   33.4460   36.9980 H   0  0  0  0  0  0  0  0  0  0  0  0
   42.7000   31.3020   36.6970 C   0  0  0  0  0  3  0  0  0  0  0  0
   41.9420   30.1530   36.9480 C   0  0  0  0  0  3  0  0  0  0  0  0
  1  4  1  6  0  0  0
  1  8  1  0  0  0  0
  2  3  1  0  0  0  0
  2  5  1  0  0  0  0
  2  1  1  0  0  0  0
  3  7  1  6  0  0  0
  3 20  1  0  0  0  0
  3  1  1  0  0  0  0
  6  2  1  0  0  0  0
  8  9  1  0  0  0  0
  8 10  1  0  0  0  0
  8 11  1  0  0  0  0
 11 12  2  0  0  0  0
 11 16  1  0  0  0  0
 12 13  1  0  0  0  0
 13 18  1  0  0  0  0
 13 14  2  0  0  0  0
 15 14  1  0  0  0  0
 15 19  1  0  0  0  0
 16 15  2  0  0  0  0
 17 12  1  0  0  0  0
 22 21  2  6  0  0  0
 22 23  1  0  0  0  0
 22 25  1  0  0  0  0
 22 20  1  0  0  0  0
 24 23  1  0  0  0  0
 27 26  1  0  0  0  0
 27 28  1  0  0  0  0
 28 25  1  0  0  0  0
 29 28  2  0  0  0  0
 29 30  1  0  0  0  0
 31 29  1  0  0  0  0
 32 31  1  0  0  0  0
 33 34  1  0  0  0  0
 33 31  2  0  0  0  0
 34 27  2  0  0  0  0
M  END
>  <minimizedAffinity>
-4.96229696

$$$$

 OpenBabel03252500453D

 34 36  0  0  1  0  0  0  0  0999 V2000
   36.1370   28.4310   37.7800 C   0  0  1  0  0  0  0  0  0  0  0  0
   34.8800   29.2170   37.4370 C   0  0  0  0  0  0  0  0  0  0  0  0
   35.9840   29.8460   38.2550 C   0  0  1  0  0  0  0  0  0  0  0  0
   36.7640   28.2910   36.8680 H   0  0  0  0  0  0  0  0  0  0  0  0
   33.9390   28.9450   37.9760 H   0  0  0  0  0  0  0  0  0  0  0  0
   34.7140   29.6190   36.4400 H   0  0  0  0  0  0  0  0  0  0  0  0
   36.5400   30.6760   37.7590 H   0  0  0  0  0  0  0  0  0  0  0  0
   35.9870   27.3950   38.8180 C   0  0  0  0  0  0  0  0  0  0  0  0
   35.4630   27.8360   39.7110 H   0  0  0  0  0  0  0  0  0  0  0  0
   35.3090   26.5710   38.4750 H   0  0  0  0  0  0  0  0  0  0  0  0
   37.2400   26.7320   39.2190 C   0  0  0  0  0  0  0  0  0  0  0  0
   37.0820   25.4080   39.5300 C   0  0  0  0  0  0  0  0  0  0  0  0
   38.1880   24.6440   39.9430 C   0  0  0  0  0  0  0  0  0  0  0  0
   39.3880   25.3220   40.0000 N   0  0  0  0  0  0  0  0  0  0  0  0
   39.5130   26.6260   39.6860 C   0  0  0  0  0  0  0  0  0  0  0  0
   38.4450   27.3100   39.3020 N   0  0  0  0  0  0  0  0  0  0  0  0
   36.2520   24.7140   39.5390 H   0  0  0  0  0  0  0  0  0  0  0  0
   38.2380   23.6030   40.2220 H   0  0  0  0  0  0  0  0  0  0  0  0
   40.5090   27.0430   39.7700 H   0  0  0  0  0  0  0  0  0  0  0  0
   35.7570   30.0360   39.5920 O   0  0  0  0  0  0  0  0  0  0  0  0
   38.3330   30.7250   39.6530 O   0  0  0  0  0  0  0  0  0  0  0  0
   36.9940   30.8830   40.3550 P   0  0  1  0  0  0  0  0  0  0  0  0
   36.5940   32.5440   40.3300 O   0  0  0  0  0  0  0  0  0  0  0  0
   36.6170   32.9180   39.4210 H   0  0  0  0  0  0  0  0  0  0  0  0
   37.0890   30.3730   41.9660 O   0  0  0  0  0  0  0  0  0  0  0  0
   39.9150   30.4330   42.6920 Cl  0  0  0  0  0  0  0  0  0  0  0  0
   38.8230   29.0670   42.7570 C   0  0  0  0  0  0  0  0  0  0  0  0
   37.4920   29.1170   42.3950 C   0  0  0  0  0  0  0  0  0  0  0  0
   36.6950   27.9930   42.4760 C   0  0  0  0  0  0  0  0  0  0  0  0
   35.6700   28.1050   42.1780 H   0  0  0  0  0  0  0  0  0  0  0  0
   37.2800   26.8130   42.9330 C   0  0  0  0  0  0  0  0  0  0  0  0
   36.6290   25.9390   42.9870 H   0  0  0  0  0  0  0  0  0  0  0  0
   38.6160   26.7560   43.2980 C   0  0  0  0  0  3  0  0  0  0  0  0
   39.4190   27.8990   43.2150 C   0  0  0  0  0  3  0  0  0  0  0  0
  1  4  1  6  0  0  0
  1  3  1  0  0  0  0
  1  8  1  0  0  0  0
  2  1  1  0  0  0  0
  2  5  1  0  0  0  0
  2  3  1  0  0  0  0
  3  7  1  6  0  0  0
  3 20  1  0  0  0  0
  6  2  1  0  0  0  0
  8 11  1  0  0  0  0
  8  9  1  0  0  0  0
 10  8  1  0  0  0  0
 11 16  2  0  0  0  0
 11 12  1  0  0  0  0
 12 17  1  0  0  0  0
 12 13  2  0  0  0  0
 13 14  1  0  0  0  0
 13 18  1  0  0  0  0
 15 19  1  0  0  0  0
 15 14  2  0  0  0  0
 16 15  1  0  0  0  0
 20 22  1  0  0  0  0
 22 21  2  6  0  0  0
 22 25  1  0  0  0  0
 23 22  1  0  0  0  0
 24 23  1  0  0  0  0
 25 28  1  0  0  0  0
 26 27  1  0  0  0  0
 27 34  1  0  0  0  0
 28 29  1  0  0  0  0
 28 27  2  0  0  0  0
 29 31  2  0  0  0  0
 30 29  1  0  0  0  0
 31 32  1  0  0  0  0
 31 33  1  0  0  0  0
 34 33  2  0  0  0  0
M  END
>  <minimizedAffinity>
-4.91632986

$$$$
