
 OpenBabel03252506373D

 44 47  0  0  1  0  0  0  0  0999 V2000
   44.4890   35.5880   45.1230 C   0  0  0  0  0  0  0  0  0  0  0  0
   45.1080   35.5640   43.8630 C   0  0  0  0  0  0  0  0  0  0  0  0
   45.9940   34.5790   43.5810 C   0  0  0  0  0  0  0  0  0  0  0  0
   46.2290   33.6640   44.5520 N   0  0  0  0  0  0  0  0  0  0  0  0
   45.6420   33.6910   45.7390 C   0  0  0  0  0  0  0  0  0  0  0  0
   44.7680   34.6470   46.0400 N   0  0  0  0  0  0  0  0  0  0  0  0
   45.9700   32.6710   46.6970 N   0  0  0  0  0  0  0  0  0  0  0  0
   45.2570   32.4410   47.8980 C   0  0  0  0  0  0  0  0  0  0  0  0
   46.3490   32.0600   48.8840 C   0  0  0  0  0  0  0  0  0  0  0  0
   47.6060   31.9300   48.0840 C   0  0  0  0  0  0  0  0  0  0  0  0
   47.0700   31.7300   46.6650 C   0  0  1  0  0  0  0  0  0  0  0  0
   43.7830   36.3870   45.3240 H   0  0  0  0  0  0  0  0  0  0  0  0
   46.4830   34.5370   42.6230 H   0  0  0  0  0  0  0  0  0  0  0  0
   44.4200   31.8310   48.0080 H   0  0  0  0  0  0  0  0  0  0  0  0
   44.9310   33.4650   48.2700 H   0  0  0  0  0  0  0  0  0  0  0  0
   46.1100   31.0230   49.2630 H   0  0  0  0  0  0  0  0  0  0  0  0
   46.4030   32.6880   49.7710 H   0  0  0  0  0  0  0  0  0  0  0  0
   48.2010   31.0750   48.4140 H   0  0  0  0  0  0  0  0  0  0  0  0
   48.1510   32.9050   48.1740 H   0  0  0  0  0  0  0  0  0  0  0  0
   47.8690   32.0310   45.9790 H   0  0  0  0  0  0  0  0  0  0  0  0
   44.7590   36.6060   42.9360 N   0  0  0  0  0  0  0  0  0  0  0  0
   45.5800   36.9100   42.3510 H   0  0  0  0  0  0  0  0  0  0  0  0
   43.8500   37.0530   42.7980 H   0  0  0  0  0  0  0  0  0  0  0  0
   46.5100   30.0530   46.4900 S   0  0  0  0  0  0  0  0  0  0  0  0
   45.8850   30.7470   43.2870 O   0  0  0  0  0  0  0  0  0  0  0  0
   45.1630   30.1210   44.0790 C   0  0  0  0  0  0  0  0  0  0  0  0
   45.0860   29.7870   45.5180 C   0  0  1  0  0  0  0  0  0  0  0  0
   44.5850   28.3630   45.4800 C   0  0  0  0  0  0  0  0  0  0  0  0
   43.3730   28.5940   44.5740 C   0  0  0  0  0  0  0  0  0  0  0  0
   43.9910   29.4570   43.5740 N   0  0  0  0  0  0  0  0  0  0  0  0
   44.1400   30.3350   45.7960 H   0  0  0  0  0  0  0  0  0  0  0  0
   44.3270   27.9540   46.4550 H   0  0  0  0  0  0  0  0  0  0  0  0
   45.3210   27.7690   44.9140 H   0  0  0  0  0  0  0  0  0  0  0  0
   43.0780   27.6520   44.0830 H   0  0  0  0  0  0  0  0  0  0  0  0
   42.5470   29.0810   45.1200 H   0  0  0  0  0  0  0  0  0  0  0  0
   41.1450   30.0890   43.7880 Cl  0  0  0  0  0  0  0  0  0  0  0  0
   42.0350   29.8580   42.2960 C   0  0  0  0  0  0  0  0  0  0  0  0
   43.4010   29.5560   42.2580 C   0  0  0  0  0  0  0  0  0  0  0  0
   44.0800   29.3790   41.0710 C   0  0  0  0  0  0  0  0  0  0  0  0
   45.1340   29.1490   41.1420 H   0  0  0  0  0  0  0  0  0  0  0  0
   43.3640   29.5090   39.8820 C   0  0  0  0  0  0  0  0  0  0  0  0
   43.9110   29.3660   38.9510 H   0  0  0  0  0  0  0  0  0  0  0  0
   42.0100   29.8080   39.9140 C   0  0  0  0  0  3  0  0  0  0  0  0
   41.3340   29.9850   41.1010 C   0  0  0  0  0  3  0  0  0  0  0  0
  1 12  1  0  0  0  0
  1  6  1  0  0  0  0
  2  1  2  0  0  0  0
  3  2  1  0  0  0  0
  3  4  2  0  0  0  0
  4  5  1  0  0  0  0
  5  6  2  0  0  0  0
  5  7  1  0  0  0  0
  7  8  1  0  0  0  0
  8 14  1  0  0  0  0
  8 15  1  0  0  0  0
  8  9  1  0  0  0  0
  9 16  1  0  0  0  0
  9 17  1  0  0  0  0
 10 19  1  0  0  0  0
 10 18  1  0  0  0  0
 10  9  1  0  0  0  0
 11 20  1  6  0  0  0
 11  7  1  0  0  0  0
 11 10  1  0  0  0  0
 13  3  1  0  0  0  0
 21  2  1  0  0  0  0
 22 21  1  0  0  0  0
 23 21  1  0  0  0  0
 24 11  1  0  0  0  0
 25 26  2  0  0  0  0
 26 27  1  0  0  0  0
 27 31  1  1  0  0  0
 27 24  1  0  0  0  0
 28 27  1  0  0  0  0
 28 32  1  0  0  0  0
 29 35  1  0  0  0  0
 29 28  1  0  0  0  0
 30 26  1  0  0  0  0
 30 29  1  0  0  0  0
 33 28  1  0  0  0  0
 34 29  1  0  0  0  0
 37 36  1  0  0  0  0
 38 37  1  0  0  0  0
 38 30  1  0  0  0  0
 39 40  1  0  0  0  0
 39 38  2  0  0  0  0
 41 43  2  0  0  0  0
 41 39  1  0  0  0  0
 42 41  1  0  0  0  0
 43 44  1  0  0  0  0
 44 37  2  0  0  0  0
M  END
>  <minimizedAffinity>
-5.25049496

>  <minimizedRMSD>
0.572259903

$$$$
