
 OpenBabel03252504583D

 37 39  0  0  1  0  0  0  0  0999 V2000
   47.8260   33.9610   41.9700 N   0  0  0  0  0  0  0  0  0  0  0  0
   47.8380   34.9250   40.9380 C   0  0  0  0  0  0  0  0  0  0  0  0
   49.0350   35.7350   41.2670 C   0  0  0  0  0  0  0  0  0  0  0  0
   49.6990   35.1340   42.5000 C   0  0  0  0  0  0  0  0  0  0  0  0
   49.1020   33.7170   42.5050 C   0  0  2  0  0  0  0  0  0  0  0  0
   47.3000   35.2190   40.0770 H   0  0  0  0  0  0  0  0  0  0  0  0
   49.4630   36.5950   40.7730 H   0  0  0  0  0  0  0  0  0  0  0  0
   50.7820   35.0920   42.2650 H   0  0  0  0  0  0  0  0  0  0  0  0
   49.4340   35.6970   43.3960 H   0  0  0  0  0  0  0  0  0  0  0  0
   49.0690   33.2460   43.4840 H   0  0  0  0  0  0  0  0  0  0  0  0
   46.6370   33.4020   42.3660 C   0  0  0  0  0  0  0  0  0  0  0  0
   46.8390   32.3320   42.6420 H   0  0  0  0  0  0  0  0  0  0  0  0
   45.8820   33.2800   41.5550 H   0  0  0  0  0  0  0  0  0  0  0  0
   44.5790   35.8230   44.4250 C   0  0  0  0  0  0  0  0  0  0  0  0
   45.2320   35.2650   43.2830 C   0  0  0  0  0  0  0  0  0  0  0  0
   45.9560   34.0850   43.4430 C   0  0  0  0  0  0  0  0  0  0  0  0
   45.9950   33.5400   44.6850 N   0  0  0  0  0  0  0  0  0  0  0  0
   45.3580   34.0940   45.7740 C   0  0  0  0  0  0  0  0  0  0  0  0
   44.6590   35.2220   45.6440 N   0  0  0  0  0  0  0  0  0  0  0  0
   44.0220   36.7340   44.2930 H   0  0  0  0  0  0  0  0  0  0  0  0
   45.1790   35.7230   42.3280 H   0  0  0  0  0  0  0  0  0  0  0  0
   45.4790   33.5450   46.7010 H   0  0  0  0  0  0  0  0  0  0  0  0
   49.8120   32.9980   41.5330 O   0  0  0  0  0  0  0  0  0  0  0  0
   49.3090   30.7930   42.9420 O   0  0  0  0  0  0  0  0  0  0  0  0
   50.2950   31.4690   42.0120 P   0  0  2  0  0  0  0  0  0  0  0  0
   51.7390   31.6730   42.9170 O   0  0  0  0  0  0  0  0  0  0  0  0
   51.6070   32.4190   43.5470 H   0  0  0  0  0  0  0  0  0  0  0  0
   50.7160   30.5050   40.7070 O   0  0  0  0  0  0  0  0  0  0  0  0
   53.5610   29.3290   41.3890 Cl  0  0  0  0  0  0  0  0  0  0  0  0
   53.1750   30.2800   39.9880 C   0  0  0  0  0  0  0  0  0  0  0  0
   51.8510   30.6490   39.9640 C   0  0  0  0  0  0  0  0  0  0  0  0
   51.4660   31.4240   38.8540 C   0  0  0  0  0  0  0  0  0  0  0  0
   50.4940   31.8600   38.5640 H   0  0  0  0  0  0  0  0  0  0  0  0
   52.3780   31.7860   37.8500 C   0  0  0  0  0  0  0  0  0  0  0  0
   52.1900   32.3730   36.9630 H   0  0  0  0  0  0  0  0  0  0  0  0
   53.6940   31.3810   37.9360 C   0  0  0  0  0  0  0  0  0  0  0  0
   54.0850   30.6220   39.0170 C   0  0  0  0  0  0  0  0  0  0  0  0
  1 11  1  0  0  0  0
  1  5  1  0  0  0  0
  2  3  2  0  0  0  0
  2  1  1  0  0  0  0
  3  4  1  0  0  0  0
  4  5  1  0  0  0  0
  4  9  1  0  0  0  0
  5 10  1  1  0  0  0
  6  2  1  0  0  0  0
  7  3  1  0  0  0  0
  8  4  1  0  0  0  0
 11 12  1  0  0  0  0
 11 16  1  0  0  0  0
 13 11  1  0  0  0  0
 14 19  1  0  0  0  0
 15 16  1  0  0  0  0
 15 14  2  0  0  0  0
 16 17  2  0  0  0  0
 17 18  1  0  0  0  0
 18 22  1  0  0  0  0
 19 18  2  0  0  0  0
 20 14  1  0  0  0  0
 21 15  1  0  0  0  0
 23 25  1  0  0  0  0
 23  5  1  0  0  0  0
 25 26  1  0  0  0  0
 25 24  2  1  0  0  0
 26 27  1  0  0  0  0
 28 25  1  0  0  0  0
 30 29  1  0  0  0  0
 31 30  1  0  0  0  0
 31 28  1  0  0  0  0
 32 31  2  0  0  0  0
 33 32  1  0  0  0  0
 34 36  2  0  0  0  0
 34 32  1  0  0  0  0
 35 34  1  0  0  0  0
 36 37  1  0  0  0  0
 37 30  2  0  0  0  0
M  END
>  <minimizedAffinity>
-5.36087894

>  <minimizedRMSD>
2.51913095

$$$$
