
 OpenBabel03242522413D

 47 50  0  0  0  0  0  0  0  0999 V2000
   46.7370   32.6900   44.3420 C   0  0  0  0  0  0  0  0  0  0  0  0
   47.7570   32.8900   44.7060 H   0  0  0  0  0  0  0  0  0  0  0  0
   46.6540   32.2060   43.3540 H   0  0  0  0  0  0  0  0  0  0  0  0
   46.2120   34.6510   42.9840 C   0  0  0  0  0  0  0  0  0  0  0  0
   46.0400   33.9610   44.1850 C   0  0  0  0  0  0  0  0  0  0  0  0
   45.2660   34.3820   45.2010 C   0  0  0  0  0  0  0  0  0  0  0  0
   44.5820   35.5750   45.0720 C   0  0  0  0  0  0  0  0  0  0  0  0
   44.6800   36.3210   43.9400 C   0  0  0  0  0  0  0  0  0  0  0  0
   45.4890   35.8480   42.9210 C   0  0  0  0  0  0  0  0  0  0  0  0
   45.0430   33.9600   46.1400 H   0  0  0  0  0  0  0  0  0  0  0  0
   43.9240   36.0360   45.8100 H   0  0  0  0  0  0  0  0  0  0  0  0
   44.1770   37.2740   43.7460 H   0  0  0  0  0  0  0  0  0  0  0  0
   45.5870   36.4240   42.0000 H   0  0  0  0  0  0  0  0  0  0  0  0
   47.1350   34.1330   41.6430 S   0  0  0  0  0  0  0  0  0  0  0  0
   47.9190   35.4020   41.0900 O   0  0  0  0  0  0  0  0  0  0  0  0
   46.2590   33.7820   40.4950 O   0  0  0  0  0  0  0  0  0  0  0  0
   47.1630   30.9480   41.3610 Cl  0  0  0  0  0  0  0  0  0  0  0  0
   48.6610   31.8050   41.7680 C   0  0  0  0  0  0  0  0  0  0  0  0
   48.5470   33.1790   41.8650 C   0  0  0  0  0  0  0  0  0  0  0  0
   49.7830   33.7670   42.2010 C   0  0  0  0  0  0  0  0  0  0  0  0
   49.7610   34.8650   42.2950 H   0  0  0  0  0  0  0  0  0  0  0  0
   50.9800   33.1470   42.4200 C   0  0  0  0  0  0  0  0  0  0  0  0
   51.8440   33.7460   42.6720 H   0  0  0  0  0  0  0  0  0  0  0  0
   50.9740   31.7760   42.2960 C   0  0  0  0  0  0  0  0  0  0  0  0
   49.8220   31.1010   41.9710 C   0  0  0  0  0  0  0  0  0  0  0  0
   46.0850   31.6910   45.2550 C   0  0  0  0  0  0  0  0  0  0  0  0
   45.9570   30.6680   44.7970 H   0  0  0  0  0  0  0  0  0  0  0  0
   45.0280   31.9320   45.5240 H   0  0  0  0  0  0  0  0  0  0  0  0
   47.0810   32.4780   47.3830 C   0  0  0  0  0  0  0  0  0  0  0  0
   46.9800   31.4770   46.3910 C   0  0  0  0  0  0  0  0  0  0  0  0
   47.7090   30.3160   46.5620 C   0  0  0  0  0  0  0  0  0  0  0  0
   48.4780   30.2000   47.6690 N   0  0  0  0  0  0  0  0  0  0  0  0
   48.5520   31.1570   48.5900 C   0  0  0  0  0  0  0  0  0  0  0  0
   47.8580   32.3130   48.4670 N   0  0  0  0  0  0  0  0  0  0  0  0
   46.6040   33.4400   47.4260 H   0  0  0  0  0  0  0  0  0  0  0  0
   47.6330   29.5500   45.8000 H   0  0  0  0  0  0  0  0  0  0  0  0
   49.4260   30.9310   49.7920 C   0  0  0  0  0  0  0  0  0  0  0  0
   49.5670   29.8500   49.9720 H   0  0  0  0  0  0  0  0  0  0  0  0
   48.7910   31.2850   50.6540 H   0  0  0  0  0  0  0  0  0  0  0  0
   50.7040   31.6170   49.7150 C   0  0  0  0  0  0  0  0  0  0  0  0
   51.8800   31.0960   49.2090 C   0  0  0  0  0  0  0  0  0  0  0  0
   52.8660   32.0400   49.3070 C   0  0  0  0  0  0  0  0  0  0  0  0
   52.2590   33.1180   49.8720 N   0  0  0  0  0  0  0  0  0  0  0  0
   50.9730   32.8750   50.1180 N   0  0  0  0  0  0  0  0  0  0  0  0
   52.0820   30.1040   48.7830 H   0  0  0  0  0  0  0  0  0  0  0  0
   53.9320   32.0600   49.0350 H   0  0  0  0  0  0  0  0  0  0  0  0
   52.6160   34.0700   50.1370 H   0  0  0  0  0  0  0  0  0  0  0  0
  1  2  1  0  0  0  0
  1 26  1  0  0  0  0
  3  1  1  0  0  0  0
  4  5  1  0  0  0  0
  5  1  1  0  0  0  0
  5  6  2  0  0  0  0
  6 10  1  0  0  0  0
  7  6  1  0  0  0  0
  7 11  1  0  0  0  0
  8  7  2  0  0  0  0
  9  4  2  0  0  0  0
  9  8  1  0  0  0  0
 12  8  1  0  0  0  0
 13  9  1  0  0  0  0
 14 19  1  0  0  0  0
 14  4  1  0  0  0  0
 15 14  2  0  0  0  0
 16 14  2  0  0  0  0
 17 18  1  0  0  0  0
 18 19  2  0  0  0  0
 18 25  1  0  0  0  0
 19 20  1  0  0  0  0
 20 21  1  0  0  0  0
 20 22  2  0  0  0  0
 22 23  1  0  0  0  0
 24 22  1  0  0  0  0
 25 24  2  0  0  0  0
 26 28  1  0  0  0  0
 26 30  1  0  0  0  0
 27 26  1  0  0  0  0
 29 35  1  0  0  0  0
 29 34  1  0  0  0  0
 30 31  1  0  0  0  0
 30 29  2  0  0  0  0
 31 32  2  0  0  0  0
 32 33  1  0  0  0  0
 33 37  1  0  0  0  0
 34 33  2  0  0  0  0
 36 31  1  0  0  0  0
 37 38  1  0  0  0  0
 37 39  1  0  0  0  0
 40 37  1  0  0  0  0
 40 44  2  0  0  0  0
 41 42  2  0  0  0  0
 41 40  1  0  0  0  0
 42 43  1  0  0  0  0
 43 44  1  0  0  0  0
 43 47  1  0  0  0  0
 45 41  1  0  0  0  0
 46 42  1  0  0  0  0
M  END
>  <minimizedAffinity>
-6.59056902

>  <minimizedRMSD>
0.375957161

$$$$
