
 OpenBabel03252506373D

 44 47  0  0  1  0  0  0  0  0999 V2000
   44.5070   35.5310   45.1320 C   0  0  0  0  0  0  0  0  0  0  0  0
   45.1650   35.5240   43.8920 C   0  0  0  0  0  0  0  0  0  0  0  0
   46.0880   34.5660   43.6400 C   0  0  0  0  0  0  0  0  0  0  0  0
   46.3210   33.6600   44.6190 N   0  0  0  0  0  0  0  0  0  0  0  0
   45.6970   33.6700   45.7880 C   0  0  0  0  0  0  0  0  0  0  0  0
   44.7860   34.6000   46.0600 N   0  0  0  0  0  0  0  0  0  0  0  0
   46.0270   32.6620   46.7580 N   0  0  0  0  0  0  0  0  0  0  0  0
   45.2850   32.4120   47.9370 C   0  0  0  0  0  0  0  0  0  0  0  0
   46.3570   32.0670   48.9560 C   0  0  0  0  0  0  0  0  0  0  0  0
   47.6410   31.9730   48.1960 C   0  0  0  0  0  0  0  0  0  0  0  0
   47.1560   31.7550   46.7620 C   0  0  1  0  0  0  0  0  0  0  0  0
   43.7710   36.3080   45.3100 H   0  0  0  0  0  0  0  0  0  0  0  0
   46.6070   34.5380   42.6970 H   0  0  0  0  0  0  0  0  0  0  0  0
   44.4640   31.7770   48.0230 H   0  0  0  0  0  0  0  0  0  0  0  0
   44.9160   33.4270   48.2970 H   0  0  0  0  0  0  0  0  0  0  0  0
   46.1380   31.0230   49.3300 H   0  0  0  0  0  0  0  0  0  0  0  0
   46.3640   32.6960   49.8430 H   0  0  0  0  0  0  0  0  0  0  0  0
   48.2520   31.1370   48.5460 H   0  0  0  0  0  0  0  0  0  0  0  0
   48.1530   32.9650   48.3010 H   0  0  0  0  0  0  0  0  0  0  0  0
   47.9650   32.0790   46.0990 H   0  0  0  0  0  0  0  0  0  0  0  0
   44.8130   36.5530   42.9530 N   0  0  0  0  0  0  0  0  0  0  0  0
   45.6410   36.8810   42.3920 H   0  0  0  0  0  0  0  0  0  0  0  0
   43.8950   36.9720   42.7860 H   0  0  0  0  0  0  0  0  0  0  0  0
   46.6520   30.0620   46.5730 S   0  0  0  0  0  0  0  0  0  0  0  0
   45.6760   30.6380   43.4350 O   0  0  0  0  0  0  0  0  0  0  0  0
   45.0450   30.0470   44.3260 C   0  0  0  0  0  0  0  0  0  0  0  0
   45.1280   29.7680   45.7770 C   0  0  1  0  0  0  0  0  0  0  0  0
   44.6230   28.3470   45.8490 C   0  0  0  0  0  0  0  0  0  0  0  0
   43.3180   28.5510   45.0760 C   0  0  0  0  0  0  0  0  0  0  0  0
   43.8230   29.3720   43.9810 N   0  0  0  0  0  0  0  0  0  0  0  0
   44.2200   30.3330   46.1370 H   0  0  0  0  0  0  0  0  0  0  0  0
   44.4750   27.9760   46.8620 H   0  0  0  0  0  0  0  0  0  0  0  0
   45.2900   27.7270   45.2280 H   0  0  0  0  0  0  0  0  0  0  0  0
   42.9690   27.5930   44.6570 H   0  0  0  0  0  0  0  0  0  0  0  0
   42.5590   29.0640   45.6910 H   0  0  0  0  0  0  0  0  0  0  0  0
   44.7860   27.3020   42.1560 Cl  0  0  0  0  0  0  0  0  0  0  0  0
   43.5090   28.4540   41.8180 C   0  0  0  0  0  0  0  0  0  0  0  0
   43.0910   29.4250   42.7360 C   0  0  0  0  0  0  0  0  0  0  0  0
   42.0830   30.3200   42.4460 C   0  0  0  0  0  0  0  0  0  0  0  0
   41.8290   31.0340   43.2170 H   0  0  0  0  0  0  0  0  0  0  0  0
   41.4750   30.2390   41.1950 C   0  0  0  0  0  0  0  0  0  0  0  0
   40.6790   30.9510   40.9780 H   0  0  0  0  0  0  0  0  0  0  0  0
   41.8850   29.2780   40.2830 C   0  0  0  0  0  3  0  0  0  0  0  0
   42.8930   28.3840   40.5740 C   0  0  0  0  0  3  0  0  0  0  0  0
  1 12  1  0  0  0  0
  1  6  1  0  0  0  0
  2  1  2  0  0  0  0
  3  2  1  0  0  0  0
  3  4  2  0  0  0  0
  4  5  1  0  0  0  0
  5  6  2  0  0  0  0
  5  7  1  0  0  0  0
  7 11  1  0  0  0  0
  7  8  1  0  0  0  0
  8 14  1  0  0  0  0
  8 15  1  0  0  0  0
  8  9  1  0  0  0  0
  9 16  1  0  0  0  0
  9 17  1  0  0  0  0
 10 19  1  0  0  0  0
 10 18  1  0  0  0  0
 10  9  1  0  0  0  0
 11 20  1  6  0  0  0
 11 10  1  0  0  0  0
 13  3  1  0  0  0  0
 21  2  1  0  0  0  0
 22 21  1  0  0  0  0
 23 21  1  0  0  0  0
 24 11  1  0  0  0  0
 25 26  2  0  0  0  0
 26 27  1  0  0  0  0
 27 28  1  0  0  0  0
 27 31  1  1  0  0  0
 27 24  1  0  0  0  0
 28 32  1  0  0  0  0
 29 35  1  0  0  0  0
 29 28  1  0  0  0  0
 30 26  1  0  0  0  0
 30 29  1  0  0  0  0
 33 28  1  0  0  0  0
 34 29  1  0  0  0  0
 37 36  1  0  0  0  0
 37 38  1  0  0  0  0
 38 30  1  0  0  0  0
 39 38  2  0  0  0  0
 39 40  1  0  0  0  0
 41 39  1  0  0  0  0
 42 41  1  0  0  0  0
 43 44  1  0  0  0  0
 43 41  2  0  0  0  0
 44 37  2  0  0  0  0
M  END
>  <minimizedAffinity>
-5.26528263

>  <minimizedRMSD>
0.667452812

$$$$
