
     RDKit          3D

 46 49  0  0  0  0  0  0  0  0999 V2000
   44.5056   35.5356   45.1192 C   0  0  0  0  0  0  0  0  0  0  0  0
   45.1653   35.5088   43.8799 C   0  0  0  0  0  0  0  0  0  0  0  0
   46.0842   34.5428   43.6420 C   0  0  0  0  0  0  0  0  0  0  0  0
   46.3114   33.6488   44.6340 N   0  0  0  0  0  0  0  0  0  0  0  0
   45.6856   33.6795   45.8017 C   0  0  0  0  0  0  0  0  0  0  0  0
   44.7795   34.6166   46.0602 N   0  0  0  0  0  0  0  0  0  0  0  0
   46.0103   32.6834   46.7861 N   0  0  0  0  0  0  0  0  0  0  0  0
   45.2649   32.4528   47.9685 C   0  0  0  0  0  0  0  0  0  0  0  0
   46.3340   32.1163   48.9930 C   0  0  0  0  0  0  0  0  0  0  0  0
   47.6186   32.0061   48.2351 C   0  0  0  0  0  0  0  0  0  0  0  0
   47.1340   31.7700   46.8036 C   0  0  1  0  0  0  0  0  0  0  0  0
   44.8191   36.5267   42.9265 N   0  0  0  0  0  0  0  0  0  0  0  0
   46.6218   30.0772   46.6381 S   0  0  0  0  0  0  0  0  0  0  0  0
   45.6089   30.5112   43.4885 O   0  0  0  0  0  0  0  0  0  0  0  0
   44.9785   29.9854   44.4200 C   0  0  0  0  0  0  0  0  0  0  0  0
   45.0775   29.7822   45.8815 C   0  0  1  0  0  0  0  0  0  0  0  0
   44.5378   28.3814   46.0376 C   0  0  0  0  0  0  0  0  0  0  0  0
   43.2260   28.5783   45.2745 C   0  0  0  0  0  0  0  0  0  0  0  0
   43.7329   29.3261   44.1301 N   0  0  0  0  0  0  0  0  0  0  0  0
   43.7744   36.3187   45.2849 H   0  0  0  0  0  0  0  0  0  0  0  0
   46.6043   34.4995   42.6999 H   0  0  0  0  0  0  0  0  0  0  0  0
   44.4407   31.8231   48.0607 H   0  0  0  0  0  0  0  0  0  0  0  0
   44.9015   33.4739   48.3127 H   0  0  0  0  0  0  0  0  0  0  0  0
   46.1097   31.0795   49.3813 H   0  0  0  0  0  0  0  0  0  0  0  0
   46.3438   32.7576   49.8710 H   0  0  0  0  0  0  0  0  0  0  0  0
   48.2254   31.1717   48.5979 H   0  0  0  0  0  0  0  0  0  0  0  0
   48.1356   32.9962   48.3267 H   0  0  0  0  0  0  0  0  0  0  0  0
   47.9458   32.0807   46.1384 H   0  0  0  0  0  0  0  0  0  0  0  0
   45.6504   36.8432   42.3617 H   0  0  0  0  0  0  0  0  0  0  0  0
   43.9036   36.9480   42.7524 H   0  0  0  0  0  0  0  0  0  0  0  0
   44.1910   30.3886   46.2251 H   0  0  0  0  0  0  0  0  0  0  0  0
   44.3969   28.0693   47.0722 H   0  0  0  0  0  0  0  0  0  0  0  0
   45.1780   27.7111   45.4411 H   0  0  0  0  0  0  0  0  0  0  0  0
   42.8451   27.6086   44.9138 H   0  0  0  0  0  0  0  0  0  0  0  0
   42.4912   29.1426   45.8726 H   0  0  0  0  0  0  0  0  0  0  0  0
   41.3925   31.0582   44.3810 Cl  0  0  0  0  0  0  0  0  0  0  0  0
   41.8453   30.1469   42.9541 C   0  0  0  0  0  0  0  0  0  0  0  0
   42.9823   29.3317   42.8953 C   0  0  0  0  0  0  0  0  0  0  0  0
   43.3180   28.6241   41.7606 C   0  0  0  0  0  0  0  0  0  0  0  0
   44.2139   28.0216   41.8094 H   0  0  0  0  0  0  0  0  0  0  0  0
   42.4858   28.7376   40.6481 C   0  0  0  0  0  0  0  0  0  0  0  0
   42.7615   28.1737   39.7579 H   0  0  0  0  0  0  0  0  0  0  0  0
   41.3588   29.5437   40.7020 C   0  0  0  0  0  0  0  0  0  0  0  0
   41.0243   30.2506   41.8368 C   0  0  0  0  0  0  0  0  0  0  0  0
   40.7146   29.6285   39.8335 H   0  0  0  0  0  0  0  0  0  0  0  0
   40.1197   30.8695   41.8129 H   0  0  0  0  0  0  0  0  0  0  0  0
  1  6  2  0
  2  1  1  0
  3  2  2  0
  3  4  1  0
  4  5  2  0
  5  6  1  0
  5  7  1  0
  7 11  1  0
  7  8  1  0
  8  9  1  0
 10  9  1  0
 11 10  1  0
 12  2  1  0
 13 11  1  0
 14 15  2  0
 15 16  1  0
 16 17  1  0
 16 13  1  0
 18 17  1  0
 19 15  1  0
 19 18  1  0
  1 20  1  0
  3 21  1  0
  8 22  1  0
  8 23  1  0
  9 24  1  0
  9 25  1  0
 10 26  1  0
 10 27  1  0
 11 28  1  6
 12 29  1  0
 12 30  1  0
 16 31  1  1
 17 32  1  0
 17 33  1  0
 18 34  1  0
 18 35  1  0
 36 37  1  0
 37 38  2  0
 38 39  1  0
 39 40  1  0
 39 41  2  0
 41 42  1  0
 41 43  1  0
 43 44  2  0
 44 37  1  0
 43 45  1  0
 44 46  1  0
 19 38  1  0
M  ISO  8  20  14  21  14  22  13  23  13  24  13  25  13  26  13  27  13
M  ISO  8  28  13  31  13  32  13  33  13  34  13  35  13  40  15  42  16
M  END
>  <DihAtoms>  (1) 
14,18,37,36

>  <DihDeg>  (1) 
-89.99473532165659

$$$$
