
 OpenBabel03242511063D

 27 29  0  0  1  0  0  0  0  0999 V2000
   45.8860   32.6100   45.2400 C   0  0  1  0  0  0  0  0  0  0  0  0
   47.1380   31.8690   44.8870 C   0  0  0  0  0  0  0  0  0  0  0  0
   46.9200   32.4890   46.2730 C   0  0  2  0  0  0  0  0  0  0  0  0
   44.9900   31.9770   45.2660 H   0  0  0  0  0  0  0  0  0  0  0  0
   47.0980   30.7740   44.8430 H   0  0  0  0  0  0  0  0  0  0  0  0
   47.7890   32.3760   44.1620 H   0  0  0  0  0  0  0  0  0  0  0  0
   47.5440   33.4240   46.4040 H   0  0  0  0  0  0  0  0  0  0  0  0
   44.5870   36.0440   44.6820 C   0  0  0  0  0  0  0  0  0  0  0  0
   45.1290   36.3340   43.3810 C   0  0  0  0  0  0  0  0  0  0  0  0
   45.9330   35.3380   42.7440 C   0  0  0  0  0  0  0  0  0  0  0  0
   46.1510   34.1790   43.3710 N   0  0  0  0  0  0  0  0  0  0  0  0
   45.6190   33.9370   44.6090 C   0  0  0  0  0  0  0  0  0  0  0  0
   44.8490   34.8640   45.2480 N   0  0  0  0  0  0  0  0  0  0  0  0
   43.9850   36.8150   45.1360 H   0  0  0  0  0  0  0  0  0  0  0  0
   44.9270   37.2710   42.9190 H   0  0  0  0  0  0  0  0  0  0  0  0
   46.3160   35.6040   41.7680 H   0  0  0  0  0  0  0  0  0  0  0  0
   46.8340   31.5930   47.3720 N   0  0  0  0  0  0  0  0  0  0  0  0
   45.8540   31.3500   47.6500 H   0  0  0  0  0  0  0  0  0  0  0  0
   47.3640   28.7230   46.7960 Cl  0  0  0  0  0  0  0  0  0  0  0  0
   48.2780   29.6980   47.9350 C   0  0  0  0  0  0  0  0  0  0  0  0
   47.9190   31.0200   48.1010 C   0  0  0  0  0  0  0  0  0  0  0  0
   48.6280   31.7960   48.9910 C   0  0  0  0  0  0  0  0  0  0  0  0
   48.4050   32.8400   49.1740 H   0  0  0  0  0  0  0  0  0  0  0  0
   49.6760   31.2570   49.7010 C   0  0  0  0  0  0  0  0  0  0  0  0
   50.2430   31.8510   50.4040 H   0  0  0  0  0  0  0  0  0  0  0  0
   50.0470   29.9400   49.5480 C   0  0  0  0  0  0  0  0  0  0  0  0
   49.3340   29.1540   48.6500 C   0  0  0  0  0  0  0  0  0  0  0  0
  1  4  1  1  0  0  0
  1  3  1  0  0  0  0
  2  1  1  0  0  0  0
  2  3  1  0  0  0  0
  3  7  1  1  0  0  0
  3 17  1  0  0  0  0
  5  2  1  0  0  0  0
  6  2  1  0  0  0  0
  8 14  1  0  0  0  0
  8 13  1  0  0  0  0
  9  8  2  0  0  0  0
 10 11  2  0  0  0  0
 10  9  1  0  0  0  0
 11 12  1  0  0  0  0
 12  1  1  0  0  0  0
 12 13  2  0  0  0  0
 15  9  1  0  0  0  0
 16 10  1  0  0  0  0
 17 18  1  0  0  0  0
 17 21  1  0  0  0  0
 19 20  1  0  0  0  0
 20 21  2  0  0  0  0
 20 27  1  0  0  0  0
 21 22  1  0  0  0  0
 22 23  1  0  0  0  0
 22 24  2  0  0  0  0
 24 25  1  0  0  0  0
 26 24  1  0  0  0  0
 27 26  2  0  0  0  0
M  END
>  <minimizedAffinity>
-4.54919147

>  <minimizedRMSD>
3.77686501

$$$$
