
 OpenBabel03252505003D

 37 39  0  0  1  0  0  0  0  0999 V2000
   39.3530   33.1750   39.6350 N   0  0  0  0  0  0  0  0  0  0  0  0
   38.7760   34.4200   39.9690 C   0  0  0  0  0  0  0  0  0  0  0  0
   37.3630   34.2410   39.5570 C   0  0  0  0  0  0  0  0  0  0  0  0
   37.1920   32.8220   39.0270 C   0  0  0  0  0  0  0  0  0  0  0  0
   38.4220   32.1240   39.6300 C   0  0  2  0  0  0  0  0  0  0  0  0
   39.0230   35.3590   40.3880 H   0  0  0  0  0  0  0  0  0  0  0  0
   36.5220   34.9170   39.6060 H   0  0  0  0  0  0  0  0  0  0  0  0
   36.2650   32.4380   39.4980 H   0  0  0  0  0  0  0  0  0  0  0  0
   37.2050   32.8120   37.9360 H   0  0  0  0  0  0  0  0  0  0  0  0
   38.7650   31.2550   39.0730 H   0  0  0  0  0  0  0  0  0  0  0  0
   40.6890   33.1060   39.3250 C   0  0  0  0  0  0  0  0  0  0  0  0
   40.9270   33.9750   38.6550 H   0  0  0  0  0  0  0  0  0  0  0  0
   40.9780   32.2460   38.6800 H   0  0  0  0  0  0  0  0  0  0  0  0
   42.7160   32.0540   42.3450 C   0  0  0  0  0  0  0  0  0  0  0  0
   41.7700   31.9630   41.2770 C   0  0  0  0  0  0  0  0  0  0  0  0
   41.5900   33.0760   40.4560 C   0  0  0  0  0  0  0  0  0  0  0  0
   42.3280   34.1800   40.7290 N   0  0  0  0  0  0  0  0  0  0  0  0
   43.2350   34.2460   41.7650 C   0  0  0  0  0  0  0  0  0  0  0  0
   43.4250   33.1950   42.5620 N   0  0  0  0  0  0  0  0  0  0  0  0
   42.8510   31.1910   42.9740 H   0  0  0  0  0  0  0  0  0  0  0  0
   41.2110   31.0820   41.0970 H   0  0  0  0  0  0  0  0  0  0  0  0
   43.7510   35.1960   41.8580 H   0  0  0  0  0  0  0  0  0  0  0  0
   38.1000   31.8690   40.9710 O   0  0  0  0  0  0  0  0  0  0  0  0
   37.3560   29.4730   40.0760 O   0  0  0  0  0  0  0  0  0  0  0  0
   37.2480   30.4530   41.2270 P   0  0  2  0  0  0  0  0  0  0  0  0
   35.5910   30.8880   41.3280 O   0  0  0  0  0  0  0  0  0  0  0  0
   35.3900   31.5130   40.5920 H   0  0  0  0  0  0  0  0  0  0  0  0
   37.6180   29.7540   42.7050 O   0  0  0  0  0  0  0  0  0  0  0  0
   36.6410   26.7920   43.1620 Cl  0  0  0  0  0  0  0  0  0  0  0  0
   38.2980   27.3040   43.0820 C   0  0  0  0  0  0  0  0  0  0  0  0
   38.4110   28.6570   42.8730 C   0  0  0  0  0  0  0  0  0  0  0  0
   39.7300   29.1430   42.7980 C   0  0  0  0  0  0  0  0  0  0  0  0
   40.1300   30.1600   42.6410 H   0  0  0  0  0  0  0  0  0  0  0  0
   40.8410   28.2960   42.9280 C   0  0  0  0  0  0  0  0  0  0  0  0
   41.8870   28.5620   42.8870 H   0  0  0  0  0  0  0  0  0  0  0  0
   40.6570   26.9450   43.1360 C   0  0  0  0  0  3  0  0  0  0  0  0
   39.3710   26.4550   43.2120 C   0  0  0  0  0  3  0  0  0  0  0  0
  1  2  1  0  0  0  0
  2  6  1  0  0  0  0
  3  7  1  0  0  0  0
  3  2  2  0  0  0  0
  4  8  1  0  0  0  0
  4  3  1  0  0  0  0
  4  5  1  0  0  0  0
  5 10  1  6  0  0  0
  5  1  1  0  0  0  0
  5 23  1  0  0  0  0
  9  4  1  0  0  0  0
 11  1  1  0  0  0  0
 11 16  1  0  0  0  0
 12 11  1  0  0  0  0
 13 11  1  0  0  0  0
 14 19  1  0  0  0  0
 14 20  1  0  0  0  0
 15 14  2  0  0  0  0
 16 17  2  0  0  0  0
 16 15  1  0  0  0  0
 17 18  1  0  0  0  0
 18 22  1  0  0  0  0
 18 19  2  0  0  0  0
 21 15  1  0  0  0  0
 23 25  1  0  0  0  0
 25 24  2  6  0  0  0
 25 26  1  0  0  0  0
 25 28  1  0  0  0  0
 27 26  1  0  0  0  0
 28 31  1  0  0  0  0
 30 29  1  0  0  0  0
 30 37  1  0  0  0  0
 31 30  2  0  0  0  0
 32 31  1  0  0  0  0
 32 34  2  0  0  0  0
 33 32  1  0  0  0  0
 34 36  1  0  0  0  0
 35 34  1  0  0  0  0
 36 37  2  0  0  0  0
M  END
>  <minimizedAffinity>
-5.87251472

$$$$

 OpenBabel03252505003D

 37 39  0  0  1  0  0  0  0  0999 V2000
   39.0320   32.1660   40.3150 N   0  0  0  0  0  0  0  0  0  0  0  0
   38.5030   33.4700   40.4410 C   0  0  0  0  0  0  0  0  0  0  0  0
   37.3120   33.4220   39.5590 C   0  0  0  0  0  0  0  0  0  0  0  0
   37.1940   32.0130   38.9860 C   0  0  0  0  0  0  0  0  0  0  0  0
   38.0590   31.2120   39.9730 C   0  0  2  0  0  0  0  0  0  0  0  0
   38.6810   34.3900   40.9300 H   0  0  0  0  0  0  0  0  0  0  0  0
   36.5800   34.1790   39.3190 H   0  0  0  0  0  0  0  0  0  0  0  0
   36.1270   31.7340   39.0980 H   0  0  0  0  0  0  0  0  0  0  0  0
   37.5860   31.9760   37.9680 H   0  0  0  0  0  0  0  0  0  0  0  0
   38.4850   30.3000   39.5610 H   0  0  0  0  0  0  0  0  0  0  0  0
   40.3770   31.9580   40.4910 C   0  0  0  0  0  0  0  0  0  0  0  0
   40.5480   30.8480   40.5190 H   0  0  0  0  0  0  0  0  0  0  0  0
   40.7740   32.2660   41.4850 H   0  0  0  0  0  0  0  0  0  0  0  0
   41.9990   33.0990   37.2650 C   0  0  0  0  0  0  0  0  0  0  0  0
   41.1020   32.4020   38.1320 C   0  0  0  0  0  0  0  0  0  0  0  0
   41.2370   32.5800   39.5080 C   0  0  0  0  0  0  0  0  0  0  0  0
   42.2210   33.4090   39.9370 N   0  0  0  0  0  0  0  0  0  0  0  0
   43.0770   34.0720   39.0840 C   0  0  0  0  0  0  0  0  0  0  0  0
   42.9650   33.9170   37.7650 N   0  0  0  0  0  0  0  0  0  0  0  0
   41.8880   32.9570   36.2050 H   0  0  0  0  0  0  0  0  0  0  0  0
   40.3460   31.7610   37.7580 H   0  0  0  0  0  0  0  0  0  0  0  0
   43.8130   34.7000   39.5750 H   0  0  0  0  0  0  0  0  0  0  0  0
   37.2660   31.0240   41.1140 O   0  0  0  0  0  0  0  0  0  0  0  0
   35.7880   28.8100   40.9990 O   0  0  0  0  0  0  0  0  0  0  0  0
   37.0540   29.4250   41.5580 P   0  0  2  0  0  0  0  0  0  0  0  0
   36.8790   29.4100   43.2650 O   0  0  0  0  0  0  0  0  0  0  0  0
   36.2510   30.1270   43.5180 H   0  0  0  0  0  0  0  0  0  0  0  0
   38.4150   28.4990   41.2390 O   0  0  0  0  0  0  0  0  0  0  0  0
   37.3860   25.7550   42.4010 Cl  0  0  0  0  0  0  0  0  0  0  0  0
   38.8820   26.5280   42.8230 C   0  0  0  0  0  0  0  0  0  0  0  0
   39.0570   27.7140   42.1520 C   0  0  0  0  0  0  0  0  0  0  0  0
   40.2520   28.3980   42.4460 C   0  0  0  0  0  0  0  0  0  0  0  0
   40.6630   29.3530   42.0740 H   0  0  0  0  0  0  0  0  0  0  0  0
   41.1900   27.8930   43.3590 C   0  0  0  0  0  0  0  0  0  0  0  0
   42.1310   28.3320   43.6560 H   0  0  0  0  0  0  0  0  0  0  0  0
   40.9520   26.6940   43.9990 C   0  0  0  0  0  3  0  0  0  0  0  0
   39.7860   26.0130   43.7210 C   0  0  0  0  0  3  0  0  0  0  0  0
  1  2  1  0  0  0  0
  1 11  1  0  0  0  0
  2  6  1  0  0  0  0
  3  2  2  0  0  0  0
  4  8  1  0  0  0  0
  4  3  1  0  0  0  0
  4  5  1  0  0  0  0
  5 10  1  6  0  0  0
  5  1  1  0  0  0  0
  5 23  1  0  0  0  0
  7  3  1  0  0  0  0
  9  4  1  0  0  0  0
 11 12  1  0  0  0  0
 11 13  1  0  0  0  0
 14 19  2  0  0  0  0
 14 15  1  0  0  0  0
 15 16  2  0  0  0  0
 16 17  1  0  0  0  0
 16 11  1  0  0  0  0
 18 22  1  0  0  0  0
 18 17  2  0  0  0  0
 19 18  1  0  0  0  0
 20 14  1  0  0  0  0
 21 15  1  0  0  0  0
 23 25  1  0  0  0  0
 25 24  2  6  0  0  0
 25 26  1  0  0  0  0
 26 27  1  0  0  0  0
 28 25  1  0  0  0  0
 28 31  1  0  0  0  0
 29 30  1  0  0  0  0
 30 37  1  0  0  0  0
 31 32  1  0  0  0  0
 31 30  2  0  0  0  0
 32 34  2  0  0  0  0
 33 32  1  0  0  0  0
 34 35  1  0  0  0  0
 34 36  1  0  0  0  0
 37 36  2  0  0  0  0
M  END
>  <minimizedAffinity>
-5.74481058

$$$$

 OpenBabel03252505003D

 37 39  0  0  1  0  0  0  0  0999 V2000
   37.7560   30.8950   37.9120 N   0  0  0  0  0  0  0  0  0  0  0  0
   39.1210   31.2240   37.7570 C   0  0  0  0  0  0  0  0  0  0  0  0
   39.2950   32.3410   38.7150 C   0  0  0  0  0  0  0  0  0  0  0  0
   37.9690   32.5710   39.4330 C   0  0  0  0  0  0  0  0  0  0  0  0
   37.2530   31.2350   39.1790 C   0  0  2  0  0  0  0  0  0  0  0  0
   39.9820   30.9390   37.2130 H   0  0  0  0  0  0  0  0  0  0  0  0
   40.1650   32.9320   38.9600 H   0  0  0  0  0  0  0  0  0  0  0  0
   38.2250   32.6700   40.5070 H   0  0  0  0  0  0  0  0  0  0  0  0
   37.4350   33.4160   38.9960 H   0  0  0  0  0  0  0  0  0  0  0  0
   36.1670   31.2950   39.2020 H   0  0  0  0  0  0  0  0  0  0  0  0
   37.0670   30.3390   36.8640 C   0  0  0  0  0  0  0  0  0  0  0  0
   37.8030   30.1500   36.0350 H   0  0  0  0  0  0  0  0  0  0  0  0
   36.3430   31.0210   36.3620 H   0  0  0  0  0  0  0  0  0  0  0  0
   34.3320   27.8050   37.5210 C   0  0  0  0  0  0  0  0  0  0  0  0
   34.9390   29.0670   37.2370 C   0  0  0  0  0  0  0  0  0  0  0  0
   36.3300   29.1330   37.1720 C   0  0  0  0  0  0  0  0  0  0  0  0
   37.0210   27.9860   37.3860 N   0  0  0  0  0  0  0  0  0  0  0  0
   36.4160   26.7790   37.6590 C   0  0  0  0  0  0  0  0  0  0  0  0
   35.0870   26.6910   37.7250 N   0  0  0  0  0  0  0  0  0  0  0  0
   33.2580   27.7610   37.5690 H   0  0  0  0  0  0  0  0  0  0  0  0
   34.3640   29.9420   37.0760 H   0  0  0  0  0  0  0  0  0  0  0  0
   37.0990   25.9490   37.8070 H   0  0  0  0  0  0  0  0  0  0  0  0
   37.8080   30.3220   40.0870 O   0  0  0  0  0  0  0  0  0  0  0  0
   35.9820   28.5090   40.7780 O   0  0  0  0  0  0  0  0  0  0  0  0
   36.7360   29.7410   41.2330 P   0  0  2  0  0  0  0  0  0  0  0  0
   35.5560   30.9640   41.4650 O   0  0  0  0  0  0  0  0  0  0  0  0
   35.2720   31.2920   40.5800 H   0  0  0  0  0  0  0  0  0  0  0  0
   37.4670   29.5340   42.7280 O   0  0  0  0  0  0  0  0  0  0  0  0
   40.3210   30.7380   42.1440 Cl  0  0  0  0  0  0  0  0  0  0  0  0
   40.0090   29.1550   42.7870 C   0  0  0  0  0  0  0  0  0  0  0  0
   38.6640   28.9140   42.9330 C   0  0  0  0  0  0  0  0  0  0  0  0
   38.3360   27.6470   43.4500 C   0  0  0  0  0  0  0  0  0  0  0  0
   37.3640   27.1730   43.6740 H   0  0  0  0  0  0  0  0  0  0  0  0
   39.3210   26.7060   43.7900 C   0  0  0  0  0  0  0  0  0  0  0  0
   39.1810   25.7130   44.1910 H   0  0  0  0  0  0  0  0  0  0  0  0
   40.6550   27.0140   43.6180 C   0  0  0  0  0  3  0  0  0  0  0  0
   40.9910   28.2510   43.1130 C   0  0  0  0  0  3  0  0  0  0  0  0
  1  5  1  0  0  0  0
  2  1  1  0  0  0  0
  2  3  2  0  0  0  0
  3  7  1  0  0  0  0
  3  4  1  0  0  0  0
  4  8  1  0  0  0  0
  5 10  1  1  0  0  0
  5  4  1  0  0  0  0
  5 23  1  0  0  0  0
  6  2  1  0  0  0  0
  9  4  1  0  0  0  0
 11 16  1  0  0  0  0
 11  1  1  0  0  0  0
 12 11  1  0  0  0  0
 13 11  1  0  0  0  0
 14 20  1  0  0  0  0
 14 19  1  0  0  0  0
 15 14  2  0  0  0  0
 16 15  1  0  0  0  0
 16 17  2  0  0  0  0
 17 18  1  0  0  0  0
 18 19  2  0  0  0  0
 18 22  1  0  0  0  0
 21 15  1  0  0  0  0
 23 25  1  0  0  0  0
 25 24  2  6  0  0  0
 25 26  1  0  0  0  0
 25 28  1  0  0  0  0
 27 26  1  0  0  0  0
 28 31  1  0  0  0  0
 29 30  1  0  0  0  0
 30 31  2  0  0  0  0
 30 37  1  0  0  0  0
 31 32  1  0  0  0  0
 32 33  1  0  0  0  0
 32 34  2  0  0  0  0
 34 35  1  0  0  0  0
 36 34  1  0  0  0  0
 37 36  2  0  0  0  0
M  END
>  <minimizedAffinity>
-5.52900648

$$$$

 OpenBabel03252505003D

 37 39  0  0  1  0  0  0  0  0999 V2000
   38.8780   29.5000   42.7190 N   0  0  0  0  0  0  0  0  0  0  0  0
   39.5680   28.2740   42.8530 C   0  0  0  0  0  0  0  0  0  0  0  0
   38.5530   27.4020   43.4900 C   0  0  0  0  0  0  0  0  0  0  0  0
   37.2640   28.2000   43.6510 C   0  0  0  0  0  0  0  0  0  0  0  0
   37.4850   29.3380   42.6420 C   0  0  2  0  0  0  0  0  0  0  0  0
   40.5050   27.8290   42.6530 H   0  0  0  0  0  0  0  0  0  0  0  0
   38.6040   26.3680   43.7970 H   0  0  0  0  0  0  0  0  0  0  0  0
   36.4530   27.5310   43.3010 H   0  0  0  0  0  0  0  0  0  0  0  0
   37.1630   28.5690   44.6730 H   0  0  0  0  0  0  0  0  0  0  0  0
   36.9390   30.2520   42.8660 H   0  0  0  0  0  0  0  0  0  0  0  0
   39.5820   30.6790   42.7120 C   0  0  0  0  0  0  0  0  0  0  0  0
   40.6260   30.4530   43.0620 H   0  0  0  0  0  0  0  0  0  0  0  0
   39.2540   31.4260   43.4700 H   0  0  0  0  0  0  0  0  0  0  0  0
   40.3040   31.7540   39.1540 C   0  0  0  0  0  0  0  0  0  0  0  0
   40.3900   30.9910   40.3600 C   0  0  0  0  0  0  0  0  0  0  0  0
   39.6100   31.3800   41.4480 C   0  0  0  0  0  0  0  0  0  0  0  0
   38.8150   32.4680   41.2900 N   0  0  0  0  0  0  0  0  0  0  0  0
   38.7470   33.1900   40.1180 C   0  0  0  0  0  0  0  0  0  0  0  0
   39.4830   32.8360   39.0650 N   0  0  0  0  0  0  0  0  0  0  0  0
   40.9080   31.4470   38.3190 H   0  0  0  0  0  0  0  0  0  0  0  0
   41.0250   30.1470   40.4440 H   0  0  0  0  0  0  0  0  0  0  0  0
   38.0660   34.0340   40.1420 H   0  0  0  0  0  0  0  0  0  0  0  0
   37.2160   28.7900   41.3800 O   0  0  0  0  0  0  0  0  0  0  0  0
   37.0190   30.3240   39.2110 O   0  0  0  0  0  0  0  0  0  0  0  0
   36.2660   29.7500   40.3920 P   0  0  2  0  0  0  0  0  0  0  0  0
   35.7710   31.0910   41.3400 O   0  0  0  0  0  0  0  0  0  0  0  0
   36.5570   31.4320   41.8280 H   0  0  0  0  0  0  0  0  0  0  0  0
   34.8490   28.9750   39.9380 O   0  0  0  0  0  0  0  0  0  0  0  0
   36.4220   26.4710   38.8460 Cl  0  0  0  0  0  0  0  0  0  0  0  0
   35.1420   27.2970   38.0130 C   0  0  0  0  0  0  0  0  0  0  0  0
   34.6490   28.3520   38.7420 C   0  0  0  0  0  0  0  0  0  0  0  0
   33.6060   29.0690   38.1260 C   0  0  0  0  0  0  0  0  0  0  0  0
   33.0210   29.9460   38.4560 H   0  0  0  0  0  0  0  0  0  0  0  0
   33.1130   28.7200   36.8590 C   0  0  0  0  0  0  0  0  0  0  0  0
   32.3220   29.1980   36.2990 H   0  0  0  0  0  0  0  0  0  0  0  0
   33.6530   27.6470   36.1810 C   0  0  0  0  0  3  0  0  0  0  0  0
   34.6750   26.9360   36.7720 C   0  0  0  0  0  3  0  0  0  0  0  0
  1  2  1  0  0  0  0
  2  3  2  0  0  0  0
  3  4  1  0  0  0  0
  3  7  1  0  0  0  0
  4  9  1  0  0  0  0
  5  1  1  0  0  0  0
  5 10  1  1  0  0  0
  5  4  1  0  0  0  0
  6  2  1  0  0  0  0
  8  4  1  0  0  0  0
 11  1  1  0  0  0  0
 11 12  1  0  0  0  0
 11 13  1  0  0  0  0
 14 15  1  0  0  0  0
 15 21  1  0  0  0  0
 15 16  2  0  0  0  0
 16 11  1  0  0  0  0
 17 16  1  0  0  0  0
 18 22  1  0  0  0  0
 18 17  2  0  0  0  0
 19 14  2  0  0  0  0
 19 18  1  0  0  0  0
 20 14  1  0  0  0  0
 23  5  1  0  0  0  0
 25 24  2  6  0  0  0
 25 26  1  0  0  0  0
 25 23  1  0  0  0  0
 26 27  1  0  0  0  0
 28 25  1  0  0  0  0
 30 31  1  0  0  0  0
 30 29  1  0  0  0  0
 31 28  1  0  0  0  0
 32 33  1  0  0  0  0
 32 31  2  0  0  0  0
 34 32  1  0  0  0  0
 35 34  1  0  0  0  0
 36 37  1  0  0  0  0
 36 34  2  0  0  0  0
 37 30  2  0  0  0  0
M  END
>  <minimizedAffinity>
-5.47007561

$$$$

 OpenBabel03252505003D

 37 39  0  0  1  0  0  0  0  0999 V2000
   39.0850   32.3530   40.3050 N   0  0  0  0  0  0  0  0  0  0  0  0
   38.4340   33.6070   40.3480 C   0  0  0  0  0  0  0  0  0  0  0  0
   37.2450   33.3820   39.4920 C   0  0  0  0  0  0  0  0  0  0  0  0
   37.2570   31.9320   39.0210 C   0  0  0  0  0  0  0  0  0  0  0  0
   38.2050   31.2890   40.0460 C   0  0  2  0  0  0  0  0  0  0  0  0
   38.5280   34.5710   40.7700 H   0  0  0  0  0  0  0  0  0  0  0  0
   36.4410   34.0470   39.2140 H   0  0  0  0  0  0  0  0  0  0  0  0
   36.2230   31.5610   39.1710 H   0  0  0  0  0  0  0  0  0  0  0  0
   37.6400   31.8600   38.0020 H   0  0  0  0  0  0  0  0  0  0  0  0
   38.7130   30.3950   39.6910 H   0  0  0  0  0  0  0  0  0  0  0  0
   40.4460   32.2880   40.4710 C   0  0  0  0  0  0  0  0  0  0  0  0
   40.6570   31.4860   41.2300 H   0  0  0  0  0  0  0  0  0  0  0  0
   40.9030   33.1780   40.9610 H   0  0  0  0  0  0  0  0  0  0  0  0
   42.1330   32.6480   37.1010 C   0  0  0  0  0  0  0  0  0  0  0  0
   41.3180   32.9830   38.2260 C   0  0  0  0  0  0  0  0  0  0  0  0
   41.2110   32.0600   39.2660 C   0  0  0  0  0  0  0  0  0  0  0  0
   41.8910   30.8940   39.1380 N   0  0  0  0  0  0  0  0  0  0  0  0
   42.6710   30.5890   38.0430 C   0  0  0  0  0  0  0  0  0  0  0  0
   42.7890   31.4570   37.0380 N   0  0  0  0  0  0  0  0  0  0  0  0
   42.2110   33.3650   36.3030 H   0  0  0  0  0  0  0  0  0  0  0  0
   40.8010   33.9060   38.2880 H   0  0  0  0  0  0  0  0  0  0  0  0
   43.1540   29.6190   38.0840 H   0  0  0  0  0  0  0  0  0  0  0  0
   37.4460   31.1070   41.2110 O   0  0  0  0  0  0  0  0  0  0  0  0
   35.4510   29.3710   40.8880 O   0  0  0  0  0  0  0  0  0  0  0  0
   36.8560   29.5560   41.4220 P   0  0  2  0  0  0  0  0  0  0  0  0
   36.7610   29.2940   43.1150 O   0  0  0  0  0  0  0  0  0  0  0  0
   36.3480   30.0880   43.5280 H   0  0  0  0  0  0  0  0  0  0  0  0
   37.9220   28.3950   40.8480 O   0  0  0  0  0  0  0  0  0  0  0  0
   40.0700   27.6570   43.0340 Cl  0  0  0  0  0  0  0  0  0  0  0  0
   38.9240   26.5540   42.3380 C   0  0  0  0  0  0  0  0  0  0  0  0
   38.1160   27.1680   41.4110 C   0  0  0  0  0  0  0  0  0  0  0  0
   37.1600   26.3310   40.8040 C   0  0  0  0  0  0  0  0  0  0  0  0
   36.3880   26.5310   40.0390 H   0  0  0  0  0  0  0  0  0  0  0  0
   37.0500   24.9710   41.1310 C   0  0  0  0  0  0  0  0  0  0  0  0
   36.3580   24.2450   40.7290 H   0  0  0  0  0  0  0  0  0  0  0  0
   37.8940   24.4180   42.0720 C   0  0  0  0  0  3  0  0  0  0  0  0
   38.8340   25.2250   42.6740 C   0  0  0  0  0  3  0  0  0  0  0  0
  1  2  1  0  0  0  0
  1 11  1  0  0  0  0
  2  6  1  0  0  0  0
  3  2  2  0  0  0  0
  4  8  1  0  0  0  0
  4  3  1  0  0  0  0
  4  5  1  0  0  0  0
  5 10  1  6  0  0  0
  5  1  1  0  0  0  0
  5 23  1  0  0  0  0
  7  3  1  0  0  0  0
  9  4  1  0  0  0  0
 11 13  1  0  0  0  0
 11 12  1  0  0  0  0
 14 15  1  0  0  0  0
 15 21  1  0  0  0  0
 15 16  2  0  0  0  0
 16 11  1  0  0  0  0
 17 16  1  0  0  0  0
 18 22  1  0  0  0  0
 18 17  2  0  0  0  0
 19 14  2  0  0  0  0
 19 18  1  0  0  0  0
 20 14  1  0  0  0  0
 23 25  1  0  0  0  0
 25 24  2  6  0  0  0
 25 26  1  0  0  0  0
 26 27  1  0  0  0  0
 28 31  1  0  0  0  0
 28 25  1  0  0  0  0
 30 37  1  0  0  0  0
 30 29  1  0  0  0  0
 31 30  2  0  0  0  0
 32 34  2  0  0  0  0
 32 31  1  0  0  0  0
 33 32  1  0  0  0  0
 34 36  1  0  0  0  0
 35 34  1  0  0  0  0
 36 37  2  0  0  0  0
M  END
>  <minimizedAffinity>
-5.43174505

$$$$

 OpenBabel03252505003D

 37 39  0  0  1  0  0  0  0  0999 V2000
   38.9750   29.5920   42.6950 N   0  0  0  0  0  0  0  0  0  0  0  0
   39.6480   28.3600   42.8570 C   0  0  0  0  0  0  0  0  0  0  0  0
   38.6200   27.5140   43.5080 C   0  0  0  0  0  0  0  0  0  0  0  0
   37.3410   28.3320   43.6470 C   0  0  0  0  0  0  0  0  0  0  0  0
   37.5800   29.4460   42.6150 C   0  0  2  0  0  0  0  0  0  0  0  0
   40.5810   27.8990   42.6710 H   0  0  0  0  0  0  0  0  0  0  0  0
   38.6570   26.4860   43.8370 H   0  0  0  0  0  0  0  0  0  0  0  0
   36.5220   27.6650   43.3080 H   0  0  0  0  0  0  0  0  0  0  0  0
   37.2400   28.7220   44.6610 H   0  0  0  0  0  0  0  0  0  0  0  0
   37.0440   30.3700   42.8180 H   0  0  0  0  0  0  0  0  0  0  0  0
   39.6930   30.7610   42.6670 C   0  0  0  0  0  0  0  0  0  0  0  0
   40.7330   30.5300   43.0250 H   0  0  0  0  0  0  0  0  0  0  0  0
   39.3720   31.5280   43.4080 H   0  0  0  0  0  0  0  0  0  0  0  0
   40.3720   31.7110   39.0650 C   0  0  0  0  0  0  0  0  0  0  0  0
   40.4380   30.9630   40.2820 C   0  0  0  0  0  0  0  0  0  0  0  0
   39.7350   31.4360   41.3890 C   0  0  0  0  0  0  0  0  0  0  0  0
   39.0310   32.5850   41.2380 N   0  0  0  0  0  0  0  0  0  0  0  0
   38.9810   33.2920   40.0550 C   0  0  0  0  0  0  0  0  0  0  0  0
   39.6440   32.8580   38.9840 N   0  0  0  0  0  0  0  0  0  0  0  0
   40.9160   31.3390   38.2150 H   0  0  0  0  0  0  0  0  0  0  0  0
   41.0010   30.0690   40.3600 H   0  0  0  0  0  0  0  0  0  0  0  0
   38.3760   34.1920   40.0870 H   0  0  0  0  0  0  0  0  0  0  0  0
   37.3090   28.8750   41.3640 O   0  0  0  0  0  0  0  0  0  0  0  0
   37.0090   30.4790   39.2580 O   0  0  0  0  0  0  0  0  0  0  0  0
   36.2900   29.7780   40.3920 P   0  0  2  0  0  0  0  0  0  0  0  0
   35.6400   31.0190   41.3830 O   0  0  0  0  0  0  0  0  0  0  0  0
   36.3770   31.4150   41.9070 H   0  0  0  0  0  0  0  0  0  0  0  0
   34.9700   28.8870   39.8670 O   0  0  0  0  0  0  0  0  0  0  0  0
   32.9490   29.1950   37.4670 Cl  0  0  0  0  0  0  0  0  0  0  0  0
   34.2240   28.0210   37.5640 C   0  0  0  0  0  0  0  0  0  0  0  0
   34.9400   28.1320   38.7320 C   0  0  0  0  0  0  0  0  0  0  0  0
   35.9930   27.2090   38.8780 C   0  0  0  0  0  0  0  0  0  0  0  0
   36.7270   27.0550   39.6880 H   0  0  0  0  0  0  0  0  0  0  0  0
   36.2810   26.2500   37.8960 C   0  0  0  0  0  0  0  0  0  0  0  0
   37.0580   25.5000   37.9070 H   0  0  0  0  0  0  0  0  0  0  0  0
   35.5210   26.1930   36.7450 C   0  0  0  0  0  3  0  0  0  0  0  0
   34.4880   27.0900   36.5880 C   0  0  0  0  0  3  0  0  0  0  0  0
  1  2  1  0  0  0  0
  2  3  2  0  0  0  0
  3  4  1  0  0  0  0
  3  7  1  0  0  0  0
  4  9  1  0  0  0  0
  5  1  1  0  0  0  0
  5 10  1  1  0  0  0
  5  4  1  0  0  0  0
  6  2  1  0  0  0  0
  8  4  1  0  0  0  0
 11  1  1  0  0  0  0
 11 12  1  0  0  0  0
 11 13  1  0  0  0  0
 14 15  1  0  0  0  0
 15 21  1  0  0  0  0
 15 16  2  0  0  0  0
 16 11  1  0  0  0  0
 17 16  1  0  0  0  0
 18 22  1  0  0  0  0
 18 17  2  0  0  0  0
 19 14  2  0  0  0  0
 19 18  1  0  0  0  0
 20 14  1  0  0  0  0
 23  5  1  0  0  0  0
 25 24  2  6  0  0  0
 25 23  1  0  0  0  0
 25 26  1  0  0  0  0
 26 27  1  0  0  0  0
 28 25  1  0  0  0  0
 29 30  1  0  0  0  0
 30 31  1  0  0  0  0
 31 32  2  0  0  0  0
 31 28  1  0  0  0  0
 32 33  1  0  0  0  0
 34 35  1  0  0  0  0
 34 32  1  0  0  0  0
 36 34  2  0  0  0  0
 37 36  1  0  0  0  0
 37 30  2  0  0  0  0
M  END
>  <minimizedAffinity>
-5.422194

$$$$

 OpenBabel03252505003D

 37 39  0  0  1  0  0  0  0  0999 V2000
   39.2960   32.3430   39.0640 N   0  0  0  0  0  0  0  0  0  0  0  0
   39.9310   33.4520   39.6660 C   0  0  0  0  0  0  0  0  0  0  0  0
   38.7850   34.3020   40.0670 C   0  0  0  0  0  0  0  0  0  0  0  0
   37.4960   33.5780   39.6960 C   0  0  0  0  0  0  0  0  0  0  0  0
   37.9930   32.1320   39.5460 C   0  0  2  0  0  0  0  0  0  0  0  0
   40.8920   33.8260   39.8990 H   0  0  0  0  0  0  0  0  0  0  0  0
   38.7580   35.2610   40.5630 H   0  0  0  0  0  0  0  0  0  0  0  0
   36.8380   33.6660   40.5840 H   0  0  0  0  0  0  0  0  0  0  0  0
   37.0850   33.9730   38.7650 H   0  0  0  0  0  0  0  0  0  0  0  0
   37.3910   31.5150   38.8830 H   0  0  0  0  0  0  0  0  0  0  0  0
   39.9500   31.6300   38.0910 C   0  0  0  0  0  0  0  0  0  0  0  0
   41.0100   32.0010   38.0530 H   0  0  0  0  0  0  0  0  0  0  0  0
   39.6100   31.8340   37.0500 H   0  0  0  0  0  0  0  0  0  0  0  0
   40.4380   28.0840   39.3250 C   0  0  0  0  0  0  0  0  0  0  0  0
   40.5730   29.5060   39.2670 C   0  0  0  0  0  0  0  0  0  0  0  0
   39.9200   30.1930   38.2450 C   0  0  0  0  0  0  0  0  0  0  0  0
   39.1950   29.4600   37.3640 N   0  0  0  0  0  0  0  0  0  0  0  0
   39.0780   28.0880   37.4370 C   0  0  0  0  0  0  0  0  0  0  0  0
   39.6920   27.4110   38.4070 N   0  0  0  0  0  0  0  0  0  0  0  0
   40.9440   27.5610   40.1170 H   0  0  0  0  0  0  0  0  0  0  0  0
   41.1510   30.0430   39.9750 H   0  0  0  0  0  0  0  0  0  0  0  0
   38.4640   27.6410   36.6630 H   0  0  0  0  0  0  0  0  0  0  0  0
   38.1260   31.6330   40.8490 O   0  0  0  0  0  0  0  0  0  0  0  0
   37.0520   29.3240   40.0680 O   0  0  0  0  0  0  0  0  0  0  0  0
   37.1400   30.3270   41.1990 P   0  0  2  0  0  0  0  0  0  0  0  0
   35.5560   30.9510   41.4090 O   0  0  0  0  0  0  0  0  0  0  0  0
   35.3720   31.5830   40.6750 H   0  0  0  0  0  0  0  0  0  0  0  0
   37.5390   29.6140   42.6640 O   0  0  0  0  0  0  0  0  0  0  0  0
   36.7580   26.5660   42.8570 Cl  0  0  0  0  0  0  0  0  0  0  0  0
   38.3740   27.1970   42.9250 C   0  0  0  0  0  0  0  0  0  0  0  0
   38.3980   28.5660   42.8130 C   0  0  0  0  0  0  0  0  0  0  0  0
   39.6790   29.1480   42.8610 C   0  0  0  0  0  0  0  0  0  0  0  0
   40.0120   30.1990   42.7980 H   0  0  0  0  0  0  0  0  0  0  0  0
   40.8400   28.3740   43.0100 C   0  0  0  0  0  0  0  0  0  0  0  0
   41.8640   28.7150   43.0580 H   0  0  0  0  0  0  0  0  0  0  0  0
   40.7450   27.0020   43.1160 C   0  0  0  0  0  3  0  0  0  0  0  0
   39.4970   26.4190   43.0710 C   0  0  0  0  0  3  0  0  0  0  0  0
  1  5  1  0  0  0  0
  1  2  1  0  0  0  0
  2  6  1  0  0  0  0
  2  3  2  0  0  0  0
  3  7  1  0  0  0  0
  4  3  1  0  0  0  0
  4  8  1  0  0  0  0
  5 10  1  6  0  0  0
  5  4  1  0  0  0  0
  5 23  1  0  0  0  0
  9  4  1  0  0  0  0
 11 16  1  0  0  0  0
 11  1  1  0  0  0  0
 12 11  1  0  0  0  0
 13 11  1  0  0  0  0
 14 20  1  0  0  0  0
 15 14  1  0  0  0  0
 15 21  1  0  0  0  0
 16 15  2  0  0  0  0
 17 18  2  0  0  0  0
 17 16  1  0  0  0  0
 18 19  1  0  0  0  0
 19 14  2  0  0  0  0
 22 18  1  0  0  0  0
 23 25  1  0  0  0  0
 25 24  2  6  0  0  0
 25 26  1  0  0  0  0
 25 28  1  0  0  0  0
 27 26  1  0  0  0  0
 28 31  1  0  0  0  0
 29 30  1  0  0  0  0
 30 37  1  0  0  0  0
 31 32  1  0  0  0  0
 31 30  2  0  0  0  0
 32 34  2  0  0  0  0
 33 32  1  0  0  0  0
 34 35  1  0  0  0  0
 34 36  1  0  0  0  0
 37 36  2  0  0  0  0
M  END
>  <minimizedAffinity>
-5.39368439

$$$$

 OpenBabel03252505003D

 37 39  0  0  1  0  0  0  0  0999 V2000
   38.0440   29.2760   37.9700 N   0  0  0  0  0  0  0  0  0  0  0  0
   39.2430   29.9540   37.6530 C   0  0  0  0  0  0  0  0  0  0  0  0
   38.8350   31.3770   37.7120 C   0  0  0  0  0  0  0  0  0  0  0  0
   37.3680   31.4410   38.1220 C   0  0  0  0  0  0  0  0  0  0  0  0
   37.1680   30.0510   38.7480 C   0  0  2  0  0  0  0  0  0  0  0  0
   40.2550   29.7700   37.4090 H   0  0  0  0  0  0  0  0  0  0  0  0
   39.4010   32.2810   37.5420 H   0  0  0  0  0  0  0  0  0  0  0  0
   37.3110   32.2240   38.9050 H   0  0  0  0  0  0  0  0  0  0  0  0
   36.7290   31.5980   37.2520 H   0  0  0  0  0  0  0  0  0  0  0  0
   36.1430   29.6880   38.7220 H   0  0  0  0  0  0  0  0  0  0  0  0
   37.8320   28.0090   37.4880 C   0  0  0  0  0  0  0  0  0  0  0  0
   38.6610   27.7760   36.7670 H   0  0  0  0  0  0  0  0  0  0  0  0
   36.9360   27.8980   36.8360 H   0  0  0  0  0  0  0  0  0  0  0  0
   38.4430   25.7010   40.4280 C   0  0  0  0  0  0  0  0  0  0  0  0
   38.6840   26.7400   39.4760 C   0  0  0  0  0  0  0  0  0  0  0  0
   37.7250   26.9720   38.4900 C   0  0  0  0  0  0  0  0  0  0  0  0
   36.6180   26.1880   38.5000 N   0  0  0  0  0  0  0  0  0  0  0  0
   36.4050   25.1910   39.4270 C   0  0  0  0  0  0  0  0  0  0  0  0
   37.3080   24.9530   40.3780 N   0  0  0  0  0  0  0  0  0  0  0  0
   39.1870   25.5290   41.1850 H   0  0  0  0  0  0  0  0  0  0  0  0
   39.5630   27.3310   39.5010 H   0  0  0  0  0  0  0  0  0  0  0  0
   35.4730   24.6480   39.3070 H   0  0  0  0  0  0  0  0  0  0  0  0
   37.7310   30.1220   40.0300 O   0  0  0  0  0  0  0  0  0  0  0  0
   35.8350   28.4970   40.9580 O   0  0  0  0  0  0  0  0  0  0  0  0
   36.6890   29.7080   41.2720 P   0  0  2  0  0  0  0  0  0  0  0  0
   35.6020   31.0220   41.4600 O   0  0  0  0  0  0  0  0  0  0  0  0
   35.2920   31.2970   40.5650 H   0  0  0  0  0  0  0  0  0  0  0  0
   37.4860   29.5720   42.7420 O   0  0  0  0  0  0  0  0  0  0  0  0
   40.3780   30.5830   42.0030 Cl  0  0  0  0  0  0  0  0  0  0  0  0
   40.0040   29.0540   42.7340 C   0  0  0  0  0  0  0  0  0  0  0  0
   38.6540   28.8960   42.9360 C   0  0  0  0  0  0  0  0  0  0  0  0
   38.2760   27.6750   43.5270 C   0  0  0  0  0  0  0  0  0  0  0  0
   37.2880   27.2690   43.8070 H   0  0  0  0  0  0  0  0  0  0  0  0
   39.2200   26.6990   43.8800 C   0  0  0  0  0  0  0  0  0  0  0  0
   39.0400   25.7350   44.3350 H   0  0  0  0  0  0  0  0  0  0  0  0
   40.5610   26.9220   43.6490 C   0  0  0  0  0  3  0  0  0  0  0  0
   40.9460   28.1120   43.0710 C   0  0  0  0  0  3  0  0  0  0  0  0
  1  5  1  0  0  0  0
  2  3  2  0  0  0  0
  2  1  1  0  0  0  0
  3  4  1  0  0  0  0
  4  5  1  0  0  0  0
  4  8  1  0  0  0  0
  5 10  1  6  0  0  0
  5 23  1  0  0  0  0
  6  2  1  0  0  0  0
  7  3  1  0  0  0  0
  9  4  1  0  0  0  0
 11  1  1  0  0  0  0
 11 16  1  0  0  0  0
 12 11  1  0  0  0  0
 13 11  1  0  0  0  0
 14 20  1  0  0  0  0
 15 21  1  0  0  0  0
 15 14  2  0  0  0  0
 16 17  2  0  0  0  0
 16 15  1  0  0  0  0
 17 18  1  0  0  0  0
 18 19  2  0  0  0  0
 19 14  1  0  0  0  0
 22 18  1  0  0  0  0
 23 25  1  0  0  0  0
 25 24  2  6  0  0  0
 25 26  1  0  0  0  0
 25 28  1  0  0  0  0
 27 26  1  0  0  0  0
 28 31  1  0  0  0  0
 29 30  1  0  0  0  0
 30 31  2  0  0  0  0
 30 37  1  0  0  0  0
 31 32  1  0  0  0  0
 32 33  1  0  0  0  0
 32 34  2  0  0  0  0
 34 35  1  0  0  0  0
 36 34  1  0  0  0  0
 37 36  2  0  0  0  0
M  END
>  <minimizedAffinity>
-5.28137493

$$$$

 OpenBabel03252505003D

 37 39  0  0  1  0  0  0  0  0999 V2000
   38.5910   29.5720   37.8900 N   0  0  0  0  0  0  0  0  0  0  0  0
   39.7630   30.3350   37.6830 C   0  0  0  0  0  0  0  0  0  0  0  0
   39.2460   31.7250   37.6810 C   0  0  0  0  0  0  0  0  0  0  0  0
   37.7450   31.6810   37.9450 C   0  0  0  0  0  0  0  0  0  0  0  0
   37.5880   30.2840   38.5680 C   0  0  2  0  0  0  0  0  0  0  0  0
   40.8050   30.2260   37.5420 H   0  0  0  0  0  0  0  0  0  0  0  0
   39.7580   32.6670   37.5550 H   0  0  0  0  0  0  0  0  0  0  0  0
   37.5540   32.4630   38.7070 H   0  0  0  0  0  0  0  0  0  0  0  0
   37.1860   31.7840   37.0140 H   0  0  0  0  0  0  0  0  0  0  0  0
   36.6000   29.8450   38.4460 H   0  0  0  0  0  0  0  0  0  0  0  0
   38.5220   28.2890   37.4080 C   0  0  0  0  0  0  0  0  0  0  0  0
   39.5100   28.0530   36.9280 H   0  0  0  0  0  0  0  0  0  0  0  0
   37.8230   28.1460   36.5530 H   0  0  0  0  0  0  0  0  0  0  0  0
   38.4800   25.9680   40.3990 C   0  0  0  0  0  0  0  0  0  0  0  0
   38.9510   26.9710   39.4970 C   0  0  0  0  0  0  0  0  0  0  0  0
   38.1750   27.2770   38.3800 C   0  0  0  0  0  0  0  0  0  0  0  0
   37.0130   26.5940   38.2220 N   0  0  0  0  0  0  0  0  0  0  0  0
   36.5760   25.6300   39.1040 C   0  0  0  0  0  0  0  0  0  0  0  0
   37.3020   25.3230   40.1790 N   0  0  0  0  0  0  0  0  0  0  0  0
   39.0840   25.7390   41.2590 H   0  0  0  0  0  0  0  0  0  0  0  0
   39.8660   27.4820   39.6550 H   0  0  0  0  0  0  0  0  0  0  0  0
   35.6280   25.1710   38.8450 H   0  0  0  0  0  0  0  0  0  0  0  0
   38.0140   30.4060   39.8980 O   0  0  0  0  0  0  0  0  0  0  0  0
   36.0340   28.7880   40.6440 O   0  0  0  0  0  0  0  0  0  0  0  0
   36.8630   29.9930   41.0390 P   0  0  2  0  0  0  0  0  0  0  0  0
   35.7710   31.3130   41.1340 O   0  0  0  0  0  0  0  0  0  0  0  0
   35.5440   31.5930   40.2160 H   0  0  0  0  0  0  0  0  0  0  0  0
   37.5230   29.8470   42.5740 O   0  0  0  0  0  0  0  0  0  0  0  0
   36.3300   27.3110   44.0180 Cl  0  0  0  0  0  0  0  0  0  0  0  0
   38.0100   27.5670   43.6570 C   0  0  0  0  0  0  0  0  0  0  0  0
   38.2230   28.7660   43.0220 C   0  0  0  0  0  0  0  0  0  0  0  0
   39.5660   29.0410   42.6980 C   0  0  0  0  0  0  0  0  0  0  0  0
   40.0390   29.9030   42.1980 H   0  0  0  0  0  0  0  0  0  0  0  0
   40.6010   28.1460   43.0070 C   0  0  0  0  0  0  0  0  0  0  0  0
   41.6570   28.2560   42.8070 H   0  0  0  0  0  0  0  0  0  0  0  0
   40.3170   26.9570   43.6470 C   0  0  0  0  0  3  0  0  0  0  0  0
   39.0070   26.6740   43.9700 C   0  0  0  0  0  3  0  0  0  0  0  0
  1  5  1  0  0  0  0
  2  1  1  0  0  0  0
  3  2  2  0  0  0  0
  3  4  1  0  0  0  0
  4  5  1  0  0  0  0
  4  8  1  0  0  0  0
  5 10  1  6  0  0  0
  5 23  1  0  0  0  0
  6  2  1  0  0  0  0
  7  3  1  0  0  0  0
  9  4  1  0  0  0  0
 11  1  1  0  0  0  0
 11 16  1  0  0  0  0
 12 11  1  0  0  0  0
 13 11  1  0  0  0  0
 14 20  1  0  0  0  0
 15 21  1  0  0  0  0
 15 14  2  0  0  0  0
 16 15  1  0  0  0  0
 17 16  2  0  0  0  0
 17 18  1  0  0  0  0
 18 19  2  0  0  0  0
 19 14  1  0  0  0  0
 22 18  1  0  0  0  0
 23 25  1  0  0  0  0
 25 24  2  6  0  0  0
 25 26  1  0  0  0  0
 25 28  1  0  0  0  0
 27 26  1  0  0  0  0
 28 31  1  0  0  0  0
 30 37  1  0  0  0  0
 30 29  1  0  0  0  0
 31 30  2  0  0  0  0
 32 34  2  0  0  0  0
 32 31  1  0  0  0  0
 33 32  1  0  0  0  0
 34 36  1  0  0  0  0
 35 34  1  0  0  0  0
 36 37  2  0  0  0  0
M  END
>  <minimizedAffinity>
-5.26218653

$$$$
