
     RDKit          3D

 39 41  0  0  0  0  0  0  0  0999 V2000
   47.8353   33.9941   42.0074 N   0  0  0  0  0  0  0  0  0  0  0  0
   47.8683   34.8844   40.9095 C   0  0  0  0  0  0  0  0  0  0  0  0
   49.0437   35.7320   41.2183 C   0  0  0  0  0  0  0  0  0  0  0  0
   49.6757   35.2284   42.5105 C   0  0  0  0  0  0  0  0  0  0  0  0
   49.0965   33.8071   42.5970 C   0  0  2  0  0  0  0  0  0  0  0  0
   46.6399   33.4480   42.4041 C   0  0  0  0  0  0  0  0  0  0  0  0
   44.6194   35.9466   44.4058 C   0  0  0  0  0  0  0  0  0  0  0  0
   45.2864   35.3657   43.2828 C   0  0  0  0  0  0  0  0  0  0  0  0
   45.9534   34.1551   43.4624 C   0  0  0  0  0  0  0  0  0  0  0  0
   45.9263   33.6040   44.7013 N   0  0  0  0  0  0  0  0  0  0  0  0
   45.2770   34.1809   45.7708 C   0  0  0  0  0  0  0  0  0  0  0  0
   44.6319   35.3378   45.6228 N   0  0  0  0  0  0  0  0  0  0  0  0
   49.8447   33.0307   41.7014 O   0  0  0  0  0  0  0  0  0  0  0  0
   49.1311   31.0000   43.2704 O   0  0  0  0  0  0  0  0  0  0  0  0
   50.0877   31.4483   42.1848 P   0  0  2  0  0  0  0  0  0  0  0  0
   51.6569   31.3819   42.8756 O   0  0  0  0  0  0  0  0  0  0  0  0
   50.1268   30.3919   40.8832 O   0  0  0  0  0  0  0  0  0  0  0  0
   47.3541   35.1095   40.0137 H   0  0  0  0  0  0  0  0  0  0  0  0
   49.4770   36.5610   40.6780 H   0  0  0  0  0  0  0  0  0  0  0  0
   50.7663   35.1848   42.3129 H   0  0  0  0  0  0  0  0  0  0  0  0
   49.3754   35.8495   43.3560 H   0  0  0  0  0  0  0  0  0  0  0  0
   49.0371   33.4051   43.6058 H   0  0  0  0  0  0  0  0  0  0  0  0
   46.8359   32.3826   42.7041 H   0  0  0  0  0  0  0  0  0  0  0  0
   45.8924   33.3118   41.5898 H   0  0  0  0  0  0  0  0  0  0  0  0
   44.1060   36.8813   44.2602 H   0  0  0  0  0  0  0  0  0  0  0  0
   45.2846   35.8294   42.3298 H   0  0  0  0  0  0  0  0  0  0  0  0
   45.3428   33.6228   46.6986 H   0  0  0  0  0  0  0  0  0  0  0  0
   51.7610   32.1533   43.4819 H   0  0  0  0  0  0  0  0  0  0  0  0
   48.0625   28.0191   40.6718 Cl  0  0  0  0  0  0  0  0  0  0  0  0
   49.7732   27.8457   40.9164 C   0  0  0  0  0  0  0  0  0  0  0  0
   50.4122   29.0613   40.9661 C   0  0  0  0  0  0  0  0  0  0  0  0
   51.8044   28.9962   41.1624 C   0  0  0  0  0  0  0  0  0  0  0  0
   52.5722   29.7857   41.2438 H   0  0  0  0  0  0  0  0  0  0  0  0
   52.4793   27.7730   41.2963 C   0  0  0  0  0  0  0  0  0  0  0  0
   53.5360   27.6109   41.4489 H   0  0  0  0  0  0  0  0  0  0  0  0
   51.7753   26.5883   41.2364 C   0  0  0  0  0  0  0  0  0  0  0  0
   50.4113   26.6359   41.0446 C   0  0  0  0  0  0  0  0  0  0  0  0
   52.1672   25.5934   41.3234 H   0  0  0  0  0  0  0  0  0  0  0  0
   49.7306   25.7986   40.9769 H   0  0  0  0  0  0  0  0  0  0  0  0
  1  6  1  0
  1  5  1  0
  2  3  2  0
  2  1  1  0
  3  4  1  0
  4  5  1  0
  6  9  1  0
  7 12  2  0
  8  9  2  0
  8  7  1  0
  9 10  1  0
 10 11  2  0
 12 11  1  0
 15 13  1  6
 13  5  1  0
 15 16  1  0
 15 14  2  0
 17 15  1  0
  2 18  1  0
  3 19  1  0
  4 20  1  0
  4 21  1  0
  5 22  1  1
  6 23  1  0
  6 24  1  0
  7 25  1  0
  8 26  1  0
 11 27  1  0
 16 28  1  0
 29 30  1  0
 30 31  2  0
 31 32  1  0
 32 33  1  0
 32 34  2  0
 34 35  1  0
 34 36  1  0
 36 37  2  0
 37 30  1  0
 36 38  1  0
 37 39  1  0
 17 31  1  0
M  ISO  8  18  13  19  13  20  13  21  13  22  13  23   8  24   8  25  14
M  ISO  5  26  14  27  14  28   3  33  15  35  16
M  END
>  <DihAtoms>  (1) 
14,16,30,29

>  <DihDeg>  (1) 
0.03110009100284604

$$$$
