
 OpenBabel03242516333D

 44 47  0  0  1  0  0  0  0  0999 V2000
   47.9920   32.9740   39.9550 O   0  0  0  0  0  0  0  0  0  0  0  0
   48.1970   34.0370   42.0600 C   0  0  2  0  0  0  0  0  0  0  0  0
   46.8020   33.4260   42.3580 C   0  0  1  0  0  0  0  0  0  0  0  0
   47.1930   32.2310   42.8820 O   0  0  0  0  0  0  0  0  0  0  0  0
   48.1050   31.7230   41.9340 C   0  0  0  0  0  0  0  0  0  0  0  0
   48.6580   32.9300   41.1430 C   0  0  1  0  0  0  0  0  0  0  0  0
   48.1060   35.0070   41.5810 H   0  0  0  0  0  0  0  0  0  0  0  0
   46.3200   33.2830   41.3520 H   0  0  0  0  0  0  0  0  0  0  0  0
   47.5310   31.0480   41.2690 H   0  0  0  0  0  0  0  0  0  0  0  0
   48.9040   31.1860   42.4480 H   0  0  0  0  0  0  0  0  0  0  0  0
   49.7540   32.9130   41.0480 H   0  0  0  0  0  0  0  0  0  0  0  0
   44.6860   36.1000   44.0410 C   0  0  0  0  0  0  0  0  0  0  0  0
   45.3950   35.4760   43.0160 C   0  0  0  0  0  0  0  0  0  0  0  0
   46.0320   34.2840   43.2640 C   0  0  0  0  0  0  0  0  0  0  0  0
   45.9290   33.7730   44.5310 N   0  0  0  0  0  0  0  0  0  0  0  0
   45.2390   34.3900   45.5090 C   0  0  0  0  0  0  0  0  0  0  0  0
   44.6210   35.5510   45.2630 N   0  0  0  0  0  0  0  0  0  0  0  0
   44.2110   37.0370   43.7680 H   0  0  0  0  0  0  0  0  0  0  0  0
   45.5180   35.8210   41.9980 H   0  0  0  0  0  0  0  0  0  0  0  0
   45.1890   33.9370   46.5050 H   0  0  0  0  0  0  0  0  0  0  0  0
   49.0000   33.9770   43.1720 O   0  0  0  0  0  0  0  0  0  0  0  0
   48.4920   34.1030   43.9960 H   0  0  0  0  0  0  0  0  0  0  0  0
   49.1400   32.7840   37.9050 C   0  0  1  0  0  0  0  0  0  0  0  0
   48.5350   33.8140   38.9860 C   0  0  1  0  0  0  0  0  0  0  0  0
   47.5570   34.3310   38.2300 O   0  0  0  0  0  0  0  0  0  0  0  0
   46.8230   33.1510   37.9400 C   0  0  0  0  0  0  0  0  0  0  0  0
   47.8800   32.3110   37.2360 C   0  0  1  0  0  0  0  0  0  0  0  0
   49.7320   32.0460   38.4120 H   0  0  0  0  0  0  0  0  0  0  0  0
   49.4380   34.3440   39.2540 H   0  0  0  0  0  0  0  0  0  0  0  0
   46.0200   33.3560   37.2160 H   0  0  0  0  0  0  0  0  0  0  0  0
   46.4880   32.6200   38.8270 H   0  0  0  0  0  0  0  0  0  0  0  0
   47.7310   31.2360   37.4740 H   0  0  0  0  0  0  0  0  0  0  0  0
   49.8160   33.5970   36.9870 O   0  0  0  0  0  0  0  0  0  0  0  0
   50.5080   33.1200   36.5010 H   0  0  0  0  0  0  0  0  0  0  0  0
   47.8540   32.5940   35.8970 O   0  0  0  0  0  0  0  0  0  0  0  0
   49.0590   33.2470   33.0430 Cl  0  0  0  0  0  0  0  0  0  0  0  0
   48.1120   31.8630   33.4730 C   0  0  0  0  0  0  0  0  0  0  0  0
   47.7210   31.8380   34.7890 C   0  0  0  0  0  0  0  0  0  0  0  0
   46.9530   30.7200   35.1470 C   0  0  0  0  0  0  0  0  0  0  0  0
   46.5140   30.4430   36.1040 H   0  0  0  0  0  0  0  0  0  0  0  0
   46.6160   29.7190   34.2440 C   0  0  0  0  0  0  0  0  0  0  0  0
   46.0390   28.8280   34.4070 H   0  0  0  0  0  0  0  0  0  0  0  0
   47.0540   29.8200   32.9220 C   0  0  0  0  0  0  0  0  0  0  0  0
   47.8060   30.9010   32.5410 C   0  0  0  0  0  0  0  0  0  0  0  0
  1  6  1  0  0  0  0
  2  7  1  6  0  0  0
  2  3  1  0  0  0  0
  2 21  1  0  0  0  0
  3  8  1  6  0  0  0
  3  4  1  0  0  0  0
  3 14  1  0  0  0  0
  5 10  1  0  0  0  0
  5  4  1  0  0  0  0
  6 11  1  6  0  0  0
  6  5  1  0  0  0  0
  6  2  1  0  0  0  0
  9  5  1  0  0  0  0
 12 17  1  0  0  0  0
 13 14  1  0  0  0  0
 13 12  2  0  0  0  0
 14 15  2  0  0  0  0
 15 16  1  0  0  0  0
 16 20  1  0  0  0  0
 17 16  2  0  0  0  0
 18 12  1  0  0  0  0
 19 13  1  0  0  0  0
 21 22  1  0  0  0  0
 23 28  1  1  0  0  0
 23 24  1  0  0  0  0
 24 29  1  1  0  0  0
 24  1  1  0  0  0  0
 25 24  1  0  0  0  0
 26 25  1  0  0  0  0
 26 31  1  0  0  0  0
 27 32  1  1  0  0  0
 27 23  1  0  0  0  0
 27 26  1  0  0  0  0
 30 26  1  0  0  0  0
 33 23  1  0  0  0  0
 34 33  1  0  0  0  0
 35 27  1  0  0  0  0
 36 37  1  0  0  0  0
 37 38  1  0  0  0  0
 38 39  2  0  0  0  0
 38 35  1  0  0  0  0
 39 40  1  0  0  0  0
 41 42  1  0  0  0  0
 41 39  1  0  0  0  0
 43 41  2  0  0  0  0
 44 43  1  0  0  0  0
 44 37  2  0  0  0  0
M  END
>  <minimizedAffinity>
-5.68099546

>  <minimizedRMSD>
1.16674566

$$$$
