
 OpenBabel03242523103D

 46 50  0  0  1  0  0  0  0  0999 V2000
   45.1350   36.0200   43.5010 C   0  0  0  0  0  0  0  0  0  0  0  0
   45.9280   34.8960   43.2670 C   0  0  0  0  0  0  0  0  0  0  0  0
   46.0550   33.9590   44.2430 C   0  0  0  0  0  0  0  0  0  0  0  0
   45.3850   34.1890   45.3940 N   0  0  0  0  0  0  0  0  0  0  0  0
   44.6230   35.2520   45.6400 C   0  0  0  0  0  0  0  0  0  0  0  0
   44.5040   36.1580   44.6940 N   0  0  0  0  0  0  0  0  0  0  0  0
   45.0280   36.7720   42.7310 H   0  0  0  0  0  0  0  0  0  0  0  0
   44.0720   35.4750   46.5440 H   0  0  0  0  0  0  0  0  0  0  0  0
   46.5310   34.7910   42.0130 N   0  0  0  0  0  0  0  0  0  0  0  0
   47.8380   35.2050   41.7430 C   0  0  0  0  0  0  0  0  0  0  0  0
   48.3470   34.8280   40.3680 C   0  0  0  0  0  0  0  0  0  0  0  0
   47.9690   33.5820   39.9100 N   0  0  0  0  0  0  0  0  0  0  0  0
   46.6620   33.1810   40.1340 C   0  0  0  0  0  0  0  0  0  0  0  0
   45.8830   34.2530   40.8530 C   0  0  0  0  0  0  0  0  0  0  0  0
   47.8770   36.3270   41.7870 H   0  0  0  0  0  0  0  0  0  0  0  0
   48.6020   34.8920   42.5090 H   0  0  0  0  0  0  0  0  0  0  0  0
   48.0130   35.6170   39.6440 H   0  0  0  0  0  0  0  0  0  0  0  0
   49.4620   34.8890   40.4170 H   0  0  0  0  0  0  0  0  0  0  0  0
   48.6510   32.9090   39.5650 H   0  0  0  0  0  0  0  0  0  0  0  0
   46.4890   32.2140   40.6500 H   0  0  0  0  0  0  0  0  0  0  0  0
   46.1400   33.0480   39.1450 H   0  0  0  0  0  0  0  0  0  0  0  0
   45.5850   35.0650   40.1430 H   0  0  0  0  0  0  0  0  0  0  0  0
   44.9300   33.7930   41.1990 H   0  0  0  0  0  0  0  0  0  0  0  0
   46.4740   32.0300   45.5340 C   0  0  0  0  0  0  0  0  0  0  0  0
   46.7740   32.7590   44.3610 C   0  0  0  0  0  0  0  0  0  0  0  0
   47.7160   32.1180   43.5810 C   0  0  0  0  0  0  0  0  0  0  0  0
   48.3170   30.9260   43.8570 C   0  0  0  0  0  0  0  0  0  0  0  0
   47.9790   30.2650   45.0130 C   0  0  0  0  0  0  0  0  0  0  0  0
   47.0490   30.8280   45.8550 C   0  0  0  0  0  0  0  0  0  0  0  0
   48.7250   29.1060   45.0340 O   0  0  0  0  0  0  0  0  0  0  0  0
   49.5300   29.0560   43.8680 C   0  0  2  0  0  0  0  0  0  0  0  0
   49.2550   30.2430   43.1300 O   0  0  0  0  0  0  0  0  0  0  0  0
   45.7800   32.2590   46.3450 H   0  0  0  0  0  0  0  0  0  0  0  0
   47.9440   32.6560   42.7140 H   0  0  0  0  0  0  0  0  0  0  0  0
   46.8570   30.2350   46.7300 H   0  0  0  0  0  0  0  0  0  0  0  0
   50.6010   29.0120   44.1350 H   0  0  0  0  0  0  0  0  0  0  0  0
   49.1380   27.9870   43.1170 O   0  0  0  0  0  0  0  0  0  0  0  0
   46.0120   28.1800   42.9700 Cl  0  0  0  0  0  0  0  0  0  0  0  0
   47.1010   27.7790   41.6660 C   0  0  0  0  0  0  0  0  0  0  0  0
   48.4310   27.7660   42.0080 C   0  0  0  0  0  0  0  0  0  0  0  0
   49.2930   27.4420   40.9460 C   0  0  0  0  0  0  0  0  0  0  0  0
   50.3940   27.3690   40.9780 H   0  0  0  0  0  0  0  0  0  0  0  0
   48.8390   27.1610   39.6670 C   0  0  0  0  0  0  0  0  0  0  0  0
   49.4560   26.9080   38.8210 H   0  0  0  0  0  0  0  0  0  0  0  0
   47.4940   27.2000   39.4230 C   0  0  0  0  0  3  0  0  0  0  0  0
   46.6110   27.5080   40.4150 C   0  0  0  0  0  3  0  0  0  0  0  0
  1  6  1  0  0  0  0
  2  1  2  0  0  0  0
  2  3  1  0  0  0  0
  3 25  1  0  0  0  0
  3  4  2  0  0  0  0
  4  5  1  0  0  0  0
  5  8  1  0  0  0  0
  6  5  2  0  0  0  0
  7  1  1  0  0  0  0
  9  2  1  0  0  0  0
 10 15  1  0  0  0  0
 10  9  1  0  0  0  0
 10 16  1  0  0  0  0
 11 18  1  0  0  0  0
 11 10  1  0  0  0  0
 12 13  1  0  0  0  0
 12 11  1  0  0  0  0
 13 20  1  0  0  0  0
 13 14  1  0  0  0  0
 14 23  1  0  0  0  0
 14  9  1  0  0  0  0
 17 11  1  0  0  0  0
 19 12  1  0  0  0  0
 21 13  1  0  0  0  0
 22 14  1  0  0  0  0
 24 29  1  0  0  0  0
 24 33  1  0  0  0  0
 25 24  2  0  0  0  0
 26 27  2  0  0  0  0
 26 25  1  0  0  0  0
 27 28  1  0  0  0  0
 28 30  1  0  0  0  0
 28 29  2  0  0  0  0
 29 35  1  0  0  0  0
 31 36  1  1  0  0  0
 31 30  1  0  0  0  0
 32 27  1  0  0  0  0
 32 31  1  0  0  0  0
 34 26  1  0  0  0  0
 37 31  1  0  0  0  0
 39 40  1  0  0  0  0
 39 38  1  0  0  0  0
 40 37  1  0  0  0  0
 41 42  1  0  0  0  0
 41 40  2  0  0  0  0
 43 41  1  0  0  0  0
 44 43  1  0  0  0  0
 45 43  2  0  0  0  0
 45 46  1  0  0  0  0
 46 39  2  0  0  0  0
M  END
>  <minimizedAffinity>
-4.6781168

>  <minimizedRMSD>
2.08531928

$$$$
