
 OpenBabel03252506213D

 35 37  0  0  0  0  0  0  0  0999 V2000
   44.8150   35.3130   42.2590 C   0  0  0  0  0  0  0  0  0  0  0  0
   43.6490   35.4290   41.4970 C   0  0  0  0  0  0  0  0  0  0  0  0
   43.5610   34.6630   40.3260 C   0  0  0  0  0  0  0  0  0  0  0  0
   44.5990   33.8530   39.9920 N   0  0  0  0  0  0  0  0  0  0  0  0
   45.7090   33.7710   40.7590 C   0  0  0  0  0  0  0  0  0  0  0  0
   45.8220   34.5000   41.8940 N   0  0  0  0  0  0  0  0  0  0  0  0
   42.8280   36.0720   41.7670 H   0  0  0  0  0  0  0  0  0  0  0  0
   42.7070   34.6870   39.6810 H   0  0  0  0  0  0  0  0  0  0  0  0
   48.3570   35.1030   40.1940 Cl  0  0  0  0  0  0  0  0  0  0  0  0
   48.0300   33.4170   40.0480 C   0  0  0  0  0  0  0  0  0  0  0  0
   46.7930   32.8650   40.3220 C   0  0  0  0  0  0  0  0  0  0  0  0
   46.4950   31.5270   40.2170 C   0  0  0  0  0  0  0  0  0  0  0  0
   47.5040   30.7050   39.8130 C   0  0  0  0  0  0  0  0  0  0  0  0
   48.7810   31.1340   39.5100 C   0  0  0  0  0  0  0  0  0  0  0  0
   48.9870   32.5000   39.6450 C   0  0  0  0  0  0  0  0  0  0  0  0
   45.5000   31.1790   40.4510 H   0  0  0  0  0  0  0  0  0  0  0  0
   47.3070   29.6390   39.7180 H   0  0  0  0  0  0  0  0  0  0  0  0
   49.5720   30.4790   39.1930 H   0  0  0  0  0  0  0  0  0  0  0  0
   49.9780   32.8740   39.4160 H   0  0  0  0  0  0  0  0  0  0  0  0
   44.9320   36.1080   43.4950 C   0  0  0  0  0  3  0  0  0  0  0  0
   45.1340   37.3980   43.3750 C   0  0  0  0  0  3  0  0  0  0  0  0
   45.2610   38.2520   44.5970 C   0  0  0  0  0  0  0  0  0  0  0  0
   44.4470   38.0170   45.3150 H   0  0  0  0  0  0  0  0  0  0  0  0
   46.2650   38.0470   45.0210 H   0  0  0  0  0  0  0  0  0  0  0  0
   45.1060   39.6290   44.1930 N   0  0  0  0  0  0  0  0  0  0  0  0
   45.1740   39.9260   43.1920 H   0  0  0  0  0  0  0  0  0  0  0  0
   44.8090   42.3590   43.0950 Cl  0  0  0  0  0  0  0  0  0  0  0  0
   44.6910   41.9740   44.8030 C   0  0  0  0  0  0  0  0  0  0  0  0
   44.8510   40.6550   45.1750 C   0  0  0  0  0  0  0  0  0  0  0  0
   44.7690   40.2850   46.5160 C   0  0  0  0  0  0  0  0  0  0  0  0
   44.8960   39.2510   46.8040 H   0  0  0  0  0  0  0  0  0  0  0  0
   44.5250   41.2650   47.4570 C   0  0  0  0  0  0  0  0  0  0  0  0
   44.4530   41.0150   48.5230 H   0  0  0  0  0  0  0  0  0  0  0  0
   44.3660   42.5870   47.0700 C   0  0  0  0  0  3  0  0  0  0  0  0
   44.4440   42.9790   45.7330 C   0  0  0  0  0  3  0  0  0  0  0  0
  1 20  1  0  0  0  0
  2  7  1  0  0  0  0
  2  1  2  0  0  0  0
  3  2  1  0  0  0  0
  4  3  2  0  0  0  0
  4  5  1  0  0  0  0
  5  6  2  0  0  0  0
  6  1  1  0  0  0  0
  8  3  1  0  0  0  0
 10  9  1  0  0  0  0
 10 11  1  0  0  0  0
 11  5  1  0  0  0  0
 12 11  2  0  0  0  0
 12 16  1  0  0  0  0
 13 12  1  0  0  0  0
 14 15  1  0  0  0  0
 14 13  2  0  0  0  0
 15 10  2  0  0  0  0
 17 13  1  0  0  0  0
 18 14  1  0  0  0  0
 19 15  1  0  0  0  0
 21 20  2  0  0  0  0
 21 22  1  0  0  0  0
 22 24  1  0  0  0  0
 22 23  1  0  0  0  0
 25 22  1  0  0  0  0
 25 29  1  0  0  0  0
 26 25  1  0  0  0  0
 27 28  1  0  0  0  0
 28 29  2  0  0  0  0
 28 35  1  0  0  0  0
 29 30  1  0  0  0  0
 30 31  1  0  0  0  0
 30 32  2  0  0  0  0
 32 33  1  0  0  0  0
 34 32  1  0  0  0  0
 35 34  2  0  0  0  0
M  END
>  <minimizedAffinity>
-2.01095653

>  <minimizedRMSD>
1.67745399

$$$$
