
 OpenBabel03252506213D

 35 37  0  0  0  0  0  0  0  0999 V2000
   44.8520   35.3120   42.3570 C   0  0  0  0  0  0  0  0  0  0  0  0
   43.7420   35.3880   41.5110 C   0  0  0  0  0  0  0  0  0  0  0  0
   43.7500   34.5930   40.3570 C   0  0  0  0  0  0  0  0  0  0  0  0
   44.8230   33.7950   40.1170 N   0  0  0  0  0  0  0  0  0  0  0  0
   45.8780   33.7520   40.9630 C   0  0  0  0  0  0  0  0  0  0  0  0
   45.8970   34.5100   42.0850 N   0  0  0  0  0  0  0  0  0  0  0  0
   42.8920   36.0220   41.7060 H   0  0  0  0  0  0  0  0  0  0  0  0
   42.9440   34.5850   39.6530 H   0  0  0  0  0  0  0  0  0  0  0  0
   48.4710   35.1390   40.2890 Cl  0  0  0  0  0  0  0  0  0  0  0  0
   48.2200   33.4340   40.3090 C   0  0  0  0  0  0  0  0  0  0  0  0
   47.0050   32.8570   40.6260 C   0  0  0  0  0  0  0  0  0  0  0  0
   46.7670   31.5040   40.6520 C   0  0  0  0  0  0  0  0  0  0  0  0
   47.8160   30.6920   40.3400 C   0  0  0  0  0  0  0  0  0  0  0  0
   49.0770   31.1450   40.0060 C   0  0  0  0  0  0  0  0  0  0  0  0
   49.2210   32.5250   40.0060 C   0  0  0  0  0  0  0  0  0  0  0  0
   45.7860   31.1360   40.9120 H   0  0  0  0  0  0  0  0  0  0  0  0
   47.6670   29.6140   40.3490 H   0  0  0  0  0  0  0  0  0  0  0  0
   49.8990   30.4970   39.7610 H   0  0  0  0  0  0  0  0  0  0  0  0
   50.1980   32.9190   39.7490 H   0  0  0  0  0  0  0  0  0  0  0  0
   44.8680   36.1390   43.5770 C   0  0  0  0  0  3  0  0  0  0  0  0
   45.1860   37.4050   43.4540 C   0  0  0  0  0  3  0  0  0  0  0  0
   45.2170   38.2890   44.6620 C   0  0  0  0  0  0  0  0  0  0  0  0
   44.3430   38.0780   45.3130 H   0  0  0  0  0  0  0  0  0  0  0  0
   46.1790   38.0870   45.1740 H   0  0  0  0  0  0  0  0  0  0  0  0
   45.1110   39.6570   44.2110 N   0  0  0  0  0  0  0  0  0  0  0  0
   45.2200   39.9210   43.2050 H   0  0  0  0  0  0  0  0  0  0  0  0
   44.8500   42.3480   43.0150 Cl  0  0  0  0  0  0  0  0  0  0  0  0
   44.7050   42.0240   44.7330 C   0  0  0  0  0  0  0  0  0  0  0  0
   44.8490   40.7180   45.1530 C   0  0  0  0  0  0  0  0  0  0  0  0
   44.7440   40.3950   46.5050 C   0  0  0  0  0  0  0  0  0  0  0  0
   44.8590   39.3700   46.8310 H   0  0  0  0  0  0  0  0  0  0  0  0
   44.4940   41.4090   47.4080 C   0  0  0  0  0  0  0  0  0  0  0  0
   44.4040   41.1980   48.4800 H   0  0  0  0  0  0  0  0  0  0  0  0
   44.3500   42.7180   46.9730 C   0  0  0  0  0  3  0  0  0  0  0  0
   44.4500   43.0630   45.6250 C   0  0  0  0  0  3  0  0  0  0  0  0
  1 20  1  0  0  0  0
  2  7  1  0  0  0  0
  2  1  2  0  0  0  0
  3  2  1  0  0  0  0
  4  3  2  0  0  0  0
  4  5  1  0  0  0  0
  5  6  2  0  0  0  0
  6  1  1  0  0  0  0
  8  3  1  0  0  0  0
  9 10  1  0  0  0  0
 10 11  1  0  0  0  0
 11 12  2  0  0  0  0
 11  5  1  0  0  0  0
 12 16  1  0  0  0  0
 13 17  1  0  0  0  0
 13 12  1  0  0  0  0
 14 15  1  0  0  0  0
 14 13  2  0  0  0  0
 15 10  2  0  0  0  0
 18 14  1  0  0  0  0
 19 15  1  0  0  0  0
 21 20  2  0  0  0  0
 21 22  1  0  0  0  0
 22 24  1  0  0  0  0
 22 23  1  0  0  0  0
 25 22  1  0  0  0  0
 25 29  1  0  0  0  0
 26 25  1  0  0  0  0
 27 28  1  0  0  0  0
 28 29  2  0  0  0  0
 28 35  1  0  0  0  0
 29 30  1  0  0  0  0
 30 31  1  0  0  0  0
 30 32  2  0  0  0  0
 32 33  1  0  0  0  0
 34 32  1  0  0  0  0
 35 34  2  0  0  0  0
M  END
>  <minimizedAffinity>
-1.9487263

>  <minimizedRMSD>
1.46961033

$$$$
