
 OpenBabel03252505273D

 24 25  0  0  0  0  0  0  0  0999 V2000
   47.0450   32.4680   48.1610 O   0  0  0  0  0  0  0  0  0  0  0  0
   45.5730   32.2270   47.8030 P   0  0  1  0  0  0  0  0  0  0  0  0
   44.6820   31.7160   49.1250 O   0  0  0  0  0  0  0  0  0  0  0  0
   44.8760   32.2610   49.9140 H   0  0  0  0  0  0  0  0  0  0  0  0
   44.9930   33.6940   47.2000 O   0  0  0  0  0  0  0  0  0  0  0  0
   44.6760   35.8980   44.4320 C   0  0  0  0  0  0  0  0  0  0  0  0
   45.5320   35.3640   43.4410 C   0  0  0  0  0  0  0  0  0  0  0  0
   46.2240   34.1940   43.7930 C   0  0  0  0  0  0  0  0  0  0  0  0
   46.0430   33.6530   45.0250 N   0  0  0  0  0  0  0  0  0  0  0  0
   45.2090   34.2060   45.9370 C   0  0  0  0  0  0  0  0  0  0  0  0
   44.5330   35.3270   45.6310 N   0  0  0  0  0  0  0  0  0  0  0  0
   44.1390   36.8010   44.1660 H   0  0  0  0  0  0  0  0  0  0  0  0
   45.6690   35.7940   42.4750 H   0  0  0  0  0  0  0  0  0  0  0  0
   46.9060   33.7220   43.0750 H   0  0  0  0  0  0  0  0  0  0  0  0
   45.5580   30.9940   46.6500 O   0  0  0  0  0  0  0  0  0  0  0  0
   44.9910   28.4320   48.1310 Cl  0  0  0  0  0  0  0  0  0  0  0  0
   46.4590   28.8440   47.2890 C   0  0  0  0  0  0  0  0  0  0  0  0
   46.5850   30.0580   46.6500 C   0  0  0  0  0  0  0  0  0  0  0  0
   47.7920   30.2720   46.0170 C   0  0  0  0  0  0  0  0  0  0  0  0
   47.9740   31.2010   45.4910 H   0  0  0  0  0  0  0  0  0  0  0  0
   48.8390   29.3720   45.9910 C   0  0  0  0  0  0  0  0  0  0  0  0
   49.7640   29.5960   45.4770 H   0  0  0  0  0  0  0  0  0  0  0  0
   48.6680   28.1520   46.6530 C   0  0  0  0  0  0  0  0  0  0  0  0
   47.4690   27.8870   47.3070 C   0  0  0  0  0  0  0  0  0  0  0  0
  2  1  2  1  0  0  0
  2  3  1  0  0  0  0
  3  4  1  0  0  0  0
  5  2  1  0  0  0  0
  6 11  1  0  0  0  0
  7  8  1  0  0  0  0
  7  6  2  0  0  0  0
  8  9  2  0  0  0  0
  9 10  1  0  0  0  0
 10  5  1  0  0  0  0
 11 10  2  0  0  0  0
 12  6  1  0  0  0  0
 13  7  1  0  0  0  0
 14  8  1  0  0  0  0
 15 18  1  0  0  0  0
 15  2  1  0  0  0  0
 17 24  1  0  0  0  0
 17 16  1  0  0  0  0
 18 17  2  0  0  0  0
 19 18  1  0  0  0  0
 20 19  1  0  0  0  0
 21 19  2  0  0  0  0
 21 23  1  0  0  0  0
 22 21  1  0  0  0  0
 23 24  2  0  0  0  0
M  END
>  <minimizedAffinity>
-4.62892675

>  <minimizedRMSD>
3.12721062

$$$$
