
 OpenBabel03242523103D

 46 50  0  0  1  0  0  0  0  0999 V2000
   45.1370   36.0450   43.5080 C   0  0  0  0  0  0  0  0  0  0  0  0
   45.9320   34.9200   43.2890 C   0  0  0  0  0  0  0  0  0  0  0  0
   46.0450   33.9860   44.2700 C   0  0  0  0  0  0  0  0  0  0  0  0
   45.3590   34.2200   45.4100 N   0  0  0  0  0  0  0  0  0  0  0  0
   44.5940   35.2840   45.6420 C   0  0  0  0  0  0  0  0  0  0  0  0
   44.4890   36.1870   44.6920 N   0  0  0  0  0  0  0  0  0  0  0  0
   45.0420   36.7950   42.7340 H   0  0  0  0  0  0  0  0  0  0  0  0
   44.0300   35.5100   46.5380 H   0  0  0  0  0  0  0  0  0  0  0  0
   46.5540   34.8120   42.0440 N   0  0  0  0  0  0  0  0  0  0  0  0
   47.8600   35.2360   41.7890 C   0  0  0  0  0  0  0  0  0  0  0  0
   48.3900   34.8530   40.4230 C   0  0  0  0  0  0  0  0  0  0  0  0
   48.0320   33.6000   39.9700 N   0  0  0  0  0  0  0  0  0  0  0  0
   46.7250   33.1880   40.1800 C   0  0  0  0  0  0  0  0  0  0  0  0
   45.9260   34.2570   40.8800 C   0  0  0  0  0  0  0  0  0  0  0  0
   47.8870   36.3590   41.8230 H   0  0  0  0  0  0  0  0  0  0  0  0
   48.6160   34.9380   42.5660 H   0  0  0  0  0  0  0  0  0  0  0  0
   48.0590   35.6330   39.6890 H   0  0  0  0  0  0  0  0  0  0  0  0
   49.5040   34.9260   40.4870 H   0  0  0  0  0  0  0  0  0  0  0  0
   48.7240   32.9310   39.6400 H   0  0  0  0  0  0  0  0  0  0  0  0
   46.5560   32.2230   40.7020 H   0  0  0  0  0  0  0  0  0  0  0  0
   46.2180   33.0410   39.1860 H   0  0  0  0  0  0  0  0  0  0  0  0
   45.6300   35.0610   40.1600 H   0  0  0  0  0  0  0  0  0  0  0  0
   44.9730   33.7910   41.2170 H   0  0  0  0  0  0  0  0  0  0  0  0
   46.5470   32.1290   45.6340 C   0  0  0  0  0  0  0  0  0  0  0  0
   46.7610   32.7860   44.4010 C   0  0  0  0  0  0  0  0  0  0  0  0
   47.6350   32.0900   43.5900 C   0  0  0  0  0  0  0  0  0  0  0  0
   48.2460   30.9080   43.8880 C   0  0  0  0  0  0  0  0  0  0  0  0
   47.9940   30.3190   45.1020 C   0  0  0  0  0  0  0  0  0  0  0  0
   47.1350   30.9410   45.9790 C   0  0  0  0  0  0  0  0  0  0  0  0
   48.7300   29.1540   45.1330 O   0  0  0  0  0  0  0  0  0  0  0  0
   49.4420   29.0280   43.9140 C   0  0  2  0  0  0  0  0  0  0  0  0
   49.1200   30.1740   43.1310 O   0  0  0  0  0  0  0  0  0  0  0  0
   45.9200   32.4120   46.4820 H   0  0  0  0  0  0  0  0  0  0  0  0
   47.8000   32.5750   42.6790 H   0  0  0  0  0  0  0  0  0  0  0  0
   47.0070   30.4000   46.8990 H   0  0  0  0  0  0  0  0  0  0  0  0
   50.5300   28.9850   44.1000 H   0  0  0  0  0  0  0  0  0  0  0  0
   48.9850   27.9220   43.2580 O   0  0  0  0  0  0  0  0  0  0  0  0
   48.2600   25.6890   45.3380 Cl  0  0  0  0  0  0  0  0  0  0  0  0
   49.1540   25.4890   43.8530 C   0  0  0  0  0  0  0  0  0  0  0  0
   49.3300   26.6400   43.1250 C   0  0  0  0  0  0  0  0  0  0  0  0
   50.0510   26.4610   41.9320 C   0  0  0  0  0  0  0  0  0  0  0  0
   50.3160   27.2320   41.1890 H   0  0  0  0  0  0  0  0  0  0  0  0
   50.5410   25.2290   41.5290 C   0  0  0  0  0  0  0  0  0  0  0  0
   51.0990   25.0380   40.6260 H   0  0  0  0  0  0  0  0  0  0  0  0
   50.3150   24.1380   42.3210 C   0  0  0  0  0  3  0  0  0  0  0  0
   49.6210   24.2530   43.4900 C   0  0  0  0  0  3  0  0  0  0  0  0
  1  6  1  0  0  0  0
  2  1  2  0  0  0  0
  2  3  1  0  0  0  0
  3 25  1  0  0  0  0
  3  4  2  0  0  0  0
  4  5  1  0  0  0  0
  5  8  1  0  0  0  0
  6  5  2  0  0  0  0
  7  1  1  0  0  0  0
  9  2  1  0  0  0  0
 10 15  1  0  0  0  0
 10  9  1  0  0  0  0
 10 16  1  0  0  0  0
 11 18  1  0  0  0  0
 11 10  1  0  0  0  0
 12 13  1  0  0  0  0
 12 11  1  0  0  0  0
 13 20  1  0  0  0  0
 13 14  1  0  0  0  0
 14 23  1  0  0  0  0
 14  9  1  0  0  0  0
 17 11  1  0  0  0  0
 19 12  1  0  0  0  0
 21 13  1  0  0  0  0
 22 14  1  0  0  0  0
 24 29  1  0  0  0  0
 24 33  1  0  0  0  0
 25 24  2  0  0  0  0
 26 27  2  0  0  0  0
 26 25  1  0  0  0  0
 27 28  1  0  0  0  0
 28 30  1  0  0  0  0
 28 29  2  0  0  0  0
 29 35  1  0  0  0  0
 31 36  1  1  0  0  0
 31 30  1  0  0  0  0
 32 27  1  0  0  0  0
 32 31  1  0  0  0  0
 34 26  1  0  0  0  0
 37 31  1  0  0  0  0
 39 38  1  0  0  0  0
 40 37  1  0  0  0  0
 40 39  2  0  0  0  0
 41 40  1  0  0  0  0
 42 41  1  0  0  0  0
 43 41  2  0  0  0  0
 43 45  1  0  0  0  0
 44 43  1  0  0  0  0
 45 46  2  0  0  0  0
 46 39  1  0  0  0  0
M  END
>  <minimizedAffinity>
-4.67917919

>  <minimizedRMSD>
0.5908463

$$$$
