
 OpenBabel03242523103D

 46 50  0  0  1  0  0  0  0  0999 V2000
   45.1370   36.0470   43.5070 C   0  0  0  0  0  0  0  0  0  0  0  0
   45.9320   34.9210   43.2890 C   0  0  0  0  0  0  0  0  0  0  0  0
   46.0440   33.9880   44.2710 C   0  0  0  0  0  0  0  0  0  0  0  0
   45.3570   34.2230   45.4110 N   0  0  0  0  0  0  0  0  0  0  0  0
   44.5930   35.2880   45.6420 C   0  0  0  0  0  0  0  0  0  0  0  0
   44.4890   36.1900   44.6910 N   0  0  0  0  0  0  0  0  0  0  0  0
   45.0420   36.7960   42.7330 H   0  0  0  0  0  0  0  0  0  0  0  0
   44.0290   35.5150   46.5370 H   0  0  0  0  0  0  0  0  0  0  0  0
   46.5530   34.8110   42.0450 N   0  0  0  0  0  0  0  0  0  0  0  0
   47.8600   35.2340   41.7890 C   0  0  0  0  0  0  0  0  0  0  0  0
   48.3910   34.8490   40.4240 C   0  0  0  0  0  0  0  0  0  0  0  0
   48.0300   33.5970   39.9720 N   0  0  0  0  0  0  0  0  0  0  0  0
   46.7230   33.1860   40.1810 C   0  0  0  0  0  0  0  0  0  0  0  0
   45.9260   34.2580   40.8800 C   0  0  0  0  0  0  0  0  0  0  0  0
   47.8890   36.3560   41.8230 H   0  0  0  0  0  0  0  0  0  0  0  0
   48.6160   34.9340   42.5670 H   0  0  0  0  0  0  0  0  0  0  0  0
   48.0610   35.6300   39.6890 H   0  0  0  0  0  0  0  0  0  0  0  0
   49.5040   34.9210   40.4880 H   0  0  0  0  0  0  0  0  0  0  0  0
   48.7220   32.9270   39.6420 H   0  0  0  0  0  0  0  0  0  0  0  0
   46.5520   32.2220   40.7030 H   0  0  0  0  0  0  0  0  0  0  0  0
   46.2160   33.0410   39.1870 H   0  0  0  0  0  0  0  0  0  0  0  0
   45.6300   35.0610   40.1600 H   0  0  0  0  0  0  0  0  0  0  0  0
   44.9720   33.7920   41.2170 H   0  0  0  0  0  0  0  0  0  0  0  0
   46.5550   32.1380   45.6420 C   0  0  0  0  0  0  0  0  0  0  0  0
   46.7600   32.7880   44.4030 C   0  0  0  0  0  0  0  0  0  0  0  0
   47.6260   32.0860   43.5890 C   0  0  0  0  0  0  0  0  0  0  0  0
   48.2380   30.9050   43.8890 C   0  0  0  0  0  0  0  0  0  0  0  0
   47.9950   30.3230   45.1090 C   0  0  0  0  0  0  0  0  0  0  0  0
   47.1450   30.9510   45.9890 C   0  0  0  0  0  0  0  0  0  0  0  0
   48.7290   29.1580   45.1410 O   0  0  0  0  0  0  0  0  0  0  0  0
   49.4310   29.0230   43.9160 C   0  0  2  0  0  0  0  0  0  0  0  0
   49.1040   30.1640   43.1290 O   0  0  0  0  0  0  0  0  0  0  0  0
   45.9350   32.4270   46.4930 H   0  0  0  0  0  0  0  0  0  0  0  0
   47.7840   32.5650   42.6730 H   0  0  0  0  0  0  0  0  0  0  0  0
   47.0240   30.4170   46.9140 H   0  0  0  0  0  0  0  0  0  0  0  0
   50.5210   28.9800   44.0930 H   0  0  0  0  0  0  0  0  0  0  0  0
   48.9670   27.9140   43.2710 O   0  0  0  0  0  0  0  0  0  0  0  0
   48.8430   25.6790   45.4690 Cl  0  0  0  0  0  0  0  0  0  0  0  0
   49.4090   25.5060   43.8270 C   0  0  0  0  0  0  0  0  0  0  0  0
   49.3540   26.6530   43.0730 C   0  0  0  0  0  0  0  0  0  0  0  0
   49.8130   26.4940   41.7540 C   0  0  0  0  0  0  0  0  0  0  0  0
   49.8650   27.2670   40.9680 H   0  0  0  0  0  0  0  0  0  0  0  0
   50.2810   25.2860   41.2600 C   0  0  0  0  0  0  0  0  0  0  0  0
   50.6430   25.1130   40.2600 H   0  0  0  0  0  0  0  0  0  0  0  0
   50.2970   24.1990   42.0890 C   0  0  0  0  0  3  0  0  0  0  0  0
   49.8640   24.2950   43.3780 C   0  0  0  0  0  3  0  0  0  0  0  0
  1  6  1  0  0  0  0
  2  1  2  0  0  0  0
  2  3  1  0  0  0  0
  3 25  1  0  0  0  0
  3  4  2  0  0  0  0
  4  5  1  0  0  0  0
  5  8  1  0  0  0  0
  6  5  2  0  0  0  0
  7  1  1  0  0  0  0
  9  2  1  0  0  0  0
 10 15  1  0  0  0  0
 10  9  1  0  0  0  0
 10 16  1  0  0  0  0
 11 18  1  0  0  0  0
 11 10  1  0  0  0  0
 12 13  1  0  0  0  0
 12 11  1  0  0  0  0
 13 20  1  0  0  0  0
 13 14  1  0  0  0  0
 14 23  1  0  0  0  0
 14  9  1  0  0  0  0
 17 11  1  0  0  0  0
 19 12  1  0  0  0  0
 21 13  1  0  0  0  0
 22 14  1  0  0  0  0
 24 29  1  0  0  0  0
 24 33  1  0  0  0  0
 25 24  2  0  0  0  0
 26 27  2  0  0  0  0
 26 25  1  0  0  0  0
 27 28  1  0  0  0  0
 28 30  1  0  0  0  0
 28 29  2  0  0  0  0
 29 35  1  0  0  0  0
 31 36  1  1  0  0  0
 31 30  1  0  0  0  0
 32 27  1  0  0  0  0
 32 31  1  0  0  0  0
 34 26  1  0  0  0  0
 37 31  1  0  0  0  0
 39 38  1  0  0  0  0
 40 37  1  0  0  0  0
 40 39  2  0  0  0  0
 41 40  1  0  0  0  0
 42 41  1  0  0  0  0
 43 41  2  0  0  0  0
 43 45  1  0  0  0  0
 44 43  1  0  0  0  0
 45 46  2  0  0  0  0
 46 39  1  0  0  0  0
M  END
>  <minimizedAffinity>
-4.68115234

>  <minimizedRMSD>
0.516146004

$$$$
