
 OpenBabel03242517583D

 43 45  0  0  0  0  0  0  0  0999 V2000
   36.6580   29.5590   38.3180 C   0  0  0  0  0  0  0  0  0  0  0  0
   35.9210   29.5010   39.4540 C   0  0  0  0  0  0  0  0  0  0  0  0
   34.5990   29.1170   39.3520 C   0  0  0  0  0  0  0  0  0  0  0  0
   34.0050   28.7920   38.1540 C   0  0  0  0  0  0  0  0  0  0  0  0
   34.7670   28.8540   37.0060 C   0  0  0  0  0  0  0  0  0  0  0  0
   36.0970   29.2400   37.1000 C   0  0  0  0  0  0  0  0  0  0  0  0
   33.9390   29.0450   40.2040 H   0  0  0  0  0  0  0  0  0  0  0  0
   32.9670   28.4910   38.0750 H   0  0  0  0  0  0  0  0  0  0  0  0
   34.3520   28.6110   36.0500 H   0  0  0  0  0  0  0  0  0  0  0  0
   36.7650   29.3120   36.2370 H   0  0  0  0  0  0  0  0  0  0  0  0
   38.2890   30.1610   38.4950 S   0  0  0  0  0  0  0  0  0  0  0  0
   39.1610   29.9080   37.3350 O   0  0  0  0  0  0  0  0  0  0  0  0
   38.9040   29.3390   39.6500 O   0  0  0  0  0  0  0  0  0  0  0  0
   40.9580   31.1340   39.6600 Cl  0  0  0  0  0  0  0  0  0  0  0  0
   39.5600   32.1890   39.6350 C   0  0  0  0  0  0  0  0  0  0  0  0
   38.3380   31.7890   39.1180 C   0  0  0  0  0  0  0  0  0  0  0  0
   37.2150   32.5960   39.0830 C   0  0  0  0  0  0  0  0  0  0  0  0
   36.3040   32.1960   38.6600 H   0  0  0  0  0  0  0  0  0  0  0  0
   37.3320   33.8900   39.6020 C   0  0  0  0  0  0  0  0  0  0  0  0
   36.4490   34.5070   39.5670 H   0  0  0  0  0  0  0  0  0  0  0  0
   38.5510   34.3280   40.1310 C   0  0  0  0  0  3  0  0  0  0  0  0
   39.6590   33.4800   40.1470 C   0  0  0  0  0  3  0  0  0  0  0  0
   36.3330   29.7820   40.7510 O   0  0  0  0  0  0  0  0  0  0  0  0
   37.9290   28.5800   43.6600 C   0  0  0  0  0  0  0  0  0  0  0  0
   37.7930   27.1840   43.5260 C   0  0  0  0  0  0  0  0  0  0  0  0
   37.1500   26.6730   42.4290 C   0  0  0  0  0  0  0  0  0  0  0  0
   36.6860   27.5680   41.5430 N   0  0  0  0  0  0  0  0  0  0  0  0
   36.8120   28.8750   41.6660 C   0  0  0  0  0  0  0  0  0  0  0  0
   37.4350   29.3870   42.7270 N   0  0  0  0  0  0  0  0  0  0  0  0
   38.4360   28.9910   44.5230 H   0  0  0  0  0  0  0  0  0  0  0  0
   38.2240   26.6070   44.3230 H   0  0  0  0  0  0  0  0  0  0  0  0
   36.9740   25.2360   42.1840 C   0  0  0  0  0  0  0  0  0  0  0  0
   37.7550   24.6970   42.7470 H   0  0  0  0  0  0  0  0  0  0  0  0
   35.9610   24.9330   42.5610 H   0  0  0  0  0  0  0  0  0  0  0  0
   37.0710   24.8780   40.7290 C   0  0  0  0  0  0  0  0  0  0  0  0
   36.4330   24.0690   40.4050 H   0  0  0  0  0  0  0  0  0  0  0  0
   36.6630   25.7930   40.1870 H   0  0  0  0  0  0  0  0  0  0  0  0
   38.4510   24.7460   40.2550 C   0  0  0  0  0  3  0  0  0  0  0  0
   39.1560   24.5060   39.1580 C   0  0  0  0  0  3  0  0  0  0  0  0
   40.6590   24.3220   39.0730 C   0  0  0  0  0  0  0  0  0  0  0  0
   41.0440   24.1980   40.1270 H   0  0  0  0  0  0  0  0  0  0  0  0
   40.8170   23.3580   38.5760 H   0  0  0  0  0  0  0  0  0  0  0  0
   41.1400   25.1480   38.5460 H   0  0  0  0  0  0  0  0  0  0  0  0
  1 11  1  0  0  0  0
  1  2  1  0  0  0  0
  2 23  1  0  0  0  0
  3  2  2  0  0  0  0
  3  7  1  0  0  0  0
  4  3  1  0  0  0  0
  5  6  1  0  0  0  0
  5  4  2  0  0  0  0
  6  1  2  0  0  0  0
  8  4  1  0  0  0  0
  9  5  1  0  0  0  0
 10  6  1  0  0  0  0
 11 16  1  0  0  0  0
 11 13  2  0  0  0  0
 12 11  2  0  0  0  0
 15 14  1  0  0  0  0
 15 22  1  0  0  0  0
 16 15  2  0  0  0  0
 17 16  1  0  0  0  0
 17 19  2  0  0  0  0
 18 17  1  0  0  0  0
 19 21  1  0  0  0  0
 20 19  1  0  0  0  0
 21 22  2  0  0  0  0
 23 28  1  0  0  0  0
 24 30  1  0  0  0  0
 25 24  1  0  0  0  0
 25 31  1  0  0  0  0
 26 25  2  0  0  0  0
 27 28  2  0  0  0  0
 27 26  1  0  0  0  0
 28 29  1  0  0  0  0
 29 24  2  0  0  0  0
 32 26  1  0  0  0  0
 32 34  1  0  0  0  0
 32 33  1  0  0  0  0
 35 32  1  0  0  0  0
 36 35  1  0  0  0  0
 37 35  1  0  0  0  0
 38 35  1  0  0  0  0
 39 38  2  0  0  0  0
 40 39  1  0  0  0  0
 40 41  1  0  0  0  0
 42 40  1  0  0  0  0
 43 40  1  0  0  0  0
M  END
>  <minimizedAffinity>
-5.92994213

$$$$

 OpenBabel03242517583D

 43 45  0  0  0  0  0  0  0  0999 V2000
   38.8240   30.7960   39.7840 C   0  0  0  0  0  0  0  0  0  0  0  0
   37.5330   30.8520   39.3770 C   0  0  0  0  0  0  0  0  0  0  0  0
   36.9490   32.0960   39.2340 C   0  0  0  0  0  0  0  0  0  0  0  0
   37.6230   33.2700   39.4850 C   0  0  0  0  0  0  0  0  0  0  0  0
   38.9360   33.1980   39.8980 C   0  0  0  0  0  0  0  0  0  0  0  0
   39.5290   31.9510   40.0440 C   0  0  0  0  0  0  0  0  0  0  0  0
   35.9270   32.2340   38.9160 H   0  0  0  0  0  0  0  0  0  0  0  0
   37.1630   34.2460   39.3740 H   0  0  0  0  0  0  0  0  0  0  0  0
   39.5030   34.0820   40.1050 H   0  0  0  0  0  0  0  0  0  0  0  0
   40.5650   31.8110   40.3660 H   0  0  0  0  0  0  0  0  0  0  0  0
   39.4700   29.1950   40.0560 S   0  0  0  0  0  0  0  0  0  0  0  0
   40.9150   29.1610   40.3430 O   0  0  0  0  0  0  0  0  0  0  0  0
   39.3080   28.4560   38.7090 O   0  0  0  0  0  0  0  0  0  0  0  0
   39.1990   30.1910   42.9480 Cl  0  0  0  0  0  0  0  0  0  0  0  0
   38.3830   28.7310   42.4280 C   0  0  0  0  0  0  0  0  0  0  0  0
   38.4790   28.2480   41.1330 C   0  0  0  0  0  0  0  0  0  0  0  0
   37.8480   27.0990   40.6910 C   0  0  0  0  0  0  0  0  0  0  0  0
   37.9820   26.8000   39.6600 H   0  0  0  0  0  0  0  0  0  0  0  0
   37.0690   26.3920   41.6140 C   0  0  0  0  0  0  0  0  0  0  0  0
   36.5840   25.4990   41.2540 H   0  0  0  0  0  0  0  0  0  0  0  0
   36.9490   26.8510   42.9300 C   0  0  0  0  0  3  0  0  0  0  0  0
   37.6040   28.0150   43.3340 C   0  0  0  0  0  3  0  0  0  0  0  0
   36.6900   29.7910   39.0690 O   0  0  0  0  0  0  0  0  0  0  0  0
   36.3890   29.4790   35.5670 C   0  0  0  0  0  0  0  0  0  0  0  0
   35.0410   29.0990   35.4110 C   0  0  0  0  0  0  0  0  0  0  0  0
   34.2500   28.9530   36.5200 C   0  0  0  0  0  0  0  0  0  0  0  0
   34.8380   29.1920   37.7030 N   0  0  0  0  0  0  0  0  0  0  0  0
   36.0990   29.5490   37.8520 C   0  0  0  0  0  0  0  0  0  0  0  0
   36.8810   29.6940   36.7830 N   0  0  0  0  0  0  0  0  0  0  0  0
   37.0190   29.5970   34.6950 H   0  0  0  0  0  0  0  0  0  0  0  0
   34.7260   28.9500   34.3950 H   0  0  0  0  0  0  0  0  0  0  0  0
   32.8310   28.5810   36.4660 C   0  0  0  0  0  0  0  0  0  0  0  0
   32.5050   28.6380   35.4140 H   0  0  0  0  0  0  0  0  0  0  0  0
   32.7270   27.5270   36.8370 H   0  0  0  0  0  0  0  0  0  0  0  0
   31.9640   29.4740   37.3060 C   0  0  0  0  0  0  0  0  0  0  0  0
   31.2830   28.9670   37.9740 H   0  0  0  0  0  0  0  0  0  0  0  0
   32.6950   30.0050   37.9990 H   0  0  0  0  0  0  0  0  0  0  0  0
   31.3240   30.5480   36.5410 C   0  0  0  0  0  3  0  0  0  0  0  0
   30.4760   31.5580   36.6760 C   0  0  0  0  0  3  0  0  0  0  0  0
   29.9320   32.4330   35.5650 C   0  0  0  0  0  0  0  0  0  0  0  0
   30.1930   31.9370   34.5850 H   0  0  0  0  0  0  0  0  0  0  0  0
   28.8400   32.3850   35.6490 H   0  0  0  0  0  0  0  0  0  0  0  0
   30.3110   33.4550   35.6290 H   0  0  0  0  0  0  0  0  0  0  0  0
  1  6  1  0  0  0  0
  1 11  1  0  0  0  0
  2  1  2  0  0  0  0
  3  2  1  0  0  0  0
  3  4  2  0  0  0  0
  4  5  1  0  0  0  0
  5  6  2  0  0  0  0
  5  9  1  0  0  0  0
  6 10  1  0  0  0  0
  7  3  1  0  0  0  0
  8  4  1  0  0  0  0
 11 12  2  0  0  0  0
 11 16  1  0  0  0  0
 13 11  2  0  0  0  0
 15 14  1  0  0  0  0
 15 22  1  0  0  0  0
 16 15  2  0  0  0  0
 17 16  1  0  0  0  0
 17 19  2  0  0  0  0
 18 17  1  0  0  0  0
 19 21  1  0  0  0  0
 20 19  1  0  0  0  0
 21 22  2  0  0  0  0
 23  2  1  0  0  0  0
 24 29  1  0  0  0  0
 25 24  2  0  0  0  0
 25 26  1  0  0  0  0
 26 27  2  0  0  0  0
 27 28  1  0  0  0  0
 28 23  1  0  0  0  0
 29 28  2  0  0  0  0
 30 24  1  0  0  0  0
 31 25  1  0  0  0  0
 32 26  1  0  0  0  0
 32 34  1  0  0  0  0
 32 35  1  0  0  0  0
 33 32  1  0  0  0  0
 35 36  1  0  0  0  0
 35 37  1  0  0  0  0
 38 39  2  0  0  0  0
 38 35  1  0  0  0  0
 40 43  1  0  0  0  0
 40 42  1  0  0  0  0
 40 39  1  0  0  0  0
 41 40  1  0  0  0  0
M  END
>  <minimizedAffinity>
-5.80439425

$$$$

 OpenBabel03242517583D

 43 45  0  0  0  0  0  0  0  0999 V2000
   37.8360   30.7450   39.1070 C   0  0  0  0  0  0  0  0  0  0  0  0
   39.0640   30.8810   39.6640 C   0  0  0  0  0  0  0  0  0  0  0  0
   39.4120   32.1150   40.1760 C   0  0  0  0  0  0  0  0  0  0  0  0
   38.5680   33.2020   40.1460 C   0  0  0  0  0  0  0  0  0  0  0  0
   37.3210   33.0490   39.5780 C   0  0  0  0  0  0  0  0  0  0  0  0
   36.9640   31.8110   39.0600 C   0  0  0  0  0  0  0  0  0  0  0  0
   40.3680   32.3140   40.6360 H   0  0  0  0  0  0  0  0  0  0  0  0
   38.8420   34.1710   40.5480 H   0  0  0  0  0  0  0  0  0  0  0  0
   36.6270   33.8630   39.5310 H   0  0  0  0  0  0  0  0  0  0  0  0
   35.9940   31.6100   38.5950 H   0  0  0  0  0  0  0  0  0  0  0  0
   37.4970   29.1950   38.3750 S   0  0  0  0  0  0  0  0  0  0  0  0
   37.8950   28.0350   39.1910 O   0  0  0  0  0  0  0  0  0  0  0  0
   38.3950   29.1320   37.1190 O   0  0  0  0  0  0  0  0  0  0  0  0
   35.1630   28.9110   40.3500 Cl  0  0  0  0  0  0  0  0  0  0  0  0
   34.8670   28.9820   38.6250 C   0  0  0  0  0  0  0  0  0  0  0  0
   35.8910   29.1100   37.7000 C   0  0  0  0  0  0  0  0  0  0  0  0
   35.6920   29.1690   36.3330 C   0  0  0  0  0  0  0  0  0  0  0  0
   36.5540   29.2690   35.6880 H   0  0  0  0  0  0  0  0  0  0  0  0
   34.3740   29.0950   35.8670 C   0  0  0  0  0  0  0  0  0  0  0  0
   34.2350   29.1420   34.8000 H   0  0  0  0  0  0  0  0  0  0  0  0
   33.3150   28.9660   36.7720 C   0  0  0  0  0  3  0  0  0  0  0  0
   33.5620   28.9100   38.1440 C   0  0  0  0  0  3  0  0  0  0  0  0
   40.0510   29.9130   39.7960 O   0  0  0  0  0  0  0  0  0  0  0  0
   42.2140   28.9680   42.4200 C   0  0  0  0  0  0  0  0  0  0  0  0
   41.3680   28.2080   43.2520 C   0  0  0  0  0  0  0  0  0  0  0  0
   40.0570   28.0300   42.8960 C   0  0  0  0  0  0  0  0  0  0  0  0
   39.6690   28.6110   41.7490 N   0  0  0  0  0  0  0  0  0  0  0  0
   40.4590   29.3230   40.9690 C   0  0  0  0  0  0  0  0  0  0  0  0
   41.7360   29.5050   41.3020 N   0  0  0  0  0  0  0  0  0  0  0  0
   43.2500   29.1120   42.6950 H   0  0  0  0  0  0  0  0  0  0  0  0
   41.8360   27.8090   44.1330 H   0  0  0  0  0  0  0  0  0  0  0  0
   39.0990   27.2400   43.6800 C   0  0  0  0  0  0  0  0  0  0  0  0
   39.3650   26.1750   43.5670 H   0  0  0  0  0  0  0  0  0  0  0  0
   39.1910   27.5390   44.7570 H   0  0  0  0  0  0  0  0  0  0  0  0
   37.6780   27.4480   43.2420 C   0  0  0  0  0  0  0  0  0  0  0  0
   37.0070   27.8220   44.0020 H   0  0  0  0  0  0  0  0  0  0  0  0
   37.7390   28.2930   42.4810 H   0  0  0  0  0  0  0  0  0  0  0  0
   37.1270   26.3120   42.4990 C   0  0  0  0  0  3  0  0  0  0  0  0
   37.4260   25.0810   42.1080 C   0  0  0  0  0  3  0  0  0  0  0  0
   36.5980   24.1970   41.1960 C   0  0  0  0  0  0  0  0  0  0  0  0
   35.8020   24.8470   40.7280 H   0  0  0  0  0  0  0  0  0  0  0  0
   37.2640   23.8960   40.3800 H   0  0  0  0  0  0  0  0  0  0  0  0
   36.1780   23.3420   41.7300 H   0  0  0  0  0  0  0  0  0  0  0  0
  1  2  1  0  0  0  0
  2 23  1  0  0  0  0
  2  3  2  0  0  0  0
  3  7  1  0  0  0  0
  4  3  1  0  0  0  0
  4  8  1  0  0  0  0
  5  4  2  0  0  0  0
  6  1  2  0  0  0  0
  6  5  1  0  0  0  0
  9  5  1  0  0  0  0
 10  6  1  0  0  0  0
 11  1  1  0  0  0  0
 11 12  2  0  0  0  0
 13 11  2  0  0  0  0
 15 14  1  0  0  0  0
 16 11  1  0  0  0  0
 16 15  2  0  0  0  0
 17 16  1  0  0  0  0
 18 17  1  0  0  0  0
 19 17  2  0  0  0  0
 19 21  1  0  0  0  0
 20 19  1  0  0  0  0
 21 22  2  0  0  0  0
 22 15  1  0  0  0  0
 23 28  1  0  0  0  0
 24 30  1  0  0  0  0
 24 25  1  0  0  0  0
 25 31  1  0  0  0  0
 26 25  2  0  0  0  0
 26 32  1  0  0  0  0
 27 26  1  0  0  0  0
 28 29  1  0  0  0  0
 28 27  2  0  0  0  0
 29 24  2  0  0  0  0
 32 34  1  0  0  0  0
 33 32  1  0  0  0  0
 35 32  1  0  0  0  0
 35 36  1  0  0  0  0
 37 35  1  0  0  0  0
 38 35  1  0  0  0  0
 39 38  2  0  0  0  0
 40 43  1  0  0  0  0
 40 39  1  0  0  0  0
 41 40  1  0  0  0  0
 42 40  1  0  0  0  0
M  END
>  <minimizedAffinity>
-5.79222202

$$$$

 OpenBabel03242517583D

 43 45  0  0  0  0  0  0  0  0999 V2000
   39.8250   31.5970   39.3370 C   0  0  0  0  0  0  0  0  0  0  0  0
   40.6070   30.8370   40.1420 C   0  0  0  0  0  0  0  0  0  0  0  0
   41.5060   31.4790   40.9690 C   0  0  0  0  0  0  0  0  0  0  0  0
   41.6380   32.8490   41.0100 C   0  0  0  0  0  0  0  0  0  0  0  0
   40.8350   33.6100   40.1860 C   0  0  0  0  0  0  0  0  0  0  0  0
   39.9280   32.9710   39.3520 C   0  0  0  0  0  0  0  0  0  0  0  0
   42.1680   30.9540   41.6410 H   0  0  0  0  0  0  0  0  0  0  0  0
   42.3450   33.3520   41.6590 H   0  0  0  0  0  0  0  0  0  0  0  0
   40.8980   34.6790   40.1810 H   0  0  0  0  0  0  0  0  0  0  0  0
   39.2570   33.5040   38.6720 H   0  0  0  0  0  0  0  0  0  0  0  0
   38.7890   30.7240   38.2320 S   0  0  0  0  0  0  0  0  0  0  0  0
   39.4850   29.7230   37.4060 O   0  0  0  0  0  0  0  0  0  0  0  0
   38.2740   31.7840   37.2330 O   0  0  0  0  0  0  0  0  0  0  0  0
   37.2030   28.5380   36.7720 Cl  0  0  0  0  0  0  0  0  0  0  0  0
   36.6350   29.1820   38.2990 C   0  0  0  0  0  0  0  0  0  0  0  0
   37.3210   30.1680   38.9900 C   0  0  0  0  0  0  0  0  0  0  0  0
   36.9000   30.6970   40.1970 C   0  0  0  0  0  0  0  0  0  0  0  0
   37.5020   31.4650   40.6620 H   0  0  0  0  0  0  0  0  0  0  0  0
   35.7110   30.2000   40.7420 C   0  0  0  0  0  0  0  0  0  0  0  0
   35.3960   30.6230   41.6820 H   0  0  0  0  0  0  0  0  0  0  0  0
   34.9930   29.2040   40.0720 C   0  0  0  0  0  3  0  0  0  0  0  0
   35.4530   28.6980   38.8560 C   0  0  0  0  0  3  0  0  0  0  0  0
   40.6220   29.4520   40.2530 O   0  0  0  0  0  0  0  0  0  0  0  0
   41.4060   27.4290   43.0360 C   0  0  0  0  0  0  0  0  0  0  0  0
   40.1530   27.2770   43.6630 C   0  0  0  0  0  0  0  0  0  0  0  0
   39.0500   27.8780   43.1170 C   0  0  0  0  0  0  0  0  0  0  0  0
   39.2550   28.5840   41.9930 N   0  0  0  0  0  0  0  0  0  0  0  0
   40.4250   28.7270   41.4040 C   0  0  0  0  0  0  0  0  0  0  0  0
   41.5070   28.1490   41.9240 N   0  0  0  0  0  0  0  0  0  0  0  0
   42.2810   26.9560   43.4610 H   0  0  0  0  0  0  0  0  0  0  0  0
   40.1610   26.6770   44.5540 H   0  0  0  0  0  0  0  0  0  0  0  0
   37.6980   27.7660   43.6790 C   0  0  0  0  0  0  0  0  0  0  0  0
   37.7430   27.0680   44.5330 H   0  0  0  0  0  0  0  0  0  0  0  0
   37.3790   28.7800   44.0380 H   0  0  0  0  0  0  0  0  0  0  0  0
   36.6930   27.2700   42.6810 C   0  0  0  0  0  0  0  0  0  0  0  0
   35.6670   27.2600   43.0190 H   0  0  0  0  0  0  0  0  0  0  0  0
   36.7080   28.0530   41.8540 H   0  0  0  0  0  0  0  0  0  0  0  0
   37.0930   26.0230   42.0240 C   0  0  0  0  0  3  0  0  0  0  0  0
   37.0090   24.7060   42.1530 C   0  0  0  0  0  3  0  0  0  0  0  0
   37.6890   23.6690   41.2810 C   0  0  0  0  0  0  0  0  0  0  0  0
   38.4550   24.2080   40.6500 H   0  0  0  0  0  0  0  0  0  0  0  0
   38.2560   23.0250   41.9630 H   0  0  0  0  0  0  0  0  0  0  0  0
   36.9700   23.1100   40.6780 H   0  0  0  0  0  0  0  0  0  0  0  0
  1  6  2  0  0  0  0
  1  2  1  0  0  0  0
  2 23  1  0  0  0  0
  2  3  2  0  0  0  0
  3  4  1  0  0  0  0
  3  7  1  0  0  0  0
  4  8  1  0  0  0  0
  5  4  2  0  0  0  0
  6  5  1  0  0  0  0
  9  5  1  0  0  0  0
 10  6  1  0  0  0  0
 11 16  1  0  0  0  0
 11  1  1  0  0  0  0
 12 11  2  0  0  0  0
 13 11  2  0  0  0  0
 14 15  1  0  0  0  0
 15 22  2  0  0  0  0
 15 16  1  0  0  0  0
 16 17  2  0  0  0  0
 17 18  1  0  0  0  0
 17 19  1  0  0  0  0
 19 20  1  0  0  0  0
 21 19  2  0  0  0  0
 22 21  1  0  0  0  0
 23 28  1  0  0  0  0
 24 30  1  0  0  0  0
 24 25  1  0  0  0  0
 25 31  1  0  0  0  0
 26 25  2  0  0  0  0
 26 32  1  0  0  0  0
 27 26  1  0  0  0  0
 28 29  1  0  0  0  0
 28 27  2  0  0  0  0
 29 24  2  0  0  0  0
 32 34  1  0  0  0  0
 32 33  1  0  0  0  0
 35 36  1  0  0  0  0
 35 32  1  0  0  0  0
 37 35  1  0  0  0  0
 38 39  2  0  0  0  0
 38 35  1  0  0  0  0
 40 42  1  0  0  0  0
 40 39  1  0  0  0  0
 41 40  1  0  0  0  0
 43 40  1  0  0  0  0
M  END
>  <minimizedAffinity>
-5.65241098

$$$$

 OpenBabel03242517583D

 43 45  0  0  0  0  0  0  0  0999 V2000
   37.1110   26.1930   41.3200 C   0  0  0  0  0  0  0  0  0  0  0  0
   37.4960   26.4390   40.0440 C   0  0  0  0  0  0  0  0  0  0  0  0
   37.7270   25.3600   39.2150 C   0  0  0  0  0  0  0  0  0  0  0  0
   37.5810   24.0550   39.6290 C   0  0  0  0  0  0  0  0  0  0  0  0
   37.1890   23.8190   40.9300 C   0  0  0  0  0  0  0  0  0  0  0  0
   36.9550   24.8990   41.7690 C   0  0  0  0  0  0  0  0  0  0  0  0
   38.0360   25.4630   38.1860 H   0  0  0  0  0  0  0  0  0  0  0  0
   37.7640   23.2080   38.9770 H   0  0  0  0  0  0  0  0  0  0  0  0
   37.0610   22.8230   41.2990 H   0  0  0  0  0  0  0  0  0  0  0  0
   36.6410   24.7940   42.8120 H   0  0  0  0  0  0  0  0  0  0  0  0
   36.9460   27.5940   42.3520 S   0  0  0  0  0  0  0  0  0  0  0  0
   36.3750   27.3090   43.6800 O   0  0  0  0  0  0  0  0  0  0  0  0
   35.9060   28.4960   41.6500 O   0  0  0  0  0  0  0  0  0  0  0  0
   39.5030   26.3680   43.5290 Cl  0  0  0  0  0  0  0  0  0  0  0  0
   39.5070   28.0020   42.8990 C   0  0  0  0  0  0  0  0  0  0  0  0
   38.3750   28.5920   42.3590 C   0  0  0  0  0  0  0  0  0  0  0  0
   38.3440   29.8790   41.8540 C   0  0  0  0  0  0  0  0  0  0  0  0
   37.4130   30.2550   41.4520 H   0  0  0  0  0  0  0  0  0  0  0  0
   39.5310   30.6200   41.8940 C   0  0  0  0  0  0  0  0  0  0  0  0
   39.4910   31.6200   41.4970 H   0  0  0  0  0  0  0  0  0  0  0  0
   40.6930   30.0550   42.4310 C   0  0  0  0  0  3  0  0  0  0  0  0
   40.6800   28.7520   42.9310 C   0  0  0  0  0  3  0  0  0  0  0  0
   37.6910   27.6740   39.4370 O   0  0  0  0  0  0  0  0  0  0  0  0
   36.9490   29.2820   36.3850 C   0  0  0  0  0  0  0  0  0  0  0  0
   35.5400   29.2950   36.3830 C   0  0  0  0  0  0  0  0  0  0  0  0
   34.8610   28.7450   37.4390 C   0  0  0  0  0  0  0  0  0  0  0  0
   35.6130   28.2230   38.4210 N   0  0  0  0  0  0  0  0  0  0  0  0
   36.9310   28.2110   38.4250 C   0  0  0  0  0  0  0  0  0  0  0  0
   37.6060   28.7410   37.4050 N   0  0  0  0  0  0  0  0  0  0  0  0
   37.4920   29.7160   35.5550 H   0  0  0  0  0  0  0  0  0  0  0  0
   35.0910   29.7550   35.5220 H   0  0  0  0  0  0  0  0  0  0  0  0
   33.3960   28.7250   37.5440 C   0  0  0  0  0  0  0  0  0  0  0  0
   33.1000   27.7490   37.9660 H   0  0  0  0  0  0  0  0  0  0  0  0
   33.0800   29.5470   38.2390 H   0  0  0  0  0  0  0  0  0  0  0  0
   32.7150   28.9240   36.2220 C   0  0  0  0  0  0  0  0  0  0  0  0
   33.3430   28.7980   35.3510 H   0  0  0  0  0  0  0  0  0  0  0  0
   31.9690   28.0660   36.1580 H   0  0  0  0  0  0  0  0  0  0  0  0
   31.8970   30.1380   36.1670 C   0  0  0  0  0  3  0  0  0  0  0  0
   30.8850   30.7390   36.7790 C   0  0  0  0  0  3  0  0  0  0  0  0
   30.1940   32.0150   36.3390 C   0  0  0  0  0  0  0  0  0  0  0  0
   30.5360   32.2390   35.2860 H   0  0  0  0  0  0  0  0  0  0  0  0
   29.1280   31.7720   36.2680 H   0  0  0  0  0  0  0  0  0  0  0  0
   30.3900   32.8410   37.0250 H   0  0  0  0  0  0  0  0  0  0  0  0
  1  6  1  0  0  0  0
  1 11  1  0  0  0  0
  2  1  2  0  0  0  0
  3  4  2  0  0  0  0
  3  2  1  0  0  0  0
  4  5  1  0  0  0  0
  5  9  1  0  0  0  0
  5  6  2  0  0  0  0
  6 10  1  0  0  0  0
  7  3  1  0  0  0  0
  8  4  1  0  0  0  0
 11 16  1  0  0  0  0
 11 12  2  0  0  0  0
 13 11  2  0  0  0  0
 15 22  1  0  0  0  0
 15 14  1  0  0  0  0
 16 15  2  0  0  0  0
 17 19  2  0  0  0  0
 17 16  1  0  0  0  0
 18 17  1  0  0  0  0
 19 21  1  0  0  0  0
 20 19  1  0  0  0  0
 21 22  2  0  0  0  0
 23  2  1  0  0  0  0
 24 29  1  0  0  0  0
 25 24  2  0  0  0  0
 25 26  1  0  0  0  0
 26 32  1  0  0  0  0
 26 27  2  0  0  0  0
 27 28  1  0  0  0  0
 28 23  1  0  0  0  0
 29 28  2  0  0  0  0
 30 24  1  0  0  0  0
 31 25  1  0  0  0  0
 32 33  1  0  0  0  0
 32 34  1  0  0  0  0
 35 32  1  0  0  0  0
 36 35  1  0  0  0  0
 37 35  1  0  0  0  0
 38 35  1  0  0  0  0
 38 39  2  0  0  0  0
 40 39  1  0  0  0  0
 40 43  1  0  0  0  0
 41 40  1  0  0  0  0
 42 40  1  0  0  0  0
M  END
>  <minimizedAffinity>
-5.63895178

$$$$

 OpenBabel03242517583D

 43 45  0  0  0  0  0  0  0  0999 V2000
   37.6850   30.3470   40.5330 C   0  0  0  0  0  0  0  0  0  0  0  0
   37.4210   29.3840   41.4500 C   0  0  0  0  0  0  0  0  0  0  0  0
   36.2730   28.6340   41.2950 C   0  0  0  0  0  0  0  0  0  0  0  0
   35.3930   28.8220   40.2530 C   0  0  0  0  0  0  0  0  0  0  0  0
   35.6730   29.8040   39.3260 C   0  0  0  0  0  0  0  0  0  0  0  0
   36.8260   30.5620   39.4760 C   0  0  0  0  0  0  0  0  0  0  0  0
   35.9840   27.8500   41.9780 H   0  0  0  0  0  0  0  0  0  0  0  0
   34.4910   28.2330   40.1320 H   0  0  0  0  0  0  0  0  0  0  0  0
   35.0210   29.9890   38.4970 H   0  0  0  0  0  0  0  0  0  0  0  0
   37.1180   31.3570   38.7830 H   0  0  0  0  0  0  0  0  0  0  0  0
   39.0900   31.3370   40.8450 S   0  0  0  0  0  0  0  0  0  0  0  0
   39.7900   31.0230   42.1030 O   0  0  0  0  0  0  0  0  0  0  0  0
   38.5450   32.7700   41.0340 O   0  0  0  0  0  0  0  0  0  0  0  0
   40.5240   28.8070   39.8600 Cl  0  0  0  0  0  0  0  0  0  0  0  0
   40.7470   30.3360   39.0350 C   0  0  0  0  0  0  0  0  0  0  0  0
   40.1180   31.5000   39.4460 C   0  0  0  0  0  0  0  0  0  0  0  0
   40.2720   32.7220   38.8180 C   0  0  0  0  0  0  0  0  0  0  0  0
   39.7400   33.5770   39.2120 H   0  0  0  0  0  0  0  0  0  0  0  0
   41.1140   32.7750   37.7010 C   0  0  0  0  0  0  0  0  0  0  0  0
   41.2240   33.7340   37.2220 H   0  0  0  0  0  0  0  0  0  0  0  0
   41.7640   31.6180   37.2570 C   0  0  0  0  0  3  0  0  0  0  0  0
   41.5810   30.4050   37.9210 C   0  0  0  0  0  3  0  0  0  0  0  0
   38.1800   29.0370   42.5610 O   0  0  0  0  0  0  0  0  0  0  0  0
   40.6230   26.7490   43.6800 C   0  0  0  0  0  0  0  0  0  0  0  0
   40.0940   25.5120   43.2600 C   0  0  0  0  0  0  0  0  0  0  0  0
   38.8970   25.4830   42.5940 C   0  0  0  0  0  0  0  0  0  0  0  0
   38.3040   26.6690   42.3880 N   0  0  0  0  0  0  0  0  0  0  0  0
   38.7970   27.8280   42.7790 C   0  0  0  0  0  0  0  0  0  0  0  0
   39.9590   27.8730   43.4280 N   0  0  0  0  0  0  0  0  0  0  0  0
   41.5680   26.7800   44.2050 H   0  0  0  0  0  0  0  0  0  0  0  0
   40.6960   24.6550   43.5010 H   0  0  0  0  0  0  0  0  0  0  0  0
   38.2700   24.2510   42.0970 C   0  0  0  0  0  0  0  0  0  0  0  0
   38.7580   23.9830   41.1450 H   0  0  0  0  0  0  0  0  0  0  0  0
   38.4420   23.4370   42.8510 H   0  0  0  0  0  0  0  0  0  0  0  0
   36.7930   24.3990   41.8770 C   0  0  0  0  0  0  0  0  0  0  0  0
   36.1730   23.6630   42.3690 H   0  0  0  0  0  0  0  0  0  0  0  0
   36.5290   25.3790   42.3920 H   0  0  0  0  0  0  0  0  0  0  0  0
   36.4330   24.6040   40.4720 C   0  0  0  0  0  3  0  0  0  0  0  0
   36.6450   25.4260   39.4530 C   0  0  0  0  0  3  0  0  0  0  0  0
   35.9660   25.3770   38.0980 C   0  0  0  0  0  0  0  0  0  0  0  0
   35.0920   24.6670   38.1830 H   0  0  0  0  0  0  0  0  0  0  0  0
   35.5360   26.3720   37.9390 H   0  0  0  0  0  0  0  0  0  0  0  0
   36.6600   25.0900   37.3050 H   0  0  0  0  0  0  0  0  0  0  0  0
  1 11  1  0  0  0  0
  1  2  1  0  0  0  0
  2 23  1  0  0  0  0
  3  2  2  0  0  0  0
  3  7  1  0  0  0  0
  4  3  1  0  0  0  0
  5  6  1  0  0  0  0
  5  4  2  0  0  0  0
  6  1  2  0  0  0  0
  8  4  1  0  0  0  0
  9  5  1  0  0  0  0
 10  6  1  0  0  0  0
 11 13  2  0  0  0  0
 11 12  2  0  0  0  0
 15 16  1  0  0  0  0
 15 14  1  0  0  0  0
 16 11  1  0  0  0  0
 17 18  1  0  0  0  0
 17 16  2  0  0  0  0
 19 17  1  0  0  0  0
 20 19  1  0  0  0  0
 21 19  2  0  0  0  0
 21 22  1  0  0  0  0
 22 15  2  0  0  0  0
 23 28  1  0  0  0  0
 24 30  1  0  0  0  0
 25 31  1  0  0  0  0
 25 24  2  0  0  0  0
 26 25  1  0  0  0  0
 27 26  2  0  0  0  0
 27 28  1  0  0  0  0
 28 29  2  0  0  0  0
 29 24  1  0  0  0  0
 32 26  1  0  0  0  0
 32 34  1  0  0  0  0
 33 32  1  0  0  0  0
 35 32  1  0  0  0  0
 35 36  1  0  0  0  0
 35 37  1  0  0  0  0
 38 35  1  0  0  0  0
 39 38  2  0  0  0  0
 40 41  1  0  0  0  0
 40 39  1  0  0  0  0
 42 40  1  0  0  0  0
 43 40  1  0  0  0  0
M  END
>  <minimizedAffinity>
-5.62650347

$$$$

 OpenBabel03242517583D

 43 45  0  0  0  0  0  0  0  0999 V2000
   37.3500   30.2940   38.6330 C   0  0  0  0  0  0  0  0  0  0  0  0
   36.7330   30.4160   39.8330 C   0  0  0  0  0  0  0  0  0  0  0  0
   36.6850   31.6670   40.4150 C   0  0  0  0  0  0  0  0  0  0  0  0
   37.2330   32.7860   39.8280 C   0  0  0  0  0  0  0  0  0  0  0  0
   37.8570   32.6470   38.6060 C   0  0  0  0  0  0  0  0  0  0  0  0
   37.9090   31.3920   38.0160 C   0  0  0  0  0  0  0  0  0  0  0  0
   36.2150   31.8560   41.3680 H   0  0  0  0  0  0  0  0  0  0  0  0
   37.1950   33.7680   40.2860 H   0  0  0  0  0  0  0  0  0  0  0  0
   38.2980   33.4860   38.1090 H   0  0  0  0  0  0  0  0  0  0  0  0
   38.3850   31.2010   37.0490 H   0  0  0  0  0  0  0  0  0  0  0  0
   37.4790   28.6690   38.0020 S   0  0  0  0  0  0  0  0  0  0  0  0
   38.3570   27.7800   38.7820 O   0  0  0  0  0  0  0  0  0  0  0  0
   38.1720   28.8190   36.6290 O   0  0  0  0  0  0  0  0  0  0  0  0
   37.3830   25.6570   37.4160 Cl  0  0  0  0  0  0  0  0  0  0  0  0
   35.9300   26.6300   37.3190 C   0  0  0  0  0  0  0  0  0  0  0  0
   35.9300   27.9920   37.5760 C   0  0  0  0  0  0  0  0  0  0  0  0
   34.8010   28.7890   37.5080 C   0  0  0  0  0  0  0  0  0  0  0  0
   34.9000   29.8430   37.7260 H   0  0  0  0  0  0  0  0  0  0  0  0
   33.5940   28.1730   37.1590 C   0  0  0  0  0  0  0  0  0  0  0  0
   32.7240   28.8070   37.1110 H   0  0  0  0  0  0  0  0  0  0  0  0
   33.5570   26.8000   36.8940 C   0  0  0  0  0  3  0  0  0  0  0  0
   34.7200   26.0330   36.9730 C   0  0  0  0  0  3  0  0  0  0  0  0
   36.1180   29.4190   40.5800 O   0  0  0  0  0  0  0  0  0  0  0  0
   37.9770   28.5630   43.4540 C   0  0  0  0  0  0  0  0  0  0  0  0
   37.9410   27.1540   43.4310 C   0  0  0  0  0  0  0  0  0  0  0  0
   37.2720   26.5150   42.4200 C   0  0  0  0  0  0  0  0  0  0  0  0
   36.6870   27.3040   41.5050 N   0  0  0  0  0  0  0  0  0  0  0  0
   36.7210   28.6220   41.5240 C   0  0  0  0  0  0  0  0  0  0  0  0
   37.3660   29.2580   42.5000 N   0  0  0  0  0  0  0  0  0  0  0  0
   38.5040   29.0740   44.2490 H   0  0  0  0  0  0  0  0  0  0  0  0
   38.4630   26.6730   44.2370 H   0  0  0  0  0  0  0  0  0  0  0  0
   37.1910   25.0550   42.2920 C   0  0  0  0  0  0  0  0  0  0  0  0
   38.0450   24.6180   42.8390 H   0  0  0  0  0  0  0  0  0  0  0  0
   36.2300   24.7110   42.7580 H   0  0  0  0  0  0  0  0  0  0  0  0
   37.2250   24.5940   40.8640 C   0  0  0  0  0  0  0  0  0  0  0  0
   37.5430   25.3330   40.1430 H   0  0  0  0  0  0  0  0  0  0  0  0
   38.0490   23.8080   40.8420 H   0  0  0  0  0  0  0  0  0  0  0  0
   36.0140   23.8790   40.4560 C   0  0  0  0  0  3  0  0  0  0  0  0
   35.4640   23.2760   39.4100 C   0  0  0  0  0  3  0  0  0  0  0  0
   34.0570   22.7170   39.3280 C   0  0  0  0  0  0  0  0  0  0  0  0
   33.4870   23.1030   40.2240 H   0  0  0  0  0  0  0  0  0  0  0  0
   33.5970   23.1850   38.4500 H   0  0  0  0  0  0  0  0  0  0  0  0
   34.0550   21.6270   39.2700 H   0  0  0  0  0  0  0  0  0  0  0  0
  1  2  1  0  0  0  0
  2  3  2  0  0  0  0
  2 23  1  0  0  0  0
  3  7  1  0  0  0  0
  4  8  1  0  0  0  0
  4  3  1  0  0  0  0
  5  4  2  0  0  0  0
  6  5  1  0  0  0  0
  6  1  2  0  0  0  0
  9  5  1  0  0  0  0
 10  6  1  0  0  0  0
 11  1  1  0  0  0  0
 11 12  2  0  0  0  0
 13 11  2  0  0  0  0
 15 14  1  0  0  0  0
 15 16  1  0  0  0  0
 16 11  1  0  0  0  0
 17 16  2  0  0  0  0
 17 18  1  0  0  0  0
 19 17  1  0  0  0  0
 20 19  1  0  0  0  0
 21 22  1  0  0  0  0
 21 19  2  0  0  0  0
 22 15  2  0  0  0  0
 23 28  1  0  0  0  0
 24 30  1  0  0  0  0
 25 24  1  0  0  0  0
 25 31  1  0  0  0  0
 26 25  2  0  0  0  0
 27 28  2  0  0  0  0
 27 26  1  0  0  0  0
 28 29  1  0  0  0  0
 29 24  2  0  0  0  0
 32 26  1  0  0  0  0
 32 34  1  0  0  0  0
 32 33  1  0  0  0  0
 35 32  1  0  0  0  0
 36 35  1  0  0  0  0
 37 35  1  0  0  0  0
 38 35  1  0  0  0  0
 39 38  2  0  0  0  0
 40 39  1  0  0  0  0
 40 41  1  0  0  0  0
 42 40  1  0  0  0  0
 43 40  1  0  0  0  0
M  END
>  <minimizedAffinity>
-5.49348879

$$$$

 OpenBabel03242517583D

 43 45  0  0  0  0  0  0  0  0999 V2000
   36.7660   30.2380   38.5800 C   0  0  0  0  0  0  0  0  0  0  0  0
   35.9900   29.6400   39.5170 C   0  0  0  0  0  0  0  0  0  0  0  0
   34.9630   28.8240   39.0860 C   0  0  0  0  0  0  0  0  0  0  0  0
   34.7000   28.5930   37.7550 C   0  0  0  0  0  0  0  0  0  0  0  0
   35.4990   29.2070   36.8120 C   0  0  0  0  0  0  0  0  0  0  0  0
   36.5330   30.0290   37.2380 C   0  0  0  0  0  0  0  0  0  0  0  0
   34.2960   28.3100   39.7620 H   0  0  0  0  0  0  0  0  0  0  0  0
   33.8930   27.9530   37.4180 H   0  0  0  0  0  0  0  0  0  0  0  0
   35.3360   29.0590   35.7650 H   0  0  0  0  0  0  0  0  0  0  0  0
   37.2090   30.5490   36.5530 H   0  0  0  0  0  0  0  0  0  0  0  0
   37.9740   31.3470   39.1830 S   0  0  0  0  0  0  0  0  0  0  0  0
   38.0180   31.4630   40.6510 O   0  0  0  0  0  0  0  0  0  0  0  0
   37.5350   32.7410   38.6810 O   0  0  0  0  0  0  0  0  0  0  0  0
   39.3770   28.6450   39.5820 Cl  0  0  0  0  0  0  0  0  0  0  0  0
   40.1220   29.9020   38.6160 C   0  0  0  0  0  0  0  0  0  0  0  0
   39.5230   31.1340   38.4110 C   0  0  0  0  0  0  0  0  0  0  0  0
   40.0840   32.1470   37.6540 C   0  0  0  0  0  0  0  0  0  0  0  0
   39.5410   33.0770   37.5510 H   0  0  0  0  0  0  0  0  0  0  0  0
   41.3300   31.9020   37.0660 C   0  0  0  0  0  0  0  0  0  0  0  0
   41.7540   32.7000   36.4800 H   0  0  0  0  0  0  0  0  0  0  0  0
   41.9640   30.6680   37.2510 C   0  0  0  0  0  3  0  0  0  0  0  0
   41.3620   29.6730   38.0230 C   0  0  0  0  0  3  0  0  0  0  0  0
   36.0950   29.7400   40.8990 O   0  0  0  0  0  0  0  0  0  0  0  0
   37.9400   28.5000   43.6400 C   0  0  0  0  0  0  0  0  0  0  0  0
   37.8670   27.1060   43.4500 C   0  0  0  0  0  0  0  0  0  0  0  0
   37.1780   26.6090   42.3740 C   0  0  0  0  0  0  0  0  0  0  0  0
   36.6110   27.5160   41.5620 N   0  0  0  0  0  0  0  0  0  0  0  0
   36.6790   28.8210   41.7380 C   0  0  0  0  0  0  0  0  0  0  0  0
   37.3450   29.3190   42.7790 N   0  0  0  0  0  0  0  0  0  0  0  0
   38.4830   28.9000   44.4860 H   0  0  0  0  0  0  0  0  0  0  0  0
   38.3780   26.5190   44.1900 H   0  0  0  0  0  0  0  0  0  0  0  0
   37.0580   25.1770   42.0740 C   0  0  0  0  0  0  0  0  0  0  0  0
   37.9130   24.6590   42.5430 H   0  0  0  0  0  0  0  0  0  0  0  0
   36.1000   24.8000   42.5200 H   0  0  0  0  0  0  0  0  0  0  0  0
   37.0490   24.8900   40.6010 C   0  0  0  0  0  0  0  0  0  0  0  0
   36.3140   24.1700   40.2710 H   0  0  0  0  0  0  0  0  0  0  0  0
   36.7140   25.8700   40.1260 H   0  0  0  0  0  0  0  0  0  0  0  0
   38.3830   24.6420   40.0490 C   0  0  0  0  0  3  0  0  0  0  0  0
   39.6420   25.0450   40.1500 C   0  0  0  0  0  3  0  0  0  0  0  0
   40.8020   24.6080   39.2770 C   0  0  0  0  0  0  0  0  0  0  0  0
   40.3700   24.0610   38.3890 H   0  0  0  0  0  0  0  0  0  0  0  0
   41.2460   25.5290   38.8810 H   0  0  0  0  0  0  0  0  0  0  0  0
   41.5220   24.0020   39.8310 H   0  0  0  0  0  0  0  0  0  0  0  0
  1 11  1  0  0  0  0
  1  2  1  0  0  0  0
  2 23  1  0  0  0  0
  3  2  2  0  0  0  0
  3  7  1  0  0  0  0
  4  3  1  0  0  0  0
  5  6  1  0  0  0  0
  5  4  2  0  0  0  0
  6  1  2  0  0  0  0
  8  4  1  0  0  0  0
  9  5  1  0  0  0  0
 10  6  1  0  0  0  0
 11 12  2  0  0  0  0
 13 11  2  0  0  0  0
 15 14  1  0  0  0  0
 16 15  1  0  0  0  0
 16 11  1  0  0  0  0
 17 16  2  0  0  0  0
 18 17  1  0  0  0  0
 19 21  2  0  0  0  0
 19 17  1  0  0  0  0
 20 19  1  0  0  0  0
 21 22  1  0  0  0  0
 22 15  2  0  0  0  0
 23 28  1  0  0  0  0
 24 30  1  0  0  0  0
 25 24  1  0  0  0  0
 25 31  1  0  0  0  0
 26 25  2  0  0  0  0
 27 28  2  0  0  0  0
 27 26  1  0  0  0  0
 28 29  1  0  0  0  0
 29 24  2  0  0  0  0
 32 26  1  0  0  0  0
 32 34  1  0  0  0  0
 32 33  1  0  0  0  0
 35 32  1  0  0  0  0
 36 35  1  0  0  0  0
 37 35  1  0  0  0  0
 38 39  2  0  0  0  0
 38 35  1  0  0  0  0
 40 43  1  0  0  0  0
 40 39  1  0  0  0  0
 41 40  1  0  0  0  0
 42 40  1  0  0  0  0
M  END
>  <minimizedAffinity>
-5.37205648

$$$$

 OpenBabel03242517583D

 43 45  0  0  0  0  0  0  0  0999 V2000
   36.4200   29.8490   38.5110 C   0  0  0  0  0  0  0  0  0  0  0  0
   35.6270   29.5670   39.5730 C   0  0  0  0  0  0  0  0  0  0  0  0
   34.3790   29.0280   39.3280 C   0  0  0  0  0  0  0  0  0  0  0  0
   33.9140   28.7660   38.0590 C   0  0  0  0  0  0  0  0  0  0  0  0
   34.7320   29.0570   36.9870 C   0  0  0  0  0  0  0  0  0  0  0  0
   35.9870   29.5990   37.2260 C   0  0  0  0  0  0  0  0  0  0  0  0
   33.6830   28.7740   40.1130 H   0  0  0  0  0  0  0  0  0  0  0  0
   32.9340   28.3430   37.8680 H   0  0  0  0  0  0  0  0  0  0  0  0
   34.4170   28.8710   35.9810 H   0  0  0  0  0  0  0  0  0  0  0  0
   36.6930   29.8560   36.4300 H   0  0  0  0  0  0  0  0  0  0  0  0
   37.9370   30.6340   38.8770 S   0  0  0  0  0  0  0  0  0  0  0  0
   37.8120   31.8470   39.7050 O   0  0  0  0  0  0  0  0  0  0  0  0
   38.4800   31.1270   37.5170 O   0  0  0  0  0  0  0  0  0  0  0  0
   40.4580   31.8120   40.1740 Cl  0  0  0  0  0  0  0  0  0  0  0  0
   40.2860   30.0810   39.9730 C   0  0  0  0  0  0  0  0  0  0  0  0
   39.1650   29.5090   39.3930 C   0  0  0  0  0  0  0  0  0  0  0  0
   38.9980   28.1470   39.2190 C   0  0  0  0  0  0  0  0  0  0  0  0
   38.0880   27.7930   38.7550 H   0  0  0  0  0  0  0  0  0  0  0  0
   40.0280   27.3070   39.6580 C   0  0  0  0  0  0  0  0  0  0  0  0
   39.8830   26.2490   39.5160 H   0  0  0  0  0  0  0  0  0  0  0  0
   41.1740   27.8500   40.2490 C   0  0  0  0  0  3  0  0  0  0  0  0
   41.3020   29.2310   40.4050 C   0  0  0  0  0  3  0  0  0  0  0  0
   35.9110   29.7500   40.9200 O   0  0  0  0  0  0  0  0  0  0  0  0
   38.2350   28.7360   43.3750 C   0  0  0  0  0  0  0  0  0  0  0  0
   38.1250   27.3320   43.3360 C   0  0  0  0  0  0  0  0  0  0  0  0
   37.2470   26.7500   42.4600 C   0  0  0  0  0  0  0  0  0  0  0  0
   36.5390   27.5880   41.6850 N   0  0  0  0  0  0  0  0  0  0  0  0
   36.6410   28.9020   41.7190 C   0  0  0  0  0  0  0  0  0  0  0  0
   37.4900   29.4820   42.5660 N   0  0  0  0  0  0  0  0  0  0  0  0
   38.9270   29.2020   44.0640 H   0  0  0  0  0  0  0  0  0  0  0  0
   38.7660   26.8060   44.0200 H   0  0  0  0  0  0  0  0  0  0  0  0
   37.0710   25.2980   42.3250 C   0  0  0  0  0  0  0  0  0  0  0  0
   37.5300   24.8180   43.2060 H   0  0  0  0  0  0  0  0  0  0  0  0
   35.9710   25.0750   42.3040 H   0  0  0  0  0  0  0  0  0  0  0  0
   37.6960   24.7510   41.0750 C   0  0  0  0  0  0  0  0  0  0  0  0
   38.6850   25.1230   40.8470 H   0  0  0  0  0  0  0  0  0  0  0  0
   37.8570   23.6470   41.3020 H   0  0  0  0  0  0  0  0  0  0  0  0
   36.7960   24.7690   39.9190 C   0  0  0  0  0  3  0  0  0  0  0  0
   36.4210   25.5360   38.9050 C   0  0  0  0  0  3  0  0  0  0  0  0
   35.3090   25.2440   37.9170 C   0  0  0  0  0  0  0  0  0  0  0  0
   34.7110   24.3780   38.3260 H   0  0  0  0  0  0  0  0  0  0  0  0
   34.6430   26.1150   37.9440 H   0  0  0  0  0  0  0  0  0  0  0  0
   35.6960   25.0460   36.9150 H   0  0  0  0  0  0  0  0  0  0  0  0
  1 11  1  0  0  0  0
  1  2  1  0  0  0  0
  2 23  1  0  0  0  0
  3  2  2  0  0  0  0
  3  7  1  0  0  0  0
  4  3  1  0  0  0  0
  5  6  1  0  0  0  0
  5  4  2  0  0  0  0
  6  1  2  0  0  0  0
  8  4  1  0  0  0  0
  9  5  1  0  0  0  0
 10  6  1  0  0  0  0
 11 16  1  0  0  0  0
 11 12  2  0  0  0  0
 13 11  2  0  0  0  0
 15 14  1  0  0  0  0
 15 22  1  0  0  0  0
 16 15  2  0  0  0  0
 17 16  1  0  0  0  0
 17 19  2  0  0  0  0
 18 17  1  0  0  0  0
 19 21  1  0  0  0  0
 20 19  1  0  0  0  0
 21 22  2  0  0  0  0
 23 28  1  0  0  0  0
 24 30  1  0  0  0  0
 25 24  1  0  0  0  0
 25 31  1  0  0  0  0
 26 25  2  0  0  0  0
 27 28  2  0  0  0  0
 27 26  1  0  0  0  0
 28 29  1  0  0  0  0
 29 24  2  0  0  0  0
 32 26  1  0  0  0  0
 32 33  1  0  0  0  0
 34 32  1  0  0  0  0
 35 37  1  0  0  0  0
 35 32  1  0  0  0  0
 36 35  1  0  0  0  0
 38 35  1  0  0  0  0
 39 38  2  0  0  0  0
 40 42  1  0  0  0  0
 40 41  1  0  0  0  0
 40 39  1  0  0  0  0
 43 40  1  0  0  0  0
M  END
>  <minimizedAffinity>
-5.3283267

$$$$
