
 OpenBabel03242515113D

 36 38  0  0  0  0  0  0  0  0999 V2000
   36.6930   30.5820   39.3460 C   0  0  0  0  0  0  0  0  0  0  0  0
   36.4270   30.4200   38.0210 C   0  0  0  0  0  0  0  0  0  0  0  0
   35.6070   29.4610   37.4910 C   0  0  0  0  0  0  0  0  0  0  0  0
   34.9930   28.5800   38.3540 C   0  0  0  0  0  0  0  0  0  0  0  0
   35.2350   28.7070   39.6970 C   0  0  0  0  0  0  0  0  0  0  0  0
   36.0740   29.6960   40.1910 C   0  0  0  0  0  0  0  0  0  0  0  0
   36.8830   31.0880   37.2900 H   0  0  0  0  0  0  0  0  0  0  0  0
   35.4300   29.3780   36.4280 H   0  0  0  0  0  0  0  0  0  0  0  0
   34.3390   27.8100   37.9640 H   0  0  0  0  0  0  0  0  0  0  0  0
   34.7260   27.9870   40.3280 H   0  0  0  0  0  0  0  0  0  0  0  0
   38.0620   33.9210   39.9910 C   0  0  0  0  0  0  0  0  0  0  0  0
   39.1930   33.6700   40.7480 C   0  0  0  0  0  0  0  0  0  0  0  0
   39.4940   32.3500   41.0440 C   0  0  0  0  0  0  0  0  0  0  0  0
   38.6920   31.3310   40.5960 N   0  0  0  0  0  0  0  0  0  0  0  0
   37.5760   31.6240   39.8440 C   0  0  0  0  0  0  0  0  0  0  0  0
   37.3020   32.9050   39.5700 N   0  0  0  0  0  0  0  0  0  0  0  0
   37.8570   34.9610   39.7790 H   0  0  0  0  0  0  0  0  0  0  0  0
   39.8850   34.3970   41.1470 H   0  0  0  0  0  0  0  0  0  0  0  0
   40.3260   31.9610   41.6160 H   0  0  0  0  0  0  0  0  0  0  0  0
   36.2120   29.6860   41.5920 N   0  0  0  0  0  0  0  0  0  0  0  0
   35.5460   30.3630   42.0360 H   0  0  0  0  0  0  0  0  0  0  0  0
   37.2240   28.8110   42.6610 S   0  0  0  0  0  0  0  0  0  0  0  0
   38.1190   29.7940   43.3900 O   0  0  0  0  0  0  0  0  0  0  0  0
   37.9910   30.0630   44.3200 H   0  0  0  0  0  0  0  0  0  0  0  0
   36.4900   28.0070   43.6800 O   0  0  0  0  0  0  0  0  0  0  0  0
   35.6980   27.4270   43.5860 H   0  0  0  0  0  0  0  0  0  0  0  0
   38.2410   27.8730   41.7010 O   0  0  0  0  0  0  0  0  0  0  0  0
   39.6720   26.0870   43.6770 Cl  0  0  0  0  0  0  0  0  0  0  0  0
   38.5490   25.5350   42.4260 C   0  0  0  0  0  0  0  0  0  0  0  0
   37.9850   26.5120   41.6050 C   0  0  0  0  0  0  0  0  0  0  0  0
   37.1190   26.0180   40.6500 C   0  0  0  0  0  0  0  0  0  0  0  0
   36.6400   26.7360   39.9700 H   0  0  0  0  0  0  0  0  0  0  0  0
   36.7710   24.7000   40.4390 C   0  0  0  0  0  0  0  0  0  0  0  0
   36.0830   24.4210   39.6630 H   0  0  0  0  0  0  0  0  0  0  0  0
   37.3770   23.7800   41.3010 C   0  0  0  0  0  3  0  0  0  0  0  0
   38.2490   24.2010   42.2750 C   0  0  0  0  0  3  0  0  0  0  0  0
  1 15  1  0  0  0  0
  1  6  1  0  0  0  0
  2  1  2  0  0  0  0
  3  2  1  0  0  0  0
  3  4  2  0  0  0  0
  4  5  1  0  0  0  0
  5  6  2  0  0  0  0
  5 10  1  0  0  0  0
  6 20  1  0  0  0  0
  7  2  1  0  0  0  0
  8  3  1  0  0  0  0
  9  4  1  0  0  0  0
 11 12  1  0  0  0  0
 12 13  2  0  0  0  0
 12 18  1  0  0  0  0
 13 19  1  0  0  0  0
 14 13  1  0  0  0  0
 15 14  2  0  0  0  0
 16 15  1  0  0  0  0
 16 11  2  0  0  0  0
 17 11  1  0  0  0  0
 20 21  1  0  0  0  0
 20 22  1  0  0  0  0
 22 23  1  0  0  0  0
 22 25  1  0  0  0  0
 23 24  1  0  0  0  0
 26 25  1  0  0  0  0
 27 22  1  0  0  0  0
 29 28  1  0  0  0  0
 30 27  1  0  0  0  0
 30 29  2  0  0  0  0
 31 30  1  0  0  0  0
 32 31  1  0  0  0  0
 33 31  2  0  0  0  0
 33 35  1  0  0  0  0
 34 33  1  0  0  0  0
 35 36  2  0  0  0  0
 36 29  1  0  0  0  0
M  END
>  <minimizedAffinity>
-6.46535349

$$$$

 OpenBabel03242515113D

 36 38  0  0  0  0  0  0  0  0999 V2000
   36.6620   30.6450   39.3550 C   0  0  0  0  0  0  0  0  0  0  0  0
   36.3790   30.4590   38.0360 C   0  0  0  0  0  0  0  0  0  0  0  0
   35.5940   29.4590   37.5310 C   0  0  0  0  0  0  0  0  0  0  0  0
   35.0390   28.5580   38.4120 C   0  0  0  0  0  0  0  0  0  0  0  0
   35.2990   28.7080   39.7490 C   0  0  0  0  0  0  0  0  0  0  0  0
   36.1010   29.7390   40.2190 C   0  0  0  0  0  0  0  0  0  0  0  0
   36.7900   31.1400   37.2910 H   0  0  0  0  0  0  0  0  0  0  0  0
   35.4020   29.3580   36.4720 H   0  0  0  0  0  0  0  0  0  0  0  0
   34.4140   27.7550   38.0410 H   0  0  0  0  0  0  0  0  0  0  0  0
   34.8360   27.9700   40.3960 H   0  0  0  0  0  0  0  0  0  0  0  0
   39.3890   32.3950   41.0700 C   0  0  0  0  0  0  0  0  0  0  0  0
   39.1610   33.7270   40.7730 C   0  0  0  0  0  0  0  0  0  0  0  0
   38.0670   34.0350   39.9800 C   0  0  0  0  0  0  0  0  0  0  0  0
   37.2420   33.0440   39.5090 N   0  0  0  0  0  0  0  0  0  0  0  0
   37.5050   31.7310   39.8280 C   0  0  0  0  0  0  0  0  0  0  0  0
   38.5660   31.4540   40.5950 N   0  0  0  0  0  0  0  0  0  0  0  0
   40.2500   32.1900   41.6910 H   0  0  0  0  0  0  0  0  0  0  0  0
   39.7470   34.5760   41.0920 H   0  0  0  0  0  0  0  0  0  0  0  0
   37.7300   35.0070   39.6450 H   0  0  0  0  0  0  0  0  0  0  0  0
   36.2650   29.7480   41.6170 N   0  0  0  0  0  0  0  0  0  0  0  0
   35.6170   30.4400   42.0630 H   0  0  0  0  0  0  0  0  0  0  0  0
   37.2860   28.8750   42.6800 S   0  0  0  0  0  0  0  0  0  0  0  0
   38.1560   29.8630   43.4330 O   0  0  0  0  0  0  0  0  0  0  0  0
   38.0150   30.1140   44.3660 H   0  0  0  0  0  0  0  0  0  0  0  0
   36.5600   28.0410   43.6790 O   0  0  0  0  0  0  0  0  0  0  0  0
   35.7800   27.4460   43.5690 H   0  0  0  0  0  0  0  0  0  0  0  0
   38.3290   27.9740   41.7130 O   0  0  0  0  0  0  0  0  0  0  0  0
   36.8740   25.5640   40.6050 Cl  0  0  0  0  0  0  0  0  0  0  0  0
   38.1960   25.5110   41.7800 C   0  0  0  0  0  0  0  0  0  0  0  0
   38.7440   26.7310   42.1740 C   0  0  0  0  0  0  0  0  0  0  0  0
   39.7700   26.6220   43.0910 C   0  0  0  0  0  0  0  0  0  0  0  0
   40.2460   27.5480   43.4430 H   0  0  0  0  0  0  0  0  0  0  0  0
   40.2850   25.4630   43.6350 C   0  0  0  0  0  0  0  0  0  0  0  0
   41.0900   25.4890   44.3450 H   0  0  0  0  0  0  0  0  0  0  0  0
   39.6850   24.2810   43.1910 C   0  0  0  0  0  3  0  0  0  0  0  0
   38.6580   24.3150   42.2790 C   0  0  0  0  0  3  0  0  0  0  0  0
  1 15  1  0  0  0  0
  1  6  1  0  0  0  0
  2  1  2  0  0  0  0
  3  2  1  0  0  0  0
  3  4  2  0  0  0  0
  4  5  1  0  0  0  0
  5  6  2  0  0  0  0
  5 10  1  0  0  0  0
  6 20  1  0  0  0  0
  7  2  1  0  0  0  0
  8  3  1  0  0  0  0
  9  4  1  0  0  0  0
 11 17  1  0  0  0  0
 12 11  1  0  0  0  0
 12 18  1  0  0  0  0
 13 12  2  0  0  0  0
 14 15  2  0  0  0  0
 14 13  1  0  0  0  0
 15 16  1  0  0  0  0
 16 11  2  0  0  0  0
 19 13  1  0  0  0  0
 20 21  1  0  0  0  0
 20 22  1  0  0  0  0
 22 23  1  0  0  0  0
 22 25  1  0  0  0  0
 23 24  1  0  0  0  0
 26 25  1  0  0  0  0
 27 30  1  0  0  0  0
 27 22  1  0  0  0  0
 28 29  1  0  0  0  0
 29 30  2  0  0  0  0
 29 36  1  0  0  0  0
 30 31  1  0  0  0  0
 31 32  1  0  0  0  0
 31 33  2  0  0  0  0
 33 34  1  0  0  0  0
 35 33  1  0  0  0  0
 36 35  2  0  0  0  0
M  END
>  <minimizedAffinity>
-6.45894766

$$$$

 OpenBabel03242515113D

 36 38  0  0  0  0  0  0  0  0999 V2000
   37.8500   25.1270   41.4750 C   0  0  0  0  0  0  0  0  0  0  0  0
   38.7940   24.2540   41.9230 C   0  0  0  0  0  0  0  0  0  0  0  0
   39.6950   24.5080   42.9210 C   0  0  0  0  0  0  0  0  0  0  0  0
   39.6600   25.7420   43.5310 C   0  0  0  0  0  0  0  0  0  0  0  0
   38.7260   26.6520   43.1100 C   0  0  0  0  0  0  0  0  0  0  0  0
   37.8290   26.3510   42.0950 C   0  0  0  0  0  0  0  0  0  0  0  0
   38.8700   23.2620   41.4790 H   0  0  0  0  0  0  0  0  0  0  0  0
   40.4240   23.7760   43.2380 H   0  0  0  0  0  0  0  0  0  0  0  0
   40.3620   25.9720   44.3240 H   0  0  0  0  0  0  0  0  0  0  0  0
   38.7440   27.6060   43.6260 H   0  0  0  0  0  0  0  0  0  0  0  0
   35.3310   23.2860   39.5510 C   0  0  0  0  0  0  0  0  0  0  0  0
   35.1280   24.0780   38.4350 C   0  0  0  0  0  0  0  0  0  0  0  0
   35.8560   25.2530   38.3350 C   0  0  0  0  0  0  0  0  0  0  0  0
   36.7470   25.6110   39.3150 N   0  0  0  0  0  0  0  0  0  0  0  0
   36.9190   24.7940   40.4090 C   0  0  0  0  0  0  0  0  0  0  0  0
   36.2070   23.6630   40.4880 N   0  0  0  0  0  0  0  0  0  0  0  0
   34.7470   22.3770   39.5980 H   0  0  0  0  0  0  0  0  0  0  0  0
   34.4540   23.8870   37.6130 H   0  0  0  0  0  0  0  0  0  0  0  0
   35.8350   25.9940   37.5460 H   0  0  0  0  0  0  0  0  0  0  0  0
   36.9380   27.3970   41.7860 N   0  0  0  0  0  0  0  0  0  0  0  0
   36.0740   27.0240   41.3230 H   0  0  0  0  0  0  0  0  0  0  0  0
   37.0010   29.0920   42.0140 S   0  0  0  0  0  0  0  0  0  0  0  0
   35.7290   29.7020   41.4570 O   0  0  0  0  0  0  0  0  0  0  0  0
   34.9910   30.0250   42.0100 H   0  0  0  0  0  0  0  0  0  0  0  0
   37.1340   29.5150   43.4370 O   0  0  0  0  0  0  0  0  0  0  0  0
   37.7100   29.1640   44.1570 H   0  0  0  0  0  0  0  0  0  0  0  0
   38.2560   29.6620   41.0460 O   0  0  0  0  0  0  0  0  0  0  0  0
   37.8130   32.6050   40.5070 Cl  0  0  0  0  0  0  0  0  0  0  0  0
   37.7310   31.3190   39.2950 C   0  0  0  0  0  0  0  0  0  0  0  0
   37.9660   30.0160   39.7350 C   0  0  0  0  0  0  0  0  0  0  0  0
   37.8870   29.0600   38.7430 C   0  0  0  0  0  0  0  0  0  0  0  0
   38.0620   28.0120   39.0230 H   0  0  0  0  0  0  0  0  0  0  0  0
   37.6100   29.2630   37.4060 C   0  0  0  0  0  0  0  0  0  0  0  0
   37.5740   28.4440   36.7130 H   0  0  0  0  0  0  0  0  0  0  0  0
   37.3870   30.5950   37.0410 C   0  0  0  0  0  3  0  0  0  0  0  0
   37.4490   31.5980   37.9780 C   0  0  0  0  0  3  0  0  0  0  0  0
  1  2  2  0  0  0  0
  1  6  1  0  0  0  0
  2  3  1  0  0  0  0
  3  8  1  0  0  0  0
  3  4  2  0  0  0  0
  4  9  1  0  0  0  0
  5  4  1  0  0  0  0
  5 10  1  0  0  0  0
  6  5  2  0  0  0  0
  7  2  1  0  0  0  0
 11 17  1  0  0  0  0
 11 16  1  0  0  0  0
 12 11  2  0  0  0  0
 13 12  1  0  0  0  0
 13 14  2  0  0  0  0
 14 15  1  0  0  0  0
 15 16  2  0  0  0  0
 15  1  1  0  0  0  0
 18 12  1  0  0  0  0
 19 13  1  0  0  0  0
 20 22  1  0  0  0  0
 20  6  1  0  0  0  0
 21 20  1  0  0  0  0
 22 25  1  0  0  0  0
 23 24  1  0  0  0  0
 23 22  1  0  0  0  0
 25 26  1  0  0  0  0
 27 22  1  0  0  0  0
 29 30  1  0  0  0  0
 29 28  1  0  0  0  0
 30 27  1  0  0  0  0
 31 32  1  0  0  0  0
 31 30  2  0  0  0  0
 33 31  1  0  0  0  0
 34 33  1  0  0  0  0
 35 33  2  0  0  0  0
 35 36  1  0  0  0  0
 36 29  2  0  0  0  0
M  END
>  <minimizedAffinity>
-5.86622763

$$$$

 OpenBabel03242515113D

 36 38  0  0  0  0  0  0  0  0999 V2000
   37.7570   30.9990   38.0920 C   0  0  0  0  0  0  0  0  0  0  0  0
   37.4880   31.0610   36.7590 C   0  0  0  0  0  0  0  0  0  0  0  0
   36.8640   30.0830   36.0330 C   0  0  0  0  0  0  0  0  0  0  0  0
   36.4690   28.9370   36.6870 C   0  0  0  0  0  0  0  0  0  0  0  0
   36.7220   28.8330   38.0300 C   0  0  0  0  0  0  0  0  0  0  0  0
   37.3570   29.8510   38.7280 C   0  0  0  0  0  0  0  0  0  0  0  0
   37.7760   31.9430   36.1870 H   0  0  0  0  0  0  0  0  0  0  0  0
   36.6750   30.1860   34.9730 H   0  0  0  0  0  0  0  0  0  0  0  0
   35.9740   28.1460   36.1380 H   0  0  0  0  0  0  0  0  0  0  0  0
   36.3890   27.9100   38.4920 H   0  0  0  0  0  0  0  0  0  0  0  0
   38.2740   33.8080   40.3900 C   0  0  0  0  0  0  0  0  0  0  0  0
   39.6050   34.1370   40.2090 C   0  0  0  0  0  0  0  0  0  0  0  0
   40.3370   33.3960   39.2960 C   0  0  0  0  0  0  0  0  0  0  0  0
   39.7520   32.3700   38.5970 N   0  0  0  0  0  0  0  0  0  0  0  0
   38.4240   32.0750   38.8060 C   0  0  0  0  0  0  0  0  0  0  0  0
   37.7340   32.8030   39.6930 N   0  0  0  0  0  0  0  0  0  0  0  0
   37.7320   34.4060   41.1100 H   0  0  0  0  0  0  0  0  0  0  0  0
   40.1560   34.9220   40.7070 H   0  0  0  0  0  0  0  0  0  0  0  0
   41.3780   33.5030   39.0210 H   0  0  0  0  0  0  0  0  0  0  0  0
   37.5370   29.5820   40.0980 N   0  0  0  0  0  0  0  0  0  0  0  0
   38.5210   29.2760   40.2900 H   0  0  0  0  0  0  0  0  0  0  0  0
   36.4920   29.6590   41.4520 S   0  0  0  0  0  0  0  0  0  0  0  0
   35.7890   31.0030   41.4430 O   0  0  0  0  0  0  0  0  0  0  0  0
   34.8570   31.1300   41.1800 H   0  0  0  0  0  0  0  0  0  0  0  0
   35.4520   28.5920   41.4850 O   0  0  0  0  0  0  0  0  0  0  0  0
   35.5230   27.6240   41.3040 H   0  0  0  0  0  0  0  0  0  0  0  0
   37.4750   29.6530   42.8190 O   0  0  0  0  0  0  0  0  0  0  0  0
   38.9460   27.0270   43.1120 Cl  0  0  0  0  0  0  0  0  0  0  0  0
   39.6970   28.5840   42.7360 C   0  0  0  0  0  0  0  0  0  0  0  0
   38.8520   29.6890   42.6400 C   0  0  0  0  0  0  0  0  0  0  0  0
   39.4970   30.8730   42.3440 C   0  0  0  0  0  0  0  0  0  0  0  0
   38.8880   31.7830   42.2550 H   0  0  0  0  0  0  0  0  0  0  0  0
   40.8490   31.0600   42.1410 C   0  0  0  0  0  0  0  0  0  0  0  0
   41.2510   32.0290   41.9130 H   0  0  0  0  0  0  0  0  0  0  0  0
   41.6310   29.9060   42.2520 C   0  0  0  0  0  3  0  0  0  0  0  0
   41.0550   28.6930   42.5440 C   0  0  0  0  0  3  0  0  0  0  0  0
  1  6  1  0  0  0  0
  1 15  1  0  0  0  0
  2  1  2  0  0  0  0
  3  4  2  0  0  0  0
  3  2  1  0  0  0  0
  4  5  1  0  0  0  0
  5 10  1  0  0  0  0
  5  6  2  0  0  0  0
  6 20  1  0  0  0  0
  7  2  1  0  0  0  0
  8  3  1  0  0  0  0
  9  4  1  0  0  0  0
 11 17  1  0  0  0  0
 12 11  1  0  0  0  0
 12 18  1  0  0  0  0
 13 12  2  0  0  0  0
 14 15  2  0  0  0  0
 14 13  1  0  0  0  0
 15 16  1  0  0  0  0
 16 11  2  0  0  0  0
 19 13  1  0  0  0  0
 20 21  1  0  0  0  0
 20 22  1  0  0  0  0
 22 25  1  0  0  0  0
 22 27  1  0  0  0  0
 23 22  1  0  0  0  0
 24 23  1  0  0  0  0
 26 25  1  0  0  0  0
 29 28  1  0  0  0  0
 30 29  1  0  0  0  0
 30 27  1  0  0  0  0
 31 30  2  0  0  0  0
 32 31  1  0  0  0  0
 33 35  2  0  0  0  0
 33 31  1  0  0  0  0
 34 33  1  0  0  0  0
 35 36  1  0  0  0  0
 36 29  2  0  0  0  0
M  END
>  <minimizedAffinity>
-5.74843025

$$$$

 OpenBabel03242515113D

 36 38  0  0  0  0  0  0  0  0999 V2000
   36.6140   26.4220   39.7780 C   0  0  0  0  0  0  0  0  0  0  0  0
   36.3600   25.0880   39.6850 C   0  0  0  0  0  0  0  0  0  0  0  0
   36.5260   24.1800   40.6950 C   0  0  0  0  0  0  0  0  0  0  0  0
   36.9880   24.6350   41.9110 C   0  0  0  0  0  0  0  0  0  0  0  0
   37.2580   25.9710   42.0470 C   0  0  0  0  0  0  0  0  0  0  0  0
   37.0740   26.8570   40.9960 C   0  0  0  0  0  0  0  0  0  0  0  0
   35.9920   24.6690   38.7490 H   0  0  0  0  0  0  0  0  0  0  0  0
   36.3070   23.1290   40.5660 H   0  0  0  0  0  0  0  0  0  0  0  0
   37.1310   23.9390   42.7280 H   0  0  0  0  0  0  0  0  0  0  0  0
   37.6190   26.2720   43.0250 H   0  0  0  0  0  0  0  0  0  0  0  0
   35.1630   29.0950   37.7320 C   0  0  0  0  0  0  0  0  0  0  0  0
   35.9600   29.1090   36.6000 C   0  0  0  0  0  0  0  0  0  0  0  0
   37.0030   28.2000   36.5310 C   0  0  0  0  0  0  0  0  0  0  0  0
   37.2310   27.3170   37.5570 N   0  0  0  0  0  0  0  0  0  0  0  0
   36.4150   27.3350   38.6650 C   0  0  0  0  0  0  0  0  0  0  0  0
   35.4130   28.2220   38.7130 N   0  0  0  0  0  0  0  0  0  0  0  0
   34.3590   29.8170   37.7530 H   0  0  0  0  0  0  0  0  0  0  0  0
   35.8640   29.7600   35.7430 H   0  0  0  0  0  0  0  0  0  0  0  0
   37.7250   28.0610   35.7370 H   0  0  0  0  0  0  0  0  0  0  0  0
   37.3980   28.1930   41.3050 N   0  0  0  0  0  0  0  0  0  0  0  0
   37.1190   28.8330   40.5240 H   0  0  0  0  0  0  0  0  0  0  0  0
   38.1340   28.9320   42.6630 S   0  0  0  0  0  0  0  0  0  0  0  0
   37.0540   29.2610   43.6760 O   0  0  0  0  0  0  0  0  0  0  0  0
   36.9030   28.7540   44.4970 H   0  0  0  0  0  0  0  0  0  0  0  0
   39.1620   28.0900   43.3370 O   0  0  0  0  0  0  0  0  0  0  0  0
   39.8850   27.5370   42.9570 H   0  0  0  0  0  0  0  0  0  0  0  0
   38.7460   30.4090   42.1330 O   0  0  0  0  0  0  0  0  0  0  0  0
   40.6130   29.4380   39.9610 Cl  0  0  0  0  0  0  0  0  0  0  0  0
   39.1980   30.4700   39.7080 C   0  0  0  0  0  0  0  0  0  0  0  0
   38.4550   30.8140   40.8370 C   0  0  0  0  0  0  0  0  0  0  0  0
   37.3650   31.6200   40.5740 C   0  0  0  0  0  0  0  0  0  0  0  0
   36.7370   31.9280   41.4210 H   0  0  0  0  0  0  0  0  0  0  0  0
   36.9560   32.0980   39.3460 C   0  0  0  0  0  0  0  0  0  0  0  0
   36.0870   32.7220   39.2510 H   0  0  0  0  0  0  0  0  0  0  0  0
   37.7500   31.7100   38.2630 C   0  0  0  0  0  3  0  0  0  0  0  0
   38.8500   30.9080   38.4520 C   0  0  0  0  0  3  0  0  0  0  0  0
  1  6  1  0  0  0  0
  2  1  2  0  0  0  0
  2  3  1  0  0  0  0
  3  4  2  0  0  0  0
  4  5  1  0  0  0  0
  4  9  1  0  0  0  0
  5 10  1  0  0  0  0
  6 20  1  0  0  0  0
  6  5  2  0  0  0  0
  7  2  1  0  0  0  0
  8  3  1  0  0  0  0
 11 17  1  0  0  0  0
 11 16  1  0  0  0  0
 12 11  2  0  0  0  0
 13 12  1  0  0  0  0
 13 14  2  0  0  0  0
 14 15  1  0  0  0  0
 15 16  2  0  0  0  0
 15  1  1  0  0  0  0
 18 12  1  0  0  0  0
 19 13  1  0  0  0  0
 20 22  1  0  0  0  0
 21 20  1  0  0  0  0
 22 25  1  0  0  0  0
 22 23  1  0  0  0  0
 23 24  1  0  0  0  0
 26 25  1  0  0  0  0
 27 22  1  0  0  0  0
 29 28  1  0  0  0  0
 29 30  1  0  0  0  0
 30 27  1  0  0  0  0
 31 30  2  0  0  0  0
 31 32  1  0  0  0  0
 33 31  1  0  0  0  0
 34 33  1  0  0  0  0
 35 36  1  0  0  0  0
 35 33  2  0  0  0  0
 36 29  2  0  0  0  0
M  END
>  <minimizedAffinity>
-5.68165112

$$$$

 OpenBabel03242515113D

 36 38  0  0  0  0  0  0  0  0999 V2000
   37.4820   28.0330   38.0690 C   0  0  0  0  0  0  0  0  0  0  0  0
   37.3070   27.8710   36.7290 C   0  0  0  0  0  0  0  0  0  0  0  0
   37.0630   28.8800   35.8370 C   0  0  0  0  0  0  0  0  0  0  0  0
   36.9850   30.1690   36.3170 C   0  0  0  0  0  0  0  0  0  0  0  0
   37.1550   30.3760   37.6610 C   0  0  0  0  0  0  0  0  0  0  0  0
   37.4010   29.3230   38.5300 C   0  0  0  0  0  0  0  0  0  0  0  0
   37.3580   26.8750   36.2900 H   0  0  0  0  0  0  0  0  0  0  0  0
   36.9320   28.6950   34.7800 H   0  0  0  0  0  0  0  0  0  0  0  0
   36.7920   30.9880   35.6350 H   0  0  0  0  0  0  0  0  0  0  0  0
   37.0830   31.4100   37.9820 H   0  0  0  0  0  0  0  0  0  0  0  0
   36.9040   25.4260   40.5810 C   0  0  0  0  0  0  0  0  0  0  0  0
   38.1330   24.8010   40.6930 C   0  0  0  0  0  0  0  0  0  0  0  0
   39.1720   25.2710   39.9050 C   0  0  0  0  0  0  0  0  0  0  0  0
   38.9790   26.3230   39.0450 N   0  0  0  0  0  0  0  0  0  0  0  0
   37.7400   26.9160   38.9640 C   0  0  0  0  0  0  0  0  0  0  0  0
   36.7490   26.4480   39.7330 N   0  0  0  0  0  0  0  0  0  0  0  0
   36.1160   25.0350   41.2090 H   0  0  0  0  0  0  0  0  0  0  0  0
   38.3870   23.9710   41.3360 H   0  0  0  0  0  0  0  0  0  0  0  0
   40.1930   24.9160   39.8540 H   0  0  0  0  0  0  0  0  0  0  0  0
   37.5510   29.7100   39.8760 N   0  0  0  0  0  0  0  0  0  0  0  0
   38.5530   29.9300   40.0900 H   0  0  0  0  0  0  0  0  0  0  0  0
   36.4460   29.8810   41.1720 S   0  0  0  0  0  0  0  0  0  0  0  0
   35.7570   31.2260   41.0450 O   0  0  0  0  0  0  0  0  0  0  0  0
   34.8400   31.3430   40.7320 H   0  0  0  0  0  0  0  0  0  0  0  0
   35.3950   28.8250   41.2250 O   0  0  0  0  0  0  0  0  0  0  0  0
   35.4640   27.8480   41.1090 H   0  0  0  0  0  0  0  0  0  0  0  0
   37.3650   29.9560   42.5810 O   0  0  0  0  0  0  0  0  0  0  0  0
   36.3720   27.3190   43.6790 Cl  0  0  0  0  0  0  0  0  0  0  0  0
   38.0570   27.6970   43.2950 C   0  0  0  0  0  0  0  0  0  0  0  0
   38.3220   28.9720   42.7950 C   0  0  0  0  0  0  0  0  0  0  0  0
   39.6540   29.2050   42.5150 C   0  0  0  0  0  0  0  0  0  0  0  0
   39.9310   30.1910   42.1180 H   0  0  0  0  0  0  0  0  0  0  0  0
   40.7070   28.3290   42.6760 C   0  0  0  0  0  0  0  0  0  0  0  0
   41.7120   28.6120   42.4250 H   0  0  0  0  0  0  0  0  0  0  0  0
   40.3620   27.0710   43.1800 C   0  0  0  0  0  3  0  0  0  0  0  0
   39.0560   26.7700   43.4810 C   0  0  0  0  0  3  0  0  0  0  0  0
  1  6  1  0  0  0  0
  1 15  1  0  0  0  0
  2  1  2  0  0  0  0
  3  4  2  0  0  0  0
  3  2  1  0  0  0  0
  4  5  1  0  0  0  0
  5 10  1  0  0  0  0
  5  6  2  0  0  0  0
  6 20  1  0  0  0  0
  7  2  1  0  0  0  0
  8  3  1  0  0  0  0
  9  4  1  0  0  0  0
 11 12  1  0  0  0  0
 11 17  1  0  0  0  0
 12 18  1  0  0  0  0
 13 12  2  0  0  0  0
 14 13  1  0  0  0  0
 15 14  2  0  0  0  0
 15 16  1  0  0  0  0
 16 11  2  0  0  0  0
 19 13  1  0  0  0  0
 20 21  1  0  0  0  0
 20 22  1  0  0  0  0
 22 25  1  0  0  0  0
 22 27  1  0  0  0  0
 23 22  1  0  0  0  0
 24 23  1  0  0  0  0
 26 25  1  0  0  0  0
 27 30  1  0  0  0  0
 29 36  1  0  0  0  0
 29 28  1  0  0  0  0
 30 29  2  0  0  0  0
 31 33  2  0  0  0  0
 31 30  1  0  0  0  0
 32 31  1  0  0  0  0
 33 35  1  0  0  0  0
 34 33  1  0  0  0  0
 35 36  2  0  0  0  0
M  END
>  <minimizedAffinity>
-5.65438414

$$$$

 OpenBabel03242515113D

 36 38  0  0  0  0  0  0  0  0999 V2000
   36.1520   26.8790   38.9460 C   0  0  0  0  0  0  0  0  0  0  0  0
   36.0980   26.5960   37.6160 C   0  0  0  0  0  0  0  0  0  0  0  0
   35.6280   27.4400   36.6470 C   0  0  0  0  0  0  0  0  0  0  0  0
   35.1670   28.6800   37.0310 C   0  0  0  0  0  0  0  0  0  0  0  0
   35.2020   29.0050   38.3620 C   0  0  0  0  0  0  0  0  0  0  0  0
   35.6890   28.1180   39.3110 C   0  0  0  0  0  0  0  0  0  0  0  0
   36.4490   25.6310   37.2510 H   0  0  0  0  0  0  0  0  0  0  0  0
   35.6080   27.1620   35.6020 H   0  0  0  0  0  0  0  0  0  0  0  0
   34.7870   29.3690   36.2860 H   0  0  0  0  0  0  0  0  0  0  0  0
   34.8260   29.9940   38.6060 H   0  0  0  0  0  0  0  0  0  0  0  0
   36.7290   23.7220   40.7180 C   0  0  0  0  0  0  0  0  0  0  0  0
   37.5900   24.0750   41.7420 C   0  0  0  0  0  0  0  0  0  0  0  0
   37.9810   25.4020   41.8320 C   0  0  0  0  0  0  0  0  0  0  0  0
   37.5220   26.3290   40.9300 N   0  0  0  0  0  0  0  0  0  0  0  0
   36.6660   25.9370   39.9260 C   0  0  0  0  0  0  0  0  0  0  0  0
   36.3010   24.6510   39.8560 N   0  0  0  0  0  0  0  0  0  0  0  0
   36.4450   22.6800   40.6770 H   0  0  0  0  0  0  0  0  0  0  0  0
   38.0060   23.4250   42.4990 H   0  0  0  0  0  0  0  0  0  0  0  0
   38.6400   25.8630   42.5560 H   0  0  0  0  0  0  0  0  0  0  0  0
   35.6550   28.6110   40.6300 N   0  0  0  0  0  0  0  0  0  0  0  0
   34.9400   28.0980   41.1990 H   0  0  0  0  0  0  0  0  0  0  0  0
   36.5260   29.8410   41.4410 S   0  0  0  0  0  0  0  0  0  0  0  0
   35.7410   31.1350   41.3410 O   0  0  0  0  0  0  0  0  0  0  0  0
   35.2290   31.5220   42.0770 H   0  0  0  0  0  0  0  0  0  0  0  0
   36.7790   29.5630   42.8840 O   0  0  0  0  0  0  0  0  0  0  0  0
   37.0770   28.7360   43.3330 H   0  0  0  0  0  0  0  0  0  0  0  0
   37.9430   30.0840   40.5660 O   0  0  0  0  0  0  0  0  0  0  0  0
   39.0360   32.8480   41.1260 Cl  0  0  0  0  0  0  0  0  0  0  0  0
   39.8010   31.3280   41.6110 C   0  0  0  0  0  0  0  0  0  0  0  0
   39.1440   30.1480   41.2620 C   0  0  0  0  0  0  0  0  0  0  0  0
   39.7900   28.9980   41.6680 C   0  0  0  0  0  0  0  0  0  0  0  0
   39.3250   28.0330   41.4240 H   0  0  0  0  0  0  0  0  0  0  0  0
   40.9790   28.9080   42.3610 C   0  0  0  0  0  0  0  0  0  0  0  0
   41.3980   27.9570   42.6310 H   0  0  0  0  0  0  0  0  0  0  0  0
   41.5770   30.1320   42.6760 C   0  0  0  0  0  3  0  0  0  0  0  0
   40.9900   31.3160   42.3030 C   0  0  0  0  0  3  0  0  0  0  0  0
  1  6  1  0  0  0  0
  1 15  1  0  0  0  0
  2  1  2  0  0  0  0
  3  4  2  0  0  0  0
  3  2  1  0  0  0  0
  4  5  1  0  0  0  0
  5 10  1  0  0  0  0
  5  6  2  0  0  0  0
  6 20  1  0  0  0  0
  7  2  1  0  0  0  0
  8  3  1  0  0  0  0
  9  4  1  0  0  0  0
 11 12  1  0  0  0  0
 12 13  2  0  0  0  0
 12 18  1  0  0  0  0
 13 19  1  0  0  0  0
 14 13  1  0  0  0  0
 15 14  2  0  0  0  0
 16 15  1  0  0  0  0
 16 11  2  0  0  0  0
 17 11  1  0  0  0  0
 20 21  1  0  0  0  0
 20 22  1  0  0  0  0
 22 25  1  0  0  0  0
 23 22  1  0  0  0  0
 23 24  1  0  0  0  0
 25 26  1  0  0  0  0
 27 30  1  0  0  0  0
 27 22  1  0  0  0  0
 28 29  1  0  0  0  0
 29 36  1  0  0  0  0
 30 29  2  0  0  0  0
 30 31  1  0  0  0  0
 31 33  2  0  0  0  0
 32 31  1  0  0  0  0
 33 34  1  0  0  0  0
 33 35  1  0  0  0  0
 36 35  2  0  0  0  0
M  END
>  <minimizedAffinity>
-5.64804745

$$$$

 OpenBabel03242515113D

 36 38  0  0  0  0  0  0  0  0999 V2000
   37.2440   29.6530   37.6130 C   0  0  0  0  0  0  0  0  0  0  0  0
   36.5970   29.5400   36.4210 C   0  0  0  0  0  0  0  0  0  0  0  0
   35.3350   29.0390   36.2520 C   0  0  0  0  0  0  0  0  0  0  0  0
   34.6490   28.6110   37.3670 C   0  0  0  0  0  0  0  0  0  0  0  0
   35.2640   28.7070   38.5880 C   0  0  0  0  0  0  0  0  0  0  0  0
   36.5460   29.2220   38.7130 C   0  0  0  0  0  0  0  0  0  0  0  0
   37.0890   29.8620   35.5030 H   0  0  0  0  0  0  0  0  0  0  0  0
   34.8680   28.9720   35.2790 H   0  0  0  0  0  0  0  0  0  0  0  0
   33.6490   28.2090   37.2630 H   0  0  0  0  0  0  0  0  0  0  0  0
   34.6780   28.3550   39.4290 H   0  0  0  0  0  0  0  0  0  0  0  0
   39.9550   32.0440   38.2260 C   0  0  0  0  0  0  0  0  0  0  0  0
   41.1000   31.3130   37.9650 C   0  0  0  0  0  0  0  0  0  0  0  0
   40.9510   29.9920   37.5760 C   0  0  0  0  0  0  0  0  0  0  0  0
   39.7020   29.4340   37.4560 N   0  0  0  0  0  0  0  0  0  0  0  0
   38.5880   30.1960   37.7250 C   0  0  0  0  0  0  0  0  0  0  0  0
   38.7540   31.4700   38.0990 N   0  0  0  0  0  0  0  0  0  0  0  0
   40.1080   33.0710   38.5270 H   0  0  0  0  0  0  0  0  0  0  0  0
   42.1230   31.6570   38.0300 H   0  0  0  0  0  0  0  0  0  0  0  0
   41.7190   29.2700   37.3310 H   0  0  0  0  0  0  0  0  0  0  0  0
   37.0280   29.2500   40.0360 N   0  0  0  0  0  0  0  0  0  0  0  0
   37.5660   28.3760   40.2540 H   0  0  0  0  0  0  0  0  0  0  0  0
   36.9030   30.3960   41.3020 S   0  0  0  0  0  0  0  0  0  0  0  0
   37.9510   31.4710   41.0830 O   0  0  0  0  0  0  0  0  0  0  0  0
   37.7520   32.3670   40.7490 H   0  0  0  0  0  0  0  0  0  0  0  0
   35.5720   31.0580   41.4000 O   0  0  0  0  0  0  0  0  0  0  0  0
   34.6630   30.6770   41.3440 H   0  0  0  0  0  0  0  0  0  0  0  0
   37.3400   29.5970   42.7180 O   0  0  0  0  0  0  0  0  0  0  0  0
   36.8340   26.6150   42.7450 Cl  0  0  0  0  0  0  0  0  0  0  0  0
   38.4280   27.3820   42.7000 C   0  0  0  0  0  0  0  0  0  0  0  0
   38.4610   28.7760   42.6920 C   0  0  0  0  0  0  0  0  0  0  0  0
   39.7320   29.3130   42.6560 C   0  0  0  0  0  0  0  0  0  0  0  0
   39.8280   30.4080   42.6480 H   0  0  0  0  0  0  0  0  0  0  0  0
   40.9290   28.6270   42.6280 C   0  0  0  0  0  0  0  0  0  0  0  0
   41.8690   29.1440   42.6000 H   0  0  0  0  0  0  0  0  0  0  0  0
   40.8140   27.2330   42.6360 C   0  0  0  0  0  3  0  0  0  0  0  0
   39.5800   26.6310   42.6720 C   0  0  0  0  0  3  0  0  0  0  0  0
  1 15  1  0  0  0  0
  1  6  1  0  0  0  0
  2  1  2  0  0  0  0
  3  2  1  0  0  0  0
  3  4  2  0  0  0  0
  4  5  1  0  0  0  0
  5  6  2  0  0  0  0
  5 10  1  0  0  0  0
  6 20  1  0  0  0  0
  7  2  1  0  0  0  0
  8  3  1  0  0  0  0
  9  4  1  0  0  0  0
 11 17  1  0  0  0  0
 12 18  1  0  0  0  0
 12 11  2  0  0  0  0
 13 12  1  0  0  0  0
 14 13  2  0  0  0  0
 14 15  1  0  0  0  0
 15 16  2  0  0  0  0
 16 11  1  0  0  0  0
 19 13  1  0  0  0  0
 20 21  1  0  0  0  0
 20 22  1  0  0  0  0
 22 25  1  0  0  0  0
 22 27  1  0  0  0  0
 23 22  1  0  0  0  0
 24 23  1  0  0  0  0
 26 25  1  0  0  0  0
 29 28  1  0  0  0  0
 30 29  1  0  0  0  0
 30 27  1  0  0  0  0
 31 30  2  0  0  0  0
 32 31  1  0  0  0  0
 33 35  2  0  0  0  0
 33 31  1  0  0  0  0
 34 33  1  0  0  0  0
 35 36  1  0  0  0  0
 36 29  2  0  0  0  0
M  END
>  <minimizedAffinity>
-5.60938406

$$$$

 OpenBabel03242515113D

 36 38  0  0  0  0  0  0  0  0999 V2000
   36.9020   29.0690   39.7710 C   0  0  0  0  0  0  0  0  0  0  0  0
   35.9060   28.4690   39.0640 C   0  0  0  0  0  0  0  0  0  0  0  0
   35.5030   28.8290   37.8070 C   0  0  0  0  0  0  0  0  0  0  0  0
   36.1460   29.8800   37.1920 C   0  0  0  0  0  0  0  0  0  0  0  0
   37.1550   30.5140   37.8700 C   0  0  0  0  0  0  0  0  0  0  0  0
   37.5320   30.1150   39.1440 C   0  0  0  0  0  0  0  0  0  0  0  0
   35.3610   27.6310   39.4980 H   0  0  0  0  0  0  0  0  0  0  0  0
   34.7040   28.3150   37.2900 H   0  0  0  0  0  0  0  0  0  0  0  0
   35.8480   30.1880   36.1970 H   0  0  0  0  0  0  0  0  0  0  0  0
   37.6250   31.3340   37.3370 H   0  0  0  0  0  0  0  0  0  0  0  0
   37.6840   26.8520   42.5840 C   0  0  0  0  0  0  0  0  0  0  0  0
   37.9960   27.7250   43.6110 C   0  0  0  0  0  0  0  0  0  0  0  0
   37.9410   29.0840   43.3460 C   0  0  0  0  0  0  0  0  0  0  0  0
   37.5860   29.5400   42.1010 N   0  0  0  0  0  0  0  0  0  0  0  0
   37.2830   28.6380   41.1060 C   0  0  0  0  0  0  0  0  0  0  0  0
   37.3430   27.3300   41.3830 N   0  0  0  0  0  0  0  0  0  0  0  0
   37.7370   25.8000   42.8250 H   0  0  0  0  0  0  0  0  0  0  0  0
   38.2850   27.4680   44.6200 H   0  0  0  0  0  0  0  0  0  0  0  0
   38.1470   29.9100   44.0130 H   0  0  0  0  0  0  0  0  0  0  0  0
   38.5840   30.8720   39.6960 N   0  0  0  0  0  0  0  0  0  0  0  0
   39.4940   30.3580   39.6110 H   0  0  0  0  0  0  0  0  0  0  0  0
   38.6500   32.4080   40.4470 S   0  0  0  0  0  0  0  0  0  0  0  0
   37.2380   32.9510   40.5590 O   0  0  0  0  0  0  0  0  0  0  0  0
   36.7260   32.9750   41.3900 H   0  0  0  0  0  0  0  0  0  0  0  0
   39.2520   32.3990   41.8100 O   0  0  0  0  0  0  0  0  0  0  0  0
   40.0590   31.9420   42.1490 H   0  0  0  0  0  0  0  0  0  0  0  0
   39.4620   33.4300   39.3830 O   0  0  0  0  0  0  0  0  0  0  0  0
   41.9860   34.1190   40.8990 Cl  0  0  0  0  0  0  0  0  0  0  0  0
   41.9200   33.2090   39.3830 C   0  0  0  0  0  0  0  0  0  0  0  0
   40.6580   32.9880   38.8310 C   0  0  0  0  0  0  0  0  0  0  0  0
   40.6730   32.2740   37.6500 C   0  0  0  0  0  0  0  0  0  0  0  0
   39.7100   32.0650   37.1620 H   0  0  0  0  0  0  0  0  0  0  0  0
   41.7760   31.7750   36.9890 C   0  0  0  0  0  0  0  0  0  0  0  0
   41.6770   31.2280   36.0710 H   0  0  0  0  0  0  0  0  0  0  0  0
   43.0050   32.0360   37.6040 C   0  0  0  0  0  3  0  0  0  0  0  0
   43.0650   32.7410   38.7810 C   0  0  0  0  0  3  0  0  0  0  0  0
  1 15  1  0  0  0  0
  2  7  1  0  0  0  0
  2  1  2  0  0  0  0
  3  2  1  0  0  0  0
  4  3  2  0  0  0  0
  4  5  1  0  0  0  0
  5  6  2  0  0  0  0
  6 20  1  0  0  0  0
  6  1  1  0  0  0  0
  8  3  1  0  0  0  0
  9  4  1  0  0  0  0
 10  5  1  0  0  0  0
 11 17  1  0  0  0  0
 11 12  1  0  0  0  0
 12 18  1  0  0  0  0
 13 12  2  0  0  0  0
 13 19  1  0  0  0  0
 14 13  1  0  0  0  0
 15 16  1  0  0  0  0
 15 14  2  0  0  0  0
 16 11  2  0  0  0  0
 20 22  1  0  0  0  0
 21 20  1  0  0  0  0
 22 23  1  0  0  0  0
 22 25  1  0  0  0  0
 23 24  1  0  0  0  0
 25 26  1  0  0  0  0
 27 22  1  0  0  0  0
 29 28  1  0  0  0  0
 30 29  1  0  0  0  0
 30 27  1  0  0  0  0
 31 30  2  0  0  0  0
 32 31  1  0  0  0  0
 33 35  2  0  0  0  0
 33 31  1  0  0  0  0
 34 33  1  0  0  0  0
 35 36  1  0  0  0  0
 36 29  2  0  0  0  0
M  END
>  <minimizedAffinity>
-5.59911489

$$$$
