
     RDKit          3D

 48 52  0  0  0  0  0  0  0  0999 V2000
   45.1507   36.0198   43.4964 C   0  0  0  0  0  0  0  0  0  0  0  0
   45.9544   34.9012   43.2725 C   0  0  0  0  0  0  0  0  0  0  0  0
   46.0563   33.9536   44.2421 C   0  0  0  0  0  0  0  0  0  0  0  0
   45.3522   34.1695   45.3746 N   0  0  0  0  0  0  0  0  0  0  0  0
   44.5796   35.2267   45.6114 C   0  0  0  0  0  0  0  0  0  0  0  0
   44.4853   36.1426   44.6725 N   0  0  0  0  0  0  0  0  0  0  0  0
   46.5941   34.8122   42.0364 N   0  0  0  0  0  0  0  0  0  0  0  0
   47.8903   35.2751   41.7965 C   0  0  0  0  0  0  0  0  0  0  0  0
   48.4490   34.9091   40.4375 C   0  0  0  0  0  0  0  0  0  0  0  0
   48.1334   33.6469   39.9805 N   0  0  0  0  0  0  0  0  0  0  0  0
   46.8375   33.1959   40.1731 C   0  0  0  0  0  0  0  0  0  0  0  0
   45.9981   34.2407   40.8626 C   0  0  0  0  0  0  0  0  0  0  0  0
   46.4862   32.0399   45.5519 C   0  0  0  0  0  0  0  0  0  0  0  0
   46.7751   32.7553   44.3674 C   0  0  0  0  0  0  0  0  0  0  0  0
   47.7087   32.1041   43.5860 C   0  0  0  0  0  0  0  0  0  0  0  0
   48.3116   30.9142   43.8711 C   0  0  0  0  0  0  0  0  0  0  0  0
   47.9852   30.2678   45.0383 C   0  0  0  0  0  0  0  0  0  0  0  0
   47.0631   30.8423   45.8823 C   0  0  0  0  0  0  0  0  0  0  0  0
   48.7298   29.1089   45.0656 O   0  0  0  0  0  0  0  0  0  0  0  0
   49.5236   29.0436   43.8927 C   0  0  2  0  0  0  0  0  0  0  0  0
   49.2431   30.2221   43.1433 O   0  0  0  0  0  0  0  0  0  0  0  0
   49.1237   27.9656   43.1594 O   0  0  0  0  0  0  0  0  0  0  0  0
   45.0641   36.7801   42.7312 H   0  0  0  0  0  0  0  0  0  0  0  0
   44.0024   35.4379   46.5006 H   0  0  0  0  0  0  0  0  0  0  0  0
   47.8844   36.3984   41.8330 H   0  0  0  0  0  0  0  0  0  0  0  0
   48.6446   34.9977   42.5844 H   0  0  0  0  0  0  0  0  0  0  0  0
   48.1041   35.6800   39.7005 H   0  0  0  0  0  0  0  0  0  0  0  0
   49.5593   35.0151   40.5158 H   0  0  0  0  0  0  0  0  0  0  0  0
   48.8493   32.9989   39.6577 H   0  0  0  0  0  0  0  0  0  0  0  0
   46.6888   32.2259   40.6918 H   0  0  0  0  0  0  0  0  0  0  0  0
   46.3473   33.0358   39.1717 H   0  0  0  0  0  0  0  0  0  0  0  0
   45.6872   35.0356   40.1402 H   0  0  0  0  0  0  0  0  0  0  0  0
   45.0551   33.7460   41.1881 H   0  0  0  0  0  0  0  0  0  0  0  0
   45.8003   32.2794   46.3675 H   0  0  0  0  0  0  0  0  0  0  0  0
   47.9299   32.6314   42.7110 H   0  0  0  0  0  0  0  0  0  0  0  0
   46.8787   30.2587   46.7657 H   0  0  0  0  0  0  0  0  0  0  0  0
   50.5981   29.0015   44.1498 H   0  0  0  0  0  0  0  0  0  0  0  0
   48.6728   25.1042   44.3613 Cl  0  0  0  0  0  0  0  0  0  0  0  0
   49.6442   25.5171   42.9708 C   0  0  0  0  0  0  0  0  0  0  0  0
   49.6680   26.8550   42.6600 C   0  0  0  0  0  0  0  0  0  0  0  0
   50.4542   27.1686   41.5385 C   0  0  0  0  0  0  0  0  0  0  0  0
   50.6251   28.1674   41.1009 H   0  0  0  0  0  0  0  0  0  0  0  0
   51.1443   26.2108   40.8115 C   0  0  0  0  0  0  0  0  0  0  0  0
   51.7589   26.3991   39.9467 H   0  0  0  0  0  0  0  0  0  0  0  0
   51.0586   24.9028   41.1992 C   0  0  0  0  0  0  0  0  0  0  0  0
   50.3104   24.5401   42.2797 C   0  0  0  0  0  0  0  0  0  0  0  0
   51.5700   24.1091   40.6778 H   0  0  0  0  0  0  0  0  0  0  0  0
   50.2092   23.5363   42.6250 H   0  0  0  0  0  0  0  0  0  0  0  0
  1  6  2  0
  2  1  1  0
  2  3  2  0
  3 14  1  0
  3  4  1  0
  4  5  2  0
  6  5  1  0
  7  2  1  0
  8  7  1  0
  9  8  1  0
 10 11  1  0
 10  9  1  0
 11 12  1  0
 12  7  1  0
 13 18  2  0
 14 13  1  0
 15 16  1  0
 15 14  2  0
 16 17  2  0
 17 19  1  0
 17 18  1  0
 20 19  1  0
 21 16  1  0
 21 20  1  0
 22 20  1  0
  1 23  1  0
  5 24  1  0
  8 25  1  0
  8 26  1  0
  9 27  1  0
  9 28  1  0
 10 29  1  0
 11 30  1  0
 11 31  1  0
 12 32  1  0
 12 33  1  0
 13 34  1  0
 15 35  1  0
 18 36  1  0
 20 37  1  1
 38 39  1  0
 39 40  2  0
 40 41  1  0
 41 42  1  0
 41 43  2  0
 43 44  1  0
 43 45  1  0
 45 46  2  0
 46 39  1  0
 45 47  1  0
 46 48  1  0
 22 40  1  0
M  ISO  8  23  14  24  14  25  13  26  13  27  13  28  13  29   5  30  13
M  ISO  8  31  13  32  13  33  13  34  14  35  14  36  14  37  13  42  15
M  ISO  1  44  16
M  END
>  <DihAtoms>  (1) 
19,21,39,38

>  <DihDeg>  (1) 
0.02963375499112473

$$$$
