
 OpenBabel03252507163D

 27 29  0  0  0  0  0  0  0  0999 V2000
   45.2000   36.1090   43.1120 C   0  0  0  0  0  0  0  0  0  0  0  0
   45.7250   34.8120   42.9530 C   0  0  0  0  0  0  0  0  0  0  0  0
   45.6790   33.9430   44.0200 C   0  0  0  0  0  0  0  0  0  0  0  0
   45.1380   34.3520   45.1790 N   0  0  0  0  0  0  0  0  0  0  0  0
   44.6300   35.6050   45.3390 C   0  0  0  0  0  0  0  0  0  0  0  0
   44.6730   36.4540   44.3030 N   0  0  0  0  0  0  0  0  0  0  0  0
   45.2230   36.8190   42.2850 H   0  0  0  0  0  0  0  0  0  0  0  0
   44.1950   35.9090   46.2990 H   0  0  0  0  0  0  0  0  0  0  0  0
   46.2260   32.6010   43.8430 C   0  0  0  0  0  0  0  0  0  0  0  0
   45.3930   31.5430   43.5700 C   0  0  0  0  0  0  0  0  0  0  0  0
   45.9440   30.2960   43.4100 C   0  0  0  0  0  0  0  0  0  0  0  0
   47.3010   30.0420   43.5080 C   0  0  0  0  0  0  0  0  0  0  0  0
   48.0880   31.1440   43.7840 C   0  0  0  0  0  0  0  0  0  0  0  0
   47.5350   32.3560   43.9380 N   0  0  0  0  0  0  0  0  0  0  0  0
   44.3250   31.6410   43.4750 H   0  0  0  0  0  0  0  0  0  0  0  0
   45.3380   29.4010   43.1900 H   0  0  0  0  0  0  0  0  0  0  0  0
   47.7840   29.0890   43.3930 H   0  0  0  0  0  0  0  0  0  0  0  0
   49.1740   31.1250   43.8950 H   0  0  0  0  0  0  0  0  0  0  0  0
   46.2860   34.4510   41.6820 C   0  0  0  0  0  0  0  0  0  0  0  0
   47.5170   34.6980   41.4740 O   0  0  0  0  0  0  0  0  0  0  0  0
   45.4250   33.8300   40.7100 N   0  0  0  0  0  0  0  0  0  0  0  0
   44.0210   33.4740   40.7650 C   0  0  0  0  0  2  0  0  0  0  0  0
   43.2920   34.0650   39.5510 C   0  0  0  0  0  2  0  0  0  0  0  0
   43.8310   33.4120   38.2930 C   0  0  0  0  0  3  0  0  0  0  0  0
   43.9670   34.1860   37.5000 H   0  0  0  0  0  0  0  0  0  0  0  0
   45.1180   32.6780   38.6040 C   0  0  0  0  0  2  0  0  0  0  0  0
   46.0500   33.4890   39.4450 C   0  0  0  0  0  2  0  0  0  0  0  0
  1  6  1  0  0  0  0
  2  1  2  0  0  0  0
  2  3  1  0  0  0  0
  3  4  2  0  0  0  0
  4  5  1  0  0  0  0
  5  8  1  0  0  0  0
  6  5  2  0  0  0  0
  7  1  1  0  0  0  0
  9 14  1  0  0  0  0
  9  3  1  0  0  0  0
 10  9  2  0  0  0  0
 11 12  2  0  0  0  0
 11 10  1  0  0  0  0
 12 13  1  0  0  0  0
 13 18  1  0  0  0  0
 13 14  2  0  0  0  0
 15 10  1  0  0  0  0
 16 11  1  0  0  0  0
 17 12  1  0  0  0  0
 19  2  1  0  0  0  0
 20 19  2  0  0  0  0
 21 22  1  0  0  0  0
 21 19  1  0  0  0  0
 23 22  1  0  0  0  0
 24 26  1  0  0  0  0
 24 23  1  0  0  0  0
 25 24  1  0  0  0  0
 26 27  1  0  0  0  0
 27 21  1  0  0  0  0
M  END
>  <minimizedAffinity>
-4.51375914

>  <minimizedRMSD>
0.373341382

$$$$
