
     RDKit          3D

 36 38  0  0  0  0  0  0  0  0999 V2000
   45.2720   36.1619   43.1674 C   0  0  0  0  0  0  0  0  0  0  0  0
   45.8654   34.9098   42.9182 C   0  0  0  0  0  0  0  0  0  0  0  0
   45.8244   33.9492   43.9025 C   0  0  0  0  0  0  0  0  0  0  0  0
   45.2223   34.2292   45.0702 N   0  0  0  0  0  0  0  0  0  0  0  0
   44.6470   35.4376   45.3172 C   0  0  0  0  0  0  0  0  0  0  0  0
   44.6847   36.3758   44.3614 N   0  0  0  0  0  0  0  0  0  0  0  0
   46.4427   32.6553   43.6325 C   0  0  0  0  0  0  0  0  0  0  0  0
   45.6674   31.5720   43.2953 C   0  0  0  0  0  0  0  0  0  0  0  0
   46.2840   30.3713   43.0484 C   0  0  0  0  0  0  0  0  0  0  0  0
   47.6542   30.1878   43.1204 C   0  0  0  0  0  0  0  0  0  0  0  0
   48.3824   31.3112   43.4636 C   0  0  0  0  0  0  0  0  0  0  0  0
   47.7636   32.4783   43.7019 N   0  0  0  0  0  0  0  0  0  0  0  0
   46.4895   34.6892   41.6436 C   0  0  0  0  0  0  0  0  0  0  0  0
   47.6705   35.1294   41.4664 O   0  0  0  0  0  0  0  0  0  0  0  0
   45.2891   36.9429   42.4057 H   0  0  0  0  0  0  0  0  0  0  0  0
   44.1628   35.6357   46.2810 H   0  0  0  0  0  0  0  0  0  0  0  0
   44.5945   31.6159   43.2140 H   0  0  0  0  0  0  0  0  0  0  0  0
   45.7275   29.4605   42.7731 H   0  0  0  0  0  0  0  0  0  0  0  0
   48.1882   29.2735   42.9380 H   0  0  0  0  0  0  0  0  0  0  0  0
   49.4677   31.3456   43.5656 H   0  0  0  0  0  0  0  0  0  0  0  0
   45.7452   33.9819   40.6349 N   0  0  0  0  0  0  0  0  0  0  0  0
   44.3342   33.6622   40.5354 C   0  0  0  0  0  0  0  0  0  0  0  0
   43.7948   34.1308   39.1780 C   0  0  0  0  0  0  0  0  0  0  0  0
   44.4725   33.3341   38.0808 C   0  0  0  0  0  0  0  0  0  0  0  0
   44.7401   34.0134   37.2366 H   0  0  0  0  0  0  0  0  0  0  0  0
   45.6811   32.6128   38.6403 C   0  0  0  0  0  0  0  0  0  0  0  0
   46.5198   33.4927   39.5100 C   0  0  0  0  0  0  0  0  0  0  0  0
   44.1530   32.5867   40.6022 H   0  0  0  0  0  0  0  0  0  0  0  0
   43.7350   34.2016   41.2881 H   0  0  0  0  0  0  0  0  0  0  0  0
   43.9803   35.2148   39.0314 H   0  0  0  0  0  0  0  0  0  0  0  0
   42.7016   33.9245   39.2200 H   0  0  0  0  0  0  0  0  0  0  0  0
   43.7199   32.6206   37.6890 H   0  0  0  0  0  0  0  0  0  0  0  0
   46.2908   32.3286   37.7426 H   0  0  0  0  0  0  0  0  0  0  0  0
   45.3368   31.7122   39.1774 H   0  0  0  0  0  0  0  0  0  0  0  0
   47.3878   32.8678   39.8430 H   0  0  0  0  0  0  0  0  0  0  0  0
   46.9038   34.3414   38.8986 H   0  0  0  0  0  0  0  0  0  0  0  0
  1  6  2  0
  2  1  1  0
  2  3  2  0
  3  4  1  0
  4  5  2  0
  6  5  1  0
  7 12  1  0
  7  3  1  0
  8  7  2  0
  9 10  2  0
  9  8  1  0
 10 11  1  0
 11 12  2  0
 13  2  1  0
 14 13  2  0
  1 15  1  0
  5 16  1  0
  8 17  1  0
  9 18  1  0
 10 19  1  0
 11 20  1  0
 21 22  1  0
 22 23  1  0
 23 24  1  0
 24 25  1  0
 24 26  1  0
 26 27  1  0
 27 21  1  0
 22 28  1  0
 22 29  1  0
 23 30  1  0
 23 31  1  0
 24 32  1  0
 26 33  1  0
 26 34  1  0
 27 35  1  0
 27 36  1  0
 13 21  1  0
M  ISO  7  15  14  16  14  17  14  18  14  19  14  20  14  25  15
M  END
>  <DihAtoms>  (1) 
1,12,20,21

>  <DihDeg>  (1) 
-0.00424746044924652

$$$$
