
     RDKit          3D

 36 38  0  0  0  0  0  0  0  0999 V2000
   45.2720   36.1619   43.1674 C   0  0  0  0  0  0  0  0  0  0  0  0
   45.8654   34.9098   42.9182 C   0  0  0  0  0  0  0  0  0  0  0  0
   45.8244   33.9492   43.9025 C   0  0  0  0  0  0  0  0  0  0  0  0
   45.2223   34.2292   45.0702 N   0  0  0  0  0  0  0  0  0  0  0  0
   44.6470   35.4376   45.3172 C   0  0  0  0  0  0  0  0  0  0  0  0
   44.6847   36.3758   44.3614 N   0  0  0  0  0  0  0  0  0  0  0  0
   46.4427   32.6553   43.6325 C   0  0  0  0  0  0  0  0  0  0  0  0
   45.6674   31.5720   43.2953 C   0  0  0  0  0  0  0  0  0  0  0  0
   46.2840   30.3713   43.0484 C   0  0  0  0  0  0  0  0  0  0  0  0
   47.6542   30.1878   43.1204 C   0  0  0  0  0  0  0  0  0  0  0  0
   48.3824   31.3112   43.4636 C   0  0  0  0  0  0  0  0  0  0  0  0
   47.7636   32.4783   43.7019 N   0  0  0  0  0  0  0  0  0  0  0  0
   46.4895   34.6892   41.6436 C   0  0  0  0  0  0  0  0  0  0  0  0
   47.6705   35.1294   41.4664 O   0  0  0  0  0  0  0  0  0  0  0  0
   45.2891   36.9429   42.4057 H   0  0  0  0  0  0  0  0  0  0  0  0
   44.1628   35.6357   46.2810 H   0  0  0  0  0  0  0  0  0  0  0  0
   44.5945   31.6159   43.2140 H   0  0  0  0  0  0  0  0  0  0  0  0
   45.7275   29.4605   42.7731 H   0  0  0  0  0  0  0  0  0  0  0  0
   48.1882   29.2735   42.9380 H   0  0  0  0  0  0  0  0  0  0  0  0
   49.4677   31.3456   43.5656 H   0  0  0  0  0  0  0  0  0  0  0  0
   45.7452   33.9819   40.6349 N   0  0  0  0  0  0  0  0  0  0  0  0
   45.4257   32.5745   40.4926 C   0  0  0  0  0  0  0  0  0  0  0  0
   43.9133   32.4070   40.2993 C   0  0  0  0  0  0  0  0  0  0  0  0
   43.5136   33.0513   38.9867 C   0  0  0  0  0  0  0  0  0  0  0  0
   42.5609   33.6167   39.1228 H   0  0  0  0  0  0  0  0  0  0  0  0
   44.6366   33.9346   38.4841 C   0  0  0  0  0  0  0  0  0  0  0  0
   45.2104   34.7978   39.5611 C   0  0  0  0  0  0  0  0  0  0  0  0
   45.9147   32.1302   39.6223 H   0  0  0  0  0  0  0  0  0  0  0  0
   45.6673   32.0025   41.4043 H   0  0  0  0  0  0  0  0  0  0  0  0
   43.3535   32.8713   41.1372 H   0  0  0  0  0  0  0  0  0  0  0  0
   43.7490   31.3061   40.2832 H   0  0  0  0  0  0  0  0  0  0  0  0
   43.2965   32.2281   38.2766 H   0  0  0  0  0  0  0  0  0  0  0  0
   44.1602   34.6032   37.7198 H   0  0  0  0  0  0  0  0  0  0  0  0
   45.4054   33.2956   38.0165 H   0  0  0  0  0  0  0  0  0  0  0  0
   46.0059   35.4182   39.0743 H   0  0  0  0  0  0  0  0  0  0  0  0
   44.4120   35.4750   39.9424 H   0  0  0  0  0  0  0  0  0  0  0  0
  1  6  2  0
  2  1  1  0
  2  3  2  0
  3  4  1  0
  4  5  2  0
  6  5  1  0
  7 12  1  0
  7  3  1  0
  8  7  2  0
  9 10  2  0
  9  8  1  0
 10 11  1  0
 11 12  2  0
 13  2  1  0
 14 13  2  0
  1 15  1  0
  5 16  1  0
  8 17  1  0
  9 18  1  0
 10 19  1  0
 11 20  1  0
 21 22  1  0
 22 23  1  0
 23 24  1  0
 24 25  1  0
 24 26  1  0
 26 27  1  0
 27 21  1  0
 22 28  1  0
 22 29  1  0
 23 30  1  0
 23 31  1  0
 24 32  1  0
 26 33  1  0
 26 34  1  0
 27 35  1  0
 27 36  1  0
 13 21  1  0
M  ISO  7  15  14  16  14  17  14  18  14  19  14  20  14  25  15
M  END
>  <DihAtoms>  (1) 
1,12,20,21

>  <DihDeg>  (1) 
-0.00424746044924652

$$$$
