
 OpenBabel03242520453D

 20 21  0  0  0  0  0  0  0  0999 V2000
   44.9370   35.1180   44.2460 C   0  0  0  0  0  0  0  0  0  0  0  0
   45.6950   35.3500   43.0960 C   0  0  0  0  0  0  0  0  0  0  0  0
   46.8670   34.6160   42.8660 C   0  0  0  0  0  0  0  0  0  0  0  0
   47.2100   33.6920   43.8050 N   0  0  0  0  0  0  0  0  0  0  0  0
   46.4670   33.4830   44.9050 C   0  0  0  0  0  0  0  0  0  0  0  0
   45.3470   34.1920   45.1160 N   0  0  0  0  0  0  0  0  0  0  0  0
   43.7590   35.8630   44.4670 N   0  0  0  0  0  0  0  0  0  0  0  0
   45.3400   36.1140   42.3990 H   0  0  0  0  0  0  0  0  0  0  0  0
   46.8300   32.7240   45.5880 H   0  0  0  0  0  0  0  0  0  0  0  0
   42.7570   35.6670   44.2150 H   0  0  0  0  0  0  0  0  0  0  0  0
   44.2150   36.6620   44.9580 H   0  0  0  0  0  0  0  0  0  0  0  0
   47.5930   34.9080   41.6660 C   0  0  0  0  0  0  0  0  0  0  0  0
   48.5440   35.7530   41.6240 O   0  0  0  0  0  0  0  0  0  0  0  0
   47.4640   34.3910   40.3420 N   0  0  0  0  0  0  0  0  0  0  0  0
   46.1740   33.7270   40.3350 C   0  0  0  0  0  0  0  0  0  0  0  0
   45.9040   33.1280   38.9670 C   0  0  0  0  0  0  0  0  0  0  0  0
   47.0580   32.2110   38.6350 C   0  0  0  0  0  0  0  0  0  0  0  0
   46.8580   31.5560   37.7800 H   0  0  0  0  0  0  0  0  0  0  0  0
   48.3340   33.0150   38.4970 C   0  0  0  0  0  0  0  0  0  0  0  0
   48.2380   34.3700   39.1160 C   0  0  0  0  0  0  0  0  0  0  0  0
  1  7  1  0  0  0  0
  1  6  1  0  0  0  0
  2  1  2  0  0  0  0
  3  2  1  0  0  0  0
  3  4  2  0  0  0  0
  4  5  1  0  0  0  0
  5  6  2  0  0  0  0
  5  9  1  0  0  0  0
  7 11  1  0  0  0  0
  8  2  1  0  0  0  0
 10  7  1  0  0  0  0
 12  3  1  0  0  0  0
 13 12  2  0  0  0  0
 14 12  1  0  0  0  0
 15 14  1  0  0  0  0
 16 15  1  0  0  0  0
 17 16  1  0  0  0  0
 18 17  1  0  0  0  0
 19 17  1  0  0  0  0
 19 20  1  0  0  0  0
 20 14  1  0  0  0  0
M  END
>  <minimizedAffinity>
-4.97406721

>  <minimizedRMSD>
0.239480287

$$$$
