
 OpenBabel03252507153D

 27 29  0  0  0  0  0  0  0  0999 V2000
   45.3910   35.9390   43.0100 C   0  0  0  0  0  0  0  0  0  0  0  0
   45.8390   34.6050   43.0130 C   0  0  0  0  0  0  0  0  0  0  0  0
   45.6440   33.8430   44.1430 C   0  0  0  0  0  0  0  0  0  0  0  0
   45.0340   34.3890   45.2070 N   0  0  0  0  0  0  0  0  0  0  0  0
   44.5990   35.6790   45.2100 C   0  0  0  0  0  0  0  0  0  0  0  0
   44.7870   36.4240   44.1120 N   0  0  0  0  0  0  0  0  0  0  0  0
   45.5320   36.5680   42.1290 H   0  0  0  0  0  0  0  0  0  0  0  0
   44.1050   36.0960   46.0960 H   0  0  0  0  0  0  0  0  0  0  0  0
   46.1130   32.4610   44.1340 C   0  0  0  0  0  0  0  0  0  0  0  0
   45.2990   31.4550   43.6720 C   0  0  0  0  0  0  0  0  0  0  0  0
   45.7750   30.1670   43.6790 C   0  0  0  0  0  0  0  0  0  0  0  0
   47.0380   29.8220   44.1280 C   0  0  0  0  0  0  0  0  0  0  0  0
   47.8100   30.8750   44.5810 C   0  0  0  0  0  0  0  0  0  0  0  0
   47.3310   32.1280   44.5670 N   0  0  0  0  0  0  0  0  0  0  0  0
   44.3020   31.6240   43.3030 H   0  0  0  0  0  0  0  0  0  0  0  0
   45.1790   29.3090   43.3250 H   0  0  0  0  0  0  0  0  0  0  0  0
   47.4590   28.8340   44.1570 H   0  0  0  0  0  0  0  0  0  0  0  0
   48.8260   30.7840   44.9690 H   0  0  0  0  0  0  0  0  0  0  0  0
   46.4820   34.0950   41.8350 C   0  0  0  0  0  0  0  0  0  0  0  0
   47.7520   34.0180   41.8260 O   0  0  0  0  0  0  0  0  0  0  0  0
   45.6550   33.6990   40.7250 N   0  0  0  0  0  0  0  0  0  0  0  0
   45.9800   33.4280   39.3380 C   0  0  0  0  0  2  0  0  0  0  0  0
   45.4340   32.0520   38.9400 C   0  0  0  0  0  2  0  0  0  0  0  0
   43.9200   32.0890   39.0050 C   0  0  0  0  0  3  0  0  0  0  0  0
   43.5430   31.1460   39.4680 H   0  0  0  0  0  0  0  0  0  0  0  0
   43.4670   33.3190   39.7620 C   0  0  0  0  0  2  0  0  0  0  0  0
   44.2440   33.5340   41.0220 C   0  0  0  0  0  2  0  0  0  0  0  0
  1  2  2  0  0  0  0
  1  6  1  0  0  0  0
  2  3  1  0  0  0  0
  3  4  2  0  0  0  0
  4  5  1  0  0  0  0
  5  8  1  0  0  0  0
  6  5  2  0  0  0  0
  7  1  1  0  0  0  0
  9  3  1  0  0  0  0
  9 14  1  0  0  0  0
 10 11  1  0  0  0  0
 10  9  2  0  0  0  0
 11 12  2  0  0  0  0
 12 17  1  0  0  0  0
 12 13  1  0  0  0  0
 13 18  1  0  0  0  0
 14 13  2  0  0  0  0
 15 10  1  0  0  0  0
 16 11  1  0  0  0  0
 19  2  1  0  0  0  0
 20 19  2  0  0  0  0
 21 27  1  0  0  0  0
 21 19  1  0  0  0  0
 22 21  1  0  0  0  0
 23 24  1  0  0  0  0
 23 22  1  0  0  0  0
 24 25  1  0  0  0  0
 24 26  1  0  0  0  0
 26 27  1  0  0  0  0
M  END
>  <minimizedAffinity>
-4.11067247

>  <minimizedRMSD>
0.702639103

$$$$
