
 OpenBabel03252507163D

 27 29  0  0  0  0  0  0  0  0999 V2000
   46.0530   35.6210   42.7680 C   0  0  0  0  0  0  0  0  0  0  0  0
   46.4090   34.4060   43.3840 C   0  0  0  0  0  0  0  0  0  0  0  0
   45.7770   34.0450   44.5530 C   0  0  0  0  0  0  0  0  0  0  0  0
   44.8430   34.8570   45.0730 N   0  0  0  0  0  0  0  0  0  0  0  0
   44.4950   36.0330   44.4830 C   0  0  0  0  0  0  0  0  0  0  0  0
   45.1070   36.3880   43.3450 N   0  0  0  0  0  0  0  0  0  0  0  0
   46.5360   35.9330   41.8420 H   0  0  0  0  0  0  0  0  0  0  0  0
   43.7280   36.6740   44.9340 H   0  0  0  0  0  0  0  0  0  0  0  0
   46.1560   32.7830   45.1820 C   0  0  0  0  0  0  0  0  0  0  0  0
   45.7450   31.5880   44.6410 C   0  0  0  0  0  0  0  0  0  0  0  0
   46.1200   30.4220   45.2600 C   0  0  0  0  0  0  0  0  0  0  0  0
   46.8940   30.3810   46.4060 C   0  0  0  0  0  0  0  0  0  0  0  0
   47.2770   31.6120   46.9030 C   0  0  0  0  0  0  0  0  0  0  0  0
   46.9030   32.7430   46.2870 N   0  0  0  0  0  0  0  0  0  0  0  0
   45.1400   31.5180   43.7520 H   0  0  0  0  0  0  0  0  0  0  0  0
   45.8270   29.4270   44.8840 H   0  0  0  0  0  0  0  0  0  0  0  0
   47.2150   29.4990   46.9300 H   0  0  0  0  0  0  0  0  0  0  0  0
   47.8870   31.7640   47.7950 H   0  0  0  0  0  0  0  0  0  0  0  0
   47.4170   33.5940   42.7640 C   0  0  0  0  0  0  0  0  0  0  0  0
   48.4870   33.3600   43.4130 O   0  0  0  0  0  0  0  0  0  0  0  0
   47.1660   33.0880   41.4400 N   0  0  0  0  0  0  0  0  0  0  0  0
   48.0070   33.0340   40.2600 C   0  0  0  0  0  2  0  0  0  0  0  0
   48.0380   31.6010   39.7150 C   0  0  0  0  0  2  0  0  0  0  0  0
   46.6470   31.2270   39.2420 C   0  0  0  0  0  3  0  0  0  0  0  0
   46.4140   30.1820   39.5560 H   0  0  0  0  0  0  0  0  0  0  0  0
   45.6370   32.2240   39.7740 C   0  0  0  0  0  2  0  0  0  0  0  0
   45.8450   32.5290   41.2230 C   0  0  0  0  0  2  0  0  0  0  0  0
  1  6  2  0  0  0  0
  1  2  1  0  0  0  0
  2  3  2  0  0  0  0
  3  4  1  0  0  0  0
  3  9  1  0  0  0  0
  5  8  1  0  0  0  0
  5  4  2  0  0  0  0
  6  5  1  0  0  0  0
  7  1  1  0  0  0  0
  9 14  1  0  0  0  0
 10  9  2  0  0  0  0
 10 11  1  0  0  0  0
 11 12  2  0  0  0  0
 12 13  1  0  0  0  0
 12 17  1  0  0  0  0
 13 18  1  0  0  0  0
 14 13  2  0  0  0  0
 15 10  1  0  0  0  0
 16 11  1  0  0  0  0
 19  2  1  0  0  0  0
 19 20  2  0  0  0  0
 21 19  1  0  0  0  0
 22 21  1  0  0  0  0
 23 22  1  0  0  0  0
 24 25  1  0  0  0  0
 24 23  1  0  0  0  0
 24 26  1  0  0  0  0
 26 27  1  0  0  0  0
 27 21  1  0  0  0  0
M  END
>  <minimizedAffinity>
-4.49632931

>  <minimizedRMSD>
2.04967642

$$$$
