
 OpenBabel03252507163D

 27 29  0  0  0  0  0  0  0  0999 V2000
   44.5810   35.8870   43.4040 C   0  0  0  0  0  0  0  0  0  0  0  0
   44.9770   34.6470   42.8690 C   0  0  0  0  0  0  0  0  0  0  0  0
   45.3090   33.6270   43.7330 C   0  0  0  0  0  0  0  0  0  0  0  0
   45.2460   33.8410   45.0570 N   0  0  0  0  0  0  0  0  0  0  0  0
   44.8640   35.0380   45.5810 C   0  0  0  0  0  0  0  0  0  0  0  0
   44.5400   36.0330   44.7430 N   0  0  0  0  0  0  0  0  0  0  0  0
   44.3120   36.7130   42.7450 H   0  0  0  0  0  0  0  0  0  0  0  0
   44.8230   35.1810   46.6670 H   0  0  0  0  0  0  0  0  0  0  0  0
   45.7190   32.3460   43.1660 C   0  0  0  0  0  0  0  0  0  0  0  0
   44.8060   31.3290   43.0180 C   0  0  0  0  0  0  0  0  0  0  0  0
   45.2280   30.1390   42.4810 C   0  0  0  0  0  0  0  0  0  0  0  0
   46.5300   29.9030   42.0760 C   0  0  0  0  0  0  0  0  0  0  0  0
   47.4020   30.9600   42.2500 C   0  0  0  0  0  0  0  0  0  0  0  0
   46.9750   32.1180   42.7760 N   0  0  0  0  0  0  0  0  0  0  0  0
   43.7710   31.4180   43.3030 H   0  0  0  0  0  0  0  0  0  0  0  0
   44.5530   29.2790   42.3330 H   0  0  0  0  0  0  0  0  0  0  0  0
   46.9140   28.9930   41.6520 H   0  0  0  0  0  0  0  0  0  0  0  0
   48.4610   30.9480   41.9860 H   0  0  0  0  0  0  0  0  0  0  0  0
   45.0180   34.4980   41.4420 C   0  0  0  0  0  0  0  0  0  0  0  0
   46.1500   34.5520   40.8620 O   0  0  0  0  0  0  0  0  0  0  0  0
   43.7770   34.2970   40.7420 N   0  0  0  0  0  0  0  0  0  0  0  0
   42.7060   35.2170   40.4110 C   0  0  0  0  0  2  0  0  0  0  0  0
   42.4050   35.1380   38.9090 C   0  0  0  0  0  2  0  0  0  0  0  0
   41.8710   33.7560   38.5890 C   0  0  0  0  0  3  0  0  0  0  0  0
   42.3270   33.3910   37.6380 H   0  0  0  0  0  0  0  0  0  0  0  0
   42.1370   32.8200   39.7480 C   0  0  0  0  0  2  0  0  0  0  0  0
   43.5300   32.9450   40.2760 C   0  0  0  0  0  2  0  0  0  0  0  0
  1  6  1  0  0  0  0
  2  1  2  0  0  0  0
  2  3  1  0  0  0  0
  3  4  2  0  0  0  0
  4  5  1  0  0  0  0
  5  8  1  0  0  0  0
  6  5  2  0  0  0  0
  7  1  1  0  0  0  0
  9  3  1  0  0  0  0
 10  9  1  0  0  0  0
 10 15  1  0  0  0  0
 11 10  2  0  0  0  0
 12 13  2  0  0  0  0
 12 11  1  0  0  0  0
 13 14  1  0  0  0  0
 14  9  2  0  0  0  0
 16 11  1  0  0  0  0
 17 12  1  0  0  0  0
 18 13  1  0  0  0  0
 19  2  1  0  0  0  0
 20 19  2  0  0  0  0
 21 19  1  0  0  0  0
 22 21  1  0  0  0  0
 23 22  1  0  0  0  0
 24 23  1  0  0  0  0
 24 26  1  0  0  0  0
 25 24  1  0  0  0  0
 26 27  1  0  0  0  0
 27 21  1  0  0  0  0
M  END
>  <minimizedAffinity>
-4.47324514

>  <minimizedRMSD>
1.78147042

$$$$
