
 OpenBabel03252508503D

 26 28  0  0  0  0  0  0  0  0999 V2000
   45.9490   34.1760   41.0800 C   0  0  0  0  0  0  0  0  0  0  0  0
   46.5350   34.8140   42.1830 C   0  0  0  0  0  0  0  0  0  0  0  0
   47.8780   35.2040   42.0410 C   0  0  0  0  0  0  0  0  0  0  0  0
   48.5180   34.9440   40.8610 N   0  0  0  0  0  0  0  0  0  0  0  0
   47.9110   34.3360   39.8520 C   0  0  0  0  0  0  0  0  0  0  0  0
   46.6240   33.9480   39.9510 N   0  0  0  0  0  0  0  0  0  0  0  0
   48.3280   35.6980   42.8960 H   0  0  0  0  0  0  0  0  0  0  0  0
   48.4100   34.1310   38.9290 H   0  0  0  0  0  0  0  0  0  0  0  0
   45.7660   35.0420   43.3870 C   0  0  0  0  0  0  0  0  0  0  0  0
   45.0950   36.2340   43.6350 C   0  0  0  0  0  0  0  0  0  0  0  0
   44.5090   36.0240   44.8620 C   0  0  0  0  0  0  0  0  0  0  0  0
   44.8020   34.7920   45.3300 N   0  0  0  0  0  0  0  0  0  0  0  0
   45.5600   34.2290   44.4190 N   0  0  0  0  0  0  0  0  0  0  0  0
   45.0480   37.1050   43.0130 H   0  0  0  0  0  0  0  0  0  0  0  0
   43.8900   36.7160   45.4190 H   0  0  0  0  0  0  0  0  0  0  0  0
   44.4990   34.3590   46.2290 H   0  0  0  0  0  0  0  0  0  0  0  0
   44.6340   33.7840   41.1940 O   0  0  0  0  0  0  0  0  0  0  0  0
   43.5410   34.4650   40.7270 C   0  0  0  0  0  0  0  0  0  0  0  0
   43.2210   35.6800   40.9390 O   0  0  0  0  0  0  0  0  0  0  0  0
   42.4340   34.0650   39.8820 N   0  0  0  0  0  0  0  0  0  0  0  0
   42.6490   34.2600   38.4620 C   0  0  0  0  0  2  0  0  0  0  0  0
   41.9080   35.5600   38.1220 C   0  0  0  0  0  2  0  0  0  0  0  0
   40.6520   35.5860   38.9980 C   0  0  0  0  0  3  0  0  0  0  0  0
   40.9230   36.1100   39.9240 H   0  0  0  0  0  0  0  0  0  0  0  0
   40.1540   34.1790   39.2980 C   0  0  0  0  0  2  0  0  0  0  0  0
   41.1410   33.4970   40.2560 C   0  0  0  0  0  2  0  0  0  0  0  0
  1 17  1  0  0  0  0
  1  2  1  0  0  0  0
  2  9  1  0  0  0  0
  3  2  2  0  0  0  0
  3  7  1  0  0  0  0
  4  3  1  0  0  0  0
  5  6  1  0  0  0  0
  5  4  2  0  0  0  0
  6  1  2  0  0  0  0
  8  5  1  0  0  0  0
  9 10  1  0  0  0  0
  9 13  2  0  0  0  0
 10 11  2  0  0  0  0
 11 12  1  0  0  0  0
 11 15  1  0  0  0  0
 12 16  1  0  0  0  0
 13 12  1  0  0  0  0
 14 10  1  0  0  0  0
 18 19  2  0  0  0  0
 18 17  1  0  0  0  0
 20 26  1  0  0  0  0
 20 18  1  0  0  0  0
 21 20  1  0  0  0  0
 22 21  1  0  0  0  0
 22 23  1  0  0  0  0
 23 25  1  0  0  0  0
 23 24  1  0  0  0  0
 25 26  1  0  0  0  0
M  END
>  <minimizedAffinity>
-5.97328758

>  <minimizedRMSD>
0.562320292

$$$$
