
 OpenBabel03252508503D

 26 28  0  0  0  0  0  0  0  0999 V2000
   45.9620   34.1360   41.0450 C   0  0  0  0  0  0  0  0  0  0  0  0
   46.5370   34.7970   42.1410 C   0  0  0  0  0  0  0  0  0  0  0  0
   47.8750   35.2040   41.9960 C   0  0  0  0  0  0  0  0  0  0  0  0
   48.5210   34.9360   40.8200 N   0  0  0  0  0  0  0  0  0  0  0  0
   47.9240   34.3070   39.8180 C   0  0  0  0  0  0  0  0  0  0  0  0
   46.6420   33.9020   39.9200 N   0  0  0  0  0  0  0  0  0  0  0  0
   48.3170   35.7150   42.8450 H   0  0  0  0  0  0  0  0  0  0  0  0
   48.4280   34.0970   38.8990 H   0  0  0  0  0  0  0  0  0  0  0  0
   45.7630   35.0300   43.3410 C   0  0  0  0  0  0  0  0  0  0  0  0
   45.0510   36.2030   43.5580 C   0  0  0  0  0  0  0  0  0  0  0  0
   44.4740   36.0070   44.7920 C   0  0  0  0  0  0  0  0  0  0  0  0
   44.8120   34.7980   45.2920 N   0  0  0  0  0  0  0  0  0  0  0  0
   45.5870   34.2380   44.3950 N   0  0  0  0  0  0  0  0  0  0  0  0
   44.9720   37.0550   42.9130 H   0  0  0  0  0  0  0  0  0  0  0  0
   43.8330   36.6910   45.3320 H   0  0  0  0  0  0  0  0  0  0  0  0
   44.5270   34.3800   46.2030 H   0  0  0  0  0  0  0  0  0  0  0  0
   44.6530   33.7270   41.1620 O   0  0  0  0  0  0  0  0  0  0  0  0
   43.5580   34.3450   40.6180 C   0  0  0  0  0  0  0  0  0  0  0  0
   43.3220   35.5930   40.5280 O   0  0  0  0  0  0  0  0  0  0  0  0
   42.3590   33.8250   39.9920 N   0  0  0  0  0  0  0  0  0  0  0  0
   41.5520   32.9670   40.8370 C   0  0  0  0  0  2  0  0  0  0  0  0
   41.9070   31.5380   40.4090 C   0  0  0  0  0  2  0  0  0  0  0  0
   42.1440   31.5820   38.8970 C   0  0  0  0  0  3  0  0  0  0  0  0
   43.2150   31.7770   38.7500 H   0  0  0  0  0  0  0  0  0  0  0  0
   41.3020   32.6640   38.2340 C   0  0  0  0  0  2  0  0  0  0  0  0
   41.8530   34.0380   38.6390 C   0  0  0  0  0  2  0  0  0  0  0  0
  1 17  1  0  0  0  0
  1  2  1  0  0  0  0
  2  9  1  0  0  0  0
  3  2  2  0  0  0  0
  3  7  1  0  0  0  0
  4  3  1  0  0  0  0
  5  6  1  0  0  0  0
  5  4  2  0  0  0  0
  6  1  2  0  0  0  0
  8  5  1  0  0  0  0
  9 10  1  0  0  0  0
  9 13  2  0  0  0  0
 10 11  2  0  0  0  0
 11 12  1  0  0  0  0
 11 15  1  0  0  0  0
 12 16  1  0  0  0  0
 13 12  1  0  0  0  0
 14 10  1  0  0  0  0
 18 17  1  0  0  0  0
 19 18  2  0  0  0  0
 20 18  1  0  0  0  0
 20 21  1  0  0  0  0
 22 21  1  0  0  0  0
 23 22  1  0  0  0  0
 24 23  1  0  0  0  0
 25 26  1  0  0  0  0
 25 23  1  0  0  0  0
 26 20  1  0  0  0  0
M  END
>  <minimizedAffinity>
-5.38126707

>  <minimizedRMSD>
0.579331934

$$$$
