
     RDKit          3D

 35 37  0  0  0  0  0  0  0  0999 V2000
   46.0760   34.1501   41.0039 C   0  0  0  0  0  0  0  0  0  0  0  0
   46.6123   34.8273   42.1089 C   0  0  0  0  0  0  0  0  0  0  0  0
   47.9390   35.2753   41.9862 C   0  0  0  0  0  0  0  0  0  0  0  0
   48.6117   35.0286   40.8208 N   0  0  0  0  0  0  0  0  0  0  0  0
   48.0510   34.3821   39.8085 C   0  0  0  0  0  0  0  0  0  0  0  0
   46.7809   33.9377   39.8901 N   0  0  0  0  0  0  0  0  0  0  0  0
   45.8119   35.0352   43.2962 C   0  0  0  0  0  0  0  0  0  0  0  0
   45.0495   36.1800   43.4963 C   0  0  0  0  0  0  0  0  0  0  0  0
   44.4640   35.9672   44.7233 C   0  0  0  0  0  0  0  0  0  0  0  0
   44.8429   34.7762   45.2354 N   0  0  0  0  0  0  0  0  0  0  0  0
   45.6526   34.2430   44.3518 N   0  0  0  0  0  0  0  0  0  0  0  0
   44.7776   33.7011   41.0992 O   0  0  0  0  0  0  0  0  0  0  0  0
   43.6961   34.1972   40.4212 C   0  0  0  0  0  0  0  0  0  0  0  0
   43.2445   35.3877   40.4211 O   0  0  0  0  0  0  0  0  0  0  0  0
   48.3509   35.7986   42.8423 H   0  0  0  0  0  0  0  0  0  0  0  0
   48.5763   34.1893   38.8982 H   0  0  0  0  0  0  0  0  0  0  0  0
   44.9464   37.0248   42.8450 H   0  0  0  0  0  0  0  0  0  0  0  0
   43.7882   36.6279   45.2487 H   0  0  0  0  0  0  0  0  0  0  0  0
   44.5611   34.3507   46.1436 H   0  0  0  0  0  0  0  0  0  0  0  0
   42.7449   33.5758   39.5212 N   0  0  0  0  0  0  0  0  0  0  0  0
   43.1429   32.2783   39.0132 C   0  0  0  0  0  0  0  0  0  0  0  0
   43.6815   32.5511   37.6030 C   0  0  0  0  0  0  0  0  0  0  0  0
   42.8250   33.6782   37.0205 C   0  0  0  0  0  0  0  0  0  0  0  0
   43.3257   34.6214   37.2764 H   0  0  0  0  0  0  0  0  0  0  0  0
   41.4097   33.6473   37.5803 C   0  0  0  0  0  0  0  0  0  0  0  0
   41.4514   34.0687   39.0561 C   0  0  0  0  0  0  0  0  0  0  0  0
   43.8380   31.7279   39.6431 H   0  0  0  0  0  0  0  0  0  0  0  0
   42.2169   31.6402   38.9065 H   0  0  0  0  0  0  0  0  0  0  0  0
   43.5804   31.6303   36.9990 H   0  0  0  0  0  0  0  0  0  0  0  0
   44.7326   32.8816   37.7504 H   0  0  0  0  0  0  0  0  0  0  0  0
   42.7863   33.5253   35.9338 H   0  0  0  0  0  0  0  0  0  0  0  0
   41.0106   32.6256   37.4635 H   0  0  0  0  0  0  0  0  0  0  0  0
   40.7950   34.3118   36.9750 H   0  0  0  0  0  0  0  0  0  0  0  0
   41.3211   35.1483   39.1771 H   0  0  0  0  0  0  0  0  0  0  0  0
   40.6652   33.4584   39.5549 H   0  0  0  0  0  0  0  0  0  0  0  0
  1 12  1  0
  1  2  1  0
  2  7  1  0
  3  2  2  0
  4  3  1  0
  5  6  1  0
  5  4  2  0
  6  1  2  0
  7  8  1  0
  7 11  2  0
  8  9  2  0
  9 10  1  0
 11 10  1  0
 13 14  2  0
 13 12  1  0
  3 15  1  0
  5 16  1  0
  8 17  1  0
  9 18  1  0
 10 19  1  0
 20 21  1  0
 21 22  1  0
 22 23  1  0
 23 24  1  0
 23 25  1  0
 25 26  1  0
 26 20  1  0
 21 27  1  0
 21 28  1  0
 22 29  1  0
 22 30  1  0
 23 31  1  0
 25 32  1  0
 25 33  1  0
 26 34  1  0
 26 35  1  0
 13 20  1  0
M  ISO  6  15  14  16  14  17  14  18  14  19   9  24  15
M  END
>  <DihAtoms>  (1) 
13,12,19,20

>  <DihDeg>  (1) 
0.04411613907032106

$$$$
