
 OpenBabel03252508503D

 26 28  0  0  0  0  0  0  0  0999 V2000
   45.9490   34.1480   41.0420 C   0  0  0  0  0  0  0  0  0  0  0  0
   46.5310   34.7970   42.1420 C   0  0  0  0  0  0  0  0  0  0  0  0
   47.8730   35.1910   41.9990 C   0  0  0  0  0  0  0  0  0  0  0  0
   48.5160   34.9230   40.8220 N   0  0  0  0  0  0  0  0  0  0  0  0
   47.9120   34.3050   39.8160 C   0  0  0  0  0  0  0  0  0  0  0  0
   46.6270   33.9140   39.9160 N   0  0  0  0  0  0  0  0  0  0  0  0
   48.3200   35.6930   42.8500 H   0  0  0  0  0  0  0  0  0  0  0  0
   48.4140   34.0960   38.8960 H   0  0  0  0  0  0  0  0  0  0  0  0
   45.7600   35.0310   43.3430 C   0  0  0  0  0  0  0  0  0  0  0  0
   45.0630   36.2130   43.5690 C   0  0  0  0  0  0  0  0  0  0  0  0
   44.4840   36.0150   44.8010 C   0  0  0  0  0  0  0  0  0  0  0  0
   44.8050   34.7980   45.2920 N   0  0  0  0  0  0  0  0  0  0  0  0
   45.5720   34.2340   44.3900 N   0  0  0  0  0  0  0  0  0  0  0  0
   44.9960   37.0710   42.9300 H   0  0  0  0  0  0  0  0  0  0  0  0
   43.8520   36.7040   45.3450 H   0  0  0  0  0  0  0  0  0  0  0  0
   44.5120   34.3760   46.1990 H   0  0  0  0  0  0  0  0  0  0  0  0
   44.6360   33.7530   41.1570 O   0  0  0  0  0  0  0  0  0  0  0  0
   43.5450   34.4020   40.6430 C   0  0  0  0  0  0  0  0  0  0  0  0
   43.3390   35.6570   40.5660 O   0  0  0  0  0  0  0  0  0  0  0  0
   42.3180   33.9170   40.0440 N   0  0  0  0  0  0  0  0  0  0  0  0
   41.2310   33.6920   40.9760 C   0  0  0  0  0  2  0  0  0  0  0  0
   41.2280   32.1790   41.2260 C   0  0  0  0  0  2  0  0  0  0  0  0
   41.6160   31.5170   39.9020 C   0  0  0  0  0  3  0  0  0  0  0  0
   42.7090   31.4070   39.9110 H   0  0  0  0  0  0  0  0  0  0  0  0
   41.1660   32.3510   38.7100 C   0  0  0  0  0  2  0  0  0  0  0  0
   42.0240   33.6230   38.6440 C   0  0  0  0  0  2  0  0  0  0  0  0
  1 17  1  0  0  0  0
  1  2  1  0  0  0  0
  2  9  1  0  0  0  0
  3  2  2  0  0  0  0
  3  7  1  0  0  0  0
  4  3  1  0  0  0  0
  5  6  1  0  0  0  0
  5  4  2  0  0  0  0
  6  1  2  0  0  0  0
  8  5  1  0  0  0  0
  9 10  1  0  0  0  0
  9 13  2  0  0  0  0
 10 11  2  0  0  0  0
 11 12  1  0  0  0  0
 11 15  1  0  0  0  0
 12 16  1  0  0  0  0
 13 12  1  0  0  0  0
 14 10  1  0  0  0  0
 18 17  1  0  0  0  0
 19 18  2  0  0  0  0
 20 18  1  0  0  0  0
 20 21  1  0  0  0  0
 21 22  1  0  0  0  0
 23 24  1  0  0  0  0
 23 22  1  0  0  0  0
 25 23  1  0  0  0  0
 26 25  1  0  0  0  0
 26 20  1  0  0  0  0
M  END
>  <minimizedAffinity>
-5.43127966

>  <minimizedRMSD>
0.668403149

$$$$
