
 OpenBabel03252508523D

 26 28  0  0  0  0  0  0  0  0999 V2000
   36.5760   30.2940   39.0190 C   0  0  0  0  0  0  0  0  0  0  0  0
   37.3310   31.3470   38.4830 C   0  0  0  0  0  0  0  0  0  0  0  0
   37.5120   31.3410   37.0890 C   0  0  0  0  0  0  0  0  0  0  0  0
   36.9530   30.3310   36.3560 N   0  0  0  0  0  0  0  0  0  0  0  0
   36.2480   29.3610   36.9210 C   0  0  0  0  0  0  0  0  0  0  0  0
   36.0530   29.3330   38.2540 N   0  0  0  0  0  0  0  0  0  0  0  0
   38.0960   32.1580   36.6760 H   0  0  0  0  0  0  0  0  0  0  0  0
   35.8100   28.5710   36.3490 H   0  0  0  0  0  0  0  0  0  0  0  0
   37.8800   32.3670   39.3490 C   0  0  0  0  0  0  0  0  0  0  0  0
   39.1710   32.3050   39.8580 C   0  0  0  0  0  0  0  0  0  0  0  0
   39.2760   33.4510   40.6140 C   0  0  0  0  0  0  0  0  0  0  0  0
   38.1280   34.1610   40.5690 N   0  0  0  0  0  0  0  0  0  0  0  0
   37.3110   33.4810   39.8010 N   0  0  0  0  0  0  0  0  0  0  0  0
   39.9080   31.5430   39.6970 H   0  0  0  0  0  0  0  0  0  0  0  0
   40.1340   33.7830   41.1840 H   0  0  0  0  0  0  0  0  0  0  0  0
   37.9160   35.0660   41.0410 H   0  0  0  0  0  0  0  0  0  0  0  0
   36.3840   30.2760   40.3830 O   0  0  0  0  0  0  0  0  0  0  0  0
   37.0450   29.4850   41.2850 C   0  0  0  0  0  0  0  0  0  0  0  0
   37.9740   29.8160   42.0910 O   0  0  0  0  0  0  0  0  0  0  0  0
   36.9220   28.0800   41.6180 N   0  0  0  0  0  0  0  0  0  0  0  0
   36.5710   27.8070   42.9970 C   0  0  0  0  0  2  0  0  0  0  0  0
   37.8930   27.4360   43.6800 C   0  0  0  0  0  2  0  0  0  0  0  0
   38.7160   26.6650   42.6440 C   0  0  0  0  0  3  0  0  0  0  0  0
   39.3250   27.4050   42.1090 H   0  0  0  0  0  0  0  0  0  0  0  0
   37.8200   25.9020   41.6780 C   0  0  0  0  0  2  0  0  0  0  0  0
   37.1040   26.9080   40.7660 C   0  0  0  0  0  2  0  0  0  0  0  0
  1 17  1  0  0  0  0
  2  1  1  0  0  0  0
  2  9  1  0  0  0  0
  3  2  2  0  0  0  0
  4  5  2  0  0  0  0
  4  3  1  0  0  0  0
  5  6  1  0  0  0  0
  6  1  2  0  0  0  0
  7  3  1  0  0  0  0
  8  5  1  0  0  0  0
  9 13  2  0  0  0  0
  9 10  1  0  0  0  0
 10 11  2  0  0  0  0
 11 15  1  0  0  0  0
 12 11  1  0  0  0  0
 12 16  1  0  0  0  0
 13 12  1  0  0  0  0
 14 10  1  0  0  0  0
 17 18  1  0  0  0  0
 18 20  1  0  0  0  0
 18 19  2  0  0  0  0
 20 21  1  0  0  0  0
 21 22  1  0  0  0  0
 23 22  1  0  0  0  0
 24 23  1  0  0  0  0
 25 23  1  0  0  0  0
 26 20  1  0  0  0  0
 26 25  1  0  0  0  0
M  END
>  <minimizedAffinity>
-5.30191851

$$$$

 OpenBabel03252508523D

 26 28  0  0  0  0  0  0  0  0999 V2000
   37.8850   28.9460   37.7630 C   0  0  0  0  0  0  0  0  0  0  0  0
   37.2070   30.1570   37.5600 C   0  0  0  0  0  0  0  0  0  0  0  0
   36.6240   30.3450   36.2940 C   0  0  0  0  0  0  0  0  0  0  0  0
   36.7510   29.3560   35.3580 N   0  0  0  0  0  0  0  0  0  0  0  0
   37.4050   28.2310   35.6080 C   0  0  0  0  0  0  0  0  0  0  0  0
   37.9760   28.0150   36.8100 N   0  0  0  0  0  0  0  0  0  0  0  0
   36.1000   31.2820   36.1400 H   0  0  0  0  0  0  0  0  0  0  0  0
   37.5050   27.4570   34.8770 H   0  0  0  0  0  0  0  0  0  0  0  0
   37.1320   31.1380   38.6210 C   0  0  0  0  0  0  0  0  0  0  0  0
   37.8760   32.3110   38.6110 C   0  0  0  0  0  0  0  0  0  0  0  0
   37.5060   32.9370   39.7800 C   0  0  0  0  0  0  0  0  0  0  0  0
   36.6010   32.1960   40.4540 N   0  0  0  0  0  0  0  0  0  0  0  0
   36.3990   31.1220   39.7300 N   0  0  0  0  0  0  0  0  0  0  0  0
   38.5710   32.6450   37.8670 H   0  0  0  0  0  0  0  0  0  0  0  0
   37.8610   33.8890   40.1530 H   0  0  0  0  0  0  0  0  0  0  0  0
   36.1450   32.4160   41.3660 H   0  0  0  0  0  0  0  0  0  0  0  0
   38.4640   28.7380   38.9940 O   0  0  0  0  0  0  0  0  0  0  0  0
   37.9240   28.0310   40.0360 C   0  0  0  0  0  0  0  0  0  0  0  0
   37.0110   27.1440   39.9960 O   0  0  0  0  0  0  0  0  0  0  0  0
   38.1900   28.0450   41.4600 N   0  0  0  0  0  0  0  0  0  0  0  0
   38.6340   26.7800   42.0120 C   0  0  0  0  0  2  0  0  0  0  0  0
   37.3870   26.1680   42.6620 C   0  0  0  0  0  2  0  0  0  0  0  0
   36.5850   27.3340   43.2470 C   0  0  0  0  0  3  0  0  0  0  0  0
   35.8860   27.6610   42.4670 H   0  0  0  0  0  0  0  0  0  0  0  0
   37.4970   28.4780   43.6710 C   0  0  0  0  0  2  0  0  0  0  0  0
   38.0720   29.1450   42.4140 C   0  0  0  0  0  2  0  0  0  0  0  0
  1 17  1  0  0  0  0
  2  1  1  0  0  0  0
  2  9  1  0  0  0  0
  3  2  2  0  0  0  0
  4  5  2  0  0  0  0
  4  3  1  0  0  0  0
  5  6  1  0  0  0  0
  6  1  2  0  0  0  0
  7  3  1  0  0  0  0
  8  5  1  0  0  0  0
  9 13  2  0  0  0  0
 10  9  1  0  0  0  0
 10 11  2  0  0  0  0
 11 15  1  0  0  0  0
 11 12  1  0  0  0  0
 12 16  1  0  0  0  0
 13 12  1  0  0  0  0
 14 10  1  0  0  0  0
 17 18  1  0  0  0  0
 18 20  1  0  0  0  0
 19 18  2  0  0  0  0
 20 21  1  0  0  0  0
 20 26  1  0  0  0  0
 21 22  1  0  0  0  0
 22 23  1  0  0  0  0
 23 25  1  0  0  0  0
 24 23  1  0  0  0  0
 26 25  1  0  0  0  0
M  END
>  <minimizedAffinity>
-5.21053123

$$$$

 OpenBabel03252508523D

 26 28  0  0  0  0  0  0  0  0999 V2000
   37.3720   28.5780   38.4820 C   0  0  0  0  0  0  0  0  0  0  0  0
   36.4140   29.6010   38.4550 C   0  0  0  0  0  0  0  0  0  0  0  0
   35.1980   29.3030   37.8150 C   0  0  0  0  0  0  0  0  0  0  0  0
   35.0270   28.0610   37.2700 N   0  0  0  0  0  0  0  0  0  0  0  0
   35.9730   27.1330   37.3270 C   0  0  0  0  0  0  0  0  0  0  0  0
   37.1510   27.3820   37.9330 N   0  0  0  0  0  0  0  0  0  0  0  0
   34.4570   30.0960   37.7960 H   0  0  0  0  0  0  0  0  0  0  0  0
   35.8410   26.1610   36.9010 H   0  0  0  0  0  0  0  0  0  0  0  0
   36.6960   30.8830   39.0640 C   0  0  0  0  0  0  0  0  0  0  0  0
   37.2690   31.9370   38.3620 C   0  0  0  0  0  0  0  0  0  0  0  0
   37.3580   32.9390   39.3010 C   0  0  0  0  0  0  0  0  0  0  0  0
   36.8730   32.5240   40.4920 N   0  0  0  0  0  0  0  0  0  0  0  0
   36.4850   31.2840   40.3130 N   0  0  0  0  0  0  0  0  0  0  0  0
   37.5680   31.9590   37.3330 H   0  0  0  0  0  0  0  0  0  0  0  0
   37.7520   33.9360   39.1590 H   0  0  0  0  0  0  0  0  0  0  0  0
   36.8130   33.0640   41.3810 H   0  0  0  0  0  0  0  0  0  0  0  0
   38.5720   28.8440   39.1030 O   0  0  0  0  0  0  0  0  0  0  0  0
   39.0090   28.3110   40.2870 C   0  0  0  0  0  0  0  0  0  0  0  0
   39.9140   27.4330   40.4690 O   0  0  0  0  0  0  0  0  0  0  0  0
   38.6180   28.5470   41.6620 N   0  0  0  0  0  0  0  0  0  0  0  0
   39.6780   29.0280   42.5250 C   0  0  0  0  0  2  0  0  0  0  0  0
   40.1540   27.7920   43.2990 C   0  0  0  0  0  2  0  0  0  0  0  0
   38.9110   26.9350   43.5560 C   0  0  0  0  0  3  0  0  0  0  0  0
   38.8260   26.2390   42.7110 H   0  0  0  0  0  0  0  0  0  0  0  0
   37.6590   27.7930   43.6790 C   0  0  0  0  0  2  0  0  0  0  0  0
   37.3150   28.3680   42.2980 C   0  0  0  0  0  2  0  0  0  0  0  0
  1 17  1  0  0  0  0
  2  1  1  0  0  0  0
  2  9  1  0  0  0  0
  3  2  2  0  0  0  0
  4  5  2  0  0  0  0
  4  3  1  0  0  0  0
  5  6  1  0  0  0  0
  6  1  2  0  0  0  0
  7  3  1  0  0  0  0
  8  5  1  0  0  0  0
  9 13  2  0  0  0  0
 10  9  1  0  0  0  0
 10 11  2  0  0  0  0
 11 12  1  0  0  0  0
 12 16  1  0  0  0  0
 13 12  1  0  0  0  0
 14 10  1  0  0  0  0
 15 11  1  0  0  0  0
 17 18  1  0  0  0  0
 18 19  2  0  0  0  0
 18 20  1  0  0  0  0
 20 26  1  0  0  0  0
 20 21  1  0  0  0  0
 21 22  1  0  0  0  0
 22 23  1  0  0  0  0
 23 25  1  0  0  0  0
 24 23  1  0  0  0  0
 26 25  1  0  0  0  0
M  END
>  <minimizedAffinity>
-5.17119932

$$$$

 OpenBabel03252508523D

 26 28  0  0  0  0  0  0  0  0999 V2000
   38.7410   31.2800   39.8220 C   0  0  0  0  0  0  0  0  0  0  0  0
   37.6190   31.6750   39.0800 C   0  0  0  0  0  0  0  0  0  0  0  0
   37.1970   33.0060   39.2410 C   0  0  0  0  0  0  0  0  0  0  0  0
   37.8930   33.8180   40.0940 N   0  0  0  0  0  0  0  0  0  0  0  0
   38.9490   33.3870   40.7700 C   0  0  0  0  0  0  0  0  0  0  0  0
   39.3820   32.1180   40.6400 N   0  0  0  0  0  0  0  0  0  0  0  0
   36.3290   33.3090   38.6660 H   0  0  0  0  0  0  0  0  0  0  0  0
   39.4930   34.0210   41.4370 H   0  0  0  0  0  0  0  0  0  0  0  0
   36.9550   30.7340   38.2040 C   0  0  0  0  0  0  0  0  0  0  0  0
   37.3060   30.5760   36.8690 C   0  0  0  0  0  0  0  0  0  0  0  0
   36.4420   29.6020   36.4210 C   0  0  0  0  0  0  0  0  0  0  0  0
   35.6210   29.1960   37.4150 N   0  0  0  0  0  0  0  0  0  0  0  0
   35.9570   29.8970   38.4710 N   0  0  0  0  0  0  0  0  0  0  0  0
   38.0700   31.0920   36.3220 H   0  0  0  0  0  0  0  0  0  0  0  0
   36.3850   29.1860   35.4240 H   0  0  0  0  0  0  0  0  0  0  0  0
   34.8690   28.4760   37.3700 H   0  0  0  0  0  0  0  0  0  0  0  0
   39.1750   29.9810   39.6810 O   0  0  0  0  0  0  0  0  0  0  0  0
   39.1010   28.9940   40.6280 C   0  0  0  0  0  0  0  0  0  0  0  0
   39.8210   27.9490   40.7340 O   0  0  0  0  0  0  0  0  0  0  0  0
   38.2310   28.8070   41.7710 N   0  0  0  0  0  0  0  0  0  0  0  0
   38.9080   28.7400   43.0510 C   0  0  0  0  0  2  0  0  0  0  0  0
   38.9890   27.2440   43.3810 C   0  0  0  0  0  2  0  0  0  0  0  0
   37.6980   26.6120   42.8530 C   0  0  0  0  0  3  0  0  0  0  0  0
   37.9020   26.2860   41.8250 H   0  0  0  0  0  0  0  0  0  0  0  0
   36.5400   27.6010   42.8860 C   0  0  0  0  0  2  0  0  0  0  0  0
   36.7760   28.6770   41.8170 C   0  0  0  0  0  2  0  0  0  0  0  0
  1  6  1  0  0  0  0
  2  3  1  0  0  0  0
  2  1  2  0  0  0  0
  3  4  2  0  0  0  0
  4  5  1  0  0  0  0
  5  8  1  0  0  0  0
  6  5  2  0  0  0  0
  7  3  1  0  0  0  0
  9 13  2  0  0  0  0
  9  2  1  0  0  0  0
 10  9  1  0  0  0  0
 11 10  2  0  0  0  0
 11 12  1  0  0  0  0
 12 13  1  0  0  0  0
 14 10  1  0  0  0  0
 15 11  1  0  0  0  0
 16 12  1  0  0  0  0
 17  1  1  0  0  0  0
 17 18  1  0  0  0  0
 18 19  2  0  0  0  0
 18 20  1  0  0  0  0
 20 26  1  0  0  0  0
 20 21  1  0  0  0  0
 21 22  1  0  0  0  0
 23 25  1  0  0  0  0
 23 22  1  0  0  0  0
 24 23  1  0  0  0  0
 26 25  1  0  0  0  0
M  END
>  <minimizedAffinity>
-5.14142847

$$$$

 OpenBabel03252508523D

 26 28  0  0  0  0  0  0  0  0999 V2000
   39.1180   30.0000   38.7150 C   0  0  0  0  0  0  0  0  0  0  0  0
   39.4840   31.3410   38.5320 C   0  0  0  0  0  0  0  0  0  0  0  0
   40.6320   31.5760   37.7540 C   0  0  0  0  0  0  0  0  0  0  0  0
   41.3070   30.5060   37.2350 N   0  0  0  0  0  0  0  0  0  0  0  0
   40.9110   29.2580   37.4440 C   0  0  0  0  0  0  0  0  0  0  0  0
   39.8160   28.9930   38.1830 N   0  0  0  0  0  0  0  0  0  0  0  0
   40.9130   32.6140   37.6130 H   0  0  0  0  0  0  0  0  0  0  0  0
   41.4380   28.4200   37.0390 H   0  0  0  0  0  0  0  0  0  0  0  0
   38.6990   32.4000   39.1260 C   0  0  0  0  0  0  0  0  0  0  0  0
   39.2340   33.3200   40.0190 C   0  0  0  0  0  0  0  0  0  0  0  0
   38.1650   34.1300   40.3270 C   0  0  0  0  0  0  0  0  0  0  0  0
   37.0550   33.7300   39.6690 N   0  0  0  0  0  0  0  0  0  0  0  0
   37.4120   32.6880   38.9570 N   0  0  0  0  0  0  0  0  0  0  0  0
   40.2420   33.3820   40.3780 H   0  0  0  0  0  0  0  0  0  0  0  0
   38.1590   34.9800   40.9970 H   0  0  0  0  0  0  0  0  0  0  0  0
   36.1020   34.1500   39.7070 H   0  0  0  0  0  0  0  0  0  0  0  0
   37.9980   29.7420   39.4730 O   0  0  0  0  0  0  0  0  0  0  0  0
   37.9780   29.3190   40.7760 C   0  0  0  0  0  0  0  0  0  0  0  0
   38.1590   30.0100   41.8300 O   0  0  0  0  0  0  0  0  0  0  0  0
   37.7590   28.0170   41.3710 N   0  0  0  0  0  0  0  0  0  0  0  0
   36.6260   27.9400   42.2720 C   0  0  0  0  0  2  0  0  0  0  0  0
   37.2300   28.0310   43.6790 C   0  0  0  0  0  2  0  0  0  0  0  0
   38.5700   27.2910   43.6270 C   0  0  0  0  0  3  0  0  0  0  0  0
   39.3330   28.0360   43.3690 H   0  0  0  0  0  0  0  0  0  0  0  0
   38.5430   26.1660   42.6010 C   0  0  0  0  0  2  0  0  0  0  0  0
   38.5120   26.7780   41.1940 C   0  0  0  0  0  2  0  0  0  0  0  0
  1 17  1  0  0  0  0
  2  1  1  0  0  0  0
  2  9  1  0  0  0  0
  3  2  2  0  0  0  0
  4  5  2  0  0  0  0
  4  3  1  0  0  0  0
  5  6  1  0  0  0  0
  6  1  2  0  0  0  0
  7  3  1  0  0  0  0
  8  5  1  0  0  0  0
  9 10  1  0  0  0  0
 10 11  2  0  0  0  0
 10 14  1  0  0  0  0
 11 15  1  0  0  0  0
 12 16  1  0  0  0  0
 12 11  1  0  0  0  0
 13  9  2  0  0  0  0
 13 12  1  0  0  0  0
 17 18  1  0  0  0  0
 18 20  1  0  0  0  0
 18 19  2  0  0  0  0
 20 21  1  0  0  0  0
 21 22  1  0  0  0  0
 23 22  1  0  0  0  0
 24 23  1  0  0  0  0
 25 23  1  0  0  0  0
 26 20  1  0  0  0  0
 26 25  1  0  0  0  0
M  END
>  <minimizedAffinity>
-5.12487078

$$$$

 OpenBabel03252508523D

 26 28  0  0  0  0  0  0  0  0999 V2000
   40.9370   31.2390   41.1080 C   0  0  0  0  0  0  0  0  0  0  0  0
   40.5560   32.1450   40.1080 C   0  0  0  0  0  0  0  0  0  0  0  0
   41.5880   32.6680   39.3090 C   0  0  0  0  0  0  0  0  0  0  0  0
   42.8740   32.2680   39.5500 N   0  0  0  0  0  0  0  0  0  0  0  0
   43.1730   31.4070   40.5120 C   0  0  0  0  0  0  0  0  0  0  0  0
   42.2110   30.8850   41.2980 N   0  0  0  0  0  0  0  0  0  0  0  0
   41.2900   33.3680   38.5360 H   0  0  0  0  0  0  0  0  0  0  0  0
   44.1780   31.0940   40.7010 H   0  0  0  0  0  0  0  0  0  0  0  0
   39.1640   32.5010   39.9370 C   0  0  0  0  0  0  0  0  0  0  0  0
   38.3540   31.9160   38.9720 C   0  0  0  0  0  0  0  0  0  0  0  0
   37.1370   32.5320   39.1570 C   0  0  0  0  0  0  0  0  0  0  0  0
   37.2020   33.4290   40.1640 N   0  0  0  0  0  0  0  0  0  0  0  0
   38.4340   33.3850   40.6100 N   0  0  0  0  0  0  0  0  0  0  0  0
   38.6180   31.1630   38.2560 H   0  0  0  0  0  0  0  0  0  0  0  0
   36.2240   32.3590   38.6010 H   0  0  0  0  0  0  0  0  0  0  0  0
   36.4400   34.0410   40.5260 H   0  0  0  0  0  0  0  0  0  0  0  0
   39.9450   30.7130   41.9040 O   0  0  0  0  0  0  0  0  0  0  0  0
   39.5020   29.4170   41.8990 C   0  0  0  0  0  0  0  0  0  0  0  0
   39.6210   28.5480   40.9750 O   0  0  0  0  0  0  0  0  0  0  0  0
   38.7860   28.6300   42.8830 N   0  0  0  0  0  0  0  0  0  0  0  0
   39.4810   27.4430   43.3390 C   0  0  0  0  0  2  0  0  0  0  0  0
   38.8510   26.2860   42.5540 C   0  0  0  0  0  2  0  0  0  0  0  0
   37.3660   26.6260   42.3940 C   0  0  0  0  0  3  0  0  0  0  0  0
   37.2670   27.1780   41.4500 H   0  0  0  0  0  0  0  0  0  0  0  0
   36.8580   27.4590   43.5640 C   0  0  0  0  0  2  0  0  0  0  0  0
   37.4720   28.8630   43.4770 C   0  0  0  0  0  2  0  0  0  0  0  0
  1  6  1  0  0  0  0
  1 17  1  0  0  0  0
  2  1  2  0  0  0  0
  3  4  2  0  0  0  0
  3  2  1  0  0  0  0
  4  5  1  0  0  0  0
  5  8  1  0  0  0  0
  5  6  2  0  0  0  0
  7  3  1  0  0  0  0
  9  2  1  0  0  0  0
  9 13  2  0  0  0  0
 10 11  2  0  0  0  0
 10  9  1  0  0  0  0
 11 12  1  0  0  0  0
 12 16  1  0  0  0  0
 12 13  1  0  0  0  0
 14 10  1  0  0  0  0
 15 11  1  0  0  0  0
 18 17  1  0  0  0  0
 18 20  1  0  0  0  0
 19 18  2  0  0  0  0
 20 21  1  0  0  0  0
 20 26  1  0  0  0  0
 22 21  1  0  0  0  0
 23 22  1  0  0  0  0
 23 25  1  0  0  0  0
 24 23  1  0  0  0  0
 26 25  1  0  0  0  0
M  END
>  <minimizedAffinity>
-5.01533556

$$$$

 OpenBabel03252508523D

 26 28  0  0  0  0  0  0  0  0999 V2000
   38.4520   29.8090   38.5570 C   0  0  0  0  0  0  0  0  0  0  0  0
   39.1230   31.0410   38.5740 C   0  0  0  0  0  0  0  0  0  0  0  0
   40.3610   31.0890   37.9080 C   0  0  0  0  0  0  0  0  0  0  0  0
   40.8250   29.9570   37.2970 N   0  0  0  0  0  0  0  0  0  0  0  0
   40.1440   28.8200   37.3150 C   0  0  0  0  0  0  0  0  0  0  0  0
   38.9550   28.7350   37.9430 N   0  0  0  0  0  0  0  0  0  0  0  0
   40.8770   32.0430   37.9230 H   0  0  0  0  0  0  0  0  0  0  0  0
   40.5060   27.9340   36.8380 H   0  0  0  0  0  0  0  0  0  0  0  0
   38.5420   32.1790   39.2510 C   0  0  0  0  0  0  0  0  0  0  0  0
   39.2070   32.8760   40.2530 C   0  0  0  0  0  0  0  0  0  0  0  0
   38.3120   33.8580   40.6100 C   0  0  0  0  0  0  0  0  0  0  0  0
   37.1810   33.7670   39.8780 N   0  0  0  0  0  0  0  0  0  0  0  0
   37.3530   32.7470   39.0720 N   0  0  0  0  0  0  0  0  0  0  0  0
   40.1850   32.6880   40.6490 H   0  0  0  0  0  0  0  0  0  0  0  0
   38.4450   34.6220   41.3650 H   0  0  0  0  0  0  0  0  0  0  0  0
   36.3340   34.3720   39.9290 H   0  0  0  0  0  0  0  0  0  0  0  0
   37.2380   29.7350   39.2010 O   0  0  0  0  0  0  0  0  0  0  0  0
   36.9800   29.0700   40.3710 C   0  0  0  0  0  0  0  0  0  0  0  0
   35.8830   29.0090   41.0160 O   0  0  0  0  0  0  0  0  0  0  0  0
   37.8140   28.2540   41.2290 N   0  0  0  0  0  0  0  0  0  0  0  0
   37.3600   26.8880   41.4040 C   0  0  0  0  0  2  0  0  0  0  0  0
   36.6510   26.8740   42.7630 C   0  0  0  0  0  2  0  0  0  0  0  0
   37.4260   27.8370   43.6680 C   0  0  0  0  0  3  0  0  0  0  0  0
   36.9580   28.8230   43.5560 H   0  0  0  0  0  0  0  0  0  0  0  0
   38.9000   27.8900   43.2890 C   0  0  0  0  0  2  0  0  0  0  0  0
   39.0390   28.6100   41.9410 C   0  0  0  0  0  2  0  0  0  0  0  0
  1  2  1  0  0  0  0
  1 17  1  0  0  0  0
  2  9  1  0  0  0  0
  3  7  1  0  0  0  0
  3  2  2  0  0  0  0
  4  5  2  0  0  0  0
  4  3  1  0  0  0  0
  5  6  1  0  0  0  0
  6  1  2  0  0  0  0
  8  5  1  0  0  0  0
  9 10  1  0  0  0  0
 10 11  2  0  0  0  0
 10 14  1  0  0  0  0
 11 15  1  0  0  0  0
 12 16  1  0  0  0  0
 12 11  1  0  0  0  0
 13  9  2  0  0  0  0
 13 12  1  0  0  0  0
 17 18  1  0  0  0  0
 18 19  2  0  0  0  0
 18 20  1  0  0  0  0
 20 21  1  0  0  0  0
 20 26  1  0  0  0  0
 21 22  1  0  0  0  0
 22 23  1  0  0  0  0
 24 23  1  0  0  0  0
 25 23  1  0  0  0  0
 26 25  1  0  0  0  0
M  END
>  <minimizedAffinity>
-4.99839878

$$$$

 OpenBabel03252508523D

 26 28  0  0  0  0  0  0  0  0999 V2000
   37.1920   25.7040   40.6510 C   0  0  0  0  0  0  0  0  0  0  0  0
   37.9180   25.9740   41.8200 C   0  0  0  0  0  0  0  0  0  0  0  0
   38.7490   24.9440   42.2940 C   0  0  0  0  0  0  0  0  0  0  0  0
   38.7980   23.7660   41.6000 N   0  0  0  0  0  0  0  0  0  0  0  0
   38.0860   23.5690   40.4990 C   0  0  0  0  0  0  0  0  0  0  0  0
   37.2790   24.5340   40.0150 N   0  0  0  0  0  0  0  0  0  0  0  0
   39.3100   25.1550   43.1980 H   0  0  0  0  0  0  0  0  0  0  0  0
   38.1240   22.6490   39.9560 H   0  0  0  0  0  0  0  0  0  0  0  0
   37.7930   27.2570   42.4770 C   0  0  0  0  0  0  0  0  0  0  0  0
   38.7460   28.2600   42.3510 C   0  0  0  0  0  0  0  0  0  0  0  0
   38.2420   29.2830   43.1210 C   0  0  0  0  0  0  0  0  0  0  0  0
   37.0640   28.9280   43.6780 N   0  0  0  0  0  0  0  0  0  0  0  0
   36.8250   27.7040   43.2710 N   0  0  0  0  0  0  0  0  0  0  0  0
   39.6570   28.2380   41.7850 H   0  0  0  0  0  0  0  0  0  0  0  0
   38.6860   30.2550   43.2900 H   0  0  0  0  0  0  0  0  0  0  0  0
   36.4560   29.4950   44.3060 H   0  0  0  0  0  0  0  0  0  0  0  0
   36.3700   26.6970   40.1670 O   0  0  0  0  0  0  0  0  0  0  0  0
   36.6870   27.6120   39.1970 C   0  0  0  0  0  0  0  0  0  0  0  0
   37.4240   27.4490   38.1720 O   0  0  0  0  0  0  0  0  0  0  0  0
   36.3150   29.0000   39.0120 N   0  0  0  0  0  0  0  0  0  0  0  0
   35.6060   29.2840   37.7810 C   0  0  0  0  0  2  0  0  0  0  0  0
   36.6640   29.8640   36.8350 C   0  0  0  0  0  2  0  0  0  0  0  0
   37.6150   30.6940   37.7030 C   0  0  0  0  0  3  0  0  0  0  0  0
   38.4220   30.0210   38.0200 H   0  0  0  0  0  0  0  0  0  0  0  0
   36.8950   31.2820   38.9090 C   0  0  0  0  0  2  0  0  0  0  0  0
   36.5540   30.1470   39.8850 C   0  0  0  0  0  2  0  0  0  0  0  0
  1  2  1  0  0  0  0
  2  3  2  0  0  0  0
  2  9  1  0  0  0  0
  3  7  1  0  0  0  0
  4  3  1  0  0  0  0
  5  4  2  0  0  0  0
  6  5  1  0  0  0  0
  6  1  2  0  0  0  0
  8  5  1  0  0  0  0
  9 13  2  0  0  0  0
 10  9  1  0  0  0  0
 10 11  2  0  0  0  0
 11 15  1  0  0  0  0
 11 12  1  0  0  0  0
 12 16  1  0  0  0  0
 13 12  1  0  0  0  0
 14 10  1  0  0  0  0
 17  1  1  0  0  0  0
 18 17  1  0  0  0  0
 19 18  2  0  0  0  0
 20 18  1  0  0  0  0
 20 26  1  0  0  0  0
 21 20  1  0  0  0  0
 22 23  1  0  0  0  0
 22 21  1  0  0  0  0
 23 24  1  0  0  0  0
 23 25  1  0  0  0  0
 25 26  1  0  0  0  0
M  END
>  <minimizedAffinity>
-4.99817085

$$$$

 OpenBabel03252508523D

 26 28  0  0  0  0  0  0  0  0999 V2000
   37.0500   29.1430   39.2440 C   0  0  0  0  0  0  0  0  0  0  0  0
   36.1420   28.9450   40.2940 C   0  0  0  0  0  0  0  0  0  0  0  0
   34.7790   28.9240   39.9490 C   0  0  0  0  0  0  0  0  0  0  0  0
   34.4290   29.0940   38.6380 N   0  0  0  0  0  0  0  0  0  0  0  0
   35.3340   29.2770   37.6870 C   0  0  0  0  0  0  0  0  0  0  0  0
   36.6500   29.3030   37.9800 N   0  0  0  0  0  0  0  0  0  0  0  0
   34.0790   28.7710   40.7640 H   0  0  0  0  0  0  0  0  0  0  0  0
   35.0620   29.4100   36.6620 H   0  0  0  0  0  0  0  0  0  0  0  0
   36.6190   28.7760   41.6490 C   0  0  0  0  0  0  0  0  0  0  0  0
   36.6240   27.5450   42.2940 C   0  0  0  0  0  0  0  0  0  0  0  0
   37.1480   27.8330   43.5340 C   0  0  0  0  0  0  0  0  0  0  0  0
   37.4400   29.1470   43.6370 N   0  0  0  0  0  0  0  0  0  0  0  0
   37.1100   29.6840   42.4870 N   0  0  0  0  0  0  0  0  0  0  0  0
   36.2980   26.5990   41.9120 H   0  0  0  0  0  0  0  0  0  0  0  0
   37.3200   27.1420   44.3480 H   0  0  0  0  0  0  0  0  0  0  0  0
   37.8450   29.6510   44.4550 H   0  0  0  0  0  0  0  0  0  0  0  0
   38.3900   29.1670   39.5550 O   0  0  0  0  0  0  0  0  0  0  0  0
   39.1840   30.2810   39.6360 C   0  0  0  0  0  0  0  0  0  0  0  0
   40.4210   30.3460   39.9320 O   0  0  0  0  0  0  0  0  0  0  0  0
   38.9090   31.6880   39.4260 N   0  0  0  0  0  0  0  0  0  0  0  0
   39.6880   32.3130   38.3760 C   0  0  0  0  0  2  0  0  0  0  0  0
   40.8130   33.0580   39.1040 C   0  0  0  0  0  2  0  0  0  0  0  0
   40.2110   33.5890   40.4080 C   0  0  0  0  0  3  0  0  0  0  0  0
   40.3770   32.8160   41.1700 H   0  0  0  0  0  0  0  0  0  0  0  0
   38.7260   33.8870   40.2540 C   0  0  0  0  0  2  0  0  0  0  0  0
   37.9650   32.5610   40.1200 C   0  0  0  0  0  2  0  0  0  0  0  0
  1 17  1  0  0  0  0
  1  2  1  0  0  0  0
  2  9  1  0  0  0  0
  3  2  2  0  0  0  0
  3  7  1  0  0  0  0
  4  3  1  0  0  0  0
  5  6  1  0  0  0  0
  5  4  2  0  0  0  0
  6  1  2  0  0  0  0
  8  5  1  0  0  0  0
  9 10  1  0  0  0  0
  9 13  2  0  0  0  0
 10 11  2  0  0  0  0
 11 12  1  0  0  0  0
 11 15  1  0  0  0  0
 12 16  1  0  0  0  0
 13 12  1  0  0  0  0
 14 10  1  0  0  0  0
 17 18  1  0  0  0  0
 18 19  2  0  0  0  0
 20 18  1  0  0  0  0
 20 26  1  0  0  0  0
 21 22  1  0  0  0  0
 21 20  1  0  0  0  0
 22 23  1  0  0  0  0
 23 24  1  0  0  0  0
 25 23  1  0  0  0  0
 26 25  1  0  0  0  0
M  END
>  <minimizedAffinity>
-4.97866106

$$$$
