REMARK  Name = 
REMARK  3 active torsions:
REMARK  status: ('A' for Active; 'I' for Inactive)
REMARK    1  A    between atoms: C_1  and  O_12
REMARK    2  A    between atoms: C_2  and  C_7
REMARK    3  A    between atoms: O_12  and  C_13
REMARK                            x       y       z     vdW  Elec       q    Type
REMARK                         _______ _______ _______ _____ _____    ______ ____
ROOT
ATOM      1  C   UNL     1      46.076  34.150  41.004  0.00  0.00    +0.000 A 
ATOM      2  C   UNL     1      46.612  34.827  42.109  0.00  0.00    +0.000 A 
ATOM      3  C   UNL     1      47.939  35.275  41.986  0.00  0.00    +0.000 A 
ATOM      4  N   UNL     1      48.612  35.029  40.821  0.00  0.00    +0.000 NA
ATOM      5  C   UNL     1      48.051  34.382  39.809  0.00  0.00    +0.000 A 
ATOM      6  N   UNL     1      46.781  33.938  39.890  0.00  0.00    +0.000 NA
ATOM      7  H   UNL     1      48.351  35.799  42.842  0.00  0.00    +0.000 HD
ATOM      8  H   UNL     1      48.576  34.189  38.898  0.00  0.00    +0.000 HD
ENDROOT
BRANCH   2   9
ATOM      9  C   UNL     1      45.812  35.035  43.296  0.00  0.00    +0.000 A 
ATOM     10  C   UNL     1      45.050  36.180  43.496  0.00  0.00    +0.000 A 
ATOM     11  C   UNL     1      44.464  35.967  44.723  0.00  0.00    +0.000 A 
ATOM     12  N   UNL     1      44.843  34.776  45.235  0.00  0.00    +0.000 N 
ATOM     13  N   UNL     1      45.653  34.243  44.352  0.00  0.00    +0.000 NA
ATOM     14  H   UNL     1      44.946  37.025  42.845  0.00  0.00    +0.000 HD
ATOM     15  H   UNL     1      43.788  36.628  45.249  0.00  0.00    +0.000 HD
ATOM     16  H   UNL     1      44.561  34.351  46.144  0.00  0.00    +0.000 HD
ENDBRANCH   2   9
BRANCH   1  17
ATOM     17  O   UNL     1      44.778  33.701  41.099  0.00  0.00    +0.000 OA
BRANCH  17  18
ATOM     18  C   UNL     1      43.696  34.197  40.421  0.00  0.00    +0.000 C 
ATOM     19  O   UNL     1      43.245  35.388  40.421  0.00  0.00    +0.000 OA
ATOM     20  N   UNL     1      42.745  33.576  39.521  0.00  0.00    +0.000 N 
ATOM     21  C   UNL     1      42.705  34.143  38.188  0.00  0.00    +0.000 C 
ATOM     22  C   UNL     1      41.484  35.071  38.186  0.00  0.00    +0.000 C 
ATOM     23  C   UNL     1      40.424  34.397  39.062  0.00  0.00    +0.000 C 
ATOM     24  H   UNL     1      40.572  34.772  40.083  0.00  0.00    +0.000 HD
ATOM     25  C   UNL     1      40.550  32.880  39.019  0.00  0.00    +0.000 C 
ATOM     26  C   UNL     1      41.826  32.467  39.766  0.00  0.00    +0.000 C 
ENDBRANCH  17  18
ENDBRANCH   1  17
TORSDOF 3
