
 OpenBabel03252508503D

 26 28  0  0  0  0  0  0  0  0999 V2000
   45.7470   34.1310   41.0910 C   0  0  0  0  0  0  0  0  0  0  0  0
   46.3860   34.7550   42.1720 C   0  0  0  0  0  0  0  0  0  0  0  0
   47.7410   35.0840   41.9920 C   0  0  0  0  0  0  0  0  0  0  0  0
   48.3400   34.7830   40.8000 N   0  0  0  0  0  0  0  0  0  0  0  0
   47.6820   34.1910   39.8130 C   0  0  0  0  0  0  0  0  0  0  0  0
   46.3830   33.8610   39.9480 N   0  0  0  0  0  0  0  0  0  0  0  0
   48.2340   35.5670   42.8300 H   0  0  0  0  0  0  0  0  0  0  0  0
   48.1490   33.9550   38.8810 H   0  0  0  0  0  0  0  0  0  0  0  0
   45.6590   35.0290   43.3910 C   0  0  0  0  0  0  0  0  0  0  0  0
   45.0570   36.2560   43.6460 C   0  0  0  0  0  0  0  0  0  0  0  0
   44.4890   36.0840   44.8880 C   0  0  0  0  0  0  0  0  0  0  0  0
   44.7270   34.8400   45.3570 N   0  0  0  0  0  0  0  0  0  0  0  0
   45.4330   34.2340   44.4320 N   0  0  0  0  0  0  0  0  0  0  0  0
   45.0420   37.1260   43.0200 H   0  0  0  0  0  0  0  0  0  0  0  0
   43.9210   36.8110   45.4540 H   0  0  0  0  0  0  0  0  0  0  0  0
   44.4220   34.4290   46.2640 H   0  0  0  0  0  0  0  0  0  0  0  0
   44.4190   33.7980   41.2410 O   0  0  0  0  0  0  0  0  0  0  0  0
   43.3440   34.5640   40.8760 C   0  0  0  0  0  0  0  0  0  0  0  0
   43.3020   35.8230   40.6860 O   0  0  0  0  0  0  0  0  0  0  0  0
   41.9620   34.2290   40.5950 N   0  0  0  0  0  0  0  0  0  0  0  0
   41.7070   32.8180   40.3840 C   0  0  0  0  0  2  0  0  0  0  0  0
   41.6320   32.6510   38.8610 C   0  0  0  0  0  2  0  0  0  0  0  0
   40.9720   33.9200   38.3160 C   0  0  0  0  0  3  0  0  0  0  0  0
   41.7820   34.6260   38.0890 H   0  0  0  0  0  0  0  0  0  0  0  0
   40.0000   34.5170   39.3230 C   0  0  0  0  0  2  0  0  0  0  0  0
   40.7980   35.1050   40.4960 C   0  0  0  0  0  2  0  0  0  0  0  0
  1 17  1  0  0  0  0
  1  2  1  0  0  0  0
  2  9  1  0  0  0  0
  3  2  2  0  0  0  0
  3  7  1  0  0  0  0
  4  3  1  0  0  0  0
  5  6  1  0  0  0  0
  5  4  2  0  0  0  0
  6  1  2  0  0  0  0
  8  5  1  0  0  0  0
  9 10  1  0  0  0  0
  9 13  2  0  0  0  0
 10 11  2  0  0  0  0
 11 12  1  0  0  0  0
 11 15  1  0  0  0  0
 12 16  1  0  0  0  0
 13 12  1  0  0  0  0
 14 10  1  0  0  0  0
 18 17  1  0  0  0  0
 19 18  2  0  0  0  0
 20 18  1  0  0  0  0
 21 20  1  0  0  0  0
 22 21  1  0  0  0  0
 23 22  1  0  0  0  0
 23 25  1  0  0  0  0
 24 23  1  0  0  0  0
 25 26  1  0  0  0  0
 26 20  1  0  0  0  0
M  END
>  <minimizedAffinity>
-5.64884996

>  <minimizedRMSD>
1.19477594

$$$$
