
 OpenBabel03252508503D

 26 28  0  0  0  0  0  0  0  0999 V2000
   45.9530   34.2110   41.0350 C   0  0  0  0  0  0  0  0  0  0  0  0
   46.5440   34.8060   42.1590 C   0  0  0  0  0  0  0  0  0  0  0  0
   47.9040   35.1430   42.0470 C   0  0  0  0  0  0  0  0  0  0  0  0
   48.5540   34.8770   40.8740 N   0  0  0  0  0  0  0  0  0  0  0  0
   47.9410   34.3120   39.8430 C   0  0  0  0  0  0  0  0  0  0  0  0
   46.6380   33.9750   39.9130 N   0  0  0  0  0  0  0  0  0  0  0  0
   48.3580   35.6040   42.9180 H   0  0  0  0  0  0  0  0  0  0  0  0
   48.4480   34.1030   38.9260 H   0  0  0  0  0  0  0  0  0  0  0  0
   45.7640   35.0440   43.3540 C   0  0  0  0  0  0  0  0  0  0  0  0
   45.0910   36.2380   43.5850 C   0  0  0  0  0  0  0  0  0  0  0  0
   44.4920   36.0390   44.8080 C   0  0  0  0  0  0  0  0  0  0  0  0
   44.7810   34.8110   45.2890 N   0  0  0  0  0  0  0  0  0  0  0  0
   45.5470   34.2400   44.3900 N   0  0  0  0  0  0  0  0  0  0  0  0
   45.0500   37.1050   42.9550 H   0  0  0  0  0  0  0  0  0  0  0  0
   43.8690   36.7360   45.3530 H   0  0  0  0  0  0  0  0  0  0  0  0
   44.4690   34.3860   46.1880 H   0  0  0  0  0  0  0  0  0  0  0  0
   44.6210   33.8710   41.1190 O   0  0  0  0  0  0  0  0  0  0  0  0
   43.5720   34.5590   40.5680 C   0  0  0  0  0  0  0  0  0  0  0  0
   43.2520   35.7790   40.7420 O   0  0  0  0  0  0  0  0  0  0  0  0
   42.5240   34.1600   39.6500 N   0  0  0  0  0  0  0  0  0  0  0  0
   42.0310   35.2160   38.7910 C   0  0  0  0  0  2  0  0  0  0  0  0
   40.7220   35.6820   39.4420 C   0  0  0  0  0  2  0  0  0  0  0  0
   40.0650   34.4360   40.0390 C   0  0  0  0  0  3  0  0  0  0  0  0
   40.4240   34.3530   41.0730 H   0  0  0  0  0  0  0  0  0  0  0  0
   40.4160   33.1870   39.2430 C   0  0  0  0  0  2  0  0  0  0  0  0
   41.8960   32.8530   39.4720 C   0  0  0  0  0  2  0  0  0  0  0  0
  1 17  1  0  0  0  0
  1  2  1  0  0  0  0
  2  9  1  0  0  0  0
  3  2  2  0  0  0  0
  3  7  1  0  0  0  0
  4  3  1  0  0  0  0
  5  6  1  0  0  0  0
  5  4  2  0  0  0  0
  6  1  2  0  0  0  0
  8  5  1  0  0  0  0
  9 10  1  0  0  0  0
  9 13  2  0  0  0  0
 10 11  2  0  0  0  0
 11 12  1  0  0  0  0
 11 15  1  0  0  0  0
 12 16  1  0  0  0  0
 13 12  1  0  0  0  0
 14 10  1  0  0  0  0
 18 19  2  0  0  0  0
 18 17  1  0  0  0  0
 20 18  1  0  0  0  0
 21 22  1  0  0  0  0
 21 20  1  0  0  0  0
 22 23  1  0  0  0  0
 23 24  1  0  0  0  0
 25 26  1  0  0  0  0
 25 23  1  0  0  0  0
 26 20  1  0  0  0  0
M  END
>  <minimizedAffinity>
-5.86790848

>  <minimizedRMSD>
0.487817973

$$$$
