REMARK  Name = 
REMARK  7 active torsions:
REMARK  status: ('A' for Active; 'I' for Inactive)
REMARK    1  A    between atoms: C_1  and  C_8
REMARK    2  A    between atoms: C_4  and  C_12
REMARK    3  A    between atoms: C_14  and  O_15
REMARK    4  A    between atoms: O_15  and  P_17
REMARK    5  A    between atoms: P_17  and  O_18
REMARK    6  A    between atoms: P_17  and  O_19
REMARK    7  A    between atoms: O_19  and  C_40
REMARK                            x       y       z     vdW  Elec       q    Type
REMARK                         _______ _______ _______ _____ _____    ______ ____
ROOT
ATOM      1  C   UNL     1      47.062  34.810  41.956  0.00  0.00    +0.000 C 
ATOM      2  C   UNL     1      46.301  34.187  40.784  0.00  0.00    +0.000 C 
ATOM      3  C   UNL     1      47.503  34.001  39.833  0.00  0.00    +0.000 C 
ATOM      4  C   UNL     1      48.645  33.628  40.727  0.00  0.00    +0.000 C 
ATOM      5  C   UNL     1      48.134  33.770  42.130  0.00  0.00    +0.000 C 
ATOM      6  H   UNL     1      47.488  35.776  41.620  0.00  0.00    +0.000 HD
ATOM      7  H   UNL     1      45.590  34.910  40.388  0.00  0.00    +0.000 HD
ATOM      8  H   UNL     1      45.892  33.220  41.109  0.00  0.00    +0.000 HD
ATOM      9  H   UNL     1      47.282  33.218  39.091  0.00  0.00    +0.000 HD
ATOM     10  H   UNL     1      47.665  35.003  39.341  0.00  0.00    +0.000 HD
ATOM     11  H   UNL     1      49.504  34.311  40.569  0.00  0.00    +0.000 HD
ATOM     12  H   UNL     1      48.929  34.194  42.786  0.00  0.00    +0.000 HD
ATOM     13  H   UNL     1      47.708  32.848  42.540  0.00  0.00    +0.000 HD
ENDROOT
BRANCH   1  16
ATOM     14  C   UNL     1      44.546  35.991  44.496  0.00  0.00    +0.000 A 
ATOM     15  C   UNL     1      45.283  35.969  43.317  0.00  0.00    +0.000 A 
ATOM     16  C   UNL     1      46.194  34.933  43.160  0.00  0.00    +0.000 A 
ATOM     17  N   UNL     1      46.346  33.962  44.160  0.00  0.00    +0.000 NA
ATOM     18  C   UNL     1      45.597  34.038  45.290  0.00  0.00    +0.000 A 
ATOM     19  N   UNL     1      44.701  35.048  45.456  0.00  0.00    +0.000 NA
ATOM     20  H   UNL     1      43.827  36.794  44.639  0.00  0.00    +0.000 HD
ATOM     21  H   UNL     1      45.187  36.702  42.531  0.00  0.00    +0.000 HD
ATOM     22  H   UNL     1      45.718  33.290  46.056  0.00  0.00    +0.000 HD
ENDBRANCH   1  16
BRANCH   4  23
ATOM     23  C   UNL     1      49.128  32.205  40.569  0.00  0.00    +0.000 C 
ATOM     24  C   UNL     1      49.770  31.617  41.737  0.00  0.00    +0.000 C 
ATOM     25  C   UNL     1      50.553  31.884  40.492  0.00  0.00    +0.000 C 
ATOM     26  H   UNL     1      48.435  31.573  39.985  0.00  0.00    +0.000 HD
ATOM     27  H   UNL     1      50.063  32.216  42.632  0.00  0.00    +0.000 HD
ATOM     28  H   UNL     1      49.544  30.567  42.015  0.00  0.00    +0.000 HD
ATOM     29  H   UNL     1      51.240  32.737  40.380  0.00  0.00    +0.000 HD
BRANCH  25  30
ATOM     30  O   UNL     1      50.926  30.763  39.709  0.00  0.00    +0.000 OA
BRANCH  30  32
ATOM     31  O   UNL     1      52.031  30.207  37.415  0.00  0.00    +0.000 OA
ATOM     32  P   UNL     1      51.879  31.308  38.436  0.00  0.00    +0.000 P 
BRANCH  32  33
ATOM     33  O   UNL     1      51.108  32.626  37.653  0.00  0.00    +0.000 OA
ATOM     34  H   UNL     1      51.401  33.488  38.002  0.00  0.00    +0.000 HD
ENDBRANCH  32  33
BRANCH  32  35
ATOM     35  O   UNL     1      53.392  31.831  38.879  0.00  0.00    +0.000 OA
BRANCH  35  40
ATOM     36  H   UNL     1      52.260  28.668  41.709  0.00  0.00    +0.000 HD
ATOM     37  N   UNL     1      53.048  28.509  41.044  0.00  0.00    +0.000 NA
ATOM     38  C   UNL     1      52.628  28.770  39.693  0.00  0.00    +0.000 C 
ATOM     39  C   UNL     1      53.690  29.453  38.858  0.00  0.00    +0.000 C 
ATOM     40  C   UNL     1      54.108  30.764  39.452  0.00  0.00    +0.000 C 
ATOM     41  C   UNL     1      53.969  30.772  40.961  0.00  0.00    +0.000 C 
ATOM     42  C   UNL     1      54.150  29.350  41.468  0.00  0.00    +0.000 C 
ENDBRANCH  35  40
ENDBRANCH  32  35
ENDBRANCH  30  32
ENDBRANCH  25  30
ENDBRANCH   4  23
TORSDOF 7
