
 OpenBabel03252501333D

 22 23  0  0  0  0  0  0  0  0999 V2000
   37.6710   30.3570   39.8750 C   0  0  0  0  0  0  0  0  0  0  0  0
   36.8980   31.3490   40.4470 C   0  0  0  0  0  0  0  0  0  0  0  0
   37.2530   32.6600   40.1930 C   0  0  0  0  0  0  0  0  0  0  0  0
   38.3210   32.8760   39.4130 N   0  0  0  0  0  0  0  0  0  0  0  0
   39.0580   31.8970   38.8660 C   0  0  0  0  0  0  0  0  0  0  0  0
   38.7440   30.6070   39.0890 N   0  0  0  0  0  0  0  0  0  0  0  0
   36.6340   33.4190   40.6520 H   0  0  0  0  0  0  0  0  0  0  0  0
   39.9180   32.1560   38.2370 H   0  0  0  0  0  0  0  0  0  0  0  0
   38.1770   28.4790   41.1680 C   0  0  0  0  0  0  0  0  0  0  0  0
   38.7880   29.4150   41.7510 O   0  0  0  0  0  0  0  0  0  0  0  0
   37.4600   28.9260   40.0220 N   0  0  0  0  0  0  0  0  0  0  0  0
   36.9080   28.2830   39.4420 H   0  0  0  0  0  0  0  0  0  0  0  0
   38.1730   27.1140   41.5760 N   0  0  0  0  0  0  0  0  0  0  0  0
   37.4070   26.6820   42.7080 C   0  0  0  0  0  2  0  0  0  0  0  0
   36.8320   25.3130   42.3280 C   0  0  0  0  0  2  0  0  0  0  0  0
   37.9310   24.3070   42.1270 C   0  0  0  0  0  3  0  0  0  0  0  0
   37.5660   23.5140   41.4380 H   0  0  0  0  0  0  0  0  0  0  0  0
   39.2060   24.8920   41.6100 C   0  0  0  0  0  2  0  0  0  0  0  0
   38.9710   26.1790   40.8070 C   0  0  0  0  0  2  0  0  0  0  0  0
   35.8040   30.9100   41.2470 N   0  0  0  0  0  0  0  0  0  0  0  0
   34.8540   31.2530   40.9830 H   0  0  0  0  0  0  0  0  0  0  0  0
   35.8290   30.2800   42.0760 H   0  0  0  0  0  0  0  0  0  0  0  0
  1 11  1  0  0  0  0
  1  2  1  0  0  0  0
  2 20  1  0  0  0  0
  3  2  2  0  0  0  0
  3  7  1  0  0  0  0
  4  3  1  0  0  0  0
  5  6  1  0  0  0  0
  5  4  2  0  0  0  0
  6  1  2  0  0  0  0
  8  5  1  0  0  0  0
  9 13  1  0  0  0  0
  9 10  2  0  0  0  0
 11  9  1  0  0  0  0
 12 11  1  0  0  0  0
 13 14  1  0  0  0  0
 15 14  1  0  0  0  0
 16 15  1  0  0  0  0
 17 16  1  0  0  0  0
 18 16  1  0  0  0  0
 19 13  1  0  0  0  0
 19 18  1  0  0  0  0
 20 22  1  0  0  0  0
 21 20  1  0  0  0  0
M  END
>  <minimizedAffinity>
-4.89306068

$$$$

 OpenBabel03252501333D

 22 23  0  0  0  0  0  0  0  0999 V2000
   40.4120   31.3280   39.6970 C   0  0  0  0  0  0  0  0  0  0  0  0
   40.9520   32.4260   40.3380 C   0  0  0  0  0  0  0  0  0  0  0  0
   41.3180   33.5040   39.5550 C   0  0  0  0  0  0  0  0  0  0  0  0
   41.1220   33.4090   38.2330 N   0  0  0  0  0  0  0  0  0  0  0  0
   40.5940   32.3320   37.6310 C   0  0  0  0  0  0  0  0  0  0  0  0
   40.2250   31.2610   38.3590 N   0  0  0  0  0  0  0  0  0  0  0  0
   41.7390   34.3520   40.0780 H   0  0  0  0  0  0  0  0  0  0  0  0
   40.4650   32.3320   36.5420 H   0  0  0  0  0  0  0  0  0  0  0  0
   38.6630   30.3170   40.8700 C   0  0  0  0  0  0  0  0  0  0  0  0
   38.2350   31.4810   40.6430 O   0  0  0  0  0  0  0  0  0  0  0  0
   39.9680   30.1030   40.3420 N   0  0  0  0  0  0  0  0  0  0  0  0
   40.4530   29.2020   40.4410 H   0  0  0  0  0  0  0  0  0  0  0  0
   37.9540   29.2970   41.5690 N   0  0  0  0  0  0  0  0  0  0  0  0
   36.8680   28.5950   40.9530 C   0  0  0  0  0  2  0  0  0  0  0  0
   36.9960   27.1380   41.4120 C   0  0  0  0  0  2  0  0  0  0  0  0
   36.8080   27.0270   42.8990 C   0  0  0  0  0  3  0  0  0  0  0  0
   37.3380   26.1170   43.2580 H   0  0  0  0  0  0  0  0  0  0  0  0
   37.2680   28.2260   43.6640 C   0  0  0  0  0  2  0  0  0  0  0  0
   38.3710   28.9970   42.9260 C   0  0  0  0  0  2  0  0  0  0  0  0
   41.0780   32.3290   41.7530 N   0  0  0  0  0  0  0  0  0  0  0  0
   40.6100   33.0670   42.3250 H   0  0  0  0  0  0  0  0  0  0  0  0
   41.5850   31.6040   42.3030 H   0  0  0  0  0  0  0  0  0  0  0  0
  1  2  1  0  0  0  0
  1 11  1  0  0  0  0
  2 20  1  0  0  0  0
  3  7  1  0  0  0  0
  3  2  2  0  0  0  0
  4  3  1  0  0  0  0
  5  4  2  0  0  0  0
  5  6  1  0  0  0  0
  6  1  2  0  0  0  0
  8  5  1  0  0  0  0
  9 13  1  0  0  0  0
 10  9  2  0  0  0  0
 11 12  1  0  0  0  0
 11  9  1  0  0  0  0
 13 19  1  0  0  0  0
 14 15  1  0  0  0  0
 14 13  1  0  0  0  0
 15 16  1  0  0  0  0
 16 17  1  0  0  0  0
 16 18  1  0  0  0  0
 19 18  1  0  0  0  0
 20 22  1  0  0  0  0
 20 21  1  0  0  0  0
M  END
>  <minimizedAffinity>
-4.56782484

$$$$

 OpenBabel03252501333D

 22 23  0  0  0  0  0  0  0  0999 V2000
   39.3630   31.6740   39.3690 C   0  0  0  0  0  0  0  0  0  0  0  0
   39.5440   31.4700   38.0150 C   0  0  0  0  0  0  0  0  0  0  0  0
   40.4820   32.2530   37.3710 C   0  0  0  0  0  0  0  0  0  0  0  0
   41.1490   33.1560   38.1040 N   0  0  0  0  0  0  0  0  0  0  0  0
   40.9580   33.3380   39.4200 C   0  0  0  0  0  0  0  0  0  0  0  0
   40.0530   32.5930   40.0830 N   0  0  0  0  0  0  0  0  0  0  0  0
   40.6060   32.0760   36.3120 H   0  0  0  0  0  0  0  0  0  0  0  0
   41.5450   34.0970   39.9500 H   0  0  0  0  0  0  0  0  0  0  0  0
   39.0580   29.7590   40.6700 C   0  0  0  0  0  0  0  0  0  0  0  0
   40.2350   29.6380   40.2330 O   0  0  0  0  0  0  0  0  0  0  0  0
   38.4290   30.9540   40.2200 N   0  0  0  0  0  0  0  0  0  0  0  0
   37.4700   31.1990   40.4920 H   0  0  0  0  0  0  0  0  0  0  0  0
   38.3930   28.8310   41.5230 N   0  0  0  0  0  0  0  0  0  0  0  0
   38.7190   28.7400   42.9150 C   0  0  0  0  0  2  0  0  0  0  0  0
   37.3900   28.5120   43.6440 C   0  0  0  0  0  2  0  0  0  0  0  0
   36.7780   27.1990   43.2450 C   0  0  0  0  0  3  0  0  0  0  0  0
   35.6770   27.2590   43.3940 H   0  0  0  0  0  0  0  0  0  0  0  0
   37.0860   26.7830   41.8430 C   0  0  0  0  0  2  0  0  0  0  0  0
   37.3760   27.9830   40.9310 C   0  0  0  0  0  2  0  0  0  0  0  0
   38.7340   30.4610   37.4190 N   0  0  0  0  0  0  0  0  0  0  0  0
   39.2270   29.6880   36.9190 H   0  0  0  0  0  0  0  0  0  0  0  0
   37.6950   30.3920   37.4160 H   0  0  0  0  0  0  0  0  0  0  0  0
  1  6  1  0  0  0  0
  1 11  1  0  0  0  0
  2  1  2  0  0  0  0
  3  2  1  0  0  0  0
  3  4  2  0  0  0  0
  4  5  1  0  0  0  0
  5  8  1  0  0  0  0
  5  6  2  0  0  0  0
  7  3  1  0  0  0  0
  9 13  1  0  0  0  0
 10  9  2  0  0  0  0
 11 12  1  0  0  0  0
 11  9  1  0  0  0  0
 13 14  1  0  0  0  0
 14 15  1  0  0  0  0
 16 17  1  0  0  0  0
 16 15  1  0  0  0  0
 18 16  1  0  0  0  0
 19 13  1  0  0  0  0
 19 18  1  0  0  0  0
 20  2  1  0  0  0  0
 21 20  1  0  0  0  0
 22 20  1  0  0  0  0
M  END
>  <minimizedAffinity>
-4.50890827

$$$$

 OpenBabel03252501333D

 22 23  0  0  0  0  0  0  0  0999 V2000
   40.3100   32.4130   40.6690 C   0  0  0  0  0  0  0  0  0  0  0  0
   40.0330   33.0070   39.4520 C   0  0  0  0  0  0  0  0  0  0  0  0
   41.0720   33.6490   38.8060 C   0  0  0  0  0  0  0  0  0  0  0  0
   42.2710   33.6520   39.4030 N   0  0  0  0  0  0  0  0  0  0  0  0
   42.5190   33.0680   40.5860 C   0  0  0  0  0  0  0  0  0  0  0  0
   41.5330   32.4320   41.2470 N   0  0  0  0  0  0  0  0  0  0  0  0
   40.8320   34.1060   37.8560 H   0  0  0  0  0  0  0  0  0  0  0  0
   43.5290   33.1140   41.0090 H   0  0  0  0  0  0  0  0  0  0  0  0
   39.3050   30.3410   41.0560 C   0  0  0  0  0  0  0  0  0  0  0  0
   40.0820   30.1180   40.0890 O   0  0  0  0  0  0  0  0  0  0  0  0
   39.3570   31.6940   41.4980 N   0  0  0  0  0  0  0  0  0  0  0  0
   38.7840   32.0320   42.2810 H   0  0  0  0  0  0  0  0  0  0  0  0
   38.4530   29.3780   41.6720 N   0  0  0  0  0  0  0  0  0  0  0  0
   38.9820   28.3760   42.5480 C   0  0  0  0  0  2  0  0  0  0  0  0
   37.9560   28.2210   43.6760 C   0  0  0  0  0  2  0  0  0  0  0  0
   36.6490   27.7010   43.1450 C   0  0  0  0  0  3  0  0  0  0  0  0
   35.8340   28.0250   43.8280 H   0  0  0  0  0  0  0  0  0  0  0  0
   36.3480   28.1260   41.7440 C   0  0  0  0  0  2  0  0  0  0  0  0
   37.0350   29.4490   41.3780 C   0  0  0  0  0  2  0  0  0  0  0  0
   38.6910   32.8930   38.9880 N   0  0  0  0  0  0  0  0  0  0  0  0
   38.5480   32.4580   38.0500 H   0  0  0  0  0  0  0  0  0  0  0  0
   37.8190   33.1910   39.4720 H   0  0  0  0  0  0  0  0  0  0  0  0
  1  6  1  0  0  0  0
  1 11  1  0  0  0  0
  2  1  2  0  0  0  0
  3  4  2  0  0  0  0
  3  2  1  0  0  0  0
  4  5  1  0  0  0  0
  5  8  1  0  0  0  0
  5  6  2  0  0  0  0
  7  3  1  0  0  0  0
  9 11  1  0  0  0  0
  9 13  1  0  0  0  0
 10  9  2  0  0  0  0
 11 12  1  0  0  0  0
 13 14  1  0  0  0  0
 14 15  1  0  0  0  0
 16 15  1  0  0  0  0
 16 17  1  0  0  0  0
 18 16  1  0  0  0  0
 19 13  1  0  0  0  0
 19 18  1  0  0  0  0
 20  2  1  0  0  0  0
 20 22  1  0  0  0  0
 21 20  1  0  0  0  0
M  END
>  <minimizedAffinity>
-4.49031162

$$$$

 OpenBabel03252501333D

 22 23  0  0  0  0  0  0  0  0999 V2000
   36.9570   29.8290   39.6110 C   0  0  0  0  0  0  0  0  0  0  0  0
   35.7870   30.0130   40.3210 C   0  0  0  0  0  0  0  0  0  0  0  0
   34.6810   29.2860   39.9260 C   0  0  0  0  0  0  0  0  0  0  0  0
   34.8200   28.4550   38.8840 N   0  0  0  0  0  0  0  0  0  0  0  0
   35.9680   28.2910   38.2070 C   0  0  0  0  0  0  0  0  0  0  0  0
   37.0680   28.9810   38.5620 N   0  0  0  0  0  0  0  0  0  0  0  0
   33.7760   29.4460   40.4960 H   0  0  0  0  0  0  0  0  0  0  0  0
   36.0020   27.5900   37.3650 H   0  0  0  0  0  0  0  0  0  0  0  0
   38.2430   31.7210   39.1420 C   0  0  0  0  0  0  0  0  0  0  0  0
   37.1860   31.9090   38.4820 O   0  0  0  0  0  0  0  0  0  0  0  0
   38.2220   30.4980   39.8700 N   0  0  0  0  0  0  0  0  0  0  0  0
   39.0100   30.2030   40.4600 H   0  0  0  0  0  0  0  0  0  0  0  0
   39.3600   32.6060   39.1850 N   0  0  0  0  0  0  0  0  0  0  0  0
   39.3080   33.8240   39.9380 C   0  0  0  0  0  2  0  0  0  0  0  0
   40.6940   33.9850   40.5720 C   0  0  0  0  0  2  0  0  0  0  0  0
   41.7500   34.1600   39.5160 C   0  0  0  0  0  3  0  0  0  0  0  0
   42.7250   33.8180   39.9280 H   0  0  0  0  0  0  0  0  0  0  0  0
   41.4540   33.4510   38.2340 C   0  0  0  0  0  2  0  0  0  0  0  0
   40.5460   32.2300   38.4410 C   0  0  0  0  0  2  0  0  0  0  0  0
   35.8450   30.9440   41.3970 N   0  0  0  0  0  0  0  0  0  0  0  0
   35.5760   30.5950   42.3440 H   0  0  0  0  0  0  0  0  0  0  0  0
   36.1270   31.9460   41.3630 H   0  0  0  0  0  0  0  0  0  0  0  0
  1 11  1  0  0  0  0
  1  2  1  0  0  0  0
  2 20  1  0  0  0  0
  3  2  2  0  0  0  0
  3  7  1  0  0  0  0
  4  3  1  0  0  0  0
  5  6  1  0  0  0  0
  5  4  2  0  0  0  0
  6  1  2  0  0  0  0
  8  5  1  0  0  0  0
  9 13  1  0  0  0  0
  9 11  1  0  0  0  0
 10  9  2  0  0  0  0
 11 12  1  0  0  0  0
 13 14  1  0  0  0  0
 14 15  1  0  0  0  0
 16 17  1  0  0  0  0
 16 15  1  0  0  0  0
 18 19  1  0  0  0  0
 18 16  1  0  0  0  0
 19 13  1  0  0  0  0
 20 21  1  0  0  0  0
 22 20  1  0  0  0  0
M  END
>  <minimizedAffinity>
-4.46273041

$$$$

 OpenBabel03252501333D

 22 23  0  0  0  0  0  0  0  0999 V2000
   40.6570   32.1490   39.2080 C   0  0  0  0  0  0  0  0  0  0  0  0
   41.0010   32.8630   38.0770 C   0  0  0  0  0  0  0  0  0  0  0  0
   41.8880   33.9110   38.2300 C   0  0  0  0  0  0  0  0  0  0  0  0
   42.3510   34.1610   39.4620 N   0  0  0  0  0  0  0  0  0  0  0  0
   42.0040   33.4540   40.5490 C   0  0  0  0  0  0  0  0  0  0  0  0
   41.1410   32.4240   40.4400 N   0  0  0  0  0  0  0  0  0  0  0  0
   42.1430   34.4550   37.3310 H   0  0  0  0  0  0  0  0  0  0  0  0
   42.4270   33.7200   41.5240 H   0  0  0  0  0  0  0  0  0  0  0  0
   38.4110   31.5160   39.3190 C   0  0  0  0  0  0  0  0  0  0  0  0
   38.3660   32.7760   39.3140 O   0  0  0  0  0  0  0  0  0  0  0  0
   39.7440   31.0180   39.2530 N   0  0  0  0  0  0  0  0  0  0  0  0
   39.9480   30.0110   39.2440 H   0  0  0  0  0  0  0  0  0  0  0  0
   37.2830   30.6470   39.3800 N   0  0  0  0  0  0  0  0  0  0  0  0
   36.4440   30.4430   38.2360 C   0  0  0  0  0  2  0  0  0  0  0  0
   36.0670   28.9580   38.2520 C   0  0  0  0  0  2  0  0  0  0  0  0
   35.2480   28.6250   39.4680 C   0  0  0  0  0  3  0  0  0  0  0  0
   35.3800   27.5460   39.7010 H   0  0  0  0  0  0  0  0  0  0  0  0
   35.5720   29.4560   40.6670 C   0  0  0  0  0  2  0  0  0  0  0  0
   37.0150   29.9790   40.6390 C   0  0  0  0  0  2  0  0  0  0  0  0
   40.3980   32.4380   36.8580 N   0  0  0  0  0  0  0  0  0  0  0  0
   41.0380   32.1810   36.0740 H   0  0  0  0  0  0  0  0  0  0  0  0
   39.3830   32.3490   36.6430 H   0  0  0  0  0  0  0  0  0  0  0  0
  1 11  1  0  0  0  0
  1  6  1  0  0  0  0
  2  3  1  0  0  0  0
  2  1  2  0  0  0  0
  3  4  2  0  0  0  0
  4  5  1  0  0  0  0
  5  8  1  0  0  0  0
  6  5  2  0  0  0  0
  7  3  1  0  0  0  0
  9 13  1  0  0  0  0
 10  9  2  0  0  0  0
 11  9  1  0  0  0  0
 12 11  1  0  0  0  0
 13 19  1  0  0  0  0
 14 15  1  0  0  0  0
 14 13  1  0  0  0  0
 15 16  1  0  0  0  0
 16 17  1  0  0  0  0
 16 18  1  0  0  0  0
 19 18  1  0  0  0  0
 20  2  1  0  0  0  0
 21 20  1  0  0  0  0
 22 20  1  0  0  0  0
M  END
>  <minimizedAffinity>
-4.44609976

$$$$

 OpenBabel03252501333D

 22 23  0  0  0  0  0  0  0  0999 V2000
   38.5780   28.2590   41.9970 C   0  0  0  0  0  0  0  0  0  0  0  0
   37.4560   28.0380   42.7710 C   0  0  0  0  0  0  0  0  0  0  0  0
   36.9700   26.7470   42.8350 C   0  0  0  0  0  0  0  0  0  0  0  0
   37.6190   25.8010   42.1420 N   0  0  0  0  0  0  0  0  0  0  0  0
   38.7090   26.0380   41.3960 C   0  0  0  0  0  0  0  0  0  0  0  0
   39.2140   27.2830   41.3080 N   0  0  0  0  0  0  0  0  0  0  0  0
   36.0910   26.5980   43.4460 H   0  0  0  0  0  0  0  0  0  0  0  0
   39.1850   25.2090   40.8580 H   0  0  0  0  0  0  0  0  0  0  0  0
   38.6320   30.1980   40.6950 C   0  0  0  0  0  0  0  0  0  0  0  0
   37.7000   29.5210   40.1830 O   0  0  0  0  0  0  0  0  0  0  0  0
   39.2380   29.5410   41.8030 N   0  0  0  0  0  0  0  0  0  0  0  0
   40.0110   29.9650   42.3300 H   0  0  0  0  0  0  0  0  0  0  0  0
   39.0640   31.4800   40.2490 N   0  0  0  0  0  0  0  0  0  0  0  0
   38.2910   32.6560   40.5190 C   0  0  0  0  0  2  0  0  0  0  0  0
   39.3050   33.7620   40.8330 C   0  0  0  0  0  2  0  0  0  0  0  0
   40.1620   34.0600   39.6340 C   0  0  0  0  0  3  0  0  0  0  0  0
   41.1290   34.4820   39.9850 H   0  0  0  0  0  0  0  0  0  0  0  0
   40.4030   32.8800   38.7490 C   0  0  0  0  0  2  0  0  0  0  0  0
   40.3120   31.5520   39.5130 C   0  0  0  0  0  2  0  0  0  0  0  0
   36.9120   29.1790   43.4290 N   0  0  0  0  0  0  0  0  0  0  0  0
   36.8160   29.1290   44.4670 H   0  0  0  0  0  0  0  0  0  0  0  0
   36.5930   30.0730   43.0010 H   0  0  0  0  0  0  0  0  0  0  0  0
  1  2  1  0  0  0  0
  2  3  2  0  0  0  0
  2 20  1  0  0  0  0
  3  7  1  0  0  0  0
  4  3  1  0  0  0  0
  5  4  2  0  0  0  0
  6  5  1  0  0  0  0
  6  1  2  0  0  0  0
  8  5  1  0  0  0  0
  9 11  1  0  0  0  0
 10  9  2  0  0  0  0
 11  1  1  0  0  0  0
 11 12  1  0  0  0  0
 13 14  1  0  0  0  0
 13  9  1  0  0  0  0
 14 15  1  0  0  0  0
 16 17  1  0  0  0  0
 16 15  1  0  0  0  0
 18 19  1  0  0  0  0
 18 16  1  0  0  0  0
 19 13  1  0  0  0  0
 20 21  1  0  0  0  0
 22 20  1  0  0  0  0
M  END
>  <minimizedAffinity>
-4.35947132

$$$$

 OpenBabel03252501333D

 22 23  0  0  0  0  0  0  0  0999 V2000
   38.5340   26.7760   42.5350 C   0  0  0  0  0  0  0  0  0  0  0  0
   38.0270   25.6530   41.9110 C   0  0  0  0  0  0  0  0  0  0  0  0
   38.6130   24.4380   42.2090 C   0  0  0  0  0  0  0  0  0  0  0  0
   39.6310   24.4350   43.0820 N   0  0  0  0  0  0  0  0  0  0  0  0
   40.1080   25.5380   43.6780 C   0  0  0  0  0  0  0  0  0  0  0  0
   39.5630   26.7410   43.4130 N   0  0  0  0  0  0  0  0  0  0  0  0
   38.2000   23.5730   41.7090 H   0  0  0  0  0  0  0  0  0  0  0  0
   40.9440   25.4530   44.3810 H   0  0  0  0  0  0  0  0  0  0  0  0
   38.6990   28.6930   41.2120 C   0  0  0  0  0  0  0  0  0  0  0  0
   39.4930   27.8830   40.6620 O   0  0  0  0  0  0  0  0  0  0  0  0
   38.0550   28.1370   42.3540 N   0  0  0  0  0  0  0  0  0  0  0  0
   37.3760   28.6720   42.9090 H   0  0  0  0  0  0  0  0  0  0  0  0
   38.4420   30.0260   40.7760 N   0  0  0  0  0  0  0  0  0  0  0  0
   37.6340   30.2820   39.6200 C   0  0  0  0  0  2  0  0  0  0  0  0
   36.7980   31.5210   39.9600 C   0  0  0  0  0  2  0  0  0  0  0  0
   37.6780   32.7230   40.1610 C   0  0  0  0  0  3  0  0  0  0  0  0
   37.1510   33.4420   40.8260 H   0  0  0  0  0  0  0  0  0  0  0  0
   39.0290   32.4040   40.7150 C   0  0  0  0  0  2  0  0  0  0  0  0
   39.0280   31.1100   41.5400 C   0  0  0  0  0  2  0  0  0  0  0  0
   36.9410   25.8680   41.0150 N   0  0  0  0  0  0  0  0  0  0  0  0
   36.0590   25.3420   41.2000 H   0  0  0  0  0  0  0  0  0  0  0  0
   36.9110   26.4950   40.1840 H   0  0  0  0  0  0  0  0  0  0  0  0
  1  6  1  0  0  0  0
  2  3  1  0  0  0  0
  2  1  2  0  0  0  0
  3  4  2  0  0  0  0
  4  5  1  0  0  0  0
  5  8  1  0  0  0  0
  6  5  2  0  0  0  0
  7  3  1  0  0  0  0
  9 11  1  0  0  0  0
 10  9  2  0  0  0  0
 11  1  1  0  0  0  0
 11 12  1  0  0  0  0
 13  9  1  0  0  0  0
 13 19  1  0  0  0  0
 14 15  1  0  0  0  0
 14 13  1  0  0  0  0
 15 16  1  0  0  0  0
 16 18  1  0  0  0  0
 16 17  1  0  0  0  0
 18 19  1  0  0  0  0
 20 21  1  0  0  0  0
 20  2  1  0  0  0  0
 22 20  1  0  0  0  0
M  END
>  <minimizedAffinity>
-4.31428337

$$$$

 OpenBabel03252501333D

 22 23  0  0  0  0  0  0  0  0999 V2000
   38.1160   26.4620   41.0270 C   0  0  0  0  0  0  0  0  0  0  0  0
   37.3940   25.9530   42.0890 C   0  0  0  0  0  0  0  0  0  0  0  0
   37.2820   24.5800   42.1830 C   0  0  0  0  0  0  0  0  0  0  0  0
   37.8800   23.8390   41.2390 N   0  0  0  0  0  0  0  0  0  0  0  0
   38.5770   24.3540   40.2150 C   0  0  0  0  0  0  0  0  0  0  0  0
   38.7100   25.6890   40.0890 N   0  0  0  0  0  0  0  0  0  0  0  0
   36.7120   24.2040   43.0220 H   0  0  0  0  0  0  0  0  0  0  0  0
   39.0380   23.6810   39.4830 H   0  0  0  0  0  0  0  0  0  0  0  0
   37.2160   28.3900   40.0640 C   0  0  0  0  0  0  0  0  0  0  0  0
   36.3240   27.5190   39.8750 O   0  0  0  0  0  0  0  0  0  0  0  0
   38.3470   27.8720   40.7550 N   0  0  0  0  0  0  0  0  0  0  0  0
   39.1580   28.4590   40.9870 H   0  0  0  0  0  0  0  0  0  0  0  0
   37.1420   29.7520   39.6500 N   0  0  0  0  0  0  0  0  0  0  0  0
   36.3150   30.6920   40.3470 C   0  0  0  0  0  2  0  0  0  0  0  0
   37.1060   32.0050   40.3770 C   0  0  0  0  0  2  0  0  0  0  0  0
   37.3110   32.5390   38.9870 C   0  0  0  0  0  3  0  0  0  0  0  0
   38.2220   33.1770   38.9820 H   0  0  0  0  0  0  0  0  0  0  0  0
   37.4150   31.4820   37.9370 C   0  0  0  0  0  2  0  0  0  0  0  0
   37.9310   30.1510   38.5010 C   0  0  0  0  0  2  0  0  0  0  0  0
   36.8350   26.9100   42.9840 N   0  0  0  0  0  0  0  0  0  0  0  0
   37.0970   26.8280   43.9920 H   0  0  0  0  0  0  0  0  0  0  0  0
   36.1890   27.6950   42.7610 H   0  0  0  0  0  0  0  0  0  0  0  0
  1  2  1  0  0  0  0
  2  3  2  0  0  0  0
  2 20  1  0  0  0  0
  3  7  1  0  0  0  0
  4  3  1  0  0  0  0
  5  4  2  0  0  0  0
  6  5  1  0  0  0  0
  6  1  2  0  0  0  0
  8  5  1  0  0  0  0
  9 11  1  0  0  0  0
 10  9  2  0  0  0  0
 11 12  1  0  0  0  0
 11  1  1  0  0  0  0
 13  9  1  0  0  0  0
 13 14  1  0  0  0  0
 14 15  1  0  0  0  0
 16 15  1  0  0  0  0
 17 16  1  0  0  0  0
 18 19  1  0  0  0  0
 18 16  1  0  0  0  0
 19 13  1  0  0  0  0
 20 21  1  0  0  0  0
 22 20  1  0  0  0  0
M  END
>  <minimizedAffinity>
-4.27665329

$$$$
