
 OpenBabel03242519503D

 48 51  0  0  1  0  0  0  0  0999 V2000
   36.6470   29.8970   38.2150 C   0  0  0  0  0  0  0  0  0  0  0  0
   35.8830   29.3290   37.7710 H   0  0  0  0  0  0  0  0  0  0  0  0
   35.8650   30.7260   38.7320 H   0  0  0  0  0  0  0  0  0  0  0  0
   37.4940   30.8780   37.3930 C   0  0  0  0  0  0  0  0  0  0  0  0
   36.8140   31.3580   36.6590 H   0  0  0  0  0  0  0  0  0  0  0  0
   38.2840   30.3790   36.8510 H   0  0  0  0  0  0  0  0  0  0  0  0
   39.4120   32.0520   38.3090 C   0  0  0  0  0  0  0  0  0  0  0  0
   38.0130   31.9240   38.2760 C   0  0  0  0  0  0  0  0  0  0  0  0
   37.3520   32.8010   39.1030 C   0  0  0  0  0  0  0  0  0  0  0  0
   37.9440   33.7300   39.9030 C   0  0  0  0  0  0  0  0  0  0  0  0
   39.3250   33.8380   39.9210 C   0  0  0  0  0  0  0  0  0  0  0  0
   40.0780   32.9740   39.0990 C   0  0  0  0  0  0  0  0  0  0  0  0
   36.2720   32.6710   39.0490 H   0  0  0  0  0  0  0  0  0  0  0  0
   37.3020   34.3630   40.5100 H   0  0  0  0  0  0  0  0  0  0  0  0
   39.7590   34.5860   40.5690 H   0  0  0  0  0  0  0  0  0  0  0  0
   40.3280   31.3140   37.5890 O   0  0  0  0  0  0  0  0  0  0  0  0
   40.1830   30.3160   37.5110 H   0  0  0  0  0  0  0  0  0  0  0  0
   41.3980   33.1700   39.1970 O   0  0  0  0  0  0  0  0  0  0  0  0
   42.4590   32.4050   43.8920 H   0  0  0  0  0  0  0  0  0  0  0  0
   42.7370   32.1840   42.9060 N   0  0  0  0  0  0  0  0  0  0  0  0
   43.3990   33.2760   42.2310 C   0  0  0  0  0  2  0  0  0  0  0  0
   42.6230   33.8110   41.0740 C   0  0  0  0  0  2  0  0  0  0  0  0
   42.4320   32.7610   39.9740 C   0  0  0  0  0  3  0  0  0  0  0  0
   41.9820   31.5000   40.7210 C   0  0  0  0  0  2  0  0  0  0  0  0
   41.5670   31.7960   42.1380 C   0  0  0  0  0  2  0  0  0  0  0  0
   37.2440   29.5110   39.3460 O   0  0  0  0  0  0  0  0  0  0  0  0
   37.6710   29.3510   41.6820 C   0  0  2  0  0  0  0  0  0  0  0  0
   37.1860   28.0550   42.1540 C   0  0  1  0  0  0  0  0  0  0  0  0
   36.5070   27.4970   40.9560 O   0  0  0  0  0  0  0  0  0  0  0  0
   35.6470   28.5650   40.7370 C   0  0  0  0  0  0  0  0  0  0  0  0
   36.7600   29.7460   40.5680 C   0  0  2  0  0  0  0  0  0  0  0  0
   37.7550   30.1120   42.4750 H   0  0  0  0  0  0  0  0  0  0  0  0
   36.3250   28.1390   42.8580 H   0  0  0  0  0  0  0  0  0  0  0  0
   35.0370   28.8210   41.6000 H   0  0  0  0  0  0  0  0  0  0  0  0
   35.1540   28.4570   39.7750 H   0  0  0  0  0  0  0  0  0  0  0  0
   36.0520   30.5800   40.7120 H   0  0  0  0  0  0  0  0  0  0  0  0
   38.8220   24.8200   42.5400 C   0  0  0  0  0  0  0  0  0  0  0  0
   39.9600   25.1070   43.2820 C   0  0  0  0  0  0  0  0  0  0  0  0
   40.1830   26.4390   43.6790 C   0  0  0  0  0  0  0  0  0  0  0  0
   39.2840   27.3850   43.3240 N   0  0  0  0  0  0  0  0  0  0  0  0
   38.1830   27.0860   42.6030 C   0  0  0  0  0  0  0  0  0  0  0  0
   37.9410   25.8030   42.2040 N   0  0  0  0  0  0  0  0  0  0  0  0
   40.6100   24.2680   43.5080 H   0  0  0  0  0  0  0  0  0  0  0  0
   41.0680   26.6340   44.2510 H   0  0  0  0  0  0  0  0  0  0  0  0
   38.5510   23.5160   42.1210 O   0  0  0  0  0  0  0  0  0  0  0  0
   38.5510   22.7130   42.7140 H   0  0  0  0  0  0  0  0  0  0  0  0
   38.9920   29.1580   41.0960 O   0  0  0  0  0  0  0  0  0  0  0  0
   38.8030   28.5550   40.3340 H   0  0  0  0  0  0  0  0  0  0  0  0
  1  3  1  0  0  0  0
  1 26  1  0  0  0  0
  2  1  1  0  0  0  0
  4  1  1  0  0  0  0
  4  8  1  0  0  0  0
  5  4  1  0  0  0  0
  6  4  1  0  0  0  0
  7 12  1  0  0  0  0
  8  7  2  0  0  0  0
  8  9  1  0  0  0  0
  9 10  2  0  0  0  0
 10 11  1  0  0  0  0
 10 14  1  0  0  0  0
 11 15  1  0  0  0  0
 12 18  1  0  0  0  0
 12 11  2  0  0  0  0
 13  9  1  0  0  0  0
 16  7  1  0  0  0  0
 17 16  1  0  0  0  0
 18 23  1  0  0  0  0
 20 19  1  0  0  0  0
 21 20  1  0  0  0  0
 22 21  1  0  0  0  0
 23 24  1  0  0  0  0
 23 22  1  0  0  0  0
 24 25  1  0  0  0  0
 25 20  1  0  0  0  0
 26 31  1  0  0  0  0
 27 28  1  0  0  0  0
 27 32  1  1  0  0  0
 28 41  1  0  0  0  0
 28 33  1  1  0  0  0
 29 28  1  0  0  0  0
 30 29  1  0  0  0  0
 30 34  1  0  0  0  0
 31 36  1  1  0  0  0
 31 30  1  0  0  0  0
 31 27  1  0  0  0  0
 35 30  1  0  0  0  0
 37 38  1  0  0  0  0
 38 43  1  0  0  0  0
 38 39  2  0  0  0  0
 39 44  1  0  0  0  0
 40 39  1  0  0  0  0
 41 40  2  0  0  0  0
 42 37  2  0  0  0  0
 42 41  1  0  0  0  0
 45 37  1  0  0  0  0
 45 46  1  0  0  0  0
 47 27  1  0  0  0  0
 48 47  1  0  0  0  0
M  END
>  <minimizedAffinity>
-6.25670624

$$$$

 OpenBabel03242519503D

 48 51  0  0  1  0  0  0  0  0999 V2000
   38.3600   25.8350   42.6980 C   0  0  0  0  0  0  0  0  0  0  0  0
   38.7820   25.5450   43.6150 H   0  0  0  0  0  0  0  0  0  0  0  0
   37.3670   25.0810   42.8040 H   0  0  0  0  0  0  0  0  0  0  0  0
   38.9000   25.3010   41.3650 C   0  0  0  0  0  0  0  0  0  0  0  0
   39.4850   24.3860   41.5940 H   0  0  0  0  0  0  0  0  0  0  0  0
   39.5530   26.0090   40.8760 H   0  0  0  0  0  0  0  0  0  0  0  0
   37.2680   25.9260   39.6780 C   0  0  0  0  0  0  0  0  0  0  0  0
   37.7760   24.9140   40.5100 C   0  0  0  0  0  0  0  0  0  0  0  0
   37.1150   23.7130   40.3970 C   0  0  0  0  0  0  0  0  0  0  0  0
   36.0590   23.4690   39.5730 C   0  0  0  0  0  0  0  0  0  0  0  0
   35.5740   24.4820   38.7630 C   0  0  0  0  0  0  0  0  0  0  0  0
   36.1980   25.7450   38.8180 C   0  0  0  0  0  0  0  0  0  0  0  0
   37.5380   22.9570   41.0560 H   0  0  0  0  0  0  0  0  0  0  0  0
   35.6260   22.4710   39.5820 H   0  0  0  0  0  0  0  0  0  0  0  0
   34.7330   24.2500   38.1230 H   0  0  0  0  0  0  0  0  0  0  0  0
   37.7290   27.2220   39.5760 O   0  0  0  0  0  0  0  0  0  0  0  0
   37.9690   27.7120   40.4270 H   0  0  0  0  0  0  0  0  0  0  0  0
   35.6470   26.6420   37.9920 O   0  0  0  0  0  0  0  0  0  0  0  0
   38.1630   29.4470   34.9010 H   0  0  0  0  0  0  0  0  0  0  0  0
   37.5220   28.6210   34.9780 N   0  0  0  0  0  0  0  0  0  0  0  0
   36.1480   28.9750   35.2490 C   0  0  0  0  0  2  0  0  0  0  0  0
   35.6680   28.4940   36.5770 C   0  0  0  0  0  2  0  0  0  0  0  0
   35.6780   26.9650   36.6750 C   0  0  0  0  0  3  0  0  0  0  0  0
   37.0520   26.5560   36.1290 C   0  0  0  0  0  2  0  0  0  0  0  0
   37.9930   27.7260   36.0200 C   0  0  0  0  0  2  0  0  0  0  0  0
   37.6810   26.9790   42.5670 O   0  0  0  0  0  0  0  0  0  0  0  0
   37.4270   29.3450   42.5790 C   0  0  2  0  0  0  0  0  0  0  0  0
   38.5180   29.9320   41.8030 C   0  0  1  0  0  0  0  0  0  0  0  0
   39.3730   28.7580   41.4890 O   0  0  0  0  0  0  0  0  0  0  0  0
   39.5550   28.3270   42.7960 C   0  0  0  0  0  0  0  0  0  0  0  0
   37.9890   28.1120   43.2040 C   0  0  2  0  0  0  0  0  0  0  0  0
   36.9720   30.0390   43.3050 H   0  0  0  0  0  0  0  0  0  0  0  0
   39.2200   30.5380   42.4220 H   0  0  0  0  0  0  0  0  0  0  0  0
   39.9540   29.0900   43.4580 H   0  0  0  0  0  0  0  0  0  0  0  0
   40.0200   27.3450   42.8050 H   0  0  0  0  0  0  0  0  0  0  0  0
   38.1660   28.0820   44.2930 H   0  0  0  0  0  0  0  0  0  0  0  0
   37.3140   32.5620   39.5830 C   0  0  0  0  0  0  0  0  0  0  0  0
   37.4990   32.0360   38.3100 C   0  0  0  0  0  0  0  0  0  0  0  0
   38.0410   30.7420   38.1920 C   0  0  0  0  0  0  0  0  0  0  0  0
   38.3580   30.0620   39.3170 N   0  0  0  0  0  0  0  0  0  0  0  0
   38.1700   30.5900   40.5450 C   0  0  0  0  0  0  0  0  0  0  0  0
   37.6480   31.8420   40.6900 N   0  0  0  0  0  0  0  0  0  0  0  0
   37.2090   32.6720   37.4820 H   0  0  0  0  0  0  0  0  0  0  0  0
   38.1720   30.3600   37.2000 H   0  0  0  0  0  0  0  0  0  0  0  0
   36.7810   33.8390   39.7580 O   0  0  0  0  0  0  0  0  0  0  0  0
   35.9410   34.1720   39.3340 H   0  0  0  0  0  0  0  0  0  0  0  0
   36.3880   28.9120   41.6530 O   0  0  0  0  0  0  0  0  0  0  0  0
   36.8520   28.2190   41.1190 H   0  0  0  0  0  0  0  0  0  0  0  0
  1  3  1  0  0  0  0
  1  2  1  0  0  0  0
  4  5  1  0  0  0  0
  4  1  1  0  0  0  0
  6  4  1  0  0  0  0
  7  8  1  0  0  0  0
  8  4  1  0  0  0  0
  9  8  2  0  0  0  0
  9 13  1  0  0  0  0
 10 14  1  0  0  0  0
 10  9  1  0  0  0  0
 11 12  1  0  0  0  0
 11 10  2  0  0  0  0
 12  7  2  0  0  0  0
 15 11  1  0  0  0  0
 16  7  1  0  0  0  0
 16 17  1  0  0  0  0
 18 12  1  0  0  0  0
 19 20  1  0  0  0  0
 20 21  1  0  0  0  0
 20 25  1  0  0  0  0
 21 22  1  0  0  0  0
 22 23  1  0  0  0  0
 23 18  1  0  0  0  0
 24 23  1  0  0  0  0
 25 24  1  0  0  0  0
 26  1  1  0  0  0  0
 26 31  1  0  0  0  0
 27 31  1  0  0  0  0
 27 32  1  1  0  0  0
 28 33  1  1  0  0  0
 28 27  1  0  0  0  0
 29 28  1  0  0  0  0
 29 30  1  0  0  0  0
 30 35  1  0  0  0  0
 30 31  1  0  0  0  0
 30 34  1  0  0  0  0
 31 36  1  1  0  0  0
 37 45  1  0  0  0  0
 37 42  1  0  0  0  0
 38 37  2  0  0  0  0
 39 38  1  0  0  0  0
 39 40  2  0  0  0  0
 40 41  1  0  0  0  0
 41 42  2  0  0  0  0
 41 28  1  0  0  0  0
 43 38  1  0  0  0  0
 44 39  1  0  0  0  0
 46 45  1  0  0  0  0
 47 27  1  0  0  0  0
 48 47  1  0  0  0  0
M  END
>  <minimizedAffinity>
-5.96825314

$$$$

 OpenBabel03242519503D

 48 51  0  0  1  0  0  0  0  0999 V2000
   36.6610   31.2480   39.8570 C   0  0  0  0  0  0  0  0  0  0  0  0
   36.4390   30.8110   38.9280 H   0  0  0  0  0  0  0  0  0  0  0  0
   35.4720   31.5410   40.1150 H   0  0  0  0  0  0  0  0  0  0  0  0
   37.2600   32.6570   39.9540 C   0  0  0  0  0  0  0  0  0  0  0  0
   37.3250   32.9100   41.0330 H   0  0  0  0  0  0  0  0  0  0  0  0
   36.6410   33.3980   39.4680 H   0  0  0  0  0  0  0  0  0  0  0  0
   39.5840   33.3270   40.1720 C   0  0  0  0  0  0  0  0  0  0  0  0
   38.6200   32.6420   39.4130 C   0  0  0  0  0  0  0  0  0  0  0  0
   39.1140   32.0780   38.2610 C   0  0  0  0  0  0  0  0  0  0  0  0
   40.4080   32.1430   37.8420 C   0  0  0  0  0  0  0  0  0  0  0  0
   41.3410   32.8250   38.6060 C   0  0  0  0  0  0  0  0  0  0  0  0
   40.9150   33.4320   39.8050 C   0  0  0  0  0  0  0  0  0  0  0  0
   38.3380   31.5570   37.7020 H   0  0  0  0  0  0  0  0  0  0  0  0
   40.6660   31.6510   36.9070 H   0  0  0  0  0  0  0  0  0  0  0  0
   42.3580   32.8560   38.2410 H   0  0  0  0  0  0  0  0  0  0  0  0
   39.3810   33.9850   41.3680 O   0  0  0  0  0  0  0  0  0  0  0  0
   38.5530   34.5570   41.4640 H   0  0  0  0  0  0  0  0  0  0  0  0
   41.9000   34.0580   40.4580 O   0  0  0  0  0  0  0  0  0  0  0  0
   45.0530   30.5270   41.6180 H   0  0  0  0  0  0  0  0  0  0  0  0
   44.8200   31.5410   41.7470 N   0  0  0  0  0  0  0  0  0  0  0  0
   43.7050   31.7730   42.6350 C   0  0  0  0  0  2  0  0  0  0  0  0
   42.5260   32.3840   41.9550 C   0  0  0  0  0  2  0  0  0  0  0  0
   42.8420   33.7740   41.3920 C   0  0  0  0  0  3  0  0  0  0  0  0
   44.1800   33.5980   40.6640 C   0  0  0  0  0  2  0  0  0  0  0  0
   44.5300   32.1480   40.4590 C   0  0  0  0  0  2  0  0  0  0  0  0
   36.8840   30.5080   40.9470 O   0  0  0  0  0  0  0  0  0  0  0  0
   36.6680   28.6930   42.4710 C   0  0  2  0  0  0  0  0  0  0  0  0
   37.3190   27.5200   41.8900 C   0  0  1  0  0  0  0  0  0  0  0  0
   37.6880   27.9850   40.5270 O   0  0  0  0  0  0  0  0  0  0  0  0
   36.4170   28.3860   40.1360 C   0  0  0  0  0  0  0  0  0  0  0  0
   36.1280   29.4720   41.3190 C   0  0  2  0  0  0  0  0  0  0  0  0
   35.9110   28.4510   43.2340 H   0  0  0  0  0  0  0  0  0  0  0  0
   36.6040   26.7010   41.6410 H   0  0  0  0  0  0  0  0  0  0  0  0
   35.6640   27.6070   40.2270 H   0  0  0  0  0  0  0  0  0  0  0  0
   36.4710   28.9410   39.2040 H   0  0  0  0  0  0  0  0  0  0  0  0
   35.0380   29.5200   41.1550 H   0  0  0  0  0  0  0  0  0  0  0  0
   39.7280   25.0970   43.1630 C   0  0  0  0  0  0  0  0  0  0  0  0
   40.7510   25.8830   43.6800 C   0  0  0  0  0  0  0  0  0  0  0  0
   40.6230   27.2830   43.6080 C   0  0  0  0  0  0  0  0  0  0  0  0
   39.5130   27.8080   43.0410 N   0  0  0  0  0  0  0  0  0  0  0  0
   38.5290   27.0280   42.5440 C   0  0  0  0  0  0  0  0  0  0  0  0
   38.6260   25.6680   42.6000 N   0  0  0  0  0  0  0  0  0  0  0  0
   41.5920   25.3510   44.1100 H   0  0  0  0  0  0  0  0  0  0  0  0
   41.4240   27.8650   44.0140 H   0  0  0  0  0  0  0  0  0  0  0  0
   39.8020   23.7040   43.2090 O   0  0  0  0  0  0  0  0  0  0  0  0
   40.0050   23.1690   44.0260 H   0  0  0  0  0  0  0  0  0  0  0  0
   37.6920   29.5210   43.0950 O   0  0  0  0  0  0  0  0  0  0  0  0
   38.2590   29.7790   42.3250 H   0  0  0  0  0  0  0  0  0  0  0  0
  1  4  1  0  0  0  0
  1  3  1  0  0  0  0
  1 26  1  0  0  0  0
  2  1  1  0  0  0  0
  4  5  1  0  0  0  0
  6  4  1  0  0  0  0
  7 16  1  0  0  0  0
  8  4  1  0  0  0  0
  8  7  2  0  0  0  0
  9  8  1  0  0  0  0
 10  9  2  0  0  0  0
 10 11  1  0  0  0  0
 11 12  2  0  0  0  0
 12  7  1  0  0  0  0
 12 18  1  0  0  0  0
 13  9  1  0  0  0  0
 14 10  1  0  0  0  0
 15 11  1  0  0  0  0
 16 17  1  0  0  0  0
 18 23  1  0  0  0  0
 19 20  1  0  0  0  0
 20 21  1  0  0  0  0
 22 21  1  0  0  0  0
 23 22  1  0  0  0  0
 24 23  1  0  0  0  0
 25 24  1  0  0  0  0
 25 20  1  0  0  0  0
 26 31  1  0  0  0  0
 27 47  1  0  0  0  0
 27 32  1  1  0  0  0
 28 33  1  6  0  0  0
 28 27  1  0  0  0  0
 28 41  1  0  0  0  0
 29 28  1  0  0  0  0
 30 34  1  0  0  0  0
 30 29  1  0  0  0  0
 30 31  1  0  0  0  0
 31 36  1  1  0  0  0
 31 27  1  0  0  0  0
 35 30  1  0  0  0  0
 37 45  1  0  0  0  0
 37 38  1  0  0  0  0
 38 43  1  0  0  0  0
 39 38  2  0  0  0  0
 39 44  1  0  0  0  0
 40 39  1  0  0  0  0
 41 42  1  0  0  0  0
 41 40  2  0  0  0  0
 42 37  2  0  0  0  0
 45 46  1  0  0  0  0
 48 47  1  0  0  0  0
M  END
>  <minimizedAffinity>
-5.94330931

$$$$

 OpenBabel03242519503D

 48 51  0  0  1  0  0  0  0  0999 V2000
   37.4130   25.8230   37.2680 C   0  0  0  0  0  0  0  0  0  0  0  0
   37.4940   25.3270   36.3450 H   0  0  0  0  0  0  0  0  0  0  0  0
   38.0610   24.9590   37.9000 H   0  0  0  0  0  0  0  0  0  0  0  0
   36.1200   25.7720   38.0920 C   0  0  0  0  0  0  0  0  0  0  0  0
   35.5070   24.9410   37.6840 H   0  0  0  0  0  0  0  0  0  0  0  0
   35.5490   26.6870   38.0120 H   0  0  0  0  0  0  0  0  0  0  0  0
   36.7380   26.5500   40.3080 C   0  0  0  0  0  0  0  0  0  0  0  0
   36.4450   25.4510   39.4830 C   0  0  0  0  0  0  0  0  0  0  0  0
   36.5320   24.2350   40.1190 C   0  0  0  0  0  0  0  0  0  0  0  0
   36.8650   24.0510   41.4260 C   0  0  0  0  0  0  0  0  0  0  0  0
   37.1510   25.1490   42.2210 C   0  0  0  0  0  0  0  0  0  0  0  0
   37.0850   26.4340   41.6430 C   0  0  0  0  0  0  0  0  0  0  0  0
   36.2980   23.4110   39.4470 H   0  0  0  0  0  0  0  0  0  0  0  0
   36.8970   23.0320   41.8050 H   0  0  0  0  0  0  0  0  0  0  0  0
   37.4130   24.9630   43.2530 H   0  0  0  0  0  0  0  0  0  0  0  0
   36.7310   27.8810   39.9470 O   0  0  0  0  0  0  0  0  0  0  0  0
   37.1370   28.1370   39.0570 H   0  0  0  0  0  0  0  0  0  0  0  0
   37.3780   27.4150   42.5040 O   0  0  0  0  0  0  0  0  0  0  0  0
   41.5280   29.8950   41.8910 H   0  0  0  0  0  0  0  0  0  0  0  0
   40.8190   29.5760   42.5940 N   0  0  0  0  0  0  0  0  0  0  0  0
   40.9100   28.1710   42.9150 C   0  0  0  0  0  2  0  0  0  0  0  0
   39.7090   27.3910   42.4960 C   0  0  0  0  0  2  0  0  0  0  0  0
   38.4410   27.8520   43.2240 C   0  0  0  0  0  3  0  0  0  0  0  0
   38.4750   29.3820   43.1210 C   0  0  0  0  0  2  0  0  0  0  0  0
   39.4800   29.8620   42.1080 C   0  0  0  0  0  2  0  0  0  0  0  0
   38.1900   26.8650   37.5760 O   0  0  0  0  0  0  0  0  0  0  0  0
   39.1270   29.0360   37.3080 C   0  0  2  0  0  0  0  0  0  0  0  0
   38.0350   30.0050   37.2290 C   0  0  1  0  0  0  0  0  0  0  0  0
   36.8250   29.1430   37.2050 O   0  0  0  0  0  0  0  0  0  0  0  0
   37.1930   28.3660   36.1150 C   0  0  0  0  0  0  0  0  0  0  0  0
   38.6020   27.7800   36.6960 C   0  0  2  0  0  0  0  0  0  0  0  0
   40.0680   29.3870   36.8550 H   0  0  0  0  0  0  0  0  0  0  0  0
   37.9570   30.4970   36.2310 H   0  0  0  0  0  0  0  0  0  0  0  0
   37.4300   28.9420   35.2250 H   0  0  0  0  0  0  0  0  0  0  0  0
   36.5190   27.5200   36.0140 H   0  0  0  0  0  0  0  0  0  0  0  0
   38.9890   27.4460   35.7180 H   0  0  0  0  0  0  0  0  0  0  0  0
   36.7130   31.4330   40.3120 C   0  0  0  0  0  0  0  0  0  0  0  0
   37.4940   32.5620   40.5200 C   0  0  0  0  0  0  0  0  0  0  0  0
   38.5000   32.8640   39.5810 C   0  0  0  0  0  0  0  0  0  0  0  0
   38.6650   32.0460   38.5170 N   0  0  0  0  0  0  0  0  0  0  0  0
   37.8950   30.9520   38.3320 C   0  0  0  0  0  0  0  0  0  0  0  0
   36.9140   30.6350   39.2260 N   0  0  0  0  0  0  0  0  0  0  0  0
   37.2710   33.1420   41.4080 H   0  0  0  0  0  0  0  0  0  0  0  0
   39.0870   33.7400   39.7650 H   0  0  0  0  0  0  0  0  0  0  0  0
   35.7020   31.0870   41.2100 O   0  0  0  0  0  0  0  0  0  0  0  0
   34.9890   31.7060   41.5350 H   0  0  0  0  0  0  0  0  0  0  0  0
   39.3790   28.7450   38.7130 O   0  0  0  0  0  0  0  0  0  0  0  0
   38.5250   28.3370   39.0050 H   0  0  0  0  0  0  0  0  0  0  0  0
  1 26  1  0  0  0  0
  1  3  1  0  0  0  0
  1  4  1  0  0  0  0
  2  1  1  0  0  0  0
  4  8  1  0  0  0  0
  5  4  1  0  0  0  0
  6  4  1  0  0  0  0
  7 12  1  0  0  0  0
  8  9  1  0  0  0  0
  8  7  2  0  0  0  0
  9 10  2  0  0  0  0
 10 14  1  0  0  0  0
 10 11  1  0  0  0  0
 11 15  1  0  0  0  0
 12 11  2  0  0  0  0
 12 18  1  0  0  0  0
 13  9  1  0  0  0  0
 16  7  1  0  0  0  0
 17 16  1  0  0  0  0
 18 23  1  0  0  0  0
 19 20  1  0  0  0  0
 20 21  1  0  0  0  0
 22 21  1  0  0  0  0
 22 23  1  0  0  0  0
 24 23  1  0  0  0  0
 25 20  1  0  0  0  0
 25 24  1  0  0  0  0
 27 32  1  6  0  0  0
 27 47  1  0  0  0  0
 28 33  1  6  0  0  0
 28 27  1  0  0  0  0
 28 41  1  0  0  0  0
 29 28  1  0  0  0  0
 30 31  1  0  0  0  0
 30 29  1  0  0  0  0
 31 36  1  6  0  0  0
 31 27  1  0  0  0  0
 31 26  1  0  0  0  0
 34 30  1  0  0  0  0
 35 30  1  0  0  0  0
 37 38  1  0  0  0  0
 37 45  1  0  0  0  0
 38 43  1  0  0  0  0
 39 44  1  0  0  0  0
 39 38  2  0  0  0  0
 40 39  1  0  0  0  0
 41 40  2  0  0  0  0
 41 42  1  0  0  0  0
 42 37  2  0  0  0  0
 45 46  1  0  0  0  0
 47 48  1  0  0  0  0
M  END
>  <minimizedAffinity>
-5.90291929

$$$$

 OpenBabel03242519503D

 48 51  0  0  1  0  0  0  0  0999 V2000
   38.2330   31.9580   38.0890 C   0  0  0  0  0  0  0  0  0  0  0  0
   37.7850   32.8760   38.3340 H   0  0  0  0  0  0  0  0  0  0  0  0
   38.8710   32.4170   37.1150 H   0  0  0  0  0  0  0  0  0  0  0  0
   37.4570   30.8630   37.3460 C   0  0  0  0  0  0  0  0  0  0  0  0
   38.2010   30.2600   36.7850 H   0  0  0  0  0  0  0  0  0  0  0  0
   36.7480   31.2730   36.6400 H   0  0  0  0  0  0  0  0  0  0  0  0
   37.5510   28.8570   38.7110 C   0  0  0  0  0  0  0  0  0  0  0  0
   36.8090   29.9840   38.3210 C   0  0  0  0  0  0  0  0  0  0  0  0
   35.5700   30.0690   38.9120 C   0  0  0  0  0  0  0  0  0  0  0  0
   35.0570   29.1750   39.8010 C   0  0  0  0  0  0  0  0  0  0  0  0
   35.8070   28.0690   40.1700 C   0  0  0  0  0  0  0  0  0  0  0  0
   37.0900   27.9090   39.6080 C   0  0  0  0  0  0  0  0  0  0  0  0
   35.0270   30.9550   38.5850 H   0  0  0  0  0  0  0  0  0  0  0  0
   34.0610   29.3610   40.1940 H   0  0  0  0  0  0  0  0  0  0  0  0
   35.3660   27.3810   40.8770 H   0  0  0  0  0  0  0  0  0  0  0  0
   38.8180   28.5130   38.2860 O   0  0  0  0  0  0  0  0  0  0  0  0
   39.0370   28.6140   37.3040 H   0  0  0  0  0  0  0  0  0  0  0  0
   37.7210   26.8100   40.0390 O   0  0  0  0  0  0  0  0  0  0  0  0
   38.6670   22.5870   42.2810 H   0  0  0  0  0  0  0  0  0  0  0  0
   38.1820   23.0320   41.4640 N   0  0  0  0  0  0  0  0  0  0  0  0
   39.0800   23.4590   40.4180 C   0  0  0  0  0  2  0  0  0  0  0  0
   39.0980   24.9390   40.2240 C   0  0  0  0  0  2  0  0  0  0  0  0
   37.7340   25.4780   39.7800 C   0  0  0  0  0  3  0  0  0  0  0  0
   36.7300   24.8110   40.7290 C   0  0  0  0  0  2  0  0  0  0  0  0
   37.4050   24.1740   41.9140 C   0  0  0  0  0  2  0  0  0  0  0  0
   39.2850   31.4870   38.7640 O   0  0  0  0  0  0  0  0  0  0  0  0
   40.3700   31.1220   40.8510 C   0  0  2  0  0  0  0  0  0  0  0  0
   39.3470   30.9800   41.8860 C   0  0  1  0  0  0  0  0  0  0  0  0
   38.0900   31.2830   41.1550 O   0  0  0  0  0  0  0  0  0  0  0  0
   38.4720   32.5270   40.6710 C   0  0  0  0  0  0  0  0  0  0  0  0
   39.8040   32.0710   39.8470 C   0  0  2  0  0  0  0  0  0  0  0  0
   41.3570   31.4250   41.2370 H   0  0  0  0  0  0  0  0  0  0  0  0
   39.3590   31.8100   42.6300 H   0  0  0  0  0  0  0  0  0  0  0  0
   38.7960   33.2180   41.4450 H   0  0  0  0  0  0  0  0  0  0  0  0
   37.7530   32.8790   39.9370 H   0  0  0  0  0  0  0  0  0  0  0  0
   40.2260   33.0870   39.7570 H   0  0  0  0  0  0  0  0  0  0  0  0
   37.6590   28.1100   43.3720 C   0  0  0  0  0  0  0  0  0  0  0  0
   38.6900   27.2190   43.6420 C   0  0  0  0  0  0  0  0  0  0  0  0
   40.0070   27.6000   43.3230 C   0  0  0  0  0  0  0  0  0  0  0  0
   40.2180   28.8150   42.7680 N   0  0  0  0  0  0  0  0  0  0  0  0
   39.2030   29.6680   42.5120 C   0  0  0  0  0  0  0  0  0  0  0  0
   37.9160   29.3250   42.8110 N   0  0  0  0  0  0  0  0  0  0  0  0
   38.4010   26.2740   44.0880 H   0  0  0  0  0  0  0  0  0  0  0  0
   40.7830   26.8950   43.5420 H   0  0  0  0  0  0  0  0  0  0  0  0
   36.3350   27.7840   43.6690 O   0  0  0  0  0  0  0  0  0  0  0  0
   36.0140   27.4450   44.5510 H   0  0  0  0  0  0  0  0  0  0  0  0
   40.5210   29.8390   40.1770 O   0  0  0  0  0  0  0  0  0  0  0  0
   39.6280   29.7020   39.7720 H   0  0  0  0  0  0  0  0  0  0  0  0
  1  2  1  0  0  0  0
  1 26  1  0  0  0  0
  3  1  1  0  0  0  0
  4  1  1  0  0  0  0
  4  8  1  0  0  0  0
  5  4  1  0  0  0  0
  6  4  1  0  0  0  0
  7 12  1  0  0  0  0
  8  7  2  0  0  0  0
  8  9  1  0  0  0  0
  9 10  2  0  0  0  0
 10 11  1  0  0  0  0
 10 14  1  0  0  0  0
 11 15  1  0  0  0  0
 12 18  1  0  0  0  0
 12 11  2  0  0  0  0
 13  9  1  0  0  0  0
 16  7  1  0  0  0  0
 17 16  1  0  0  0  0
 20 25  1  0  0  0  0
 20 19  1  0  0  0  0
 21 20  1  0  0  0  0
 22 21  1  0  0  0  0
 23 18  1  0  0  0  0
 23 22  1  0  0  0  0
 23 24  1  0  0  0  0
 24 25  1  0  0  0  0
 26 31  1  0  0  0  0
 27 32  1  1  0  0  0
 27 28  1  0  0  0  0
 28 41  1  0  0  0  0
 28 33  1  1  0  0  0
 29 28  1  0  0  0  0
 30 29  1  0  0  0  0
 30 34  1  0  0  0  0
 31 36  1  6  0  0  0
 31 30  1  0  0  0  0
 31 27  1  0  0  0  0
 35 30  1  0  0  0  0
 37 38  1  0  0  0  0
 37 45  1  0  0  0  0
 38 43  1  0  0  0  0
 39 44  1  0  0  0  0
 39 38  2  0  0  0  0
 40 39  1  0  0  0  0
 41 40  2  0  0  0  0
 41 42  1  0  0  0  0
 42 37  2  0  0  0  0
 45 46  1  0  0  0  0
 47 27  1  0  0  0  0
 48 47  1  0  0  0  0
M  END
>  <minimizedAffinity>
-5.90164375

$$$$

 OpenBabel03242519503D

 48 51  0  0  1  0  0  0  0  0999 V2000
   37.9790   31.1090   37.5600 C   0  0  0  0  0  0  0  0  0  0  0  0
   37.3210   31.9280   37.5700 H   0  0  0  0  0  0  0  0  0  0  0  0
   38.2940   31.2500   36.3580 H   0  0  0  0  0  0  0  0  0  0  0  0
   37.4590   29.6680   37.4830 C   0  0  0  0  0  0  0  0  0  0  0  0
   38.3370   29.0150   37.2980 H   0  0  0  0  0  0  0  0  0  0  0  0
   36.7560   29.5310   36.6740 H   0  0  0  0  0  0  0  0  0  0  0  0
   37.7570   28.6450   39.6650 C   0  0  0  0  0  0  0  0  0  0  0  0
   36.8830   29.2920   38.7760 C   0  0  0  0  0  0  0  0  0  0  0  0
   35.6080   29.4520   39.2630 C   0  0  0  0  0  0  0  0  0  0  0  0
   35.1740   29.0430   40.4860 C   0  0  0  0  0  0  0  0  0  0  0  0
   36.0530   28.4050   41.3470 C   0  0  0  0  0  0  0  0  0  0  0  0
   37.3820   28.2020   40.9220 C   0  0  0  0  0  0  0  0  0  0  0  0
   34.9620   29.9570   38.5460 H   0  0  0  0  0  0  0  0  0  0  0  0
   34.1350   29.2320   40.7480 H   0  0  0  0  0  0  0  0  0  0  0  0
   35.6710   28.0930   42.3090 H   0  0  0  0  0  0  0  0  0  0  0  0
   39.0880   28.3510   39.4510 O   0  0  0  0  0  0  0  0  0  0  0  0
   39.3580   27.9880   38.5460 H   0  0  0  0  0  0  0  0  0  0  0  0
   38.1380   27.5810   41.8340 O   0  0  0  0  0  0  0  0  0  0  0  0
   40.5740   23.4440   42.6750 H   0  0  0  0  0  0  0  0  0  0  0  0
   39.8810   24.1240   43.0710 N   0  0  0  0  0  0  0  0  0  0  0  0
   38.5690   24.0290   42.4770 C   0  0  0  0  0  2  0  0  0  0  0  0
   38.1730   25.2530   41.7220 C   0  0  0  0  0  2  0  0  0  0  0  0
   38.0760   26.4840   42.6300 C   0  0  0  0  0  3  0  0  0  0  0  0
   39.3600   26.4450   43.4670 C   0  0  0  0  0  2  0  0  0  0  0  0
   40.3740   25.4810   42.9100 C   0  0  0  0  0  2  0  0  0  0  0  0
   39.2140   31.1940   38.0630 O   0  0  0  0  0  0  0  0  0  0  0  0
   40.9690   32.7970   37.9350 C   0  0  2  0  0  0  0  0  0  0  0  0
   42.0810   32.3320   38.7630 C   0  0  1  0  0  0  0  0  0  0  0  0
   41.5230   31.1250   39.4240 O   0  0  0  0  0  0  0  0  0  0  0  0
   40.4060   31.7370   39.9770 C   0  0  0  0  0  0  0  0  0  0  0  0
   39.7300   32.3010   38.6030 C   0  0  2  0  0  0  0  0  0  0  0  0
   40.9690   33.8850   37.7570 H   0  0  0  0  0  0  0  0  0  0  0  0
   42.2710   32.9830   39.6480 H   0  0  0  0  0  0  0  0  0  0  0  0
   40.6390   32.5990   40.5960 H   0  0  0  0  0  0  0  0  0  0  0  0
   39.7280   30.9870   40.3770 H   0  0  0  0  0  0  0  0  0  0  0  0
   39.0550   33.0170   39.1040 H   0  0  0  0  0  0  0  0  0  0  0  0
   45.1990   32.7510   36.9190 C   0  0  0  0  0  0  0  0  0  0  0  0
   45.6920   31.4580   36.7970 C   0  0  0  0  0  0  0  0  0  0  0  0
   44.9430   30.4000   37.3470 C   0  0  0  0  0  0  0  0  0  0  0  0
   43.7760   30.6830   37.9700 N   0  0  0  0  0  0  0  0  0  0  0  0
   43.3130   31.9460   38.0780 C   0  0  0  0  0  0  0  0  0  0  0  0
   44.0180   32.9910   37.5550 N   0  0  0  0  0  0  0  0  0  0  0  0
   46.6380   31.3530   36.2780 H   0  0  0  0  0  0  0  0  0  0  0  0
   45.3440   29.4140   37.2390 H   0  0  0  0  0  0  0  0  0  0  0  0
   45.9000   33.8360   36.3910 O   0  0  0  0  0  0  0  0  0  0  0  0
   46.2460   33.8940   35.4570 H   0  0  0  0  0  0  0  0  0  0  0  0
   41.0480   32.1260   36.6440 O   0  0  0  0  0  0  0  0  0  0  0  0
   40.9290   31.1730   36.8900 H   0  0  0  0  0  0  0  0  0  0  0  0
  1  2  1  0  0  0  0
  1 26  1  0  0  0  0
  3  1  1  0  0  0  0
  4  1  1  0  0  0  0
  4  8  1  0  0  0  0
  5  4  1  0  0  0  0
  6  4  1  0  0  0  0
  7 12  1  0  0  0  0
  8  9  1  0  0  0  0
  8  7  2  0  0  0  0
  9 10  2  0  0  0  0
 10 14  1  0  0  0  0
 10 11  1  0  0  0  0
 11 15  1  0  0  0  0
 12 11  2  0  0  0  0
 12 18  1  0  0  0  0
 13  9  1  0  0  0  0
 16  7  1  0  0  0  0
 17 16  1  0  0  0  0
 18 23  1  0  0  0  0
 19 20  1  0  0  0  0
 21 20  1  0  0  0  0
 22 21  1  0  0  0  0
 22 23  1  0  0  0  0
 23 24  1  0  0  0  0
 25 20  1  0  0  0  0
 25 24  1  0  0  0  0
 26 31  1  0  0  0  0
 27 32  1  6  0  0  0
 27 31  1  0  0  0  0
 27 28  1  0  0  0  0
 28 29  1  0  0  0  0
 28 33  1  1  0  0  0
 29 30  1  0  0  0  0
 30 35  1  0  0  0  0
 30 34  1  0  0  0  0
 31 36  1  1  0  0  0
 31 30  1  0  0  0  0
 37 42  1  0  0  0  0
 38 37  2  0  0  0  0
 38 39  1  0  0  0  0
 39 40  2  0  0  0  0
 40 41  1  0  0  0  0
 41 28  1  0  0  0  0
 42 41  2  0  0  0  0
 43 38  1  0  0  0  0
 44 39  1  0  0  0  0
 45 37  1  0  0  0  0
 46 45  1  0  0  0  0
 47 48  1  0  0  0  0
 47 27  1  0  0  0  0
M  END
>  <minimizedAffinity>
-5.87330484

$$$$

 OpenBabel03242519503D

 48 51  0  0  1  0  0  0  0  0999 V2000
   36.2150   28.4950   39.0910 C   0  0  0  0  0  0  0  0  0  0  0  0
   35.2380   28.8410   39.2590 H   0  0  0  0  0  0  0  0  0  0  0  0
   35.9720   28.0700   37.9390 H   0  0  0  0  0  0  0  0  0  0  0  0
   36.7160   27.1820   39.7060 C   0  0  0  0  0  0  0  0  0  0  0  0
   37.6200   26.8800   39.1390 H   0  0  0  0  0  0  0  0  0  0  0  0
   35.9850   26.3900   39.6290 H   0  0  0  0  0  0  0  0  0  0  0  0
   38.4710   27.7320   41.2920 C   0  0  0  0  0  0  0  0  0  0  0  0
   37.1150   27.4210   41.0950 C   0  0  0  0  0  0  0  0  0  0  0  0
   36.3780   27.3730   42.2550 C   0  0  0  0  0  0  0  0  0  0  0  0
   36.8640   27.5970   43.5070 C   0  0  0  0  0  0  0  0  0  0  0  0
   38.2040   27.9010   43.6780 C   0  0  0  0  0  0  0  0  0  0  0  0
   39.0290   27.9700   42.5360 C   0  0  0  0  0  0  0  0  0  0  0  0
   35.3350   27.1300   42.0600 H   0  0  0  0  0  0  0  0  0  0  0  0
   36.1700   27.5270   44.3420 H   0  0  0  0  0  0  0  0  0  0  0  0
   38.5530   28.0710   44.6870 H   0  0  0  0  0  0  0  0  0  0  0  0
   39.4430   27.8510   40.3190 O   0  0  0  0  0  0  0  0  0  0  0  0
   39.4620   27.1650   39.5770 H   0  0  0  0  0  0  0  0  0  0  0  0
   40.3010   28.2730   42.8220 O   0  0  0  0  0  0  0  0  0  0  0  0
   43.7320   25.0230   41.6300 H   0  0  0  0  0  0  0  0  0  0  0  0
   43.4850   25.8050   42.2840 N   0  0  0  0  0  0  0  0  0  0  0  0
   42.5220   25.4340   43.2950 C   0  0  0  0  0  2  0  0  0  0  0  0
   41.2260   26.1610   43.1690 C   0  0  0  0  0  2  0  0  0  0  0  0
   41.3930   27.6730   43.3590 C   0  0  0  0  0  3  0  0  0  0  0  0
   42.6000   28.0380   42.4850 C   0  0  0  0  0  2  0  0  0  0  0  0
   42.9660   26.9330   41.5300 C   0  0  0  0  0  2  0  0  0  0  0  0
   37.2050   29.3250   38.7510 O   0  0  0  0  0  0  0  0  0  0  0  0
   38.1410   31.3160   37.8440 C   0  0  2  0  0  0  0  0  0  0  0  0
   39.0770   31.8740   38.8200 C   0  0  1  0  0  0  0  0  0  0  0  0
   38.8880   30.9950   40.0030 O   0  0  0  0  0  0  0  0  0  0  0  0
   37.5160   31.1680   40.1240 C   0  0  0  0  0  0  0  0  0  0  0  0
   37.0710   30.6490   38.6420 C   0  0  2  0  0  0  0  0  0  0  0  0
   37.7570   32.0550   37.1220 H   0  0  0  0  0  0  0  0  0  0  0  0
   38.7440   32.8540   39.2360 H   0  0  0  0  0  0  0  0  0  0  0  0
   37.2100   32.2080   40.2030 H   0  0  0  0  0  0  0  0  0  0  0  0
   37.1120   30.4580   40.8410 H   0  0  0  0  0  0  0  0  0  0  0  0
   36.0600   31.0890   38.6750 H   0  0  0  0  0  0  0  0  0  0  0  0
   42.2020   33.0370   37.3460 C   0  0  0  0  0  0  0  0  0  0  0  0
   43.1340   32.0880   37.7450 C   0  0  0  0  0  0  0  0  0  0  0  0
   42.6950   31.0070   38.5330 C   0  0  0  0  0  0  0  0  0  0  0  0
   41.3870   30.9340   38.8690 N   0  0  0  0  0  0  0  0  0  0  0  0
   40.4960   31.8670   38.4710 C   0  0  0  0  0  0  0  0  0  0  0  0
   40.8930   32.9250   37.7070 N   0  0  0  0  0  0  0  0  0  0  0  0
   44.1550   32.2510   37.4160 H   0  0  0  0  0  0  0  0  0  0  0  0
   43.4330   30.2900   38.8270 H   0  0  0  0  0  0  0  0  0  0  0  0
   42.5830   34.1290   36.5630 O   0  0  0  0  0  0  0  0  0  0  0  0
   43.1100   34.0700   35.7180 H   0  0  0  0  0  0  0  0  0  0  0  0
   38.8270   30.2680   37.1010 O   0  0  0  0  0  0  0  0  0  0  0  0
   39.0360   29.6050   37.8060 H   0  0  0  0  0  0  0  0  0  0  0  0
  1  2  1  0  0  0  0
  1  4  1  0  0  0  0
  3  1  1  0  0  0  0
  4  8  1  0  0  0  0
  5  4  1  0  0  0  0
  6  4  1  0  0  0  0
  7 12  1  0  0  0  0
  8  7  2  0  0  0  0
  8  9  1  0  0  0  0
  9 10  2  0  0  0  0
 10 11  1  0  0  0  0
 10 14  1  0  0  0  0
 11 15  1  0  0  0  0
 12 18  1  0  0  0  0
 12 11  2  0  0  0  0
 13  9  1  0  0  0  0
 16  7  1  0  0  0  0
 17 16  1  0  0  0  0
 18 23  1  0  0  0  0
 19 20  1  0  0  0  0
 20 21  1  0  0  0  0
 22 21  1  0  0  0  0
 22 23  1  0  0  0  0
 24 23  1  0  0  0  0
 25 20  1  0  0  0  0
 25 24  1  0  0  0  0
 26  1  1  0  0  0  0
 27 32  1  6  0  0  0
 27 31  1  0  0  0  0
 27 28  1  0  0  0  0
 28 33  1  1  0  0  0
 28 29  1  0  0  0  0
 29 30  1  0  0  0  0
 30 34  1  0  0  0  0
 30 35  1  0  0  0  0
 31 36  1  6  0  0  0
 31 26  1  0  0  0  0
 31 30  1  0  0  0  0
 37 42  2  0  0  0  0
 37 38  1  0  0  0  0
 38 39  2  0  0  0  0
 39 44  1  0  0  0  0
 39 40  1  0  0  0  0
 41 28  1  0  0  0  0
 41 40  2  0  0  0  0
 42 41  1  0  0  0  0
 43 38  1  0  0  0  0
 45 37  1  0  0  0  0
 46 45  1  0  0  0  0
 47 48  1  0  0  0  0
 47 27  1  0  0  0  0
M  END
>  <minimizedAffinity>
-5.8546772

$$$$

 OpenBabel03242519503D

 48 51  0  0  1  0  0  0  0  0999 V2000
   37.0780   26.1560   42.4650 C   0  0  0  0  0  0  0  0  0  0  0  0
   36.8580   25.2120   42.8680 H   0  0  0  0  0  0  0  0  0  0  0  0
   38.3130   25.9600   42.4260 H   0  0  0  0  0  0  0  0  0  0  0  0
   37.0840   27.4170   43.3390 C   0  0  0  0  0  0  0  0  0  0  0  0
   37.1210   27.0800   44.3960 H   0  0  0  0  0  0  0  0  0  0  0  0
   36.1920   28.0120   43.2030 H   0  0  0  0  0  0  0  0  0  0  0  0
   38.1020   29.4680   42.5290 C   0  0  0  0  0  0  0  0  0  0  0  0
   38.3000   28.1860   43.0690 C   0  0  0  0  0  0  0  0  0  0  0  0
   39.6230   27.8500   43.2400 C   0  0  0  0  0  0  0  0  0  0  0  0
   40.6840   28.6460   42.9340 C   0  0  0  0  0  0  0  0  0  0  0  0
   40.4650   29.9060   42.4020 C   0  0  0  0  0  0  0  0  0  0  0  0
   39.1350   30.3270   42.1950 C   0  0  0  0  0  0  0  0  0  0  0  0
   39.7340   26.8520   43.6600 H   0  0  0  0  0  0  0  0  0  0  0  0
   41.6830   28.2570   43.1190 H   0  0  0  0  0  0  0  0  0  0  0  0
   41.3320   30.5080   42.1700 H   0  0  0  0  0  0  0  0  0  0  0  0
   36.8920   30.0700   42.2520 O   0  0  0  0  0  0  0  0  0  0  0  0
   36.1700   29.5140   41.8140 H   0  0  0  0  0  0  0  0  0  0  0  0
   39.0450   31.5590   41.6800 O   0  0  0  0  0  0  0  0  0  0  0  0
   37.1170   31.6860   37.2060 H   0  0  0  0  0  0  0  0  0  0  0  0
   37.7180   32.2020   37.8930 N   0  0  0  0  0  0  0  0  0  0  0  0
   39.0390   31.6390   38.0460 C   0  0  0  0  0  2  0  0  0  0  0  0
   39.2920   31.0910   39.4100 C   0  0  0  0  0  2  0  0  0  0  0  0
   39.2300   32.1790   40.4880 C   0  0  0  0  0  3  0  0  0  0  0  0
   37.9510   32.9630   40.1690 C   0  0  0  0  0  2  0  0  0  0  0  0
   37.0670   32.2350   39.1910 C   0  0  0  0  0  2  0  0  0  0  0  0
   36.9160   26.4210   41.1660 O   0  0  0  0  0  0  0  0  0  0  0  0
   37.8590   27.2680   39.1510 C   0  0  2  0  0  0  0  0  0  0  0  0
   37.1740   26.6420   38.0200 C   0  0  1  0  0  0  0  0  0  0  0  0
   36.2940   25.6410   38.6770 O   0  0  0  0  0  0  0  0  0  0  0  0
   37.2890   24.9810   39.3860 C   0  0  0  0  0  0  0  0  0  0  0  0
   37.8630   26.2470   40.2400 C   0  0  2  0  0  0  0  0  0  0  0  0
   38.8600   27.6560   38.9060 H   0  0  0  0  0  0  0  0  0  0  0  0
   37.8370   25.9730   37.4230 H   0  0  0  0  0  0  0  0  0  0  0  0
   38.1040   24.6190   38.7650 H   0  0  0  0  0  0  0  0  0  0  0  0
   36.8450   24.2940   40.1010 H   0  0  0  0  0  0  0  0  0  0  0  0
   38.8100   25.7600   40.5280 H   0  0  0  0  0  0  0  0  0  0  0  0
   36.3050   29.4570   35.8720 C   0  0  0  0  0  0  0  0  0  0  0  0
   34.9790   29.2210   35.5320 C   0  0  0  0  0  0  0  0  0  0  0  0
   34.3470   28.0760   36.0520 C   0  0  0  0  0  0  0  0  0  0  0  0
   35.0520   27.2530   36.8620 N   0  0  0  0  0  0  0  0  0  0  0  0
   36.3400   27.4990   37.1820 C   0  0  0  0  0  0  0  0  0  0  0  0
   36.9780   28.6010   36.6910 N   0  0  0  0  0  0  0  0  0  0  0  0
   34.5170   29.9490   34.8750 H   0  0  0  0  0  0  0  0  0  0  0  0
   33.3250   27.9180   35.7750 H   0  0  0  0  0  0  0  0  0  0  0  0
   36.9810   30.5770   35.3850 O   0  0  0  0  0  0  0  0  0  0  0  0
   36.6430   31.5150   35.4350 H   0  0  0  0  0  0  0  0  0  0  0  0
   37.0430   28.3800   39.6200 O   0  0  0  0  0  0  0  0  0  0  0  0
   36.2130   27.9280   39.9180 H   0  0  0  0  0  0  0  0  0  0  0  0
  1  2  1  0  0  0  0
  1  4  1  0  0  0  0
  3  1  1  0  0  0  0
  4  5  1  0  0  0  0
  6  4  1  0  0  0  0
  7  8  1  0  0  0  0
  8  9  2  0  0  0  0
  8  4  1  0  0  0  0
  9 13  1  0  0  0  0
 10 14  1  0  0  0  0
 10  9  1  0  0  0  0
 11 10  2  0  0  0  0
 12 11  1  0  0  0  0
 12  7  2  0  0  0  0
 15 11  1  0  0  0  0
 16  7  1  0  0  0  0
 17 16  1  0  0  0  0
 18 12  1  0  0  0  0
 19 20  1  0  0  0  0
 20 21  1  0  0  0  0
 20 25  1  0  0  0  0
 21 22  1  0  0  0  0
 22 23  1  0  0  0  0
 23 18  1  0  0  0  0
 24 23  1  0  0  0  0
 25 24  1  0  0  0  0
 26  1  1  0  0  0  0
 27 32  1  6  0  0  0
 27 47  1  0  0  0  0
 27 31  1  0  0  0  0
 28 33  1  6  0  0  0
 28 29  1  0  0  0  0
 28 27  1  0  0  0  0
 29 30  1  0  0  0  0
 30 35  1  0  0  0  0
 30 31  1  0  0  0  0
 31 36  1  1  0  0  0
 31 26  1  0  0  0  0
 34 30  1  0  0  0  0
 37 42  1  0  0  0  0
 38 37  2  0  0  0  0
 38 39  1  0  0  0  0
 39 40  2  0  0  0  0
 40 41  1  0  0  0  0
 41 28  1  0  0  0  0
 42 41  2  0  0  0  0
 43 38  1  0  0  0  0
 44 39  1  0  0  0  0
 45 46  1  0  0  0  0
 45 37  1  0  0  0  0
 47 48  1  0  0  0  0
M  END
>  <minimizedAffinity>
-5.8472352

$$$$

 OpenBabel03242519503D

 48 51  0  0  1  0  0  0  0  0999 V2000
   37.4020   24.5330   40.6760 C   0  0  0  0  0  0  0  0  0  0  0  0
   36.8440   23.7450   40.2620 H   0  0  0  0  0  0  0  0  0  0  0  0
   38.4300   23.8430   40.8540 H   0  0  0  0  0  0  0  0  0  0  0  0
   37.1900   24.9870   42.1260 C   0  0  0  0  0  0  0  0  0  0  0  0
   36.9890   24.0760   42.7260 H   0  0  0  0  0  0  0  0  0  0  0  0
   36.3450   25.6540   42.2250 H   0  0  0  0  0  0  0  0  0  0  0  0
   38.5580   26.9740   42.4080 C   0  0  0  0  0  0  0  0  0  0  0  0
   38.4250   25.5930   42.6280 C   0  0  0  0  0  0  0  0  0  0  0  0
   39.4990   25.0230   43.2700 C   0  0  0  0  0  0  0  0  0  0  0  0
   40.6160   25.6860   43.6800 C   0  0  0  0  0  0  0  0  0  0  0  0
   40.7260   27.0480   43.4510 C   0  0  0  0  0  0  0  0  0  0  0  0
   39.6650   27.7090   42.7970 C   0  0  0  0  0  0  0  0  0  0  0  0
   39.3580   23.9540   43.4220 H   0  0  0  0  0  0  0  0  0  0  0  0
   41.3940   25.1130   44.1780 H   0  0  0  0  0  0  0  0  0  0  0  0
   41.6280   27.5390   43.7900 H   0  0  0  0  0  0  0  0  0  0  0  0
   37.6450   27.8060   41.7930 O   0  0  0  0  0  0  0  0  0  0  0  0
   37.1860   27.4750   40.9550 H   0  0  0  0  0  0  0  0  0  0  0  0
   39.8810   29.0190   42.6340 O   0  0  0  0  0  0  0  0  0  0  0  0
   41.8630   33.4640   42.3810 H   0  0  0  0  0  0  0  0  0  0  0  0
   41.7970   32.5300   41.9100 N   0  0  0  0  0  0  0  0  0  0  0  0
   40.5420   32.3080   41.2320 C   0  0  0  0  0  2  0  0  0  0  0  0
   39.7370   31.2010   41.8280 C   0  0  0  0  0  2  0  0  0  0  0  0
   40.4530   29.8500   41.7270 C   0  0  0  0  0  3  0  0  0  0  0  0
   41.8840   30.1370   42.1970 C   0  0  0  0  0  2  0  0  0  0  0  0
   41.9990   31.4720   42.8850 C   0  0  0  0  0  2  0  0  0  0  0  0
   37.9670   25.4710   39.9110 O   0  0  0  0  0  0  0  0  0  0  0  0
   37.9870   27.0510   38.1310 C   0  0  2  0  0  0  0  0  0  0  0  0
   36.7360   27.8070   38.1680 C   0  0  1  0  0  0  0  0  0  0  0  0
   35.9620   27.1160   39.2320 O   0  0  0  0  0  0  0  0  0  0  0  0
   36.0300   25.8400   38.6900 C   0  0  0  0  0  0  0  0  0  0  0  0
   37.6540   25.6850   38.6300 C   0  0  2  0  0  0  0  0  0  0  0  0
   38.4800   27.0530   37.1450 H   0  0  0  0  0  0  0  0  0  0  0  0
   36.0840   27.6180   37.2840 H   0  0  0  0  0  0  0  0  0  0  0  0
   35.6660   25.7780   37.6680 H   0  0  0  0  0  0  0  0  0  0  0  0
   35.6700   25.1090   39.4080 H   0  0  0  0  0  0  0  0  0  0  0  0
   37.6530   24.8330   37.9300 H   0  0  0  0  0  0  0  0  0  0  0  0
   36.3210   30.8300   40.1630 C   0  0  0  0  0  0  0  0  0  0  0  0
   36.9080   31.8240   39.3900 C   0  0  0  0  0  0  0  0  0  0  0  0
   37.4560   31.4670   38.1440 C   0  0  0  0  0  0  0  0  0  0  0  0
   37.3900   30.1760   37.7470 N   0  0  0  0  0  0  0  0  0  0  0  0
   36.8160   29.2240   38.5120 C   0  0  0  0  0  0  0  0  0  0  0  0
   36.2760   29.5400   39.7250 N   0  0  0  0  0  0  0  0  0  0  0  0
   36.9020   32.8230   39.8110 H   0  0  0  0  0  0  0  0  0  0  0  0
   37.9020   32.2530   37.5680 H   0  0  0  0  0  0  0  0  0  0  0  0
   35.7610   31.1270   41.4070 O   0  0  0  0  0  0  0  0  0  0  0  0
   35.1040   31.8590   41.5780 H   0  0  0  0  0  0  0  0  0  0  0  0
   38.9050   27.6400   39.0980 O   0  0  0  0  0  0  0  0  0  0  0  0
   38.4330   27.4970   39.9570 H   0  0  0  0  0  0  0  0  0  0  0  0
  1  3  1  0  0  0  0
  1  4  1  0  0  0  0
  2  1  1  0  0  0  0
  4  6  1  0  0  0  0
  4  8  1  0  0  0  0
  4  5  1  0  0  0  0
  7  8  2  0  0  0  0
  7 12  1  0  0  0  0
  8  9  1  0  0  0  0
  9 13  1  0  0  0  0
  9 10  2  0  0  0  0
 10 14  1  0  0  0  0
 11 10  1  0  0  0  0
 11 15  1  0  0  0  0
 12 11  2  0  0  0  0
 16  7  1  0  0  0  0
 17 16  1  0  0  0  0
 18 12  1  0  0  0  0
 20 19  1  0  0  0  0
 20 25  1  0  0  0  0
 21 22  1  0  0  0  0
 21 20  1  0  0  0  0
 23 22  1  0  0  0  0
 23 24  1  0  0  0  0
 23 18  1  0  0  0  0
 24 25  1  0  0  0  0
 26  1  1  0  0  0  0
 27 32  1  6  0  0  0
 27 28  1  0  0  0  0
 27 31  1  0  0  0  0
 27 47  1  0  0  0  0
 28 33  1  6  0  0  0
 28 41  1  0  0  0  0
 28 29  1  0  0  0  0
 30 29  1  0  0  0  0
 30 35  1  0  0  0  0
 31 36  1  6  0  0  0
 31 30  1  0  0  0  0
 31 26  1  0  0  0  0
 34 30  1  0  0  0  0
 37 45  1  0  0  0  0
 38 43  1  0  0  0  0
 38 37  2  0  0  0  0
 39 38  1  0  0  0  0
 40 39  2  0  0  0  0
 40 41  1  0  0  0  0
 41 42  2  0  0  0  0
 42 37  1  0  0  0  0
 44 39  1  0  0  0  0
 45 46  1  0  0  0  0
 47 48  1  0  0  0  0
M  END
>  <minimizedAffinity>
-5.84169292

$$$$
