REMARK  Name = 
REMARK  2 active torsions:
REMARK  status: ('A' for Active; 'I' for Inactive)
REMARK    1  A    between atoms: C_1  and  N_9
REMARK    2  A    between atoms: C_2  and  N_10
REMARK                            x       y       z     vdW  Elec       q    Type
REMARK                         _______ _______ _______ _____ _____    ______ ____
ROOT
ATOM      1  C   UNL     1      45.302  34.557  45.031  0.00  0.00    +0.000 A 
ATOM      2  C   UNL     1      45.273  33.935  46.264  0.00  0.00    +0.000 A 
ATOM      3  C   UNL     1      46.169  32.906  46.480  0.00  0.00    +0.000 A 
ATOM      4  N   UNL     1      47.001  32.584  45.480  0.00  0.00    +0.000 NA
ATOM      5  C   UNL     1      47.013  33.202  44.289  0.00  0.00    +0.000 A 
ATOM      6  N   UNL     1      46.155  34.210  44.040  0.00  0.00    +0.000 NA
ATOM      7  H   UNL     1      46.128  32.434  47.452  0.00  0.00    +0.000 HD
ATOM      8  H   UNL     1      47.726  32.880  43.521  0.00  0.00    +0.000 HD
ENDROOT
BRANCH   1  11
ATOM      9  C   UNL     1      43.977  35.385  43.295  0.00  0.00    +0.000 C 
ATOM     10  O   UNL     1      44.410  34.291  42.843  0.00  0.00    +0.000 OA
ATOM     11  N   UNL     1      44.444  35.654  44.613  0.00  0.00    +0.000 N 
ATOM     12  H   UNL     1      44.176  36.506  45.121  0.00  0.00    +0.000 HD
ATOM     13  N   UNL     1      43.114  36.283  42.602  0.00  0.00    +0.000 N 
ATOM     14  C   UNL     1      41.720  35.993  42.441  0.00  0.00    +0.000 C 
ATOM     15  C   UNL     1      40.991  37.331  42.605  0.00  0.00    +0.000 C 
ATOM     16  C   UNL     1      41.374  38.288  41.511  0.00  0.00    +0.000 C 
ATOM     17  H   UNL     1      41.228  39.327  41.880  0.00  0.00    +0.000 HD
ATOM     18  C   UNL     1      42.770  38.111  41.007  0.00  0.00    +0.000 C 
ATOM     19  C   UNL     1      43.697  37.498  42.066  0.00  0.00    +0.000 C 
ENDBRANCH   1  11
BRANCH   2  20
ATOM     20  N   UNL     1      44.311  34.426  47.193  0.00  0.00    +0.000 N 
ATOM     21  H   UNL     1      44.667  34.757  48.117  0.00  0.00    +0.000 HD
ATOM     22  H   UNL     1      43.280  34.500  47.068  0.00  0.00    +0.000 HD
ENDBRANCH   2  20
TORSDOF 2
