
     RDKit          3D

 27 28  0  0  0  0  0  0  0  0999 V2000
   44.5236   35.9093   44.6675 C   0  0  0  0  0  0  0  0  0  0  0  0
   45.1545   35.8941   43.4193 C   0  0  0  0  0  0  0  0  0  0  0  0
   46.0715   34.8612   43.2020 C   0  0  0  0  0  0  0  0  0  0  0  0
   46.2815   33.9640   44.1962 N   0  0  0  0  0  0  0  0  0  0  0  0
   45.6605   34.0071   45.3805 C   0  0  0  0  0  0  0  0  0  0  0  0
   44.7717   34.9977   45.6075 N   0  0  0  0  0  0  0  0  0  0  0  0
   45.8850   33.0473   46.4441 C   0  0  0  0  0  0  0  0  0  0  0  0
   45.1598   33.0093   47.4819 O   0  0  0  0  0  0  0  0  0  0  0  0
   43.7984   36.6979   44.8835 H   0  0  0  0  0  0  0  0  0  0  0  0
   44.9395   36.6321   42.6866 H   0  0  0  0  0  0  0  0  0  0  0  0
   46.5924   34.7982   42.2512 H   0  0  0  0  0  0  0  0  0  0  0  0
   46.9505   32.1110   46.3336 N   0  0  0  0  0  0  0  0  0  0  0  0
   48.0194   32.0856   47.3313 C   0  0  0  0  0  0  0  0  0  0  0  0
   48.9669   30.9425   46.9860 C   0  0  0  0  0  0  0  0  0  0  0  0
   48.2395   29.6453   46.8398 C   0  0  0  0  0  0  0  0  0  0  0  0
   48.9972   28.8974   46.4967 H   0  0  0  0  0  0  0  0  0  0  0  0
   47.1746   29.7539   45.7746 C   0  0  0  0  0  0  0  0  0  0  0  0
   47.0117   31.1602   45.2389 C   0  0  0  0  0  0  0  0  0  0  0  0
   47.5771   31.8761   48.3186 H   0  0  0  0  0  0  0  0  0  0  0  0
   48.6511   32.9983   47.3066 H   0  0  0  0  0  0  0  0  0  0  0  0
   49.7282   30.9110   47.7627 H   0  0  0  0  0  0  0  0  0  0  0  0
   49.4701   31.1580   46.0195 H   0  0  0  0  0  0  0  0  0  0  0  0
   47.8533   29.2626   47.8144 H   0  0  0  0  0  0  0  0  0  0  0  0
   46.2248   29.4483   46.2649 H   0  0  0  0  0  0  0  0  0  0  0  0
   47.3933   29.0868   44.9208 H   0  0  0  0  0  0  0  0  0  0  0  0
   46.0687   31.2135   44.6892 H   0  0  0  0  0  0  0  0  0  0  0  0
   47.8469   31.3859   44.5440 H   0  0  0  0  0  0  0  0  0  0  0  0
  1  6  2  0
  2  1  1  0
  3  2  2  0
  3  4  1  0
  4  5  2  0
  5  6  1  0
  5  7  1  0
  7  8  2  0
  1  9  1  0
  2 10  1  0
  3 11  1  0
 12 13  1  0
 13 14  1  0
 14 15  1  0
 15 16  1  0
 15 17  1  0
 17 18  1  0
 18 12  1  0
 13 19  1  0
 13 20  1  0
 14 21  1  0
 14 22  1  0
 15 23  1  0
 17 24  1  0
 17 25  1  0
 18 26  1  0
 18 27  1  0
  7 12  1  0
M  ISO  4   9  14  10  14  11  14  16  15
M  END
>  <DihAtoms>  (1) 
4,6,11,12

>  <DihDeg>  (1) 
0.001934799309010327

$$$$
