
     RDKit          3D

 35 37  0  0  0  0  0  0  0  0999 V2000
   44.5715   35.4248   45.1357 C   0  0  0  0  0  0  0  0  0  0  0  0
   45.2490   35.2784   43.9339 C   0  0  0  0  0  0  0  0  0  0  0  0
   46.1871   34.2734   43.7897 C   0  0  0  0  0  0  0  0  0  0  0  0
   46.4080   33.4484   44.8707 N   0  0  0  0  0  0  0  0  0  0  0  0
   45.7504   33.6027   46.0148 C   0  0  0  0  0  0  0  0  0  0  0  0
   44.8471   34.5750   46.1445 N   0  0  0  0  0  0  0  0  0  0  0  0
   46.0015   32.7189   47.1478 C   0  0  0  0  0  0  0  0  0  0  0  0
   47.2502   32.2695   47.4430 C   0  0  0  0  0  0  0  0  0  0  0  0
   47.5678   31.4416   48.4836 C   0  0  0  0  0  0  0  0  0  0  0  0
   46.5306   31.0650   49.2531 N   0  0  0  0  0  0  0  0  0  0  0  0
   45.2869   31.5063   48.9678 C   0  0  0  0  0  0  0  0  0  0  0  0
   44.9649   32.3262   47.9391 N   0  0  0  0  0  0  0  0  0  0  0  0
   44.9656   36.1885   42.8366 C   0  0  0  0  0  0  0  0  0  0  0  0
   44.1263   35.7824   41.9726 O   0  0  0  0  0  0  0  0  0  0  0  0
   43.8260   36.1891   45.3154 H   0  0  0  0  0  0  0  0  0  0  0  0
   46.7361   34.1263   42.8690 H   0  0  0  0  0  0  0  0  0  0  0  0
   48.0493   32.6232   46.7641 H   0  0  0  0  0  0  0  0  0  0  0  0
   48.5856   31.1225   48.6602 H   0  0  0  0  0  0  0  0  0  0  0  0
   44.4018   31.2251   49.5701 H   0  0  0  0  0  0  0  0  0  0  0  0
   45.5830   37.4726   42.7142 N   0  0  0  0  0  0  0  0  0  0  0  0
   47.0068   37.5303   42.9447 C   0  0  0  0  0  0  0  0  0  0  0  0
   47.6036   38.8890   42.9375 C   0  0  0  0  0  0  0  0  0  0  0  0
   46.6888   40.0145   42.6033 C   0  0  0  0  0  0  0  0  0  0  0  0
   46.1937   40.4672   43.4885 H   0  0  0  0  0  0  0  0  0  0  0  0
   45.5861   39.6143   41.6450 C   0  0  0  0  0  0  0  0  0  0  0  0
   44.7429   38.6048   42.3721 C   0  0  0  0  0  0  0  0  0  0  0  0
   47.2812   36.9716   43.8875 H   0  0  0  0  0  0  0  0  0  0  0  0
   47.4658   36.9299   42.1051 H   0  0  0  0  0  0  0  0  0  0  0  0
   48.5227   38.9620   42.3010 H   0  0  0  0  0  0  0  0  0  0  0  0
   47.9981   39.1065   43.9741 H   0  0  0  0  0  0  0  0  0  0  0  0
   47.2648   40.8228   42.1139 H   0  0  0  0  0  0  0  0  0  0  0  0
   45.9772   39.1903   40.7091 H   0  0  0  0  0  0  0  0  0  0  0  0
   44.9753   40.5051   41.4497 H   0  0  0  0  0  0  0  0  0  0  0  0
   44.4171   39.0358   43.3443 H   0  0  0  0  0  0  0  0  0  0  0  0
   43.9015   38.2433   41.7507 H   0  0  0  0  0  0  0  0  0  0  0  0
  1  6  2  0
  2  1  1  0
  3  2  2  0
  3  4  1  0
  4  5  2  0
  5  6  1  0
  5  7  1  0
  7  8  2  0
  7 12  1  0
  8  9  1  0
  9 10  2  0
 11 10  1  0
 12 11  2  0
 13  2  1  0
 14 13  2  0
  1 15  1  0
  3 16  1  0
  8 17  1  0
  9 18  1  0
 11 19  1  0
 20 21  1  0
 21 22  1  0
 22 23  1  0
 23 24  1  0
 23 25  1  0
 25 26  1  0
 26 20  1  0
 21 27  1  0
 21 28  1  0
 22 29  1  0
 22 30  1  0
 23 31  1  0
 25 32  1  0
 25 33  1  0
 26 34  1  0
 26 35  1  0
 13 20  1  0
M  ISO  6  15  14  16  14  17  14  18  14  19  14  24  15
M  END
>  <DihAtoms>  (1) 
1,12,19,20

>  <DihDeg>  (1) 
-0.0022566011236243157

$$$$
