REMARK  Name = 
REMARK  2 active torsions:
REMARK  status: ('A' for Active; 'I' for Inactive)
REMARK    1  A    between atoms: C_2  and  C_13
REMARK    2  A    between atoms: C_5  and  C_7
REMARK                            x       y       z     vdW  Elec       q    Type
REMARK                         _______ _______ _______ _____ _____    ______ ____
ROOT
ATOM      1  C   UNL     1      44.572  35.425  45.136  0.00  0.00    +0.000 A 
ATOM      2  C   UNL     1      45.249  35.278  43.934  0.00  0.00    +0.000 A 
ATOM      3  C   UNL     1      46.187  34.273  43.790  0.00  0.00    +0.000 A 
ATOM      4  N   UNL     1      46.408  33.448  44.871  0.00  0.00    +0.000 NA
ATOM      5  C   UNL     1      45.750  33.603  46.015  0.00  0.00    +0.000 A 
ATOM      6  N   UNL     1      44.847  34.575  46.145  0.00  0.00    +0.000 NA
ATOM      7  H   UNL     1      43.826  36.189  45.315  0.00  0.00    +0.000 HD
ATOM      8  H   UNL     1      46.736  34.126  42.869  0.00  0.00    +0.000 HD
ENDROOT
BRANCH   5   9
ATOM      9  C   UNL     1      46.002  32.719  47.148  0.00  0.00    +0.000 A 
ATOM     10  C   UNL     1      47.250  32.270  47.443  0.00  0.00    +0.000 A 
ATOM     11  C   UNL     1      47.568  31.442  48.484  0.00  0.00    +0.000 A 
ATOM     12  N   UNL     1      46.531  31.065  49.253  0.00  0.00    +0.000 NA
ATOM     13  C   UNL     1      45.287  31.506  48.968  0.00  0.00    +0.000 A 
ATOM     14  N   UNL     1      44.965  32.326  47.939  0.00  0.00    +0.000 NA
ATOM     15  H   UNL     1      48.049  32.623  46.764  0.00  0.00    +0.000 HD
ATOM     16  H   UNL     1      48.586  31.122  48.660  0.00  0.00    +0.000 HD
ATOM     17  H   UNL     1      44.402  31.225  49.570  0.00  0.00    +0.000 HD
ENDBRANCH   5   9
BRANCH   2  18
ATOM     18  C   UNL     1      44.966  36.188  42.837  0.00  0.00    +0.000 C 
ATOM     19  O   UNL     1      44.126  35.782  41.973  0.00  0.00    +0.000 OA
ATOM     20  N   UNL     1      45.583  37.473  42.714  0.00  0.00    +0.000 N 
ATOM     21  C   UNL     1      44.765  38.617  43.038  0.00  0.00    +0.000 C 
ATOM     22  C   UNL     1      45.384  39.941  42.783  0.00  0.00    +0.000 C 
ATOM     23  C   UNL     1      46.797  39.935  42.316  0.00  0.00    +0.000 C 
ATOM     24  H   UNL     1      46.904  39.909  41.210  0.00  0.00    +0.000 HD
ATOM     25  C   UNL     1      47.593  38.765  42.857  0.00  0.00    +0.000 C 
ATOM     26  C   UNL     1      46.966  37.527  42.280  0.00  0.00    +0.000 C 
ENDBRANCH   2  18
TORSDOF 2
