
     RDKit          3D

 57 60  0  0  0  0  0  0  0  0999 V2000
   46.3711   32.4609   46.8990 C   0  0  2  0  0  0  0  0  0  0  0  0
   47.0709   32.5486   45.6180 C   0  0  1  0  0  0  0  0  0  0  0  0
   46.8457   31.2063   45.0228 O   0  0  0  0  0  0  0  0  0  0  0  0
   47.3508   30.4646   46.0830 C   0  0  0  0  0  0  0  0  0  0  0  0
   46.3609   31.0134   47.2586 C   0  0  2  0  0  0  0  0  0  0  0  0
   44.9291   35.1476   44.2222 C   0  0  0  0  0  0  0  0  0  0  0  0
   45.5721   35.5159   43.0472 C   0  0  0  0  0  0  0  0  0  0  0  0
   46.7682   34.8577   42.7028 C   0  0  0  0  0  0  0  0  0  0  0  0
   47.2435   33.8958   43.5264 N   0  0  0  0  0  0  0  0  0  0  0  0
   46.6037   33.5524   44.6642 C   0  0  0  0  0  0  0  0  0  0  0  0
   45.4429   34.1726   45.0233 N   0  0  0  0  0  0  0  0  0  0  0  0
   43.7400   35.7675   44.6115 O   0  0  0  0  0  0  0  0  0  0  0  0
   44.9833   32.8525   46.6888 O   0  0  0  0  0  0  0  0  0  0  0  0
   45.2158   30.3819   46.9855 O   0  0  0  0  0  0  0  0  0  0  0  0
   44.9720   29.1038   47.2895 C   0  0  0  0  0  0  0  0  0  0  0  0
   44.7987   28.2147   46.0508 C   0  0  0  0  0  0  0  0  0  0  0  0
   42.4453   28.0770   45.4688 C   0  0  0  0  0  0  0  0  0  0  0  0
   43.5276   27.4942   46.1479 C   0  0  0  0  0  0  0  0  0  0  0  0
   43.2102   26.3357   46.8178 C   0  0  0  0  0  0  0  0  0  0  0  0
   41.9766   25.7603   46.8554 C   0  0  0  0  0  0  0  0  0  0  0  0
   40.9229   26.3533   46.1786 C   0  0  0  0  0  0  0  0  0  0  0  0
   41.1672   27.5452   45.4659 C   0  0  0  0  0  0  0  0  0  0  0  0
   42.4662   29.2332   44.7156 O   0  0  0  0  0  0  0  0  0  0  0  0
   40.0793   28.0239   44.8522 O   0  0  0  0  0  0  0  0  0  0  0  0
   46.7948   33.1080   47.6840 H   0  0  0  0  0  0  0  0  0  0  0  0
   48.1806   32.5444   45.7244 H   0  0  0  0  0  0  0  0  0  0  0  0
   48.3635   30.7378   46.3657 H   0  0  0  0  0  0  0  0  0  0  0  0
   47.1229   29.4123   45.9447 H   0  0  0  0  0  0  0  0  0  0  0  0
   46.9825   30.6537   48.0967 H   0  0  0  0  0  0  0  0  0  0  0  0
   45.0980   36.2999   42.4667 H   0  0  0  0  0  0  0  0  0  0  0  0
   47.2434   35.1604   41.7923 H   0  0  0  0  0  0  0  0  0  0  0  0
   42.9366   35.8801   44.0295 H   0  0  0  0  0  0  0  0  0  0  0  0
   44.6569   32.1576   46.0615 H   0  0  0  0  0  0  0  0  0  0  0  0
   45.2331   28.6977   48.2222 H   0  0  0  0  0  0  0  0  0  0  0  0
   43.7627   29.2455   47.5779 H   0  0  0  0  0  0  0  0  0  0  0  0
   45.6184   27.4657   46.0708 H   0  0  0  0  0  0  0  0  0  0  0  0
   44.8740   28.7774   45.1309 H   0  0  0  0  0  0  0  0  0  0  0  0
   44.0744   25.9155   47.3297 H   0  0  0  0  0  0  0  0  0  0  0  0
   41.8608   24.8409   47.4246 H   0  0  0  0  0  0  0  0  0  0  0  0
   39.9592   25.8670   46.2326 H   0  0  0  0  0  0  0  0  0  0  0  0
   42.9767   30.0284   45.0752 H   0  0  0  0  0  0  0  0  0  0  0  0
   37.0543   29.1081   41.1880 H   0  0  0  0  0  0  0  0  0  0  0  0
   37.6353   29.5075   41.9633 N   0  0  0  0  0  0  0  0  0  0  0  0
   39.0541   29.4977   41.6901 C   0  0  0  0  0  0  0  0  0  0  0  0
   39.8244   28.6114   42.6107 C   0  0  0  0  0  0  0  0  0  0  0  0
   39.7339   29.0765   44.0677 C   0  0  0  0  0  0  0  0  0  0  0  0
   38.2417   29.3515   44.2913 C   0  0  0  0  0  0  0  0  0  0  0  0
   37.3870   28.7768   43.1928 C   0  0  0  0  0  0  0  0  0  0  0  0
   39.4931   30.5175   41.7197 H   0  0  0  0  0  0  0  0  0  0  0  0
   39.1676   29.0768   40.6699 H   0  0  0  0  0  0  0  0  0  0  0  0
   39.4157   27.5823   42.5866 H   0  0  0  0  0  0  0  0  0  0  0  0
   40.8613   28.5773   42.2633 H   0  0  0  0  0  0  0  0  0  0  0  0
   40.2792   30.0252   44.1899 H   0  0  0  0  0  0  0  0  0  0  0  0
   37.8807   28.8561   45.2399 H   0  0  0  0  0  0  0  0  0  0  0  0
   38.0115   30.4149   44.3920 H   0  0  0  0  0  0  0  0  0  0  0  0
   37.4430   27.6882   43.0867 H   0  0  0  0  0  0  0  0  0  0  0  0
   36.3280   29.0160   43.4903 H   0  0  0  0  0  0  0  0  0  0  0  0
  1  5  1  0
  2  1  1  0
  3  2  1  0
  3  4  1  0
  4  5  1  0
  6 12  1  0
  6 11  2  0
  7  6  1  0
  8  7  2  0
  8  9  1  0
  9 10  2  0
 10 11  1  0
 10  2  1  0
 13  1  1  0
 14  5  1  0
 14 15  1  0
 16 18  1  0
 16 15  1  0
 17 22  2  0
 17 18  1  0
 18 19  2  0
 19 20  1  0
 21 20  2  0
 22 21  1  0
 23 17  1  0
 24 22  1  0
  1 25  1  1
  2 26  1  1
  4 27  1  0
  4 28  1  0
  5 29  1  1
  7 30  1  0
  8 31  1  0
 12 32  1  0
 13 33  1  0
 15 34  1  0
 15 35  1  0
 16 36  1  0
 16 37  1  0
 19 38  1  0
 20 39  1  0
 21 40  1  0
 23 41  1  0
 42 43  1  0
 43 44  1  0
 44 45  1  0
 45 46  1  0
 46 47  1  0
 47 48  1  0
 48 43  1  0
 44 49  1  0
 44 50  1  0
 45 51  1  0
 45 52  1  0
 46 53  1  0
 47 54  1  0
 47 55  1  0
 48 56  1  0
 48 57  1  0
 24 46  1  0
M  ISO  8  25  13  26  13  27  13  28  13  29  13  30  14  31  14  32   3
M  ISO  8  33   3  34   8  35   8  36   8  37   8  38  14  39  14  40  14
M  ISO  2  41   3  42   5
M  END
>  <DihAtoms>  (1) 
21,23,45,44

>  <DihDeg>  (1) 
125.03149138258317

$$$$
