
 OpenBabel03242513123D

 18 19  0  0  0  0  0  0  0  0999 V2000
   35.9190   29.2640   37.0930 C   0  0  0  0  0  0  0  0  0  0  0  0
   34.6040   28.8170   36.9370 C   0  0  0  0  0  0  0  0  0  0  0  0
   33.8270   28.7600   38.0990 C   0  0  0  0  0  0  0  0  0  0  0  0
   34.3920   29.1360   39.2720 N   0  0  0  0  0  0  0  0  0  0  0  0
   35.6560   29.5610   39.3860 C   0  0  0  0  0  0  0  0  0  0  0  0
   36.4210   29.6200   38.2760 N   0  0  0  0  0  0  0  0  0  0  0  0
   36.5650   29.3250   36.2120 H   0  0  0  0  0  0  0  0  0  0  0  0
   34.2280   28.5380   35.9840 H   0  0  0  0  0  0  0  0  0  0  0  0
   32.7980   28.4210   38.0390 H   0  0  0  0  0  0  0  0  0  0  0  0
   36.2610   29.9620   40.6420 C   0  0  0  0  0  0  0  0  0  0  0  0
   36.0830   31.1140   41.1380 O   0  0  0  0  0  0  0  0  0  0  0  0
   37.0830   29.0450   41.3530 N   0  0  0  0  0  0  0  0  0  0  0  0
   38.3600   29.4790   41.9170 C   0  0  0  0  0  2  0  0  0  0  0  0
   38.9730   28.3050   42.6710 C   0  0  0  0  0  2  0  0  0  0  0  0
   38.0250   27.7360   43.6770 C   0  0  0  0  0  3  0  0  0  0  0  0
   38.5250   26.8320   44.1030 H   0  0  0  0  0  0  0  0  0  0  0  0
   36.7480   27.2910   43.0060 C   0  0  0  0  0  2  0  0  0  0  0  0
   36.6870   27.6610   41.5380 C   0  0  0  0  0  2  0  0  0  0  0  0
  1  6  1  0  0  0  0
  2  1  2  0  0  0  0
  2  3  1  0  0  0  0
  3  4  2  0  0  0  0
  4  5  1  0  0  0  0
  5 10  1  0  0  0  0
  6  5  2  0  0  0  0
  7  1  1  0  0  0  0
  8  2  1  0  0  0  0
  9  3  1  0  0  0  0
 10 11  2  0  0  0  0
 10 12  1  0  0  0  0
 12 18  1  0  0  0  0
 12 13  1  0  0  0  0
 13 14  1  0  0  0  0
 14 15  1  0  0  0  0
 15 16  1  0  0  0  0
 17 15  1  0  0  0  0
 18 17  1  0  0  0  0
M  END
>  <minimizedAffinity>
-4.27748489

$$$$

 OpenBabel03242513123D

 18 19  0  0  0  0  0  0  0  0999 V2000
   37.2420   26.8950   41.6930 C   0  0  0  0  0  0  0  0  0  0  0  0
   36.8630   27.0200   43.0330 C   0  0  0  0  0  0  0  0  0  0  0  0
   37.2560   28.1970   43.6800 C   0  0  0  0  0  0  0  0  0  0  0  0
   37.9620   29.1150   42.9760 N   0  0  0  0  0  0  0  0  0  0  0  0
   38.3080   28.9640   41.6930 C   0  0  0  0  0  0  0  0  0  0  0  0
   37.9380   27.8340   41.0530 N   0  0  0  0  0  0  0  0  0  0  0  0
   36.9570   25.9920   41.1460 H   0  0  0  0  0  0  0  0  0  0  0  0
   36.3090   26.2580   43.5210 H   0  0  0  0  0  0  0  0  0  0  0  0
   36.9900   28.3500   44.7210 H   0  0  0  0  0  0  0  0  0  0  0  0
   39.0640   29.9460   40.9400 C   0  0  0  0  0  0  0  0  0  0  0  0
   40.1310   29.6500   40.3260 O   0  0  0  0  0  0  0  0  0  0  0  0
   38.6060   31.2910   40.8790 N   0  0  0  0  0  0  0  0  0  0  0  0
   39.5400   32.4000   41.0670 C   0  0  0  0  0  2  0  0  0  0  0  0
   38.7750   33.7060   40.8790 C   0  0  0  0  0  2  0  0  0  0  0  0
   38.0450   33.7380   39.5750 C   0  0  0  0  0  3  0  0  0  0  0  0
   37.4460   34.6820   39.5740 H   0  0  0  0  0  0  0  0  0  0  0  0
   37.0870   32.5750   39.4770 C   0  0  0  0  0  2  0  0  0  0  0  0
   37.2100   31.6040   40.6330 C   0  0  0  0  0  2  0  0  0  0  0  0
  1  2  1  0  0  0  0
  2  8  1  0  0  0  0
  2  3  2  0  0  0  0
  3  9  1  0  0  0  0
  4  3  1  0  0  0  0
  5  4  2  0  0  0  0
  6  1  2  0  0  0  0
  6  5  1  0  0  0  0
  7  1  1  0  0  0  0
 10  5  1  0  0  0  0
 11 10  2  0  0  0  0
 12 10  1  0  0  0  0
 12 13  1  0  0  0  0
 14 13  1  0  0  0  0
 15 14  1  0  0  0  0
 16 15  1  0  0  0  0
 17 15  1  0  0  0  0
 17 18  1  0  0  0  0
 18 12  1  0  0  0  0
M  END
>  <minimizedAffinity>
-4.23040867

$$$$

 OpenBabel03242513123D

 18 19  0  0  0  0  0  0  0  0999 V2000
   37.5170   26.0280   41.0790 C   0  0  0  0  0  0  0  0  0  0  0  0
   37.4890   25.9830   42.4760 C   0  0  0  0  0  0  0  0  0  0  0  0
   36.8550   27.0530   43.1160 C   0  0  0  0  0  0  0  0  0  0  0  0
   36.3230   28.0390   42.3530 N   0  0  0  0  0  0  0  0  0  0  0  0
   36.3670   28.0500   41.0160 C   0  0  0  0  0  0  0  0  0  0  0  0
   36.9760   27.0260   40.3810 N   0  0  0  0  0  0  0  0  0  0  0  0
   38.0020   25.2130   40.5340 H   0  0  0  0  0  0  0  0  0  0  0  0
   37.9280   25.1770   43.0090 H   0  0  0  0  0  0  0  0  0  0  0  0
   36.8010   27.0730   44.2010 H   0  0  0  0  0  0  0  0  0  0  0  0
   35.7970   29.1050   40.2000 C   0  0  0  0  0  0  0  0  0  0  0  0
   34.5610   29.1550   39.9300 O   0  0  0  0  0  0  0  0  0  0  0  0
   36.6410   30.1240   39.6770 N   0  0  0  0  0  0  0  0  0  0  0  0
   36.5160   30.5460   38.2830 C   0  0  0  0  0  2  0  0  0  0  0  0
   37.4950   31.6890   38.0400 C   0  0  0  0  0  2  0  0  0  0  0  0
   37.3140   32.7940   39.0300 C   0  0  0  0  0  3  0  0  0  0  0  0
   38.1300   33.5310   38.8300 H   0  0  0  0  0  0  0  0  0  0  0  0
   37.4850   32.2760   40.4380 C   0  0  0  0  0  2  0  0  0  0  0  0
   37.6450   30.7710   40.5020 C   0  0  0  0  0  2  0  0  0  0  0  0
  1  2  1  0  0  0  0
  2  8  1  0  0  0  0
  2  3  2  0  0  0  0
  3  9  1  0  0  0  0
  4  3  1  0  0  0  0
  5  4  2  0  0  0  0
  6  5  1  0  0  0  0
  6  1  2  0  0  0  0
  7  1  1  0  0  0  0
 10  5  1  0  0  0  0
 11 10  2  0  0  0  0
 12 10  1  0  0  0  0
 12 18  1  0  0  0  0
 13 12  1  0  0  0  0
 14 13  1  0  0  0  0
 14 15  1  0  0  0  0
 15 17  1  0  0  0  0
 16 15  1  0  0  0  0
 17 18  1  0  0  0  0
M  END
>  <minimizedAffinity>
-4.2140727

$$$$

 OpenBabel03242513123D

 18 19  0  0  0  0  0  0  0  0999 V2000
   35.8210   30.3920   40.4710 C   0  0  0  0  0  0  0  0  0  0  0  0
   36.9410   31.2280   40.4470 C   0  0  0  0  0  0  0  0  0  0  0  0
   38.0740   30.7620   41.1220 C   0  0  0  0  0  0  0  0  0  0  0  0
   38.0090   29.5580   41.7400 N   0  0  0  0  0  0  0  0  0  0  0  0
   36.9190   28.7820   41.7430 C   0  0  0  0  0  0  0  0  0  0  0  0
   35.8150   29.2150   41.0970 N   0  0  0  0  0  0  0  0  0  0  0  0
   34.9110   30.7130   39.9560 H   0  0  0  0  0  0  0  0  0  0  0  0
   36.9190   32.1610   39.9420 H   0  0  0  0  0  0  0  0  0  0  0  0
   38.9750   31.3690   41.1380 H   0  0  0  0  0  0  0  0  0  0  0  0
   36.8490   27.4930   42.4040 C   0  0  0  0  0  0  0  0  0  0  0  0
   36.3280   27.3510   43.5500 O   0  0  0  0  0  0  0  0  0  0  0  0
   37.3770   26.3410   41.7590 N   0  0  0  0  0  0  0  0  0  0  0  0
   38.2070   25.3920   42.5000 C   0  0  0  0  0  2  0  0  0  0  0  0
   38.5610   24.2380   41.5690 C   0  0  0  0  0  2  0  0  0  0  0  0
   37.3440   23.6300   40.9520 C   0  0  0  0  0  3  0  0  0  0  0  0
   37.7110   22.8670   40.2220 H   0  0  0  0  0  0  0  0  0  0  0  0
   36.5630   24.6710   40.1870 C   0  0  0  0  0  2  0  0  0  0  0  0
   37.1140   26.0720   40.3570 C   0  0  0  0  0  2  0  0  0  0  0  0
  1  6  1  0  0  0  0
  2  1  2  0  0  0  0
  2  3  1  0  0  0  0
  3  9  1  0  0  0  0
  3  4  2  0  0  0  0
  4  5  1  0  0  0  0
  5 10  1  0  0  0  0
  6  5  2  0  0  0  0
  7  1  1  0  0  0  0
  8  2  1  0  0  0  0
 10 11  2  0  0  0  0
 12 10  1  0  0  0  0
 12 13  1  0  0  0  0
 14 13  1  0  0  0  0
 15 14  1  0  0  0  0
 16 15  1  0  0  0  0
 17 18  1  0  0  0  0
 17 15  1  0  0  0  0
 18 12  1  0  0  0  0
M  END
>  <minimizedAffinity>
-4.2123704

$$$$

 OpenBabel03242513123D

 18 19  0  0  0  0  0  0  0  0999 V2000
   37.5960   33.5040   39.9660 C   0  0  0  0  0  0  0  0  0  0  0  0
   38.8570   34.0880   40.1200 C   0  0  0  0  0  0  0  0  0  0  0  0
   39.9310   33.2070   40.2840 C   0  0  0  0  0  0  0  0  0  0  0  0
   39.6800   31.8750   40.2810 N   0  0  0  0  0  0  0  0  0  0  0  0
   38.4590   31.3490   40.1310 C   0  0  0  0  0  0  0  0  0  0  0  0
   37.4100   32.1840   39.9730 N   0  0  0  0  0  0  0  0  0  0  0  0
   36.7260   34.1530   39.8350 H   0  0  0  0  0  0  0  0  0  0  0  0
   38.9780   35.1420   40.1120 H   0  0  0  0  0  0  0  0  0  0  0  0
   40.9340   33.6030   40.4070 H   0  0  0  0  0  0  0  0  0  0  0  0
   38.1900   29.9230   40.1280 C   0  0  0  0  0  0  0  0  0  0  0  0
   38.2780   29.2220   39.0770 O   0  0  0  0  0  0  0  0  0  0  0  0
   37.8140   29.2760   41.3380 N   0  0  0  0  0  0  0  0  0  0  0  0
   36.7050   28.3240   41.3540 C   0  0  0  0  0  2  0  0  0  0  0  0
   36.5890   27.7500   42.7620 C   0  0  0  0  0  2  0  0  0  0  0  0
   37.8860   27.1820   43.2370 C   0  0  0  0  0  3  0  0  0  0  0  0
   37.7240   26.8770   44.3010 H   0  0  0  0  0  0  0  0  0  0  0  0
   38.9660   28.2360   43.2130 C   0  0  0  0  0  2  0  0  0  0  0  0
   38.5120   29.5370   42.5840 C   0  0  0  0  0  2  0  0  0  0  0  0
  1  6  2  0  0  0  0
  1  2  1  0  0  0  0
  2  3  2  0  0  0  0
  3  9  1  0  0  0  0
  4  3  1  0  0  0  0
  5  4  2  0  0  0  0
  6  5  1  0  0  0  0
  7  1  1  0  0  0  0
  8  2  1  0  0  0  0
 10  5  1  0  0  0  0
 10 12  1  0  0  0  0
 11 10  2  0  0  0  0
 12 13  1  0  0  0  0
 12 18  1  0  0  0  0
 13 14  1  0  0  0  0
 14 15  1  0  0  0  0
 15 16  1  0  0  0  0
 17 15  1  0  0  0  0
 18 17  1  0  0  0  0
M  END
>  <minimizedAffinity>
-4.17105722

$$$$

 OpenBabel03242513123D

 18 19  0  0  0  0  0  0  0  0999 V2000
   39.8520   31.7390   38.9330 C   0  0  0  0  0  0  0  0  0  0  0  0
   39.3720   31.7960   37.6210 C   0  0  0  0  0  0  0  0  0  0  0  0
   38.0640   31.3430   37.4200 C   0  0  0  0  0  0  0  0  0  0  0  0
   37.3660   30.8900   38.4900 N   0  0  0  0  0  0  0  0  0  0  0  0
   37.8560   30.8490   39.7340 C   0  0  0  0  0  0  0  0  0  0  0  0
   39.1170   31.2810   39.9470 N   0  0  0  0  0  0  0  0  0  0  0  0
   40.8690   32.0820   39.1390 H   0  0  0  0  0  0  0  0  0  0  0  0
   39.9770   32.1640   36.8310 H   0  0  0  0  0  0  0  0  0  0  0  0
   37.6370   31.3650   36.4220 H   0  0  0  0  0  0  0  0  0  0  0  0
   37.1090   30.3640   40.8790 C   0  0  0  0  0  0  0  0  0  0  0  0
   36.1000   30.9790   41.3350 O   0  0  0  0  0  0  0  0  0  0  0  0
   37.5090   29.1600   41.5210 N   0  0  0  0  0  0  0  0  0  0  0  0
   37.5760   29.0860   42.9800 C   0  0  0  0  0  2  0  0  0  0  0  0
   37.9640   27.6640   43.3690 C   0  0  0  0  0  2  0  0  0  0  0  0
   37.0550   26.6530   42.7490 C   0  0  0  0  0  3  0  0  0  0  0  0
   37.4750   25.6500   43.0130 H   0  0  0  0  0  0  0  0  0  0  0  0
   37.0670   26.7830   41.2450 C   0  0  0  0  0  2  0  0  0  0  0  0
   37.8610   27.9760   40.7580 C   0  0  0  0  0  2  0  0  0  0  0  0
  1  7  1  0  0  0  0
  1  6  1  0  0  0  0
  2  1  2  0  0  0  0
  3  2  1  0  0  0  0
  3  4  2  0  0  0  0
  4  5  1  0  0  0  0
  5  6  2  0  0  0  0
  5 10  1  0  0  0  0
  8  2  1  0  0  0  0
  9  3  1  0  0  0  0
 10 11  2  0  0  0  0
 10 12  1  0  0  0  0
 12 13  1  0  0  0  0
 13 14  1  0  0  0  0
 15 16  1  0  0  0  0
 15 14  1  0  0  0  0
 17 15  1  0  0  0  0
 18 17  1  0  0  0  0
 18 12  1  0  0  0  0
M  END
>  <minimizedAffinity>
-4.06364965

$$$$

 OpenBabel03242513123D

 18 19  0  0  0  0  0  0  0  0999 V2000
   37.2060   31.5390   38.3800 C   0  0  0  0  0  0  0  0  0  0  0  0
   37.1900   32.7570   39.0660 C   0  0  0  0  0  0  0  0  0  0  0  0
   37.7570   32.7540   40.3450 C   0  0  0  0  0  0  0  0  0  0  0  0
   38.2720   31.5940   40.8200 N   0  0  0  0  0  0  0  0  0  0  0  0
   38.2720   30.4440   40.1360 C   0  0  0  0  0  0  0  0  0  0  0  0
   37.7280   30.4280   38.9000 N   0  0  0  0  0  0  0  0  0  0  0  0
   36.7740   31.4920   37.3760 H   0  0  0  0  0  0  0  0  0  0  0  0
   36.7670   33.6270   38.6300 H   0  0  0  0  0  0  0  0  0  0  0  0
   37.7730   33.6710   40.9250 H   0  0  0  0  0  0  0  0  0  0  0  0
   38.8230   29.2030   40.6450 C   0  0  0  0  0  0  0  0  0  0  0  0
   40.0680   29.0340   40.8050 O   0  0  0  0  0  0  0  0  0  0  0  0
   37.9510   28.1310   40.9810 N   0  0  0  0  0  0  0  0  0  0  0  0
   38.2630   26.7650   40.5630 C   0  0  0  0  0  2  0  0  0  0  0  0
   37.1910   25.8380   41.1250 C   0  0  0  0  0  2  0  0  0  0  0  0
   37.0340   26.0020   42.6020 C   0  0  0  0  0  3  0  0  0  0  0  0
   36.1700   25.3580   42.8990 H   0  0  0  0  0  0  0  0  0  0  0  0
   36.6880   27.4330   42.9400 C   0  0  0  0  0  2  0  0  0  0  0  0
   36.7340   28.3550   41.7400 C   0  0  0  0  0  2  0  0  0  0  0  0
  1  6  2  0  0  0  0
  1  2  1  0  0  0  0
  2  3  2  0  0  0  0
  3  4  1  0  0  0  0
  3  9  1  0  0  0  0
  5 10  1  0  0  0  0
  5  4  2  0  0  0  0
  6  5  1  0  0  0  0
  7  1  1  0  0  0  0
  8  2  1  0  0  0  0
 10 11  2  0  0  0  0
 10 12  1  0  0  0  0
 12 18  1  0  0  0  0
 13 12  1  0  0  0  0
 13 14  1  0  0  0  0
 14 15  1  0  0  0  0
 15 16  1  0  0  0  0
 15 17  1  0  0  0  0
 18 17  1  0  0  0  0
M  END
>  <minimizedAffinity>
-4.01157379

$$$$

 OpenBabel03242513123D

 18 19  0  0  0  0  0  0  0  0999 V2000
   40.2150   25.7970   43.4850 C   0  0  0  0  0  0  0  0  0  0  0  0
   39.9750   24.5320   42.9420 C   0  0  0  0  0  0  0  0  0  0  0  0
   38.7550   24.3650   42.2770 C   0  0  0  0  0  0  0  0  0  0  0  0
   37.9090   25.4210   42.2060 N   0  0  0  0  0  0  0  0  0  0  0  0
   38.1710   26.6210   42.7360 C   0  0  0  0  0  0  0  0  0  0  0  0
   39.3420   26.8000   43.3830 N   0  0  0  0  0  0  0  0  0  0  0  0
   41.1550   25.9760   44.0140 H   0  0  0  0  0  0  0  0  0  0  0  0
   40.6850   23.7490   43.0380 H   0  0  0  0  0  0  0  0  0  0  0  0
   38.5130   23.4030   41.8350 H   0  0  0  0  0  0  0  0  0  0  0  0
   37.2650   27.7520   42.6600 C   0  0  0  0  0  0  0  0  0  0  0  0
   36.6620   28.2020   43.6790 O   0  0  0  0  0  0  0  0  0  0  0  0
   37.0350   28.3870   41.4090 N   0  0  0  0  0  0  0  0  0  0  0  0
   35.6780   28.7340   40.9930 C   0  0  0  0  0  2  0  0  0  0  0  0
   35.7580   29.4580   39.6540 C   0  0  0  0  0  2  0  0  0  0  0  0
   36.6950   30.6200   39.7070 C   0  0  0  0  0  3  0  0  0  0  0  0
   36.7580   31.0210   38.6650 H   0  0  0  0  0  0  0  0  0  0  0  0
   38.0760   30.1680   40.1180 C   0  0  0  0  0  2  0  0  0  0  0  0
   38.1300   28.7060   40.5110 C   0  0  0  0  0  2  0  0  0  0  0  0
  1  7  1  0  0  0  0
  2  8  1  0  0  0  0
  2  1  2  0  0  0  0
  3  2  1  0  0  0  0
  4  3  2  0  0  0  0
  4  5  1  0  0  0  0
  5  6  2  0  0  0  0
  6  1  1  0  0  0  0
  9  3  1  0  0  0  0
 10  5  1  0  0  0  0
 10 11  2  0  0  0  0
 12 10  1  0  0  0  0
 13 12  1  0  0  0  0
 14 15  1  0  0  0  0
 14 13  1  0  0  0  0
 15 17  1  0  0  0  0
 16 15  1  0  0  0  0
 17 18  1  0  0  0  0
 18 12  1  0  0  0  0
M  END
>  <minimizedAffinity>
-3.96942306

$$$$

 OpenBabel03242513123D

 18 19  0  0  0  0  0  0  0  0999 V2000
   37.1070   26.8430   41.2520 C   0  0  0  0  0  0  0  0  0  0  0  0
   37.2540   26.5540   42.6120 C   0  0  0  0  0  0  0  0  0  0  0  0
   37.3700   27.6530   43.4690 C   0  0  0  0  0  0  0  0  0  0  0  0
   37.3310   28.8970   42.9330 N   0  0  0  0  0  0  0  0  0  0  0  0
   37.1870   29.1390   41.6250 C   0  0  0  0  0  0  0  0  0  0  0  0
   37.0760   28.0900   40.7820 N   0  0  0  0  0  0  0  0  0  0  0  0
   37.0140   26.0160   40.5430 H   0  0  0  0  0  0  0  0  0  0  0  0
   37.2770   25.5520   42.9600 H   0  0  0  0  0  0  0  0  0  0  0  0
   37.4860   27.4900   44.5360 H   0  0  0  0  0  0  0  0  0  0  0  0
   37.1460   30.4710   41.0510 C   0  0  0  0  0  0  0  0  0  0  0  0
   36.1180   31.2070   41.1300 O   0  0  0  0  0  0  0  0  0  0  0  0
   38.2880   30.9820   40.3750 N   0  0  0  0  0  0  0  0  0  0  0  0
   38.1430   31.6670   39.0920 C   0  0  0  0  0  2  0  0  0  0  0  0
   39.5190   32.1570   38.6540 C   0  0  0  0  0  2  0  0  0  0  0  0
   40.1770   32.9800   39.7130 C   0  0  0  0  0  3  0  0  0  0  0  0
   41.2060   33.2080   39.3390 H   0  0  0  0  0  0  0  0  0  0  0  0
   40.3090   32.1880   40.9920 C   0  0  0  0  0  2  0  0  0  0  0  0
   39.6220   30.8400   40.9300 C   0  0  0  0  0  2  0  0  0  0  0  0
  1  2  1  0  0  0  0
  2  8  1  0  0  0  0
  2  3  2  0  0  0  0
  3  9  1  0  0  0  0
  4  3  1  0  0  0  0
  5  4  2  0  0  0  0
  6  1  2  0  0  0  0
  6  5  1  0  0  0  0
  7  1  1  0  0  0  0
 10 11  2  0  0  0  0
 10  5  1  0  0  0  0
 12 18  1  0  0  0  0
 12 10  1  0  0  0  0
 13 12  1  0  0  0  0
 14 13  1  0  0  0  0
 14 15  1  0  0  0  0
 15 17  1  0  0  0  0
 16 15  1  0  0  0  0
 18 17  1  0  0  0  0
M  END
>  <minimizedAffinity>
-3.87375355

$$$$
