
 OpenBabel03242512353D

 18 19  0  0  0  0  0  0  0  0999 V2000
   38.1820   28.9720   42.1340 C   0  0  0  0  0  0  0  0  0  0  0  0
   37.3900   28.7610   43.2830 C   0  0  0  0  0  0  0  0  0  0  0  0
   36.8000   27.5140   43.4600 C   0  0  0  0  0  0  0  0  0  0  0  0
   37.0280   26.5740   42.5010 N   0  0  0  0  0  0  0  0  0  0  0  0
   37.7840   26.8080   41.4220 C   0  0  0  0  0  0  0  0  0  0  0  0
   38.3590   27.9970   41.2360 N   0  0  0  0  0  0  0  0  0  0  0  0
   37.2100   29.4990   44.0390 H   0  0  0  0  0  0  0  0  0  0  0  0
   36.1880   27.3200   44.3310 H   0  0  0  0  0  0  0  0  0  0  0  0
   37.9350   26.0360   40.6930 H   0  0  0  0  0  0  0  0  0  0  0  0
   38.7340   30.2860   42.0610 C   0  0  0  0  0  0  0  0  0  0  0  0
   39.6940   30.7150   42.7800 O   0  0  0  0  0  0  0  0  0  0  0  0
   38.2980   31.3280   41.1670 N   0  0  0  0  0  0  0  0  0  0  0  0
   39.2280   32.3980   41.0730 C   0  0  0  0  0  2  0  0  0  0  0  0
   38.9350   33.3840   39.9750 C   0  0  0  0  0  2  0  0  0  0  0  0
   37.4500   33.4960   39.6880 C   0  0  0  0  0  3  0  0  0  0  0  0
   37.3130   34.2560   38.9160 H   0  0  0  0  0  0  0  0  0  0  0  0
   37.0500   32.0890   39.2240 C   0  0  0  0  0  2  0  0  0  0  0  0
   37.0500   31.2380   40.4800 C   0  0  0  0  0  2  0  0  0  0  0  0
  1  2  1  0  0  0  0
  2  3  2  0  0  0  0
  2  7  1  0  0  0  0
  3  8  1  0  0  0  0
  4  3  1  0  0  0  0
  5  4  2  0  0  0  0
  6  5  1  0  0  0  0
  6  1  2  0  0  0  0
  9  5  1  0  0  0  0
 10  1  1  0  0  0  0
 10 11  2  0  0  0  0
 12 10  1  0  0  0  0
 13 12  1  0  0  0  0
 14 13  1  0  0  0  0
 15 14  1  0  0  0  0
 16 15  1  0  0  0  0
 17 15  1  0  0  0  0
 17 18  1  0  0  0  0
 18 12  1  0  0  0  0
M  END
>  <minimizedAffinity>
-4.46765471

$$$$

 OpenBabel03242512353D

 18 19  0  0  0  0  0  0  0  0999 V2000
   38.3730   31.8740   40.3990 C   0  0  0  0  0  0  0  0  0  0  0  0
   39.0610   31.4590   39.2390 C   0  0  0  0  0  0  0  0  0  0  0  0
   40.0670   32.2790   38.7370 C   0  0  0  0  0  0  0  0  0  0  0  0
   40.3200   33.4370   39.4070 N   0  0  0  0  0  0  0  0  0  0  0  0
   39.6480   33.8010   40.5060 C   0  0  0  0  0  0  0  0  0  0  0  0
   38.6800   33.0270   41.0020 N   0  0  0  0  0  0  0  0  0  0  0  0
   38.8630   30.5480   38.7100 H   0  0  0  0  0  0  0  0  0  0  0  0
   40.6130   31.9890   37.8490 H   0  0  0  0  0  0  0  0  0  0  0  0
   39.8830   34.7230   41.0000 H   0  0  0  0  0  0  0  0  0  0  0  0
   37.3660   30.9540   40.8190 C   0  0  0  0  0  0  0  0  0  0  0  0
   36.1560   30.9650   40.4210 O   0  0  0  0  0  0  0  0  0  0  0  0
   37.5570   29.8730   41.7520 N   0  0  0  0  0  0  0  0  0  0  0  0
   36.4960   28.9280   41.7260 C   0  0  0  0  0  2  0  0  0  0  0  0
   36.7660   27.6650   42.4970 C   0  0  0  0  0  2  0  0  0  0  0  0
   37.6900   27.9020   43.6770 C   0  0  0  0  0  3  0  0  0  0  0  0
   37.8030   26.9560   44.2100 H   0  0  0  0  0  0  0  0  0  0  0  0
   38.9950   28.3940   43.0390 C   0  0  0  0  0  2  0  0  0  0  0  0
   38.7110   29.8150   42.5890 C   0  0  0  0  0  2  0  0  0  0  0  0
  1 10  1  0  0  0  0
  1  6  1  0  0  0  0
  2  1  2  0  0  0  0
  3  2  1  0  0  0  0
  3  4  2  0  0  0  0
  4  5  1  0  0  0  0
  5  9  1  0  0  0  0
  5  6  2  0  0  0  0
  7  2  1  0  0  0  0
  8  3  1  0  0  0  0
 10 12  1  0  0  0  0
 11 10  2  0  0  0  0
 12 18  1  0  0  0  0
 13 12  1  0  0  0  0
 13 14  1  0  0  0  0
 14 15  1  0  0  0  0
 15 16  1  0  0  0  0
 17 15  1  0  0  0  0
 18 17  1  0  0  0  0
M  END
>  <minimizedAffinity>
-4.39932823

$$$$

 OpenBabel03242512353D

 18 19  0  0  0  0  0  0  0  0999 V2000
   38.1530   31.1120   40.0770 C   0  0  0  0  0  0  0  0  0  0  0  0
   37.2290   32.1690   39.9310 C   0  0  0  0  0  0  0  0  0  0  0  0
   37.7110   33.4750   39.9410 C   0  0  0  0  0  0  0  0  0  0  0  0
   39.0530   33.6440   40.0930 N   0  0  0  0  0  0  0  0  0  0  0  0
   39.9020   32.6180   40.2300 C   0  0  0  0  0  0  0  0  0  0  0  0
   39.4590   31.3590   40.2220 N   0  0  0  0  0  0  0  0  0  0  0  0
   36.1730   32.0390   39.8110 H   0  0  0  0  0  0  0  0  0  0  0  0
   37.0280   34.3070   39.8310 H   0  0  0  0  0  0  0  0  0  0  0  0
   40.9520   32.8000   40.3470 H   0  0  0  0  0  0  0  0  0  0  0  0
   37.5440   29.8220   40.0510 C   0  0  0  0  0  0  0  0  0  0  0  0
   37.1040   29.2440   39.0050 O   0  0  0  0  0  0  0  0  0  0  0  0
   37.3350   28.9730   41.1960 N   0  0  0  0  0  0  0  0  0  0  0  0
   37.0270   27.6320   40.8390 C   0  0  0  0  0  2  0  0  0  0  0  0
   37.0430   26.6620   41.9890 C   0  0  0  0  0  2  0  0  0  0  0  0
   36.6600   27.3220   43.3000 C   0  0  0  0  0  3  0  0  0  0  0  0
   36.6510   26.5510   44.0740 H   0  0  0  0  0  0  0  0  0  0  0  0
   37.7480   28.3810   43.5180 C   0  0  0  0  0  2  0  0  0  0  0  0
   37.4380   29.4850   42.5240 C   0  0  0  0  0  2  0  0  0  0  0  0
  1  6  1  0  0  0  0
  2  3  1  0  0  0  0
  2  1  2  0  0  0  0
  3  4  2  0  0  0  0
  4  5  1  0  0  0  0
  5  9  1  0  0  0  0
  6  5  2  0  0  0  0
  7  2  1  0  0  0  0
  8  3  1  0  0  0  0
 10  1  1  0  0  0  0
 10 12  1  0  0  0  0
 11 10  2  0  0  0  0
 12 18  1  0  0  0  0
 13 12  1  0  0  0  0
 13 14  1  0  0  0  0
 14 15  1  0  0  0  0
 15 17  1  0  0  0  0
 15 16  1  0  0  0  0
 18 17  1  0  0  0  0
M  END
>  <minimizedAffinity>
-4.39257193

$$$$

 OpenBabel03242512353D

 18 19  0  0  0  0  0  0  0  0999 V2000
   37.3380   29.3440   41.8180 C   0  0  0  0  0  0  0  0  0  0  0  0
   37.0750   28.2120   41.0180 C   0  0  0  0  0  0  0  0  0  0  0  0
   37.2530   26.9500   41.5770 C   0  0  0  0  0  0  0  0  0  0  0  0
   37.6740   26.8950   42.8710 N   0  0  0  0  0  0  0  0  0  0  0  0
   37.9160   27.9890   43.6020 C   0  0  0  0  0  0  0  0  0  0  0  0
   37.7500   29.2070   43.0830 N   0  0  0  0  0  0  0  0  0  0  0  0
   36.7430   28.2530   40.0000 H   0  0  0  0  0  0  0  0  0  0  0  0
   37.0590   26.0630   40.9890 H   0  0  0  0  0  0  0  0  0  0  0  0
   38.2460   27.8960   44.6180 H   0  0  0  0  0  0  0  0  0  0  0  0
   37.1210   30.5800   41.1390 C   0  0  0  0  0  0  0  0  0  0  0  0
   35.9790   31.0530   40.8320 O   0  0  0  0  0  0  0  0  0  0  0  0
   38.1520   31.4840   40.6980 N   0  0  0  0  0  0  0  0  0  0  0  0
   37.6500   32.7710   40.3640 C   0  0  0  0  0  2  0  0  0  0  0  0
   38.7100   33.8140   40.1370 C   0  0  0  0  0  2  0  0  0  0  0  0
   39.9950   33.2160   39.5970 C   0  0  0  0  0  3  0  0  0  0  0  0
   40.6970   34.0320   39.4160 H   0  0  0  0  0  0  0  0  0  0  0  0
   40.4570   32.2580   40.7030 C   0  0  0  0  0  2  0  0  0  0  0  0
   39.5160   31.0710   40.6240 C   0  0  0  0  0  2  0  0  0  0  0  0
  1  6  1  0  0  0  0
  2  3  1  0  0  0  0
  2  1  2  0  0  0  0
  3  4  2  0  0  0  0
  4  5  1  0  0  0  0
  5  9  1  0  0  0  0
  6  5  2  0  0  0  0
  7  2  1  0  0  0  0
  8  3  1  0  0  0  0
 10  1  1  0  0  0  0
 11 10  2  0  0  0  0
 12 10  1  0  0  0  0
 13 12  1  0  0  0  0
 14 13  1  0  0  0  0
 15 14  1  0  0  0  0
 15 17  1  0  0  0  0
 16 15  1  0  0  0  0
 18 12  1  0  0  0  0
 18 17  1  0  0  0  0
M  END
>  <minimizedAffinity>
-4.14704323

$$$$

 OpenBabel03242512353D

 18 19  0  0  0  0  0  0  0  0999 V2000
   38.4880   32.1350   39.2540 C   0  0  0  0  0  0  0  0  0  0  0  0
   38.0480   33.4040   39.6890 C   0  0  0  0  0  0  0  0  0  0  0  0
   38.8970   34.1590   40.4910 C   0  0  0  0  0  0  0  0  0  0  0  0
   40.1060   33.6170   40.8050 N   0  0  0  0  0  0  0  0  0  0  0  0
   40.4920   32.4100   40.3760 C   0  0  0  0  0  0  0  0  0  0  0  0
   39.6920   31.6710   39.6050 N   0  0  0  0  0  0  0  0  0  0  0  0
   37.0980   33.8320   39.4430 H   0  0  0  0  0  0  0  0  0  0  0  0
   38.5890   35.1360   40.8400 H   0  0  0  0  0  0  0  0  0  0  0  0
   41.4550   32.0240   40.6490 H   0  0  0  0  0  0  0  0  0  0  0  0
   37.5350   31.4550   38.4380 C   0  0  0  0  0  0  0  0  0  0  0  0
   37.4690   31.5380   37.1690 O   0  0  0  0  0  0  0  0  0  0  0  0
   36.5050   30.5690   38.9180 N   0  0  0  0  0  0  0  0  0  0  0  0
   35.9310   29.7810   37.8850 C   0  0  0  0  0  2  0  0  0  0  0  0
   35.0320   28.6760   38.3700 C   0  0  0  0  0  2  0  0  0  0  0  0
   34.3480   29.0270   39.6770 C   0  0  0  0  0  3  0  0  0  0  0  0
   33.6840   28.2020   39.9410 H   0  0  0  0  0  0  0  0  0  0  0  0
   35.5040   29.2110   40.6690 C   0  0  0  0  0  2  0  0  0  0  0  0
   36.1430   30.5360   40.2980 C   0  0  0  0  0  2  0  0  0  0  0  0
  1  6  2  0  0  0  0
  1  2  1  0  0  0  0
  2  3  2  0  0  0  0
  3  4  1  0  0  0  0
  3  8  1  0  0  0  0
  5  9  1  0  0  0  0
  5  4  2  0  0  0  0
  6  5  1  0  0  0  0
  7  2  1  0  0  0  0
 10 12  1  0  0  0  0
 10  1  1  0  0  0  0
 11 10  2  0  0  0  0
 12 18  1  0  0  0  0
 13 14  1  0  0  0  0
 13 12  1  0  0  0  0
 14 15  1  0  0  0  0
 15 16  1  0  0  0  0
 15 17  1  0  0  0  0
 18 17  1  0  0  0  0
M  END
>  <minimizedAffinity>
-4.08095264

$$$$

 OpenBabel03242512353D

 18 19  0  0  0  0  0  0  0  0999 V2000
   39.4530   27.3200   42.3250 C   0  0  0  0  0  0  0  0  0  0  0  0
   39.3430   26.5410   43.4970 C   0  0  0  0  0  0  0  0  0  0  0  0
   40.0890   25.3710   43.5870 C   0  0  0  0  0  0  0  0  0  0  0  0
   40.8820   25.0530   42.5260 N   0  0  0  0  0  0  0  0  0  0  0  0
   40.9630   25.8140   41.4280 C   0  0  0  0  0  0  0  0  0  0  0  0
   40.2550   26.9410   41.3250 N   0  0  0  0  0  0  0  0  0  0  0  0
   38.7200   26.7900   44.3330 H   0  0  0  0  0  0  0  0  0  0  0  0
   40.0270   24.7530   44.4720 H   0  0  0  0  0  0  0  0  0  0  0  0
   41.6020   25.5240   40.6170 H   0  0  0  0  0  0  0  0  0  0  0  0
   38.6430   28.4950   42.3480 C   0  0  0  0  0  0  0  0  0  0  0  0
   38.8670   29.5220   43.0670 O   0  0  0  0  0  0  0  0  0  0  0  0
   37.4530   28.7050   41.5640 N   0  0  0  0  0  0  0  0  0  0  0  0
   37.0490   30.0670   41.5310 C   0  0  0  0  0  2  0  0  0  0  0  0
   35.9640   30.3710   40.5340 C   0  0  0  0  0  2  0  0  0  0  0  0
   35.0440   29.1860   40.3100 C   0  0  0  0  0  3  0  0  0  0  0  0
   34.2620   29.4940   39.6130 H   0  0  0  0  0  0  0  0  0  0  0  0
   35.9640   28.0990   39.7400 C   0  0  0  0  0  2  0  0  0  0  0  0
   36.7940   27.6180   40.9160 C   0  0  0  0  0  2  0  0  0  0  0  0
  1 10  1  0  0  0  0
  1  2  1  0  0  0  0
  2  3  2  0  0  0  0
  2  7  1  0  0  0  0
  3  8  1  0  0  0  0
  4  3  1  0  0  0  0
  5  4  2  0  0  0  0
  6  5  1  0  0  0  0
  6  1  2  0  0  0  0
  9  5  1  0  0  0  0
 10 11  2  0  0  0  0
 12 10  1  0  0  0  0
 13 12  1  0  0  0  0
 14 13  1  0  0  0  0
 15 14  1  0  0  0  0
 16 15  1  0  0  0  0
 17 15  1  0  0  0  0
 17 18  1  0  0  0  0
 18 12  1  0  0  0  0
M  END
>  <minimizedAffinity>
-4.04215622

$$$$

 OpenBabel03242512353D

 18 19  0  0  0  0  0  0  0  0999 V2000
   38.5020   31.1780   40.1770 C   0  0  0  0  0  0  0  0  0  0  0  0
   39.2540   32.1520   40.8690 C   0  0  0  0  0  0  0  0  0  0  0  0
   38.8950   33.4880   40.7290 C   0  0  0  0  0  0  0  0  0  0  0  0
   37.8330   33.7680   39.9240 N   0  0  0  0  0  0  0  0  0  0  0  0
   37.1410   32.8200   39.2810 C   0  0  0  0  0  0  0  0  0  0  0  0
   37.4700   31.5330   39.4040 N   0  0  0  0  0  0  0  0  0  0  0  0
   40.0900   31.9340   41.5030 H   0  0  0  0  0  0  0  0  0  0  0  0
   39.4520   34.2580   41.2470 H   0  0  0  0  0  0  0  0  0  0  0  0
   36.3100   33.0890   38.6580 H   0  0  0  0  0  0  0  0  0  0  0  0
   38.9610   29.8460   40.3980 C   0  0  0  0  0  0  0  0  0  0  0  0
   39.7810   29.2230   39.6480 O   0  0  0  0  0  0  0  0  0  0  0  0
   38.5760   29.0000   41.4990 N   0  0  0  0  0  0  0  0  0  0  0  0
   39.4300   27.8750   41.6540 C   0  0  0  0  0  2  0  0  0  0  0  0
   39.2190   27.1020   42.9280 C   0  0  0  0  0  2  0  0  0  0  0  0
   37.7830   27.1760   43.4100 C   0  0  0  0  0  3  0  0  0  0  0  0
   37.6970   26.5600   44.3070 H   0  0  0  0  0  0  0  0  0  0  0  0
   37.5530   28.6690   43.6800 C   0  0  0  0  0  2  0  0  0  0  0  0
   37.4440   29.3120   42.3100 C   0  0  0  0  0  2  0  0  0  0  0  0
  1 10  1  0  0  0  0
  1  2  1  0  0  0  0
  2  7  1  0  0  0  0
  3  2  2  0  0  0  0
  3  8  1  0  0  0  0
  4  3  1  0  0  0  0
  5  6  1  0  0  0  0
  5  4  2  0  0  0  0
  6  1  2  0  0  0  0
  9  5  1  0  0  0  0
 10 12  1  0  0  0  0
 11 10  2  0  0  0  0
 12 13  1  0  0  0  0
 12 18  1  0  0  0  0
 13 14  1  0  0  0  0
 14 15  1  0  0  0  0
 15 17  1  0  0  0  0
 15 16  1  0  0  0  0
 18 17  1  0  0  0  0
M  END
>  <minimizedAffinity>
-4.0242548

$$$$

 OpenBabel03242512353D

 18 19  0  0  0  0  0  0  0  0999 V2000
   37.4970   29.0210   41.8700 C   0  0  0  0  0  0  0  0  0  0  0  0
   36.6150   27.9280   42.0050 C   0  0  0  0  0  0  0  0  0  0  0  0
   37.0220   26.8400   42.7700 C   0  0  0  0  0  0  0  0  0  0  0  0
   38.2560   26.9050   43.3420 N   0  0  0  0  0  0  0  0  0  0  0  0
   39.0690   27.9580   43.1930 C   0  0  0  0  0  0  0  0  0  0  0  0
   38.6950   29.0110   42.4630 N   0  0  0  0  0  0  0  0  0  0  0  0
   35.6430   27.8740   41.5560 H   0  0  0  0  0  0  0  0  0  0  0  0
   36.3680   25.9860   42.8930 H   0  0  0  0  0  0  0  0  0  0  0  0
   40.0330   27.9650   43.6630 H   0  0  0  0  0  0  0  0  0  0  0  0
   36.9720   30.0750   41.0640 C   0  0  0  0  0  0  0  0  0  0  0  0
   36.1420   30.9550   41.4640 O   0  0  0  0  0  0  0  0  0  0  0  0
   37.2970   30.3120   39.6810 N   0  0  0  0  0  0  0  0  0  0  0  0
   36.9030   31.6020   39.2350 C   0  0  0  0  0  2  0  0  0  0  0  0
   37.4370   31.9840   37.8810 C   0  0  0  0  0  2  0  0  0  0  0  0
   37.6350   30.7780   36.9830 C   0  0  0  0  0  3  0  0  0  0  0  0
   37.9790   31.1360   36.0110 H   0  0  0  0  0  0  0  0  0  0  0  0
   38.6810   29.9300   37.7180 C   0  0  0  0  0  2  0  0  0  0  0  0
   37.9450   29.3140   38.8930 C   0  0  0  0  0  2  0  0  0  0  0  0
  1  2  2  0  0  0  0
  1  6  1  0  0  0  0
  2  3  1  0  0  0  0
  3  8  1  0  0  0  0
  3  4  2  0  0  0  0
  5  4  1  0  0  0  0
  5  9  1  0  0  0  0
  6  5  2  0  0  0  0
  7  2  1  0  0  0  0
 10 11  2  0  0  0  0
 10  1  1  0  0  0  0
 12 10  1  0  0  0  0
 13 12  1  0  0  0  0
 14 13  1  0  0  0  0
 15 17  1  0  0  0  0
 15 14  1  0  0  0  0
 16 15  1  0  0  0  0
 17 18  1  0  0  0  0
 18 12  1  0  0  0  0
M  END
>  <minimizedAffinity>
-4.00419569

$$$$

 OpenBabel03242512353D

 18 19  0  0  0  0  0  0  0  0999 V2000
   38.9730   30.7990   40.2120 C   0  0  0  0  0  0  0  0  0  0  0  0
   37.8280   31.5210   39.8110 C   0  0  0  0  0  0  0  0  0  0  0  0
   37.8130   32.0850   38.5400 C   0  0  0  0  0  0  0  0  0  0  0  0
   38.9150   31.9010   37.7620 N   0  0  0  0  0  0  0  0  0  0  0  0
   39.9850   31.2110   38.1730 C   0  0  0  0  0  0  0  0  0  0  0  0
   40.0180   30.6620   39.3890 N   0  0  0  0  0  0  0  0  0  0  0  0
   36.9600   31.6670   40.4220 H   0  0  0  0  0  0  0  0  0  0  0  0
   36.9500   32.6440   38.2030 H   0  0  0  0  0  0  0  0  0  0  0  0
   40.8310   31.0920   37.5240 H   0  0  0  0  0  0  0  0  0  0  0  0
   38.8740   30.2680   41.5320 C   0  0  0  0  0  0  0  0  0  0  0  0
   39.3560   30.8140   42.5770 O   0  0  0  0  0  0  0  0  0  0  0  0
   38.2140   29.0390   41.8910 N   0  0  0  0  0  0  0  0  0  0  0  0
   37.9760   28.9280   43.2880 C   0  0  0  0  0  2  0  0  0  0  0  0
   37.0780   27.7870   43.6800 C   0  0  0  0  0  2  0  0  0  0  0  0
   37.1920   26.6150   42.7230 C   0  0  0  0  0  3  0  0  0  0  0  0
   36.5490   25.8140   43.0940 H   0  0  0  0  0  0  0  0  0  0  0  0
   36.7280   27.1840   41.3760 C   0  0  0  0  0  2  0  0  0  0  0  0
   37.8640   28.0710   40.9020 C   0  0  0  0  0  2  0  0  0  0  0  0
  1 10  1  0  0  0  0
  2  1  1  0  0  0  0
  2  7  1  0  0  0  0
  3  2  2  0  0  0  0
  4  5  2  0  0  0  0
  4  3  1  0  0  0  0
  5  6  1  0  0  0  0
  6  1  2  0  0  0  0
  8  3  1  0  0  0  0
  9  5  1  0  0  0  0
 10 12  1  0  0  0  0
 10 11  2  0  0  0  0
 12 13  1  0  0  0  0
 13 14  1  0  0  0  0
 15 16  1  0  0  0  0
 15 14  1  0  0  0  0
 17 15  1  0  0  0  0
 18 17  1  0  0  0  0
 18 12  1  0  0  0  0
M  END
>  <minimizedAffinity>
-3.98211336

$$$$
