
     RDKit          3D

 31 32  0  0  0  0  0  0  0  0999 V2000
   45.3020   34.5572   45.0311 C   0  0  0  0  0  0  0  0  0  0  0  0
   45.2727   33.9351   46.2643 C   0  0  0  0  0  0  0  0  0  0  0  0
   46.1685   32.9060   46.4800 C   0  0  0  0  0  0  0  0  0  0  0  0
   47.0012   32.5841   45.4805 N   0  0  0  0  0  0  0  0  0  0  0  0
   47.0129   33.2022   44.2888 C   0  0  0  0  0  0  0  0  0  0  0  0
   46.1546   34.2103   44.0403 N   0  0  0  0  0  0  0  0  0  0  0  0
   43.9766   35.3850   43.2952 C   0  0  0  0  0  0  0  0  0  0  0  0
   44.4097   34.2908   42.8427 O   0  0  0  0  0  0  0  0  0  0  0  0
   44.4444   35.6542   44.6133 N   0  0  0  0  0  0  0  0  0  0  0  0
   44.3113   34.4261   47.1928 N   0  0  0  0  0  0  0  0  0  0  0  0
   46.1277   32.4338   47.4520 H   0  0  0  0  0  0  0  0  0  0  0  0
   47.7261   32.8797   43.5209 H   0  0  0  0  0  0  0  0  0  0  0  0
   44.1756   36.5061   45.1207 H   0  0  0  0  0  0  0  0  0  0  0  0
   44.6674   34.7571   48.1170 H   0  0  0  0  0  0  0  0  0  0  0  0
   43.2799   34.4996   47.0682 H   0  0  0  0  0  0  0  0  0  0  0  0
   43.1145   36.2827   42.6019 N   0  0  0  0  0  0  0  0  0  0  0  0
   41.7200   35.9933   42.4412 C   0  0  0  0  0  0  0  0  0  0  0  0
   40.9907   37.3311   42.6048 C   0  0  0  0  0  0  0  0  0  0  0  0
   41.3740   38.2885   41.5112 C   0  0  0  0  0  0  0  0  0  0  0  0
   41.2284   39.3272   41.8801 H   0  0  0  0  0  0  0  0  0  0  0  0
   42.7703   38.1105   41.0070 C   0  0  0  0  0  0  0  0  0  0  0  0
   43.6974   37.4975   42.0655 C   0  0  0  0  0  0  0  0  0  0  0  0
   41.3235   35.2829   43.1792 H   0  0  0  0  0  0  0  0  0  0  0  0
   41.5145   35.6236   41.4035 H   0  0  0  0  0  0  0  0  0  0  0  0
   41.3394   37.7477   43.5894 H   0  0  0  0  0  0  0  0  0  0  0  0
   39.9107   37.1942   42.6946 H   0  0  0  0  0  0  0  0  0  0  0  0
   40.6708   38.0849   40.6507 H   0  0  0  0  0  0  0  0  0  0  0  0
   43.2232   39.1101   40.8012 H   0  0  0  0  0  0  0  0  0  0  0  0
   42.8614   37.4947   40.0927 H   0  0  0  0  0  0  0  0  0  0  0  0
   43.8368   38.1884   42.9162 H   0  0  0  0  0  0  0  0  0  0  0  0
   44.6592   37.3063   41.5380 H   0  0  0  0  0  0  0  0  0  0  0  0
  1  2  2  0
  2  3  1  0
  2 10  1  0
  4  3  2  0
  5  4  1  0
  6  5  2  0
  6  1  1  0
  7  9  1  0
  8  7  2  0
  9  1  1  0
  3 11  1  0
  5 12  1  0
  9 13  1  0
 10 14  1  0
 10 15  1  0
 16 17  1  0
 17 18  1  0
 18 19  1  0
 19 20  1  0
 19 21  1  0
 21 22  1  0
 22 16  1  0
 17 23  1  0
 17 24  1  0
 18 25  1  0
 18 26  1  0
 19 27  1  0
 21 28  1  0
 21 29  1  0
 22 30  1  0
 22 31  1  0
  7 16  1  0
M  ISO  3  11  14  12  14  20  15
M  END
>  <DihAtoms>  (1) 
8,6,15,16

>  <DihDeg>  (1) 
-179.99861045120247

$$$$
