
     RDKit          3D

 27 28  0  0  0  0  0  0  0  0999 V2000
   44.5236   35.9093   44.6675 C   0  0  0  0  0  0  0  0  0  0  0  0
   45.1545   35.8941   43.4193 C   0  0  0  0  0  0  0  0  0  0  0  0
   46.0715   34.8612   43.2020 C   0  0  0  0  0  0  0  0  0  0  0  0
   46.2815   33.9640   44.1962 N   0  0  0  0  0  0  0  0  0  0  0  0
   45.6605   34.0071   45.3805 C   0  0  0  0  0  0  0  0  0  0  0  0
   44.7717   34.9977   45.6075 N   0  0  0  0  0  0  0  0  0  0  0  0
   45.8850   33.0473   46.4441 C   0  0  0  0  0  0  0  0  0  0  0  0
   45.1598   33.0093   47.4819 O   0  0  0  0  0  0  0  0  0  0  0  0
   43.7984   36.6979   44.8835 H   0  0  0  0  0  0  0  0  0  0  0  0
   44.9395   36.6321   42.6866 H   0  0  0  0  0  0  0  0  0  0  0  0
   46.5924   34.7982   42.2512 H   0  0  0  0  0  0  0  0  0  0  0  0
   46.9505   32.1110   46.3336 N   0  0  0  0  0  0  0  0  0  0  0  0
   48.1631   32.4544   45.5917 C   0  0  0  0  0  0  0  0  0  0  0  0
   49.1395   31.2897   45.7086 C   0  0  0  0  0  0  0  0  0  0  0  0
   49.3839   30.9129   47.1339 C   0  0  0  0  0  0  0  0  0  0  0  0
   50.0297   29.9999   47.1110 H   0  0  0  0  0  0  0  0  0  0  0  0
   48.0857   30.5498   47.8145 C   0  0  0  0  0  0  0  0  0  0  0  0
   46.8705   30.7980   46.9466 C   0  0  0  0  0  0  0  0  0  0  0  0
   48.6268   33.3371   46.0607 H   0  0  0  0  0  0  0  0  0  0  0  0
   47.9818   32.5676   44.5023 H   0  0  0  0  0  0  0  0  0  0  0  0
   50.0504   31.5813   45.1900 H   0  0  0  0  0  0  0  0  0  0  0  0
   48.7190   30.4009   45.1920 H   0  0  0  0  0  0  0  0  0  0  0  0
   49.9703   31.6872   47.6835 H   0  0  0  0  0  0  0  0  0  0  0  0
   48.0214   31.2041   48.7110 H   0  0  0  0  0  0  0  0  0  0  0  0
   48.0767   29.4871   48.1182 H   0  0  0  0  0  0  0  0  0  0  0  0
   45.9815   30.7729   47.5816 H   0  0  0  0  0  0  0  0  0  0  0  0
   46.7933   29.9930   46.1867 H   0  0  0  0  0  0  0  0  0  0  0  0
  1  6  2  0
  2  1  1  0
  3  2  2  0
  3  4  1  0
  4  5  2  0
  5  6  1  0
  5  7  1  0
  7  8  2  0
  1  9  1  0
  2 10  1  0
  3 11  1  0
 12 13  1  0
 13 14  1  0
 14 15  1  0
 15 16  1  0
 15 17  1  0
 17 18  1  0
 18 12  1  0
 13 19  1  0
 13 20  1  0
 14 21  1  0
 14 22  1  0
 15 23  1  0
 17 24  1  0
 17 25  1  0
 18 26  1  0
 18 27  1  0
  7 12  1  0
M  ISO  4   9  14  10  14  11  14  16  15
M  END
>  <DihAtoms>  (1) 
4,6,11,12

>  <DihDeg>  (1) 
0.001934799309010327

$$$$
