
 OpenBabel03252500063D

 47 50  0  0  0  0  0  0  0  0999 V2000
   44.6370   35.1390   45.2110 C   0  0  0  0  0  0  0  0  0  0  0  0
   45.2410   35.3030   43.9710 C   0  0  0  0  0  0  0  0  0  0  0  0
   46.3150   34.4820   43.6230 C   0  0  0  0  0  0  0  0  0  0  0  0
   46.6550   33.5810   44.5790 N   0  0  0  0  0  0  0  0  0  0  0  0
   46.0810   33.4340   45.7400 C   0  0  0  0  0  0  0  0  0  0  0  0
   45.0730   34.2200   46.0440 N   0  0  0  0  0  0  0  0  0  0  0  0
   43.8190   35.7730   45.4630 H   0  0  0  0  0  0  0  0  0  0  0  0
   47.0370   34.5220   42.4030 C   0  0  0  0  0  0  0  0  0  0  0  0
   47.9800   35.5430   42.2680 C   0  0  0  0  0  0  0  0  0  0  0  0
   48.7690   35.7360   41.1580 C   0  0  0  0  0  0  0  0  0  0  0  0
   48.6600   34.9030   40.0960 C   0  0  0  0  0  0  0  0  0  0  0  0
   47.7530   33.8780   40.1600 C   0  0  0  0  0  0  0  0  0  0  0  0
   47.5940   33.0050   39.1270 C   0  0  0  0  0  0  0  0  0  0  0  0
   46.6930   31.9650   39.1530 C   0  0  0  0  0  0  0  0  0  0  0  0
   45.9140   31.8170   40.3130 C   0  0  0  0  0  0  0  0  0  0  0  0
   46.1140   32.7280   41.3340 C   0  0  0  0  0  0  0  0  0  0  0  0
   46.9840   33.7300   41.3030 C   0  0  0  0  0  0  0  0  0  0  0  0
   48.1450   36.2740   43.0760 H   0  0  0  0  0  0  0  0  0  0  0  0
   49.4850   36.5420   41.1030 H   0  0  0  0  0  0  0  0  0  0  0  0
   49.2710   35.0380   39.2160 H   0  0  0  0  0  0  0  0  0  0  0  0
   48.2110   33.1430   38.2400 H   0  0  0  0  0  0  0  0  0  0  0  0
   46.5980   31.2950   38.3110 H   0  0  0  0  0  0  0  0  0  0  0  0
   45.2390   31.0030   40.2820 H   0  0  0  0  0  0  0  0  0  0  0  0
   45.2270   32.4310   42.4220 N   0  0  0  0  0  0  0  0  0  0  0  0
   45.7160   31.6530   42.9570 H   0  0  0  0  0  0  0  0  0  0  0  0
   44.3220   32.7870   42.7320 H   0  0  0  0  0  0  0  0  0  0  0  0
   46.6720   32.3480   46.5930 C   0  0  0  0  0  0  0  0  0  0  0  0
   45.6950   31.5830   47.1830 F   0  0  0  0  0  0  0  0  0  0  0  0
   47.5100   32.8770   47.5400 F   0  0  0  0  0  0  0  0  0  0  0  0
   47.5140   31.5430   45.7910 F   0  0  0  0  0  0  0  0  0  0  0  0
   44.8440   36.2810   42.9660 C   0  0  0  0  0  0  0  0  0  0  0  0
   45.6420   37.0640   42.9050 H   0  0  0  0  0  0  0  0  0  0  0  0
   43.9340   36.8630   43.2850 H   0  0  0  0  0  0  0  0  0  0  0  0
   44.5630   35.7740   41.6120 C   0  0  0  0  0  0  0  0  0  0  0  0
   44.2850   36.7100   41.0230 H   0  0  0  0  0  0  0  0  0  0  0  0
   45.2800   35.2930   41.0120 H   0  0  0  0  0  0  0  0  0  0  0  0
   42.7620   34.3620   40.5480 C   0  0  0  0  0  0  0  0  0  0  0  0
   43.5210   34.2360   39.5230 O   0  0  0  0  0  0  0  0  0  0  0  0
   43.2420   35.0850   41.6830 N   0  0  0  0  0  0  0  0  0  0  0  0
   42.6150   35.0830   42.5180 H   0  0  0  0  0  0  0  0  0  0  0  0
   41.4490   33.7900   40.5670 N   0  0  0  0  0  0  0  0  0  0  0  0
   40.8600   32.7990   39.6970 C   0  0  0  0  0  0  0  0  0  0  0  0
   40.5750   31.5600   40.5570 C   0  0  0  0  0  0  0  0  0  0  0  0
   39.7590   31.9250   41.7750 C   0  0  0  0  0  0  0  0  0  0  0  0
   38.9140   31.2170   41.9150 H   0  0  0  0  0  0  0  0  0  0  0  0
   39.3130   33.3580   41.6810 C   0  0  0  0  0  0  0  0  0  0  0  0
   40.5240   34.2370   41.5960 C   0  0  0  0  0  0  0  0  0  0  0  0
  1  7  1  0  0  0  0
  1  6  1  0  0  0  0
  2  1  2  0  0  0  0
  3  2  1  0  0  0  0
  3  4  2  0  0  0  0
  4  5  1  0  0  0  0
  5  6  2  0  0  0  0
  5 27  1  0  0  0  0
  8  3  1  0  0  0  0
  9  8  1  0  0  0  0
  9 18  1  0  0  0  0
 10  9  2  0  0  0  0
 11 12  2  0  0  0  0
 11 10  1  0  0  0  0
 12 17  1  0  0  0  0
 13 14  2  0  0  0  0
 13 12  1  0  0  0  0
 14 15  1  0  0  0  0
 15 16  2  0  0  0  0
 16 24  1  0  0  0  0
 17 16  1  0  0  0  0
 17  8  2  0  0  0  0
 19 10  1  0  0  0  0
 20 11  1  0  0  0  0
 21 13  1  0  0  0  0
 22 14  1  0  0  0  0
 23 15  1  0  0  0  0
 24 26  1  0  0  0  0
 24 25  1  0  0  0  0
 27 28  1  0  0  0  0
 27 29  1  0  0  0  0
 30 27  1  0  0  0  0
 31 33  1  0  0  0  0
 31  2  1  0  0  0  0
 32 31  1  0  0  0  0
 34 39  1  0  0  0  0
 34 31  1  0  0  0  0
 35 34  1  0  0  0  0
 36 34  1  0  0  0  0
 37 41  1  0  0  0  0
 37 39  1  0  0  0  0
 38 37  2  0  0  0  0
 39 40  1  0  0  0  0
 41 47  1  0  0  0  0
 42 43  1  0  0  0  0
 42 41  1  0  0  0  0
 43 44  1  0  0  0  0
 44 45  1  0  0  0  0
 46 44  1  0  0  0  0
 47 46  1  0  0  0  0
M  END
>  <minimizedAffinity>
-7.05266857

>  <minimizedRMSD>
1.57538128

$$$$
