
     RDKit          3D

 29 30  0  0  0  0  0  0  0  0999 V2000
   44.5328   36.0452   44.5582 C   0  0  0  0  0  0  0  0  0  0  0  0
   45.2463   36.0065   43.3524 C   0  0  0  0  0  0  0  0  0  0  0  0
   46.1321   34.9551   43.1495 C   0  0  0  0  0  0  0  0  0  0  0  0
   46.2847   34.0021   44.1100 N   0  0  0  0  0  0  0  0  0  0  0  0
   45.5759   34.0714   45.2680 C   0  0  0  0  0  0  0  0  0  0  0  0
   44.7089   35.0811   45.4917 N   0  0  0  0  0  0  0  0  0  0  0  0
   46.3947   34.2017   40.7856 C   0  0  0  0  0  0  0  0  0  0  0  0
   45.2126   33.7351   40.9408 O   0  0  0  0  0  0  0  0  0  0  0  0
   46.8960   34.8428   41.9497 N   0  0  0  0  0  0  0  0  0  0  0  0
   43.8526   36.8817   44.6765 H   0  0  0  0  0  0  0  0  0  0  0  0
   45.1544   36.7428   42.5646 H   0  0  0  0  0  0  0  0  0  0  0  0
   45.7294   33.2945   45.9998 H   0  0  0  0  0  0  0  0  0  0  0  0
   47.8498   35.2460   41.9346 H   0  0  0  0  0  0  0  0  0  0  0  0
   47.1228   34.0844   39.5674 N   0  0  0  0  0  0  0  0  0  0  0  0
   46.4974   34.3536   38.3134 C   0  0  0  0  0  0  0  0  0  0  0  0
   47.4165   34.7012   37.1959 C   0  0  0  0  0  0  0  0  0  0  0  0
   48.6196   33.7858   37.2519 C   0  0  0  0  0  0  0  0  0  0  0  0
   49.2767   33.8860   36.3554 H   0  0  0  0  0  0  0  0  0  0  0  0
   49.3554   34.1380   38.5269 C   0  0  0  0  0  0  0  0  0  0  0  0
   48.5150   33.6814   39.6797 C   0  0  0  0  0  0  0  0  0  0  0  0
   45.7677   35.2080   38.4247 H   0  0  0  0  0  0  0  0  0  0  0  0
   45.8896   33.4731   38.0206 H   0  0  0  0  0  0  0  0  0  0  0  0
   47.7862   35.7494   37.2398 H   0  0  0  0  0  0  0  0  0  0  0  0
   46.8883   34.4797   36.2454 H   0  0  0  0  0  0  0  0  0  0  0  0
   48.2338   32.7466   37.3903 H   0  0  0  0  0  0  0  0  0  0  0  0
   50.3005   33.5960   38.5298 H   0  0  0  0  0  0  0  0  0  0  0  0
   49.5692   35.2114   38.5322 H   0  0  0  0  0  0  0  0  0  0  0  0
   48.4824   32.5542   39.6111 H   0  0  0  0  0  0  0  0  0  0  0  0
   48.9413   33.9351   40.6689 H   0  0  0  0  0  0  0  0  0  0  0  0
  1  6  2  0
  2  1  1  0
  3  2  2  0
  3  4  1  0
  4  5  2  0
  5  6  1  0
  7  8  2  0
  7  9  1  0
  9  3  1  0
  1 10  1  0
  2 11  1  0
  5 12  1  0
  9 13  1  0
 14 15  1  0
 15 16  1  0
 16 17  1  0
 17 18  1  0
 17 19  1  0
 19 20  1  0
 20 14  1  0
 15 21  1  0
 15 22  1  0
 16 23  1  0
 16 24  1  0
 17 25  1  0
 19 26  1  0
 19 27  1  0
 20 28  1  0
 20 29  1  0
  7 14  1  0
M  ISO  4  10  14  11  14  12  14  18  15
M  END
>  <DihAtoms>  (1) 
7,6,13,14

>  <DihDeg>  (1) 
-179.99861423340718

$$$$
