
     RDKit          3D

 29 30  0  0  0  0  0  0  0  0999 V2000
   44.5328   36.0452   44.5582 C   0  0  0  0  0  0  0  0  0  0  0  0
   45.2463   36.0065   43.3524 C   0  0  0  0  0  0  0  0  0  0  0  0
   46.1321   34.9551   43.1495 C   0  0  0  0  0  0  0  0  0  0  0  0
   46.2847   34.0021   44.1100 N   0  0  0  0  0  0  0  0  0  0  0  0
   45.5759   34.0714   45.2680 C   0  0  0  0  0  0  0  0  0  0  0  0
   44.7089   35.0811   45.4917 N   0  0  0  0  0  0  0  0  0  0  0  0
   46.3947   34.2017   40.7856 C   0  0  0  0  0  0  0  0  0  0  0  0
   45.2126   33.7351   40.9408 O   0  0  0  0  0  0  0  0  0  0  0  0
   46.8960   34.8428   41.9497 N   0  0  0  0  0  0  0  0  0  0  0  0
   43.8526   36.8817   44.6765 H   0  0  0  0  0  0  0  0  0  0  0  0
   45.1544   36.7428   42.5646 H   0  0  0  0  0  0  0  0  0  0  0  0
   45.7294   33.2945   45.9998 H   0  0  0  0  0  0  0  0  0  0  0  0
   47.8498   35.2460   41.9346 H   0  0  0  0  0  0  0  0  0  0  0  0
   47.1228   34.0844   39.5674 N   0  0  0  0  0  0  0  0  0  0  0  0
   46.5541   33.4254   38.4367 C   0  0  0  0  0  0  0  0  0  0  0  0
   47.1379   33.7895   37.1172 C   0  0  0  0  0  0  0  0  0  0  0  0
   48.6418   33.8747   37.2567 C   0  0  0  0  0  0  0  0  0  0  0  0
   49.1576   33.9924   36.2739 H   0  0  0  0  0  0  0  0  0  0  0  0
   48.9120   35.0477   38.1743 C   0  0  0  0  0  0  0  0  0  0  0  0
   48.4547   34.6665   39.5489 C   0  0  0  0  0  0  0  0  0  0  0  0
   45.4471   33.6414   38.3840 H   0  0  0  0  0  0  0  0  0  0  0  0
   46.6417   32.3290   38.5803 H   0  0  0  0  0  0  0  0  0  0  0  0
   46.7777   34.7686   36.7315 H   0  0  0  0  0  0  0  0  0  0  0  0
   46.9271   32.9561   36.4153 H   0  0  0  0  0  0  0  0  0  0  0  0
   48.9713   32.9621   37.8103 H   0  0  0  0  0  0  0  0  0  0  0  0
   49.9870   35.2245   38.1856 H   0  0  0  0  0  0  0  0  0  0  0  0
   48.4168   35.9375   37.7734 H   0  0  0  0  0  0  0  0  0  0  0  0
   49.1297   33.8217   39.8759 H   0  0  0  0  0  0  0  0  0  0  0  0
   48.5631   35.4770   40.2944 H   0  0  0  0  0  0  0  0  0  0  0  0
  1  6  2  0
  2  1  1  0
  3  2  2  0
  3  4  1  0
  4  5  2  0
  5  6  1  0
  7  8  2  0
  7  9  1  0
  9  3  1  0
  1 10  1  0
  2 11  1  0
  5 12  1  0
  9 13  1  0
 14 15  1  0
 15 16  1  0
 16 17  1  0
 17 18  1  0
 17 19  1  0
 19 20  1  0
 20 14  1  0
 15 21  1  0
 15 22  1  0
 16 23  1  0
 16 24  1  0
 17 25  1  0
 19 26  1  0
 19 27  1  0
 20 28  1  0
 20 29  1  0
  7 14  1  0
M  ISO  4  10  14  11  14  12  14  18  15
M  END
>  <DihAtoms>  (1) 
7,6,13,14

>  <DihDeg>  (1) 
-179.99861423340718

$$$$
