
 OpenBabel03252503343D

 20 21  0  0  0  0  0  0  0  0999 V2000
   47.5060   32.6900   40.9370 C   0  0  0  0  0  0  0  0  0  0  0  0
   46.2860   32.3440   41.1150 O   0  0  0  0  0  0  0  0  0  0  0  0
   48.2150   32.8710   42.1540 N   0  0  0  0  0  0  0  0  0  0  0  0
   49.2150   33.1400   42.1230 H   0  0  0  0  0  0  0  0  0  0  0  0
   48.0820   32.8700   39.6470 N   0  0  0  0  0  0  0  0  0  0  0  0
   48.7090   31.7830   38.9680 C   0  0  0  0  0  2  0  0  0  0  0  0
   48.8100   31.9190   37.4890 C   0  0  0  0  0  2  0  0  0  0  0  0
   49.2100   33.3400   37.1570 C   0  0  0  0  0  3  0  0  0  0  0  0
   49.4540   33.4750   36.0770 H   0  0  0  0  0  0  0  0  0  0  0  0
   48.0470   34.2120   37.5810 C   0  0  0  0  0  2  0  0  0  0  0  0
   47.9930   34.2050   39.0780 C   0  0  0  0  0  2  0  0  0  0  0  0
   46.3160   33.4690   45.2960 C   0  0  0  0  0  0  0  0  0  0  0  0
   46.8890   33.7210   44.0420 C   0  0  0  0  0  0  0  0  0  0  0  0
   47.6010   32.6950   43.4310 C   0  0  0  0  0  0  0  0  0  0  0  0
   47.7240   31.4900   44.0510 N   0  0  0  0  0  0  0  0  0  0  0  0
   47.1540   31.2810   45.2680 C   0  0  0  0  0  0  0  0  0  0  0  0
   46.4570   32.2580   45.8850 N   0  0  0  0  0  0  0  0  0  0  0  0
   45.7690   34.2950   45.7380 H   0  0  0  0  0  0  0  0  0  0  0  0
   46.8150   34.6630   43.5150 H   0  0  0  0  0  0  0  0  0  0  0  0
   47.2760   30.3100   45.7220 H   0  0  0  0  0  0  0  0  0  0  0  0
  1  2  2  0  0  0  0
  1  3  1  0  0  0  0
  3 14  1  0  0  0  0
  4  3  1  0  0  0  0
  5  1  1  0  0  0  0
  6  5  1  0  0  0  0
  7  6  1  0  0  0  0
  8  7  1  0  0  0  0
  8 10  1  0  0  0  0
  9  8  1  0  0  0  0
 10 11  1  0  0  0  0
 11  5  1  0  0  0  0
 12 18  1  0  0  0  0
 12 17  1  0  0  0  0
 13 12  2  0  0  0  0
 14 13  1  0  0  0  0
 14 15  2  0  0  0  0
 15 16  1  0  0  0  0
 16 20  1  0  0  0  0
 16 17  2  0  0  0  0
 19 13  1  0  0  0  0
M  END
>  <minimizedAffinity>
-3.32804728

>  <minimizedRMSD>
2.27950954

$$$$
