
 OpenBabel03252503343D

 20 21  0  0  0  0  0  0  0  0999 V2000
   47.4690   32.6300   40.6830 C   0  0  0  0  0  0  0  0  0  0  0  0
   46.4390   31.9130   40.9350 O   0  0  0  0  0  0  0  0  0  0  0  0
   48.1010   33.1270   41.8540 N   0  0  0  0  0  0  0  0  0  0  0  0
   48.9520   33.7100   41.7620 H   0  0  0  0  0  0  0  0  0  0  0  0
   47.9260   32.8960   39.3600 N   0  0  0  0  0  0  0  0  0  0  0  0
   47.7160   34.1730   38.7570 C   0  0  0  0  0  2  0  0  0  0  0  0
   48.6360   34.5170   37.6400 C   0  0  0  0  0  2  0  0  0  0  0  0
   48.8180   33.2950   36.7650 C   0  0  0  0  0  3  0  0  0  0  0  0
   49.3720   33.5220   35.8230 H   0  0  0  0  0  0  0  0  0  0  0  0
   49.5490   32.2770   37.6130 C   0  0  0  0  0  2  0  0  0  0  0  0
   48.6050   31.8070   38.6770 C   0  0  0  0  0  2  0  0  0  0  0  0
   46.4030   33.4370   45.1480 C   0  0  0  0  0  0  0  0  0  0  0  0
   46.8510   33.7840   43.8660 C   0  0  0  0  0  0  0  0  0  0  0  0
   47.6060   32.8520   43.1640 C   0  0  0  0  0  0  0  0  0  0  0  0
   47.8890   31.6450   43.7260 N   0  0  0  0  0  0  0  0  0  0  0  0
   47.4370   31.3430   44.9730 C   0  0  0  0  0  0  0  0  0  0  0  0
   46.7020   32.2280   45.6780 N   0  0  0  0  0  0  0  0  0  0  0  0
   45.8170   34.1930   45.6620 H   0  0  0  0  0  0  0  0  0  0  0  0
   46.6490   34.7310   43.3840 H   0  0  0  0  0  0  0  0  0  0  0  0
   47.6850   30.3750   45.3780 H   0  0  0  0  0  0  0  0  0  0  0  0
  1  2  2  0  0  0  0
  1  3  1  0  0  0  0
  3 14  1  0  0  0  0
  4  3  1  0  0  0  0
  5  1  1  0  0  0  0
  6  5  1  0  0  0  0
  7  6  1  0  0  0  0
  8 10  1  0  0  0  0
  8  7  1  0  0  0  0
  9  8  1  0  0  0  0
 10 11  1  0  0  0  0
 11  5  1  0  0  0  0
 12 18  1  0  0  0  0
 12 17  1  0  0  0  0
 13 12  2  0  0  0  0
 14 15  2  0  0  0  0
 14 13  1  0  0  0  0
 15 16  1  0  0  0  0
 16 20  1  0  0  0  0
 16 17  2  0  0  0  0
 19 13  1  0  0  0  0
M  END
>  <minimizedAffinity>
-3.26098418

>  <minimizedRMSD>
2.26642346

$$$$
