
 OpenBabel03252503343D

 20 21  0  0  0  0  0  0  0  0999 V2000
   45.9260   33.9450   40.6990 C   0  0  0  0  0  0  0  0  0  0  0  0
   44.6760   33.7690   40.9100 O   0  0  0  0  0  0  0  0  0  0  0  0
   46.6110   34.4730   41.8250 N   0  0  0  0  0  0  0  0  0  0  0  0
   47.6310   34.6430   41.7640 H   0  0  0  0  0  0  0  0  0  0  0  0
   46.5550   33.6390   39.4570 N   0  0  0  0  0  0  0  0  0  0  0  0
   47.8580   34.1360   39.1570 C   0  0  0  0  0  2  0  0  0  0  0  0
   48.6140   33.3790   38.1230 C   0  0  0  0  0  2  0  0  0  0  0  0
   47.6710   33.0190   36.9970 C   0  0  0  0  0  3  0  0  0  0  0  0
   48.2030   32.5840   36.1160 H   0  0  0  0  0  0  0  0  0  0  0  0
   46.6700   32.0460   37.5820 C   0  0  0  0  0  2  0  0  0  0  0  0
   45.8010   32.8060   38.5350 C   0  0  0  0  0  2  0  0  0  0  0  0
   44.6300   36.2050   44.4530 C   0  0  0  0  0  0  0  0  0  0  0  0
   45.2570   35.9780   43.2210 C   0  0  0  0  0  0  0  0  0  0  0  0
   45.9450   34.7820   43.0490 C   0  0  0  0  0  0  0  0  0  0  0  0
   45.9930   33.8750   44.0630 N   0  0  0  0  0  0  0  0  0  0  0  0
   45.3720   34.1290   45.2450 C   0  0  0  0  0  0  0  0  0  0  0  0
   44.6970   35.2820   45.4410 N   0  0  0  0  0  0  0  0  0  0  0  0
   44.1040   37.1500   44.5460 H   0  0  0  0  0  0  0  0  0  0  0  0
   45.2430   36.6710   42.3910 H   0  0  0  0  0  0  0  0  0  0  0  0
   45.4360   33.3820   46.0200 H   0  0  0  0  0  0  0  0  0  0  0  0
  1  2  2  0  0  0  0
  1  3  1  0  0  0  0
  3 14  1  0  0  0  0
  4  3  1  0  0  0  0
  5  1  1  0  0  0  0
  6  5  1  0  0  0  0
  7  6  1  0  0  0  0
  8 10  1  0  0  0  0
  8  7  1  0  0  0  0
  9  8  1  0  0  0  0
 10 11  1  0  0  0  0
 11  5  1  0  0  0  0
 12 18  1  0  0  0  0
 12 17  1  0  0  0  0
 13 12  2  0  0  0  0
 14 13  1  0  0  0  0
 14 15  2  0  0  0  0
 15 16  1  0  0  0  0
 16 17  2  0  0  0  0
 16 20  1  0  0  0  0
 19 13  1  0  0  0  0
M  END
>  <minimizedAffinity>
-4.25577068

>  <minimizedRMSD>
0.690626442

$$$$
