
 OpenBabel03252503343D

 20 21  0  0  0  0  0  0  0  0999 V2000
   46.1920   33.7330   40.7410 C   0  0  0  0  0  0  0  0  0  0  0  0
   45.3340   32.9130   41.2200 O   0  0  0  0  0  0  0  0  0  0  0  0
   46.5250   34.7780   41.6440 N   0  0  0  0  0  0  0  0  0  0  0  0
   47.2200   35.4910   41.3590 H   0  0  0  0  0  0  0  0  0  0  0  0
   46.7490   33.6010   39.4370 N   0  0  0  0  0  0  0  0  0  0  0  0
   46.0020   33.0010   38.3800 C   0  0  0  0  0  2  0  0  0  0  0  0
   46.4320   33.3600   37.0020 C   0  0  0  0  0  2  0  0  0  0  0  0
   47.9440   33.3570   36.9470 C   0  0  0  0  0  3  0  0  0  0  0  0
   48.3350   33.4680   35.9070 H   0  0  0  0  0  0  0  0  0  0  0  0
   48.3980   34.4930   37.8390 C   0  0  0  0  0  2  0  0  0  0  0  0
   48.1000   34.1070   39.2550 C   0  0  0  0  0  2  0  0  0  0  0  0
   44.4850   35.9270   44.5340 C   0  0  0  0  0  0  0  0  0  0  0  0
   45.0190   35.8890   43.2380 C   0  0  0  0  0  0  0  0  0  0  0  0
   45.9350   34.8870   42.9390 C   0  0  0  0  0  0  0  0  0  0  0  0
   46.2870   33.9810   43.8920 N   0  0  0  0  0  0  0  0  0  0  0  0
   45.7490   34.0490   45.1390 C   0  0  0  0  0  0  0  0  0  0  0  0
   44.8570   35.0110   45.4580 N   0  0  0  0  0  0  0  0  0  0  0  0
   43.7750   36.7240   44.7260 H   0  0  0  0  0  0  0  0  0  0  0  0
   44.7660   36.5880   42.4530 H   0  0  0  0  0  0  0  0  0  0  0  0
   46.0570   33.3110   45.8620 H   0  0  0  0  0  0  0  0  0  0  0  0
  1  2  2  0  0  0  0
  1  3  1  0  0  0  0
  3 14  1  0  0  0  0
  4  3  1  0  0  0  0
  5  1  1  0  0  0  0
  6  5  1  0  0  0  0
  7  6  1  0  0  0  0
  8  7  1  0  0  0  0
  8 10  1  0  0  0  0
  9  8  1  0  0  0  0
 10 11  1  0  0  0  0
 11  5  1  0  0  0  0
 12 18  1  0  0  0  0
 12 17  1  0  0  0  0
 13 12  2  0  0  0  0
 14 13  1  0  0  0  0
 14 15  2  0  0  0  0
 15 16  1  0  0  0  0
 16 17  2  0  0  0  0
 16 20  1  0  0  0  0
 19 13  1  0  0  0  0
M  END
>  <minimizedAffinity>
-4.67176533

>  <minimizedRMSD>
0.703034103

$$$$
