REMARK  Name = 
REMARK  1 active torsions:
REMARK  status: ('A' for Active; 'I' for Inactive)
REMARK    1  A    between atoms: C_3  and  N_9
REMARK                            x       y       z     vdW  Elec       q    Type
REMARK                         _______ _______ _______ _____ _____    ______ ____
ROOT
ATOM      1  C   UNL     1      46.395  34.202  40.786  0.00  0.00    +0.000 C 
ATOM      2  O   UNL     1      45.213  33.735  40.941  0.00  0.00    +0.000 OA
ATOM      3  N   UNL     1      46.896  34.843  41.950  0.00  0.00    +0.000 N 
ATOM      4  H   UNL     1      47.850  35.246  41.935  0.00  0.00    +0.000 HD
ATOM      5  N   UNL     1      47.123  34.084  39.567  0.00  0.00    +0.000 N 
ATOM      6  C   UNL     1      47.286  35.208  38.702  0.00  0.00    +0.000 C 
ATOM      7  C   UNL     1      48.440  35.138  37.766  0.00  0.00    +0.000 C 
ATOM      8  C   UNL     1      48.523  33.737  37.199  0.00  0.00    +0.000 C 
ATOM      9  H   UNL     1      49.270  33.653  36.374  0.00  0.00    +0.000 HD
ATOM     10  C   UNL     1      48.871  32.834  38.363  0.00  0.00    +0.000 C 
ATOM     11  C   UNL     1      47.678  32.775  39.267  0.00  0.00    +0.000 C 
ENDROOT
BRANCH   3  14
ATOM     12  C   UNL     1      44.533  36.045  44.558  0.00  0.00    +0.000 A 
ATOM     13  C   UNL     1      45.246  36.007  43.352  0.00  0.00    +0.000 A 
ATOM     14  C   UNL     1      46.132  34.955  43.150  0.00  0.00    +0.000 A 
ATOM     15  N   UNL     1      46.285  34.002  44.110  0.00  0.00    +0.000 NA
ATOM     16  C   UNL     1      45.576  34.071  45.268  0.00  0.00    +0.000 A 
ATOM     17  N   UNL     1      44.709  35.081  45.492  0.00  0.00    +0.000 NA
ATOM     18  H   UNL     1      43.853  36.882  44.676  0.00  0.00    +0.000 HD
ATOM     19  H   UNL     1      45.154  36.743  42.565  0.00  0.00    +0.000 HD
ATOM     20  H   UNL     1      45.729  33.294  46.000  0.00  0.00    +0.000 HD
ENDBRANCH   3  14
TORSDOF 1
