
 OpenBabel03252503343D

 20 21  0  0  0  0  0  0  0  0999 V2000
   46.2700   33.9600   40.6640 C   0  0  0  0  0  0  0  0  0  0  0  0
   45.0120   33.7610   40.7880 O   0  0  0  0  0  0  0  0  0  0  0  0
   46.8660   34.4940   41.8370 N   0  0  0  0  0  0  0  0  0  0  0  0
   47.8850   34.6810   41.8480 H   0  0  0  0  0  0  0  0  0  0  0  0
   46.9890   33.6700   39.4680 N   0  0  0  0  0  0  0  0  0  0  0  0
   46.5700   32.6180   38.6000 C   0  0  0  0  0  2  0  0  0  0  0  0
   47.0360   32.7220   37.1910 C   0  0  0  0  0  2  0  0  0  0  0  0
   48.4830   33.1640   37.1880 C   0  0  0  0  0  3  0  0  0  0  0  0
   48.9430   33.1150   36.1730 H   0  0  0  0  0  0  0  0  0  0  0  0
   48.4900   34.5740   37.7380 C   0  0  0  0  0  2  0  0  0  0  0  0
   48.1510   34.4980   39.1940 C   0  0  0  0  0  2  0  0  0  0  0  0
   44.6520   36.1640   44.3150 C   0  0  0  0  0  0  0  0  0  0  0  0
   45.3650   35.9520   43.1280 C   0  0  0  0  0  0  0  0  0  0  0  0
   46.1120   34.7850   43.0130 C   0  0  0  0  0  0  0  0  0  0  0  0
   46.1340   33.8890   44.0390 N   0  0  0  0  0  0  0  0  0  0  0  0
   45.4290   34.1280   45.1760 C   0  0  0  0  0  0  0  0  0  0  0  0
   44.6960   35.2530   45.3160 N   0  0  0  0  0  0  0  0  0  0  0  0
   44.0830   37.0860   44.3640 H   0  0  0  0  0  0  0  0  0  0  0  0
   45.3750   36.6370   42.2910 H   0  0  0  0  0  0  0  0  0  0  0  0
   45.4760   33.3910   45.9620 H   0  0  0  0  0  0  0  0  0  0  0  0
  1  2  2  0  0  0  0
  1  3  1  0  0  0  0
  3  4  1  0  0  0  0
  3 14  1  0  0  0  0
  5  1  1  0  0  0  0
  6  5  1  0  0  0  0
  7  6  1  0  0  0  0
  8  7  1  0  0  0  0
  8 10  1  0  0  0  0
  9  8  1  0  0  0  0
 10 11  1  0  0  0  0
 11  5  1  0  0  0  0
 12 18  1  0  0  0  0
 12 17  1  0  0  0  0
 13 12  2  0  0  0  0
 14 13  1  0  0  0  0
 14 15  2  0  0  0  0
 15 16  1  0  0  0  0
 16 17  2  0  0  0  0
 16 20  1  0  0  0  0
 19 13  1  0  0  0  0
M  END
>  <minimizedAffinity>
-4.61820745

>  <minimizedRMSD>
0.445744634

$$$$
