
 OpenBabel03242510483D

 20 21  0  0  0  0  0  0  0  0999 V2000
   36.7860   27.7340   41.4850 C   0  0  0  0  0  0  0  0  0  0  0  0
   36.6530   26.9660   40.3260 C   0  0  0  0  0  0  0  0  0  0  0  0
   36.4980   27.6330   39.1130 C   0  0  0  0  0  0  0  0  0  0  0  0
   36.4870   29.0030   39.1270 N   0  0  0  0  0  0  0  0  0  0  0  0
   36.6170   29.7170   40.2580 C   0  0  0  0  0  0  0  0  0  0  0  0
   36.7670   29.0810   41.4400 N   0  0  0  0  0  0  0  0  0  0  0  0
   36.6620   25.8790   40.3120 H   0  0  0  0  0  0  0  0  0  0  0  0
   36.3890   27.0900   38.1770 H   0  0  0  0  0  0  0  0  0  0  0  0
   36.9530   26.9950   42.7860 C   0  0  0  0  0  0  0  0  0  0  0  0
   38.2050   27.1610   43.3080 F   0  0  0  0  0  0  0  0  0  0  0  0
   35.9740   27.4620   43.6630 F   0  0  0  0  0  0  0  0  0  0  0  0
   36.6670   25.6380   42.5670 F   0  0  0  0  0  0  0  0  0  0  0  0
   36.6060   31.1090   40.2800 O   0  0  0  0  0  0  0  0  0  0  0  0
   37.9950   33.0130   41.8100 H   0  0  0  0  0  0  0  0  0  0  0  0
   38.7910   33.4950   41.3460 N   0  0  0  0  0  0  0  0  0  0  0  0
   38.3210   34.1590   40.1230 C   0  0  0  0  0  2  0  0  0  0  0  0
   37.2970   33.2480   39.5060 C   0  0  0  0  0  2  0  0  0  0  0  0
   37.6280   31.7990   39.5480 C   0  0  0  0  0  3  0  0  0  0  0  0
   38.9820   31.4270   40.0220 C   0  0  0  0  0  2  0  0  0  0  0  0
   39.6900   32.4560   40.8600 C   0  0  0  0  0  2  0  0  0  0  0  0
  1  9  1  0  0  0  0
  2  1  2  0  0  0  0
  3  4  2  0  0  0  0
  3  2  1  0  0  0  0
  4  5  1  0  0  0  0
  5 13  1  0  0  0  0
  5  6  2  0  0  0  0
  6  1  1  0  0  0  0
  7  2  1  0  0  0  0
  8  3  1  0  0  0  0
  9 10  1  0  0  0  0
  9 11  1  0  0  0  0
 12  9  1  0  0  0  0
 15 14  1  0  0  0  0
 16 15  1  0  0  0  0
 17 18  1  0  0  0  0
 17 16  1  0  0  0  0
 18 19  1  0  0  0  0
 18 13  1  0  0  0  0
 19 20  1  0  0  0  0
 20 15  1  0  0  0  0
M  END
>  <minimizedAffinity>
-5.08179426

$$$$

 OpenBabel03242510483D

 20 21  0  0  0  0  0  0  0  0999 V2000
   38.0170   26.4920   42.2950 C   0  0  0  0  0  0  0  0  0  0  0  0
   39.1750   26.3700   43.0660 C   0  0  0  0  0  0  0  0  0  0  0  0
   39.8620   27.5330   43.4050 C   0  0  0  0  0  0  0  0  0  0  0  0
   39.3610   28.7300   42.9640 N   0  0  0  0  0  0  0  0  0  0  0  0
   38.2440   28.8180   42.2220 C   0  0  0  0  0  0  0  0  0  0  0  0
   37.5700   27.6970   41.8870 N   0  0  0  0  0  0  0  0  0  0  0  0
   39.5750   25.4220   43.4190 H   0  0  0  0  0  0  0  0  0  0  0  0
   40.7690   27.5030   44.0030 H   0  0  0  0  0  0  0  0  0  0  0  0
   37.2890   25.2240   41.9400 C   0  0  0  0  0  0  0  0  0  0  0  0
   36.8020   25.2580   40.6630 F   0  0  0  0  0  0  0  0  0  0  0  0
   38.1800   24.1650   42.1120 F   0  0  0  0  0  0  0  0  0  0  0  0
   36.2600   25.0240   42.8730 F   0  0  0  0  0  0  0  0  0  0  0  0
   37.7300   30.0300   41.7700 O   0  0  0  0  0  0  0  0  0  0  0  0
   36.6080   32.5100   41.0700 H   0  0  0  0  0  0  0  0  0  0  0  0
   37.0710   33.0300   40.2970 N   0  0  0  0  0  0  0  0  0  0  0  0
   37.1040   32.1960   39.0900 C   0  0  0  0  0  2  0  0  0  0  0  0
   37.3610   30.7870   39.5470 C   0  0  0  0  0  2  0  0  0  0  0  0
   38.3600   30.6470   40.6390 C   0  0  0  0  0  3  0  0  0  0  0  0
   39.1110   31.8620   41.0310 C   0  0  0  0  0  2  0  0  0  0  0  0
   38.4740   33.1750   40.6650 C   0  0  0  0  0  2  0  0  0  0  0  0
  1  2  1  0  0  0  0
  2  3  2  0  0  0  0
  2  7  1  0  0  0  0
  3  8  1  0  0  0  0
  4  3  1  0  0  0  0
  5  4  2  0  0  0  0
  6  5  1  0  0  0  0
  6  1  2  0  0  0  0
  9 11  1  0  0  0  0
  9  1  1  0  0  0  0
  9 12  1  0  0  0  0
 10  9  1  0  0  0  0
 13  5  1  0  0  0  0
 15 20  1  0  0  0  0
 15 14  1  0  0  0  0
 16 17  1  0  0  0  0
 16 15  1  0  0  0  0
 17 18  1  0  0  0  0
 18 19  1  0  0  0  0
 18 13  1  0  0  0  0
 20 19  1  0  0  0  0
M  END
>  <minimizedAffinity>
-4.91290855

$$$$

 OpenBabel03242510483D

 20 21  0  0  0  0  0  0  0  0999 V2000
   37.5090   26.7040   41.9940 C   0  0  0  0  0  0  0  0  0  0  0  0
   37.2860   27.0520   43.3290 C   0  0  0  0  0  0  0  0  0  0  0  0
   37.3860   28.3960   43.6800 C   0  0  0  0  0  0  0  0  0  0  0  0
   37.6950   29.2990   42.6970 N   0  0  0  0  0  0  0  0  0  0  0  0
   37.9050   28.9360   41.4200 C   0  0  0  0  0  0  0  0  0  0  0  0
   37.8110   27.6350   41.0680 N   0  0  0  0  0  0  0  0  0  0  0  0
   37.0400   26.3380   44.1110 H   0  0  0  0  0  0  0  0  0  0  0  0
   37.2240   28.7280   44.7020 H   0  0  0  0  0  0  0  0  0  0  0  0
   37.3970   25.2470   41.6340 C   0  0  0  0  0  0  0  0  0  0  0  0
   38.6170   24.6310   41.6240 F   0  0  0  0  0  0  0  0  0  0  0  0
   36.5380   24.6510   42.5570 F   0  0  0  0  0  0  0  0  0  0  0  0
   36.7620   25.1440   40.3860 F   0  0  0  0  0  0  0  0  0  0  0  0
   38.2190   29.8480   40.4160 O   0  0  0  0  0  0  0  0  0  0  0  0
   39.0500   32.0610   38.8970 H   0  0  0  0  0  0  0  0  0  0  0  0
   38.3130   32.5640   38.3630 N   0  0  0  0  0  0  0  0  0  0  0  0
   37.2600   33.0190   39.2800 C   0  0  0  0  0  2  0  0  0  0  0  0
   37.0890   31.9360   40.3080 C   0  0  0  0  0  2  0  0  0  0  0  0
   37.1400   30.5460   39.7820 C   0  0  0  0  0  3  0  0  0  0  0  0
   37.1750   30.3800   38.3100 C   0  0  0  0  0  2  0  0  0  0  0  0
   37.6480   31.5740   37.5250 C   0  0  0  0  0  2  0  0  0  0  0  0
  1  2  1  0  0  0  0
  2  3  2  0  0  0  0
  2  7  1  0  0  0  0
  3  8  1  0  0  0  0
  4  3  1  0  0  0  0
  5  4  2  0  0  0  0
  6  5  1  0  0  0  0
  6  1  2  0  0  0  0
  9  1  1  0  0  0  0
  9 11  1  0  0  0  0
 10  9  1  0  0  0  0
 12  9  1  0  0  0  0
 13  5  1  0  0  0  0
 15 14  1  0  0  0  0
 15 16  1  0  0  0  0
 16 17  1  0  0  0  0
 18 17  1  0  0  0  0
 18 13  1  0  0  0  0
 19 18  1  0  0  0  0
 20 19  1  0  0  0  0
 20 15  1  0  0  0  0
M  END
>  <minimizedAffinity>
-4.85642815

$$$$

 OpenBabel03242510483D

 20 21  0  0  0  0  0  0  0  0999 V2000
   38.2220   27.6770   42.7310 C   0  0  0  0  0  0  0  0  0  0  0  0
   39.3460   26.9300   43.0900 C   0  0  0  0  0  0  0  0  0  0  0  0
   40.5650   27.5940   43.2000 C   0  0  0  0  0  0  0  0  0  0  0  0
   40.5920   28.9410   42.9500 N   0  0  0  0  0  0  0  0  0  0  0  0
   39.4940   29.6350   42.6060 C   0  0  0  0  0  0  0  0  0  0  0  0
   38.3060   29.0020   42.4960 N   0  0  0  0  0  0  0  0  0  0  0  0
   39.3280   25.8610   43.2900 H   0  0  0  0  0  0  0  0  0  0  0  0
   41.4750   27.0670   43.4760 H   0  0  0  0  0  0  0  0  0  0  0  0
   36.9130   26.9420   42.6180 C   0  0  0  0  0  0  0  0  0  0  0  0
   37.0830   25.5880   42.6930 F   0  0  0  0  0  0  0  0  0  0  0  0
   36.0810   27.4040   43.6370 F   0  0  0  0  0  0  0  0  0  0  0  0
   36.2970   27.3120   41.4120 F   0  0  0  0  0  0  0  0  0  0  0  0
   39.5130   31.0040   42.3510 O   0  0  0  0  0  0  0  0  0  0  0  0
   39.4620   33.7960   42.0460 H   0  0  0  0  0  0  0  0  0  0  0  0
   39.5150   34.1610   41.0730 N   0  0  0  0  0  0  0  0  0  0  0  0
   38.4150   33.6030   40.2760 C   0  0  0  0  0  2  0  0  0  0  0  0
   38.2360   32.1810   40.7280 C   0  0  0  0  0  2  0  0  0  0  0  0
   39.4950   31.4310   40.9820 C   0  0  0  0  0  3  0  0  0  0  0  0
   40.7650   32.0920   40.6020 C   0  0  0  0  0  2  0  0  0  0  0  0
   40.7130   33.5900   40.4710 C   0  0  0  0  0  2  0  0  0  0  0  0
  1  2  1  0  0  0  0
  2  3  2  0  0  0  0
  2  7  1  0  0  0  0
  3  8  1  0  0  0  0
  4  3  1  0  0  0  0
  5  4  2  0  0  0  0
  6  5  1  0  0  0  0
  6  1  2  0  0  0  0
  9 10  1  0  0  0  0
  9  1  1  0  0  0  0
  9 11  1  0  0  0  0
 12  9  1  0  0  0  0
 13  5  1  0  0  0  0
 15 14  1  0  0  0  0
 16 17  1  0  0  0  0
 16 15  1  0  0  0  0
 17 18  1  0  0  0  0
 18 13  1  0  0  0  0
 19 18  1  0  0  0  0
 20 19  1  0  0  0  0
 20 15  1  0  0  0  0
M  END
>  <minimizedAffinity>
-4.76619482

$$$$

 OpenBabel03242510483D

 20 21  0  0  0  0  0  0  0  0999 V2000
   37.4280   27.8390   41.4510 C   0  0  0  0  0  0  0  0  0  0  0  0
   36.7300   27.1810   40.4360 C   0  0  0  0  0  0  0  0  0  0  0  0
   36.7510   27.7380   39.1590 C   0  0  0  0  0  0  0  0  0  0  0  0
   37.4550   28.8970   38.9730 N   0  0  0  0  0  0  0  0  0  0  0  0
   38.1180   29.5100   39.9680 C   0  0  0  0  0  0  0  0  0  0  0  0
   38.1050   28.9800   41.2100 N   0  0  0  0  0  0  0  0  0  0  0  0
   36.1700   26.2600   40.5810 H   0  0  0  0  0  0  0  0  0  0  0  0
   36.2260   27.2710   38.3290 H   0  0  0  0  0  0  0  0  0  0  0  0
   37.3940   27.2220   42.8230 C   0  0  0  0  0  0  0  0  0  0  0  0
   37.8490   25.9330   42.8120 F   0  0  0  0  0  0  0  0  0  0  0  0
   38.1660   28.0230   43.6640 F   0  0  0  0  0  0  0  0  0  0  0  0
   36.0800   27.2950   43.3110 F   0  0  0  0  0  0  0  0  0  0  0  0
   38.8360   30.6890   39.7850 O   0  0  0  0  0  0  0  0  0  0  0  0
   39.3020   33.2360   38.6930 H   0  0  0  0  0  0  0  0  0  0  0  0
   39.0910   34.0510   39.3030 N   0  0  0  0  0  0  0  0  0  0  0  0
   39.8630   33.9500   40.5480 C   0  0  0  0  0  2  0  0  0  0  0  0
   39.8910   32.4940   40.9180 C   0  0  0  0  0  2  0  0  0  0  0  0
   38.6130   31.7610   40.7120 C   0  0  0  0  0  3  0  0  0  0  0  0
   37.4250   32.5630   40.3390 C   0  0  0  0  0  2  0  0  0  0  0  0
   37.7060   33.9110   39.7330 C   0  0  0  0  0  2  0  0  0  0  0  0
  1  9  1  0  0  0  0
  2  7  1  0  0  0  0
  2  1  2  0  0  0  0
  3  2  1  0  0  0  0
  4  3  2  0  0  0  0
  4  5  1  0  0  0  0
  5  6  2  0  0  0  0
  6  1  1  0  0  0  0
  8  3  1  0  0  0  0
  9 12  1  0  0  0  0
  9 11  1  0  0  0  0
 10  9  1  0  0  0  0
 13  5  1  0  0  0  0
 13 18  1  0  0  0  0
 14 15  1  0  0  0  0
 15 20  1  0  0  0  0
 15 16  1  0  0  0  0
 16 17  1  0  0  0  0
 18 17  1  0  0  0  0
 19 18  1  0  0  0  0
 20 19  1  0  0  0  0
M  END
>  <minimizedAffinity>
-4.56233692

$$$$

 OpenBabel03242510483D

 20 21  0  0  0  0  0  0  0  0999 V2000
   37.2960   27.5050   41.2120 C   0  0  0  0  0  0  0  0  0  0  0  0
   36.9250   26.9520   42.4400 C   0  0  0  0  0  0  0  0  0  0  0  0
   37.1330   27.7120   43.5890 C   0  0  0  0  0  0  0  0  0  0  0  0
   37.6880   28.9560   43.4490 N   0  0  0  0  0  0  0  0  0  0  0  0
   38.0360   29.4630   42.2540 C   0  0  0  0  0  0  0  0  0  0  0  0
   37.8400   28.7360   41.1330 N   0  0  0  0  0  0  0  0  0  0  0  0
   36.4840   25.9650   42.5550 H   0  0  0  0  0  0  0  0  0  0  0  0
   36.8650   27.3360   44.5730 H   0  0  0  0  0  0  0  0  0  0  0  0
   37.0640   26.6700   39.9820 C   0  0  0  0  0  0  0  0  0  0  0  0
   37.0410   25.3340   40.2720 F   0  0  0  0  0  0  0  0  0  0  0  0
   35.8590   27.0830   39.4140 F   0  0  0  0  0  0  0  0  0  0  0  0
   38.0630   26.9710   39.0430 F   0  0  0  0  0  0  0  0  0  0  0  0
   38.6010   30.7270   42.1040 O   0  0  0  0  0  0  0  0  0  0  0  0
   38.7240   33.5330   42.0200 H   0  0  0  0  0  0  0  0  0  0  0  0
   38.8740   33.9670   41.0870 N   0  0  0  0  0  0  0  0  0  0  0  0
   37.8140   33.5370   40.1660 C   0  0  0  0  0  2  0  0  0  0  0  0
   37.5220   32.0980   40.4890 C   0  0  0  0  0  2  0  0  0  0  0  0
   38.7150   31.2570   40.7760 C   0  0  0  0  0  3  0  0  0  0  0  0
   40.0460   31.8680   40.5480 C   0  0  0  0  0  2  0  0  0  0  0  0
   40.0840   33.3720   40.5340 C   0  0  0  0  0  2  0  0  0  0  0  0
  1  2  1  0  0  0  0
  2  7  1  0  0  0  0
  2  3  2  0  0  0  0
  3  8  1  0  0  0  0
  4  3  1  0  0  0  0
  5  4  2  0  0  0  0
  6  1  2  0  0  0  0
  6  5  1  0  0  0  0
  9 10  1  0  0  0  0
  9  1  1  0  0  0  0
 11  9  1  0  0  0  0
 12  9  1  0  0  0  0
 13  5  1  0  0  0  0
 15 14  1  0  0  0  0
 16 17  1  0  0  0  0
 16 15  1  0  0  0  0
 17 18  1  0  0  0  0
 18 13  1  0  0  0  0
 19 18  1  0  0  0  0
 20 19  1  0  0  0  0
 20 15  1  0  0  0  0
M  END
>  <minimizedAffinity>
-4.54025364

$$$$

 OpenBabel03242510483D

 20 21  0  0  0  0  0  0  0  0999 V2000
   37.9140   28.4330   42.4440 C   0  0  0  0  0  0  0  0  0  0  0  0
   39.0270   27.6610   42.7880 C   0  0  0  0  0  0  0  0  0  0  0  0
   40.2650   28.2940   42.8610 C   0  0  0  0  0  0  0  0  0  0  0  0
   40.3210   29.6360   42.5920 N   0  0  0  0  0  0  0  0  0  0  0  0
   39.2340   30.3550   42.2630 C   0  0  0  0  0  0  0  0  0  0  0  0
   38.0280   29.7520   42.1890 N   0  0  0  0  0  0  0  0  0  0  0  0
   38.9860   26.5960   43.0020 H   0  0  0  0  0  0  0  0  0  0  0  0
   41.1670   27.7470   43.1230 H   0  0  0  0  0  0  0  0  0  0  0  0
   36.5850   27.7310   42.3700 C   0  0  0  0  0  0  0  0  0  0  0  0
   35.6770   28.4390   41.6340 F   0  0  0  0  0  0  0  0  0  0  0  0
   36.8060   26.4680   41.8210 F   0  0  0  0  0  0  0  0  0  0  0  0
   36.1230   27.5140   43.6780 F   0  0  0  0  0  0  0  0  0  0  0  0
   39.2830   31.7190   41.9890 O   0  0  0  0  0  0  0  0  0  0  0  0
   37.3690   30.4340   40.3830 H   0  0  0  0  0  0  0  0  0  0  0  0
   37.3090   30.7420   39.3910 N   0  0  0  0  0  0  0  0  0  0  0  0
   38.6180   30.5820   38.7440 C   0  0  0  0  0  2  0  0  0  0  0  0
   39.6520   30.9470   39.7720 C   0  0  0  0  0  2  0  0  0  0  0  0
   39.3210   32.1260   40.6150 C   0  0  0  0  0  3  0  0  0  0  0  0
   38.1160   32.9060   40.2460 C   0  0  0  0  0  2  0  0  0  0  0  0
   37.0970   32.1830   39.4070 C   0  0  0  0  0  2  0  0  0  0  0  0
  1  2  1  0  0  0  0
  2  3  2  0  0  0  0
  2  7  1  0  0  0  0
  3  8  1  0  0  0  0
  4  3  1  0  0  0  0
  5  4  2  0  0  0  0
  6  5  1  0  0  0  0
  6  1  2  0  0  0  0
  9  1  1  0  0  0  0
  9 12  1  0  0  0  0
 10  9  1  0  0  0  0
 11  9  1  0  0  0  0
 13  5  1  0  0  0  0
 15 20  1  0  0  0  0
 15 14  1  0  0  0  0
 16 15  1  0  0  0  0
 16 17  1  0  0  0  0
 17 18  1  0  0  0  0
 18 13  1  0  0  0  0
 19 18  1  0  0  0  0
 20 19  1  0  0  0  0
M  END
>  <minimizedAffinity>
-4.51637363

$$$$

 OpenBabel03242510483D

 20 21  0  0  0  0  0  0  0  0999 V2000
   39.2890   27.4560   42.8380 C   0  0  0  0  0  0  0  0  0  0  0  0
   37.9990   26.9410   42.9860 C   0  0  0  0  0  0  0  0  0  0  0  0
   36.9240   27.8140   42.8350 C   0  0  0  0  0  0  0  0  0  0  0  0
   37.1940   29.1270   42.5500 N   0  0  0  0  0  0  0  0  0  0  0  0
   38.4460   29.5950   42.4140 C   0  0  0  0  0  0  0  0  0  0  0  0
   39.4960   28.7580   42.5580 N   0  0  0  0  0  0  0  0  0  0  0  0
   37.7810   25.9000   43.2120 H   0  0  0  0  0  0  0  0  0  0  0  0
   35.8970   27.4720   42.9390 H   0  0  0  0  0  0  0  0  0  0  0  0
   40.4370   26.4980   43.0040 C   0  0  0  0  0  0  0  0  0  0  0  0
   40.0610   25.3650   43.6720 F   0  0  0  0  0  0  0  0  0  0  0  0
   40.9210   26.1960   41.7320 F   0  0  0  0  0  0  0  0  0  0  0  0
   41.4780   27.1610   43.6720 F   0  0  0  0  0  0  0  0  0  0  0  0
   38.7270   30.9280   42.1240 O   0  0  0  0  0  0  0  0  0  0  0  0
   38.3180   33.6760   41.7060 H   0  0  0  0  0  0  0  0  0  0  0  0
   38.4210   34.0210   40.7300 N   0  0  0  0  0  0  0  0  0  0  0  0
   37.5010   33.2910   39.8480 C   0  0  0  0  0  2  0  0  0  0  0  0
   37.4760   31.8700   40.3360 C   0  0  0  0  0  2  0  0  0  0  0  0
   38.7940   31.3150   40.7450 C   0  0  0  0  0  3  0  0  0  0  0  0
   39.9920   32.1420   40.4690 C   0  0  0  0  0  2  0  0  0  0  0  0
   39.7440   33.6130   40.2750 C   0  0  0  0  0  2  0  0  0  0  0  0
  1  2  1  0  0  0  0
  1  9  1  0  0  0  0
  2  7  1  0  0  0  0
  3  8  1  0  0  0  0
  3  2  2  0  0  0  0
  4  3  1  0  0  0  0
  5  4  2  0  0  0  0
  5  6  1  0  0  0  0
  6  1  2  0  0  0  0
  9 10  1  0  0  0  0
  9 12  1  0  0  0  0
 11  9  1  0  0  0  0
 13  5  1  0  0  0  0
 15 14  1  0  0  0  0
 16 17  1  0  0  0  0
 16 15  1  0  0  0  0
 17 18  1  0  0  0  0
 18 13  1  0  0  0  0
 19 18  1  0  0  0  0
 20 19  1  0  0  0  0
 20 15  1  0  0  0  0
M  END
>  <minimizedAffinity>
-4.43318272

$$$$

 OpenBabel03242510483D

 20 21  0  0  0  0  0  0  0  0999 V2000
   38.4520   31.8900   39.9910 C   0  0  0  0  0  0  0  0  0  0  0  0
   39.7420   32.2340   39.5810 C   0  0  0  0  0  0  0  0  0  0  0  0
   40.8080   31.8620   40.3960 C   0  0  0  0  0  0  0  0  0  0  0  0
   40.5310   31.1800   41.5510 N   0  0  0  0  0  0  0  0  0  0  0  0
   39.2790   30.8620   41.9210 C   0  0  0  0  0  0  0  0  0  0  0  0
   38.2370   31.2180   41.1390 N   0  0  0  0  0  0  0  0  0  0  0  0
   39.9660   32.7750   38.6650 H   0  0  0  0  0  0  0  0  0  0  0  0
   41.8350   32.1010   40.1300 H   0  0  0  0  0  0  0  0  0  0  0  0
   37.3120   32.3010   39.0970 C   0  0  0  0  0  0  0  0  0  0  0  0
   37.6410   32.1960   37.7750 F   0  0  0  0  0  0  0  0  0  0  0  0
   36.2190   31.4940   39.4110 F   0  0  0  0  0  0  0  0  0  0  0  0
   36.9380   33.6130   39.4270 F   0  0  0  0  0  0  0  0  0  0  0  0
   38.9890   30.1690   43.0940 O   0  0  0  0  0  0  0  0  0  0  0  0
   36.7430   29.3100   41.6400 H   0  0  0  0  0  0  0  0  0  0  0  0
   36.6430   28.2840   41.4970 N   0  0  0  0  0  0  0  0  0  0  0  0
   36.6220   27.6040   42.7980 C   0  0  0  0  0  2  0  0  0  0  0  0
   37.6000   28.3310   43.6790 C   0  0  0  0  0  2  0  0  0  0  0  0
   38.8670   28.7420   43.0160 C   0  0  0  0  0  3  0  0  0  0  0  0
   39.1020   28.2500   41.6390 C   0  0  0  0  0  2  0  0  0  0  0  0
   37.8780   27.8210   40.8760 C   0  0  0  0  0  2  0  0  0  0  0  0
  1  6  1  0  0  0  0
  2  1  2  0  0  0  0
  2  3  1  0  0  0  0
  3  4  2  0  0  0  0
  4  5  1  0  0  0  0
  5 13  1  0  0  0  0
  6  5  2  0  0  0  0
  7  2  1  0  0  0  0
  8  3  1  0  0  0  0
  9 11  1  0  0  0  0
  9 12  1  0  0  0  0
  9  1  1  0  0  0  0
 10  9  1  0  0  0  0
 15 14  1  0  0  0  0
 15 16  1  0  0  0  0
 16 17  1  0  0  0  0
 18 13  1  0  0  0  0
 18 17  1  0  0  0  0
 19 18  1  0  0  0  0
 20 15  1  0  0  0  0
 20 19  1  0  0  0  0
M  END
>  <minimizedAffinity>
-4.42452908

$$$$
