
 OpenBabel03242512593D

 33 36  0  0  0  0  0  0  0  0999 V2000
   45.4980   33.4350   41.1000 F   0  0  0  0  0  0  0  0  0  0  0  0
   46.6500   34.1670   41.0520 C   0  0  0  0  0  0  0  0  0  0  0  0
   47.0750   34.8840   42.1420 C   0  0  0  0  0  0  0  0  0  0  0  0
   48.2440   35.5940   42.0090 C   0  0  0  0  0  0  0  0  0  0  0  0
   48.9950   35.6200   40.8570 C   0  0  0  0  0  0  0  0  0  0  0  0
   48.5210   34.8870   39.8020 C   0  0  0  0  0  0  0  0  0  0  0  0
   47.3550   34.1570   39.8780 C   0  0  0  0  0  0  0  0  0  0  0  0
   48.5680   36.1540   42.8770 H   0  0  0  0  0  0  0  0  0  0  0  0
   49.8980   36.1950   40.8180 H   0  0  0  0  0  0  0  0  0  0  0  0
   49.0930   34.8860   38.8720 H   0  0  0  0  0  0  0  0  0  0  0  0
   44.5080   35.6710   44.8150 C   0  0  0  0  0  0  0  0  0  0  0  0
   45.2540   35.7580   43.6300 C   0  0  0  0  0  0  0  0  0  0  0  0
   46.2680   34.8440   43.3540 C   0  0  0  0  0  0  0  0  0  0  0  0
   46.4610   33.8900   44.3090 N   0  0  0  0  0  0  0  0  0  0  0  0
   45.7410   33.8190   45.4390 C   0  0  0  0  0  0  0  0  0  0  0  0
   44.7780   34.6910   45.6960 N   0  0  0  0  0  0  0  0  0  0  0  0
   43.7230   36.4020   45.0010 H   0  0  0  0  0  0  0  0  0  0  0  0
   45.0630   36.5280   42.9090 H   0  0  0  0  0  0  0  0  0  0  0  0
   45.9960   33.0110   46.1140 H   0  0  0  0  0  0  0  0  0  0  0  0
   46.8670   33.3770   38.7340 C   0  0  0  0  0  0  0  0  0  0  0  0
   45.5800   32.9220   38.5520 C   0  0  0  0  0  0  0  0  0  0  0  0
   45.5720   32.2320   37.3330 C   0  0  0  0  0  0  0  0  0  0  0  0
   46.8110   32.2920   36.8390 N   0  0  0  0  0  0  0  0  0  0  0  0
   47.6050   32.9820   37.6780 N   0  0  0  0  0  0  0  0  0  0  0  0
   44.7270   33.0480   39.1860 H   0  0  0  0  0  0  0  0  0  0  0  0
   44.7620   31.7250   36.8260 H   0  0  0  0  0  0  0  0  0  0  0  0
   47.0200   32.9720   32.8150 H   0  0  0  0  0  0  0  0  0  0  0  0
   47.6960   32.1710   32.8500 N   0  0  0  0  0  0  0  0  0  0  0  0
   48.8210   32.5020   33.6780 C   0  0  0  0  0  0  0  0  0  0  0  0
   48.4900   32.6770   35.1240 C   0  0  0  0  0  0  0  0  0  0  0  0
   47.4120   31.7730   35.6300 C   0  0  0  0  0  0  0  0  0  0  0  0
   46.2990   31.5510   34.6400 C   0  0  0  0  0  0  0  0  0  0  0  0
   46.9520   31.0300   33.3670 C   0  0  0  0  0  0  0  0  0  0  0  0
  2  1  1  0  0  0  0
  2  3  1  0  0  0  0
  3 13  1  0  0  0  0
  4  3  2  0  0  0  0
  4  8  1  0  0  0  0
  5  4  1  0  0  0  0
  6  7  1  0  0  0  0
  6  5  2  0  0  0  0
  7  2  2  0  0  0  0
  9  5  1  0  0  0  0
 10  6  1  0  0  0  0
 11 17  1  0  0  0  0
 11 16  1  0  0  0  0
 12 11  2  0  0  0  0
 13 12  1  0  0  0  0
 13 14  2  0  0  0  0
 14 15  1  0  0  0  0
 15 16  2  0  0  0  0
 15 19  1  0  0  0  0
 18 12  1  0  0  0  0
 20  7  1  0  0  0  0
 21 20  1  0  0  0  0
 21 25  1  0  0  0  0
 22 21  2  0  0  0  0
 23 22  1  0  0  0  0
 23 24  1  0  0  0  0
 24 20  2  0  0  0  0
 26 22  1  0  0  0  0
 27 28  1  0  0  0  0
 28 33  1  0  0  0  0
 28 29  1  0  0  0  0
 29 30  1  0  0  0  0
 30 31  1  0  0  0  0
 31 23  1  0  0  0  0
 32 31  1  0  0  0  0
 33 32  1  0  0  0  0
M  END
>  <minimizedAffinity>
-6.52089596

>  <minimizedRMSD>
2.8510561

$$$$
