
 OpenBabel03252508593D

 43 45  0  0  1  0  0  0  0  0999 V2000
   46.8060   34.3660   43.6210 N   0  0  0  0  0  0  0  0  0  0  0  0
   46.3920   35.2130   42.5540 C   0  0  0  0  0  0  0  0  0  0  0  0
   44.8920   35.3530   42.3950 C   0  0  0  0  0  0  0  0  0  0  0  0
   44.1260   35.3140   43.6810 C   0  0  0  0  0  0  0  0  0  0  0  0
   45.0370   35.2080   44.8770 C   0  0  0  0  0  0  0  0  0  0  0  0
   45.8970   33.9320   44.5720 C   0  0  2  0  0  0  0  0  0  0  0  0
   46.7640   36.2530   42.7910 H   0  0  0  0  0  0  0  0  0  0  0  0
   46.8040   34.9840   41.5660 H   0  0  0  0  0  0  0  0  0  0  0  0
   44.5600   34.4540   41.8170 H   0  0  0  0  0  0  0  0  0  0  0  0
   44.6840   36.2300   41.7710 H   0  0  0  0  0  0  0  0  0  0  0  0
   43.6280   36.3210   43.7740 H   0  0  0  0  0  0  0  0  0  0  0  0
   43.3370   34.5630   43.7390 H   0  0  0  0  0  0  0  0  0  0  0  0
   44.4820   34.9870   45.7880 H   0  0  0  0  0  0  0  0  0  0  0  0
   45.7330   36.0700   44.9330 H   0  0  0  0  0  0  0  0  0  0  0  0
   45.1530   33.1690   44.2990 H   0  0  0  0  0  0  0  0  0  0  0  0
   47.9380   33.5530   43.3130 C   0  0  0  0  0  0  0  0  0  0  0  0
   48.4580   33.2200   44.2270 H   0  0  0  0  0  0  0  0  0  0  0  0
   48.6490   34.1500   42.7120 H   0  0  0  0  0  0  0  0  0  0  0  0
   47.4770   32.3420   42.5590 C   0  0  0  0  0  0  0  0  0  0  0  0
   47.6390   31.4120   43.1180 H   0  0  0  0  0  0  0  0  0  0  0  0
   46.3720   32.3680   42.3460 H   0  0  0  0  0  0  0  0  0  0  0  0
   50.1140   31.6830   39.9690 C   0  0  0  0  0  0  0  0  0  0  0  0
   49.4470   31.7480   41.2020 C   0  0  0  0  0  0  0  0  0  0  0  0
   48.1740   32.2760   41.2560 C   0  0  0  0  0  0  0  0  0  0  0  0
   47.6250   32.7100   40.1040 N   0  0  0  0  0  0  0  0  0  0  0  0
   48.2810   32.6400   38.9270 C   0  0  0  0  0  0  0  0  0  0  0  0
   49.5210   32.1300   38.8440 N   0  0  0  0  0  0  0  0  0  0  0  0
   51.1090   31.2790   39.8710 H   0  0  0  0  0  0  0  0  0  0  0  0
   49.9870   31.3710   42.0460 H   0  0  0  0  0  0  0  0  0  0  0  0
   47.6690   33.0400   38.1170 H   0  0  0  0  0  0  0  0  0  0  0  0
   46.5090   33.7020   45.7930 O   0  0  0  0  0  0  0  0  0  0  0  0
   45.6790   31.2200   45.3450 O   0  0  0  0  0  0  0  0  0  0  0  0
   46.1670   32.1850   46.4310 P   0  0  2  0  0  0  0  0  0  0  0  0
   44.8210   32.3940   47.4660 O   0  0  0  0  0  0  0  0  0  0  0  0
   45.1590   32.8540   48.2880 H   0  0  0  0  0  0  0  0  0  0  0  0
   47.4070   31.5500   47.3370 O   0  0  0  0  0  0  0  0  0  0  0  0
   48.2370   26.5400   47.9960 H   0  0  0  0  0  0  0  0  0  0  0  0
   48.0470   27.5430   48.0860 N   0  0  0  0  0  0  0  0  0  0  0  0
   46.8720   27.9290   47.3580 C   0  0  0  0  0  0  0  0  0  0  0  0
   46.5710   29.3740   47.7180 C   0  0  0  0  0  0  0  0  0  0  0  0
   47.6800   30.2180   47.1090 C   0  0  0  0  0  0  0  0  0  0  0  0
   48.9670   29.7840   47.7760 C   0  0  0  0  0  0  0  0  0  0  0  0
   49.1680   28.3080   47.6130 C   0  0  0  0  0  0  0  0  0  0  0  0
  1  6  1  0  0  0  0
  2  7  1  0  0  0  0
  2  1  1  0  0  0  0
  3  2  1  0  0  0  0
  3  4  1  0  0  0  0
  4 12  1  0  0  0  0
  4 11  1  0  0  0  0
  4  5  1  0  0  0  0
  5 14  1  0  0  0  0
  5 13  1  0  0  0  0
  6 15  1  6  0  0  0
  6  5  1  0  0  0  0
  6 31  1  0  0  0  0
  8  2  1  0  0  0  0
  9  3  1  0  0  0  0
 10  3  1  0  0  0  0
 16  1  1  0  0  0  0
 16 17  1  0  0  0  0
 18 16  1  0  0  0  0
 19 20  1  0  0  0  0
 19 16  1  0  0  0  0
 21 19  1  0  0  0  0
 22 23  1  0  0  0  0
 23 24  2  0  0  0  0
 23 29  1  0  0  0  0
 24 19  1  0  0  0  0
 25 24  1  0  0  0  0
 26 25  2  0  0  0  0
 27 26  1  0  0  0  0
 27 22  2  0  0  0  0
 28 22  1  0  0  0  0
 30 26  1  0  0  0  0
 31 33  1  0  0  0  0
 33 32  2  6  0  0  0
 33 36  1  0  0  0  0
 33 34  1  0  0  0  0
 34 35  1  0  0  0  0
 37 38  1  0  0  0  0
 39 40  1  0  0  0  0
 39 38  1  0  0  0  0
 41 36  1  0  0  0  0
 41 40  1  0  0  0  0
 41 42  1  0  0  0  0
 43 42  1  0  0  0  0
 43 38  1  0  0  0  0
M  END
>  <minimizedAffinity>
-4.62086678

>  <minimizedRMSD>
2.12547922

$$$$
