
 OpenBabel03252509003D

 43 45  0  0  1  0  0  0  0  0999 V2000
   46.6450   34.5320   43.4350 N   0  0  0  0  0  0  0  0  0  0  0  0
   46.1110   35.5930   42.6490 C   0  0  0  0  0  0  0  0  0  0  0  0
   44.6110   35.7740   42.7560 C   0  0  0  0  0  0  0  0  0  0  0  0
   44.0440   35.4640   44.1060 C   0  0  0  0  0  0  0  0  0  0  0  0
   45.1170   35.0950   45.0980 C   0  0  0  0  0  0  0  0  0  0  0  0
   45.8710   33.9090   44.4000 C   0  0  2  0  0  0  0  0  0  0  0  0
   46.5560   36.5540   43.0410 H   0  0  0  0  0  0  0  0  0  0  0  0
   46.3630   35.5800   41.5840 H   0  0  0  0  0  0  0  0  0  0  0  0
   44.1610   35.0240   42.0580 H   0  0  0  0  0  0  0  0  0  0  0  0
   44.3490   36.7670   42.3720 H   0  0  0  0  0  0  0  0  0  0  0  0
   43.6060   36.4310   44.4870 H   0  0  0  0  0  0  0  0  0  0  0  0
   43.2430   34.7230   44.1230 H   0  0  0  0  0  0  0  0  0  0  0  0
   44.6960   34.6870   46.0150 H   0  0  0  0  0  0  0  0  0  0  0  0
   45.8480   35.9190   45.2290 H   0  0  0  0  0  0  0  0  0  0  0  0
   45.0650   33.2290   44.0880 H   0  0  0  0  0  0  0  0  0  0  0  0
   47.6860   33.7960   42.7910 C   0  0  0  0  0  0  0  0  0  0  0  0
   48.3010   33.2430   43.5200 H   0  0  0  0  0  0  0  0  0  0  0  0
   48.3420   34.5080   42.2570 H   0  0  0  0  0  0  0  0  0  0  0  0
   47.0700   32.8130   41.8420 C   0  0  0  0  0  0  0  0  0  0  0  0
   47.1550   31.7780   42.1960 H   0  0  0  0  0  0  0  0  0  0  0  0
   45.9670   32.9860   41.7050 H   0  0  0  0  0  0  0  0  0  0  0  0
   49.1620   32.0750   38.8130 C   0  0  0  0  0  0  0  0  0  0  0  0
   48.5560   31.9540   40.0730 C   0  0  0  0  0  0  0  0  0  0  0  0
   47.7050   32.9450   40.5120 C   0  0  0  0  0  0  0  0  0  0  0  0
   47.4910   33.9980   39.6960 N   0  0  0  0  0  0  0  0  0  0  0  0
   48.0820   34.0970   38.4870 C   0  0  0  0  0  0  0  0  0  0  0  0
   48.9160   33.1460   38.0330 N   0  0  0  0  0  0  0  0  0  0  0  0
   49.8350   31.3280   38.4220 H   0  0  0  0  0  0  0  0  0  0  0  0
   48.8040   31.0720   40.6280 H   0  0  0  0  0  0  0  0  0  0  0  0
   47.7820   35.0170   37.9840 H   0  0  0  0  0  0  0  0  0  0  0  0
   46.6480   33.4160   45.4360 O   0  0  0  0  0  0  0  0  0  0  0  0
   45.5770   31.0950   44.7170 O   0  0  0  0  0  0  0  0  0  0  0  0
   46.2470   31.8430   45.8740 P   0  0  2  0  0  0  0  0  0  0  0  0
   45.0330   31.9760   47.0710 O   0  0  0  0  0  0  0  0  0  0  0  0
   45.4870   32.2780   47.9100 H   0  0  0  0  0  0  0  0  0  0  0  0
   47.5150   30.9940   46.5320 O   0  0  0  0  0  0  0  0  0  0  0  0
   48.0830   27.5270   42.8060 H   0  0  0  0  0  0  0  0  0  0  0  0
   47.7950   28.2900   43.4280 N   0  0  0  0  0  0  0  0  0  0  0  0
   48.8350   29.2650   43.5880 C   0  0  0  0  0  2  0  0  0  0  0  0
   48.2440   30.4360   44.3570 C   0  0  0  0  0  2  0  0  0  0  0  0
   47.9780   29.9430   45.7690 C   0  0  0  0  0  3  0  0  0  0  0  0
   46.9500   28.8380   45.6540 C   0  0  0  0  0  2  0  0  0  0  0  0
   47.4350   27.7710   44.7200 C   0  0  0  0  0  2  0  0  0  0  0  0
  1  6  1  0  0  0  0
  2  3  1  0  0  0  0
  2  7  1  0  0  0  0
  2  1  1  0  0  0  0
  3  4  1  0  0  0  0
  4 12  1  0  0  0  0
  4 11  1  0  0  0  0
  4  5  1  0  0  0  0
  5 14  1  0  0  0  0
  5 13  1  0  0  0  0
  6 15  1  6  0  0  0
  6  5  1  0  0  0  0
  6 31  1  0  0  0  0
  8  2  1  0  0  0  0
  9  3  1  0  0  0  0
 10  3  1  0  0  0  0
 16  1  1  0  0  0  0
 16 17  1  0  0  0  0
 18 16  1  0  0  0  0
 19 20  1  0  0  0  0
 19 16  1  0  0  0  0
 21 19  1  0  0  0  0
 22 23  1  0  0  0  0
 23 24  2  0  0  0  0
 23 29  1  0  0  0  0
 24 19  1  0  0  0  0
 25 24  1  0  0  0  0
 26 25  2  0  0  0  0
 27 26  1  0  0  0  0
 27 22  2  0  0  0  0
 28 22  1  0  0  0  0
 30 26  1  0  0  0  0
 31 33  1  0  0  0  0
 33 32  2  6  0  0  0
 33 36  1  0  0  0  0
 33 34  1  0  0  0  0
 34 35  1  0  0  0  0
 37 38  1  0  0  0  0
 38 39  1  0  0  0  0
 38 43  1  0  0  0  0
 39 40  1  0  0  0  0
 40 41  1  0  0  0  0
 41 36  1  0  0  0  0
 42 41  1  0  0  0  0
 43 42  1  0  0  0  0
M  END
>  <minimizedAffinity>
-4.01102304

>  <minimizedRMSD>
0.953189611

$$$$
