
 OpenBabel03252509003D

 43 45  0  0  1  0  0  0  0  0999 V2000
   46.7240   34.4540   43.4350 N   0  0  0  0  0  0  0  0  0  0  0  0
   46.2320   35.5980   42.7430 C   0  0  0  0  0  0  0  0  0  0  0  0
   44.7420   35.8360   42.8810 C   0  0  0  0  0  0  0  0  0  0  0  0
   44.1730   35.4430   44.2080 C   0  0  0  0  0  0  0  0  0  0  0  0
   45.2360   34.9470   45.1550 C   0  0  0  0  0  0  0  0  0  0  0  0
   45.9300   33.7890   44.3540 C   0  0  2  0  0  0  0  0  0  0  0  0
   46.7220   36.5030   43.2070 H   0  0  0  0  0  0  0  0  0  0  0  0
   46.4740   35.6610   41.6780 H   0  0  0  0  0  0  0  0  0  0  0  0
   44.2540   35.1650   42.1300 H   0  0  0  0  0  0  0  0  0  0  0  0
   44.5220   36.8670   42.5820 H   0  0  0  0  0  0  0  0  0  0  0  0
   43.7810   36.3930   44.6710 H   0  0  0  0  0  0  0  0  0  0  0  0
   43.3390   34.7390   44.1750 H   0  0  0  0  0  0  0  0  0  0  0  0
   44.8030   34.4840   46.0410 H   0  0  0  0  0  0  0  0  0  0  0  0
   46.0030   35.7250   45.3430 H   0  0  0  0  0  0  0  0  0  0  0  0
   45.0910   33.1730   43.9980 H   0  0  0  0  0  0  0  0  0  0  0  0
   47.7250   33.7280   42.7220 C   0  0  0  0  0  0  0  0  0  0  0  0
   48.3460   33.1200   43.4020 H   0  0  0  0  0  0  0  0  0  0  0  0
   48.3860   34.4510   42.2080 H   0  0  0  0  0  0  0  0  0  0  0  0
   47.0570   32.8150   41.7390 C   0  0  0  0  0  0  0  0  0  0  0  0
   47.0780   31.7650   42.0590 H   0  0  0  0  0  0  0  0  0  0  0  0
   45.9670   33.0580   41.6040 H   0  0  0  0  0  0  0  0  0  0  0  0
   49.2070   32.1070   38.7440 C   0  0  0  0  0  0  0  0  0  0  0  0
   48.5890   31.9810   39.9970 C   0  0  0  0  0  0  0  0  0  0  0  0
   47.7050   32.9520   40.4160 C   0  0  0  0  0  0  0  0  0  0  0  0
   47.4730   33.9910   39.5880 N   0  0  0  0  0  0  0  0  0  0  0  0
   48.0770   34.0950   38.3850 C   0  0  0  0  0  0  0  0  0  0  0  0
   48.9420   33.1640   37.9510 N   0  0  0  0  0  0  0  0  0  0  0  0
   49.9060   31.3760   38.3690 H   0  0  0  0  0  0  0  0  0  0  0  0
   48.8540   31.1120   40.5640 H   0  0  0  0  0  0  0  0  0  0  0  0
   47.7580   35.0020   37.8690 H   0  0  0  0  0  0  0  0  0  0  0  0
   46.6920   33.1800   45.3380 O   0  0  0  0  0  0  0  0  0  0  0  0
   45.4610   31.0160   44.4150 O   0  0  0  0  0  0  0  0  0  0  0  0
   46.2960   31.5640   45.5780 P   0  0  2  0  0  0  0  0  0  0  0  0
   45.2460   31.5240   46.9270 O   0  0  0  0  0  0  0  0  0  0  0  0
   45.8120   31.6840   47.7370 H   0  0  0  0  0  0  0  0  0  0  0  0
   47.6070   30.6040   45.9280 O   0  0  0  0  0  0  0  0  0  0  0  0
   50.3940   27.7060   42.7560 H   0  0  0  0  0  0  0  0  0  0  0  0
   50.0350   28.3420   43.4760 N   0  0  0  0  0  0  0  0  0  0  0  0
   49.1590   27.6660   44.3910 C   0  0  0  0  0  2  0  0  0  0  0  0
   48.8480   28.6380   45.5190 C   0  0  0  0  0  2  0  0  0  0  0  0
   47.9870   29.7400   44.9240 C   0  0  0  0  0  3  0  0  0  0  0  0
   48.8320   30.4300   43.8760 C   0  0  0  0  0  2  0  0  0  0  0  0
   49.3300   29.4370   42.8690 C   0  0  0  0  0  2  0  0  0  0  0  0
  1  6  1  0  0  0  0
  2  3  1  0  0  0  0
  2  7  1  0  0  0  0
  2  1  1  0  0  0  0
  3  4  1  0  0  0  0
  4 11  1  0  0  0  0
  4  5  1  0  0  0  0
  5 14  1  0  0  0  0
  5 13  1  0  0  0  0
  6 15  1  6  0  0  0
  6  5  1  0  0  0  0
  6 31  1  0  0  0  0
  8  2  1  0  0  0  0
  9  3  1  0  0  0  0
 10  3  1  0  0  0  0
 12  4  1  0  0  0  0
 16 17  1  0  0  0  0
 16  1  1  0  0  0  0
 18 16  1  0  0  0  0
 19 20  1  0  0  0  0
 19 16  1  0  0  0  0
 21 19  1  0  0  0  0
 22 23  1  0  0  0  0
 23 24  2  0  0  0  0
 23 29  1  0  0  0  0
 24 19  1  0  0  0  0
 25 24  1  0  0  0  0
 26 25  2  0  0  0  0
 27 26  1  0  0  0  0
 27 22  2  0  0  0  0
 28 22  1  0  0  0  0
 30 26  1  0  0  0  0
 31 33  1  0  0  0  0
 33 32  2  6  0  0  0
 33 36  1  0  0  0  0
 33 34  1  0  0  0  0
 34 35  1  0  0  0  0
 37 38  1  0  0  0  0
 38 39  1  0  0  0  0
 39 40  1  0  0  0  0
 41 40  1  0  0  0  0
 41 36  1  0  0  0  0
 42 41  1  0  0  0  0
 43 38  1  0  0  0  0
 43 42  1  0  0  0  0
M  END
>  <minimizedAffinity>
-3.93442631

>  <minimizedRMSD>
0.702580094

$$$$
