REMARK  Name = 
REMARK  8 active torsions:
REMARK  status: ('A' for Active; 'I' for Inactive)
REMARK    1  A    between atoms: N_1  and  C_7
REMARK    2  A    between atoms: C_6  and  O_15
REMARK    3  A    between atoms: C_7  and  C_8
REMARK    4  A    between atoms: C_8  and  C_11
REMARK    5  A    between atoms: O_15  and  P_17
REMARK    6  A    between atoms: P_17  and  O_18
REMARK    7  A    between atoms: P_17  and  O_19
REMARK    8  A    between atoms: O_19  and  C_41
REMARK                            x       y       z     vdW  Elec       q    Type
REMARK                         _______ _______ _______ _____ _____    ______ ____
ROOT
ATOM      1  N   UNL     1      47.174  34.156  43.086  0.00  0.00    +0.000 NA
ATOM      2  C   UNL     1      46.662  35.364  42.531  0.00  0.00    +0.000 C 
ATOM      3  C   UNL     1      45.178  35.584  42.742  0.00  0.00    +0.000 C 
ATOM      4  C   UNL     1      44.652  35.057  44.040  0.00  0.00    +0.000 C 
ATOM      5  C   UNL     1      45.745  34.469  44.896  0.00  0.00    +0.000 C 
ATOM      6  C   UNL     1      46.410  33.400  43.959  0.00  0.00    +0.000 C 
ATOM      7  H   UNL     1      47.169  36.218  43.068  0.00  0.00    +0.000 HD
ATOM      8  H   UNL     1      46.869  35.535  41.470  0.00  0.00    +0.000 HD
ATOM      9  H   UNL     1      44.664  34.993  41.943  0.00  0.00    +0.000 HD
ATOM     10  H   UNL     1      44.950  36.640  42.557  0.00  0.00    +0.000 HD
ATOM     11  H   UNL     1      44.278  35.955  44.610  0.00  0.00    +0.000 HD
ATOM     12  H   UNL     1      43.816  34.359  43.963  0.00  0.00    +0.000 HD
ATOM     13  H   UNL     1      45.341  33.918  45.744  0.00  0.00    +0.000 HD
ATOM     14  H   UNL     1      46.520  35.225  45.137  0.00  0.00    +0.000 HD
ATOM     15  H   UNL     1      45.559  32.822  43.570  0.00  0.00    +0.000 HD
ENDROOT
BRANCH   1  16
ATOM     16  C   UNL     1      48.150  33.508  42.270  0.00  0.00    +0.000 C 
ATOM     17  H   UNL     1      48.815  32.863  42.869  0.00  0.00    +0.000 HD
ATOM     18  H   UNL     1      48.771  34.282  41.781  0.00  0.00    +0.000 HD
BRANCH  16  19
ATOM     19  C   UNL     1      47.448  32.658  41.254  0.00  0.00    +0.000 C 
ATOM     20  H   UNL     1      47.533  31.586  41.473  0.00  0.00    +0.000 HD
ATOM     21  H   UNL     1      46.342  32.863  41.218  0.00  0.00    +0.000 HD
BRANCH  19  24
ATOM     22  C   UNL     1      49.336  32.283  38.031  0.00  0.00    +0.000 A 
ATOM     23  C   UNL     1      48.816  32.017  39.307  0.00  0.00    +0.000 A 
ATOM     24  C   UNL     1      47.992  32.944  39.909  0.00  0.00    +0.000 A 
ATOM     25  N   UNL     1      47.721  34.078  39.231  0.00  0.00    +0.000 NA
ATOM     26  C   UNL     1      48.230  34.317  38.004  0.00  0.00    +0.000 A 
ATOM     27  N   UNL     1      49.035  33.432  37.393  0.00  0.00    +0.000 NA
ATOM     28  H   UNL     1      49.984  31.592  37.516  0.00  0.00    +0.000 HD
ATOM     29  H   UNL     1      49.103  31.082  39.743  0.00  0.00    +0.000 HD
ATOM     30  H   UNL     1      47.894  35.284  37.627  0.00  0.00    +0.000 HD
ENDBRANCH  19  24
ENDBRANCH  16  19
ENDBRANCH   1  16
BRANCH   6  31
ATOM     31  O   UNL     1      47.203  32.695  44.850  0.00  0.00    +0.000 OA
BRANCH  31  33
ATOM     32  O   UNL     1      45.997  30.544  43.866  0.00  0.00    +0.000 OA
ATOM     33  P   UNL     1      46.665  31.125  45.117  0.00  0.00    +0.000 P 
BRANCH  33  34
ATOM     34  O   UNL     1      45.408  31.240  46.271  0.00  0.00    +0.000 OA
ATOM     35  H   UNL     1      45.843  31.425  47.153  0.00  0.00    +0.000 HD
ENDBRANCH  33  34
BRANCH  33  36
ATOM     36  O   UNL     1      47.833  30.120  45.740  0.00  0.00    +0.000 OA
BRANCH  36  41
ATOM     37  H   UNL     1      50.842  27.124  42.877  0.00  0.00    +0.000 HD
ATOM     38  N   UNL     1      50.432  27.828  43.500  0.00  0.00    +0.000 NA
ATOM     39  C   UNL     1      49.770  27.222  44.621  0.00  0.00    +0.000 C 
ATOM     40  C   UNL     1      49.378  28.341  45.572  0.00  0.00    +0.000 C 
ATOM     41  C   UNL     1      48.284  29.140  44.882  0.00  0.00    +0.000 C 
ATOM     42  C   UNL     1      48.902  29.728  43.632  0.00  0.00    +0.000 C 
ATOM     43  C   UNL     1      49.490  28.642  42.781  0.00  0.00    +0.000 C 
ENDBRANCH  36  41
ENDBRANCH  33  36
ENDBRANCH  31  33
ENDBRANCH   6  31
TORSDOF 8
