
 OpenBabel03252504283D

 20 21  0  0  0  0  0  0  0  0999 V2000
   38.1190   27.5680   43.4930 C   0  0  0  0  0  0  0  0  0  0  0  0
   38.3960   28.6540   43.4810 H   0  0  0  0  0  0  0  0  0  0  0  0
   37.6370   27.3580   44.4460 H   0  0  0  0  0  0  0  0  0  0  0  0
   40.5500   27.5510   43.3410 C   0  0  0  0  0  0  0  0  0  0  0  0
   39.3760   26.7900   43.3680 C   0  0  0  0  0  0  0  0  0  0  0  0
   39.4740   25.4070   43.2800 C   0  0  0  0  0  0  0  0  0  0  0  0
   40.6980   24.8920   43.1730 N   0  0  0  0  0  0  0  0  0  0  0  0
   41.8280   25.6270   43.1480 C   0  0  0  0  0  0  0  0  0  0  0  0
   41.7880   26.9820   43.2310 N   0  0  0  0  0  0  0  0  0  0  0  0
   40.5460   28.6310   43.4060 H   0  0  0  0  0  0  0  0  0  0  0  0
   38.5570   24.8650   43.3030 H   0  0  0  0  0  0  0  0  0  0  0  0
   42.7340   25.0140   43.0540 H   0  0  0  0  0  0  0  0  0  0  0  0
   37.2590   27.3660   42.4200 O   0  0  0  0  0  0  0  0  0  0  0  0
   35.1570   31.5350   40.8740 H   0  0  0  0  0  0  0  0  0  0  0  0
   35.6150   30.6840   41.2100 N   0  0  0  0  0  0  0  0  0  0  0  0
   37.0570   30.8020   41.1700 C   0  0  0  0  0  2  0  0  0  0  0  0
   37.7340   29.6590   41.8580 C   0  0  0  0  0  2  0  0  0  0  0  0
   36.7440   28.5100   41.8940 C   0  0  0  0  0  3  0  0  0  0  0  0
   36.1350   28.3890   40.5400 C   0  0  0  0  0  2  0  0  0  0  0  0
   35.1610   29.5550   40.3960 C   0  0  0  0  0  2  0  0  0  0  0  0
  1  3  1  0  0  0  0
  2  1  1  0  0  0  0
  4  5  1  0  0  0  0
  4 10  1  0  0  0  0
  5  1  1  0  0  0  0
  6 11  1  0  0  0  0
  6  5  2  0  0  0  0
  7  6  1  0  0  0  0
  8  7  2  0  0  0  0
  8  9  1  0  0  0  0
  9  4  2  0  0  0  0
 12  8  1  0  0  0  0
 13  1  1  0  0  0  0
 14 15  1  0  0  0  0
 16 15  1  0  0  0  0
 16 17  1  0  0  0  0
 17 18  1  0  0  0  0
 18 13  1  0  0  0  0
 19 18  1  0  0  0  0
 20 19  1  0  0  0  0
 20 15  1  0  0  0  0
M  END
>  <minimizedAffinity>
-4.20292664

$$$$

 OpenBabel03252504283D

 20 21  0  0  0  0  0  0  0  0999 V2000
   37.9750   26.9060   42.7850 C   0  0  0  0  0  0  0  0  0  0  0  0
   38.5360   27.7710   42.3470 H   0  0  0  0  0  0  0  0  0  0  0  0
   38.3260   26.7660   43.8060 H   0  0  0  0  0  0  0  0  0  0  0  0
   37.3280   24.6960   41.9930 C   0  0  0  0  0  0  0  0  0  0  0  0
   38.2900   25.7120   41.9640 C   0  0  0  0  0  0  0  0  0  0  0  0
   39.4300   25.5310   41.1910 C   0  0  0  0  0  0  0  0  0  0  0  0
   39.5310   24.3840   40.5200 N   0  0  0  0  0  0  0  0  0  0  0  0
   38.6040   23.4060   40.5490 C   0  0  0  0  0  0  0  0  0  0  0  0
   37.4720   23.5330   41.2890 N   0  0  0  0  0  0  0  0  0  0  0  0
   36.4190   24.7710   42.5730 H   0  0  0  0  0  0  0  0  0  0  0  0
   40.1370   26.3280   41.1960 H   0  0  0  0  0  0  0  0  0  0  0  0
   38.8750   22.5410   39.9300 H   0  0  0  0  0  0  0  0  0  0  0  0
   36.6280   27.2440   42.7400 O   0  0  0  0  0  0  0  0  0  0  0  0
   35.3790   31.5260   40.6710 H   0  0  0  0  0  0  0  0  0  0  0  0
   35.6580   30.6510   41.1190 N   0  0  0  0  0  0  0  0  0  0  0  0
   37.0830   30.6090   41.3710 C   0  0  0  0  0  2  0  0  0  0  0  0
   37.4710   29.4380   42.2170 C   0  0  0  0  0  2  0  0  0  0  0  0
   36.3660   28.4070   42.0860 C   0  0  0  0  0  3  0  0  0  0  0  0
   36.0280   28.2800   40.6410 C   0  0  0  0  0  2  0  0  0  0  0  0
   35.2460   29.5350   40.2650 C   0  0  0  0  0  2  0  0  0  0  0  0
  1  3  1  0  0  0  0
  2  1  1  0  0  0  0
  4 10  1  0  0  0  0
  5  4  1  0  0  0  0
  5  1  1  0  0  0  0
  6 11  1  0  0  0  0
  6  5  2  0  0  0  0
  7  8  2  0  0  0  0
  7  6  1  0  0  0  0
  8  9  1  0  0  0  0
  9  4  2  0  0  0  0
 12  8  1  0  0  0  0
 13  1  1  0  0  0  0
 14 15  1  0  0  0  0
 15 16  1  0  0  0  0
 16 17  1  0  0  0  0
 18 17  1  0  0  0  0
 18 13  1  0  0  0  0
 19 18  1  0  0  0  0
 20 19  1  0  0  0  0
 20 15  1  0  0  0  0
M  END
>  <minimizedAffinity>
-4.12619162

$$$$

 OpenBabel03252504283D

 20 21  0  0  0  0  0  0  0  0999 V2000
   39.3150   30.1000   42.7130 C   0  0  0  0  0  0  0  0  0  0  0  0
   40.2830   29.8860   43.2370 H   0  0  0  0  0  0  0  0  0  0  0  0
   38.8030   30.8830   43.2700 H   0  0  0  0  0  0  0  0  0  0  0  0
   38.9480   27.8550   41.8450 C   0  0  0  0  0  0  0  0  0  0  0  0
   38.5170   28.8510   42.7290 C   0  0  0  0  0  0  0  0  0  0  0  0
   37.4090   28.6000   43.5290 C   0  0  0  0  0  0  0  0  0  0  0  0
   36.8230   27.4100   43.3970 N   0  0  0  0  0  0  0  0  0  0  0  0
   37.2400   26.4520   42.5460 C   0  0  0  0  0  0  0  0  0  0  0  0
   38.3170   26.6460   41.7420 N   0  0  0  0  0  0  0  0  0  0  0  0
   39.8020   27.9840   41.1940 H   0  0  0  0  0  0  0  0  0  0  0  0
   37.1140   29.3840   44.1870 H   0  0  0  0  0  0  0  0  0  0  0  0
   36.6230   25.5450   42.5880 H   0  0  0  0  0  0  0  0  0  0  0  0
   39.6430   30.5080   41.4250 O   0  0  0  0  0  0  0  0  0  0  0  0
   36.3360   33.8010   39.8780 H   0  0  0  0  0  0  0  0  0  0  0  0
   37.0370   33.1380   40.2140 N   0  0  0  0  0  0  0  0  0  0  0  0
   38.3660   33.7140   40.2030 C   0  0  0  0  0  2  0  0  0  0  0  0
   39.3630   32.8400   40.8940 C   0  0  0  0  0  2  0  0  0  0  0  0
   38.7950   31.4330   40.9000 C   0  0  0  0  0  3  0  0  0  0  0  0
   38.2780   31.1420   39.5340 C   0  0  0  0  0  2  0  0  0  0  0  0
   36.9840   31.9350   39.3820 C   0  0  0  0  0  2  0  0  0  0  0  0
  1  5  1  0  0  0  0
  1  2  1  0  0  0  0
  1  3  1  0  0  0  0
  4  5  1  0  0  0  0
  5  6  2  0  0  0  0
  6 11  1  0  0  0  0
  7  6  1  0  0  0  0
  8 12  1  0  0  0  0
  8  7  2  0  0  0  0
  9  4  2  0  0  0  0
  9  8  1  0  0  0  0
 10  4  1  0  0  0  0
 13  1  1  0  0  0  0
 14 15  1  0  0  0  0
 16 15  1  0  0  0  0
 16 17  1  0  0  0  0
 17 18  1  0  0  0  0
 18 13  1  0  0  0  0
 19 18  1  0  0  0  0
 20 19  1  0  0  0  0
 20 15  1  0  0  0  0
M  END
>  <minimizedAffinity>
-4.1017108

$$$$

 OpenBabel03252504283D

 20 21  0  0  0  0  0  0  0  0999 V2000
   38.9820   28.7100   42.9120 C   0  0  0  0  0  0  0  0  0  0  0  0
   39.3260   29.1710   43.8750 H   0  0  0  0  0  0  0  0  0  0  0  0
   39.8560   28.3010   42.4090 H   0  0  0  0  0  0  0  0  0  0  0  0
   37.0000   29.6620   41.8670 C   0  0  0  0  0  0  0  0  0  0  0  0
   38.3740   29.7890   42.0970 C   0  0  0  0  0  0  0  0  0  0  0  0
   39.0440   30.8830   41.5620 C   0  0  0  0  0  0  0  0  0  0  0  0
   38.3190   31.7490   40.8540 N   0  0  0  0  0  0  0  0  0  0  0  0
   36.9950   31.6250   40.6330 C   0  0  0  0  0  0  0  0  0  0  0  0
   36.2940   30.5750   41.1340 N   0  0  0  0  0  0  0  0  0  0  0  0
   36.4180   28.8360   42.2540 H   0  0  0  0  0  0  0  0  0  0  0  0
   40.0880   30.9410   41.7600 H   0  0  0  0  0  0  0  0  0  0  0  0
   36.5850   32.4430   40.0260 H   0  0  0  0  0  0  0  0  0  0  0  0
   38.0680   27.7190   43.2520 O   0  0  0  0  0  0  0  0  0  0  0  0
   39.6360   23.0640   43.0260 H   0  0  0  0  0  0  0  0  0  0  0  0
   39.2830   24.0220   43.0670 N   0  0  0  0  0  0  0  0  0  0  0  0
   38.3140   24.2790   42.0210 C   0  0  0  0  0  2  0  0  0  0  0  0
   37.6300   25.5970   42.2000 C   0  0  0  0  0  2  0  0  0  0  0  0
   38.5280   26.4510   43.0750 C   0  0  0  0  0  3  0  0  0  0  0  0
   39.9200   26.3290   42.5600 C   0  0  0  0  0  2  0  0  0  0  0  0
   40.4150   24.9450   42.9670 C   0  0  0  0  0  2  0  0  0  0  0  0
  1 13  1  0  0  0  0
  1  2  1  0  0  0  0
  3  1  1  0  0  0  0
  4  5  1  0  0  0  0
  4 10  1  0  0  0  0
  5  1  1  0  0  0  0
  6 11  1  0  0  0  0
  6  5  2  0  0  0  0
  7  6  1  0  0  0  0
  8  7  2  0  0  0  0
  8  9  1  0  0  0  0
  9  4  2  0  0  0  0
 12  8  1  0  0  0  0
 14 15  1  0  0  0  0
 16 17  1  0  0  0  0
 16 15  1  0  0  0  0
 17 18  1  0  0  0  0
 18 13  1  0  0  0  0
 19 20  1  0  0  0  0
 19 18  1  0  0  0  0
 20 15  1  0  0  0  0
M  END
>  <minimizedAffinity>
-4.00689316

$$$$

 OpenBabel03252504283D

 20 21  0  0  0  0  0  0  0  0999 V2000
   36.4720   30.5540   41.2190 C   0  0  0  0  0  0  0  0  0  0  0  0
   37.2600   31.2950   40.9250 H   0  0  0  0  0  0  0  0  0  0  0  0
   35.7590   31.0650   41.8630 H   0  0  0  0  0  0  0  0  0  0  0  0
   36.4690   28.2370   41.9700 C   0  0  0  0  0  0  0  0  0  0  0  0
   37.1470   29.4620   41.9610 C   0  0  0  0  0  0  0  0  0  0  0  0
   38.3630   29.5580   42.6270 C   0  0  0  0  0  0  0  0  0  0  0  0
   38.8060   28.4600   43.2390 N   0  0  0  0  0  0  0  0  0  0  0  0
   38.1530   27.2810   43.2460 C   0  0  0  0  0  0  0  0  0  0  0  0
   36.9610   27.1340   42.6110 N   0  0  0  0  0  0  0  0  0  0  0  0
   35.5200   28.0940   41.4720 H   0  0  0  0  0  0  0  0  0  0  0  0
   38.8450   30.5060   42.5970 H   0  0  0  0  0  0  0  0  0  0  0  0
   38.6840   26.5010   43.8060 H   0  0  0  0  0  0  0  0  0  0  0  0
   35.8840   30.1120   40.0390 O   0  0  0  0  0  0  0  0  0  0  0  0
   38.9710   30.3910   36.2220 H   0  0  0  0  0  0  0  0  0  0  0  0
   38.3160   30.3100   37.0020 N   0  0  0  0  0  0  0  0  0  0  0  0
   36.9750   30.0080   36.5460 C   0  0  0  0  0  2  0  0  0  0  0  0
   36.0580   29.6710   37.6780 C   0  0  0  0  0  2  0  0  0  0  0  0
   36.6630   30.2680   38.9350 C   0  0  0  0  0  3  0  0  0  0  0  0
   37.0800   31.6630   38.6230 C   0  0  0  0  0  2  0  0  0  0  0  0
   38.3370   31.5590   37.7650 C   0  0  0  0  0  2  0  0  0  0  0  0
  1  3  1  0  0  0  0
  1  5  1  0  0  0  0
  2  1  1  0  0  0  0
  4  9  1  0  0  0  0
  5  4  2  0  0  0  0
  5  6  1  0  0  0  0
  6  7  2  0  0  0  0
  7  8  1  0  0  0  0
  8 12  1  0  0  0  0
  9  8  2  0  0  0  0
 10  4  1  0  0  0  0
 11  6  1  0  0  0  0
 13  1  1  0  0  0  0
 14 15  1  0  0  0  0
 15 20  1  0  0  0  0
 16 15  1  0  0  0  0
 16 17  1  0  0  0  0
 17 18  1  0  0  0  0
 18 13  1  0  0  0  0
 19 18  1  0  0  0  0
 20 19  1  0  0  0  0
M  END
>  <minimizedAffinity>
-3.95717072

$$$$

 OpenBabel03252504283D

 20 21  0  0  0  0  0  0  0  0999 V2000
   37.3940   31.1190   39.7130 C   0  0  0  0  0  0  0  0  0  0  0  0
   37.8480   30.0970   39.6360 H   0  0  0  0  0  0  0  0  0  0  0  0
   36.6980   31.2370   38.8840 H   0  0  0  0  0  0  0  0  0  0  0  0
   38.4400   33.1700   40.5060 C   0  0  0  0  0  0  0  0  0  0  0  0
   38.4980   32.1030   39.6030 C   0  0  0  0  0  0  0  0  0  0  0  0
   39.5530   32.0490   38.7000 C   0  0  0  0  0  0  0  0  0  0  0  0
   40.4500   33.0330   38.7570 N   0  0  0  0  0  0  0  0  0  0  0  0
   40.3930   34.0590   39.6290 C   0  0  0  0  0  0  0  0  0  0  0  0
   39.3840   34.1590   40.5320 N   0  0  0  0  0  0  0  0  0  0  0  0
   37.6470   33.2740   41.2350 H   0  0  0  0  0  0  0  0  0  0  0  0
   39.5590   31.2220   38.0290 H   0  0  0  0  0  0  0  0  0  0  0  0
   41.2270   34.7640   39.5140 H   0  0  0  0  0  0  0  0  0  0  0  0
   36.7510   31.1750   40.9430 O   0  0  0  0  0  0  0  0  0  0  0  0
   36.3870   27.0560   43.6040 H   0  0  0  0  0  0  0  0  0  0  0  0
   36.4450   27.9000   43.0300 N   0  0  0  0  0  0  0  0  0  0  0  0
   36.5810   27.5820   41.6240 C   0  0  0  0  0  2  0  0  0  0  0  0
   36.4480   28.7930   40.7580 C   0  0  0  0  0  2  0  0  0  0  0  0
   36.7500   29.9990   41.6270 C   0  0  0  0  0  3  0  0  0  0  0  0
   37.9810   29.7010   42.4110 C   0  0  0  0  0  2  0  0  0  0  0  0
   37.5760   28.7060   43.4940 C   0  0  0  0  0  2  0  0  0  0  0  0
  1 13  1  0  0  0  0
  2  1  1  0  0  0  0
  3  1  1  0  0  0  0
  4  9  1  0  0  0  0
  4 10  1  0  0  0  0
  5  1  1  0  0  0  0
  5  4  2  0  0  0  0
  6  7  2  0  0  0  0
  6  5  1  0  0  0  0
  7  8  1  0  0  0  0
  8  9  2  0  0  0  0
 11  6  1  0  0  0  0
 12  8  1  0  0  0  0
 13 18  1  0  0  0  0
 15 20  1  0  0  0  0
 15 14  1  0  0  0  0
 16 15  1  0  0  0  0
 17 16  1  0  0  0  0
 17 18  1  0  0  0  0
 18 19  1  0  0  0  0
 19 20  1  0  0  0  0
M  END
>  <minimizedAffinity>
-3.93390703

$$$$

 OpenBabel03252504283D

 20 21  0  0  0  0  0  0  0  0999 V2000
   35.7100   29.4440   40.7510 C   0  0  0  0  0  0  0  0  0  0  0  0
   34.6140   29.4280   40.9860 H   0  0  0  0  0  0  0  0  0  0  0  0
   35.8170   29.4810   39.6690 H   0  0  0  0  0  0  0  0  0  0  0  0
   36.5770   27.2080   40.3280 C   0  0  0  0  0  0  0  0  0  0  0  0
   36.2950   28.1900   41.2840 C   0  0  0  0  0  0  0  0  0  0  0  0
   36.5770   27.9240   42.6190 C   0  0  0  0  0  0  0  0  0  0  0  0
   37.1040   26.7330   42.9010 N   0  0  0  0  0  0  0  0  0  0  0  0
   37.3750   25.7880   41.9780 C   0  0  0  0  0  0  0  0  0  0  0  0
   37.1190   25.9980   40.6610 N   0  0  0  0  0  0  0  0  0  0  0  0
   36.3820   27.3490   39.2740 H   0  0  0  0  0  0  0  0  0  0  0  0
   36.3470   28.6970   43.3140 H   0  0  0  0  0  0  0  0  0  0  0  0
   37.8060   24.8770   42.4140 H   0  0  0  0  0  0  0  0  0  0  0  0
   36.2300   30.5780   41.3640 O   0  0  0  0  0  0  0  0  0  0  0  0
   38.7970   33.7140   38.5790 H   0  0  0  0  0  0  0  0  0  0  0  0
   38.2830   33.0660   39.1790 N   0  0  0  0  0  0  0  0  0  0  0  0
   39.1780   32.1940   39.9130 C   0  0  0  0  0  2  0  0  0  0  0  0
   38.4580   31.3950   40.9520 C   0  0  0  0  0  2  0  0  0  0  0  0
   36.9960   31.3510   40.5480 C   0  0  0  0  0  3  0  0  0  0  0  0
   36.9320   31.0280   39.0950 C   0  0  0  0  0  2  0  0  0  0  0  0
   37.3610   32.2880   38.3500 C   0  0  0  0  0  2  0  0  0  0  0  0
  1  2  1  0  0  0  0
  1  5  1  0  0  0  0
  1 13  1  0  0  0  0
  3  1  1  0  0  0  0
  4  9  2  0  0  0  0
  4  5  1  0  0  0  0
  5  6  2  0  0  0  0
  6  7  1  0  0  0  0
  6 11  1  0  0  0  0
  8 12  1  0  0  0  0
  8  7  2  0  0  0  0
  9  8  1  0  0  0  0
 10  4  1  0  0  0  0
 14 15  1  0  0  0  0
 15 16  1  0  0  0  0
 16 17  1  0  0  0  0
 18 17  1  0  0  0  0
 18 13  1  0  0  0  0
 19 18  1  0  0  0  0
 20 19  1  0  0  0  0
 20 15  1  0  0  0  0
M  END
>  <minimizedAffinity>
-3.89548874

$$$$

 OpenBabel03252504283D

 20 21  0  0  0  0  0  0  0  0999 V2000
   35.4570   28.9680   40.5840 C   0  0  0  0  0  0  0  0  0  0  0  0
   34.4230   28.8860   40.1590 H   0  0  0  0  0  0  0  0  0  0  0  0
   35.3630   29.1780   41.6480 H   0  0  0  0  0  0  0  0  0  0  0  0
   36.4880   31.1700   40.7140 C   0  0  0  0  0  0  0  0  0  0  0  0
   36.1310   30.0940   39.8940 C   0  0  0  0  0  0  0  0  0  0  0  0
   36.4280   30.1590   38.5380 C   0  0  0  0  0  0  0  0  0  0  0  0
   37.0400   31.2610   38.1050 N   0  0  0  0  0  0  0  0  0  0  0  0
   37.3840   32.2970   38.8960 C   0  0  0  0  0  0  0  0  0  0  0  0
   37.1170   32.2830   40.2280 N   0  0  0  0  0  0  0  0  0  0  0  0
   36.2870   31.1850   41.7770 H   0  0  0  0  0  0  0  0  0  0  0  0
   36.1390   29.3200   37.9490 H   0  0  0  0  0  0  0  0  0  0  0  0
   37.8790   33.1080   38.3470 H   0  0  0  0  0  0  0  0  0  0  0  0
   36.0800   27.7480   40.3480 O   0  0  0  0  0  0  0  0  0  0  0  0
   39.6190   26.7250   43.6060 H   0  0  0  0  0  0  0  0  0  0  0  0
   38.8750   26.9600   42.9460 N   0  0  0  0  0  0  0  0  0  0  0  0
   37.6540   27.3370   43.6280 C   0  0  0  0  0  2  0  0  0  0  0  0
   36.6320   27.8920   42.6880 C   0  0  0  0  0  2  0  0  0  0  0  0
   36.9830   27.3890   41.3010 C   0  0  0  0  0  3  0  0  0  0  0  0
   37.2790   25.9330   41.4020 C   0  0  0  0  0  2  0  0  0  0  0  0
   38.6470   25.8130   42.0670 C   0  0  0  0  0  2  0  0  0  0  0  0
  1  3  1  0  0  0  0
  2  1  1  0  0  0  0
  4 10  1  0  0  0  0
  5  1  1  0  0  0  0
  5  4  2  0  0  0  0
  6  5  1  0  0  0  0
  7  6  2  0  0  0  0
  7  8  1  0  0  0  0
  8  9  2  0  0  0  0
  9  4  1  0  0  0  0
 11  6  1  0  0  0  0
 12  8  1  0  0  0  0
 13  1  1  0  0  0  0
 13 18  1  0  0  0  0
 15 14  1  0  0  0  0
 15 16  1  0  0  0  0
 17 16  1  0  0  0  0
 18 19  1  0  0  0  0
 18 17  1  0  0  0  0
 19 20  1  0  0  0  0
 20 15  1  0  0  0  0
M  END
>  <minimizedAffinity>
-3.87390947

$$$$

 OpenBabel03252504283D

 20 21  0  0  0  0  0  0  0  0999 V2000
   39.1780   29.3070   40.1220 C   0  0  0  0  0  0  0  0  0  0  0  0
   38.3830   29.4700   39.3490 H   0  0  0  0  0  0  0  0  0  0  0  0
   39.8800   28.5740   39.7280 H   0  0  0  0  0  0  0  0  0  0  0  0
   37.1590   28.4590   41.1870 C   0  0  0  0  0  0  0  0  0  0  0  0
   38.5120   28.7820   41.3380 C   0  0  0  0  0  0  0  0  0  0  0  0
   39.1100   28.5920   42.5780 C   0  0  0  0  0  0  0  0  0  0  0  0
   38.3410   28.1070   43.5530 N   0  0  0  0  0  0  0  0  0  0  0  0
   37.0380   27.7960   43.4050 C   0  0  0  0  0  0  0  0  0  0  0  0
   36.4060   27.9630   42.2140 N   0  0  0  0  0  0  0  0  0  0  0  0
   36.6330   28.5820   40.2500 H   0  0  0  0  0  0  0  0  0  0  0  0
   40.1400   28.8510   42.6520 H   0  0  0  0  0  0  0  0  0  0  0  0
   36.5830   27.4120   44.3270 H   0  0  0  0  0  0  0  0  0  0  0  0
   39.7820   30.5410   40.3360 O   0  0  0  0  0  0  0  0  0  0  0  0
   36.5160   34.2080   40.0760 H   0  0  0  0  0  0  0  0  0  0  0  0
   37.2090   33.4600   40.1520 N   0  0  0  0  0  0  0  0  0  0  0  0
   38.5380   33.9850   40.3830 C   0  0  0  0  0  2  0  0  0  0  0  0
   39.5190   32.9050   40.7130 C   0  0  0  0  0  2  0  0  0  0  0  0
   38.9480   31.6050   40.1810 C   0  0  0  0  0  3  0  0  0  0  0  0
   38.4590   31.8530   38.7960 C   0  0  0  0  0  2  0  0  0  0  0  0
   37.1700   32.6580   38.9280 C   0  0  0  0  0  2  0  0  0  0  0  0
  1 13  1  0  0  0  0
  1  5  1  0  0  0  0
  2  1  1  0  0  0  0
  3  1  1  0  0  0  0
  4  5  2  0  0  0  0
  4  9  1  0  0  0  0
  5  6  1  0  0  0  0
  6 11  1  0  0  0  0
  6  7  2  0  0  0  0
  8  7  1  0  0  0  0
  8 12  1  0  0  0  0
  9  8  2  0  0  0  0
 10  4  1  0  0  0  0
 14 15  1  0  0  0  0
 15 16  1  0  0  0  0
 16 17  1  0  0  0  0
 18 13  1  0  0  0  0
 18 17  1  0  0  0  0
 19 20  1  0  0  0  0
 19 18  1  0  0  0  0
 20 15  1  0  0  0  0
M  END
>  <minimizedAffinity>
-3.86746025

$$$$
