
 OpenBabel03242514563D

 17 18  0  0  1  0  0  0  0  0999 V2000
   37.7020   29.5400   42.2610 C   0  0  0  0  0  0  0  0  0  0  0  0
   38.9310   30.2240   42.1630 C   0  0  0  0  0  0  0  0  0  0  0  0
   38.9670   31.3840   41.3580 C   0  0  0  0  0  0  0  0  0  0  0  0
   37.8290   31.7610   40.7370 N   0  0  0  0  0  0  0  0  0  0  0  0
   36.6770   31.0860   40.8520 C   0  0  0  0  0  0  0  0  0  0  0  0
   36.6140   29.9810   41.6120 N   0  0  0  0  0  0  0  0  0  0  0  0
   39.8580   29.9690   42.6330 H   0  0  0  0  0  0  0  0  0  0  0  0
   39.8560   31.9650   41.2260 H   0  0  0  0  0  0  0  0  0  0  0  0
   35.7410   31.3410   40.3800 H   0  0  0  0  0  0  0  0  0  0  0  0
   37.7510   28.0870   43.3020 S   0  0  0  0  0  0  0  0  0  0  0  0
   38.7260   22.8850   42.5890 H   0  0  0  0  0  0  0  0  0  0  0  0
   38.8010   23.8840   42.2580 N   0  0  0  0  0  0  0  0  0  0  0  0
   39.6780   24.5810   43.1490 C   0  0  0  0  0  3  0  0  0  0  0  0
   39.4480   26.0210   43.3500 C   0  0  0  0  0  3  0  0  0  0  0  0
   38.5190   26.6910   42.4070 C   0  0  1  0  0  3  0  0  0  0  0  0
   37.4090   25.8610   41.8600 C   0  0  0  0  0  2  0  0  0  0  0  0
   37.4750   24.4060   42.2050 C   0  0  0  0  0  2  0  0  0  0  0  0
  1 10  1  0  0  0  0
  2  1  1  0  0  0  0
  2  7  1  0  0  0  0
  3  2  2  0  0  0  0
  4  5  2  0  0  0  0
  4  3  1  0  0  0  0
  5  6  1  0  0  0  0
  6  1  2  0  0  0  0
  8  3  1  0  0  0  0
  9  5  1  0  0  0  0
 12 11  1  0  0  0  0
 12 13  1  0  0  0  0
 13 14  2  0  0  0  0
 15 10  1  1  0  0  0
 15 14  1  0  0  0  0
 16 17  1  0  0  0  0
 16 15  1  0  0  0  0
 17 12  1  0  0  0  0
M  END
>  <minimizedAffinity>
-4.16322851

$$$$

 OpenBabel03242514563D

 17 18  0  0  1  0  0  0  0  0999 V2000
   38.3190   28.6690   41.7340 C   0  0  0  0  0  0  0  0  0  0  0  0
   37.7940   28.8640   43.0280 C   0  0  0  0  0  0  0  0  0  0  0  0
   37.0610   27.8000   43.5990 C   0  0  0  0  0  0  0  0  0  0  0  0
   36.9100   26.6710   42.8740 N   0  0  0  0  0  0  0  0  0  0  0  0
   37.4240   26.5200   41.6450 C   0  0  0  0  0  0  0  0  0  0  0  0
   38.1260   27.5140   41.0780 N   0  0  0  0  0  0  0  0  0  0  0  0
   37.8840   29.7350   43.6430 H   0  0  0  0  0  0  0  0  0  0  0  0
   36.6260   27.8610   44.5750 H   0  0  0  0  0  0  0  0  0  0  0  0
   37.3350   25.6430   41.0230 H   0  0  0  0  0  0  0  0  0  0  0  0
   39.2320   30.0660   41.0930 S   0  0  0  0  0  0  0  0  0  0  0  0
   37.2760   34.5780   39.0120 H   0  0  0  0  0  0  0  0  0  0  0  0
   37.3030   33.8650   39.7900 N   0  0  0  0  0  0  0  0  0  0  0  0
   38.5790   33.9600   40.4310 C   0  0  0  0  0  3  0  0  0  0  0  0
   39.1360   32.7370   41.0340 C   0  0  0  0  0  3  0  0  0  0  0  0
   38.2160   31.5820   41.1810 C   0  0  1  0  0  3  0  0  0  0  0  0
   37.1450   31.4470   40.1550 C   0  0  0  0  0  2  0  0  0  0  0  0
   37.0310   32.5950   39.2000 C   0  0  0  0  0  2  0  0  0  0  0  0
  1  2  1  0  0  0  0
  2  3  2  0  0  0  0
  2  7  1  0  0  0  0
  3  8  1  0  0  0  0
  4  3  1  0  0  0  0
  5  4  2  0  0  0  0
  6  5  1  0  0  0  0
  6  1  2  0  0  0  0
  9  5  1  0  0  0  0
 10  1  1  0  0  0  0
 11 12  1  0  0  0  0
 12 13  1  0  0  0  0
 13 14  2  0  0  0  0
 14 15  1  0  0  0  0
 15 10  1  6  0  0  0
 16 15  1  0  0  0  0
 17 12  1  0  0  0  0
 17 16  1  0  0  0  0
M  END
>  <minimizedAffinity>
-3.9968245

$$$$

 OpenBabel03242514563D

 17 18  0  0  1  0  0  0  0  0999 V2000
   36.3840   28.1060   41.2340 C   0  0  0  0  0  0  0  0  0  0  0  0
   36.6180   27.1410   40.2320 C   0  0  0  0  0  0  0  0  0  0  0  0
   37.0470   25.8620   40.6490 C   0  0  0  0  0  0  0  0  0  0  0  0
   37.2070   25.6440   41.9710 N   0  0  0  0  0  0  0  0  0  0  0  0
   36.9750   26.5850   42.8980 C   0  0  0  0  0  0  0  0  0  0  0  0
   36.5650   27.8100   42.5310 N   0  0  0  0  0  0  0  0  0  0  0  0
   36.5080   27.2610   39.1750 H   0  0  0  0  0  0  0  0  0  0  0  0
   37.2500   25.0700   39.9570 H   0  0  0  0  0  0  0  0  0  0  0  0
   37.0850   26.4670   43.9650 H   0  0  0  0  0  0  0  0  0  0  0  0
   35.8420   29.6930   40.6150 S   0  0  0  0  0  0  0  0  0  0  0  0
   37.8560   33.5400   37.5080 H   0  0  0  0  0  0  0  0  0  0  0  0
   37.9960   32.7440   38.1850 N   0  0  0  0  0  0  0  0  0  0  0  0
   37.6080   31.5320   37.5290 C   0  0  0  0  0  3  0  0  0  0  0  0
   37.0690   30.4440   38.3620 C   0  0  0  0  0  3  0  0  0  0  0  0
   37.2350   30.5770   39.8300 C   0  0  1  0  0  3  0  0  0  0  0  0
   37.2360   31.9610   40.3790 C   0  0  0  0  0  2  0  0  0  0  0  0
   37.2390   33.0520   39.3540 C   0  0  0  0  0  2  0  0  0  0  0  0
  1  6  1  0  0  0  0
  2  3  1  0  0  0  0
  2  1  2  0  0  0  0
  3  4  2  0  0  0  0
  4  5  1  0  0  0  0
  5  9  1  0  0  0  0
  6  5  2  0  0  0  0
  7  2  1  0  0  0  0
  8  3  1  0  0  0  0
 10  1  1  0  0  0  0
 11 12  1  0  0  0  0
 12 17  1  0  0  0  0
 13 12  1  0  0  0  0
 13 14  2  0  0  0  0
 14 15  1  0  0  0  0
 15 16  1  0  0  0  0
 15 10  1  1  0  0  0
 17 16  1  0  0  0  0
M  END
>  <minimizedAffinity>
-3.86288381

$$$$

 OpenBabel03242514563D

 17 18  0  0  1  0  0  0  0  0999 V2000
   38.2210   31.7040   39.8000 C   0  0  0  0  0  0  0  0  0  0  0  0
   37.5360   32.8940   40.1230 C   0  0  0  0  0  0  0  0  0  0  0  0
   38.2720   34.0990   40.0790 C   0  0  0  0  0  0  0  0  0  0  0  0
   39.5750   34.0360   39.7330 N   0  0  0  0  0  0  0  0  0  0  0  0
   40.1950   32.8860   39.4310 C   0  0  0  0  0  0  0  0  0  0  0  0
   39.5200   31.7250   39.4640 N   0  0  0  0  0  0  0  0  0  0  0  0
   36.5100   32.9980   40.4030 H   0  0  0  0  0  0  0  0  0  0  0  0
   37.8340   35.0480   40.3100 H   0  0  0  0  0  0  0  0  0  0  0  0
   41.2300   32.7770   39.1490 H   0  0  0  0  0  0  0  0  0  0  0  0
   37.2120   30.2300   39.8810 S   0  0  0  0  0  0  0  0  0  0  0  0
   38.0700   27.0760   44.1030 H   0  0  0  0  0  0  0  0  0  0  0  0
   37.6400   27.9410   43.6790 N   0  0  0  0  0  0  0  0  0  0  0  0
   36.6140   27.5260   42.7710 C   0  0  0  0  0  3  0  0  0  0  0  0
   36.3390   28.3860   41.6080 C   0  0  0  0  0  3  0  0  0  0  0  0
   36.9380   29.7440   41.6200 C   0  0  1  0  0  3  0  0  0  0  0  0
   38.2430   29.8910   42.3240 C   0  0  0  0  0  2  0  0  0  0  0  0
   38.7000   28.6800   43.0760 C   0  0  0  0  0  2  0  0  0  0  0  0
  1 10  1  0  0  0  0
  1  2  1  0  0  0  0
  2  7  1  0  0  0  0
  3  2  2  0  0  0  0
  3  8  1  0  0  0  0
  4  3  1  0  0  0  0
  5  6  1  0  0  0  0
  5  4  2  0  0  0  0
  6  1  2  0  0  0  0
  9  5  1  0  0  0  0
 12 11  1  0  0  0  0
 13 12  1  0  0  0  0
 14 15  1  0  0  0  0
 14 13  2  0  0  0  0
 15 10  1  6  0  0  0
 15 16  1  0  0  0  0
 16 17  1  0  0  0  0
 17 12  1  0  0  0  0
M  END
>  <minimizedAffinity>
-3.84737253

$$$$

 OpenBabel03242514563D

 17 18  0  0  1  0  0  0  0  0999 V2000
   38.5000   29.1040   42.2830 C   0  0  0  0  0  0  0  0  0  0  0  0
   37.7720   28.9170   43.4770 C   0  0  0  0  0  0  0  0  0  0  0  0
   36.9790   27.7520   43.5780 C   0  0  0  0  0  0  0  0  0  0  0  0
   36.9670   26.8980   42.5330 N   0  0  0  0  0  0  0  0  0  0  0  0
   37.6730   27.1070   41.4120 C   0  0  0  0  0  0  0  0  0  0  0  0
   38.4360   28.2050   41.2890 N   0  0  0  0  0  0  0  0  0  0  0  0
   37.7450   29.5600   44.3300 H   0  0  0  0  0  0  0  0  0  0  0  0
   36.3930   27.5300   44.4460 H   0  0  0  0  0  0  0  0  0  0  0  0
   37.7010   26.4600   40.5490 H   0  0  0  0  0  0  0  0  0  0  0  0
   39.4750   30.6010   42.2440 S   0  0  0  0  0  0  0  0  0  0  0  0
   37.9480   34.8830   39.4430 H   0  0  0  0  0  0  0  0  0  0  0  0
   38.3830   33.9230   39.4820 N   0  0  0  0  0  0  0  0  0  0  0  0
   37.3560   32.9860   39.8260 C   0  0  0  0  0  3  0  0  0  0  0  0
   37.7490   31.7840   40.5800 C   0  0  0  0  0  3  0  0  0  0  0  0
   39.2020   31.4960   40.6750 C   0  0  1  0  0  3  0  0  0  0  0  0
   40.1170   32.6720   40.6800 C   0  0  0  0  0  2  0  0  0  0  0  0
   39.4580   33.9910   40.4170 C   0  0  0  0  0  2  0  0  0  0  0  0
  1  2  1  0  0  0  0
  2  3  2  0  0  0  0
  2  7  1  0  0  0  0
  3  8  1  0  0  0  0
  4  3  1  0  0  0  0
  5  4  2  0  0  0  0
  6  5  1  0  0  0  0
  6  1  2  0  0  0  0
  9  5  1  0  0  0  0
 10  1  1  0  0  0  0
 11 12  1  0  0  0  0
 12 13  1  0  0  0  0
 12 17  1  0  0  0  0
 13 14  2  0  0  0  0
 14 15  1  0  0  0  0
 15 16  1  0  0  0  0
 15 10  1  1  0  0  0
 17 16  1  0  0  0  0
M  END
>  <minimizedAffinity>
-3.84463477

$$$$

 OpenBabel03242514563D

 17 18  0  0  1  0  0  0  0  0999 V2000
   38.1740   26.7900   42.9650 C   0  0  0  0  0  0  0  0  0  0  0  0
   39.3920   26.7460   43.6760 C   0  0  0  0  0  0  0  0  0  0  0  0
   40.0980   25.5240   43.6790 C   0  0  0  0  0  0  0  0  0  0  0  0
   39.5670   24.4800   43.0070 N   0  0  0  0  0  0  0  0  0  0  0  0
   38.4060   24.5570   42.3420 C   0  0  0  0  0  0  0  0  0  0  0  0
   37.7130   25.7070   42.3200 N   0  0  0  0  0  0  0  0  0  0  0  0
   39.8550   27.5400   44.2220 H   0  0  0  0  0  0  0  0  0  0  0  0
   41.0290   25.4000   44.1930 H   0  0  0  0  0  0  0  0  0  0  0  0
   37.9360   23.7580   41.7890 H   0  0  0  0  0  0  0  0  0  0  0  0
   37.3510   28.3760   43.0140 S   0  0  0  0  0  0  0  0  0  0  0  0
   38.3970   32.9560   40.4750 H   0  0  0  0  0  0  0  0  0  0  0  0
   38.3250   31.9040   40.4710 N   0  0  0  0  0  0  0  0  0  0  0  0
   36.9440   31.5540   40.6130 C   0  0  0  0  0  3  0  0  0  0  0  0
   36.6240   30.2860   41.2900 C   0  0  0  0  0  3  0  0  0  0  0  0
   37.7470   29.3420   41.5140 C   0  0  1  0  0  3  0  0  0  0  0  0
   39.0930   29.9450   41.7280 C   0  0  0  0  0  2  0  0  0  0  0  0
   39.1670   31.4250   41.5190 C   0  0  0  0  0  2  0  0  0  0  0  0
  1 10  1  0  0  0  0
  1  2  1  0  0  0  0
  2  3  2  0  0  0  0
  2  7  1  0  0  0  0
  3  8  1  0  0  0  0
  4  3  1  0  0  0  0
  5  4  2  0  0  0  0
  6  5  1  0  0  0  0
  6  1  2  0  0  0  0
  9  5  1  0  0  0  0
 12 11  1  0  0  0  0
 12 13  1  0  0  0  0
 12 17  1  0  0  0  0
 13 14  2  0  0  0  0
 14 15  1  0  0  0  0
 15 16  1  0  0  0  0
 15 10  1  1  0  0  0
 17 16  1  0  0  0  0
M  END
>  <minimizedAffinity>
-3.79870319

$$$$

 OpenBabel03242514563D

 17 18  0  0  1  0  0  0  0  0999 V2000
   38.8780   25.1750   41.6220 C   0  0  0  0  0  0  0  0  0  0  0  0
   38.2080   23.9410   41.7560 C   0  0  0  0  0  0  0  0  0  0  0  0
   37.7150   23.3380   40.5770 C   0  0  0  0  0  0  0  0  0  0  0  0
   37.9140   23.9770   39.4050 N   0  0  0  0  0  0  0  0  0  0  0  0
   38.5570   25.1510   39.3140 C   0  0  0  0  0  0  0  0  0  0  0  0
   39.0370   25.7460   40.4180 N   0  0  0  0  0  0  0  0  0  0  0  0
   38.0230   23.3950   42.6560 H   0  0  0  0  0  0  0  0  0  0  0  0
   37.1930   22.4030   40.5850 H   0  0  0  0  0  0  0  0  0  0  0  0
   38.7440   25.7040   38.4070 H   0  0  0  0  0  0  0  0  0  0  0  0
   39.4690   25.8610   43.1630 S   0  0  0  0  0  0  0  0  0  0  0  0
   36.6120   30.1900   41.8950 H   0  0  0  0  0  0  0  0  0  0  0  0
   36.9940   29.5260   42.6200 N   0  0  0  0  0  0  0  0  0  0  0  0
   38.4160   29.6910   42.6650 C   0  0  0  0  0  3  0  0  0  0  0  0
   39.2300   28.5210   43.0330 C   0  0  0  0  0  3  0  0  0  0  0  0
   38.5100   27.3540   43.6010 C   0  0  1  0  0  3  0  0  0  0  0  0
   37.1170   27.1310   43.1240 C   0  0  0  0  0  2  0  0  0  0  0  0
   36.5620   28.2170   42.2550 C   0  0  0  0  0  2  0  0  0  0  0  0
  1  2  1  0  0  0  0
  1 10  1  0  0  0  0
  2  7  1  0  0  0  0
  3  8  1  0  0  0  0
  3  2  2  0  0  0  0
  4  3  1  0  0  0  0
  5  4  2  0  0  0  0
  5  6  1  0  0  0  0
  6  1  2  0  0  0  0
  9  5  1  0  0  0  0
 11 12  1  0  0  0  0
 12 13  1  0  0  0  0
 13 14  2  0  0  0  0
 14 15  1  0  0  0  0
 15 10  1  6  0  0  0
 16 15  1  0  0  0  0
 17 12  1  0  0  0  0
 17 16  1  0  0  0  0
M  END
>  <minimizedAffinity>
-3.79825878

$$$$

 OpenBabel03242514563D

 17 18  0  0  1  0  0  0  0  0999 V2000
   37.5290   29.4490   41.3820 C   0  0  0  0  0  0  0  0  0  0  0  0
   37.7580   29.2930   42.7650 C   0  0  0  0  0  0  0  0  0  0  0  0
   38.6800   28.3010   43.1640 C   0  0  0  0  0  0  0  0  0  0  0  0
   39.2800   27.5670   42.2020 N   0  0  0  0  0  0  0  0  0  0  0  0
   39.0390   27.7420   40.8950 C   0  0  0  0  0  0  0  0  0  0  0  0
   38.1680   28.6790   40.4870 N   0  0  0  0  0  0  0  0  0  0  0  0
   37.3110   29.8450   43.5640 H   0  0  0  0  0  0  0  0  0  0  0  0
   38.9140   28.1130   44.1910 H   0  0  0  0  0  0  0  0  0  0  0  0
   39.4880   27.1870   40.0860 H   0  0  0  0  0  0  0  0  0  0  0  0
   36.3500   30.7280   40.9710 S   0  0  0  0  0  0  0  0  0  0  0  0
   40.3320   32.6800   37.9970 H   0  0  0  0  0  0  0  0  0  0  0  0
   39.3830   32.7930   38.4420 N   0  0  0  0  0  0  0  0  0  0  0  0
   39.5630   32.8430   39.8610 C   0  0  0  0  0  3  0  0  0  0  0  0
   38.4730   32.3320   40.7090 C   0  0  0  0  0  3  0  0  0  0  0  0
   37.1710   32.0730   40.0460 C   0  0  1  0  0  3  0  0  0  0  0  0
   37.2220   31.6510   38.6180 C   0  0  0  0  0  2  0  0  0  0  0  0
   38.5780   31.7070   37.9860 C   0  0  0  0  0  2  0  0  0  0  0  0
  1  2  1  0  0  0  0
  2  3  2  0  0  0  0
  2  7  1  0  0  0  0
  3  8  1  0  0  0  0
  4  3  1  0  0  0  0
  5  4  2  0  0  0  0
  6  5  1  0  0  0  0
  6  1  2  0  0  0  0
  9  5  1  0  0  0  0
 10  1  1  0  0  0  0
 11 12  1  0  0  0  0
 12 13  1  0  0  0  0
 13 14  2  0  0  0  0
 15 14  1  0  0  0  0
 15 10  1  1  0  0  0
 16 15  1  0  0  0  0
 17 12  1  0  0  0  0
 17 16  1  0  0  0  0
M  END
>  <minimizedAffinity>
-3.72899055

$$$$

 OpenBabel03242514563D

 17 18  0  0  1  0  0  0  0  0999 V2000
   40.3500   33.0580   39.3480 C   0  0  0  0  0  0  0  0  0  0  0  0
   40.3140   32.0290   38.3840 C   0  0  0  0  0  0  0  0  0  0  0  0
   41.2050   32.1290   37.2930 C   0  0  0  0  0  0  0  0  0  0  0  0
   42.0290   33.1970   37.2410 N   0  0  0  0  0  0  0  0  0  0  0  0
   42.0370   34.1580   38.1760 C   0  0  0  0  0  0  0  0  0  0  0  0
   41.2020   34.0880   39.2250 N   0  0  0  0  0  0  0  0  0  0  0  0
   39.6830   31.1650   38.3780 H   0  0  0  0  0  0  0  0  0  0  0  0
   41.2450   31.3950   36.5150 H   0  0  0  0  0  0  0  0  0  0  0  0
   42.6720   35.0300   38.1850 H   0  0  0  0  0  0  0  0  0  0  0  0
   39.1910   32.8470   40.6920 S   0  0  0  0  0  0  0  0  0  0  0  0
   35.6810   29.1730   42.3350 H   0  0  0  0  0  0  0  0  0  0  0  0
   36.4320   29.4850   41.6630 N   0  0  0  0  0  0  0  0  0  0  0  0
   37.6690   29.5520   42.3820 C   0  0  0  0  0  3  0  0  0  0  0  0
   38.6660   30.5410   41.9390 C   0  0  0  0  0  3  0  0  0  0  0  0
   38.4340   31.1850   40.6220 C   0  0  1  0  0  3  0  0  0  0  0  0
   37.0150   31.3710   40.2100 C   0  0  0  0  0  2  0  0  0  0  0  0
   36.0030   30.7270   41.1070 C   0  0  0  0  0  2  0  0  0  0  0  0
  1 10  1  0  0  0  0
  2  1  2  0  0  0  0
  3  2  1  0  0  0  0
  4  3  2  0  0  0  0
  4  5  1  0  0  0  0
  5  9  1  0  0  0  0
  5  6  2  0  0  0  0
  6  1  1  0  0  0  0
  7  2  1  0  0  0  0
  8  3  1  0  0  0  0
 12 11  1  0  0  0  0
 12 13  1  0  0  0  0
 14 13  2  0  0  0  0
 15 10  1  1  0  0  0
 15 14  1  0  0  0  0
 16 15  1  0  0  0  0
 16 17  1  0  0  0  0
 17 12  1  0  0  0  0
M  END
>  <minimizedAffinity>
-3.70300865

$$$$
