
 OpenBabel03252500453D

 32 34  0  0  1  0  0  0  0  0999 V2000
   35.9680   30.6600   40.0260 C   0  0  1  0  0  0  0  0  0  0  0  0
   35.0660   29.4270   39.9760 C   0  0  0  0  0  0  0  0  0  0  0  0
   36.1160   29.5840   41.0540 C   0  0  1  0  0  0  0  0  0  0  0  0
   35.4040   31.5380   40.3910 H   0  0  0  0  0  0  0  0  0  0  0  0
   35.2250   28.7060   39.1620 H   0  0  0  0  0  0  0  0  0  0  0  0
   34.0360   29.4760   40.3410 H   0  0  0  0  0  0  0  0  0  0  0  0
   35.7770   29.7700   42.0890 H   0  0  0  0  0  0  0  0  0  0  0  0
   37.0550   30.7440   39.0270 C   0  0  0  0  0  0  0  0  0  0  0  0
   36.6140   30.9890   38.0160 H   0  0  0  0  0  0  0  0  0  0  0  0
   37.5610   29.7520   38.8340 H   0  0  0  0  0  0  0  0  0  0  0  0
   38.0370   31.8010   39.2780 C   0  0  0  0  0  0  0  0  0  0  0  0
   37.5130   32.9210   39.8620 C   0  0  0  0  0  0  0  0  0  0  0  0
   38.3240   34.0340   40.1500 C   0  0  0  0  0  0  0  0  0  0  0  0
   39.6490   33.8940   39.8020 N   0  0  0  0  0  0  0  0  0  0  0  0
   40.1430   32.7790   39.2270 C   0  0  0  0  0  0  0  0  0  0  0  0
   39.3460   31.7400   38.9670 N   0  0  0  0  0  0  0  0  0  0  0  0
   36.5300   33.2120   40.2080 H   0  0  0  0  0  0  0  0  0  0  0  0
   38.0870   34.9690   40.5940 H   0  0  0  0  0  0  0  0  0  0  0  0
   41.2120   32.7580   38.9860 H   0  0  0  0  0  0  0  0  0  0  0  0
   37.2240   28.7820   40.9750 O   0  0  0  0  0  0  0  0  0  0  0  0
   39.1470   30.0320   42.3440 O   0  0  0  0  0  0  0  0  0  0  0  0
   38.1790   28.8770   42.3720 P   0  0  1  0  0  0  0  0  0  0  0  0
   37.1010   29.1950   43.6740 O   0  0  0  0  0  0  0  0  0  0  0  0
   37.1770   28.5000   44.3630 H   0  0  0  0  0  0  0  0  0  0  0  0
   38.9530   27.4180   42.6570 O   0  0  0  0  0  0  0  0  0  0  0  0
   38.9420   23.9970   44.1720 H   0  0  0  0  0  0  0  0  0  0  0  0
   39.3380   24.0230   43.1950 N   0  0  0  0  0  0  0  0  0  0  0  0
   40.2510   25.1250   43.0700 C   0  0  0  0  0  2  0  0  0  0  0  0
   40.1120   25.6830   41.6610 C   0  0  0  0  0  2  0  0  0  0  0  0
   38.7910   26.4650   41.6830 C   0  0  0  0  0  3  0  0  0  0  0  0
   37.7270   25.4510   42.0070 C   0  0  0  0  0  2  0  0  0  0  0  0
   38.2780   24.0490   42.2020 C   0  0  0  0  0  2  0  0  0  0  0  0
  1  4  1  1  0  0  0
  1  3  1  0  0  0  0
  2  1  1  0  0  0  0
  2  6  1  0  0  0  0
  2  3  1  0  0  0  0
  3  7  1  1  0  0  0
  5  2  1  0  0  0  0
  8 11  1  0  0  0  0
  8  1  1  0  0  0  0
  9  8  1  0  0  0  0
 10  8  1  0  0  0  0
 11 12  1  0  0  0  0
 12 13  2  0  0  0  0
 12 17  1  0  0  0  0
 13 18  1  0  0  0  0
 14 13  1  0  0  0  0
 15 14  2  0  0  0  0
 16 15  1  0  0  0  0
 16 11  2  0  0  0  0
 19 15  1  0  0  0  0
 20  3  1  0  0  0  0
 20 22  1  0  0  0  0
 22 21  2  6  0  0  0
 22 25  1  0  0  0  0
 22 23  1  0  0  0  0
 23 24  1  0  0  0  0
 27 26  1  0  0  0  0
 28 27  1  0  0  0  0
 29 30  1  0  0  0  0
 29 28  1  0  0  0  0
 30 31  1  0  0  0  0
 30 25  1  0  0  0  0
 31 32  1  0  0  0  0
 32 27  1  0  0  0  0
M  END
>  <minimizedAffinity>
-5.26559258

$$$$

 OpenBabel03252500453D

 32 34  0  0  1  0  0  0  0  0999 V2000
   36.3930   28.5990   40.7060 C   0  0  1  0  0  0  0  0  0  0  0  0
   35.0430   29.2020   40.3220 C   0  0  0  0  0  0  0  0  0  0  0  0
   36.3350   29.9410   40.0500 C   0  0  1  0  0  0  0  0  0  0  0  0
   36.6650   27.7840   40.0100 H   0  0  0  0  0  0  0  0  0  0  0  0
   34.3820   29.5420   41.1310 H   0  0  0  0  0  0  0  0  0  0  0  0
   34.5190   28.8660   39.4220 H   0  0  0  0  0  0  0  0  0  0  0  0
   36.6650   30.0480   39.0010 H   0  0  0  0  0  0  0  0  0  0  0  0
   36.7520   28.6030   42.1410 C   0  0  0  0  0  0  0  0  0  0  0  0
   35.8320   28.3760   42.7560 H   0  0  0  0  0  0  0  0  0  0  0  0
   37.0500   29.6230   42.5240 H   0  0  0  0  0  0  0  0  0  0  0  0
   37.7290   27.5840   42.5310 C   0  0  0  0  0  0  0  0  0  0  0  0
   37.5140   26.3590   41.9610 C   0  0  0  0  0  0  0  0  0  0  0  0
   38.3540   25.2680   42.2500 C   0  0  0  0  0  0  0  0  0  0  0  0
   39.3790   25.5410   43.1290 N   0  0  0  0  0  0  0  0  0  0  0  0
   39.5710   26.7580   43.6780 C   0  0  0  0  0  0  0  0  0  0  0  0
   38.7540   27.7710   43.3830 N   0  0  0  0  0  0  0  0  0  0  0  0
   36.7920   25.9590   41.2610 H   0  0  0  0  0  0  0  0  0  0  0  0
   38.3340   24.2660   41.9030 H   0  0  0  0  0  0  0  0  0  0  0  0
   40.4140   26.8800   44.3680 H   0  0  0  0  0  0  0  0  0  0  0  0
   36.6090   31.0370   40.8270 O   0  0  0  0  0  0  0  0  0  0  0  0
   37.9640   31.7220   38.6290 O   0  0  0  0  0  0  0  0  0  0  0  0
   37.6560   32.1200   40.0500 P   0  0  1  0  0  0  0  0  0  0  0  0
   36.8160   33.6170   39.9500 O   0  0  0  0  0  0  0  0  0  0  0  0
   37.3280   34.3310   40.3870 H   0  0  0  0  0  0  0  0  0  0  0  0
   39.0500   32.3430   40.9540 O   0  0  0  0  0  0  0  0  0  0  0  0
   41.9790   33.1310   43.1440 H   0  0  0  0  0  0  0  0  0  0  0  0
   42.1560   32.3350   42.4740 N   0  0  0  0  0  0  0  0  0  0  0  0
   41.6860   32.6880   41.1650 C   0  0  0  0  0  2  0  0  0  0  0  0
   41.1280   31.4280   40.5180 C   0  0  0  0  0  2  0  0  0  0  0  0
   39.7740   31.2070   41.2090 C   0  0  0  0  0  3  0  0  0  0  0  0
   40.0930   31.0120   42.6670 C   0  0  0  0  0  2  0  0  0  0  0  0
   41.5780   31.0980   42.9700 C   0  0  0  0  0  2  0  0  0  0  0  0
  1  4  1  6  0  0  0
  1  8  1  0  0  0  0
  2  1  1  0  0  0  0
  2  5  1  0  0  0  0
  3  7  1  6  0  0  0
  3  2  1  0  0  0  0
  3  1  1  0  0  0  0
  3 20  1  0  0  0  0
  6  2  1  0  0  0  0
  8 10  1  0  0  0  0
  8 11  1  0  0  0  0
  8  9  1  0  0  0  0
 11 16  1  0  0  0  0
 12 13  1  0  0  0  0
 12 11  2  0  0  0  0
 13 14  2  0  0  0  0
 14 15  1  0  0  0  0
 15 19  1  0  0  0  0
 16 15  2  0  0  0  0
 17 12  1  0  0  0  0
 18 13  1  0  0  0  0
 22 21  2  6  0  0  0
 22 20  1  0  0  0  0
 22 25  1  0  0  0  0
 23 22  1  0  0  0  0
 23 24  1  0  0  0  0
 25 30  1  0  0  0  0
 27 32  1  0  0  0  0
 27 26  1  0  0  0  0
 28 27  1  0  0  0  0
 29 28  1  0  0  0  0
 29 30  1  0  0  0  0
 30 31  1  0  0  0  0
 31 32  1  0  0  0  0
M  END
>  <minimizedAffinity>
-5.22946596

$$$$

 OpenBabel03252500453D

 32 34  0  0  1  0  0  0  0  0999 V2000
   37.6240   26.9890   42.9310 C   0  0  1  0  0  0  0  0  0  0  0  0
   36.2810   27.4330   43.5110 C   0  0  0  0  0  0  0  0  0  0  0  0
   36.8740   28.1180   42.2990 C   0  0  1  0  0  0  0  0  0  0  0  0
   37.5130   26.0330   42.3880 H   0  0  0  0  0  0  0  0  0  0  0  0
   36.2850   27.9470   44.4830 H   0  0  0  0  0  0  0  0  0  0  0  0
   35.3700   26.8630   43.3050 H   0  0  0  0  0  0  0  0  0  0  0  0
   36.3840   27.9650   41.3210 H   0  0  0  0  0  0  0  0  0  0  0  0
   38.8420   27.3700   43.6790 C   0  0  0  0  0  0  0  0  0  0  0  0
   38.6870   27.1570   44.7770 H   0  0  0  0  0  0  0  0  0  0  0  0
   39.0380   28.4820   43.6760 H   0  0  0  0  0  0  0  0  0  0  0  0
   40.0440   26.6180   43.3130 C   0  0  0  0  0  0  0  0  0  0  0  0
   41.1970   27.3540   43.3550 C   0  0  0  0  0  0  0  0  0  0  0  0
   42.4350   26.7800   43.0130 C   0  0  0  0  0  0  0  0  0  0  0  0
   42.3790   25.4540   42.6450 N   0  0  0  0  0  0  0  0  0  0  0  0
   41.2310   24.7480   42.6120 C   0  0  0  0  0  0  0  0  0  0  0  0
   40.0720   25.3230   42.9420 N   0  0  0  0  0  0  0  0  0  0  0  0
   41.4400   28.3740   43.6180 H   0  0  0  0  0  0  0  0  0  0  0  0
   43.4100   27.1980   42.9910 H   0  0  0  0  0  0  0  0  0  0  0  0
   41.2850   23.6970   42.3070 H   0  0  0  0  0  0  0  0  0  0  0  0
   37.3720   29.3830   42.4710 O   0  0  0  0  0  0  0  0  0  0  0  0
   37.0130   29.5800   39.8320 O   0  0  0  0  0  0  0  0  0  0  0  0
   37.0970   30.3640   41.1170 P   0  0  1  0  0  0  0  0  0  0  0  0
   35.5470   31.0740   41.3400 O   0  0  0  0  0  0  0  0  0  0  0  0
   35.6100   32.0540   41.3210 H   0  0  0  0  0  0  0  0  0  0  0  0
   38.2430   31.5850   41.0310 O   0  0  0  0  0  0  0  0  0  0  0  0
   40.8360   34.1030   41.9960 H   0  0  0  0  0  0  0  0  0  0  0  0
   41.0390   33.6200   41.0800 N   0  0  0  0  0  0  0  0  0  0  0  0
   39.8470   33.5780   40.2800 C   0  0  0  0  0  2  0  0  0  0  0  0
   39.8510   32.2620   39.5140 C   0  0  0  0  0  2  0  0  0  0  0  0
   39.4750   31.2050   40.5620 C   0  0  0  0  0  3  0  0  0  0  0  0
   40.5590   31.2660   41.6040 C   0  0  0  0  0  2  0  0  0  0  0  0
   41.6210   32.3070   41.3000 C   0  0  0  0  0  2  0  0  0  0  0  0
  1  4  1  6  0  0  0
  1  2  1  0  0  0  0
  1  8  1  0  0  0  0
  2  5  1  0  0  0  0
  3  7  1  6  0  0  0
  3 20  1  0  0  0  0
  3  1  1  0  0  0  0
  3  2  1  0  0  0  0
  6  2  1  0  0  0  0
  8  9  1  0  0  0  0
 10  8  1  0  0  0  0
 11 12  1  0  0  0  0
 11  8  1  0  0  0  0
 12 17  1  0  0  0  0
 13 12  2  0  0  0  0
 14 13  1  0  0  0  0
 15 14  2  0  0  0  0
 15 16  1  0  0  0  0
 16 11  2  0  0  0  0
 18 13  1  0  0  0  0
 19 15  1  0  0  0  0
 22 21  2  6  0  0  0
 22 23  1  0  0  0  0
 22 20  1  0  0  0  0
 24 23  1  0  0  0  0
 25 22  1  0  0  0  0
 27 32  1  0  0  0  0
 27 26  1  0  0  0  0
 28 27  1  0  0  0  0
 29 28  1  0  0  0  0
 29 30  1  0  0  0  0
 30 25  1  0  0  0  0
 30 31  1  0  0  0  0
 32 31  1  0  0  0  0
M  END
>  <minimizedAffinity>
-5.2088089

$$$$

 OpenBabel03252500453D

 32 34  0  0  1  0  0  0  0  0999 V2000
   37.7180   27.0270   42.7420 C   0  0  1  0  0  0  0  0  0  0  0  0
   36.3280   27.5720   43.0670 C   0  0  0  0  0  0  0  0  0  0  0  0
   36.9900   27.8620   41.7380 C   0  0  1  0  0  0  0  0  0  0  0  0
   37.6690   25.9440   42.5280 H   0  0  0  0  0  0  0  0  0  0  0  0
   36.2500   28.3680   43.8210 H   0  0  0  0  0  0  0  0  0  0  0  0
   35.4470   26.9260   42.9990 H   0  0  0  0  0  0  0  0  0  0  0  0
   36.5750   27.3830   40.8320 H   0  0  0  0  0  0  0  0  0  0  0  0
   38.8700   27.6800   43.4010 C   0  0  0  0  0  0  0  0  0  0  0  0
   38.7140   27.6710   44.5200 H   0  0  0  0  0  0  0  0  0  0  0  0
   38.9450   28.7850   43.1780 H   0  0  0  0  0  0  0  0  0  0  0  0
   40.1550   27.0080   43.1930 C   0  0  0  0  0  0  0  0  0  0  0  0
   41.2050   27.8620   42.9940 C   0  0  0  0  0  0  0  0  0  0  0  0
   42.5030   27.3720   42.7610 C   0  0  0  0  0  0  0  0  0  0  0  0
   42.6130   25.9990   42.7540 N   0  0  0  0  0  0  0  0  0  0  0  0
   41.5630   25.1760   42.9530 C   0  0  0  0  0  0  0  0  0  0  0  0
   40.3440   25.6750   43.1710 N   0  0  0  0  0  0  0  0  0  0  0  0
   41.3200   28.9370   42.9720 H   0  0  0  0  0  0  0  0  0  0  0  0
   43.4170   27.8830   42.5900 H   0  0  0  0  0  0  0  0  0  0  0  0
   41.7480   24.0960   42.9300 H   0  0  0  0  0  0  0  0  0  0  0  0
   37.4450   29.1370   41.5250 O   0  0  0  0  0  0  0  0  0  0  0  0
   35.2480   29.2260   40.0100 O   0  0  0  0  0  0  0  0  0  0  0  0
   36.3590   30.0550   40.6030 P   0  0  1  0  0  0  0  0  0  0  0  0
   35.6030   31.1490   41.6920 O   0  0  0  0  0  0  0  0  0  0  0  0
   35.7410   32.0760   41.4010 H   0  0  0  0  0  0  0  0  0  0  0  0
   37.1770   30.9350   39.4340 O   0  0  0  0  0  0  0  0  0  0  0  0
   38.9560   33.2740   37.1190 H   0  0  0  0  0  0  0  0  0  0  0  0
   39.0750   32.2570   36.8640 N   0  0  0  0  0  0  0  0  0  0  0  0
   37.8070   31.5880   36.9260 C   0  0  0  0  0  2  0  0  0  0  0  0
   38.0540   30.1740   37.4350 C   0  0  0  0  0  2  0  0  0  0  0  0
   38.3120   30.3450   38.9380 C   0  0  0  0  0  3  0  0  0  0  0  0
   39.5350   31.2150   39.0420 C   0  0  0  0  0  2  0  0  0  0  0  0
   40.0900   31.6280   37.6900 C   0  0  0  0  0  2  0  0  0  0  0  0
  1  4  1  6  0  0  0
  1  2  1  0  0  0  0
  1  8  1  0  0  0  0
  2  5  1  0  0  0  0
  3  7  1  6  0  0  0
  3  1  1  0  0  0  0
  3  2  1  0  0  0  0
  6  2  1  0  0  0  0
  8  9  1  0  0  0  0
 10  8  1  0  0  0  0
 11  8  1  0  0  0  0
 12 11  2  0  0  0  0
 13 12  1  0  0  0  0
 14 13  2  0  0  0  0
 14 15  1  0  0  0  0
 15 16  2  0  0  0  0
 16 11  1  0  0  0  0
 17 12  1  0  0  0  0
 18 13  1  0  0  0  0
 19 15  1  0  0  0  0
 20  3  1  0  0  0  0
 22 21  2  6  0  0  0
 22 20  1  0  0  0  0
 22 23  1  0  0  0  0
 24 23  1  0  0  0  0
 25 22  1  0  0  0  0
 27 28  1  0  0  0  0
 27 26  1  0  0  0  0
 27 32  1  0  0  0  0
 28 29  1  0  0  0  0
 29 30  1  0  0  0  0
 30 31  1  0  0  0  0
 30 25  1  0  0  0  0
 32 31  1  0  0  0  0
M  END
>  <minimizedAffinity>
-5.20480537

$$$$

 OpenBabel03252500453D

 32 34  0  0  1  0  0  0  0  0999 V2000
   36.5190   28.0350   41.0600 C   0  0  1  0  0  0  0  0  0  0  0  0
   35.5540   29.1810   40.7560 C   0  0  0  0  0  0  0  0  0  0  0  0
   37.0510   29.4030   40.7740 C   0  0  1  0  0  0  0  0  0  0  0  0
   36.5890   27.3490   40.1950 H   0  0  0  0  0  0  0  0  0  0  0  0
   34.9380   29.5670   41.5800 H   0  0  0  0  0  0  0  0  0  0  0  0
   35.0970   29.2760   39.7670 H   0  0  0  0  0  0  0  0  0  0  0  0
   37.5610   29.5980   39.8130 H   0  0  0  0  0  0  0  0  0  0  0  0
   36.6200   27.5920   42.4670 C   0  0  0  0  0  0  0  0  0  0  0  0
   35.6900   27.0120   42.7430 H   0  0  0  0  0  0  0  0  0  0  0  0
   36.5990   28.4450   43.2070 H   0  0  0  0  0  0  0  0  0  0  0  0
   37.7310   26.6780   42.7420 C   0  0  0  0  0  0  0  0  0  0  0  0
   37.5770   25.4330   42.1960 C   0  0  0  0  0  0  0  0  0  0  0  0
   38.5490   24.4340   42.3870 C   0  0  0  0  0  0  0  0  0  0  0  0
   39.6330   24.8150   43.1460 N   0  0  0  0  0  0  0  0  0  0  0  0
   39.7640   26.0490   43.6740 C   0  0  0  0  0  0  0  0  0  0  0  0
   38.8210   26.9740   43.4740 N   0  0  0  0  0  0  0  0  0  0  0  0
   36.8250   24.9580   41.5810 H   0  0  0  0  0  0  0  0  0  0  0  0
   38.5900   23.4310   42.0410 H   0  0  0  0  0  0  0  0  0  0  0  0
   40.6620   26.2600   44.2650 H   0  0  0  0  0  0  0  0  0  0  0  0
   37.5700   30.1130   41.8250 O   0  0  0  0  0  0  0  0  0  0  0  0
   39.8350   31.1370   42.8010 O   0  0  0  0  0  0  0  0  0  0  0  0
   39.2120   30.4680   41.6020 P   0  0  1  0  0  0  0  0  0  0  0  0
   40.0160   28.9580   41.4310 O   0  0  0  0  0  0  0  0  0  0  0  0
   40.4990   28.9190   40.5780 H   0  0  0  0  0  0  0  0  0  0  0  0
   39.4370   31.3610   40.2010 O   0  0  0  0  0  0  0  0  0  0  0  0
   39.4760   33.3740   37.0480 H   0  0  0  0  0  0  0  0  0  0  0  0
   39.7200   32.3580   36.9020 N   0  0  0  0  0  0  0  0  0  0  0  0
   38.7930   31.5280   37.6190 C   0  0  0  0  0  2  0  0  0  0  0  0
   39.5600   30.3210   38.1400 C   0  0  0  0  0  2  0  0  0  0  0  0
   40.3690   30.8610   39.3280 C   0  0  0  0  0  3  0  0  0  0  0  0
   41.2770   31.9140   38.7510 C   0  0  0  0  0  2  0  0  0  0  0  0
   41.1050   32.0970   37.2540 C   0  0  0  0  0  2  0  0  0  0  0  0
  1  4  1  6  0  0  0
  1  8  1  0  0  0  0
  2  3  1  0  0  0  0
  2  1  1  0  0  0  0
  2  5  1  0  0  0  0
  3  7  1  6  0  0  0
  3  1  1  0  0  0  0
  3 20  1  0  0  0  0
  6  2  1  0  0  0  0
  8 11  1  0  0  0  0
  8  9  1  0  0  0  0
  8 10  1  0  0  0  0
 11 16  1  0  0  0  0
 12 13  1  0  0  0  0
 12 11  2  0  0  0  0
 13 14  2  0  0  0  0
 14 15  1  0  0  0  0
 15 19  1  0  0  0  0
 16 15  2  0  0  0  0
 17 12  1  0  0  0  0
 18 13  1  0  0  0  0
 22 20  1  0  0  0  0
 22 21  2  1  0  0  0
 23 22  1  0  0  0  0
 24 23  1  0  0  0  0
 25 22  1  0  0  0  0
 27 26  1  0  0  0  0
 27 32  1  0  0  0  0
 27 28  1  0  0  0  0
 28 29  1  0  0  0  0
 29 30  1  0  0  0  0
 30 25  1  0  0  0  0
 31 30  1  0  0  0  0
 32 31  1  0  0  0  0
M  END
>  <minimizedAffinity>
-5.13311529

$$$$

 OpenBabel03252500453D

 32 34  0  0  1  0  0  0  0  0999 V2000
   36.9910   27.2420   42.6810 C   0  0  1  0  0  0  0  0  0  0  0  0
   37.7080   28.1740   43.6580 C   0  0  0  0  0  0  0  0  0  0  0  0
   36.9350   28.7220   42.4780 C   0  0  1  0  0  0  0  0  0  0  0  0
   36.0740   26.8290   43.1420 H   0  0  0  0  0  0  0  0  0  0  0  0
   38.8060   28.1880   43.6430 H   0  0  0  0  0  0  0  0  0  0  0  0
   37.2660   28.4060   44.6320 H   0  0  0  0  0  0  0  0  0  0  0  0
   35.9920   29.2630   42.6770 H   0  0  0  0  0  0  0  0  0  0  0  0
   37.8310   26.4960   41.7190 C   0  0  0  0  0  0  0  0  0  0  0  0
   38.4380   25.7220   42.2760 H   0  0  0  0  0  0  0  0  0  0  0  0
   38.6330   27.1300   41.2410 H   0  0  0  0  0  0  0  0  0  0  0  0
   37.0830   25.7380   40.7130 C   0  0  0  0  0  0  0  0  0  0  0  0
   36.7160   24.4840   41.1190 C   0  0  0  0  0  0  0  0  0  0  0  0
   36.0090   23.6230   40.2600 C   0  0  0  0  0  0  0  0  0  0  0  0
   35.7290   24.1450   39.0160 N   0  0  0  0  0  0  0  0  0  0  0  0
   36.1010   25.3840   38.6390 C   0  0  0  0  0  0  0  0  0  0  0  0
   36.7720   26.1760   39.4790 N   0  0  0  0  0  0  0  0  0  0  0  0
   36.8310   23.9130   42.0310 H   0  0  0  0  0  0  0  0  0  0  0  0
   35.6510   22.6360   40.4090 H   0  0  0  0  0  0  0  0  0  0  0  0
   35.8330   25.7130   37.6280 H   0  0  0  0  0  0  0  0  0  0  0  0
   37.6600   29.2460   41.4390 O   0  0  0  0  0  0  0  0  0  0  0  0
   35.9240   29.4920   39.4240 O   0  0  0  0  0  0  0  0  0  0  0  0
   36.7200   30.2540   40.4530 P   0  0  1  0  0  0  0  0  0  0  0  0
   35.5660   31.0020   41.4850 O   0  0  0  0  0  0  0  0  0  0  0  0
   35.6380   31.9790   41.4330 H   0  0  0  0  0  0  0  0  0  0  0  0
   37.6690   31.4450   39.7530 O   0  0  0  0  0  0  0  0  0  0  0  0
   39.6780   33.7380   37.5850 H   0  0  0  0  0  0  0  0  0  0  0  0
   40.2360   32.9340   37.9770 N   0  0  0  0  0  0  0  0  0  0  0  0
   39.4970   31.7120   37.8290 C   0  0  0  0  0  2  0  0  0  0  0  0
   39.7880   30.8450   39.0470 C   0  0  0  0  0  2  0  0  0  0  0  0
   38.9730   31.4850   40.1800 C   0  0  0  0  0  3  0  0  0  0  0  0
   39.5130   32.8820   40.3260 C   0  0  0  0  0  2  0  0  0  0  0  0
   40.6330   33.1940   39.3500 C   0  0  0  0  0  2  0  0  0  0  0  0
  1  4  1  1  0  0  0
  1  2  1  0  0  0  0
  2  6  1  0  0  0  0
  3  7  1  1  0  0  0
  3  1  1  0  0  0  0
  3  2  1  0  0  0  0
  5  2  1  0  0  0  0
  8  9  1  0  0  0  0
  8  1  1  0  0  0  0
 10  8  1  0  0  0  0
 11 12  1  0  0  0  0
 11  8  1  0  0  0  0
 12 17  1  0  0  0  0
 13 18  1  0  0  0  0
 13 12  2  0  0  0  0
 14 13  1  0  0  0  0
 15 14  2  0  0  0  0
 15 16  1  0  0  0  0
 16 11  2  0  0  0  0
 19 15  1  0  0  0  0
 20  3  1  0  0  0  0
 22 21  2  6  0  0  0
 22 20  1  0  0  0  0
 22 23  1  0  0  0  0
 24 23  1  0  0  0  0
 25 30  1  0  0  0  0
 25 22  1  0  0  0  0
 26 27  1  0  0  0  0
 27 32  1  0  0  0  0
 28 27  1  0  0  0  0
 28 29  1  0  0  0  0
 29 30  1  0  0  0  0
 30 31  1  0  0  0  0
 32 31  1  0  0  0  0
M  END
>  <minimizedAffinity>
-5.07246685

$$$$

 OpenBabel03252500453D

 32 34  0  0  1  0  0  0  0  0999 V2000
   35.7330   28.2850   39.2760 C   0  0  1  0  0  0  0  0  0  0  0  0
   34.6460   28.7540   38.3100 C   0  0  0  0  0  0  0  0  0  0  0  0
   36.1030   29.0800   38.0650 C   0  0  1  0  0  0  0  0  0  0  0  0
   35.9140   27.2000   39.1580 H   0  0  0  0  0  0  0  0  0  0  0  0
   33.9610   29.5430   38.6500 H   0  0  0  0  0  0  0  0  0  0  0  0
   34.2110   28.0620   37.5820 H   0  0  0  0  0  0  0  0  0  0  0  0
   36.6150   28.5810   37.2220 H   0  0  0  0  0  0  0  0  0  0  0  0
   35.8430   28.9970   40.5670 C   0  0  0  0  0  0  0  0  0  0  0  0
   34.8340   29.0070   41.0750 H   0  0  0  0  0  0  0  0  0  0  0  0
   36.0640   30.0990   40.4520 H   0  0  0  0  0  0  0  0  0  0  0  0
   36.7480   28.3730   41.5350 C   0  0  0  0  0  0  0  0  0  0  0  0
   37.0000   27.0510   41.2910 C   0  0  0  0  0  0  0  0  0  0  0  0
   37.8350   26.3040   42.1410 C   0  0  0  0  0  0  0  0  0  0  0  0
   38.3570   27.0050   43.2060 N   0  0  0  0  0  0  0  0  0  0  0  0
   38.0950   28.3090   43.4260 C   0  0  0  0  0  0  0  0  0  0  0  0
   37.2970   28.9890   42.5990 N   0  0  0  0  0  0  0  0  0  0  0  0
   36.7010   26.3460   40.5270 H   0  0  0  0  0  0  0  0  0  0  0  0
   38.1340   25.2860   42.1010 H   0  0  0  0  0  0  0  0  0  0  0  0
   38.5570   28.7830   44.3000 H   0  0  0  0  0  0  0  0  0  0  0  0
   36.4990   30.3780   38.2570 O   0  0  0  0  0  0  0  0  0  0  0  0
   38.7230   29.4180   37.1340 O   0  0  0  0  0  0  0  0  0  0  0  0
   38.1090   30.6270   37.7920 P   0  0  1  0  0  0  0  0  0  0  0  0
   38.0820   31.8570   36.5910 O   0  0  0  0  0  0  0  0  0  0  0  0
   38.6440   32.6150   36.8590 H   0  0  0  0  0  0  0  0  0  0  0  0
   39.0210   31.1630   39.0920 O   0  0  0  0  0  0  0  0  0  0  0  0
   40.7680   34.3100   40.1150 H   0  0  0  0  0  0  0  0  0  0  0  0
   40.2340   33.8500   40.9010 N   0  0  0  0  0  0  0  0  0  0  0  0
   40.4990   32.4400   40.9090 C   0  0  0  0  0  2  0  0  0  0  0  0
   39.2180   31.7300   41.3250 C   0  0  0  0  0  2  0  0  0  0  0  0
   38.3180   31.7990   40.0830 C   0  0  0  0  0  3  0  0  0  0  0  0
   38.1040   33.2660   39.8210 C   0  0  0  0  0  2  0  0  0  0  0  0
   38.8170   34.1610   40.8190 C   0  0  0  0  0  2  0  0  0  0  0  0
  1  4  1  6  0  0  0
  1  8  1  0  0  0  0
  2  5  1  0  0  0  0
  2  1  1  0  0  0  0
  3  7  1  6  0  0  0
  3 20  1  0  0  0  0
  3  2  1  0  0  0  0
  3  1  1  0  0  0  0
  6  2  1  0  0  0  0
  8  9  1  0  0  0  0
  8 11  1  0  0  0  0
 10  8  1  0  0  0  0
 11 16  1  0  0  0  0
 12 11  2  0  0  0  0
 12 13  1  0  0  0  0
 13 14  2  0  0  0  0
 14 15  1  0  0  0  0
 15 19  1  0  0  0  0
 16 15  2  0  0  0  0
 17 12  1  0  0  0  0
 18 13  1  0  0  0  0
 22 21  2  6  0  0  0
 22 20  1  0  0  0  0
 22 25  1  0  0  0  0
 23 24  1  0  0  0  0
 23 22  1  0  0  0  0
 25 30  1  0  0  0  0
 26 27  1  0  0  0  0
 27 28  1  0  0  0  0
 28 29  1  0  0  0  0
 30 29  1  0  0  0  0
 31 30  1  0  0  0  0
 31 32  1  0  0  0  0
 32 27  1  0  0  0  0
M  END
>  <minimizedAffinity>
-4.99834204

$$$$

 OpenBabel03252500453D

 32 34  0  0  1  0  0  0  0  0999 V2000
   37.3190   28.2870   41.8790 C   0  0  1  0  0  0  0  0  0  0  0  0
   37.4940   29.1370   43.1370 C   0  0  0  0  0  0  0  0  0  0  0  0
   37.1530   29.7720   41.8070 C   0  0  1  0  0  0  0  0  0  0  0  0
   36.3580   27.7410   41.9110 H   0  0  0  0  0  0  0  0  0  0  0  0
   38.5070   29.2450   43.5490 H   0  0  0  0  0  0  0  0  0  0  0  0
   36.6950   29.1980   43.8830 H   0  0  0  0  0  0  0  0  0  0  0  0
   36.1430   30.2000   41.6760 H   0  0  0  0  0  0  0  0  0  0  0  0
   38.5450   27.7490   41.2510 C   0  0  0  0  0  0  0  0  0  0  0  0
   39.3760   28.5090   41.3450 H   0  0  0  0  0  0  0  0  0  0  0  0
   38.4570   27.6280   40.1320 H   0  0  0  0  0  0  0  0  0  0  0  0
   39.0710   26.5340   41.8780 C   0  0  0  0  0  0  0  0  0  0  0  0
   38.2320   25.4560   41.7940 C   0  0  0  0  0  0  0  0  0  0  0  0
   38.5840   24.2200   42.3650 C   0  0  0  0  0  0  0  0  0  0  0  0
   39.8110   24.1960   42.9910 N   0  0  0  0  0  0  0  0  0  0  0  0
   40.6210   25.2720   43.0600 C   0  0  0  0  0  0  0  0  0  0  0  0
   40.2560   26.4320   42.5090 N   0  0  0  0  0  0  0  0  0  0  0  0
   37.2620   25.2780   41.3510 H   0  0  0  0  0  0  0  0  0  0  0  0
   38.0630   23.2960   42.3930 H   0  0  0  0  0  0  0  0  0  0  0  0
   41.5790   25.1580   43.5800 H   0  0  0  0  0  0  0  0  0  0  0  0
   38.1390   30.4880   41.1800 O   0  0  0  0  0  0  0  0  0  0  0  0
   36.4670   30.6120   39.1010 O   0  0  0  0  0  0  0  0  0  0  0  0
   37.5480   31.3520   39.8480 P   0  0  1  0  0  0  0  0  0  0  0  0
   36.8020   32.7670   40.4800 O   0  0  0  0  0  0  0  0  0  0  0  0
   37.2090   33.5730   40.0940 H   0  0  0  0  0  0  0  0  0  0  0  0
   38.8050   31.8100   38.8380 O   0  0  0  0  0  0  0  0  0  0  0  0
   40.8460   34.0720   36.6660 H   0  0  0  0  0  0  0  0  0  0  0  0
   41.4270   33.4520   37.2910 N   0  0  0  0  0  0  0  0  0  0  0  0
   40.9240   32.1080   37.2460 C   0  0  0  0  0  2  0  0  0  0  0  0
   41.0880   31.5050   38.6350 C   0  0  0  0  0  2  0  0  0  0  0  0
   39.9730   32.1520   39.4700 C   0  0  0  0  0  3  0  0  0  0  0  0
   40.2580   33.6300   39.4470 C   0  0  0  0  0  2  0  0  0  0  0  0
   41.4940   33.9870   38.6400 C   0  0  0  0  0  2  0  0  0  0  0  0
  1  4  1  6  0  0  0
  1  2  1  0  0  0  0
  2  5  1  0  0  0  0
  2  6  1  0  0  0  0
  3  7  1  6  0  0  0
  3  1  1  0  0  0  0
  3  2  1  0  0  0  0
  8  9  1  0  0  0  0
  8 11  1  0  0  0  0
  8  1  1  0  0  0  0
 10  8  1  0  0  0  0
 11 16  1  0  0  0  0
 12 11  2  0  0  0  0
 12 13  1  0  0  0  0
 13 18  1  0  0  0  0
 13 14  2  0  0  0  0
 14 15  1  0  0  0  0
 15 19  1  0  0  0  0
 16 15  2  0  0  0  0
 17 12  1  0  0  0  0
 20  3  1  0  0  0  0
 22 21  2  6  0  0  0
 22 23  1  0  0  0  0
 22 20  1  0  0  0  0
 24 23  1  0  0  0  0
 25 30  1  0  0  0  0
 25 22  1  0  0  0  0
 26 27  1  0  0  0  0
 27 32  1  0  0  0  0
 28 27  1  0  0  0  0
 28 29  1  0  0  0  0
 29 30  1  0  0  0  0
 31 30  1  0  0  0  0
 32 31  1  0  0  0  0
M  END
>  <minimizedAffinity>
-4.98995304

$$$$

 OpenBabel03252500453D

 32 34  0  0  1  0  0  0  0  0999 V2000
   39.6430   29.2530   42.0820 C   0  0  1  0  0  0  0  0  0  0  0  0
   39.2980   28.1600   43.0930 C   0  0  0  0  0  0  0  0  0  0  0  0
   38.3400   28.5260   41.9820 C   0  0  1  0  0  0  0  0  0  0  0  0
   40.4010   28.8920   41.3640 H   0  0  0  0  0  0  0  0  0  0  0  0
   39.0770   28.4650   44.1250 H   0  0  0  0  0  0  0  0  0  0  0  0
   39.7330   27.1600   43.0010 H   0  0  0  0  0  0  0  0  0  0  0  0
   38.1850   27.7980   41.1640 H   0  0  0  0  0  0  0  0  0  0  0  0
   39.5580   30.6540   42.5480 C   0  0  0  0  0  0  0  0  0  0  0  0
   40.4460   30.8820   43.2080 H   0  0  0  0  0  0  0  0  0  0  0  0
   38.6880   30.8430   43.2430 H   0  0  0  0  0  0  0  0  0  0  0  0
   39.6130   31.6580   41.4820 C   0  0  0  0  0  0  0  0  0  0  0  0
   40.7330   31.5800   40.7000 C   0  0  0  0  0  0  0  0  0  0  0  0
   40.9430   32.4860   39.6450 C   0  0  0  0  0  0  0  0  0  0  0  0
   39.9490   33.4250   39.4780 N   0  0  0  0  0  0  0  0  0  0  0  0
   38.8530   33.4820   40.2610 C   0  0  0  0  0  0  0  0  0  0  0  0
   38.6850   32.6060   41.2550 N   0  0  0  0  0  0  0  0  0  0  0  0
   41.5960   30.9300   40.6670 H   0  0  0  0  0  0  0  0  0  0  0  0
   41.7410   32.5690   38.9510 H   0  0  0  0  0  0  0  0  0  0  0  0
   38.1150   34.2640   40.0520 H   0  0  0  0  0  0  0  0  0  0  0  0
   37.2050   29.2110   42.3290 O   0  0  0  0  0  0  0  0  0  0  0  0
   35.0460   28.8230   40.8050 O   0  0  0  0  0  0  0  0  0  0  0  0
   36.2910   29.6570   40.9730 P   0  0  1  0  0  0  0  0  0  0  0  0
   35.7500   31.2630   41.2600 O   0  0  0  0  0  0  0  0  0  0  0  0
   36.0470   31.8620   40.5420 H   0  0  0  0  0  0  0  0  0  0  0  0
   37.2420   29.6470   39.5930 O   0  0  0  0  0  0  0  0  0  0  0  0
   38.2050   28.0310   36.3590 H   0  0  0  0  0  0  0  0  0  0  0  0
   38.1240   29.0810   36.2970 N   0  0  0  0  0  0  0  0  0  0  0  0
   38.7860   29.6860   37.4190 C   0  0  0  0  0  2  0  0  0  0  0  0
   37.9890   30.9210   37.8140 C   0  0  0  0  0  2  0  0  0  0  0  0
   36.7510   30.3680   38.5340 C   0  0  0  0  0  3  0  0  0  0  0  0
   36.0350   29.5250   37.5130 C   0  0  0  0  0  2  0  0  0  0  0  0
   36.7370   29.4910   36.1680 C   0  0  0  0  0  2  0  0  0  0  0  0
  1  4  1  6  0  0  0
  1  8  1  0  0  0  0
  1  2  1  0  0  0  0
  2  5  1  0  0  0  0
  3  7  1  6  0  0  0
  3  1  1  0  0  0  0
  3 20  1  0  0  0  0
  3  2  1  0  0  0  0
  6  2  1  0  0  0  0
  8  9  1  0  0  0  0
  8 10  1  0  0  0  0
 11  8  1  0  0  0  0
 12 11  2  0  0  0  0
 13 12  1  0  0  0  0
 14 13  2  0  0  0  0
 14 15  1  0  0  0  0
 15 16  2  0  0  0  0
 16 11  1  0  0  0  0
 17 12  1  0  0  0  0
 18 13  1  0  0  0  0
 19 15  1  0  0  0  0
 22 21  2  6  0  0  0
 22 23  1  0  0  0  0
 22 20  1  0  0  0  0
 24 23  1  0  0  0  0
 25 22  1  0  0  0  0
 27 26  1  0  0  0  0
 27 28  1  0  0  0  0
 28 29  1  0  0  0  0
 29 30  1  0  0  0  0
 30 25  1  0  0  0  0
 31 30  1  0  0  0  0
 32 27  1  0  0  0  0
 32 31  1  0  0  0  0
M  END
>  <minimizedAffinity>
-4.96382999

$$$$
