
 OpenBabel03252509313D

 25 26  0  0  0  0  0  0  0  0999 V2000
   48.2470   33.1840   43.5450 O   0  0  0  0  0  0  0  0  0  0  0  0
   46.9430   33.3090   43.0520 C   0  0  0  0  0  0  0  0  0  0  0  0
   46.9150   33.8540   42.0670 H   0  0  0  0  0  0  0  0  0  0  0  0
   46.4720   32.3160   42.8530 H   0  0  0  0  0  0  0  0  0  0  0  0
   45.0800   34.2930   46.1220 C   0  0  0  0  0  0  0  0  0  0  0  0
   45.9040   33.5680   45.2440 C   0  0  0  0  0  0  0  0  0  0  0  0
   46.0940   34.0480   43.9680 C   0  0  0  0  0  0  0  0  0  0  0  0
   45.4680   35.2190   43.6090 N   0  0  0  0  0  0  0  0  0  0  0  0
   44.6780   35.8920   44.4840 C   0  0  0  0  0  0  0  0  0  0  0  0
   44.4890   35.4370   45.7170 N   0  0  0  0  0  0  0  0  0  0  0  0
   44.9190   33.9250   47.1370 H   0  0  0  0  0  0  0  0  0  0  0  0
   46.3360   32.6670   45.6490 H   0  0  0  0  0  0  0  0  0  0  0  0
   44.1840   36.8140   44.2060 H   0  0  0  0  0  0  0  0  0  0  0  0
   50.2970   32.7760   41.9790 O   0  0  0  0  0  0  0  0  0  0  0  0
   49.2840   33.8220   42.3620 P   0  0  2  0  0  0  0  0  0  0  0  0
   49.9650   35.2210   42.9920 O   0  0  0  0  0  0  0  0  0  0  0  0
   50.9070   35.0940   43.3020 H   0  0  0  0  0  0  0  0  0  0  0  0
   48.3410   34.1680   41.0020 O   0  0  0  0  0  0  0  0  0  0  0  0
   46.5640   31.8090   37.1330 H   0  0  0  0  0  0  0  0  0  0  0  0
   47.4030   32.2970   37.4860 N   0  0  0  0  0  0  0  0  0  0  0  0
   47.1010   33.6330   37.9640 C   0  0  0  0  0  2  0  0  0  0  0  0
   48.3110   34.2030   38.6640 C   0  0  0  0  0  2  0  0  0  0  0  0
   48.6680   33.4140   39.9070 C   0  0  0  0  0  3  0  0  0  0  0  0
   47.9330   32.0990   39.8400 C   0  0  0  0  0  2  0  0  0  0  0  0
   48.1860   31.5420   38.4380 C   0  0  0  0  0  2  0  0  0  0  0  0
  2  1  1  0  0  0  0
  2  7  1  0  0  0  0
  3  2  1  0  0  0  0
  4  2  1  0  0  0  0
  5 11  1  0  0  0  0
  6 12  1  0  0  0  0
  6  5  2  0  0  0  0
  7  6  1  0  0  0  0
  8  7  2  0  0  0  0
  8  9  1  0  0  0  0
  9 10  2  0  0  0  0
 10  5  1  0  0  0  0
 13  9  1  0  0  0  0
 15 14  2  6  0  0  0
 15 16  1  0  0  0  0
 15  1  1  0  0  0  0
 16 17  1  0  0  0  0
 18 15  1  0  0  0  0
 19 20  1  0  0  0  0
 20 21  1  0  0  0  0
 20 25  1  0  0  0  0
 21 22  1  0  0  0  0
 22 23  1  0  0  0  0
 23 18  1  0  0  0  0
 24 23  1  0  0  0  0
 25 24  1  0  0  0  0
M  END
>  <minimizedAffinity>
-4.42312813

>  <minimizedRMSD>
1.43352532

$$$$
