
 OpenBabel03252505473D

 27 29  0  0  1  0  0  0  0  0999 V2000
   45.9070   32.8950   44.0950 C   0  0  0  0  0  0  0  0  0  0  0  0
   46.4030   31.6540   43.6000 C   0  0  0  0  0  0  0  0  0  0  0  0
   47.1700   30.8280   44.4130 C   0  0  0  0  0  0  0  0  0  0  0  0
   47.4170   31.2590   45.6800 N   0  0  0  0  0  0  0  0  0  0  0  0
   46.9230   32.4600   46.1200 C   0  0  0  0  0  0  0  0  0  0  0  0
   46.1850   33.2560   45.3430 N   0  0  0  0  0  0  0  0  0  0  0  0
   46.1830   31.3490   42.5850 H   0  0  0  0  0  0  0  0  0  0  0  0
   47.5590   29.8950   44.0830 H   0  0  0  0  0  0  0  0  0  0  0  0
   45.1130   33.7290   43.1850 C   0  0  1  0  0  0  0  0  0  0  0  0
   45.7560   35.1540   43.0180 C   0  0  1  0  0  0  0  0  0  0  0  0
   45.5080   34.1650   41.9020 C   0  0  0  0  0  0  0  0  0  0  0  0
   44.0340   33.7880   43.5140 H   0  0  0  0  0  0  0  0  0  0  0  0
   46.7680   35.3040   43.3820 H   0  0  0  0  0  0  0  0  0  0  0  0
   44.7130   34.3990   41.1430 H   0  0  0  0  0  0  0  0  0  0  0  0
   46.4330   33.8160   41.4000 H   0  0  0  0  0  0  0  0  0  0  0  0
   44.7510   36.2830   43.0610 C   0  0  0  0  0  0  0  0  0  0  0  0
   45.3200   37.5190   43.1610 F   0  0  0  0  0  0  0  0  0  0  0  0
   44.0030   36.2560   41.8710 F   0  0  0  0  0  0  0  0  0  0  0  0
   43.8190   36.0780   44.0680 F   0  0  0  0  0  0  0  0  0  0  0  0
   47.2500   32.7810   47.4270 O   0  0  0  0  0  0  0  0  0  0  0  0
   46.0070   29.3560   47.0470 H   0  0  0  0  0  0  0  0  0  0  0  0
   46.1420   29.3290   48.0880 N   0  0  0  0  0  0  0  0  0  0  0  0
   45.1490   30.1830   48.7060 C   0  0  0  0  0  0  0  0  0  0  0  0
   45.2980   31.5550   48.0830 C   0  0  0  0  0  0  0  0  0  0  0  0
   46.6500   32.0770   48.4790 C   0  0  0  0  0  0  0  0  0  0  0  0
   47.5530   31.0600   49.1110 C   0  0  0  0  0  0  0  0  0  0  0  0
   47.4870   29.7080   48.4640 C   0  0  0  0  0  0  0  0  0  0  0  0
  1  6  1  0  0  0  0
  2  1  2  0  0  0  0
  2  3  1  0  0  0  0
  3  4  2  0  0  0  0
  4  5  1  0  0  0  0
  5 20  1  0  0  0  0
  6  5  2  0  0  0  0
  7  2  1  0  0  0  0
  8  3  1  0  0  0  0
  9 12  1  1  0  0  0
  9  1  1  0  0  0  0
 10 16  1  0  0  0  0
 10  9  1  0  0  0  0
 10 13  1  1  0  0  0
 11 10  1  0  0  0  0
 11  9  1  0  0  0  0
 14 11  1  0  0  0  0
 15 11  1  0  0  0  0
 16 17  1  0  0  0  0
 16 19  1  0  0  0  0
 18 16  1  0  0  0  0
 20 25  1  0  0  0  0
 21 22  1  0  0  0  0
 22 27  1  0  0  0  0
 22 23  1  0  0  0  0
 24 25  1  0  0  0  0
 24 23  1  0  0  0  0
 25 26  1  0  0  0  0
 27 26  1  0  0  0  0
M  END
>  <minimizedAffinity>
-4.95112228

>  <minimizedRMSD>
1.48119831

$$$$
