
 OpenBabel03242521583D

 31 33  0  0  0  0  0  0  0  0999 V2000
   46.8070   34.8670   42.1470 C   0  0  0  0  0  0  0  0  0  0  0  0
   48.0540   35.4370   41.9890 C   0  0  0  0  0  0  0  0  0  0  0  0
   48.8390   35.3250   40.8440 C   0  0  0  0  0  0  0  0  0  0  0  0
   48.3330   34.5900   39.7940 C   0  0  0  0  0  0  0  0  0  0  0  0
   47.1110   34.0400   39.9660 C   0  0  0  0  0  0  0  0  0  0  0  0
   46.3810   34.1640   41.0730 N   0  0  0  0  0  0  0  0  0  0  0  0
   48.3710   36.0040   42.8810 H   0  0  0  0  0  0  0  0  0  0  0  0
   49.7790   35.8550   40.9440 H   0  0  0  0  0  0  0  0  0  0  0  0
   49.0790   34.6030   39.0200 H   0  0  0  0  0  0  0  0  0  0  0  0
   44.4390   35.9300   44.8760 C   0  0  0  0  0  0  0  0  0  0  0  0
   45.1070   35.9790   43.6390 C   0  0  0  0  0  0  0  0  0  0  0  0
   46.0160   34.9920   43.3650 C   0  0  0  0  0  0  0  0  0  0  0  0
   46.2180   34.0190   44.3150 N   0  0  0  0  0  0  0  0  0  0  0  0
   45.5700   33.9900   45.4890 C   0  0  0  0  0  0  0  0  0  0  0  0
   44.6790   34.9530   45.7610 N   0  0  0  0  0  0  0  0  0  0  0  0
   43.7300   36.7350   45.0420 H   0  0  0  0  0  0  0  0  0  0  0  0
   44.9620   36.7300   42.8880 H   0  0  0  0  0  0  0  0  0  0  0  0
   45.8220   33.1700   46.1450 H   0  0  0  0  0  0  0  0  0  0  0  0
   46.5910   33.3040   38.9170 O   0  0  0  0  0  0  0  0  0  0  0  0
   48.0130   34.6060   37.1120 O   0  0  0  0  0  0  0  0  0  0  0  0
   47.2690   33.3070   37.3470 P   0  0  1  0  0  0  0  0  0  0  0  0
   48.3350   32.0180   37.2020 O   0  0  0  0  0  0  0  0  0  0  0  0
   49.2300   32.2850   37.4770 H   0  0  0  0  0  0  0  0  0  0  0  0
   45.9930   33.2000   36.2300 O   0  0  0  0  0  0  0  0  0  0  0  0
   43.3530   32.0870   34.4820 H   0  0  0  0  0  0  0  0  0  0  0  0
   43.4310   31.0330   34.4240 N   0  0  0  0  0  0  0  0  0  0  0  0
   44.7550   30.7700   33.8490 C   0  0  0  0  0  0  0  0  0  0  0  0
   45.7320   31.7390   34.4440 C   0  0  0  0  0  0  0  0  0  0  0  0
   45.6880   31.8720   35.9240 C   0  0  0  0  0  0  0  0  0  0  0  0
   44.3570   31.5910   36.5610 C   0  0  0  0  0  0  0  0  0  0  0  0
   43.5400   30.5750   35.8080 C   0  0  0  0  0  0  0  0  0  0  0  0
  1 12  1  0  0  0  0
  2  1  1  0  0  0  0
  2  7  1  0  0  0  0
  3  8  1  0  0  0  0
  3  2  2  0  0  0  0
  4  5  2  0  0  0  0
  4  3  1  0  0  0  0
  5  6  1  0  0  0  0
  6  1  2  0  0  0  0
  9  4  1  0  0  0  0
 10 16  1  0  0  0  0
 10 15  1  0  0  0  0
 11 10  2  0  0  0  0
 12 11  1  0  0  0  0
 12 13  2  0  0  0  0
 13 14  1  0  0  0  0
 14 15  2  0  0  0  0
 14 18  1  0  0  0  0
 17 11  1  0  0  0  0
 19  5  1  0  0  0  0
 21 20  2  6  0  0  0
 21 19  1  0  0  0  0
 22 21  1  0  0  0  0
 22 23  1  0  0  0  0
 24 21  1  0  0  0  0
 26 25  1  0  0  0  0
 26 31  1  0  0  0  0
 27 26  1  0  0  0  0
 27 28  1  0  0  0  0
 28 29  1  0  0  0  0
 29 24  1  0  0  0  0
 29 30  1  0  0  0  0
 31 30  1  0  0  0  0
M  END
>  <minimizedAffinity>
-6.01992226

>  <minimizedRMSD>
2.8433044

$$$$
