
 OpenBabel03242516453D

 40 44  0  0  1  0  0  0  0  0999 V2000
   45.4950   32.9810   42.3100 C   0  0  0  0  0  0  0  0  0  0  0  0
   44.6810   31.9170   42.4820 N   0  0  0  0  0  0  0  0  0  0  0  0
   43.4290   32.2160   42.1180 C   0  0  0  0  0  0  0  0  0  0  0  0
   43.4510   33.5100   41.7020 N   0  0  0  0  0  0  0  0  0  0  0  0
   44.6730   33.9800   41.8110 N   0  0  0  0  0  0  0  0  0  0  0  0
   42.5510   31.5630   42.1430 H   0  0  0  0  0  0  0  0  0  0  0  0
   40.4520   32.7710   41.4570 O   0  0  0  0  0  0  0  0  0  0  0  0
   41.2340   33.4350   40.7070 C   0  0  0  0  0  0  0  0  0  0  0  0
   42.3320   34.2940   41.2070 C   0  0  2  0  0  0  0  0  0  0  0  0
   42.7320   35.0940   39.9820 C   0  0  0  0  0  0  0  0  0  0  0  0
   42.5130   34.0750   38.8670 C   0  0  0  0  0  0  0  0  0  0  0  0
   41.2360   33.5020   39.2660 N   0  0  0  0  0  0  0  0  0  0  0  0
   41.9880   34.9880   42.0190 H   0  0  0  0  0  0  0  0  0  0  0  0
   43.8230   35.2660   40.0300 H   0  0  0  0  0  0  0  0  0  0  0  0
   42.1330   35.9870   39.8370 H   0  0  0  0  0  0  0  0  0  0  0  0
   43.3290   33.3570   38.8190 H   0  0  0  0  0  0  0  0  0  0  0  0
   42.3430   34.6570   37.9220 H   0  0  0  0  0  0  0  0  0  0  0  0
   38.9290   32.2900   36.1750 H   0  0  0  0  0  0  0  0  0  0  0  0
   38.2830   32.2440   36.9770 N   0  0  0  0  0  0  0  0  0  0  0  0
   38.6180   31.2180   37.9220 C   0  0  0  0  0  0  0  0  0  0  0  0
   39.7550   31.5950   38.8330 C   0  0  0  0  0  0  0  0  0  0  0  0
   40.1010   33.0410   38.5220 C   0  0  0  0  0  0  0  0  0  0  0  0
   38.8470   33.8420   38.7170 C   0  0  0  0  0  0  0  0  0  0  0  0
   37.9310   33.5040   37.5600 C   0  0  0  0  0  0  0  0  0  0  0  0
   47.6070   33.0390   43.8730 C   0  0  1  0  0  0  0  0  0  0  0  0
   46.9320   33.1520   42.5510 C   0  0  2  0  0  0  0  0  0  0  0  0
   47.3750   34.3490   43.2320 C   0  0  0  0  0  0  0  0  0  0  0  0
   48.6210   32.5900   43.8190 H   0  0  0  0  0  0  0  0  0  0  0  0
   47.5320   32.8280   41.6480 H   0  0  0  0  0  0  0  0  0  0  0  0
   48.2430   34.9350   42.8130 H   0  0  0  0  0  0  0  0  0  0  0  0
   46.6140   35.0390   43.6580 H   0  0  0  0  0  0  0  0  0  0  0  0
   46.9290   31.3110   45.5230 C   0  0  0  0  0  0  0  0  0  0  0  0
   46.8820   32.6350   45.0900 C   0  0  0  0  0  0  0  0  0  0  0  0
   46.1510   33.5060   45.8610 C   0  0  0  0  0  0  0  0  0  0  0  0
   45.5350   33.0320   46.9730 N   0  0  0  0  0  0  0  0  0  0  0  0
   45.5960   31.7670   47.3640 C   0  0  0  0  0  0  0  0  0  0  0  0
   46.3070   30.9070   46.6170 N   0  0  0  0  0  0  0  0  0  0  0  0
   47.4730   30.5430   44.9970 H   0  0  0  0  0  0  0  0  0  0  0  0
   46.0650   34.5440   45.5930 H   0  0  0  0  0  0  0  0  0  0  0  0
   45.0460   31.5580   48.2750 H   0  0  0  0  0  0  0  0  0  0  0  0
  1  2  1  0  0  0  0
  1 26  1  0  0  0  0
  3  6  1  0  0  0  0
  3  2  2  0  0  0  0
  4  5  1  0  0  0  0
  4  3  1  0  0  0  0
  5  1  2  0  0  0  0
  8  9  1  0  0  0  0
  8  7  2  0  0  0  0
  9  4  1  0  0  0  0
  9 13  1  1  0  0  0
 10 14  1  0  0  0  0
 10  9  1  0  0  0  0
 11 12  1  0  0  0  0
 11 10  1  0  0  0  0
 12  8  1  0  0  0  0
 15 10  1  0  0  0  0
 16 11  1  0  0  0  0
 17 11  1  0  0  0  0
 18 19  1  0  0  0  0
 19 24  1  0  0  0  0
 19 20  1  0  0  0  0
 20 21  1  0  0  0  0
 22 23  1  0  0  0  0
 22 21  1  0  0  0  0
 22 12  1  0  0  0  0
 24 23  1  0  0  0  0
 25 28  1  6  0  0  0
 25 33  1  0  0  0  0
 26 29  1  6  0  0  0
 26 27  1  0  0  0  0
 26 25  1  0  0  0  0
 27 31  1  0  0  0  0
 27 25  1  0  0  0  0
 30 27  1  0  0  0  0
 32 37  1  0  0  0  0
 33 32  2  0  0  0  0
 33 34  1  0  0  0  0
 34 35  2  0  0  0  0
 35 36  1  0  0  0  0
 36 40  1  0  0  0  0
 37 36  2  0  0  0  0
 38 32  1  0  0  0  0
 39 34  1  0  0  0  0
M  END
>  <minimizedAffinity>
-5.577075

>  <minimizedRMSD>
1.61747944

$$$$
