REMARK  Name = 
REMARK  2 active torsions:
REMARK  status: ('A' for Active; 'I' for Inactive)
REMARK    1  A    between atoms: C_3  and  C_7
REMARK    2  A    between atoms: N_10  and  C_21
REMARK                            x       y       z     vdW  Elec       q    Type
REMARK                         _______ _______ _______ _____ _____    ______ ____
ROOT
ATOM      1  C   UNL     1      47.196  34.940  41.876  0.00  0.00    +0.000 A 
ATOM      2  C   UNL     1      46.969  34.237  40.722  0.00  0.00    +0.000 A 
ATOM      3  C   UNL     1      48.026  34.447  39.840  0.00  0.00    +0.000 A 
ATOM      4  N   UNL     1      48.865  35.276  40.493  0.00  0.00    +0.000 N 
ATOM      5  N   UNL     1      48.388  35.571  41.688  0.00  0.00    +0.000 NA
ATOM      6  H   UNL     1      46.079  33.619  40.564  0.00  0.00    +0.000 HD
ATOM      7  H   UNL     1      48.084  34.004  38.863  0.00  0.00    +0.000 HD
ENDROOT
BRANCH   1  10
ATOM      8  C   UNL     1      44.564  35.870  44.409  0.00  0.00    +0.000 A 
ATOM      9  C   UNL     1      45.338  35.937  43.218  0.00  0.00    +0.000 A 
ATOM     10  C   UNL     1      46.330  34.987  43.047  0.00  0.00    +0.000 A 
ATOM     11  N   UNL     1      46.509  34.047  44.021  0.00  0.00    +0.000 NA
ATOM     12  C   UNL     1      45.758  34.010  45.140  0.00  0.00    +0.000 A 
ATOM     13  N   UNL     1      44.796  34.923  45.316  0.00  0.00    +0.000 NA
ATOM     14  H   UNL     1      43.780  36.608  44.559  0.00  0.00    +0.000 HD
ATOM     15  H   UNL     1      45.181  36.678  42.473  0.00  0.00    +0.000 HD
ATOM     16  H   UNL     1      45.923  33.250  45.898  0.00  0.00    +0.000 HD
ENDBRANCH   1  10
BRANCH   4  21
ATOM     17  H   UNL     1      51.914  37.124  37.700  0.00  0.00    +0.000 HD
ATOM     18  N   UNL     1      50.929  37.418  37.673  0.00  0.00    +0.000 NA
ATOM     19  C   UNL     1      50.009  36.359  37.381  0.00  0.00    +0.000 C 
ATOM     20  C   UNL     1      50.040  35.260  38.406  0.00  0.00    +0.000 C 
ATOM     21  C   UNL     1      50.087  35.693  39.828  0.00  0.00    +0.000 C 
ATOM     22  C   UNL     1      50.414  37.114  40.075  0.00  0.00    +0.000 C 
ATOM     23  C   UNL     1      50.450  38.022  38.894  0.00  0.00    +0.000 C 
ENDBRANCH   4  21
TORSDOF 2
