
     RDKit          3D

 39 42  0  0  0  0  0  0  0  0999 V2000
   47.6974   33.4879   40.1279 C   0  0  0  0  0  0  0  0  0  0  0  0
   49.0412   33.2227   40.3814 C   0  0  0  0  0  0  0  0  0  0  0  0
   49.5135   33.3038   41.7230 C   0  0  0  0  0  0  0  0  0  0  0  0
   48.5930   33.6421   42.6750 N   0  0  0  0  0  0  0  0  0  0  0  0
   47.2940   33.8916   42.3810 C   0  0  0  0  0  0  0  0  0  0  0  0
   46.8619   33.8115   41.1108 N   0  0  0  0  0  0  0  0  0  0  0  0
   46.4204   34.2361   43.4514 N   0  0  0  0  0  0  0  0  0  0  0  0
   45.5073   35.2371   43.4315 C   0  0  0  0  0  0  0  0  0  0  0  0
   44.8699   35.2486   44.6421 N   0  0  0  0  0  0  0  0  0  0  0  0
   45.4103   34.2621   45.3554 C   0  0  0  0  0  0  0  0  0  0  0  0
   45.2027   33.7680   46.6363 C   0  0  0  0  0  0  0  0  0  0  0  0
   45.8801   32.7506   47.1399 N   0  0  0  0  0  0  0  0  0  0  0  0
   46.8348   32.1136   46.4307 C   0  0  0  0  0  0  0  0  0  0  0  0
   47.0380   32.5896   45.1906 N   0  0  0  0  0  0  0  0  0  0  0  0
   46.3847   33.6087   44.6375 C   0  0  0  0  0  0  0  0  0  0  0  0
   44.2298   34.3413   47.4981 N   0  0  0  0  0  0  0  0  0  0  0  0
   47.2151   33.3609   38.4112 S   0  0  0  0  0  0  0  0  0  0  0  0
   49.8347   32.9472   39.7013 H   0  0  0  0  0  0  0  0  0  0  0  0
   50.5224   33.1161   41.9927 H   0  0  0  0  0  0  0  0  0  0  0  0
   45.3282   35.9024   42.5927 H   0  0  0  0  0  0  0  0  0  0  0  0
   47.4058   31.2790   46.8134 H   0  0  0  0  0  0  0  0  0  0  0  0
   43.4444   33.8775   47.9932 H   0  0  0  0  0  0  0  0  0  0  0  0
   44.3671   35.3865   47.6200 H   0  0  0  0  0  0  0  0  0  0  0  0
   45.9376   32.4441   35.2962 H   0  0  0  0  0  0  0  0  0  0  0  0
   46.8681   31.9737   35.3235 N   0  0  0  0  0  0  0  0  0  0  0  0
   47.9753   32.8116   34.9356 C   0  0  0  0  0  0  0  0  0  0  0  0
   48.4560   33.7188   36.0481 C   0  0  0  0  0  0  0  0  0  0  0  0
   48.5938   32.9596   37.3554 C   0  0  0  0  0  0  0  0  0  0  0  0
   48.5217   31.4858   37.0153 C   0  0  0  0  0  0  0  0  0  0  0  0
   47.0856   31.2330   36.5422 C   0  0  0  0  0  0  0  0  0  0  0  0
   48.7599   32.1954   34.5008 H   0  0  0  0  0  0  0  0  0  0  0  0
   47.5833   33.4826   34.1252 H   0  0  0  0  0  0  0  0  0  0  0  0
   47.8111   34.6007   36.1662 H   0  0  0  0  0  0  0  0  0  0  0  0
   49.4692   34.0731   35.7743 H   0  0  0  0  0  0  0  0  0  0  0  0
   49.5844   33.1328   37.8157 H   0  0  0  0  0  0  0  0  0  0  0  0
   48.6787   30.8962   37.9505 H   0  0  0  0  0  0  0  0  0  0  0  0
   49.2470   31.2214   36.2209 H   0  0  0  0  0  0  0  0  0  0  0  0
   46.9450   30.1598   36.4187 H   0  0  0  0  0  0  0  0  0  0  0  0
   46.4071   31.6253   37.3114 H   0  0  0  0  0  0  0  0  0  0  0  0
  1  2  2  0
  1  6  1  0
  2  3  1  0
  3  4  2  0
  5  4  1  0
  5  7  1  0
  6  5  2  0
  7 15  1  0
  8  7  1  0
  8  9  2  0
  9 10  1  0
 10 11  2  0
 11 12  1  0
 11 16  1  0
 13 12  2  0
 14 13  1  0
 15 14  2  0
 15 10  1  0
 17  1  1  0
  2 18  1  0
  3 19  1  0
  8 20  1  0
 13 21  1  0
 16 22  1  0
 16 23  1  0
 24 25  1  0
 25 26  1  0
 26 27  1  0
 27 28  1  0
 28 29  1  0
 29 30  1  0
 30 25  1  0
 26 31  1  0
 26 32  1  0
 27 33  1  0
 27 34  1  0
 28 35  1  0
 29 36  1  0
 29 37  1  0
 30 38  1  0
 30 39  1  0
 17 28  1  0
M  ISO  5  18  14  19  14  20  14  21  14  24   5
M  END
>  <DihAtoms>  (1) 
0,16,27,26

>  <DihDeg>  (1) 
-67.31023697185364

$$$$
