
     RDKit          3D

 36 38  0  0  0  0  0  0  0  0999 V2000
   45.2288   33.5631   43.7133 C   0  0  1  0  0  0  0  0  0  0  0  0
   45.8615   34.9830   43.4743 C   0  0  1  0  0  0  0  0  0  0  0  0
   45.7987   33.8657   42.4567 C   0  0  0  0  0  0  0  0  0  0  0  0
   45.8966   32.8658   44.8176 C   0  0  0  0  0  0  0  0  0  0  0  0
   46.7278   31.7525   44.4999 C   0  0  0  0  0  0  0  0  0  0  0  0
   47.3942   31.0619   45.5046 C   0  0  0  0  0  0  0  0  0  0  0  0
   47.2147   31.4974   46.7825 N   0  0  0  0  0  0  0  0  0  0  0  0
   46.4077   32.5732   47.0490 C   0  0  0  0  0  0  0  0  0  0  0  0
   45.7646   33.2395   46.0873 N   0  0  0  0  0  0  0  0  0  0  0  0
   46.3153   32.9131   48.3884 O   0  0  0  0  0  0  0  0  0  0  0  0
   44.8377   36.0711   43.2404 C   0  0  0  0  0  0  0  0  0  0  0  0
   45.3675   37.3288   43.2412 F   0  0  0  0  0  0  0  0  0  0  0  0
   44.2466   35.8611   41.9824 F   0  0  0  0  0  0  0  0  0  0  0  0
   43.7903   35.9688   44.1444 F   0  0  0  0  0  0  0  0  0  0  0  0
   44.1120   33.6186   43.8739 H   0  0  0  0  0  0  0  0  0  0  0  0
   46.8053   35.2099   43.9598 H   0  0  0  0  0  0  0  0  0  0  0  0
   45.1199   33.9832   41.5704 H   0  0  0  0  0  0  0  0  0  0  0  0
   46.7947   33.4970   42.1382 H   0  0  0  0  0  0  0  0  0  0  0  0
   46.8429   31.4403   43.4696 H   0  0  0  0  0  0  0  0  0  0  0  0
   48.0227   30.2267   45.3100 H   0  0  0  0  0  0  0  0  0  0  0  0
   46.5431   29.2604   48.2449 H   0  0  0  0  0  0  0  0  0  0  0  0
   47.4140   29.4206   48.8108 N   0  0  0  0  0  0  0  0  0  0  0  0
   47.0290   29.8715   50.1330 C   0  0  0  0  0  0  0  0  0  0  0  0
   46.1598   31.0967   49.9445 C   0  0  0  0  0  0  0  0  0  0  0  0
   47.0225   32.1659   49.3383 C   0  0  0  0  0  0  0  0  0  0  0  0
   48.3580   31.6882   48.8496 C   0  0  0  0  0  0  0  0  0  0  0  0
   48.3093   30.3538   48.1627 C   0  0  0  0  0  0  0  0  0  0  0  0
   47.9423   30.1793   50.6692 H   0  0  0  0  0  0  0  0  0  0  0  0
   46.4646   29.0475   50.6018 H   0  0  0  0  0  0  0  0  0  0  0  0
   45.7680   31.3910   50.9486 H   0  0  0  0  0  0  0  0  0  0  0  0
   45.2856   30.8572   49.2759 H   0  0  0  0  0  0  0  0  0  0  0  0
   47.2560   32.8950   50.1700 H   0  0  0  0  0  0  0  0  0  0  0  0
   48.7519   32.4289   48.1237 H   0  0  0  0  0  0  0  0  0  0  0  0
   49.0976   31.6223   49.6759 H   0  0  0  0  0  0  0  0  0  0  0  0
   49.3193   29.8958   48.2388 H   0  0  0  0  0  0  0  0  0  0  0  0
   48.0557   30.3897   47.0924 H   0  0  0  0  0  0  0  0  0  0  0  0
  1  4  1  0
  2  1  1  0
  3  2  1  0
  3  1  1  0
  4  9  1  0
  5  4  2  0
  5  6  1  0
  6  7  2  0
  7  8  1  0
  8 10  1  0
  9  8  2  0
 11  2  1  0
 11 14  1  0
 12 11  1  0
 13 11  1  0
  1 15  1  6
  2 16  1  1
  3 17  1  0
  3 18  1  0
  5 19  1  0
  6 20  1  0
 21 22  1  0
 22 23  1  0
 23 24  1  0
 24 25  1  0
 25 26  1  0
 26 27  1  0
 27 22  1  0
 23 28  1  0
 23 29  1  0
 24 30  1  0
 24 31  1  0
 25 32  1  0
 26 33  1  0
 26 34  1  0
 27 35  1  0
 27 36  1  0
 10 25  1  0
M  ISO  7  15  13  16  13  17  13  18  13  19  14  20  14  21   5
M  END
>  <DihAtoms>  (1) 
7,9,24,23

>  <DihDeg>  (1) 
114.67291907576084

$$$$
