
 OpenBabel03252504463D

 25 26  0  0  0  0  0  0  0  0999 V2000
   45.8160   32.5930   47.6170 O   0  0  0  0  0  0  0  0  0  0  0  0
   45.2970   34.7110   44.7310 C   0  0  0  0  0  0  0  0  0  0  0  0
   46.2460   34.2060   43.8550 C   0  0  0  0  0  0  0  0  0  0  0  0
   47.0410   33.1350   44.3030 C   0  0  0  0  0  0  0  0  0  0  0  0
   46.8450   32.6600   45.5420 N   0  0  0  0  0  0  0  0  0  0  0  0
   45.8980   33.1920   46.3670 C   0  0  0  0  0  0  0  0  0  0  0  0
   45.1320   34.2180   45.9440 N   0  0  0  0  0  0  0  0  0  0  0  0
   46.3930   34.5970   42.8580 H   0  0  0  0  0  0  0  0  0  0  0  0
   47.7690   32.7530   43.6180 H   0  0  0  0  0  0  0  0  0  0  0  0
   44.4520   35.8490   44.2550 C   0  0  0  0  0  0  0  0  0  0  0  0
   43.7720   36.1950   45.0480 H   0  0  0  0  0  0  0  0  0  0  0  0
   45.0850   36.7150   43.9680 H   0  0  0  0  0  0  0  0  0  0  0  0
   43.8990   35.5210   43.3410 H   0  0  0  0  0  0  0  0  0  0  0  0
   45.5180   30.7710   49.4130 O   0  0  0  0  0  0  0  0  0  0  0  0
   45.7480   30.9420   47.9140 P   0  0  1  0  0  0  0  0  0  0  0  0
   44.4530   30.1750   47.1460 O   0  0  0  0  0  0  0  0  0  0  0  0
   44.4490   30.3830   46.1690 H   0  0  0  0  0  0  0  0  0  0  0  0
   47.1710   30.1970   47.4420 O   0  0  0  0  0  0  0  0  0  0  0  0
   49.0530   29.6450   51.2390 H   0  0  0  0  0  0  0  0  0  0  0  0
   49.6420   29.8890   50.4410 N   0  0  0  0  0  0  0  0  0  0  0  0
   49.6250   31.2350   49.9850 C   0  0  0  0  0  2  0  0  0  0  0  0
   48.7520   31.4840   48.7710 C   0  0  0  0  0  2  0  0  0  0  0  0
   48.1630   30.1660   48.3770 C   0  0  0  0  0  3  0  0  0  0  0  0
   49.2990   29.2270   48.1010 C   0  0  0  0  0  2  0  0  0  0  0  0
   49.8990   28.8820   49.4700 C   0  0  0  0  0  2  0  0  0  0  0  0
  1 15  1  0  0  0  0
  2  7  1  0  0  0  0
  3  4  1  0  0  0  0
  3  2  2  0  0  0  0
  4  5  2  0  0  0  0
  5  6  1  0  0  0  0
  6  1  1  0  0  0  0
  7  6  2  0  0  0  0
  8  3  1  0  0  0  0
  9  4  1  0  0  0  0
 10  2  1  0  0  0  0
 10 11  1  0  0  0  0
 12 10  1  0  0  0  0
 13 10  1  0  0  0  0
 15 14  2  1  0  0  0
 16 15  1  0  0  0  0
 17 16  1  0  0  0  0
 18 15  1  0  0  0  0
 18 23  1  0  0  0  0
 20 19  1  0  0  0  0
 21 20  1  0  0  0  0
 22 21  1  0  0  0  0
 23 22  1  0  0  0  0
 24 23  1  0  0  0  0
 24 25  1  0  0  0  0
 25 20  1  0  0  0  0
M  END
>  <minimizedAffinity>
-4.98581696

>  <minimizedRMSD>
0.884109497

$$$$
