
 OpenBabel03252509313D

 25 26  0  0  0  0  0  0  0  0999 V2000
   48.3660   33.4000   43.4130 O   0  0  0  0  0  0  0  0  0  0  0  0
   47.0410   33.4530   42.9640 C   0  0  0  0  0  0  0  0  0  0  0  0
   46.9430   34.0370   42.0060 H   0  0  0  0  0  0  0  0  0  0  0  0
   46.6350   32.4380   42.7330 H   0  0  0  0  0  0  0  0  0  0  0  0
   45.2030   34.1580   46.1240 C   0  0  0  0  0  0  0  0  0  0  0  0
   46.0470   33.5330   45.1900 C   0  0  0  0  0  0  0  0  0  0  0  0
   46.1720   34.0890   43.9370 C   0  0  0  0  0  0  0  0  0  0  0  0
   45.4640   35.2340   43.6550 N   0  0  0  0  0  0  0  0  0  0  0  0
   44.6570   35.8090   44.5810 C   0  0  0  0  0  0  0  0  0  0  0  0
   44.5300   35.2800   45.7930 N   0  0  0  0  0  0  0  0  0  0  0  0
   45.0920   33.7290   47.1230 H   0  0  0  0  0  0  0  0  0  0  0  0
   46.5450   32.6420   45.5370 H   0  0  0  0  0  0  0  0  0  0  0  0
   44.0980   36.7100   44.3640 H   0  0  0  0  0  0  0  0  0  0  0  0
   50.3520   32.9430   41.7790 O   0  0  0  0  0  0  0  0  0  0  0  0
   49.3370   33.9910   42.1520 P   0  0  2  0  0  0  0  0  0  0  0  0
   50.0190   35.4330   42.6770 O   0  0  0  0  0  0  0  0  0  0  0  0
   50.9750   35.3380   42.9500 H   0  0  0  0  0  0  0  0  0  0  0  0
   48.3280   34.2490   40.8210 O   0  0  0  0  0  0  0  0  0  0  0  0
   46.5790   31.9330   36.9120 H   0  0  0  0  0  0  0  0  0  0  0  0
   47.4220   32.4040   37.2830 N   0  0  0  0  0  0  0  0  0  0  0  0
   47.1380   33.7440   37.7580 C   0  0  0  0  0  2  0  0  0  0  0  0
   48.3450   34.2890   38.4820 C   0  0  0  0  0  2  0  0  0  0  0  0
   48.6610   33.4910   39.7300 C   0  0  0  0  0  3  0  0  0  0  0  0
   47.9000   32.1910   39.6470 C   0  0  0  0  0  2  0  0  0  0  0  0
   48.1700   31.6300   38.2490 C   0  0  0  0  0  2  0  0  0  0  0  0
  2  1  1  0  0  0  0
  2  7  1  0  0  0  0
  3  2  1  0  0  0  0
  4  2  1  0  0  0  0
  5 11  1  0  0  0  0
  6 12  1  0  0  0  0
  6  5  2  0  0  0  0
  7  6  1  0  0  0  0
  8  7  2  0  0  0  0
  8  9  1  0  0  0  0
  9 10  2  0  0  0  0
 10  5  1  0  0  0  0
 13  9  1  0  0  0  0
 15 14  2  6  0  0  0
 15 16  1  0  0  0  0
 15  1  1  0  0  0  0
 16 17  1  0  0  0  0
 18 15  1  0  0  0  0
 19 20  1  0  0  0  0
 20 21  1  0  0  0  0
 20 25  1  0  0  0  0
 21 22  1  0  0  0  0
 22 23  1  0  0  0  0
 23 18  1  0  0  0  0
 24 23  1  0  0  0  0
 25 24  1  0  0  0  0
M  END
>  <minimizedAffinity>
-4.32814217

>  <minimizedRMSD>
1.11954927

$$$$
