
     RDKit          3D

 34 35  0  0  0  0  0  0  0  0999 V2000
   45.5038   34.9111   44.1450 C   0  0  0  0  0  0  0  0  0  0  0  0
   46.5418   34.2337   43.5226 C   0  0  0  0  0  0  0  0  0  0  0  0
   47.1421   33.1726   44.2261 C   0  0  0  0  0  0  0  0  0  0  0  0
   46.6858   32.8716   45.4508 N   0  0  0  0  0  0  0  0  0  0  0  0
   45.6610   33.5683   46.0209 C   0  0  0  0  0  0  0  0  0  0  0  0
   45.0807   34.5862   45.3534 N   0  0  0  0  0  0  0  0  0  0  0  0
   44.8664   36.0376   43.3984 C   0  0  0  0  0  0  0  0  0  0  0  0
   45.3036   33.1369   47.2912 O   0  0  0  0  0  0  0  0  0  0  0  0
   45.3437   31.7145   49.4377 O   0  0  0  0  0  0  0  0  0  0  0  0
   45.6189   31.6211   47.9401 P   0  0  1  0  0  0  0  0  0  0  0  0
   44.5976   30.4124   47.3475 O   0  0  0  0  0  0  0  0  0  0  0  0
   47.2055   31.1731   47.6541 O   0  0  0  0  0  0  0  0  0  0  0  0
   46.8998   34.4875   42.5336 H   0  0  0  0  0  0  0  0  0  0  0  0
   47.9415   32.6584   43.7346 H   0  0  0  0  0  0  0  0  0  0  0  0
   44.0915   36.5276   44.0073 H   0  0  0  0  0  0  0  0  0  0  0  0
   45.6182   36.8138   43.1423 H   0  0  0  0  0  0  0  0  0  0  0  0
   44.4556   35.6390   42.4385 H   0  0  0  0  0  0  0  0  0  0  0  0
   44.6048   30.4036   46.3482 H   0  0  0  0  0  0  0  0  0  0  0  0
   49.9853   32.2740   50.7073 H   0  0  0  0  0  0  0  0  0  0  0  0
   49.5574   31.3487   50.7574 N   0  0  0  0  0  0  0  0  0  0  0  0
   50.0308   30.3451   49.8692 C   0  0  0  0  0  0  0  0  0  0  0  0
   49.1655   30.1222   48.6441 C   0  0  0  0  0  0  0  0  0  0  0  0
   47.9965   31.0499   48.7585 C   0  0  0  0  0  0  0  0  0  0  0  0
   47.2898   30.7325   50.0425 C   0  0  0  0  0  0  0  0  0  0  0  0
   48.1966   31.2643   51.1606 C   0  0  0  0  0  0  0  0  0  0  0  0
   50.2945   29.3949   50.3950 H   0  0  0  0  0  0  0  0  0  0  0  0
   51.0222   30.7100   49.4717 H   0  0  0  0  0  0  0  0  0  0  0  0
   48.8575   29.0419   48.6947 H   0  0  0  0  0  0  0  0  0  0  0  0
   49.7036   30.2965   47.6898 H   0  0  0  0  0  0  0  0  0  0  0  0
   48.4372   32.0807   48.8947 H   0  0  0  0  0  0  0  0  0  0  0  0
   47.2276   29.6281   50.1920 H   0  0  0  0  0  0  0  0  0  0  0  0
   46.2838   31.1728   50.0877 H   0  0  0  0  0  0  0  0  0  0  0  0
   48.0127   30.7569   52.1075 H   0  0  0  0  0  0  0  0  0  0  0  0
   47.8338   32.3251   51.2996 H   0  0  0  0  0  0  0  0  0  0  0  0
  1  6  2  0
  2  1  1  0
  2  3  2  0
  3  4  1  0
  4  5  2  0
  5  8  1  0
  6  5  1  0
  7  1  1  0
 10  8  1  6
 10  9  2  0
 11 10  1  0
 12 10  1  0
  2 13  1  0
  3 14  1  0
  7 15  1  0
  7 16  1  0
  7 17  1  0
 11 18  1  0
 19 20  1  0
 20 21  1  0
 21 22  1  0
 22 23  1  0
 23 24  1  0
 24 25  1  0
 25 20  1  0
 21 26  1  0
 21 27  1  0
 22 28  1  0
 22 29  1  0
 23 30  1  0
 24 31  1  0
 24 32  1  0
 25 33  1  0
 25 34  1  0
 12 23  1  0
M  ISO  7  13  14  14  14  15   8  16   8  17   8  18   3  19   5
M  END
>  <DihAtoms>  (1) 
9,11,22,21

>  <DihDeg>  (1) 
-115.81247200715778

$$$$
