REMARK  Name = 
REMARK  3 active torsions:
REMARK  status: ('A' for Active; 'I' for Inactive)
REMARK    1  A    between atoms: C_1  and  S_17
REMARK    2  A    between atoms: C_11  and  N_16
REMARK    3  A    between atoms: S_17  and  C_28
REMARK                            x       y       z     vdW  Elec       q    Type
REMARK                         _______ _______ _______ _____ _____    ______ ____
ROOT
ATOM      1  C   UNL     1      47.697  33.488  40.128  0.00  0.00    +0.000 A 
ATOM      2  C   UNL     1      49.041  33.223  40.381  0.00  0.00    +0.000 A 
ATOM      3  C   UNL     1      49.514  33.304  41.723  0.00  0.00    +0.000 A 
ATOM      4  N   UNL     1      48.593  33.642  42.675  0.00  0.00    +0.000 NA
ATOM      5  C   UNL     1      47.294  33.892  42.381  0.00  0.00    +0.000 A 
ATOM      6  N   UNL     1      46.862  33.812  41.111  0.00  0.00    +0.000 NA
ATOM      7  N   UNL     1      46.420  34.236  43.451  0.00  0.00    +0.000 N 
ATOM      8  C   UNL     1      45.507  35.237  43.431  0.00  0.00    +0.000 A 
ATOM      9  N   UNL     1      44.870  35.249  44.642  0.00  0.00    +0.000 NA
ATOM     10  C   UNL     1      45.410  34.262  45.355  0.00  0.00    +0.000 A 
ATOM     11  C   UNL     1      45.203  33.768  46.636  0.00  0.00    +0.000 A 
ATOM     12  N   UNL     1      45.880  32.751  47.140  0.00  0.00    +0.000 NA
ATOM     13  C   UNL     1      46.835  32.114  46.431  0.00  0.00    +0.000 A 
ATOM     14  N   UNL     1      47.038  32.590  45.191  0.00  0.00    +0.000 NA
ATOM     15  C   UNL     1      46.385  33.609  44.638  0.00  0.00    +0.000 A 
ATOM     16  H   UNL     1      49.835  32.947  39.701  0.00  0.00    +0.000 HD
ATOM     17  H   UNL     1      50.522  33.116  41.993  0.00  0.00    +0.000 HD
ATOM     18  H   UNL     1      45.328  35.902  42.593  0.00  0.00    +0.000 HD
ATOM     19  H   UNL     1      47.406  31.279  46.813  0.00  0.00    +0.000 HD
ENDROOT
BRANCH  11  20
ATOM     20  N   UNL     1      44.230  34.341  47.498  0.00  0.00    +0.000 N 
ATOM     21  H   UNL     1      43.444  33.877  47.993  0.00  0.00    +0.000 HD
ATOM     22  H   UNL     1      44.367  35.386  47.620  0.00  0.00    +0.000 HD
ENDBRANCH  11  20
BRANCH   1  23
ATOM     23  S   UNL     1      47.215  33.361  38.411  0.00  0.00    +0.000 S 
BRANCH  23  28
ATOM     24  H   UNL     1      45.938  32.444  35.296  0.00  0.00    +0.000 HD
ATOM     25  N   UNL     1      46.868  31.974  35.324  0.00  0.00    +0.000 NA
ATOM     26  C   UNL     1      47.975  32.812  34.936  0.00  0.00    +0.000 C 
ATOM     27  C   UNL     1      48.456  33.719  36.048  0.00  0.00    +0.000 C 
ATOM     28  C   UNL     1      48.594  32.960  37.355  0.00  0.00    +0.000 C 
ATOM     29  C   UNL     1      48.522  31.486  37.015  0.00  0.00    +0.000 C 
ATOM     30  C   UNL     1      47.086  31.233  36.542  0.00  0.00    +0.000 C 
ENDBRANCH  23  28
ENDBRANCH   1  23
TORSDOF 3
