REMARK  Name = 
REMARK  4 active torsions:
REMARK  status: ('A' for Active; 'I' for Inactive)
REMARK    1  A    between atoms: C_2  and  C_12
REMARK    2  A    between atoms: C_3  and  C_7
REMARK    3  A    between atoms: C_12  and  C_14
REMARK    4  A    between atoms: N_16  and  C_32
REMARK                            x       y       z     vdW  Elec       q    Type
REMARK                         _______ _______ _______ _____ _____    ______ ____
ROOT
ATOM      1  C   UNL     1      46.517  34.834  41.913  0.00  0.00    +0.000 C 
ATOM      2  O   UNL     1      47.718  35.247  41.854  0.00  0.00    +0.000 OA
ENDROOT
BRANCH   1   3
ATOM      3  C   UNL     1      45.782  34.220  40.747  0.00  0.00    +0.000 A 
ATOM      4  C   UNL     1      44.421  34.310  40.503  0.00  0.00    +0.000 A 
ATOM      5  N   UNL     1      44.234  33.617  39.368  0.00  0.00    +0.000 N 
ATOM      6  C   UNL     1      45.410  33.127  38.936  0.00  0.00    +0.000 A 
ATOM      7  N   UNL     1      46.400  33.497  39.793  0.00  0.00    +0.000 NA
ATOM      8  N   UNL     1      45.752  32.332  37.793  0.00  0.00    +0.000 N 
ATOM      9  H   UNL     1      43.683  34.827  41.101  0.00  0.00    +0.000 HD
ATOM     10  H   UNL     1      45.942  31.311  37.951  0.00  0.00    +0.000 HD
ATOM     11  H   UNL     1      45.742  32.993  36.963  0.00  0.00    +0.000 HD
BRANCH   5  16
ATOM     12  H   UNL     1      40.450  32.931  36.918  0.00  0.00    +0.000 HD
ATOM     13  N   UNL     1      40.514  33.745  37.538  0.00  0.00    +0.000 NA
ATOM     14  C   UNL     1      41.497  34.731  37.157  0.00  0.00    +0.000 C 
ATOM     15  C   UNL     1      42.903  34.336  37.499  0.00  0.00    +0.000 C 
ATOM     16  C   UNL     1      42.982  33.395  38.668  0.00  0.00    +0.000 C 
ATOM     17  C   UNL     1      41.811  33.614  39.636  0.00  0.00    +0.000 C 
ATOM     18  C   UNL     1      40.514  33.448  38.934  0.00  0.00    +0.000 C 
ENDBRANCH   5  16
ENDBRANCH   1   3
BRANCH   1  20
ATOM     19  C   UNL     1      45.224  36.176  43.494  0.00  0.00    +0.000 A 
ATOM     20  C   UNL     1      45.866  34.979  43.170  0.00  0.00    +0.000 A 
ATOM     21  C   UNL     1      45.810  33.994  44.148  0.00  0.00    +0.000 A 
ATOM     22  N   UNL     1      45.186  34.180  45.312  0.00  0.00    +0.000 NA
ATOM     23  C   UNL     1      44.572  35.369  45.584  0.00  0.00    +0.000 A 
ATOM     24  N   UNL     1      44.599  36.355  44.669  0.00  0.00    +0.000 NA
ATOM     25  H   UNL     1      45.234  36.989  42.764  0.00  0.00    +0.000 HD
ATOM     26  H   UNL     1      44.062  35.525  46.532  0.00  0.00    +0.000 HD
BRANCH  21  27
ATOM     27  C   UNL     1      46.439  32.752  43.894  0.00  0.00    +0.000 A 
ATOM     28  C   UNL     1      47.711  32.282  44.011  0.00  0.00    +0.000 A 
ATOM     29  C   UNL     1      48.022  31.033  43.688  0.00  0.00    +0.000 A 
ATOM     30  C   UNL     1      47.030  30.233  43.236  0.00  0.00    +0.000 A 
ATOM     31  S   UNL     1      45.567  31.337  43.275  0.00  0.00    +0.000 S 
ATOM     32  H   UNL     1      48.442  33.025  44.392  0.00  0.00    +0.000 HD
ATOM     33  H   UNL     1      49.010  30.593  43.756  0.00  0.00    +0.000 HD
ATOM     34  H   UNL     1      47.001  29.201  42.910  0.00  0.00    +0.000 HD
ENDBRANCH  21  27
ENDBRANCH   1  20
TORSDOF 4
