
     RDKit          3D

 43 46  0  0  0  0  0  0  0  0999 V2000
   45.2239   36.1756   43.4944 C   0  0  0  0  0  0  0  0  0  0  0  0
   45.8664   34.9786   43.1702 C   0  0  0  0  0  0  0  0  0  0  0  0
   45.8097   33.9944   44.1482 C   0  0  0  0  0  0  0  0  0  0  0  0
   45.1864   34.1803   45.3124 N   0  0  0  0  0  0  0  0  0  0  0  0
   44.5722   35.3686   45.5839 C   0  0  0  0  0  0  0  0  0  0  0  0
   44.5986   36.3549   44.6686 N   0  0  0  0  0  0  0  0  0  0  0  0
   46.4391   32.7525   43.8937 C   0  0  0  0  0  0  0  0  0  0  0  0
   47.7109   32.2824   44.0108 C   0  0  0  0  0  0  0  0  0  0  0  0
   48.0222   31.0331   43.6882 C   0  0  0  0  0  0  0  0  0  0  0  0
   47.0297   30.2332   43.2356 C   0  0  0  0  0  0  0  0  0  0  0  0
   45.5667   31.3369   43.2752 S   0  0  0  0  0  0  0  0  0  0  0  0
   46.5166   34.8340   41.9130 C   0  0  0  0  0  0  0  0  0  0  0  0
   47.7176   35.2471   41.8538 O   0  0  0  0  0  0  0  0  0  0  0  0
   45.7820   34.2200   40.7473 C   0  0  0  0  0  0  0  0  0  0  0  0
   44.4207   34.3101   40.5031 C   0  0  0  0  0  0  0  0  0  0  0  0
   44.2343   33.6166   39.3682 N   0  0  0  0  0  0  0  0  0  0  0  0
   45.4102   33.1269   38.9363 C   0  0  0  0  0  0  0  0  0  0  0  0
   46.4003   33.4966   39.7931 N   0  0  0  0  0  0  0  0  0  0  0  0
   45.7525   32.3324   37.7930 N   0  0  0  0  0  0  0  0  0  0  0  0
   45.2345   36.9888   42.7637 H   0  0  0  0  0  0  0  0  0  0  0  0
   44.0622   35.5250   46.5325 H   0  0  0  0  0  0  0  0  0  0  0  0
   48.4424   33.0247   44.3918 H   0  0  0  0  0  0  0  0  0  0  0  0
   49.0100   30.5925   43.7557 H   0  0  0  0  0  0  0  0  0  0  0  0
   47.0012   29.2008   42.9101 H   0  0  0  0  0  0  0  0  0  0  0  0
   43.6829   34.8268   41.1010 H   0  0  0  0  0  0  0  0  0  0  0  0
   45.9416   31.3114   37.9510 H   0  0  0  0  0  0  0  0  0  0  0  0
   45.7422   32.9929   36.9631 H   0  0  0  0  0  0  0  0  0  0  0  0
   40.4503   32.9306   36.9180 H   0  0  0  0  0  0  0  0  0  0  0  0
   40.5143   33.7449   37.5375 N   0  0  0  0  0  0  0  0  0  0  0  0
   41.4970   34.7315   37.1571 C   0  0  0  0  0  0  0  0  0  0  0  0
   42.9031   34.3359   37.4990 C   0  0  0  0  0  0  0  0  0  0  0  0
   42.9820   33.3947   38.6681 C   0  0  0  0  0  0  0  0  0  0  0  0
   41.8109   33.6137   39.6360 C   0  0  0  0  0  0  0  0  0  0  0  0
   40.5136   33.4481   38.9341 C   0  0  0  0  0  0  0  0  0  0  0  0
   41.2725   35.6684   37.7054 H   0  0  0  0  0  0  0  0  0  0  0  0
   41.3583   34.9561   36.0869 H   0  0  0  0  0  0  0  0  0  0  0  0
   43.5066   35.2553   37.6714 H   0  0  0  0  0  0  0  0  0  0  0  0
   43.4180   33.8429   36.6241 H   0  0  0  0  0  0  0  0  0  0  0  0
   42.9351   32.3665   38.2582 H   0  0  0  0  0  0  0  0  0  0  0  0
   41.9545   32.9087   40.4793 H   0  0  0  0  0  0  0  0  0  0  0  0
   41.9599   34.6405   40.0470 H   0  0  0  0  0  0  0  0  0  0  0  0
   40.1101   32.4198   39.1188 H   0  0  0  0  0  0  0  0  0  0  0  0
   39.7347   34.1207   39.3998 H   0  0  0  0  0  0  0  0  0  0  0  0
  1  6  2  0
  2  1  1  0
  2  3  2  0
  3  4  1  0
  4  5  2  0
  6  5  1  0
  7  8  2  0
  7  3  1  0
  9  8  1  0
 10 11  1  0
 10  9  2  0
 11  7  1  0
 12  2  1  0
 13 12  2  0
 14 12  1  0
 15 14  2  0
 16 15  1  0
 17 16  1  0
 17 18  2  0
 18 14  1  0
 19 17  1  0
  1 20  1  0
  5 21  1  0
  8 22  1  0
  9 23  1  0
 10 24  1  0
 15 25  1  0
 19 26  1  0
 19 27  1  0
 28 29  1  0
 29 30  1  0
 30 31  1  0
 31 32  1  0
 32 33  1  0
 33 34  1  0
 34 29  1  0
 30 35  1  0
 30 36  1  0
 31 37  1  0
 31 38  1  0
 32 39  1  0
 33 40  1  0
 33 41  1  0
 34 42  1  0
 34 43  1  0
 16 32  1  0
M  ISO  7  20  14  21  14  22  14  23  14  24  14  25  14  28   5
M  END
>  <DihAtoms>  (1) 
14,15,31,30

>  <DihDeg>  (1) 
41.070657316660366

$$$$
