REMARK  Name = 
REMARK  6 active torsions:
REMARK  status: ('A' for Active; 'I' for Inactive)
REMARK    1  A    between atoms: C_1  and  C_4
REMARK    2  A    between atoms: C_1  and  O_8
REMARK    3  A    between atoms: O_8  and  P_10
REMARK    4  A    between atoms: P_10  and  O_11
REMARK    5  A    between atoms: P_10  and  O_12
REMARK    6  A    between atoms: O_12  and  C_23
REMARK                            x       y       z     vdW  Elec       q    Type
REMARK                         _______ _______ _______ _____ _____    ______ ____
ROOT
ATOM      1  O   UNL     1      48.319  33.417  43.016  0.00  0.00    +0.000 OA
ENDROOT
BRANCH   1   2
ATOM      2  C   UNL     1      47.158  33.983  42.477  0.00  0.00    +0.000 C 
ATOM      3  H   UNL     1      47.387  34.863  41.813  0.00  0.00    +0.000 HD
ATOM      4  H   UNL     1      46.600  33.263  41.830  0.00  0.00    +0.000 HD
BRANCH   2   7
ATOM      5  C   UNL     1      45.297  34.226  45.693  0.00  0.00    +0.000 A 
ATOM      6  C   UNL     1      46.166  33.754  44.694  0.00  0.00    +0.000 A 
ATOM      7  C   UNL     1      46.264  34.460  43.516  0.00  0.00    +0.000 A 
ATOM      8  N   UNL     1      45.505  35.598  43.370  0.00  0.00    +0.000 NA
ATOM      9  C   UNL     1      44.676  36.023  44.356  0.00  0.00    +0.000 A 
ATOM     10  N   UNL     1      44.575  35.349  45.496  0.00  0.00    +0.000 NA
ATOM     11  H   UNL     1      45.208  33.677  46.633  0.00  0.00    +0.000 HD
ATOM     12  H   UNL     1      46.704  32.851  44.934  0.00  0.00    +0.000 HD
ATOM     13  H   UNL     1      44.077  36.918  44.246  0.00  0.00    +0.000 HD
ENDBRANCH   2   7
ENDBRANCH   1   2
BRANCH   1  15
ATOM     14  O   UNL     1      50.663  33.102  41.908  0.00  0.00    +0.000 OA
ATOM     15  P   UNL     1      49.634  34.152  42.234  0.00  0.00    +0.000 P 
BRANCH  15  16
ATOM     16  O   UNL     1      50.206  35.365  43.245  0.00  0.00    +0.000 OA
ATOM     17  H   UNL     1      51.040  35.109  43.732  0.00  0.00    +0.000 HD
ENDBRANCH  15  16
BRANCH  15  18
ATOM     18  O   UNL     1      49.058  34.797  40.782  0.00  0.00    +0.000 OA
BRANCH  18  23
ATOM     19  H   UNL     1      48.642  34.124  35.978  0.00  0.00    +0.000 HD
ATOM     20  N   UNL     1      49.333  34.220  36.740  0.00  0.00    +0.000 NA
ATOM     21  C   UNL     1      49.129  35.427  37.518  0.00  0.00    +0.000 C 
ATOM     22  C   UNL     1      50.019  35.398  38.736  0.00  0.00    +0.000 C 
ATOM     23  C   UNL     1      49.658  34.264  39.673  0.00  0.00    +0.000 C 
ATOM     24  C   UNL     1      48.775  33.306  38.913  0.00  0.00    +0.000 C 
ATOM     25  C   UNL     1      49.478  33.050  37.577  0.00  0.00    +0.000 C 
ENDBRANCH  18  23
ENDBRANCH  15  18
ENDBRANCH   1  15
TORSDOF 6
