
 OpenBabel03252504473D

 25 26  0  0  0  0  0  0  0  0999 V2000
   46.7700   32.4010   47.4480 O   0  0  0  0  0  0  0  0  0  0  0  0
   45.4190   34.5040   44.8340 C   0  0  0  0  0  0  0  0  0  0  0  0
   46.0750   34.0000   43.7210 C   0  0  0  0  0  0  0  0  0  0  0  0
   46.9720   32.9350   43.9200 C   0  0  0  0  0  0  0  0  0  0  0  0
   47.1490   32.4650   45.1640 N   0  0  0  0  0  0  0  0  0  0  0  0
   46.4800   32.9940   46.2280 C   0  0  0  0  0  0  0  0  0  0  0  0
   45.6180   34.0150   46.0440 N   0  0  0  0  0  0  0  0  0  0  0  0
   45.9230   34.3880   42.7230 H   0  0  0  0  0  0  0  0  0  0  0  0
   47.4710   32.5540   43.0530 H   0  0  0  0  0  0  0  0  0  0  0  0
   44.4650   35.6360   44.6230 C   0  0  0  0  0  0  0  0  0  0  0  0
   44.0450   35.9820   45.5780 H   0  0  0  0  0  0  0  0  0  0  0  0
   44.9830   36.5040   44.1620 H   0  0  0  0  0  0  0  0  0  0  0  0
   43.6720   35.3010   43.9100 H   0  0  0  0  0  0  0  0  0  0  0  0
   45.6290   31.2630   49.4570 O   0  0  0  0  0  0  0  0  0  0  0  0
   46.0990   30.9780   48.0340 P   0  0  1  0  0  0  0  0  0  0  0  0
   44.7310   30.4780   47.1760 O   0  0  0  0  0  0  0  0  0  0  0  0
   44.9280   30.4280   46.1980 H   0  0  0  0  0  0  0  0  0  0  0  0
   47.2260   29.7410   48.0170 O   0  0  0  0  0  0  0  0  0  0  0  0
   50.9370   31.8590   48.0270 H   0  0  0  0  0  0  0  0  0  0  0  0
   50.7900   31.1430   48.7390 N   0  0  0  0  0  0  0  0  0  0  0  0
   50.8950   29.7800   48.3470 C   0  0  0  0  0  2  0  0  0  0  0  0
   49.5700   29.0870   48.1000 C   0  0  0  0  0  2  0  0  0  0  0  0
   48.4920   30.0860   48.3880 C   0  0  0  0  0  3  0  0  0  0  0  0
   48.6620   30.5400   49.8070 C   0  0  0  0  0  2  0  0  0  0  0  0
   49.9060   31.4400   49.8110 C   0  0  0  0  0  2  0  0  0  0  0  0
  1 15  1  0  0  0  0
  2  7  1  0  0  0  0
  3  4  1  0  0  0  0
  3  2  2  0  0  0  0
  4  5  2  0  0  0  0
  5  6  1  0  0  0  0
  6  1  1  0  0  0  0
  7  6  2  0  0  0  0
  8  3  1  0  0  0  0
  9  4  1  0  0  0  0
 10  2  1  0  0  0  0
 10 11  1  0  0  0  0
 12 10  1  0  0  0  0
 13 10  1  0  0  0  0
 15 14  2  1  0  0  0
 16 15  1  0  0  0  0
 17 16  1  0  0  0  0
 18 15  1  0  0  0  0
 18 23  1  0  0  0  0
 19 20  1  0  0  0  0
 20 25  1  0  0  0  0
 21 20  1  0  0  0  0
 22 21  1  0  0  0  0
 22 23  1  0  0  0  0
 23 24  1  0  0  0  0
 24 25  1  0  0  0  0
M  END
>  <minimizedAffinity>
-4.32233429

>  <minimizedRMSD>
1.29236257

$$$$
