
 OpenBabel03252505473D

 27 29  0  0  1  0  0  0  0  0999 V2000
   45.9070   32.8950   44.0950 C   0  0  0  0  0  0  0  0  0  0  0  0
   46.4040   31.6540   43.6000 C   0  0  0  0  0  0  0  0  0  0  0  0
   47.1710   30.8290   44.4130 C   0  0  0  0  0  0  0  0  0  0  0  0
   47.4180   31.2600   45.6800 N   0  0  0  0  0  0  0  0  0  0  0  0
   46.9230   32.4600   46.1200 C   0  0  0  0  0  0  0  0  0  0  0  0
   46.1850   33.2560   45.3430 N   0  0  0  0  0  0  0  0  0  0  0  0
   46.1840   31.3490   42.5850 H   0  0  0  0  0  0  0  0  0  0  0  0
   47.5600   29.8960   44.0820 H   0  0  0  0  0  0  0  0  0  0  0  0
   45.1130   33.7290   43.1850 C   0  0  1  0  0  0  0  0  0  0  0  0
   45.7560   35.1540   43.0180 C   0  0  1  0  0  0  0  0  0  0  0  0
   45.5080   34.1650   41.9020 C   0  0  0  0  0  0  0  0  0  0  0  0
   44.0340   33.7880   43.5140 H   0  0  0  0  0  0  0  0  0  0  0  0
   46.7680   35.3040   43.3820 H   0  0  0  0  0  0  0  0  0  0  0  0
   44.7130   34.3980   41.1430 H   0  0  0  0  0  0  0  0  0  0  0  0
   46.4330   33.8160   41.4000 H   0  0  0  0  0  0  0  0  0  0  0  0
   44.7510   36.2830   43.0600 C   0  0  0  0  0  0  0  0  0  0  0  0
   45.3200   37.5190   43.1610 F   0  0  0  0  0  0  0  0  0  0  0  0
   44.0030   36.2560   41.8710 F   0  0  0  0  0  0  0  0  0  0  0  0
   43.8190   36.0780   44.0680 F   0  0  0  0  0  0  0  0  0  0  0  0
   47.2500   32.7810   47.4270 O   0  0  0  0  0  0  0  0  0  0  0  0
   46.0080   29.3570   47.0450 H   0  0  0  0  0  0  0  0  0  0  0  0
   46.1430   29.3280   48.0870 N   0  0  0  0  0  0  0  0  0  0  0  0
   45.1480   30.1820   48.7050 C   0  0  0  0  0  2  0  0  0  0  0  0
   45.2980   31.5530   48.0830 C   0  0  0  0  0  2  0  0  0  0  0  0
   46.6500   32.0770   48.4790 C   0  0  0  0  0  3  0  0  0  0  0  0
   47.5520   31.0600   49.1110 C   0  0  0  0  0  2  0  0  0  0  0  0
   47.4870   29.7070   48.4630 C   0  0  0  0  0  2  0  0  0  0  0  0
  1  6  1  0  0  0  0
  2  1  2  0  0  0  0
  2  3  1  0  0  0  0
  3  4  2  0  0  0  0
  4  5  1  0  0  0  0
  5 20  1  0  0  0  0
  6  5  2  0  0  0  0
  7  2  1  0  0  0  0
  8  3  1  0  0  0  0
  9 12  1  1  0  0  0
  9  1  1  0  0  0  0
 10 16  1  0  0  0  0
 10  9  1  0  0  0  0
 10 13  1  1  0  0  0
 11 10  1  0  0  0  0
 11  9  1  0  0  0  0
 14 11  1  0  0  0  0
 15 11  1  0  0  0  0
 16 17  1  0  0  0  0
 16 19  1  0  0  0  0
 18 16  1  0  0  0  0
 20 25  1  0  0  0  0
 21 22  1  0  0  0  0
 22 27  1  0  0  0  0
 22 23  1  0  0  0  0
 24 25  1  0  0  0  0
 24 23  1  0  0  0  0
 25 26  1  0  0  0  0
 27 26  1  0  0  0  0
M  END
>  <minimizedAffinity>
-4.9505825

>  <minimizedRMSD>
1.1960758

$$$$
