
 OpenBabel03252509083D

 39 42  0  0  0  0  0  0  0  0999 V2000
   46.9460   31.6500   39.3570 C   0  0  0  0  0  0  0  0  0  0  0  0
   46.7100   32.9890   39.2580 C   0  0  0  0  0  0  0  0  0  0  0  0
   47.4880   33.7450   38.4050 C   0  0  0  0  0  0  0  0  0  0  0  0
   48.4850   33.1560   37.6660 C   0  0  0  0  0  0  0  0  0  0  0  0
   48.7450   31.7900   37.7470 C   0  0  0  0  0  0  0  0  0  0  0  0
   47.9580   31.0460   38.6070 C   0  0  0  0  0  0  0  0  0  0  0  0
   47.3210   34.8230   38.3070 H   0  0  0  0  0  0  0  0  0  0  0  0
   49.0720   33.7680   37.0130 H   0  0  0  0  0  0  0  0  0  0  0  0
   49.5190   31.2940   37.1810 H   0  0  0  0  0  0  0  0  0  0  0  0
   48.1610   29.9750   38.6730 H   0  0  0  0  0  0  0  0  0  0  0  0
   45.3260   35.8700   43.2900 Cl  0  0  0  0  0  0  0  0  0  0  0  0
   45.0290   35.0000   41.8150 C   0  0  0  0  0  0  0  0  0  0  0  0
   46.0240   34.3680   41.1620 C   0  0  0  0  0  0  0  0  0  0  0  0
   45.6790   33.6980   39.9940 C   0  0  0  0  0  0  0  0  0  0  0  0
   44.3950   33.6730   39.5170 C   0  0  0  0  0  0  0  0  0  0  0  0
   43.4070   34.3140   40.1900 C   0  0  0  0  0  0  0  0  0  0  0  0
   43.7350   34.9820   41.3490 C   0  0  0  0  0  0  0  0  0  0  0  0
   44.1600   33.1420   38.6050 H   0  0  0  0  0  0  0  0  0  0  0  0
   42.3720   34.3200   39.8480 H   0  0  0  0  0  0  0  0  0  0  0  0
   42.9330   35.4960   41.8830 H   0  0  0  0  0  0  0  0  0  0  0  0
   49.5230   35.4940   42.0260 C   0  0  0  0  0  0  0  0  0  0  0  0
   48.2300   35.4640   41.4960 C   0  0  0  0  0  0  0  0  0  0  0  0
   47.3620   34.4100   41.7010 C   0  0  0  0  0  0  0  0  0  0  0  0
   47.8620   33.3990   42.4590 N   0  0  0  0  0  0  0  0  0  0  0  0
   49.1030   33.4220   42.9710 C   0  0  0  0  0  0  0  0  0  0  0  0
   49.9220   34.4580   42.7550 N   0  0  0  0  0  0  0  0  0  0  0  0
   50.1880   36.3420   41.8470 H   0  0  0  0  0  0  0  0  0  0  0  0
   47.9180   36.3110   40.9060 H   0  0  0  0  0  0  0  0  0  0  0  0
   49.4330   32.5740   43.5690 H   0  0  0  0  0  0  0  0  0  0  0  0
   46.0340   30.6530   40.3650 S   0  0  0  0  0  0  0  0  0  0  0  0
   44.7310   30.2220   39.7160 O   0  0  0  0  0  0  0  0  0  0  0  0
   46.8680   29.3440   40.4260 O   0  0  0  0  0  0  0  0  0  0  0  0
   43.4790   29.1340   44.8420 H   0  0  0  0  0  0  0  0  0  0  0  0
   43.9840   29.7700   44.2210 N   0  0  0  0  0  0  0  0  0  0  0  0
   45.3900   29.5160   44.0530 C   0  0  0  0  0  2  0  0  0  0  0  0
   45.7010   29.4400   42.6100 C   0  0  0  0  0  2  0  0  0  0  0  0
   45.5750   30.8750   41.9690 C   0  0  0  0  0  3  0  0  0  0  0  0
   44.0930   31.1120   42.2530 C   0  0  0  0  0  2  0  0  0  0  0  0
   43.3840   29.9890   42.9240 C   0  0  0  0  0  2  0  0  0  0  0  0
  1 30  1  0  0  0  0
  2  1  1  0  0  0  0
  2 14  1  0  0  0  0
  3  2  2  0  0  0  0
  4  5  2  0  0  0  0
  4  3  1  0  0  0  0
  5  6  1  0  0  0  0
  6 10  1  0  0  0  0
  6  1  2  0  0  0  0
  7  3  1  0  0  0  0
  8  4  1  0  0  0  0
  9  5  1  0  0  0  0
 12 11  1  0  0  0  0
 13 23  1  0  0  0  0
 13 12  2  0  0  0  0
 14 13  1  0  0  0  0
 15 14  2  0  0  0  0
 15 16  1  0  0  0  0
 16 17  2  0  0  0  0
 17 12  1  0  0  0  0
 17 20  1  0  0  0  0
 18 15  1  0  0  0  0
 19 16  1  0  0  0  0
 21 26  1  0  0  0  0
 22 23  1  0  0  0  0
 22 21  2  0  0  0  0
 23 24  2  0  0  0  0
 24 25  1  0  0  0  0
 25 29  1  0  0  0  0
 26 25  2  0  0  0  0
 27 21  1  0  0  0  0
 28 22  1  0  0  0  0
 30 32  2  0  0  0  0
 30 37  1  0  0  0  0
 31 30  2  0  0  0  0
 34 33  1  0  0  0  0
 35 34  1  0  0  0  0
 36 35  1  0  0  0  0
 37 38  1  0  0  0  0
 37 36  1  0  0  0  0
 38 39  1  0  0  0  0
 39 34  1  0  0  0  0
M  END
>  <minimizedAffinity>
-4.87298012

>  <minimizedRMSD>
1.03282809

$$$$
