
 OpenBabel03252509083D

 39 42  0  0  0  0  0  0  0  0999 V2000
   47.9980   33.5440   42.4770 C   0  0  0  0  0  0  0  0  0  0  0  0
   47.4240   34.3910   41.5760 C   0  0  0  0  0  0  0  0  0  0  0  0
   48.1280   35.5040   41.1600 C   0  0  0  0  0  0  0  0  0  0  0  0
   49.3880   35.7520   41.6470 C   0  0  0  0  0  0  0  0  0  0  0  0
   49.9970   34.9020   42.5660 C   0  0  0  0  0  0  0  0  0  0  0  0
   49.2790   33.7920   42.9740 C   0  0  0  0  0  0  0  0  0  0  0  0
   47.6900   36.2020   40.4380 H   0  0  0  0  0  0  0  0  0  0  0  0
   49.9080   36.6230   41.3060 H   0  0  0  0  0  0  0  0  0  0  0  0
   50.9850   35.0650   42.9690 H   0  0  0  0  0  0  0  0  0  0  0  0
   49.7550   33.1240   43.6950 H   0  0  0  0  0  0  0  0  0  0  0  0
   44.4520   32.7510   37.7090 Cl  0  0  0  0  0  0  0  0  0  0  0  0
   44.7370   33.4770   39.2620 C   0  0  0  0  0  0  0  0  0  0  0  0
   45.9840   33.6120   39.7550 C   0  0  0  0  0  0  0  0  0  0  0  0
   46.1020   34.2100   41.0040 C   0  0  0  0  0  0  0  0  0  0  0  0
   45.0140   34.6450   41.7130 C   0  0  0  0  0  0  0  0  0  0  0  0
   43.7660   34.5020   41.1980 C   0  0  0  0  0  0  0  0  0  0  0  0
   43.6350   33.9120   39.9620 C   0  0  0  0  0  0  0  0  0  0  0  0
   45.1400   35.1060   42.6830 H   0  0  0  0  0  0  0  0  0  0  0  0
   42.8720   34.8350   41.7270 H   0  0  0  0  0  0  0  0  0  0  0  0
   42.6270   33.8000   39.5570 H   0  0  0  0  0  0  0  0  0  0  0  0
   48.7590   31.4620   38.3650 C   0  0  0  0  0  0  0  0  0  0  0  0
   47.6730   31.8990   39.1290 C   0  0  0  0  0  0  0  0  0  0  0  0
   47.1070   33.1490   38.9750 C   0  0  0  0  0  0  0  0  0  0  0  0
   47.6860   33.9240   38.0200 N   0  0  0  0  0  0  0  0  0  0  0  0
   48.7280   33.5090   37.2840 C   0  0  0  0  0  0  0  0  0  0  0  0
   49.2570   32.2920   37.4560 N   0  0  0  0  0  0  0  0  0  0  0  0
   49.1880   30.4660   38.5090 H   0  0  0  0  0  0  0  0  0  0  0  0
   47.2790   31.2150   39.8630 H   0  0  0  0  0  0  0  0  0  0  0  0
   49.1380   34.1870   36.5380 H   0  0  0  0  0  0  0  0  0  0  0  0
   47.2130   32.1570   43.0250 S   0  0  0  0  0  0  0  0  0  0  0  0
   48.1850   31.1300   43.5770 O   0  0  0  0  0  0  0  0  0  0  0  0
   46.4440   32.6520   44.2810 O   0  0  0  0  0  0  0  0  0  0  0  0
   43.1310   28.6610   43.0520 H   0  0  0  0  0  0  0  0  0  0  0  0
   43.8930   29.2100   42.6460 N   0  0  0  0  0  0  0  0  0  0  0  0
   43.6550   30.6200   42.4900 C   0  0  0  0  0  2  0  0  0  0  0  0
   44.7640   31.3710   43.1140 C   0  0  0  0  0  2  0  0  0  0  0  0
   46.0740   31.1890   42.2530 C   0  0  0  0  0  3  0  0  0  0  0  0
   46.2190   29.6770   42.3940 C   0  0  0  0  0  2  0  0  0  0  0  0
   45.1940   29.0130   43.2460 C   0  0  0  0  0  2  0  0  0  0  0  0
  1  6  1  0  0  0  0
  1 30  1  0  0  0  0
  2  1  2  0  0  0  0
  3  2  1  0  0  0  0
  3  4  2  0  0  0  0
  4  5  1  0  0  0  0
  5  9  1  0  0  0  0
  5  6  2  0  0  0  0
  6 10  1  0  0  0  0
  7  3  1  0  0  0  0
  8  4  1  0  0  0  0
 11 12  1  0  0  0  0
 12 13  2  0  0  0  0
 12 17  1  0  0  0  0
 13 14  1  0  0  0  0
 14  2  1  0  0  0  0
 14 15  2  0  0  0  0
 15 18  1  0  0  0  0
 16 15  1  0  0  0  0
 16 19  1  0  0  0  0
 17 16  2  0  0  0  0
 20 17  1  0  0  0  0
 21 27  1  0  0  0  0
 21 22  1  0  0  0  0
 22 28  1  0  0  0  0
 23 22  2  0  0  0  0
 23 13  1  0  0  0  0
 24 23  1  0  0  0  0
 25 26  1  0  0  0  0
 25 24  2  0  0  0  0
 26 21  2  0  0  0  0
 29 25  1  0  0  0  0
 30 31  2  0  0  0  0
 30 32  2  0  0  0  0
 34 33  1  0  0  0  0
 34 39  1  0  0  0  0
 35 34  1  0  0  0  0
 35 36  1  0  0  0  0
 37 38  1  0  0  0  0
 37 30  1  0  0  0  0
 37 36  1  0  0  0  0
 38 39  1  0  0  0  0
M  END
>  <minimizedAffinity>
-5.06260014

>  <minimizedRMSD>
3.81233788

$$$$
