
 OpenBabel03252506353D

 31 33  0  0  1  0  0  0  0  0999 V2000
   44.4450   35.7190   44.9930 C   0  0  0  0  0  0  0  0  0  0  0  0
   45.1270   35.7140   43.7470 C   0  0  0  0  0  0  0  0  0  0  0  0
   46.0820   34.7460   43.5040 C   0  0  0  0  0  0  0  0  0  0  0  0
   46.2890   33.8630   44.5070 N   0  0  0  0  0  0  0  0  0  0  0  0
   45.6510   33.8700   45.6720 C   0  0  0  0  0  0  0  0  0  0  0  0
   44.7310   34.7910   45.9220 N   0  0  0  0  0  0  0  0  0  0  0  0
   45.9850   32.8700   46.6160 N   0  0  0  0  0  0  0  0  0  0  0  0
   45.1780   32.5490   47.7970 C   0  0  0  0  0  0  0  0  0  0  0  0
   46.2470   32.2730   48.8360 C   0  0  0  0  0  0  0  0  0  0  0  0
   47.5480   32.1400   48.1020 C   0  0  0  0  0  0  0  0  0  0  0  0
   47.1020   31.9740   46.6750 C   0  0  1  0  0  0  0  0  0  0  0  0
   43.6890   36.4520   45.2360 H   0  0  0  0  0  0  0  0  0  0  0  0
   46.5760   34.7640   42.5650 H   0  0  0  0  0  0  0  0  0  0  0  0
   44.5530   33.4180   48.0490 H   0  0  0  0  0  0  0  0  0  0  0  0
   44.5470   31.6500   47.5810 H   0  0  0  0  0  0  0  0  0  0  0  0
   45.9600   31.3820   49.4280 H   0  0  0  0  0  0  0  0  0  0  0  0
   46.3410   33.1750   49.4850 H   0  0  0  0  0  0  0  0  0  0  0  0
   48.2610   32.9520   48.2680 H   0  0  0  0  0  0  0  0  0  0  0  0
   48.0230   31.1890   48.4100 H   0  0  0  0  0  0  0  0  0  0  0  0
   47.9200   32.3150   46.0030 H   0  0  0  0  0  0  0  0  0  0  0  0
   44.7570   36.7420   42.8170 N   0  0  0  0  0  0  0  0  0  0  0  0
   43.7440   36.7860   42.5380 H   0  0  0  0  0  0  0  0  0  0  0  0
   45.5350   37.3600   42.4970 H   0  0  0  0  0  0  0  0  0  0  0  0
   46.6480   30.2560   46.3990 S   0  0  0  0  0  0  0  0  0  0  0  0
   51.0180   30.2680   44.6000 H   0  0  0  0  0  0  0  0  0  0  0  0
   50.5410   29.4420   44.1950 N   0  0  0  0  0  0  0  0  0  0  0  0
   49.3890   29.7390   43.4030 C   0  0  0  0  0  0  0  0  0  0  0  0
   48.2980   30.3670   44.2050 C   0  0  0  0  0  0  0  0  0  0  0  0
   47.9490   29.4920   45.3660 C   0  0  0  0  0  0  0  0  0  0  0  0
   49.1840   29.2090   46.1890 C   0  0  0  0  0  0  0  0  0  0  0  0
   50.1890   28.5230   45.2670 C   0  0  0  0  0  0  0  0  0  0  0  0
  1 12  1  0  0  0  0
  1  6  1  0  0  0  0
  2  1  2  0  0  0  0
  3  2  1  0  0  0  0
  3  4  2  0  0  0  0
  4  5  1  0  0  0  0
  5  6  2  0  0  0  0
  5  7  1  0  0  0  0
  7 11  1  0  0  0  0
  7  8  1  0  0  0  0
  8 14  1  0  0  0  0
  8  9  1  0  0  0  0
  9 16  1  0  0  0  0
  9 17  1  0  0  0  0
 10 18  1  0  0  0  0
 10 19  1  0  0  0  0
 10  9  1  0  0  0  0
 11 20  1  6  0  0  0
 11 10  1  0  0  0  0
 13  3  1  0  0  0  0
 15  8  1  0  0  0  0
 21  2  1  0  0  0  0
 22 21  1  0  0  0  0
 23 21  1  0  0  0  0
 24 11  1  0  0  0  0
 26 25  1  0  0  0  0
 26 31  1  0  0  0  0
 27 26  1  0  0  0  0
 27 28  1  0  0  0  0
 28 29  1  0  0  0  0
 29 30  1  0  0  0  0
 29 24  1  0  0  0  0
 31 30  1  0  0  0  0
M  END
>  <minimizedAffinity>
-5.09101629

>  <minimizedRMSD>
2.30203199

$$$$
