
 OpenBabel03242521553D

 46 50  0  0  0  0  0  0  0  0999 V2000
   46.2990   32.9590   44.7220 C   0  0  0  0  0  0  0  0  0  0  0  0
   46.2260   33.4080   46.0380 C   0  0  0  0  0  0  0  0  0  0  0  0
   45.9650   32.5590   47.1200 C   0  0  0  0  0  0  0  0  0  0  0  0
   45.7680   31.2200   46.9240 C   0  0  0  0  0  0  0  0  0  0  0  0
   45.8290   30.7410   45.6030 C   0  0  0  0  0  0  0  0  0  0  0  0
   45.5740   29.4150   45.4400 C   0  0  0  0  0  0  0  0  0  0  0  0
   45.5530   28.9200   44.1300 C   0  0  0  0  0  0  0  0  0  0  0  0
   45.7920   29.8310   43.0480 C   0  0  0  0  0  0  0  0  0  0  0  0
   46.0340   31.1460   43.3780 C   0  0  0  0  0  0  0  0  0  0  0  0
   46.0880   31.6710   44.5910 C   0  0  0  0  0  0  0  0  0  0  0  0
   46.3830   34.4850   46.2120 H   0  0  0  0  0  0  0  0  0  0  0  0
   45.9360   33.0420   48.0880 H   0  0  0  0  0  0  0  0  0  0  0  0
   45.5820   30.6360   47.7930 H   0  0  0  0  0  0  0  0  0  0  0  0
   45.3950   28.7730   46.2930 H   0  0  0  0  0  0  0  0  0  0  0  0
   45.3490   27.8600   44.0830 H   0  0  0  0  0  0  0  0  0  0  0  0
   45.7150   29.1850   42.1880 H   0  0  0  0  0  0  0  0  0  0  0  0
   44.3900   31.9000   41.9030 C   0  0  0  0  0  0  0  0  0  0  0  0
   45.8010   31.5980   42.0200 C   0  0  0  0  0  0  0  0  0  0  0  0
   46.4000   31.6880   40.8360 C   0  0  0  0  0  0  0  0  0  0  0  0
   45.7860   32.0160   39.6440 C   0  0  0  0  0  0  0  0  0  0  0  0
   44.4500   32.2930   39.5590 C   0  0  0  0  0  0  0  0  0  0  0  0
   43.7490   32.2260   40.7290 C   0  0  0  0  0  0  0  0  0  0  0  0
   47.4620   31.4480   41.0220 H   0  0  0  0  0  0  0  0  0  0  0  0
   46.5100   32.0190   38.8200 H   0  0  0  0  0  0  0  0  0  0  0  0
   44.1870   32.5190   38.5520 H   0  0  0  0  0  0  0  0  0  0  0  0
   43.4400   31.9140   42.9610 O   0  0  0  0  0  0  0  0  0  0  0  0
   42.9850   32.7970   43.1540 H   0  0  0  0  0  0  0  0  0  0  0  0
   42.4050   32.5000   40.5850 O   0  0  0  0  0  0  0  0  0  0  0  0
   40.7200   35.8380   39.4060 H   0  0  0  0  0  0  0  0  0  0  0  0
   40.1110   35.7500   40.2580 N   0  0  0  0  0  0  0  0  0  0  0  0
   39.3780   34.5150   40.2100 C   0  0  0  0  0  0  0  0  0  0  0  0
   40.2370   33.3550   40.6210 C   0  0  0  0  0  0  0  0  0  0  0  0
   41.7200   33.6350   40.3140 C   0  0  0  0  0  0  0  0  0  0  0  0
   42.1820   34.8670   41.0590 C   0  0  0  0  0  0  0  0  0  0  0  0
   41.0050   35.7330   41.4110 C   0  0  0  0  0  0  0  0  0  0  0  0
   46.9860   35.3940   41.9780 C   0  0  0  0  0  0  0  0  0  0  0  0
   48.3960   35.3250   41.9410 C   0  0  0  0  0  0  0  0  0  0  0  0
   48.9870   34.4460   42.8250 C   0  0  0  0  0  0  0  0  0  0  0  0
   48.1480   33.7730   43.6070 N   0  0  0  0  0  0  0  0  0  0  0  0
   46.8220   33.8140   43.6690 C   0  0  0  0  0  0  0  0  0  0  0  0
   46.2790   34.6440   42.8280 N   0  0  0  0  0  0  0  0  0  0  0  0
   46.5560   36.0910   41.2730 H   0  0  0  0  0  0  0  0  0  0  0  0
   48.9890   35.9170   41.2710 H   0  0  0  0  0  0  0  0  0  0  0  0
   50.3880   34.2310   42.8530 N   0  0  0  0  0  0  0  0  0  0  0  0
   50.6670   34.8430   43.6670 H   0  0  0  0  0  0  0  0  0  0  0  0
   50.9530   33.6200   42.2170 H   0  0  0  0  0  0  0  0  0  0  0  0
  1  2  1  0  0  0  0
  2 11  1  0  0  0  0
  2  3  2  0  0  0  0
  3 12  1  0  0  0  0
  4  3  1  0  0  0  0
  4 13  1  0  0  0  0
  5  4  2  0  0  0  0
  6  5  1  0  0  0  0
  6 14  1  0  0  0  0
  7  6  2  0  0  0  0
  8  9  2  0  0  0  0
  8  7  1  0  0  0  0
  9 10  1  0  0  0  0
 10  1  2  0  0  0  0
 10  5  1  0  0  0  0
 15  7  1  0  0  0  0
 16  8  1  0  0  0  0
 17 18  1  0  0  0  0
 17 26  1  0  0  0  0
 18  9  1  0  0  0  0
 19 23  1  0  0  0  0
 19 18  2  0  0  0  0
 20 19  1  0  0  0  0
 21 20  2  0  0  0  0
 21 22  1  0  0  0  0
 22 17  2  0  0  0  0
 24 20  1  0  0  0  0
 25 21  1  0  0  0  0
 26 27  1  0  0  0  0
 28 22  1  0  0  0  0
 29 30  1  0  0  0  0
 30 35  1  0  0  0  0
 31 30  1  0  0  0  0
 31 32  1  0  0  0  0
 33 28  1  0  0  0  0
 33 32  1  0  0  0  0
 33 34  1  0  0  0  0
 34 35  1  0  0  0  0
 36 41  1  0  0  0  0
 37 36  2  0  0  0  0
 37 38  1  0  0  0  0
 38 44  1  0  0  0  0
 38 39  2  0  0  0  0
 39 40  1  0  0  0  0
 40  1  1  0  0  0  0
 41 40  2  0  0  0  0
 42 36  1  0  0  0  0
 43 37  1  0  0  0  0
 44 45  1  0  0  0  0
 46 44  1  0  0  0  0
M  END
>  <minimizedAffinity>
-6.46599579

>  <minimizedRMSD>
3.53111696

$$$$
