REMARK  Name = 
REMARK  3 active torsions:
REMARK  status: ('A' for Active; 'I' for Inactive)
REMARK    1  A    between atoms: C_2  and  N_12
REMARK    2  A    between atoms: C_11  and  S_13
REMARK    3  A    between atoms: S_13  and  C_29
REMARK                            x       y       z     vdW  Elec       q    Type
REMARK                         _______ _______ _______ _____ _____    ______ ____
ROOT
ATOM      1  C   UNL     1      44.477  35.752  45.015  0.00  0.00    +0.000 A 
ATOM      2  C   UNL     1      45.118  35.714  43.748  0.00  0.00    +0.000 A 
ATOM      3  C   UNL     1      46.023  34.706  43.479  0.00  0.00    +0.000 A 
ATOM      4  N   UNL     1      46.224  33.818  44.479  0.00  0.00    +0.000 NA
ATOM      5  C   UNL     1      45.624  33.855  45.663  0.00  0.00    +0.000 A 
ATOM      6  N   UNL     1      44.753  34.815  45.938  0.00  0.00    +0.000 NA
ATOM      7  N   UNL     1      45.946  32.845  46.601  0.00  0.00    +0.000 N 
ATOM      8  C   UNL     1      45.163  32.562  47.808  0.00  0.00    +0.000 C 
ATOM      9  C   UNL     1      46.252  32.244  48.814  0.00  0.00    +0.000 C 
ATOM     10  C   UNL     1      47.523  32.054  48.040  0.00  0.00    +0.000 C 
ATOM     11  C   UNL     1      47.025  31.902  46.628  0.00  0.00    +0.000 C 
ATOM     12  H   UNL     1      43.761  36.517  45.278  0.00  0.00    +0.000 HD
ATOM     13  H   UNL     1      46.488  34.700  42.525  0.00  0.00    +0.000 HD
ATOM     14  H   UNL     1      44.584  33.458  48.076  0.00  0.00    +0.000 HD
ATOM     15  H   UNL     1      44.488  31.690  47.616  0.00  0.00    +0.000 HD
ATOM     16  H   UNL     1      45.947  31.368  49.418  0.00  0.00    +0.000 HD
ATOM     17  H   UNL     1      46.405  33.143  49.456  0.00  0.00    +0.000 HD
ATOM     18  H   UNL     1      48.274  32.835  48.180  0.00  0.00    +0.000 HD
ATOM     19  H   UNL     1      47.966  31.084  48.337  0.00  0.00    +0.000 HD
ATOM     20  H   UNL     1      47.835  32.206  45.929  0.00  0.00    +0.000 HD
ENDROOT
BRANCH   2  21
ATOM     21  N   UNL     1      44.763  36.754  42.825  0.00  0.00    +0.000 N 
ATOM     22  H   UNL     1      43.744  36.840  42.578  0.00  0.00    +0.000 HD
ATOM     23  H   UNL     1      45.556  37.338  42.478  0.00  0.00    +0.000 HD
ENDBRANCH   2  21
BRANCH  11  24
ATOM     24  S   UNL     1      46.490  30.204  46.374  0.00  0.00    +0.000 S 
BRANCH  24  29
ATOM     25  H   UNL     1      44.800  32.190  42.433  0.00  0.00    +0.000 HD
ATOM     26  N   UNL     1      44.786  31.166  42.270  0.00  0.00    +0.000 NA
ATOM     27  C   UNL     1      43.957  30.424  43.167  0.00  0.00    +0.000 C 
ATOM     28  C   UNL     1      44.434  30.508  44.579  0.00  0.00    +0.000 C 
ATOM     29  C   UNL     1      45.859  30.066  44.664  0.00  0.00    +0.000 C 
ATOM     30  C   UNL     1      46.709  30.879  43.715  0.00  0.00    +0.000 C 
ATOM     31  C   UNL     1      46.150  30.661  42.312  0.00  0.00    +0.000 C 
ENDBRANCH  24  29
ENDBRANCH  11  24
TORSDOF 3
