
 OpenBabel03242520483D

 17 18  0  0  0  0  0  0  0  0999 V2000
   44.6570   36.0030   44.3500 C   0  0  0  0  0  0  0  0  0  0  0  0
   45.0980   35.9190   43.0180 C   0  0  0  0  0  0  0  0  0  0  0  0
   45.8530   34.8180   42.6260 C   0  0  0  0  0  0  0  0  0  0  0  0
   46.1300   33.8650   43.5670 N   0  0  0  0  0  0  0  0  0  0  0  0
   45.6950   33.9710   44.8370 C   0  0  0  0  0  0  0  0  0  0  0  0
   44.9640   35.0350   45.2190 N   0  0  0  0  0  0  0  0  0  0  0  0
   44.0720   36.8930   44.5830 H   0  0  0  0  0  0  0  0  0  0  0  0
   44.9060   36.6440   42.2390 H   0  0  0  0  0  0  0  0  0  0  0  0
   45.9370   33.1860   45.5610 H   0  0  0  0  0  0  0  0  0  0  0  0
   46.3460   34.6130   41.3510 O   0  0  0  0  0  0  0  0  0  0  0  0
   50.5030   34.0140   43.6870 H   0  0  0  0  0  0  0  0  0  0  0  0
   49.5790   34.1580   43.1900 N   0  0  0  0  0  0  0  0  0  0  0  0
   49.7680   35.3210   42.3610 C   0  0  0  0  0  0  0  0  0  0  0  0
   48.4760   35.6300   41.6850 C   0  0  0  0  0  0  0  0  0  0  0  0
   47.7520   34.4810   41.0930 C   0  0  0  0  0  0  0  0  0  0  0  0
   48.2370   33.1220   41.4060 C   0  0  0  0  0  0  0  0  0  0  0  0
   49.4180   33.0310   42.3170 C   0  0  0  0  0  0  0  0  0  0  0  0
  1  7  1  0  0  0  0
  1  6  1  0  0  0  0
  2  1  2  0  0  0  0
  3  2  1  0  0  0  0
  3  4  2  0  0  0  0
  4  5  1  0  0  0  0
  5  6  2  0  0  0  0
  5  9  1  0  0  0  0
  8  2  1  0  0  0  0
 10  3  1  0  0  0  0
 12 11  1  0  0  0  0
 13 12  1  0  0  0  0
 14 13  1  0  0  0  0
 15 10  1  0  0  0  0
 15 16  1  0  0  0  0
 15 14  1  0  0  0  0
 16 17  1  0  0  0  0
 17 12  1  0  0  0  0
M  END
>  <minimizedAffinity>
-4.47696877

>  <minimizedRMSD>
1.12380636

$$$$
