
 OpenBabel03252506353D

 31 33  0  0  1  0  0  0  0  0999 V2000
   40.7770   24.7710   42.9860 C   0  0  0  0  0  0  0  0  0  0  0  0
   41.9890   25.5080   43.0500 C   0  0  0  0  0  0  0  0  0  0  0  0
   42.0060   26.8200   42.6170 C   0  0  0  0  0  0  0  0  0  0  0  0
   40.8280   27.2990   42.1560 N   0  0  0  0  0  0  0  0  0  0  0  0
   39.6960   26.6080   42.0970 C   0  0  0  0  0  0  0  0  0  0  0  0
   39.6620   25.3480   42.5080 N   0  0  0  0  0  0  0  0  0  0  0  0
   38.5470   27.2600   41.5880 N   0  0  0  0  0  0  0  0  0  0  0  0
   37.1780   26.7570   41.7410 C   0  0  0  0  0  0  0  0  0  0  0  0
   36.5680   27.1120   40.3990 C   0  0  0  0  0  0  0  0  0  0  0  0
   37.5150   28.0590   39.7220 C   0  0  0  0  0  0  0  0  0  0  0  0
   38.4140   28.4830   40.8520 C   0  0  1  0  0  0  0  0  0  0  0  0
   40.7080   23.7430   43.3110 H   0  0  0  0  0  0  0  0  0  0  0  0
   42.9240   27.3490   42.6760 H   0  0  0  0  0  0  0  0  0  0  0  0
   37.2140   25.6730   41.9190 H   0  0  0  0  0  0  0  0  0  0  0  0
   36.6820   27.2880   42.5920 H   0  0  0  0  0  0  0  0  0  0  0  0
   35.5490   27.5150   40.5560 H   0  0  0  0  0  0  0  0  0  0  0  0
   36.5440   26.1890   39.7740 H   0  0  0  0  0  0  0  0  0  0  0  0
   38.0330   27.6540   38.8500 H   0  0  0  0  0  0  0  0  0  0  0  0
   36.9420   28.9520   39.4070 H   0  0  0  0  0  0  0  0  0  0  0  0
   39.3930   28.8000   40.4290 H   0  0  0  0  0  0  0  0  0  0  0  0
   43.1300   24.8120   43.5740 N   0  0  0  0  0  0  0  0  0  0  0  0
   43.0370   24.4140   44.5440 H   0  0  0  0  0  0  0  0  0  0  0  0
   43.9570   24.7620   42.9390 H   0  0  0  0  0  0  0  0  0  0  0  0
   37.6060   29.7890   41.7870 S   0  0  0  0  0  0  0  0  0  0  0  0
   38.3410   32.4750   37.9680 H   0  0  0  0  0  0  0  0  0  0  0  0
   38.5800   33.0640   38.7870 N   0  0  0  0  0  0  0  0  0  0  0  0
   39.6530   32.5720   39.5920 C   0  0  0  0  0  2  0  0  0  0  0  0
   39.3250   31.2650   40.2340 C   0  0  0  0  0  2  0  0  0  0  0  0
   38.0640   31.3870   41.0260 C   0  0  0  0  0  3  0  0  0  0  0  0
   36.9470   31.8950   40.1440 C   0  0  0  0  0  2  0  0  0  0  0  0
   37.3890   33.2520   39.6010 C   0  0  0  0  0  2  0  0  0  0  0  0
  1  2  1  0  0  0  0
  1 12  1  0  0  0  0
  2 21  1  0  0  0  0
  3 13  1  0  0  0  0
  3  2  2  0  0  0  0
  4  3  1  0  0  0  0
  5  4  2  0  0  0  0
  5  6  1  0  0  0  0
  6  1  2  0  0  0  0
  7  8  1  0  0  0  0
  7  5  1  0  0  0  0
  8 14  1  0  0  0  0
  8 15  1  0  0  0  0
  9 16  1  0  0  0  0
  9  8  1  0  0  0  0
 10  9  1  0  0  0  0
 10 11  1  0  0  0  0
 11 20  1  6  0  0  0
 11  7  1  0  0  0  0
 11 24  1  0  0  0  0
 17  9  1  0  0  0  0
 18 10  1  0  0  0  0
 19 10  1  0  0  0  0
 21 22  1  0  0  0  0
 23 21  1  0  0  0  0
 25 26  1  0  0  0  0
 26 27  1  0  0  0  0
 26 31  1  0  0  0  0
 27 28  1  0  0  0  0
 28 29  1  0  0  0  0
 29 24  1  0  0  0  0
 30 29  1  0  0  0  0
 31 30  1  0  0  0  0
M  END
>  <minimizedAffinity>
-5.07756233

$$$$

 OpenBabel03252506353D

 31 33  0  0  1  0  0  0  0  0999 V2000
   35.8400   26.5160   38.4820 C   0  0  0  0  0  0  0  0  0  0  0  0
   35.0710   27.5980   37.9780 C   0  0  0  0  0  0  0  0  0  0  0  0
   35.1120   28.8160   38.6280 C   0  0  0  0  0  0  0  0  0  0  0  0
   35.9050   28.8690   39.7220 N   0  0  0  0  0  0  0  0  0  0  0  0
   36.6240   27.8560   40.1920 C   0  0  0  0  0  0  0  0  0  0  0  0
   36.5970   26.6810   39.5810 N   0  0  0  0  0  0  0  0  0  0  0  0
   37.4060   28.0800   41.3500 N   0  0  0  0  0  0  0  0  0  0  0  0
   38.4740   27.1850   41.8080 C   0  0  0  0  0  0  0  0  0  0  0  0
   38.2960   27.2380   43.3130 C   0  0  0  0  0  0  0  0  0  0  0  0
   37.3750   28.3850   43.6060 C   0  0  0  0  0  0  0  0  0  0  0  0
   37.3780   29.1460   42.3080 C   0  0  1  0  0  0  0  0  0  0  0  0
   35.8460   25.5430   38.0130 H   0  0  0  0  0  0  0  0  0  0  0  0
   34.5280   29.6090   38.2320 H   0  0  0  0  0  0  0  0  0  0  0  0
   38.3010   26.1810   41.3940 H   0  0  0  0  0  0  0  0  0  0  0  0
   39.4640   27.5910   41.4790 H   0  0  0  0  0  0  0  0  0  0  0  0
   39.2890   27.3120   43.7960 H   0  0  0  0  0  0  0  0  0  0  0  0
   37.7600   26.3140   43.6320 H   0  0  0  0  0  0  0  0  0  0  0  0
   36.3840   28.1040   43.9710 H   0  0  0  0  0  0  0  0  0  0  0  0
   37.8580   29.0310   44.3650 H   0  0  0  0  0  0  0  0  0  0  0  0
   36.4310   29.7240   42.2300 H   0  0  0  0  0  0  0  0  0  0  0  0
   34.2940   27.3310   36.8020 N   0  0  0  0  0  0  0  0  0  0  0  0
   34.8180   26.9920   35.9550 H   0  0  0  0  0  0  0  0  0  0  0  0
   33.2670   27.5000   36.8930 H   0  0  0  0  0  0  0  0  0  0  0  0
   38.8380   30.1940   42.2460 S   0  0  0  0  0  0  0  0  0  0  0  0
   38.0670   34.4350   40.3080 H   0  0  0  0  0  0  0  0  0  0  0  0
   38.1870   33.7740   39.5190 N   0  0  0  0  0  0  0  0  0  0  0  0
   37.2210   32.7220   39.4610 C   0  0  0  0  0  2  0  0  0  0  0  0
   37.3030   31.8140   40.6440 C   0  0  0  0  0  2  0  0  0  0  0  0
   38.6900   31.2730   40.7770 C   0  0  0  0  0  3  0  0  0  0  0  0
   39.6830   32.4090   40.8500 C   0  0  0  0  0  2  0  0  0  0  0  0
   39.5310   33.2190   39.5650 C   0  0  0  0  0  2  0  0  0  0  0  0
  1  6  1  0  0  0  0
  2  1  2  0  0  0  0
  2  3  1  0  0  0  0
  3  4  2  0  0  0  0
  4  5  1  0  0  0  0
  5  7  1  0  0  0  0
  6  5  2  0  0  0  0
  7  8  1  0  0  0  0
  7 11  1  0  0  0  0
  8  9  1  0  0  0  0
  9 10  1  0  0  0  0
  9 17  1  0  0  0  0
  9 16  1  0  0  0  0
 10 18  1  0  0  0  0
 10 19  1  0  0  0  0
 11 20  1  6  0  0  0
 11 10  1  0  0  0  0
 12  1  1  0  0  0  0
 13  3  1  0  0  0  0
 14  8  1  0  0  0  0
 15  8  1  0  0  0  0
 21 23  1  0  0  0  0
 21  2  1  0  0  0  0
 22 21  1  0  0  0  0
 24 11  1  0  0  0  0
 26 31  1  0  0  0  0
 26 25  1  0  0  0  0
 27 26  1  0  0  0  0
 27 28  1  0  0  0  0
 28 29  1  0  0  0  0
 29 30  1  0  0  0  0
 29 24  1  0  0  0  0
 31 30  1  0  0  0  0
M  END
>  <minimizedAffinity>
-4.98775721

$$$$

 OpenBabel03252506353D

 31 33  0  0  1  0  0  0  0  0999 V2000
   37.8820   27.3920   36.5630 C   0  0  0  0  0  0  0  0  0  0  0  0
   37.3360   28.5850   36.0170 C   0  0  0  0  0  0  0  0  0  0  0  0
   36.9270   29.5920   36.8690 C   0  0  0  0  0  0  0  0  0  0  0  0
   37.0870   29.3430   38.1890 N   0  0  0  0  0  0  0  0  0  0  0  0
   37.5980   28.2280   38.6980 C   0  0  0  0  0  0  0  0  0  0  0  0
   37.9960   27.2520   37.8950 N   0  0  0  0  0  0  0  0  0  0  0  0
   37.6990   28.1280   40.1060 N   0  0  0  0  0  0  0  0  0  0  0  0
   38.5070   27.1230   40.8040 C   0  0  0  0  0  0  0  0  0  0  0  0
   37.6240   26.7880   41.9910 C   0  0  0  0  0  0  0  0  0  0  0  0
   36.5560   27.8400   42.0540 C   0  0  0  0  0  0  0  0  0  0  0  0
   37.0980   28.9100   41.1460 C   0  0  1  0  0  0  0  0  0  0  0  0
   38.2190   26.5740   35.9440 H   0  0  0  0  0  0  0  0  0  0  0  0
   36.5220   30.4720   36.4360 H   0  0  0  0  0  0  0  0  0  0  0  0
   38.6640   26.2640   40.1350 H   0  0  0  0  0  0  0  0  0  0  0  0
   39.4820   27.5790   41.1100 H   0  0  0  0  0  0  0  0  0  0  0  0
   38.2490   26.7140   42.9020 H   0  0  0  0  0  0  0  0  0  0  0  0
   37.1050   25.8240   41.7770 H   0  0  0  0  0  0  0  0  0  0  0  0
   35.5490   27.4960   41.8060 H   0  0  0  0  0  0  0  0  0  0  0  0
   36.5420   28.2570   43.0790 H   0  0  0  0  0  0  0  0  0  0  0  0
   36.2480   29.5090   40.7510 H   0  0  0  0  0  0  0  0  0  0  0  0
   37.2530   28.6480   34.5860 N   0  0  0  0  0  0  0  0  0  0  0  0
   38.1520   28.5280   34.0540 H   0  0  0  0  0  0  0  0  0  0  0  0
   36.2970   28.8090   34.1970 H   0  0  0  0  0  0  0  0  0  0  0  0
   38.2840   29.9080   42.0580 S   0  0  0  0  0  0  0  0  0  0  0  0
   38.1030   32.3460   38.0140 H   0  0  0  0  0  0  0  0  0  0  0  0
   38.5520   32.9700   38.7080 N   0  0  0  0  0  0  0  0  0  0  0  0
   39.7810   32.4840   39.2510 C   0  0  0  0  0  2  0  0  0  0  0  0
   39.5940   31.2280   40.0360 C   0  0  0  0  0  2  0  0  0  0  0  0
   38.5740   31.4420   41.1070 C   0  0  0  0  0  3  0  0  0  0  0  0
   37.2840   31.9420   40.4990 C   0  0  0  0  0  2  0  0  0  0  0  0
   37.6060   33.2480   39.7780 C   0  0  0  0  0  2  0  0  0  0  0  0
  1  6  1  0  0  0  0
  2  1  2  0  0  0  0
  2  3  1  0  0  0  0
  3  4  2  0  0  0  0
  4  5  1  0  0  0  0
  5  7  1  0  0  0  0
  6  5  2  0  0  0  0
  7  8  1  0  0  0  0
  7 11  1  0  0  0  0
  8 15  1  0  0  0  0
  8  9  1  0  0  0  0
  9 10  1  0  0  0  0
  9 16  1  0  0  0  0
 10 19  1  0  0  0  0
 11 20  1  6  0  0  0
 11 10  1  0  0  0  0
 11 24  1  0  0  0  0
 12  1  1  0  0  0  0
 13  3  1  0  0  0  0
 14  8  1  0  0  0  0
 17  9  1  0  0  0  0
 18 10  1  0  0  0  0
 21  2  1  0  0  0  0
 22 21  1  0  0  0  0
 23 21  1  0  0  0  0
 25 26  1  0  0  0  0
 26 27  1  0  0  0  0
 26 31  1  0  0  0  0
 27 28  1  0  0  0  0
 28 29  1  0  0  0  0
 29 24  1  0  0  0  0
 30 29  1  0  0  0  0
 31 30  1  0  0  0  0
M  END
>  <minimizedAffinity>
-4.88404226

$$$$

 OpenBabel03252506353D

 31 33  0  0  1  0  0  0  0  0999 V2000
   42.6050   26.8650   43.2770 C   0  0  0  0  0  0  0  0  0  0  0  0
   42.6070   25.4440   43.2710 C   0  0  0  0  0  0  0  0  0  0  0  0
   41.4230   24.7680   43.0510 C   0  0  0  0  0  0  0  0  0  0  0  0
   40.3330   25.5440   42.8550 N   0  0  0  0  0  0  0  0  0  0  0  0
   40.3330   26.8720   42.8600 C   0  0  0  0  0  0  0  0  0  0  0  0
   41.4600   27.5370   43.0700 N   0  0  0  0  0  0  0  0  0  0  0  0
   39.1030   27.5350   42.6360 N   0  0  0  0  0  0  0  0  0  0  0  0
   38.9830   28.9590   42.3050 C   0  0  0  0  0  0  0  0  0  0  0  0
   37.7400   29.3510   43.0800 C   0  0  0  0  0  0  0  0  0  0  0  0
   37.0750   28.0790   43.5180 C   0  0  0  0  0  0  0  0  0  0  0  0
   37.7560   27.0450   42.6620 C   0  0  1  0  0  0  0  0  0  0  0  0
   43.5010   27.4440   43.4430 H   0  0  0  0  0  0  0  0  0  0  0  0
   41.4520   23.7070   43.0510 H   0  0  0  0  0  0  0  0  0  0  0  0
   39.8850   29.4830   42.6530 H   0  0  0  0  0  0  0  0  0  0  0  0
   38.8530   29.0730   41.1990 H   0  0  0  0  0  0  0  0  0  0  0  0
   37.1080   30.0060   42.4490 H   0  0  0  0  0  0  0  0  0  0  0  0
   38.0610   29.8760   44.0100 H   0  0  0  0  0  0  0  0  0  0  0  0
   37.1110   27.8820   44.5920 H   0  0  0  0  0  0  0  0  0  0  0  0
   36.0150   28.1180   43.2030 H   0  0  0  0  0  0  0  0  0  0  0  0
   37.7020   26.0620   43.1800 H   0  0  0  0  0  0  0  0  0  0  0  0
   43.8740   24.8100   43.5010 N   0  0  0  0  0  0  0  0  0  0  0  0
   44.6530   25.0560   42.8380 H   0  0  0  0  0  0  0  0  0  0  0  0
   43.9090   24.1560   44.3130 H   0  0  0  0  0  0  0  0  0  0  0  0
   36.9780   27.0190   41.0410 S   0  0  0  0  0  0  0  0  0  0  0  0
   35.6920   22.6380   39.8250 H   0  0  0  0  0  0  0  0  0  0  0  0
   36.6840   22.7370   39.5420 N   0  0  0  0  0  0  0  0  0  0  0  0
   37.5950   22.9960   40.6130 C   0  0  0  0  0  2  0  0  0  0  0  0
   37.3270   24.3050   41.2780 C   0  0  0  0  0  2  0  0  0  0  0  0
   37.3510   25.4060   40.2670 C   0  0  0  0  0  3  0  0  0  0  0  0
   36.3690   25.1090   39.1580 C   0  0  0  0  0  2  0  0  0  0  0  0
   36.7870   23.7810   38.5330 C   0  0  0  0  0  2  0  0  0  0  0  0
  1 12  1  0  0  0  0
  2  1  1  0  0  0  0
  2 21  1  0  0  0  0
  3  2  2  0  0  0  0
  4  5  2  0  0  0  0
  4  3  1  0  0  0  0
  5  6  1  0  0  0  0
  6  1  2  0  0  0  0
  7 11  1  0  0  0  0
  7  5  1  0  0  0  0
  8  7  1  0  0  0  0
  8 14  1  0  0  0  0
  8  9  1  0  0  0  0
  9 10  1  0  0  0  0
  9 17  1  0  0  0  0
 10 18  1  0  0  0  0
 11 20  1  1  0  0  0
 11 10  1  0  0  0  0
 13  3  1  0  0  0  0
 15  8  1  0  0  0  0
 16  9  1  0  0  0  0
 19 10  1  0  0  0  0
 21 23  1  0  0  0  0
 22 21  1  0  0  0  0
 24 11  1  0  0  0  0
 26 25  1  0  0  0  0
 26 27  1  0  0  0  0
 27 28  1  0  0  0  0
 29 24  1  0  0  0  0
 29 28  1  0  0  0  0
 30 29  1  0  0  0  0
 31 30  1  0  0  0  0
 31 26  1  0  0  0  0
M  END
>  <minimizedAffinity>
-4.7725563

$$$$

 OpenBabel03252506353D

 31 33  0  0  1  0  0  0  0  0999 V2000
   38.2480   26.5570   35.9690 C   0  0  0  0  0  0  0  0  0  0  0  0
   37.5170   27.7670   36.1050 C   0  0  0  0  0  0  0  0  0  0  0  0
   36.8040   27.9990   37.2660 C   0  0  0  0  0  0  0  0  0  0  0  0
   36.8680   27.0210   38.1970 N   0  0  0  0  0  0  0  0  0  0  0  0
   37.5520   25.8900   38.0680 C   0  0  0  0  0  0  0  0  0  0  0  0
   38.2410   25.6510   36.9620 N   0  0  0  0  0  0  0  0  0  0  0  0
   37.5150   24.9680   39.1410 N   0  0  0  0  0  0  0  0  0  0  0  0
   38.4420   23.8410   39.2910 C   0  0  0  0  0  0  0  0  0  0  0  0
   37.5280   22.7620   39.8380 C   0  0  0  0  0  0  0  0  0  0  0  0
   36.2550   23.4350   40.2570 C   0  0  0  0  0  0  0  0  0  0  0  0
   36.6460   24.8880   40.2780 C   0  0  1  0  0  0  0  0  0  0  0  0
   38.8220   26.3250   35.0840 H   0  0  0  0  0  0  0  0  0  0  0  0
   36.2670   28.9110   37.3420 H   0  0  0  0  0  0  0  0  0  0  0  0
   38.8570   23.5870   38.3050 H   0  0  0  0  0  0  0  0  0  0  0  0
   39.2530   24.1210   40.0090 H   0  0  0  0  0  0  0  0  0  0  0  0
   38.0490   22.2190   40.6500 H   0  0  0  0  0  0  0  0  0  0  0  0
   37.2610   22.0750   39.0000 H   0  0  0  0  0  0  0  0  0  0  0  0
   35.3820   23.2040   39.6420 H   0  0  0  0  0  0  0  0  0  0  0  0
   36.0360   23.1400   41.3020 H   0  0  0  0  0  0  0  0  0  0  0  0
   35.7340   25.5060   40.1240 H   0  0  0  0  0  0  0  0  0  0  0  0
   37.5810   28.6760   34.9970 N   0  0  0  0  0  0  0  0  0  0  0  0
   38.5380   29.0030   34.7070 H   0  0  0  0  0  0  0  0  0  0  0  0
   36.6620   28.9340   34.5720 H   0  0  0  0  0  0  0  0  0  0  0  0
   37.4760   25.2500   41.8320 S   0  0  0  0  0  0  0  0  0  0  0  0
   36.2070   29.4820   43.5080 H   0  0  0  0  0  0  0  0  0  0  0  0
   36.9880   29.6550   42.8480 N   0  0  0  0  0  0  0  0  0  0  0  0
   36.7350   29.2610   41.4980 C   0  0  0  0  0  2  0  0  0  0  0  0
   36.5350   27.7880   41.3660 C   0  0  0  0  0  2  0  0  0  0  0  0
   37.7110   27.0600   41.9330 C   0  0  0  0  0  3  0  0  0  0  0  0
   37.9420   27.4870   43.3640 C   0  0  0  0  0  2  0  0  0  0  0  0
   38.1850   28.9940   43.3470 C   0  0  0  0  0  2  0  0  0  0  0  0
  1  2  2  0  0  0  0
  1  6  1  0  0  0  0
  2  3  1  0  0  0  0
  3 13  1  0  0  0  0
  3  4  2  0  0  0  0
  5  4  1  0  0  0  0
  5  7  1  0  0  0  0
  6  5  2  0  0  0  0
  7  8  1  0  0  0  0
  7 11  1  0  0  0  0
  8  9  1  0  0  0  0
  8 15  1  0  0  0  0
  9 10  1  0  0  0  0
  9 16  1  0  0  0  0
 10 11  1  0  0  0  0
 10 19  1  0  0  0  0
 11 20  1  6  0  0  0
 11 24  1  0  0  0  0
 12  1  1  0  0  0  0
 14  8  1  0  0  0  0
 17  9  1  0  0  0  0
 18 10  1  0  0  0  0
 21  2  1  0  0  0  0
 22 21  1  0  0  0  0
 23 21  1  0  0  0  0
 24 29  1  0  0  0  0
 26 31  1  0  0  0  0
 26 25  1  0  0  0  0
 27 26  1  0  0  0  0
 28 27  1  0  0  0  0
 28 29  1  0  0  0  0
 29 30  1  0  0  0  0
 31 30  1  0  0  0  0
M  END
>  <minimizedAffinity>
-4.76284981

$$$$

 OpenBabel03252506353D

 31 33  0  0  1  0  0  0  0  0999 V2000
   36.7310   29.6090   36.5600 C   0  0  0  0  0  0  0  0  0  0  0  0
   37.7060   28.5980   36.3480 C   0  0  0  0  0  0  0  0  0  0  0  0
   38.8540   28.5950   37.1150 C   0  0  0  0  0  0  0  0  0  0  0  0
   38.9500   29.5880   38.0280 N   0  0  0  0  0  0  0  0  0  0  0  0
   38.0380   30.5330   38.2250 C   0  0  0  0  0  0  0  0  0  0  0  0
   36.9310   30.5510   37.4980 N   0  0  0  0  0  0  0  0  0  0  0  0
   38.2930   31.5010   39.2260 N   0  0  0  0  0  0  0  0  0  0  0  0
   37.2770   32.4050   39.7750 C   0  0  0  0  0  0  0  0  0  0  0  0
   38.0670   33.6870   39.9470 C   0  0  0  0  0  0  0  0  0  0  0  0
   39.5170   33.3340   39.7960 C   0  0  0  0  0  0  0  0  0  0  0  0
   39.5010   31.8340   39.9200 C   0  0  1  0  0  0  0  0  0  0  0  0
   35.8160   29.6590   35.9890 H   0  0  0  0  0  0  0  0  0  0  0  0
   39.5660   27.8280   36.9370 H   0  0  0  0  0  0  0  0  0  0  0  0
   36.4570   32.5040   39.0480 H   0  0  0  0  0  0  0  0  0  0  0  0
   36.9040   31.9960   40.7480 H   0  0  0  0  0  0  0  0  0  0  0  0
   37.8060   34.1490   40.9190 H   0  0  0  0  0  0  0  0  0  0  0  0
   37.8170   34.3660   39.0980 H   0  0  0  0  0  0  0  0  0  0  0  0
   39.9960   33.7140   38.8910 H   0  0  0  0  0  0  0  0  0  0  0  0
   40.0620   33.7300   40.6740 H   0  0  0  0  0  0  0  0  0  0  0  0
   40.3890   31.4230   39.3910 H   0  0  0  0  0  0  0  0  0  0  0  0
   37.4100   27.6350   35.3260 N   0  0  0  0  0  0  0  0  0  0  0  0
   36.5160   27.0910   35.4330 H   0  0  0  0  0  0  0  0  0  0  0  0
   38.1150   27.5600   34.5600 H   0  0  0  0  0  0  0  0  0  0  0  0
   39.4640   31.3900   41.6630 S   0  0  0  0  0  0  0  0  0  0  0  0
   37.6980   27.8030   44.1820 H   0  0  0  0  0  0  0  0  0  0  0  0
   37.8850   27.4270   43.2340 N   0  0  0  0  0  0  0  0  0  0  0  0
   39.2540   27.4720   42.8260 C   0  0  0  0  0  2  0  0  0  0  0  0
   39.7650   28.8700   42.7130 C   0  0  0  0  0  2  0  0  0  0  0  0
   38.8950   29.6580   41.7860 C   0  0  0  0  0  3  0  0  0  0  0  0
   37.4590   29.6020   42.2530 C   0  0  0  0  0  2  0  0  0  0  0  0
   37.0520   28.1310   42.2720 C   0  0  0  0  0  2  0  0  0  0  0  0
  1  6  1  0  0  0  0
  2  1  2  0  0  0  0
  2  3  1  0  0  0  0
  3  4  2  0  0  0  0
  4  5  1  0  0  0  0
  5  7  1  0  0  0  0
  6  5  2  0  0  0  0
  7  8  1  0  0  0  0
  7 11  1  0  0  0  0
  8  9  1  0  0  0  0
  8 15  1  0  0  0  0
  9 16  1  0  0  0  0
 10 11  1  0  0  0  0
 10  9  1  0  0  0  0
 10 19  1  0  0  0  0
 11 20  1  6  0  0  0
 11 24  1  0  0  0  0
 12  1  1  0  0  0  0
 13  3  1  0  0  0  0
 14  8  1  0  0  0  0
 17  9  1  0  0  0  0
 18 10  1  0  0  0  0
 21 22  1  0  0  0  0
 21  2  1  0  0  0  0
 23 21  1  0  0  0  0
 24 29  1  0  0  0  0
 26 25  1  0  0  0  0
 27 26  1  0  0  0  0
 28 27  1  0  0  0  0
 29 30  1  0  0  0  0
 29 28  1  0  0  0  0
 30 31  1  0  0  0  0
 31 26  1  0  0  0  0
M  END
>  <minimizedAffinity>
-4.74017

$$$$

 OpenBabel03252506353D

 31 33  0  0  1  0  0  0  0  0999 V2000
   38.0150   27.1280   37.2240 C   0  0  0  0  0  0  0  0  0  0  0  0
   37.7960   28.4320   36.7050 C   0  0  0  0  0  0  0  0  0  0  0  0
   37.5850   29.4800   37.5800 C   0  0  0  0  0  0  0  0  0  0  0  0
   37.6070   29.1590   38.8930 N   0  0  0  0  0  0  0  0  0  0  0  0
   37.8120   27.9400   39.3770 C   0  0  0  0  0  0  0  0  0  0  0  0
   38.0150   26.9230   38.5520 N   0  0  0  0  0  0  0  0  0  0  0  0
   37.8060   27.7740   40.7830 N   0  0  0  0  0  0  0  0  0  0  0  0
   38.3140   26.5860   41.4740 C   0  0  0  0  0  0  0  0  0  0  0  0
   37.3110   26.4330   42.6010 C   0  0  0  0  0  0  0  0  0  0  0  0
   36.5170   27.7040   42.6580 C   0  0  0  0  0  0  0  0  0  0  0  0
   37.3470   28.6440   41.8260 C   0  0  1  0  0  0  0  0  0  0  0  0
   38.1850   26.2730   36.5860 H   0  0  0  0  0  0  0  0  0  0  0  0
   37.4240   30.4440   37.1670 H   0  0  0  0  0  0  0  0  0  0  0  0
   38.3040   25.7350   40.7770 H   0  0  0  0  0  0  0  0  0  0  0  0
   39.3500   26.7880   41.8470 H   0  0  0  0  0  0  0  0  0  0  0  0
   37.8470   26.1840   43.5370 H   0  0  0  0  0  0  0  0  0  0  0  0
   36.5940   25.6260   42.3200 H   0  0  0  0  0  0  0  0  0  0  0  0
   35.4730   27.6160   42.3470 H   0  0  0  0  0  0  0  0  0  0  0  0
   36.5420   28.0800   43.6990 H   0  0  0  0  0  0  0  0  0  0  0  0
   36.6840   29.4380   41.4170 H   0  0  0  0  0  0  0  0  0  0  0  0
   37.8120   28.5580   35.2760 N   0  0  0  0  0  0  0  0  0  0  0  0
   38.6870   28.2450   34.7830 H   0  0  0  0  0  0  0  0  0  0  0  0
   36.9440   28.9520   34.8490 H   0  0  0  0  0  0  0  0  0  0  0  0
   38.6790   29.3040   42.8370 S   0  0  0  0  0  0  0  0  0  0  0  0
   40.5590   33.5580   42.0020 H   0  0  0  0  0  0  0  0  0  0  0  0
   40.7940   32.9720   41.1800 N   0  0  0  0  0  0  0  0  0  0  0  0
   39.6690   32.4780   40.4500 C   0  0  0  0  0  2  0  0  0  0  0  0
   38.8290   31.5510   41.2650 C   0  0  0  0  0  2  0  0  0  0  0  0
   39.6680   30.4320   41.7930 C   0  0  0  0  0  3  0  0  0  0  0  0
   40.8380   30.9870   42.5710 C   0  0  0  0  0  2  0  0  0  0  0  0
   41.6360   31.8670   41.6120 C   0  0  0  0  0  2  0  0  0  0  0  0
  1  6  1  0  0  0  0
  2  1  2  0  0  0  0
  2  3  1  0  0  0  0
  3  4  2  0  0  0  0
  4  5  1  0  0  0  0
  5  7  1  0  0  0  0
  6  5  2  0  0  0  0
  7  8  1  0  0  0  0
  7 11  1  0  0  0  0
  8 15  1  0  0  0  0
  8  9  1  0  0  0  0
  9 10  1  0  0  0  0
  9 16  1  0  0  0  0
 10 19  1  0  0  0  0
 11 20  1  6  0  0  0
 11 10  1  0  0  0  0
 11 24  1  0  0  0  0
 12  1  1  0  0  0  0
 13  3  1  0  0  0  0
 14  8  1  0  0  0  0
 17  9  1  0  0  0  0
 18 10  1  0  0  0  0
 21  2  1  0  0  0  0
 22 21  1  0  0  0  0
 23 21  1  0  0  0  0
 26 31  1  0  0  0  0
 26 25  1  0  0  0  0
 27 26  1  0  0  0  0
 27 28  1  0  0  0  0
 28 29  1  0  0  0  0
 29 30  1  0  0  0  0
 29 24  1  0  0  0  0
 31 30  1  0  0  0  0
M  END
>  <minimizedAffinity>
-4.7365303

$$$$

 OpenBabel03252506353D

 31 33  0  0  1  0  0  0  0  0999 V2000
   37.9910   25.5090   36.2680 C   0  0  0  0  0  0  0  0  0  0  0  0
   36.7900   26.2140   35.9860 C   0  0  0  0  0  0  0  0  0  0  0  0
   35.9920   26.6330   37.0310 C   0  0  0  0  0  0  0  0  0  0  0  0
   36.4390   26.3250   38.2700 N   0  0  0  0  0  0  0  0  0  0  0  0
   37.5620   25.6660   38.5320 C   0  0  0  0  0  0  0  0  0  0  0  0
   38.3400   25.2560   37.5400 N   0  0  0  0  0  0  0  0  0  0  0  0
   37.8880   25.4250   39.8880 N   0  0  0  0  0  0  0  0  0  0  0  0
   39.2110   24.9990   40.3540 C   0  0  0  0  0  0  0  0  0  0  0  0
   38.8500   24.0250   41.4590 C   0  0  0  0  0  0  0  0  0  0  0  0
   37.3910   24.2140   41.7510 C   0  0  0  0  0  0  0  0  0  0  0  0
   37.0900   25.5240   41.0740 C   0  0  1  0  0  0  0  0  0  0  0  0
   38.6520   25.1590   35.4890 H   0  0  0  0  0  0  0  0  0  0  0  0
   35.1000   27.1580   36.7940 H   0  0  0  0  0  0  0  0  0  0  0  0
   39.7450   24.5190   39.5210 H   0  0  0  0  0  0  0  0  0  0  0  0
   39.7750   25.8890   40.7330 H   0  0  0  0  0  0  0  0  0  0  0  0
   39.5170   24.1930   42.3260 H   0  0  0  0  0  0  0  0  0  0  0  0
   38.9610   22.9900   41.0590 H   0  0  0  0  0  0  0  0  0  0  0  0
   36.7460   23.3850   41.4520 H   0  0  0  0  0  0  0  0  0  0  0  0
   37.2750   24.3740   42.8400 H   0  0  0  0  0  0  0  0  0  0  0  0
   36.0070   25.5560   40.8230 H   0  0  0  0  0  0  0  0  0  0  0  0
   36.4970   26.4400   34.5990 N   0  0  0  0  0  0  0  0  0  0  0  0
   37.2210   26.9610   34.0410 H   0  0  0  0  0  0  0  0  0  0  0  0
   35.5830   26.0620   34.2650 H   0  0  0  0  0  0  0  0  0  0  0  0
   37.5900   26.8710   42.1550 S   0  0  0  0  0  0  0  0  0  0  0  0
   35.3460   31.0290   42.0730 H   0  0  0  0  0  0  0  0  0  0  0  0
   35.8230   30.9400   41.1570 N   0  0  0  0  0  0  0  0  0  0  0  0
   35.4010   29.8290   40.3640 C   0  0  0  0  0  2  0  0  0  0  0  0
   35.7160   28.5200   41.0090 C   0  0  0  0  0  2  0  0  0  0  0  0
   37.1770   28.4430   41.3190 C   0  0  0  0  0  3  0  0  0  0  0  0
   37.5870   29.6220   42.1690 C   0  0  0  0  0  2  0  0  0  0  0  0
   37.2600   30.8840   41.3740 C   0  0  0  0  0  2  0  0  0  0  0  0
  1  6  1  0  0  0  0
  2  1  2  0  0  0  0
  2  3  1  0  0  0  0
  3  4  2  0  0  0  0
  4  5  1  0  0  0  0
  5  7  1  0  0  0  0
  6  5  2  0  0  0  0
  7  8  1  0  0  0  0
  7 11  1  0  0  0  0
  8 15  1  0  0  0  0
  8  9  1  0  0  0  0
  9 10  1  0  0  0  0
  9 16  1  0  0  0  0
 10 19  1  0  0  0  0
 11 20  1  6  0  0  0
 11 10  1  0  0  0  0
 11 24  1  0  0  0  0
 12  1  1  0  0  0  0
 13  3  1  0  0  0  0
 14  8  1  0  0  0  0
 17  9  1  0  0  0  0
 18 10  1  0  0  0  0
 21  2  1  0  0  0  0
 22 21  1  0  0  0  0
 23 21  1  0  0  0  0
 26 31  1  0  0  0  0
 26 25  1  0  0  0  0
 27 28  1  0  0  0  0
 27 26  1  0  0  0  0
 28 29  1  0  0  0  0
 29 24  1  0  0  0  0
 29 30  1  0  0  0  0
 31 30  1  0  0  0  0
M  END
>  <minimizedAffinity>
-4.73289919

$$$$

 OpenBabel03252506353D

 31 33  0  0  1  0  0  0  0  0999 V2000
   37.7190   24.6790   38.9660 C   0  0  0  0  0  0  0  0  0  0  0  0
   36.7430   25.1900   38.0700 C   0  0  0  0  0  0  0  0  0  0  0  0
   36.1500   26.4080   38.3410 C   0  0  0  0  0  0  0  0  0  0  0  0
   36.5650   27.0220   39.4720 N   0  0  0  0  0  0  0  0  0  0  0  0
   37.4780   26.5430   40.3090 C   0  0  0  0  0  0  0  0  0  0  0  0
   38.0570   25.3760   40.0640 N   0  0  0  0  0  0  0  0  0  0  0  0
   37.8020   27.3150   41.4500 N   0  0  0  0  0  0  0  0  0  0  0  0
   38.9830   27.0890   42.2890 C   0  0  0  0  0  0  0  0  0  0  0  0
   38.4320   27.3630   43.6750 C   0  0  0  0  0  0  0  0  0  0  0  0
   37.0990   28.0270   43.4950 C   0  0  0  0  0  0  0  0  0  0  0  0
   37.1300   28.4320   42.0460 C   0  0  1  0  0  0  0  0  0  0  0  0
   38.2140   23.7330   38.8030 H   0  0  0  0  0  0  0  0  0  0  0  0
   35.4230   26.7680   37.6560 H   0  0  0  0  0  0  0  0  0  0  0  0
   39.3170   26.0490   42.1620 H   0  0  0  0  0  0  0  0  0  0  0  0
   39.7880   27.8090   41.9970 H   0  0  0  0  0  0  0  0  0  0  0  0
   39.1680   27.9590   44.2490 H   0  0  0  0  0  0  0  0  0  0  0  0
   38.2330   26.3840   44.1700 H   0  0  0  0  0  0  0  0  0  0  0  0
   36.2360   27.4230   43.7840 H   0  0  0  0  0  0  0  0  0  0  0  0
   37.0930   28.9570   44.0950 H   0  0  0  0  0  0  0  0  0  0  0  0
   36.0840   28.5100   41.6750 H   0  0  0  0  0  0  0  0  0  0  0  0
   36.4440   24.3790   36.9250 N   0  0  0  0  0  0  0  0  0  0  0  0
   37.2500   24.1380   36.2930 H   0  0  0  0  0  0  0  0  0  0  0  0
   35.4440   24.0970   36.8210 H   0  0  0  0  0  0  0  0  0  0  0  0
   38.0400   29.9750   41.8870 S   0  0  0  0  0  0  0  0  0  0  0  0
   38.7300   32.4890   37.9460 H   0  0  0  0  0  0  0  0  0  0  0  0
   37.7030   32.4220   38.0700 N   0  0  0  0  0  0  0  0  0  0  0  0
   37.2020   33.0100   39.2720 C   0  0  0  0  0  2  0  0  0  0  0  0
   37.7100   32.3190   40.4940 C   0  0  0  0  0  2  0  0  0  0  0  0
   37.3880   30.8610   40.4270 C   0  0  0  0  0  3  0  0  0  0  0  0
   37.9430   30.2680   39.1530 C   0  0  0  0  0  2  0  0  0  0  0  0
   37.3050   31.0250   37.9920 C   0  0  0  0  0  2  0  0  0  0  0  0
  1  6  1  0  0  0  0
  2  3  1  0  0  0  0
  2  1  2  0  0  0  0
  3  4  2  0  0  0  0
  4  5  1  0  0  0  0
  5  7  1  0  0  0  0
  6  5  2  0  0  0  0
  7 11  1  0  0  0  0
  7  8  1  0  0  0  0
  8  9  1  0  0  0  0
  9 17  1  0  0  0  0
  9 16  1  0  0  0  0
 10  9  1  0  0  0  0
 10 18  1  0  0  0  0
 10 19  1  0  0  0  0
 11 20  1  6  0  0  0
 11 10  1  0  0  0  0
 12  1  1  0  0  0  0
 13  3  1  0  0  0  0
 14  8  1  0  0  0  0
 15  8  1  0  0  0  0
 21  2  1  0  0  0  0
 22 21  1  0  0  0  0
 23 21  1  0  0  0  0
 24 11  1  0  0  0  0
 25 26  1  0  0  0  0
 26 27  1  0  0  0  0
 27 28  1  0  0  0  0
 29 28  1  0  0  0  0
 29 24  1  0  0  0  0
 30 29  1  0  0  0  0
 31 26  1  0  0  0  0
 31 30  1  0  0  0  0
M  END
>  <minimizedAffinity>
-4.70226002

$$$$
