
 OpenBabel03252509083D

 39 43  0  0  1  0  0  0  0  0999 V2000
   47.5560   32.1010   39.2520 C   0  0  0  0  0  0  0  0  0  0  0  0
   47.1850   33.2780   38.6720 C   0  0  0  0  0  0  0  0  0  0  0  0
   47.8460   33.7030   37.5370 C   0  0  0  0  0  0  0  0  0  0  0  0
   48.8620   32.9500   37.0000 C   0  0  0  0  0  0  0  0  0  0  0  0
   49.2580   31.7440   37.5720 C   0  0  0  0  0  0  0  0  0  0  0  0
   48.5880   31.3310   38.7090 C   0  0  0  0  0  0  0  0  0  0  0  0
   47.5690   34.6450   37.0520 H   0  0  0  0  0  0  0  0  0  0  0  0
   49.3550   33.3060   36.1200 H   0  0  0  0  0  0  0  0  0  0  0  0
   50.0510   31.1270   37.1770 H   0  0  0  0  0  0  0  0  0  0  0  0
   48.8980   30.3870   39.1590 H   0  0  0  0  0  0  0  0  0  0  0  0
   45.2070   36.1700   42.4400 Cl  0  0  0  0  0  0  0  0  0  0  0  0
   45.2070   35.4490   40.8590 C   0  0  0  0  0  0  0  0  0  0  0  0
   46.2240   34.6680   40.4440 C   0  0  0  0  0  0  0  0  0  0  0  0
   46.1230   34.1370   39.1640 C   0  0  0  0  0  0  0  0  0  0  0  0
   45.0500   34.3870   38.3500 C   0  0  0  0  0  0  0  0  0  0  0  0
   44.0350   35.1760   38.7860 C   0  0  0  0  0  0  0  0  0  0  0  0
   44.1220   35.7070   40.0530 C   0  0  0  0  0  0  0  0  0  0  0  0
   45.0020   33.9590   37.3580 H   0  0  0  0  0  0  0  0  0  0  0  0
   43.1620   35.4010   38.1730 H   0  0  0  0  0  0  0  0  0  0  0  0
   43.3010   36.3410   40.3950 H   0  0  0  0  0  0  0  0  0  0  0  0
   49.2090   35.1690   42.7020 C   0  0  0  0  0  0  0  0  0  0  0  0
   48.1380   35.4220   41.8380 C   0  0  0  0  0  0  0  0  0  0  0  0
   47.3330   34.4200   41.3340 C   0  0  1  0  0  3  0  0  0  0  0  0
   47.6600   33.1650   41.7400 N   0  0  0  0  0  0  0  0  0  0  0  0
   48.6860   32.9170   42.5690 C   0  0  0  0  0  0  0  0  0  0  0  0
   49.4500   33.9080   43.0420 N   0  0  0  0  0  0  0  0  0  0  0  0
   49.8290   35.9820   43.0860 H   0  0  0  0  0  0  0  0  0  0  0  0
   47.9530   36.4490   41.5700 H   0  0  0  0  0  0  0  0  0  0  0  0
   48.8870   31.8850   42.8500 H   0  0  0  0  0  0  0  0  0  0  0  0
   46.7920   31.5040   40.6310 S   0  0  1  0  0  0  0  0  0  0  0  0
   47.6630   30.5140   41.3840 O   0  0  0  0  0  1  0  0  0  0  0  0
   46.7350   32.7380   41.5730 O   0  0  0  0  0  0  0  0  0  0  0  0
   41.4470   31.8860   41.0370 H   0  0  0  0  0  0  0  0  0  0  0  0
   42.3600   31.4270   41.0810 N   0  0  0  0  0  0  0  0  0  0  0  0
   42.9840   31.1220   39.8200 C   0  0  0  0  0  2  0  0  0  0  0  0
   44.3580   31.6670   39.8140 C   0  0  0  0  0  2  0  0  0  0  0  0
   45.2590   30.8340   40.8060 C   0  0  0  0  0  3  0  0  0  0  0  0
   44.4990   31.1350   42.0950 C   0  0  0  0  0  2  0  0  0  0  0  0
   43.3330   32.0480   41.9520 C   0  0  0  0  0  2  0  0  0  0  0  0
  1 30  1  0  0  0  0
  2 14  1  0  0  0  0
  2  1  2  0  0  0  0
  3  2  1  0  0  0  0
  4  3  2  0  0  0  0
  4  5  1  0  0  0  0
  5  6  2  0  0  0  0
  6 10  1  0  0  0  0
  6  1  1  0  0  0  0
  7  3  1  0  0  0  0
  8  4  1  0  0  0  0
  9  5  1  0  0  0  0
 12 11  1  0  0  0  0
 13 12  1  0  0  0  0
 14 13  2  0  0  0  0
 15 16  2  0  0  0  0
 15 14  1  0  0  0  0
 16 17  1  0  0  0  0
 17 20  1  0  0  0  0
 17 12  2  0  0  0  0
 18 15  1  0  0  0  0
 19 16  1  0  0  0  0
 21 26  1  0  0  0  0
 21 27  1  0  0  0  0
 22 21  2  0  0  0  0
 23 13  1  1  0  0  0
 23 24  1  0  0  0  0
 23 22  1  0  0  0  0
 24 25  1  0  0  0  0
 25 29  1  0  0  0  0
 25 26  2  0  0  0  0
 28 22  1  0  0  0  0
 30 37  1  0  0  0  0
 30 31  1  1  0  0  0
 30 32  1  0  0  0  0
 32 24  1  0  0  0  0
 33 34  1  0  0  0  0
 34 39  1  0  0  0  0
 35 34  1  0  0  0  0
 36 35  1  0  0  0  0
 36 37  1  0  0  0  0
 37 38  1  0  0  0  0
 39 38  1  0  0  0  0
M  END
>  <minimizedAffinity>
2.29235911

>  <minimizedRMSD>
1.46350384

$$$$
