
 OpenBabel03252508053D

 40 43  0  0  1  0  0  0  0  0999 V2000
   36.2350   29.7990   41.0040 C   0  0  0  0  0  0  0  0  0  0  0  0
   36.1040   30.9700   41.5050 O   0  0  0  0  0  0  0  0  0  0  0  0
   36.6040   29.4560   38.5510 C   0  0  0  0  0  0  0  0  0  0  0  0
   35.7780   29.4310   39.6570 C   0  0  0  0  0  0  0  0  0  0  0  0
   34.4590   29.0390   39.4960 C   0  0  0  0  0  0  0  0  0  0  0  0
   33.9650   28.6760   38.2560 C   0  0  0  0  0  0  0  0  0  0  0  0
   34.7730   28.6970   37.1560 C   0  0  0  0  0  0  0  0  0  0  0  0
   36.0710   29.0860   37.3310 C   0  0  0  0  0  0  0  0  0  0  0  0
   33.7460   28.9950   40.3130 H   0  0  0  0  0  0  0  0  0  0  0  0
   32.9450   28.3780   38.1550 H   0  0  0  0  0  0  0  0  0  0  0  0
   34.4220   28.4260   36.1910 H   0  0  0  0  0  0  0  0  0  0  0  0
   36.7130   29.1000   36.4460 H   0  0  0  0  0  0  0  0  0  0  0  0
   38.1830   30.0010   38.6440 S   0  0  0  0  0  0  0  0  0  0  0  0
   38.6720   30.0000   37.2350 O   0  0  0  0  0  0  0  0  0  0  0  0
   38.9620   28.9270   39.4770 O   0  0  0  0  0  0  0  0  0  0  0  0
   37.4590   34.2160   41.3300 H   0  0  0  0  0  0  0  0  0  0  0  0
   38.0920   33.8730   40.5760 N   0  0  0  0  0  0  0  0  0  0  0  0
   37.3840   33.1780   39.5330 C   0  0  0  0  0  2  0  0  0  0  0  0
   38.3910   32.5780   38.6430 C   0  0  0  0  0  2  0  0  0  0  0  0
   39.0550   31.2860   39.1460 C   0  0  0  0  0  3  0  0  0  0  0  0
   39.1650   31.6170   40.6200 C   0  0  0  0  0  2  0  0  0  0  0  0
   39.1750   33.0580   40.9970 C   0  0  0  0  0  2  0  0  0  0  0  0
   36.8440   28.7130   41.7060 C   0  0  0  0  0  0  0  0  0  0  0  0
   37.7160   29.0610   42.7740 C   0  0  0  0  0  0  0  0  0  0  0  0
   38.3000   28.0080   43.4750 C   0  0  0  0  0  0  0  0  0  0  0  0
   38.0040   26.7370   43.0980 N   0  0  0  0  0  0  0  0  0  0  0  0
   37.1560   26.4540   42.0600 C   0  0  0  0  0  0  0  0  0  0  0  0
   36.6270   27.4370   41.4260 N   0  0  0  0  0  0  0  0  0  0  0  0
   37.9880   30.0270   43.1170 H   0  0  0  0  0  0  0  0  0  0  0  0
   38.9850   28.1640   44.3110 H   0  0  0  0  0  0  0  0  0  0  0  0
   36.8820   25.0430   41.7320 C   0  0  1  0  0  0  0  0  0  0  0  0
   37.1870   24.5260   40.3500 C   0  0  0  0  0  0  0  0  0  0  0  0
   38.0940   24.2100   41.5090 C   0  0  1  0  0  0  0  0  0  0  0  0
   36.0000   24.5680   42.2020 H   0  0  0  0  0  0  0  0  0  0  0  0
   37.5260   25.2650   39.5680 H   0  0  0  0  0  0  0  0  0  0  0  0
   36.5900   23.7270   39.9020 H   0  0  0  0  0  0  0  0  0  0  0  0
   38.0350   23.1630   41.8550 H   0  0  0  0  0  0  0  0  0  0  0  0
   39.3950   24.8310   41.4040 N   0  0  0  0  0  0  0  0  0  0  0  0
   39.6230   25.2050   40.4690 H   0  0  0  0  0  0  0  0  0  0  0  0
   40.1140   24.1030   41.6540 H   0  0  0  0  0  0  0  0  0  0  0  0
  1  2  2  0  0  0  0
  1 23  1  0  0  0  0
  3 13  1  0  0  0  0
  3  4  1  0  0  0  0
  4  1  1  0  0  0  0
  5  4  2  0  0  0  0
  5  9  1  0  0  0  0
  6  5  1  0  0  0  0
  7  8  1  0  0  0  0
  7  6  2  0  0  0  0
  8  3  2  0  0  0  0
 10  6  1  0  0  0  0
 11  7  1  0  0  0  0
 12  8  1  0  0  0  0
 13 20  1  0  0  0  0
 13 15  2  0  0  0  0
 14 13  2  0  0  0  0
 17 22  1  0  0  0  0
 17 16  1  0  0  0  0
 18 17  1  0  0  0  0
 19 20  1  0  0  0  0
 19 18  1  0  0  0  0
 20 21  1  0  0  0  0
 21 22  1  0  0  0  0
 23 24  1  0  0  0  0
 24 29  1  0  0  0  0
 24 25  2  0  0  0  0
 25 30  1  0  0  0  0
 26 25  1  0  0  0  0
 27 26  2  0  0  0  0
 28 23  2  0  0  0  0
 28 27  1  0  0  0  0
 31 27  1  0  0  0  0
 31 34  1  1  0  0  0
 32 33  1  0  0  0  0
 32 31  1  0  0  0  0
 33 31  1  0  0  0  0
 33 37  1  1  0  0  0
 35 32  1  0  0  0  0
 36 32  1  0  0  0  0
 38 33  1  0  0  0  0
 38 40  1  0  0  0  0
 39 38  1  0  0  0  0
M  END
>  <minimizedAffinity>
-6.30361748

$$$$

 OpenBabel03252508053D

 40 43  0  0  1  0  0  0  0  0999 V2000
   36.4660   28.6310   41.4310 C   0  0  0  0  0  0  0  0  0  0  0  0
   36.2260   27.9380   42.4790 O   0  0  0  0  0  0  0  0  0  0  0  0
   36.1090   27.6090   39.1720 C   0  0  0  0  0  0  0  0  0  0  0  0
   35.7270   28.4860   40.1690 C   0  0  0  0  0  0  0  0  0  0  0  0
   34.5960   29.2630   39.9770 C   0  0  0  0  0  0  0  0  0  0  0  0
   33.8530   29.1730   38.8140 C   0  0  0  0  0  0  0  0  0  0  0  0
   34.2220   28.3100   37.8220 C   0  0  0  0  0  0  0  0  0  0  0  0
   35.3380   27.5510   38.0270 C   0  0  0  0  0  0  0  0  0  0  0  0
   34.2320   29.9770   40.7090 H   0  0  0  0  0  0  0  0  0  0  0  0
   32.9860   29.7820   38.6870 H   0  0  0  0  0  0  0  0  0  0  0  0
   33.6730   28.2200   36.9180 H   0  0  0  0  0  0  0  0  0  0  0  0
   35.6270   26.8610   37.2290 H   0  0  0  0  0  0  0  0  0  0  0  0
   37.5080   26.7010   39.2880 S   0  0  0  0  0  0  0  0  0  0  0  0
   38.6130   27.6610   38.9980 O   0  0  0  0  0  0  0  0  0  0  0  0
   37.4250   25.6300   38.1480 O   0  0  0  0  0  0  0  0  0  0  0  0
   37.6530   21.8660   40.7360 H   0  0  0  0  0  0  0  0  0  0  0  0
   37.8720   22.8040   41.1340 N   0  0  0  0  0  0  0  0  0  0  0  0
   36.8410   23.7730   40.8680 C   0  0  0  0  0  2  0  0  0  0  0  0
   37.3490   25.0850   41.2990 C   0  0  0  0  0  2  0  0  0  0  0  0
   38.3380   25.7740   40.3450 C   0  0  0  0  0  3  0  0  0  0  0  0
   39.1140   24.5640   39.8680 C   0  0  0  0  0  2  0  0  0  0  0  0
   39.1190   23.3650   40.7510 C   0  0  0  0  0  2  0  0  0  0  0  0
   37.4880   29.6290   41.3700 C   0  0  0  0  0  0  0  0  0  0  0  0
   38.5660   29.4840   42.2850 C   0  0  0  0  0  0  0  0  0  0  0  0
   39.5760   30.4430   42.2220 C   0  0  0  0  0  0  0  0  0  0  0  0
   39.4650   31.4390   41.3040 N   0  0  0  0  0  0  0  0  0  0  0  0
   38.4040   31.5340   40.4430 C   0  0  0  0  0  0  0  0  0  0  0  0
   37.4830   30.6410   40.5170 N   0  0  0  0  0  0  0  0  0  0  0  0
   38.7120   28.7350   43.0220 H   0  0  0  0  0  0  0  0  0  0  0  0
   40.4470   30.4260   42.8790 H   0  0  0  0  0  0  0  0  0  0  0  0
   38.3760   32.6410   39.4710 C   0  0  1  0  0  0  0  0  0  0  0  0
   37.2810   33.6740   39.5470 C   0  0  0  0  0  0  0  0  0  0  0  0
   38.6680   33.9810   40.0460 C   0  0  1  0  0  0  0  0  0  0  0  0
   38.7180   32.4290   38.4400 H   0  0  0  0  0  0  0  0  0  0  0  0
   36.4490   33.5130   40.2910 H   0  0  0  0  0  0  0  0  0  0  0  0
   36.9120   34.1730   38.6470 H   0  0  0  0  0  0  0  0  0  0  0  0
   39.2350   34.6750   39.4010 H   0  0  0  0  0  0  0  0  0  0  0  0
   38.7350   34.1600   41.4790 N   0  0  0  0  0  0  0  0  0  0  0  0
   37.8210   34.2890   41.9430 H   0  0  0  0  0  0  0  0  0  0  0  0
   39.3240   35.0130   41.6650 H   0  0  0  0  0  0  0  0  0  0  0  0
  1  2  2  0  0  0  0
  3 13  1  0  0  0  0
  3  4  1  0  0  0  0
  4  1  1  0  0  0  0
  5  4  2  0  0  0  0
  5  9  1  0  0  0  0
  6  5  1  0  0  0  0
  7  8  1  0  0  0  0
  7  6  2  0  0  0  0
  8  3  2  0  0  0  0
 10  6  1  0  0  0  0
 11  7  1  0  0  0  0
 12  8  1  0  0  0  0
 13 20  1  0  0  0  0
 14 13  2  0  0  0  0
 15 13  2  0  0  0  0
 16 17  1  0  0  0  0
 18 17  1  0  0  0  0
 18 19  1  0  0  0  0
 20 19  1  0  0  0  0
 21 20  1  0  0  0  0
 21 22  1  0  0  0  0
 22 17  1  0  0  0  0
 23  1  1  0  0  0  0
 23 24  1  0  0  0  0
 24 29  1  0  0  0  0
 25 24  2  0  0  0  0
 25 30  1  0  0  0  0
 26 25  1  0  0  0  0
 27 28  1  0  0  0  0
 27 26  2  0  0  0  0
 28 23  2  0  0  0  0
 31 34  1  6  0  0  0
 31 32  1  0  0  0  0
 31 33  1  0  0  0  0
 31 27  1  0  0  0  0
 32 33  1  0  0  0  0
 32 35  1  0  0  0  0
 33 37  1  6  0  0  0
 33 38  1  0  0  0  0
 36 32  1  0  0  0  0
 38 40  1  0  0  0  0
 38 39  1  0  0  0  0
M  END
>  <minimizedAffinity>
-6.18226719

$$$$

 OpenBabel03252508053D

 40 43  0  0  1  0  0  0  0  0999 V2000
   35.9010   28.7350   40.4490 C   0  0  0  0  0  0  0  0  0  0  0  0
   35.0130   29.6500   40.5530 O   0  0  0  0  0  0  0  0  0  0  0  0
   38.1510   29.0580   41.4990 C   0  0  0  0  0  0  0  0  0  0  0  0
   36.9100   28.4540   41.4790 C   0  0  0  0  0  0  0  0  0  0  0  0
   36.5950   27.5440   42.4750 C   0  0  0  0  0  0  0  0  0  0  0  0
   37.4980   27.2360   43.4770 C   0  0  0  0  0  0  0  0  0  0  0  0
   38.7280   27.8280   43.5060 C   0  0  0  0  0  0  0  0  0  0  0  0
   39.0230   28.7230   42.5170 C   0  0  0  0  0  0  0  0  0  0  0  0
   35.6430   27.0240   42.5290 H   0  0  0  0  0  0  0  0  0  0  0  0
   37.2340   26.5310   44.2340 H   0  0  0  0  0  0  0  0  0  0  0  0
   39.4420   27.6110   44.2600 H   0  0  0  0  0  0  0  0  0  0  0  0
   40.0090   29.1940   42.5470 H   0  0  0  0  0  0  0  0  0  0  0  0
   38.6410   30.1000   40.2860 S   0  0  0  0  0  0  0  0  0  0  0  0
   39.1810   29.2130   39.2140 O   0  0  0  0  0  0  0  0  0  0  0  0
   39.8000   30.9600   40.8960 O   0  0  0  0  0  0  0  0  0  0  0  0
   39.6360   31.9690   35.7010 H   0  0  0  0  0  0  0  0  0  0  0  0
   39.2090   32.2900   36.5960 N   0  0  0  0  0  0  0  0  0  0  0  0
   39.9850   31.9090   37.7470 C   0  0  0  0  0  2  0  0  0  0  0  0
   39.1900   32.2390   38.9410 C   0  0  0  0  0  2  0  0  0  0  0  0
   38.0590   31.2590   39.2940 C   0  0  0  0  0  3  0  0  0  0  0  0
   37.5810   30.9130   37.8990 C   0  0  0  0  0  2  0  0  0  0  0  0
   37.8630   31.8980   36.8170 C   0  0  0  0  0  2  0  0  0  0  0  0
   36.0110   27.8790   39.3090 C   0  0  0  0  0  0  0  0  0  0  0  0
   36.5840   26.5980   39.5340 C   0  0  0  0  0  0  0  0  0  0  0  0
   36.6800   25.7510   38.4320 C   0  0  0  0  0  0  0  0  0  0  0  0
   36.2260   26.1970   37.2320 N   0  0  0  0  0  0  0  0  0  0  0  0
   35.6800   27.4430   37.0670 C   0  0  0  0  0  0  0  0  0  0  0  0
   35.6010   28.2090   38.0940 N   0  0  0  0  0  0  0  0  0  0  0  0
   36.9560   26.1900   40.4400 H   0  0  0  0  0  0  0  0  0  0  0  0
   37.1050   24.7470   38.4940 H   0  0  0  0  0  0  0  0  0  0  0  0
   35.2000   27.8360   35.7290 C   0  0  1  0  0  0  0  0  0  0  0  0
   35.3140   29.2730   35.2890 C   0  0  0  0  0  0  0  0  0  0  0  0
   36.2720   28.2310   34.7760 C   0  0  1  0  0  0  0  0  0  0  0  0
   34.3100   27.3160   35.3290 H   0  0  0  0  0  0  0  0  0  0  0  0
   35.6740   30.0330   36.0400 H   0  0  0  0  0  0  0  0  0  0  0  0
   34.5830   29.7130   34.6050 H   0  0  0  0  0  0  0  0  0  0  0  0
   36.1100   27.9510   33.7200 H   0  0  0  0  0  0  0  0  0  0  0  0
   37.6270   28.4200   35.2410 N   0  0  0  0  0  0  0  0  0  0  0  0
   37.8180   29.3460   35.6570 H   0  0  0  0  0  0  0  0  0  0  0  0
   38.2670   28.2900   34.4150 H   0  0  0  0  0  0  0  0  0  0  0  0
  1  2  2  0  0  0  0
  1  4  1  0  0  0  0
  3  8  1  0  0  0  0
  4  3  2  0  0  0  0
  4  5  1  0  0  0  0
  5  9  1  0  0  0  0
  5  6  2  0  0  0  0
  6  7  1  0  0  0  0
  6 10  1  0  0  0  0
  7 11  1  0  0  0  0
  8 12  1  0  0  0  0
  8  7  2  0  0  0  0
 13 15  2  0  0  0  0
 13  3  1  0  0  0  0
 14 13  2  0  0  0  0
 16 17  1  0  0  0  0
 17 22  1  0  0  0  0
 17 18  1  0  0  0  0
 18 19  1  0  0  0  0
 19 20  1  0  0  0  0
 20 13  1  0  0  0  0
 21 20  1  0  0  0  0
 22 21  1  0  0  0  0
 23 24  1  0  0  0  0
 23  1  1  0  0  0  0
 24 29  1  0  0  0  0
 25 30  1  0  0  0  0
 25 24  2  0  0  0  0
 26 25  1  0  0  0  0
 27 26  2  0  0  0  0
 27 28  1  0  0  0  0
 28 23  2  0  0  0  0
 31 34  1  6  0  0  0
 31 27  1  0  0  0  0
 32 31  1  0  0  0  0
 32 35  1  0  0  0  0
 33 37  1  6  0  0  0
 33 38  1  0  0  0  0
 33 32  1  0  0  0  0
 33 31  1  0  0  0  0
 36 32  1  0  0  0  0
 38 39  1  0  0  0  0
 40 38  1  0  0  0  0
M  END
>  <minimizedAffinity>
-6.04825735

$$$$

 OpenBabel03252508053D

 40 43  0  0  1  0  0  0  0  0999 V2000
   36.9370   29.2550   40.9980 C   0  0  0  0  0  0  0  0  0  0  0  0
   36.7440   29.0620   42.2490 O   0  0  0  0  0  0  0  0  0  0  0  0
   36.7980   27.0400   39.8380 C   0  0  0  0  0  0  0  0  0  0  0  0
   36.4270   28.3660   39.9460 C   0  0  0  0  0  0  0  0  0  0  0  0
   35.5300   28.8840   39.0260 C   0  0  0  0  0  0  0  0  0  0  0  0
   35.0090   28.1010   38.0120 C   0  0  0  0  0  0  0  0  0  0  0  0
   35.3690   26.7900   37.8960 C   0  0  0  0  0  0  0  0  0  0  0  0
   36.2530   26.2930   38.8110 C   0  0  0  0  0  0  0  0  0  0  0  0
   35.1910   29.9160   39.0400 H   0  0  0  0  0  0  0  0  0  0  0  0
   34.3200   28.5220   37.3130 H   0  0  0  0  0  0  0  0  0  0  0  0
   34.9870   26.1640   37.1280 H   0  0  0  0  0  0  0  0  0  0  0  0
   36.5370   25.2410   38.7130 H   0  0  0  0  0  0  0  0  0  0  0  0
   37.9400   26.3610   40.8540 S   0  0  0  0  0  0  0  0  0  0  0  0
   38.4640   25.1810   40.1060 O   0  0  0  0  0  0  0  0  0  0  0  0
   37.1590   25.8790   42.1230 O   0  0  0  0  0  0  0  0  0  0  0  0
   41.8740   23.9180   42.8670 H   0  0  0  0  0  0  0  0  0  0  0  0
   41.3740   24.8240   42.9920 N   0  0  0  0  0  0  0  0  0  0  0  0
   39.9430   24.6690   43.0080 C   0  0  0  0  0  2  0  0  0  0  0  0
   39.3550   26.0180   42.9900 C   0  0  0  0  0  2  0  0  0  0  0  0
   39.3310   26.7270   41.6260 C   0  0  0  0  0  3  0  0  0  0  0  0
   40.6640   26.2630   41.0770 C   0  0  0  0  0  2  0  0  0  0  0  0
   41.7000   25.8460   42.0630 C   0  0  0  0  0  2  0  0  0  0  0  0
   37.6780   30.3640   40.4840 C   0  0  0  0  0  0  0  0  0  0  0  0
   37.0930   31.6480   40.6550 C   0  0  0  0  0  0  0  0  0  0  0  0
   37.8170   32.7370   40.1730 C   0  0  0  0  0  0  0  0  0  0  0  0
   39.0160   32.5030   39.5780 N   0  0  0  0  0  0  0  0  0  0  0  0
   39.5370   31.2440   39.4370 C   0  0  0  0  0  0  0  0  0  0  0  0
   38.8560   30.2540   39.8880 N   0  0  0  0  0  0  0  0  0  0  0  0
   36.1660   31.8970   41.1070 H   0  0  0  0  0  0  0  0  0  0  0  0
   37.4590   33.7650   40.2510 H   0  0  0  0  0  0  0  0  0  0  0  0
   40.8530   31.0890   38.7920 C   0  0  1  0  0  0  0  0  0  0  0  0
   40.9820   30.2340   37.5580 C   0  0  0  0  0  0  0  0  0  0  0  0
   40.9710   31.7360   37.4580 C   0  0  1  0  0  0  0  0  0  0  0  0
   41.7460   31.0690   39.4440 H   0  0  0  0  0  0  0  0  0  0  0  0
   40.0790   29.6510   37.2170 H   0  0  0  0  0  0  0  0  0  0  0  0
   41.9050   29.6890   37.3420 H   0  0  0  0  0  0  0  0  0  0  0  0
   41.9540   32.1790   37.2170 H   0  0  0  0  0  0  0  0  0  0  0  0
   39.7980   32.2580   36.7950 N   0  0  0  0  0  0  0  0  0  0  0  0
   39.2450   31.5570   36.2760 H   0  0  0  0  0  0  0  0  0  0  0  0
   40.1190   32.9950   36.1150 H   0  0  0  0  0  0  0  0  0  0  0  0
  1  2  2  0  0  0  0
  3  4  1  0  0  0  0
  3 13  1  0  0  0  0
  4  1  1  0  0  0  0
  5  9  1  0  0  0  0
  5  4  2  0  0  0  0
  6  5  1  0  0  0  0
  7  6  2  0  0  0  0
  7  8  1  0  0  0  0
  8  3  2  0  0  0  0
 10  6  1  0  0  0  0
 11  7  1  0  0  0  0
 12  8  1  0  0  0  0
 13 20  1  0  0  0  0
 13 15  2  0  0  0  0
 14 13  2  0  0  0  0
 16 17  1  0  0  0  0
 17 18  1  0  0  0  0
 19 18  1  0  0  0  0
 20 19  1  0  0  0  0
 21 20  1  0  0  0  0
 21 22  1  0  0  0  0
 22 17  1  0  0  0  0
 23 24  1  0  0  0  0
 23  1  1  0  0  0  0
 24 29  1  0  0  0  0
 25 30  1  0  0  0  0
 25 24  2  0  0  0  0
 26 25  1  0  0  0  0
 27 26  2  0  0  0  0
 27 28  1  0  0  0  0
 28 23  2  0  0  0  0
 31 27  1  0  0  0  0
 31 34  1  1  0  0  0
 32 31  1  0  0  0  0
 33 37  1  6  0  0  0
 33 32  1  0  0  0  0
 33 31  1  0  0  0  0
 35 32  1  0  0  0  0
 36 32  1  0  0  0  0
 38 33  1  0  0  0  0
 39 38  1  0  0  0  0
 40 38  1  0  0  0  0
M  END
>  <minimizedAffinity>
-5.91938734

$$$$

 OpenBabel03252508053D

 40 43  0  0  1  0  0  0  0  0999 V2000
   37.2750   30.7970   41.0190 C   0  0  0  0  0  0  0  0  0  0  0  0
   36.2090   31.4970   40.9190 O   0  0  0  0  0  0  0  0  0  0  0  0
   36.8210   28.3430   40.8020 C   0  0  0  0  0  0  0  0  0  0  0  0
   37.3030   29.4180   41.5240 C   0  0  0  0  0  0  0  0  0  0  0  0
   37.8410   29.1890   42.7800 C   0  0  0  0  0  0  0  0  0  0  0  0
   37.9000   27.9150   43.3150 C   0  0  0  0  0  0  0  0  0  0  0  0
   37.4260   26.8460   42.6090 C   0  0  0  0  0  0  0  0  0  0  0  0
   36.9000   27.0870   41.3730 C   0  0  0  0  0  0  0  0  0  0  0  0
   38.2380   29.9780   43.4120 H   0  0  0  0  0  0  0  0  0  0  0  0
   38.3180   27.7620   44.2850 H   0  0  0  0  0  0  0  0  0  0  0  0
   37.4570   25.8570   42.9930 H   0  0  0  0  0  0  0  0  0  0  0  0
   36.5230   26.2270   40.8130 H   0  0  0  0  0  0  0  0  0  0  0  0
   36.0760   28.5450   39.3180 S   0  0  0  0  0  0  0  0  0  0  0  0
   34.7020   29.0270   39.6410 O   0  0  0  0  0  0  0  0  0  0  0  0
   36.0000   27.1180   38.6760 O   0  0  0  0  0  0  0  0  0  0  0  0
   37.9040   27.7330   34.6810 H   0  0  0  0  0  0  0  0  0  0  0  0
   37.7420   28.5380   35.3230 N   0  0  0  0  0  0  0  0  0  0  0  0
   38.1790   28.2700   36.6680 C   0  0  0  0  0  2  0  0  0  0  0  0
   37.7220   29.3870   37.5100 C   0  0  0  0  0  2  0  0  0  0  0  0
   36.2390   29.3650   37.9160 C   0  0  0  0  0  3  0  0  0  0  0  0
   35.6350   28.8300   36.6340 C   0  0  0  0  0  2  0  0  0  0  0  0
   36.4110   29.0290   35.3780 C   0  0  0  0  0  2  0  0  0  0  0  0
   38.5670   31.2840   40.6500 C   0  0  0  0  0  0  0  0  0  0  0  0
   38.7950   32.6750   40.8390 C   0  0  0  0  0  0  0  0  0  0  0  0
   40.0570   33.1560   40.4980 C   0  0  0  0  0  0  0  0  0  0  0  0
   40.9740   32.2790   40.0130 N   0  0  0  0  0  0  0  0  0  0  0  0
   40.7050   30.9450   39.8490 C   0  0  0  0  0  0  0  0  0  0  0  0
   39.5360   30.5210   40.1690 N   0  0  0  0  0  0  0  0  0  0  0  0
   38.1260   33.4100   41.2100 H   0  0  0  0  0  0  0  0  0  0  0  0
   40.3360   34.2060   40.6030 H   0  0  0  0  0  0  0  0  0  0  0  0
   41.7680   30.0660   39.3300 C   0  0  1  0  0  0  0  0  0  0  0  0
   41.4040   28.8920   38.4580 C   0  0  0  0  0  0  0  0  0  0  0  0
   41.9790   30.1470   37.8600 C   0  0  1  0  0  0  0  0  0  0  0  0
   42.6480   29.8870   39.9750 H   0  0  0  0  0  0  0  0  0  0  0  0
   40.3110   28.6580   38.3090 H   0  0  0  0  0  0  0  0  0  0  0  0
   42.0030   27.9770   38.4650 H   0  0  0  0  0  0  0  0  0  0  0  0
   43.0220   30.0440   37.5120 H   0  0  0  0  0  0  0  0  0  0  0  0
   41.0420   30.8670   37.0280 N   0  0  0  0  0  0  0  0  0  0  0  0
   40.2010   30.3320   36.7590 H   0  0  0  0  0  0  0  0  0  0  0  0
   41.5500   31.1500   36.1500 H   0  0  0  0  0  0  0  0  0  0  0  0
  1  4  1  0  0  0  0
  2  1  2  0  0  0  0
  3  8  2  0  0  0  0
  3  4  1  0  0  0  0
  4  5  2  0  0  0  0
  5  6  1  0  0  0  0
  5  9  1  0  0  0  0
  6 10  1  0  0  0  0
  7 11  1  0  0  0  0
  7  6  2  0  0  0  0
  8  7  1  0  0  0  0
 12  8  1  0  0  0  0
 13 14  2  0  0  0  0
 13  3  1  0  0  0  0
 15 13  2  0  0  0  0
 16 17  1  0  0  0  0
 17 22  1  0  0  0  0
 17 18  1  0  0  0  0
 18 19  1  0  0  0  0
 19 20  1  0  0  0  0
 20 13  1  0  0  0  0
 21 20  1  0  0  0  0
 22 21  1  0  0  0  0
 23 24  1  0  0  0  0
 23  1  1  0  0  0  0
 24 29  1  0  0  0  0
 25 30  1  0  0  0  0
 25 24  2  0  0  0  0
 26 25  1  0  0  0  0
 27 26  2  0  0  0  0
 27 28  1  0  0  0  0
 28 23  2  0  0  0  0
 31 27  1  0  0  0  0
 31 34  1  1  0  0  0
 32 36  1  0  0  0  0
 32 31  1  0  0  0  0
 33 37  1  6  0  0  0
 33 32  1  0  0  0  0
 33 31  1  0  0  0  0
 35 32  1  0  0  0  0
 38 33  1  0  0  0  0
 39 38  1  0  0  0  0
 40 38  1  0  0  0  0
M  END
>  <minimizedAffinity>
-5.82616472

$$$$

 OpenBabel03252508053D

 40 43  0  0  1  0  0  0  0  0999 V2000
   36.0220   29.2320   40.0290 C   0  0  0  0  0  0  0  0  0  0  0  0
   34.8540   29.3550   39.5200 O   0  0  0  0  0  0  0  0  0  0  0  0
   36.8950   26.8890   40.1670 C   0  0  0  0  0  0  0  0  0  0  0  0
   36.4660   28.0500   40.7800 C   0  0  0  0  0  0  0  0  0  0  0  0
   36.4550   28.1090   42.1640 C   0  0  0  0  0  0  0  0  0  0  0  0
   36.8630   27.0330   42.9310 C   0  0  0  0  0  0  0  0  0  0  0  0
   37.2890   25.8810   42.3350 C   0  0  0  0  0  0  0  0  0  0  0  0
   37.2950   25.8390   40.9700 C   0  0  0  0  0  0  0  0  0  0  0  0
   36.1300   28.9820   42.7210 H   0  0  0  0  0  0  0  0  0  0  0  0
   36.8460   27.1000   43.9960 H   0  0  0  0  0  0  0  0  0  0  0  0
   37.6070   25.0380   42.8970 H   0  0  0  0  0  0  0  0  0  0  0  0
   37.6380   24.9130   40.5000 H   0  0  0  0  0  0  0  0  0  0  0  0
   36.8550   26.7060   38.5050 S   0  0  0  0  0  0  0  0  0  0  0  0
   35.4340   26.3820   38.1890 O   0  0  0  0  0  0  0  0  0  0  0  0
   37.7640   25.4710   38.1850 O   0  0  0  0  0  0  0  0  0  0  0  0
   35.2690   26.7480   33.7110 H   0  0  0  0  0  0  0  0  0  0  0  0
   36.1280   26.9940   34.2490 N   0  0  0  0  0  0  0  0  0  0  0  0
   36.4890   25.9850   35.2090 C   0  0  0  0  0  2  0  0  0  0  0  0
   37.5810   26.5300   36.0300 C   0  0  0  0  0  2  0  0  0  0  0  0
   37.1710   27.5240   37.1280 C   0  0  0  0  0  3  0  0  0  0  0  0
   36.0690   28.2640   36.4000 C   0  0  0  0  0  2  0  0  0  0  0  0
   36.1060   28.2500   34.9100 C   0  0  0  0  0  2  0  0  0  0  0  0
   37.0290   30.2420   39.9250 C   0  0  0  0  0  0  0  0  0  0  0  0
   36.6780   31.5360   40.3970 C   0  0  0  0  0  0  0  0  0  0  0  0
   37.6590   32.5210   40.3150 C   0  0  0  0  0  0  0  0  0  0  0  0
   38.8700   32.1870   39.7960 N   0  0  0  0  0  0  0  0  0  0  0  0
   39.1590   30.9220   39.3540 C   0  0  0  0  0  0  0  0  0  0  0  0
   38.2420   30.0280   39.4380 N   0  0  0  0  0  0  0  0  0  0  0  0
   35.7560   31.8610   40.8100 H   0  0  0  0  0  0  0  0  0  0  0  0
   37.4940   33.5470   40.6480 H   0  0  0  0  0  0  0  0  0  0  0  0
   40.5050   30.6480   38.8200 C   0  0  1  0  0  0  0  0  0  0  0  0
   40.6530   29.9600   37.4880 C   0  0  0  0  0  0  0  0  0  0  0  0
   40.8700   31.4430   37.6170 C   0  0  1  0  0  0  0  0  0  0  0  0
   41.3040   30.3980   39.5430 H   0  0  0  0  0  0  0  0  0  0  0  0
   39.7210   29.5800   36.9790 H   0  0  0  0  0  0  0  0  0  0  0  0
   41.5070   29.3080   37.2810 H   0  0  0  0  0  0  0  0  0  0  0  0
   41.9280   31.7520   37.5410 H   0  0  0  0  0  0  0  0  0  0  0  0
   39.8700   32.2310   36.9330 N   0  0  0  0  0  0  0  0  0  0  0  0
   39.2860   31.7040   36.2640 H   0  0  0  0  0  0  0  0  0  0  0  0
   40.3720   32.9930   36.4070 H   0  0  0  0  0  0  0  0  0  0  0  0
  1  4  1  0  0  0  0
  2  1  2  0  0  0  0
  3  4  2  0  0  0  0
  3  8  1  0  0  0  0
  4  5  1  0  0  0  0
  5  9  1  0  0  0  0
  5  6  2  0  0  0  0
  6 10  1  0  0  0  0
  7 11  1  0  0  0  0
  7  6  1  0  0  0  0
  8  7  2  0  0  0  0
 12  8  1  0  0  0  0
 13  3  1  0  0  0  0
 14 13  2  0  0  0  0
 15 13  2  0  0  0  0
 16 17  1  0  0  0  0
 17 22  1  0  0  0  0
 17 18  1  0  0  0  0
 18 19  1  0  0  0  0
 19 20  1  0  0  0  0
 20 13  1  0  0  0  0
 21 20  1  0  0  0  0
 22 21  1  0  0  0  0
 23  1  1  0  0  0  0
 23 24  1  0  0  0  0
 24 29  1  0  0  0  0
 25 24  2  0  0  0  0
 25 30  1  0  0  0  0
 26 25  1  0  0  0  0
 27 28  1  0  0  0  0
 27 26  2  0  0  0  0
 28 23  2  0  0  0  0
 31 27  1  0  0  0  0
 31 34  1  1  0  0  0
 32 33  1  0  0  0  0
 32 31  1  0  0  0  0
 33 37  1  6  0  0  0
 33 31  1  0  0  0  0
 35 32  1  0  0  0  0
 36 32  1  0  0  0  0
 38 33  1  0  0  0  0
 39 38  1  0  0  0  0
 40 38  1  0  0  0  0
M  END
>  <minimizedAffinity>
-5.78342915

$$$$

 OpenBabel03252508053D

 40 43  0  0  1  0  0  0  0  0999 V2000
   37.5350   28.1570   42.5380 C   0  0  0  0  0  0  0  0  0  0  0  0
   37.6220   28.7290   43.6790 O   0  0  0  0  0  0  0  0  0  0  0  0
   39.2560   26.3760   42.1600 C   0  0  0  0  0  0  0  0  0  0  0  0
   37.9370   26.7660   42.2880 C   0  0  0  0  0  0  0  0  0  0  0  0
   36.9440   25.8050   42.1810 C   0  0  0  0  0  0  0  0  0  0  0  0
   37.2530   24.4770   41.9490 C   0  0  0  0  0  0  0  0  0  0  0  0
   38.5540   24.0820   41.8210 C   0  0  0  0  0  0  0  0  0  0  0  0
   39.5200   25.0400   41.9300 C   0  0  0  0  0  0  0  0  0  0  0  0
   35.8850   26.0300   42.2660 H   0  0  0  0  0  0  0  0  0  0  0  0
   36.4730   23.7540   41.8690 H   0  0  0  0  0  0  0  0  0  0  0  0
   38.8220   23.0700   41.6420 H   0  0  0  0  0  0  0  0  0  0  0  0
   40.5600   24.7160   41.8280 H   0  0  0  0  0  0  0  0  0  0  0  0
   40.5070   27.4860   42.1890 S   0  0  0  0  0  0  0  0  0  0  0  0
   40.5750   28.0230   40.7990 O   0  0  0  0  0  0  0  0  0  0  0  0
   41.8040   26.6670   42.5050 O   0  0  0  0  0  0  0  0  0  0  0  0
   43.5380   31.4240   41.2920 H   0  0  0  0  0  0  0  0  0  0  0  0
   43.1560   30.9070   42.1130 N   0  0  0  0  0  0  0  0  0  0  0  0
   43.2440   29.4790   41.9580 C   0  0  0  0  0  2  0  0  0  0  0  0
   42.5030   28.8700   43.0740 C   0  0  0  0  0  2  0  0  0  0  0  0
   40.9720   28.8570   42.9430 C   0  0  0  0  0  3  0  0  0  0  0  0
   40.7640   30.2070   42.2880 C   0  0  0  0  0  2  0  0  0  0  0  0
   41.8260   31.2330   42.4860 C   0  0  0  0  0  2  0  0  0  0  0  0
   37.0370   28.8140   41.3700 C   0  0  0  0  0  0  0  0  0  0  0  0
   35.6850   28.5420   41.0210 C   0  0  0  0  0  0  0  0  0  0  0  0
   35.1860   29.1920   39.8950 C   0  0  0  0  0  0  0  0  0  0  0  0
   36.0100   30.0300   39.2130 N   0  0  0  0  0  0  0  0  0  0  0  0
   37.3070   30.2590   39.5910 C   0  0  0  0  0  0  0  0  0  0  0  0
   37.7490   29.6510   40.6320 N   0  0  0  0  0  0  0  0  0  0  0  0
   34.9930   27.9030   41.5080 H   0  0  0  0  0  0  0  0  0  0  0  0
   34.1630   29.0540   39.5390 H   0  0  0  0  0  0  0  0  0  0  0  0
   38.1220   31.1960   38.7980 C   0  0  1  0  0  0  0  0  0  0  0  0
   37.4440   32.2240   37.9290 C   0  0  0  0  0  0  0  0  0  0  0  0
   38.0560   32.6120   39.2480 C   0  0  1  0  0  0  0  0  0  0  0  0
   39.0780   30.8230   38.3850 H   0  0  0  0  0  0  0  0  0  0  0  0
   36.3210   32.1810   37.8320 H   0  0  0  0  0  0  0  0  0  0  0  0
   37.9050   32.5710   37.0010 H   0  0  0  0  0  0  0  0  0  0  0  0
   38.9900   33.1960   39.1580 H   0  0  0  0  0  0  0  0  0  0  0  0
   37.0810   33.0180   40.2350 N   0  0  0  0  0  0  0  0  0  0  0  0
   36.1400   33.2160   39.8590 H   0  0  0  0  0  0  0  0  0  0  0  0
   37.4440   33.8920   40.6980 H   0  0  0  0  0  0  0  0  0  0  0  0
  1  2  2  0  0  0  0
  3 13  1  0  0  0  0
  3  4  1  0  0  0  0
  4  1  1  0  0  0  0
  5  9  1  0  0  0  0
  5  4  2  0  0  0  0
  6  5  1  0  0  0  0
  7  8  1  0  0  0  0
  7  6  2  0  0  0  0
  8  3  2  0  0  0  0
 10  6  1  0  0  0  0
 11  7  1  0  0  0  0
 12  8  1  0  0  0  0
 13 15  2  0  0  0  0
 13 20  1  0  0  0  0
 14 13  2  0  0  0  0
 16 17  1  0  0  0  0
 17 22  1  0  0  0  0
 18 17  1  0  0  0  0
 18 19  1  0  0  0  0
 20 19  1  0  0  0  0
 21 22  1  0  0  0  0
 21 20  1  0  0  0  0
 23  1  1  0  0  0  0
 24 23  1  0  0  0  0
 24 29  1  0  0  0  0
 25 24  2  0  0  0  0
 26 27  2  0  0  0  0
 26 25  1  0  0  0  0
 27 28  1  0  0  0  0
 28 23  2  0  0  0  0
 30 25  1  0  0  0  0
 31 34  1  6  0  0  0
 31 33  1  0  0  0  0
 31 27  1  0  0  0  0
 32 31  1  0  0  0  0
 32 33  1  0  0  0  0
 33 37  1  6  0  0  0
 33 38  1  0  0  0  0
 35 32  1  0  0  0  0
 36 32  1  0  0  0  0
 38 40  1  0  0  0  0
 39 38  1  0  0  0  0
M  END
>  <minimizedAffinity>
-5.76556444

$$$$

 OpenBabel03252508053D

 40 43  0  0  1  0  0  0  0  0999 V2000
   36.1680   29.5030   40.8460 C   0  0  0  0  0  0  0  0  0  0  0  0
   34.9950   29.7690   40.4090 O   0  0  0  0  0  0  0  0  0  0  0  0
   37.1360   27.2340   40.4140 C   0  0  0  0  0  0  0  0  0  0  0  0
   36.5950   28.1650   41.2780 C   0  0  0  0  0  0  0  0  0  0  0  0
   36.4490   27.8290   42.6140 C   0  0  0  0  0  0  0  0  0  0  0  0
   36.8330   26.5880   43.0880 C   0  0  0  0  0  0  0  0  0  0  0  0
   37.3690   25.6600   42.2420 C   0  0  0  0  0  0  0  0  0  0  0  0
   37.5070   26.0070   40.9290 C   0  0  0  0  0  0  0  0  0  0  0  0
   36.0300   28.5020   43.3560 H   0  0  0  0  0  0  0  0  0  0  0  0
   36.7110   26.3500   44.1220 H   0  0  0  0  0  0  0  0  0  0  0  0
   37.6720   24.6990   42.5760 H   0  0  0  0  0  0  0  0  0  0  0  0
   37.9380   25.2590   40.2560 H   0  0  0  0  0  0  0  0  0  0  0  0
   37.2640   27.5280   38.7730 S   0  0  0  0  0  0  0  0  0  0  0  0
   35.9220   27.1890   38.2170 O   0  0  0  0  0  0  0  0  0  0  0  0
   38.3320   26.5170   38.2340 O   0  0  0  0  0  0  0  0  0  0  0  0
   36.2770   28.6980   33.9600 H   0  0  0  0  0  0  0  0  0  0  0  0
   37.0140   28.8900   34.6720 N   0  0  0  0  0  0  0  0  0  0  0  0
   37.4160   27.7070   35.3870 C   0  0  0  0  0  2  0  0  0  0  0  0
   38.3000   28.1350   36.4830 C   0  0  0  0  0  2  0  0  0  0  0  0
   37.6060   28.7280   37.7200 C   0  0  0  0  0  3  0  0  0  0  0  0
   36.4930   29.4980   37.0390 C   0  0  0  0  0  2  0  0  0  0  0  0
   36.7090   29.9010   35.6220 C   0  0  0  0  0  2  0  0  0  0  0  0
   37.1990   30.4860   40.9650 C   0  0  0  0  0  0  0  0  0  0  0  0
   36.9950   31.7040   40.2600 C   0  0  0  0  0  0  0  0  0  0  0  0
   37.9860   32.6750   40.3840 C   0  0  0  0  0  0  0  0  0  0  0  0
   39.0680   32.3990   41.1590 N   0  0  0  0  0  0  0  0  0  0  0  0
   39.2180   31.2080   41.8190 C   0  0  0  0  0  0  0  0  0  0  0  0
   38.2940   30.3250   41.6920 N   0  0  0  0  0  0  0  0  0  0  0  0
   36.1780   31.9800   39.6420 H   0  0  0  0  0  0  0  0  0  0  0  0
   37.9290   33.6430   39.8840 H   0  0  0  0  0  0  0  0  0  0  0  0
   40.4190   31.0030   42.6490 C   0  0  1  0  0  0  0  0  0  0  0  0
   41.3290   29.8360   42.3680 C   0  0  0  0  0  0  0  0  0  0  0  0
   41.7080   31.2290   41.9430 C   0  0  1  0  0  0  0  0  0  0  0  0
   40.3550   31.2710   43.7200 H   0  0  0  0  0  0  0  0  0  0  0  0
   41.0100   29.0870   41.5880 H   0  0  0  0  0  0  0  0  0  0  0  0
   41.8880   29.3490   43.1730 H   0  0  0  0  0  0  0  0  0  0  0  0
   42.5190   31.6780   42.5440 H   0  0  0  0  0  0  0  0  0  0  0  0
   41.7330   31.4040   40.5090 N   0  0  0  0  0  0  0  0  0  0  0  0
   41.7230   30.5270   39.9650 H   0  0  0  0  0  0  0  0  0  0  0  0
   42.6110   31.9330   40.2690 H   0  0  0  0  0  0  0  0  0  0  0  0
  1 23  1  0  0  0  0
  1  4  1  0  0  0  0
  2  1  2  0  0  0  0
  3  8  2  0  0  0  0
  3  4  1  0  0  0  0
  4  5  2  0  0  0  0
  5  6  1  0  0  0  0
  5  9  1  0  0  0  0
  6 10  1  0  0  0  0
  7 11  1  0  0  0  0
  7  6  2  0  0  0  0
  8  7  1  0  0  0  0
 12  8  1  0  0  0  0
 13  3  1  0  0  0  0
 14 13  2  0  0  0  0
 15 13  2  0  0  0  0
 16 17  1  0  0  0  0
 17 18  1  0  0  0  0
 17 22  1  0  0  0  0
 18 19  1  0  0  0  0
 19 20  1  0  0  0  0
 20 13  1  0  0  0  0
 21 20  1  0  0  0  0
 22 21  1  0  0  0  0
 23 28  1  0  0  0  0
 24 25  1  0  0  0  0
 24 23  2  0  0  0  0
 25 26  2  0  0  0  0
 26 27  1  0  0  0  0
 27 31  1  0  0  0  0
 28 27  2  0  0  0  0
 29 24  1  0  0  0  0
 30 25  1  0  0  0  0
 31 34  1  1  0  0  0
 32 31  1  0  0  0  0
 32 36  1  0  0  0  0
 33 32  1  0  0  0  0
 33 37  1  1  0  0  0
 33 31  1  0  0  0  0
 35 32  1  0  0  0  0
 38 33  1  0  0  0  0
 39 38  1  0  0  0  0
 40 38  1  0  0  0  0
M  END
>  <minimizedAffinity>
-5.72815943

$$$$

 OpenBabel03252508053D

 40 43  0  0  1  0  0  0  0  0999 V2000
   39.3630   29.5070   40.5300 C   0  0  0  0  0  0  0  0  0  0  0  0
   40.4960   29.1260   40.0720 O   0  0  0  0  0  0  0  0  0  0  0  0
   37.8550   30.9630   39.1600 C   0  0  0  0  0  0  0  0  0  0  0  0
   38.7430   30.7980   40.2050 C   0  0  0  0  0  0  0  0  0  0  0  0
   39.0640   31.8960   40.9870 C   0  0  0  0  0  0  0  0  0  0  0  0
   38.5140   33.1400   40.7380 C   0  0  0  0  0  0  0  0  0  0  0  0
   37.6350   33.3140   39.7080 C   0  0  0  0  0  0  0  0  0  0  0  0
   37.3280   32.2230   38.9470 C   0  0  0  0  0  0  0  0  0  0  0  0
   39.7550   31.8510   41.8230 H   0  0  0  0  0  0  0  0  0  0  0  0
   38.7760   33.9730   41.3530 H   0  0  0  0  0  0  0  0  0  0  0  0
   37.1970   34.2570   39.4910 H   0  0  0  0  0  0  0  0  0  0  0  0
   36.6230   32.3690   38.1240 H   0  0  0  0  0  0  0  0  0  0  0  0
   37.4830   29.7110   38.1160 S   0  0  0  0  0  0  0  0  0  0  0  0
   38.8010   29.2220   37.6190 O   0  0  0  0  0  0  0  0  0  0  0  0
   36.6770   30.3560   36.9370 O   0  0  0  0  0  0  0  0  0  0  0  0
   32.9080   27.8960   36.9840 H   0  0  0  0  0  0  0  0  0  0  0  0
   33.7180   27.6410   37.5890 N   0  0  0  0  0  0  0  0  0  0  0  0
   34.2300   28.7640   38.3300 C   0  0  0  0  0  2  0  0  0  0  0  0
   35.4760   28.3290   38.9820 C   0  0  0  0  0  2  0  0  0  0  0  0
   36.7230   28.2660   38.0850 C   0  0  0  0  0  3  0  0  0  0  0  0
   36.0890   27.7550   36.8070 C   0  0  0  0  0  2  0  0  0  0  0  0
   34.8070   27.0080   36.9340 C   0  0  0  0  0  2  0  0  0  0  0  0
   38.5720   28.7120   41.4160 C   0  0  0  0  0  0  0  0  0  0  0  0
   38.1810   29.3270   42.6370 C   0  0  0  0  0  0  0  0  0  0  0  0
   37.3950   28.5660   43.4990 C   0  0  0  0  0  0  0  0  0  0  0  0
   37.0590   27.3040   43.1240 N   0  0  0  0  0  0  0  0  0  0  0  0
   37.4620   26.7560   41.9350 C   0  0  0  0  0  0  0  0  0  0  0  0
   38.1860   27.4730   41.1530 N   0  0  0  0  0  0  0  0  0  0  0  0
   38.4080   30.3020   42.9880 H   0  0  0  0  0  0  0  0  0  0  0  0
   37.0420   28.9420   44.4620 H   0  0  0  0  0  0  0  0  0  0  0  0
   37.0370   25.3840   41.6060 C   0  0  1  0  0  0  0  0  0  0  0  0
   37.8980   24.5310   40.7110 C   0  0  0  0  0  0  0  0  0  0  0  0
   37.8800   24.3130   42.2000 C   0  0  1  0  0  0  0  0  0  0  0  0
   35.9530   25.1950   41.4940 H   0  0  0  0  0  0  0  0  0  0  0  0
   38.8020   25.0050   40.2320 H   0  0  0  0  0  0  0  0  0  0  0  0
   37.4550   23.7780   40.0520 H   0  0  0  0  0  0  0  0  0  0  0  0
   37.3510   23.3950   42.5140 H   0  0  0  0  0  0  0  0  0  0  0  0
   39.1310   24.6430   42.8430 N   0  0  0  0  0  0  0  0  0  0  0  0
   39.9320   24.7550   42.2010 H   0  0  0  0  0  0  0  0  0  0  0  0
   39.3550   23.8670   43.5190 H   0  0  0  0  0  0  0  0  0  0  0  0
  1 23  1  0  0  0  0
  2  1  2  0  0  0  0
  3  4  1  0  0  0  0
  4  1  1  0  0  0  0
  4  5  2  0  0  0  0
  5  9  1  0  0  0  0
  6  5  1  0  0  0  0
  6 10  1  0  0  0  0
  7  6  2  0  0  0  0
  8  3  2  0  0  0  0
  8  7  1  0  0  0  0
 11  7  1  0  0  0  0
 12  8  1  0  0  0  0
 13  3  1  0  0  0  0
 14 13  2  0  0  0  0
 15 13  2  0  0  0  0
 16 17  1  0  0  0  0
 17 18  1  0  0  0  0
 18 19  1  0  0  0  0
 20 13  1  0  0  0  0
 20 19  1  0  0  0  0
 21 22  1  0  0  0  0
 21 20  1  0  0  0  0
 22 17  1  0  0  0  0
 23 24  1  0  0  0  0
 24 29  1  0  0  0  0
 24 25  2  0  0  0  0
 25 30  1  0  0  0  0
 26 25  1  0  0  0  0
 27 26  2  0  0  0  0
 28 23  2  0  0  0  0
 28 27  1  0  0  0  0
 31 34  1  6  0  0  0
 31 27  1  0  0  0  0
 31 33  1  0  0  0  0
 32 31  1  0  0  0  0
 32 33  1  0  0  0  0
 33 37  1  1  0  0  0
 33 38  1  0  0  0  0
 35 32  1  0  0  0  0
 36 32  1  0  0  0  0
 38 40  1  0  0  0  0
 39 38  1  0  0  0  0
M  END
>  <minimizedAffinity>
-5.72506285

$$$$
