REMARK  Name = 
REMARK  4 active torsions:
REMARK  status: ('A' for Active; 'I' for Inactive)
REMARK    1  A    between atoms: C_3  and  C_10
REMARK    2  A    between atoms: C_4  and  C_15
REMARK    3  A    between atoms: C_14  and  S_20
REMARK    4  A    between atoms: S_20  and  C_37
REMARK                            x       y       z     vdW  Elec       q    Type
REMARK                         _______ _______ _______ _____ _____    ______ ____
ROOT
ATOM      1  C   UNL     1      47.793  31.883  38.987  0.00  0.00    +0.000 A 
ATOM      2  C   UNL     1      47.224  33.117  38.877  0.00  0.00    +0.000 A 
ATOM      3  C   UNL     1      47.759  34.024  37.984  0.00  0.00    +0.000 A 
ATOM      4  C   UNL     1      48.848  33.687  37.218  0.00  0.00    +0.000 A 
ATOM      5  C   UNL     1      49.446  32.433  37.310  0.00  0.00    +0.000 A 
ATOM      6  C   UNL     1      48.900  31.535  38.209  0.00  0.00    +0.000 A 
ATOM      7  H   UNL     1      47.322  35.023  37.877  0.00  0.00    +0.000 HD
ATOM      8  H   UNL     1      49.240  34.412  36.535  0.00  0.00    +0.000 HD
ATOM      9  H   UNL     1      50.302  32.134  36.723  0.00  0.00    +0.000 HD
ATOM     10  H   UNL     1      49.368  30.552  38.283  0.00  0.00    +0.000 HD
ENDROOT
BRANCH   2  14
ATOM     11 CL   UNL     1      45.284  35.297  43.114  0.00  0.00    +0.000 Cl
ATOM     12  C   UNL     1      45.171  34.542  41.553  0.00  0.00    +0.000 A 
ATOM     13  C   UNL     1      46.273  34.159  40.878  0.00  0.00    +0.000 A 
ATOM     14  C   UNL     1      46.072  33.561  39.640  0.00  0.00    +0.000 A 
ATOM     15  C   UNL     1      44.821  33.365  39.116  0.00  0.00    +0.000 A 
ATOM     16  C   UNL     1      43.724  33.757  39.812  0.00  0.00    +0.000 A 
ATOM     17  C   UNL     1      43.909  34.350  41.040  0.00  0.00    +0.000 A 
ATOM     18  H   UNL     1      44.699  32.897  38.149  0.00  0.00    +0.000 HD
ATOM     19  H   UNL     1      42.710  33.620  39.434  0.00  0.00    +0.000 HD
ATOM     20  H   UNL     1      43.020  34.663  41.592  0.00  0.00    +0.000 HD
BRANCH  13  23
ATOM     21  C   UNL     1      49.547  35.742  41.894  0.00  0.00    +0.000 A 
ATOM     22  C   UNL     1      48.289  35.545  41.316  0.00  0.00    +0.000 A 
ATOM     23  C   UNL     1      47.573  34.374  41.467  0.00  0.00    +0.000 A 
ATOM     24  N   UNL     1      48.185  33.424  42.222  0.00  0.00    +0.000 NA
ATOM     25  C   UNL     1      49.392  33.608  42.779  0.00  0.00    +0.000 A 
ATOM     26  N   UNL     1      50.063  34.754  42.615  0.00  0.00    +0.000 NA
ATOM     27  H   UNL     1      50.091  36.680  41.757  0.00  0.00    +0.000 HD
ATOM     28  H   UNL     1      47.881  36.355  40.733  0.00  0.00    +0.000 HD
ATOM     29  H   UNL     1      49.818  32.800  43.371  0.00  0.00    +0.000 HD
ENDBRANCH  13  23
ENDBRANCH   2  14
BRANCH   1  30
ATOM     30  S   UNL     1      47.194  30.713  40.042  0.00  0.00    +0.000 S 
ATOM     31  O   UNL     1      46.790  29.442  39.317  0.00  0.00    +0.000 OA
ATOM     32  O   UNL     1      48.446  30.291  40.859  0.00  0.00    +0.000 OA
BRANCH  30  37
ATOM     33  H   UNL     1      42.069  30.768  41.656  0.00  0.00    +0.000 HD
ATOM     34  N   UNL     1      43.079  30.899  41.740  0.00  0.00    +0.000 NA
ATOM     35  C   UNL     1      43.871  29.702  41.845  0.00  0.00    +0.000 C 
ATOM     36  C   UNL     1      44.946  29.741  40.829  0.00  0.00    +0.000 C 
ATOM     37  C   UNL     1      46.005  30.840  41.226  0.00  0.00    +0.000 C 
ATOM     38  C   UNL     1      45.085  32.058  41.175  0.00  0.00    +0.000 C 
ATOM     39  C   UNL     1      43.681  31.782  40.766  0.00  0.00    +0.000 C 
ENDBRANCH  30  37
ENDBRANCH   1  30
TORSDOF 4
