
 OpenBabel03252508033D

 40 43  0  0  1  0  0  0  0  0999 V2000
   44.2700   34.3570   41.5490 C   0  0  0  0  0  0  0  0  0  0  0  0
   45.1480   34.2420   40.6250 O   0  0  0  0  0  0  0  0  0  0  0  0
   42.0900   33.2750   40.9570 C   0  0  0  0  0  0  0  0  0  0  0  0
   42.8230   34.3950   41.3000 C   0  0  0  0  0  0  0  0  0  0  0  0
   42.1670   35.6090   41.4210 C   0  0  0  0  0  0  0  0  0  0  0  0
   40.8050   35.7140   41.2030 C   0  0  0  0  0  0  0  0  0  0  0  0
   40.0720   34.6140   40.8640 C   0  0  0  0  0  0  0  0  0  0  0  0
   40.7320   33.4240   40.7500 C   0  0  0  0  0  0  0  0  0  0  0  0
   42.6700   36.5350   41.6830 H   0  0  0  0  0  0  0  0  0  0  0  0
   40.3200   36.6600   41.3010 H   0  0  0  0  0  0  0  0  0  0  0  0
   39.0260   34.6630   40.6890 H   0  0  0  0  0  0  0  0  0  0  0  0
   40.1390   32.5460   40.4780 H   0  0  0  0  0  0  0  0  0  0  0  0
   42.8190   31.7910   40.7060 S   0  0  0  0  0  0  0  0  0  0  0  0
   43.4540   31.8990   39.3610 O   0  0  0  0  0  0  0  0  0  0  0  0
   41.6570   30.7410   40.6600 O   0  0  0  0  0  0  0  0  0  0  0  0
   42.9320   27.4310   43.2530 H   0  0  0  0  0  0  0  0  0  0  0  0
   43.5170   28.2880   43.1510 N   0  0  0  0  0  0  0  0  0  0  0  0
   42.7410   29.5000   43.2080 C   0  0  0  0  0  2  0  0  0  0  0  0
   43.6360   30.6130   42.8580 C   0  0  0  0  0  2  0  0  0  0  0  0
   43.9350   30.7960   41.3610 C   0  0  0  0  0  3  0  0  0  0  0  0
   44.0140   29.3430   40.9400 C   0  0  0  0  0  2  0  0  0  0  0  0
   44.3410   28.3430   41.9970 C   0  0  0  0  0  2  0  0  0  0  0  0
   44.6040   34.4650   42.9350 C   0  0  0  0  0  0  0  0  0  0  0  0
   44.3110   35.7080   43.5590 C   0  0  0  0  0  0  0  0  0  0  0  0
   44.6180   35.8170   44.9140 C   0  0  0  0  0  0  0  0  0  0  0  0
   45.1690   34.7440   45.5410 N   0  0  0  0  0  0  0  0  0  0  0  0
   45.4310   33.5660   44.8920 C   0  0  0  0  0  0  0  0  0  0  0  0
   45.1420   33.4850   43.6440 N   0  0  0  0  0  0  0  0  0  0  0  0
   43.8850   36.5800   43.1300 H   0  0  0  0  0  0  0  0  0  0  0  0
   44.4350   36.7270   45.4890 H   0  0  0  0  0  0  0  0  0  0  0  0
   46.0170   32.4510   45.6570 C   0  0  1  0  0  0  0  0  0  0  0  0
   46.9710   32.7410   46.7870 C   0  0  0  0  0  0  0  0  0  0  0  0
   45.5450   32.3460   47.0640 C   0  0  1  0  0  0  0  0  0  0  0  0
   46.2430   31.5160   45.1110 H   0  0  0  0  0  0  0  0  0  0  0  0
   47.2910   33.8090   46.9520 H   0  0  0  0  0  0  0  0  0  0  0  0
   47.7780   32.0470   47.0370 H   0  0  0  0  0  0  0  0  0  0  0  0
   45.4310   31.3230   47.4640 H   0  0  0  0  0  0  0  0  0  0  0  0
   44.7600   33.4090   47.6500 N   0  0  0  0  0  0  0  0  0  0  0  0
   45.3090   34.2030   48.0160 H   0  0  0  0  0  0  0  0  0  0  0  0
   44.2070   32.9940   48.4440 H   0  0  0  0  0  0  0  0  0  0  0  0
  1 23  1  0  0  0  0
  2  1  2  0  0  0  0
  3  4  1  0  0  0  0
  4  5  2  0  0  0  0
  4  1  1  0  0  0  0
  5  9  1  0  0  0  0
  6 10  1  0  0  0  0
  6  5  1  0  0  0  0
  7  6  2  0  0  0  0
  8  7  1  0  0  0  0
  8  3  2  0  0  0  0
 11  7  1  0  0  0  0
 12  8  1  0  0  0  0
 13  3  1  0  0  0  0
 13 20  1  0  0  0  0
 14 13  2  0  0  0  0
 15 13  2  0  0  0  0
 17 18  1  0  0  0  0
 17 16  1  0  0  0  0
 19 18  1  0  0  0  0
 20 19  1  0  0  0  0
 21 20  1  0  0  0  0
 21 22  1  0  0  0  0
 22 17  1  0  0  0  0
 23 24  2  0  0  0  0
 23 28  1  0  0  0  0
 24 25  1  0  0  0  0
 25 30  1  0  0  0  0
 25 26  2  0  0  0  0
 27 26  1  0  0  0  0
 27 31  1  0  0  0  0
 28 27  2  0  0  0  0
 29 24  1  0  0  0  0
 31 34  1  6  0  0  0
 31 32  1  0  0  0  0
 31 33  1  0  0  0  0
 32 35  1  0  0  0  0
 32 36  1  0  0  0  0
 32 33  1  0  0  0  0
 33 37  1  1  0  0  0
 33 38  1  0  0  0  0
 38 39  1  0  0  0  0
 38 40  1  0  0  0  0
M  END
>  <minimizedAffinity>
-5.67001247

>  <minimizedRMSD>
0.82543087

$$$$
