
 OpenBabel03252506383D

 42 45  0  0  1  0  0  0  0  0999 V2000
   44.5060   35.5420   45.1400 C   0  0  0  0  0  0  0  0  0  0  0  0
   45.1550   35.5330   43.8870 C   0  0  0  0  0  0  0  0  0  0  0  0
   46.0670   34.5700   43.6220 C   0  0  0  0  0  0  0  0  0  0  0  0
   46.3060   33.6570   44.5960 N   0  0  0  0  0  0  0  0  0  0  0  0
   45.6930   33.6710   45.7700 C   0  0  0  0  0  0  0  0  0  0  0  0
   44.7920   34.6060   46.0590 N   0  0  0  0  0  0  0  0  0  0  0  0
   46.0260   32.6550   46.7330 N   0  0  0  0  0  0  0  0  0  0  0  0
   45.2970   32.4070   47.9210 C   0  0  0  0  0  0  0  0  0  0  0  0
   46.3750   32.0540   48.9270 C   0  0  0  0  0  0  0  0  0  0  0  0
   47.6510   31.9490   48.1490 C   0  0  0  0  0  0  0  0  0  0  0  0
   47.1450   31.7410   46.7210 C   0  0  1  0  0  0  0  0  0  0  0  0
   43.7700   36.3300   45.3370 H   0  0  0  0  0  0  0  0  0  0  0  0
   46.5750   34.5400   42.6770 H   0  0  0  0  0  0  0  0  0  0  0  0
   44.9330   33.4220   48.2840 H   0  0  0  0  0  0  0  0  0  0  0  0
   44.4880   31.7630   48.0300 H   0  0  0  0  0  0  0  0  0  0  0  0
   46.4040   32.6980   49.8080 H   0  0  0  0  0  0  0  0  0  0  0  0
   46.1700   31.0200   49.3330 H   0  0  0  0  0  0  0  0  0  0  0  0
   48.2520   31.0870   48.4650 H   0  0  0  0  0  0  0  0  0  0  0  0
   48.1900   32.9130   48.2390 H   0  0  0  0  0  0  0  0  0  0  0  0
   47.9480   32.0380   46.0450 H   0  0  0  0  0  0  0  0  0  0  0  0
   44.8010   36.5670   42.9510 N   0  0  0  0  0  0  0  0  0  0  0  0
   44.4480   37.4910   43.2300 H   0  0  0  0  0  0  0  0  0  0  0  0
   44.9300   36.3030   41.9360 H   0  0  0  0  0  0  0  0  0  0  0  0
   46.6290   30.0530   46.5290 S   0  0  0  0  0  0  0  0  0  0  0  0
   45.6830   30.5700   43.3710 O   0  0  0  0  0  0  0  0  0  0  0  0
   45.0330   30.0190   44.2730 C   0  0  0  0  0  0  0  0  0  0  0  0
   45.0980   29.7740   45.7380 C   0  0  1  0  0  0  0  0  0  0  0  0
   44.5700   28.3660   45.8280 C   0  0  0  0  0  0  0  0  0  0  0  0
   43.2700   28.5840   45.0490 C   0  0  0  0  0  0  0  0  0  0  0  0
   43.7910   29.3660   43.9350 N   0  0  0  0  0  0  0  0  0  0  0  0
   44.2070   30.3640   46.0780 H   0  0  0  0  0  0  0  0  0  0  0  0
   44.3220   28.0310   46.8430 H   0  0  0  0  0  0  0  0  0  0  0  0
   45.1620   27.6460   45.2370 H   0  0  0  0  0  0  0  0  0  0  0  0
   42.8870   27.6020   44.7560 H   0  0  0  0  0  0  0  0  0  0  0  0
   42.5950   29.1540   45.7110 H   0  0  0  0  0  0  0  0  0  0  0  0
   40.2310   30.5310   40.8470 H   0  0  0  0  0  0  0  0  0  0  0  0
   40.3150   29.8710   41.6540 N   0  0  0  0  0  0  0  0  0  0  0  0
   41.1300   28.7140   41.3800 C   0  0  0  0  0  2  0  0  0  0  0  0
   42.0030   28.3530   42.5860 C   0  0  0  0  0  2  0  0  0  0  0  0
   43.0520   29.4050   42.6750 C   0  0  0  0  0  3  0  0  0  0  0  0
   42.3700   30.7600   42.4840 C   0  0  0  0  0  2  0  0  0  0  0  0
   40.8800   30.6440   42.7470 C   0  0  0  0  0  2  0  0  0  0  0  0
  1 12  1  0  0  0  0
  1  6  1  0  0  0  0
  2  1  2  0  0  0  0
  3  2  1  0  0  0  0
  3  4  2  0  0  0  0
  4  5  1  0  0  0  0
  5  6  2  0  0  0  0
  5  7  1  0  0  0  0
  7  8  1  0  0  0  0
  8 15  1  0  0  0  0
  8 14  1  0  0  0  0
  8  9  1  0  0  0  0
  9 17  1  0  0  0  0
  9 16  1  0  0  0  0
 10 19  1  0  0  0  0
 10 18  1  0  0  0  0
 10  9  1  0  0  0  0
 11 20  1  6  0  0  0
 11  7  1  0  0  0  0
 11 10  1  0  0  0  0
 13  3  1  0  0  0  0
 21 22  1  0  0  0  0
 21  2  1  0  0  0  0
 23 21  1  0  0  0  0
 24 11  1  0  0  0  0
 25 26  2  0  0  0  0
 26 27  1  0  0  0  0
 27 28  1  0  0  0  0
 27 31  1  1  0  0  0
 27 24  1  0  0  0  0
 28 32  1  0  0  0  0
 29 35  1  0  0  0  0
 29 28  1  0  0  0  0
 30 26  1  0  0  0  0
 30 29  1  0  0  0  0
 33 28  1  0  0  0  0
 34 29  1  0  0  0  0
 36 37  1  0  0  0  0
 37 42  1  0  0  0  0
 38 37  1  0  0  0  0
 38 39  1  0  0  0  0
 39 40  1  0  0  0  0
 40 30  1  0  0  0  0
 41 40  1  0  0  0  0
 41 42  1  0  0  0  0
M  END
>  <minimizedAffinity>
-5.5945096

>  <minimizedRMSD>
0.555662334

$$$$
