
 OpenBabel03252506383D

 42 45  0  0  1  0  0  0  0  0999 V2000
   44.4950   35.5660   45.1440 C   0  0  0  0  0  0  0  0  0  0  0  0
   45.1540   35.5710   43.8960 C   0  0  0  0  0  0  0  0  0  0  0  0
   46.0730   34.6150   43.6310 C   0  0  0  0  0  0  0  0  0  0  0  0
   46.3090   33.6950   44.6010 N   0  0  0  0  0  0  0  0  0  0  0  0
   45.6860   33.6960   45.7700 C   0  0  0  0  0  0  0  0  0  0  0  0
   44.7770   34.6250   46.0580 N   0  0  0  0  0  0  0  0  0  0  0  0
   46.0150   32.6750   46.7270 N   0  0  0  0  0  0  0  0  0  0  0  0
   45.2770   32.4140   47.9070 C   0  0  0  0  0  0  0  0  0  0  0  0
   46.3480   32.0580   48.9200 C   0  0  0  0  0  0  0  0  0  0  0  0
   47.6320   31.9660   48.1520 C   0  0  0  0  0  0  0  0  0  0  0  0
   47.1390   31.7670   46.7180 C   0  0  1  0  0  0  0  0  0  0  0  0
   43.7520   36.3490   45.3410 H   0  0  0  0  0  0  0  0  0  0  0  0
   46.5900   34.5940   42.6910 H   0  0  0  0  0  0  0  0  0  0  0  0
   44.9050   33.4240   48.2740 H   0  0  0  0  0  0  0  0  0  0  0  0
   44.4710   31.7650   48.0040 H   0  0  0  0  0  0  0  0  0  0  0  0
   46.3660   32.6950   49.8060 H   0  0  0  0  0  0  0  0  0  0  0  0
   46.1450   31.0200   49.3150 H   0  0  0  0  0  0  0  0  0  0  0  0
   48.2350   31.1050   48.4670 H   0  0  0  0  0  0  0  0  0  0  0  0
   48.1650   32.9320   48.2540 H   0  0  0  0  0  0  0  0  0  0  0  0
   47.9460   32.0730   46.0510 H   0  0  0  0  0  0  0  0  0  0  0  0
   44.8030   36.6100   42.9650 N   0  0  0  0  0  0  0  0  0  0  0  0
   44.4420   37.5300   43.2480 H   0  0  0  0  0  0  0  0  0  0  0  0
   44.9420   36.3550   41.9500 H   0  0  0  0  0  0  0  0  0  0  0  0
   46.6340   30.0780   46.5090 S   0  0  0  0  0  0  0  0  0  0  0  0
   45.6970   30.7650   43.3800 O   0  0  0  0  0  0  0  0  0  0  0  0
   45.0590   30.1330   44.2380 C   0  0  0  0  0  0  0  0  0  0  0  0
   45.1210   29.7960   45.6840 C   0  0  1  0  0  0  0  0  0  0  0  0
   44.6440   28.3670   45.6770 C   0  0  0  0  0  0  0  0  0  0  0  0
   43.3430   28.5890   44.9000 C   0  0  0  0  0  0  0  0  0  0  0  0
   43.8450   29.4600   43.8450 N   0  0  0  0  0  0  0  0  0  0  0  0
   44.2060   30.3300   46.0520 H   0  0  0  0  0  0  0  0  0  0  0  0
   44.3990   27.9590   46.6660 H   0  0  0  0  0  0  0  0  0  0  0  0
   45.2660   27.7090   45.0470 H   0  0  0  0  0  0  0  0  0  0  0  0
   42.9990   27.6150   44.5410 H   0  0  0  0  0  0  0  0  0  0  0  0
   42.6420   29.0900   45.5900 H   0  0  0  0  0  0  0  0  0  0  0  0
   43.1890   29.7600   39.0440 H   0  0  0  0  0  0  0  0  0  0  0  0
   43.5090   30.4260   39.7840 N   0  0  0  0  0  0  0  0  0  0  0  0
   42.4580   30.8720   40.6640 C   0  0  0  0  0  2  0  0  0  0  0  0
   42.9470   30.9570   42.1140 C   0  0  0  0  0  2  0  0  0  0  0  0
   43.1150   29.5540   42.5820 C   0  0  0  0  0  3  0  0  0  0  0  0
   43.8310   28.7740   41.4780 C   0  0  0  0  0  2  0  0  0  0  0  0
   44.5380   29.7280   40.5330 C   0  0  0  0  0  2  0  0  0  0  0  0
  1 12  1  0  0  0  0
  1  6  1  0  0  0  0
  2  1  2  0  0  0  0
  3  2  1  0  0  0  0
  3  4  2  0  0  0  0
  4  5  1  0  0  0  0
  5  6  2  0  0  0  0
  5  7  1  0  0  0  0
  7  8  1  0  0  0  0
  8 15  1  0  0  0  0
  8 14  1  0  0  0  0
  8  9  1  0  0  0  0
  9 17  1  0  0  0  0
  9 16  1  0  0  0  0
 10 19  1  0  0  0  0
 10 18  1  0  0  0  0
 10  9  1  0  0  0  0
 11 20  1  6  0  0  0
 11  7  1  0  0  0  0
 11 10  1  0  0  0  0
 13  3  1  0  0  0  0
 21 22  1  0  0  0  0
 21  2  1  0  0  0  0
 23 21  1  0  0  0  0
 24 11  1  0  0  0  0
 25 26  2  0  0  0  0
 26 27  1  0  0  0  0
 27 31  1  1  0  0  0
 27 24  1  0  0  0  0
 28 27  1  0  0  0  0
 28 32  1  0  0  0  0
 29 35  1  0  0  0  0
 29 28  1  0  0  0  0
 30 26  1  0  0  0  0
 30 29  1  0  0  0  0
 33 28  1  0  0  0  0
 34 29  1  0  0  0  0
 36 37  1  0  0  0  0
 37 42  1  0  0  0  0
 37 38  1  0  0  0  0
 38 39  1  0  0  0  0
 39 40  1  0  0  0  0
 40 30  1  0  0  0  0
 41 40  1  0  0  0  0
 42 41  1  0  0  0  0
M  END
>  <minimizedAffinity>
-5.17117262

>  <minimizedRMSD>
0.39763549

$$$$
