
 OpenBabel03252506383D

 42 45  0  0  1  0  0  0  0  0999 V2000
   44.5040   35.5380   45.1350 C   0  0  0  0  0  0  0  0  0  0  0  0
   45.1570   35.5270   43.8840 C   0  0  0  0  0  0  0  0  0  0  0  0
   46.0720   34.5640   43.6240 C   0  0  0  0  0  0  0  0  0  0  0  0
   46.3080   33.6540   44.6020 N   0  0  0  0  0  0  0  0  0  0  0  0
   45.6920   33.6700   45.7740 C   0  0  0  0  0  0  0  0  0  0  0  0
   44.7880   34.6050   46.0570 N   0  0  0  0  0  0  0  0  0  0  0  0
   46.0220   32.6570   46.7400 N   0  0  0  0  0  0  0  0  0  0  0  0
   45.2890   32.4120   47.9270 C   0  0  0  0  0  0  0  0  0  0  0  0
   46.3640   32.0620   48.9370 C   0  0  0  0  0  0  0  0  0  0  0  0
   47.6440   31.9570   48.1640 C   0  0  0  0  0  0  0  0  0  0  0  0
   47.1430   31.7450   46.7350 C   0  0  1  0  0  0  0  0  0  0  0  0
   43.7660   36.3250   45.3270 H   0  0  0  0  0  0  0  0  0  0  0  0
   46.5830   34.5320   42.6810 H   0  0  0  0  0  0  0  0  0  0  0  0
   44.9230   33.4270   48.2850 H   0  0  0  0  0  0  0  0  0  0  0  0
   44.4820   31.7660   48.0340 H   0  0  0  0  0  0  0  0  0  0  0  0
   46.3900   32.7090   49.8160 H   0  0  0  0  0  0  0  0  0  0  0  0
   46.1600   31.0290   49.3450 H   0  0  0  0  0  0  0  0  0  0  0  0
   48.2450   31.0970   48.4840 H   0  0  0  0  0  0  0  0  0  0  0  0
   48.1810   32.9220   48.2530 H   0  0  0  0  0  0  0  0  0  0  0  0
   47.9470   32.0410   46.0610 H   0  0  0  0  0  0  0  0  0  0  0  0
   44.8050   36.5570   42.9440 N   0  0  0  0  0  0  0  0  0  0  0  0
   44.4500   37.4810   43.2190 H   0  0  0  0  0  0  0  0  0  0  0  0
   44.9380   36.2910   41.9310 H   0  0  0  0  0  0  0  0  0  0  0  0
   46.6300   30.0560   46.5460 S   0  0  0  0  0  0  0  0  0  0  0  0
   45.7180   30.5520   43.3740 O   0  0  0  0  0  0  0  0  0  0  0  0
   45.0580   30.0070   44.2730 C   0  0  0  0  0  0  0  0  0  0  0  0
   45.1070   29.7720   45.7400 C   0  0  1  0  0  0  0  0  0  0  0  0
   44.5790   28.3640   45.8330 C   0  0  0  0  0  0  0  0  0  0  0  0
   43.2870   28.5780   45.0390 C   0  0  0  0  0  0  0  0  0  0  0  0
   43.8200   29.3520   43.9260 N   0  0  0  0  0  0  0  0  0  0  0  0
   44.2130   30.3640   46.0660 H   0  0  0  0  0  0  0  0  0  0  0  0
   44.3190   28.0370   46.8480 H   0  0  0  0  0  0  0  0  0  0  0  0
   45.1760   27.6410   45.2530 H   0  0  0  0  0  0  0  0  0  0  0  0
   42.9070   27.5930   44.7490 H   0  0  0  0  0  0  0  0  0  0  0  0
   42.6050   29.1520   45.6900 H   0  0  0  0  0  0  0  0  0  0  0  0
   40.2410   30.4110   40.8210 H   0  0  0  0  0  0  0  0  0  0  0  0
   40.3490   29.7370   41.6130 N   0  0  0  0  0  0  0  0  0  0  0  0
   41.2230   28.6270   41.3240 C   0  0  0  0  0  2  0  0  0  0  0  0
   42.1000   28.2820   42.5330 C   0  0  0  0  0  2  0  0  0  0  0  0
   43.0940   29.3830   42.6580 C   0  0  0  0  0  3  0  0  0  0  0  0
   42.3490   30.7080   42.4880 C   0  0  0  0  0  2  0  0  0  0  0  0
   40.8640   30.5120   42.7290 C   0  0  0  0  0  2  0  0  0  0  0  0
  1 12  1  0  0  0  0
  1  6  1  0  0  0  0
  2  1  2  0  0  0  0
  3  2  1  0  0  0  0
  3  4  2  0  0  0  0
  4  5  1  0  0  0  0
  5  6  2  0  0  0  0
  5  7  1  0  0  0  0
  7  8  1  0  0  0  0
  8 15  1  0  0  0  0
  8 14  1  0  0  0  0
  8  9  1  0  0  0  0
  9 17  1  0  0  0  0
  9 16  1  0  0  0  0
 10 19  1  0  0  0  0
 10 18  1  0  0  0  0
 10  9  1  0  0  0  0
 11 20  1  6  0  0  0
 11  7  1  0  0  0  0
 11 10  1  0  0  0  0
 13  3  1  0  0  0  0
 21 22  1  0  0  0  0
 21  2  1  0  0  0  0
 23 21  1  0  0  0  0
 24 11  1  0  0  0  0
 25 26  2  0  0  0  0
 26 27  1  0  0  0  0
 27 28  1  0  0  0  0
 27 31  1  1  0  0  0
 27 24  1  0  0  0  0
 28 32  1  0  0  0  0
 29 35  1  0  0  0  0
 29 28  1  0  0  0  0
 30 26  1  0  0  0  0
 30 29  1  0  0  0  0
 33 28  1  0  0  0  0
 34 29  1  0  0  0  0
 36 37  1  0  0  0  0
 37 42  1  0  0  0  0
 38 37  1  0  0  0  0
 38 39  1  0  0  0  0
 39 40  1  0  0  0  0
 40 30  1  0  0  0  0
 41 40  1  0  0  0  0
 41 42  1  0  0  0  0
M  END
>  <minimizedAffinity>
-5.56283188

>  <minimizedRMSD>
0.245082021

$$$$
