
     RDKit          3D

 51 54  0  0  0  0  0  0  0  0999 V2000
   45.1298   36.0140   42.9154 C   0  0  0  0  0  0  0  0  0  0  0  0
   45.3731   34.6453   42.9052 C   0  0  0  0  0  0  0  0  0  0  0  0
   45.2155   33.9195   44.0609 C   0  0  0  0  0  0  0  0  0  0  0  0
   44.8137   34.6089   45.1881 N   0  0  0  0  0  0  0  0  0  0  0  0
   44.5829   35.9197   45.1875 C   0  0  0  0  0  0  0  0  0  0  0  0
   44.7459   36.6122   44.0401 N   0  0  0  0  0  0  0  0  0  0  0  0
   45.4202   32.5296   44.2192 C   0  0  0  0  0  0  0  0  0  0  0  0
   44.9405   31.5614   43.3324 C   0  0  0  0  0  0  0  0  0  0  0  0
   45.0783   30.2110   43.5193 C   0  0  0  0  0  0  0  0  0  0  0  0
   45.7228   29.7411   44.6382 C   0  0  0  0  0  0  0  0  0  0  0  0
   46.2204   30.7088   45.5534 C   0  0  0  0  0  0  0  0  0  0  0  0
   46.8624   30.2502   46.6749 C   0  0  0  0  0  0  0  0  0  0  0  0
   47.3700   31.1344   47.6034 C   0  0  0  0  0  0  0  0  0  0  0  0
   47.2258   32.5185   47.3911 C   0  0  0  0  0  0  0  0  0  0  0  0
   46.5587   32.9377   46.2259 C   0  0  0  0  0  0  0  0  0  0  0  0
   46.0623   32.0361   45.3251 C   0  0  0  0  0  0  0  0  0  0  0  0
   45.7595   34.0883   41.7234 O   0  0  0  0  0  0  0  0  0  0  0  0
   47.6810   32.4297   41.0916 O   0  0  0  0  0  0  0  0  0  0  0  0
   47.3697   33.8757   41.2348 P   0  0  1  0  0  0  0  0  0  0  0  0
   47.6487   34.6168   39.7535 O   0  0  0  0  0  0  0  0  0  0  0  0
   48.3619   34.5897   42.3856 O   0  0  0  0  0  0  0  0  0  0  0  0
   49.5346   35.2904   42.1499 C   0  0  0  0  0  0  0  0  0  0  0  0
   49.2035   36.2118   41.3811 O   0  0  0  0  0  0  0  0  0  0  0  0
   50.6398   34.6993   42.8622 N   0  0  0  0  0  0  0  0  0  0  0  0
   45.2389   36.6348   42.0345 H   0  0  0  0  0  0  0  0  0  0  0  0
   44.2717   36.4656   46.0534 H   0  0  0  0  0  0  0  0  0  0  0  0
   44.4296   31.9401   42.4472 H   0  0  0  0  0  0  0  0  0  0  0  0
   44.7075   29.4727   42.8333 H   0  0  0  0  0  0  0  0  0  0  0  0
   45.8718   28.6931   44.8603 H   0  0  0  0  0  0  0  0  0  0  0  0
   46.9822   29.1912   46.8514 H   0  0  0  0  0  0  0  0  0  0  0  0
   47.8688   30.7206   48.4757 H   0  0  0  0  0  0  0  0  0  0  0  0
   47.6536   33.1173   48.1645 H   0  0  0  0  0  0  0  0  0  0  0  0
   46.5708   34.0063   46.2332 H   0  0  0  0  0  0  0  0  0  0  0  0
   51.4782   34.2226   42.4284 H   0  0  0  0  0  0  0  0  0  0  0  0
   50.5968   34.7536   43.9194 H   0  0  0  0  0  0  0  0  0  0  0  0
   47.1452   30.0824   38.2603 H   0  0  0  0  0  0  0  0  0  0  0  0
   47.3724   31.0424   38.6249 N   0  0  0  0  0  0  0  0  0  0  0  0
   46.4565   31.9635   38.0462 C   0  0  0  0  0  0  0  0  0  0  0  0
   46.8981   33.3725   37.9163 C   0  0  0  0  0  0  0  0  0  0  0  0
   48.0805   33.7870   38.7377 C   0  0  0  0  0  0  0  0  0  0  0  0
   48.9687   32.6851   39.1743 C   0  0  0  0  0  0  0  0  0  0  0  0
   48.7210   31.4548   38.3253 C   0  0  0  0  0  0  0  0  0  0  0  0
   46.0443   31.5530   37.0796 H   0  0  0  0  0  0  0  0  0  0  0  0
   45.5473   31.9570   38.7177 H   0  0  0  0  0  0  0  0  0  0  0  0
   47.1207   33.5181   36.8274 H   0  0  0  0  0  0  0  0  0  0  0  0
   46.0195   34.0642   38.0667 H   0  0  0  0  0  0  0  0  0  0  0  0
   48.7034   34.4594   38.1053 H   0  0  0  0  0  0  0  0  0  0  0  0
   50.0392   32.9400   39.0475 H   0  0  0  0  0  0  0  0  0  0  0  0
   48.8574   32.3776   40.2295 H   0  0  0  0  0  0  0  0  0  0  0  0
   48.9198   31.6511   37.2703 H   0  0  0  0  0  0  0  0  0  0  0  0
   49.3833   30.6220   38.6483 H   0  0  0  0  0  0  0  0  0  0  0  0
  1  6  2  0
  2  1  1  0
  2  3  2  0
  3  7  1  0
  3  4  1  0
  5  4  2  0
  6  5  1  0
  7 16  2  0
  8  9  2  0
  8  7  1  0
  9 10  1  0
 10 11  2  0
 11 12  1  0
 12 13  2  0
 14 13  1  0
 15 14  2  0
 16 11  1  0
 16 15  1  0
 17  2  1  0
 19 18  2  0
 19 17  1  1
 19 21  1  0
 20 19  1  0
 22 21  1  0
 22 24  1  0
 23 22  2  0
  1 25  1  0
  5 26  1  0
  8 27  1  0
  9 28  1  0
 10 29  1  0
 12 30  1  0
 13 31  1  0
 14 32  1  0
 15 33  1  0
 24 34  1  0
 24 35  1  0
 36 37  1  0
 37 38  1  0
 38 39  1  0
 39 40  1  0
 40 41  1  0
 41 42  1  0
 42 37  1  0
 38 43  1  0
 38 44  1  0
 39 45  1  0
 39 46  1  0
 40 47  1  0
 41 48  1  0
 41 49  1  0
 42 50  1  0
 42 51  1  0
 20 40  1  0
M  ISO  8  25  14  26  14  27  14  28  14  29  14  30  14  31  14  32  14
M  ISO  2  33  14  36   5
M  END
>  <DihAtoms>  (1) 
18,19,39,38

>  <DihDeg>  (1) 
-113.9537423308116

$$$$
