
 OpenBabel03242520473D

 26 27  0  0  0  0  0  0  0  0999 V2000
   44.5890   33.8280   42.2010 C   0  0  0  0  0  0  0  0  0  0  0  0
   44.7120   33.0630   43.1830 O   0  0  0  0  0  0  0  0  0  0  0  0
   42.6160   34.6100   39.1740 C   0  0  0  0  0  0  0  0  0  0  0  0
   43.6840   34.5420   40.0880 C   0  0  0  0  0  0  0  0  0  0  0  0
   43.4610   33.8740   41.2920 C   0  0  0  0  0  0  0  0  0  0  0  0
   42.2540   33.3290   41.5350 N   0  0  0  0  0  0  0  0  0  0  0  0
   41.2570   33.4270   40.6150 C   0  0  0  0  0  0  0  0  0  0  0  0
   41.4500   34.0580   39.4620 N   0  0  0  0  0  0  0  0  0  0  0  0
   42.8190   35.2850   37.9380 N   0  0  0  0  0  0  0  0  0  0  0  0
   44.6020   35.0080   39.7960 H   0  0  0  0  0  0  0  0  0  0  0  0
   40.3100   32.9640   40.8760 H   0  0  0  0  0  0  0  0  0  0  0  0
   43.4950   36.0200   37.7050 H   0  0  0  0  0  0  0  0  0  0  0  0
   42.2510   35.0730   37.0910 H   0  0  0  0  0  0  0  0  0  0  0  0
   45.5660   34.7720   41.8480 O   0  0  0  0  0  0  0  0  0  0  0  0
   48.0320   35.8130   41.9250 O   0  0  0  0  0  0  0  0  0  0  0  0
   47.2360   34.5740   42.1440 P   0  0  1  0  0  0  0  0  0  0  0  0
   47.3680   34.1470   43.7850 O   0  0  0  0  0  0  0  0  0  0  0  0
   47.8920   33.3150   43.8980 H   0  0  0  0  0  0  0  0  0  0  0  0
   47.7990   33.2910   41.2010 O   0  0  0  0  0  0  0  0  0  0  0  0
   52.3440   32.5240   40.7740 H   0  0  0  0  0  0  0  0  0  0  0  0
   51.6610   31.8650   41.2490 N   0  0  0  0  0  0  0  0  0  0  0  0
   51.2010   32.5850   42.4140 C   0  0  0  0  0  0  0  0  0  0  0  0
   50.0750   33.4950   41.9550 C   0  0  0  0  0  0  0  0  0  0  0  0
   48.8530   32.6210   41.7900 C   0  0  0  0  0  0  0  0  0  0  0  0
   49.2460   31.4680   40.8900 C   0  0  0  0  0  0  0  0  0  0  0  0
   50.6210   31.6330   40.2830 C   0  0  0  0  0  0  0  0  0  0  0  0
  1  2  2  0  0  0  0
  3  8  2  0  0  0  0
  3  4  1  0  0  0  0
  4  5  2  0  0  0  0
  5  6  1  0  0  0  0
  5  1  1  0  0  0  0
  7 11  1  0  0  0  0
  7  6  2  0  0  0  0
  8  7  1  0  0  0  0
  9  3  1  0  0  0  0
 10  4  1  0  0  0  0
 12  9  1  0  0  0  0
 13  9  1  0  0  0  0
 14 16  1  0  0  0  0
 14  1  1  0  0  0  0
 16 15  2  6  0  0  0
 16 17  1  0  0  0  0
 17 18  1  0  0  0  0
 19 24  1  0  0  0  0
 19 16  1  0  0  0  0
 20 21  1  0  0  0  0
 21 22  1  0  0  0  0
 23 22  1  0  0  0  0
 24 23  1  0  0  0  0
 25 24  1  0  0  0  0
 26 25  1  0  0  0  0
 26 21  1  0  0  0  0
M  END
>  <minimizedAffinity>
-4.34328365

>  <minimizedRMSD>
4.68479872

$$$$
