
 OpenBabel03252502253D

 32 34  0  0  1  0  0  0  0  0999 V2000
   36.7950   28.3220   40.9680 N   0  0  0  0  0  0  0  0  0  0  0  0
   36.9630   27.0630   41.6940 C   0  0  0  0  0  0  0  0  0  0  0  0
   36.6290   27.4180   43.1460 C   0  0  0  0  0  0  0  0  0  0  0  0
   37.6830   28.3560   43.6790 C   0  0  0  0  0  0  0  0  0  0  0  0
   38.0670   29.4400   42.7390 C   0  0  0  0  0  0  0  0  0  0  0  0
   37.2260   29.5720   41.5030 C   0  0  1  0  0  0  0  0  0  0  0  0
   38.0260   26.7600   41.6520 H   0  0  0  0  0  0  0  0  0  0  0  0
   36.3140   26.2790   41.3060 H   0  0  0  0  0  0  0  0  0  0  0  0
   35.6140   27.8470   43.1870 H   0  0  0  0  0  0  0  0  0  0  0  0
   36.7090   26.4470   43.6970 H   0  0  0  0  0  0  0  0  0  0  0  0
   37.3270   28.7090   44.6660 H   0  0  0  0  0  0  0  0  0  0  0  0
   38.5960   27.7310   43.8700 H   0  0  0  0  0  0  0  0  0  0  0  0
   39.1430   29.4050   42.4610 H   0  0  0  0  0  0  0  0  0  0  0  0
   37.9430   30.4060   43.3010 H   0  0  0  0  0  0  0  0  0  0  0  0
   36.3070   30.1770   41.6890 H   0  0  0  0  0  0  0  0  0  0  0  0
   34.3920   28.8630   38.1680 C   0  0  0  0  0  0  0  0  0  0  0  0
   34.9200   28.8990   39.4610 C   0  0  0  0  0  0  0  0  0  0  0  0
   36.1820   28.3290   39.6840 C   0  0  0  0  0  0  0  0  0  0  0  0
   36.8080   27.7750   38.6100 N   0  0  0  0  0  0  0  0  0  0  0  0
   36.2690   27.7560   37.3690 C   0  0  0  0  0  0  0  0  0  0  0  0
   35.0520   28.3070   37.1640 N   0  0  0  0  0  0  0  0  0  0  0  0
   33.4160   29.3260   38.0970 H   0  0  0  0  0  0  0  0  0  0  0  0
   34.3820   29.3570   40.3040 H   0  0  0  0  0  0  0  0  0  0  0  0
   36.8560   27.2840   36.5700 H   0  0  0  0  0  0  0  0  0  0  0  0
   38.0230   30.2100   40.5400 O   0  0  0  0  0  0  0  0  0  0  0  0
   39.0580   33.9430   38.6350 H   0  0  0  0  0  0  0  0  0  0  0  0
   38.5450   34.1610   39.4980 N   0  0  0  0  0  0  0  0  0  0  0  0
   39.3100   33.6070   40.5960 C   0  0  0  0  0  2  0  0  0  0  0  0
   39.3030   32.1150   40.4540 C   0  0  0  0  0  2  0  0  0  0  0  0
   37.8800   31.5740   40.5210 C   0  0  0  0  0  3  0  0  0  0  0  0
   37.1660   32.1350   39.3380 C   0  0  0  0  0  2  0  0  0  0  0  0
   37.2060   33.6610   39.4880 C   0  0  0  0  0  2  0  0  0  0  0  0
  1  6  1  0  0  0  0
  1  2  1  0  0  0  0
  2  3  1  0  0  0  0
  3  9  1  0  0  0  0
  3  4  1  0  0  0  0
  3 10  1  0  0  0  0
  4 12  1  0  0  0  0
  4 11  1  0  0  0  0
  5 14  1  0  0  0  0
  5  4  1  0  0  0  0
  6 15  1  1  0  0  0
  6  5  1  0  0  0  0
  7  2  1  0  0  0  0
  8  2  1  0  0  0  0
 13  5  1  0  0  0  0
 16 17  1  0  0  0  0
 17 18  2  0  0  0  0
 17 23  1  0  0  0  0
 18  1  1  0  0  0  0
 19 18  1  0  0  0  0
 20 19  2  0  0  0  0
 21 20  1  0  0  0  0
 21 16  2  0  0  0  0
 22 16  1  0  0  0  0
 24 20  1  0  0  0  0
 25  6  1  0  0  0  0
 26 27  1  0  0  0  0
 27 28  1  0  0  0  0
 29 30  1  0  0  0  0
 29 28  1  0  0  0  0
 30 25  1  0  0  0  0
 31 32  1  0  0  0  0
 31 30  1  0  0  0  0
 32 27  1  0  0  0  0
M  END
>  <minimizedAffinity>
-5.1823411

$$$$

 OpenBabel03252502253D

 32 34  0  0  1  0  0  0  0  0999 V2000
   37.0790   30.6340   39.5540 N   0  0  0  0  0  0  0  0  0  0  0  0
   37.0790   29.8590   38.3120 C   0  0  0  0  0  0  0  0  0  0  0  0
   35.6080   29.4850   38.1030 C   0  0  0  0  0  0  0  0  0  0  0  0
   35.1820   28.5340   39.1940 C   0  0  0  0  0  0  0  0  0  0  0  0
   35.6450   28.9160   40.5520 C   0  0  0  0  0  0  0  0  0  0  0  0
   36.2800   30.2710   40.6770 C   0  0  1  0  0  0  0  0  0  0  0  0
   37.6520   28.9260   38.4680 H   0  0  0  0  0  0  0  0  0  0  0  0
   37.4780   30.4320   37.4750 H   0  0  0  0  0  0  0  0  0  0  0  0
   35.0030   30.4060   38.0780 H   0  0  0  0  0  0  0  0  0  0  0  0
   35.5970   28.9330   37.1290 H   0  0  0  0  0  0  0  0  0  0  0  0
   34.0860   28.4100   39.1000 H   0  0  0  0  0  0  0  0  0  0  0  0
   35.6410   27.5400   38.9440 H   0  0  0  0  0  0  0  0  0  0  0  0
   36.3040   28.1470   41.0130 H   0  0  0  0  0  0  0  0  0  0  0  0
   34.7290   28.9430   41.2030 H   0  0  0  0  0  0  0  0  0  0  0  0
   35.5180   31.0760   40.8050 H   0  0  0  0  0  0  0  0  0  0  0  0
   38.2240   34.1590   39.9740 C   0  0  0  0  0  0  0  0  0  0  0  0
   37.3510   33.0720   39.8690 C   0  0  0  0  0  0  0  0  0  0  0  0
   37.8940   31.7950   39.6710 C   0  0  0  0  0  0  0  0  0  0  0  0
   39.2500   31.7050   39.5920 N   0  0  0  0  0  0  0  0  0  0  0  0
   40.0680   32.7780   39.6970 C   0  0  0  0  0  0  0  0  0  0  0  0
   39.5350   34.0050   39.8880 N   0  0  0  0  0  0  0  0  0  0  0  0
   37.7110   35.0990   40.1260 H   0  0  0  0  0  0  0  0  0  0  0  0
   36.2590   33.1860   39.9390 H   0  0  0  0  0  0  0  0  0  0  0  0
   41.1490   32.5980   39.6200 H   0  0  0  0  0  0  0  0  0  0  0  0
   37.1090   30.2230   41.8090 O   0  0  0  0  0  0  0  0  0  0  0  0
   39.8770   27.7840   44.0500 H   0  0  0  0  0  0  0  0  0  0  0  0
   39.3590   27.1680   43.4110 N   0  0  0  0  0  0  0  0  0  0  0  0
   39.6370   27.6260   42.0650 C   0  0  0  0  0  2  0  0  0  0  0  0
   39.0470   28.9960   41.9170 C   0  0  0  0  0  2  0  0  0  0  0  0
   37.5380   28.9590   42.1250 C   0  0  0  0  0  3  0  0  0  0  0  0
   37.3250   28.5370   43.5400 C   0  0  0  0  0  2  0  0  0  0  0  0
   37.9560   27.1450   43.6790 C   0  0  0  0  0  2  0  0  0  0  0  0
  1 18  1  0  0  0  0
  1  6  1  0  0  0  0
  2  7  1  0  0  0  0
  2  1  1  0  0  0  0
  3  2  1  0  0  0  0
  3  4  1  0  0  0  0
  4  5  1  0  0  0  0
  5  6  1  0  0  0  0
  5 13  1  0  0  0  0
  5 14  1  0  0  0  0
  6 15  1  1  0  0  0
  6 25  1  0  0  0  0
  8  2  1  0  0  0  0
  9  3  1  0  0  0  0
 10  3  1  0  0  0  0
 11  4  1  0  0  0  0
 12  4  1  0  0  0  0
 16 22  1  0  0  0  0
 17 23  1  0  0  0  0
 17 16  2  0  0  0  0
 18 17  1  0  0  0  0
 19 18  2  0  0  0  0
 19 20  1  0  0  0  0
 20 21  2  0  0  0  0
 21 16  1  0  0  0  0
 24 20  1  0  0  0  0
 25 30  1  0  0  0  0
 27 32  1  0  0  0  0
 27 26  1  0  0  0  0
 28 27  1  0  0  0  0
 29 28  1  0  0  0  0
 29 30  1  0  0  0  0
 30 31  1  0  0  0  0
 31 32  1  0  0  0  0
M  END
>  <minimizedAffinity>
-5.0446167

$$$$

 OpenBabel03252502253D

 32 34  0  0  1  0  0  0  0  0999 V2000
   36.9860   28.0690   40.7920 N   0  0  0  0  0  0  0  0  0  0  0  0
   36.9910   27.1290   41.9130 C   0  0  0  0  0  0  0  0  0  0  0  0
   37.0850   28.0250   43.1530 C   0  0  0  0  0  0  0  0  0  0  0  0
   38.4290   28.7070   43.1680 C   0  0  0  0  0  0  0  0  0  0  0  0
   38.8540   29.2480   41.8510 C   0  0  0  0  0  0  0  0  0  0  0  0
   37.8200   29.2250   40.7630 C   0  0  1  0  0  0  0  0  0  0  0  0
   37.9090   26.5140   41.8650 H   0  0  0  0  0  0  0  0  0  0  0  0
   36.0980   26.5060   41.9260 H   0  0  0  0  0  0  0  0  0  0  0  0
   36.2430   28.7370   43.1470 H   0  0  0  0  0  0  0  0  0  0  0  0
   37.0410   27.3120   44.0160 H   0  0  0  0  0  0  0  0  0  0  0  0
   38.4000   29.4550   43.9840 H   0  0  0  0  0  0  0  0  0  0  0  0
   39.1770   27.9270   43.4730 H   0  0  0  0  0  0  0  0  0  0  0  0
   39.7990   28.7910   41.4840 H   0  0  0  0  0  0  0  0  0  0  0  0
   39.1010   30.3320   42.0190 H   0  0  0  0  0  0  0  0  0  0  0  0
   37.1450   30.1120   40.8130 H   0  0  0  0  0  0  0  0  0  0  0  0
   35.3540   26.5750   37.7890 C   0  0  0  0  0  0  0  0  0  0  0  0
   36.2400   26.7140   38.8610 C   0  0  0  0  0  0  0  0  0  0  0  0
   36.1260   27.8480   39.6790 C   0  0  0  0  0  0  0  0  0  0  0  0
   35.1490   28.7410   39.3640 N   0  0  0  0  0  0  0  0  0  0  0  0
   34.3070   28.5770   38.3180 C   0  0  0  0  0  0  0  0  0  0  0  0
   34.4240   27.4810   37.5360 N   0  0  0  0  0  0  0  0  0  0  0  0
   35.5200   25.6700   37.2190 H   0  0  0  0  0  0  0  0  0  0  0  0
   37.0160   25.9680   39.0840 H   0  0  0  0  0  0  0  0  0  0  0  0
   33.5520   29.3570   38.1490 H   0  0  0  0  0  0  0  0  0  0  0  0
   38.5190   29.2320   39.5450 O   0  0  0  0  0  0  0  0  0  0  0  0
   39.6340   31.5100   36.0520 H   0  0  0  0  0  0  0  0  0  0  0  0
   39.2380   32.1610   36.7410 N   0  0  0  0  0  0  0  0  0  0  0  0
   40.0730   32.0870   37.9220 C   0  0  0  0  0  2  0  0  0  0  0  0
   39.9300   30.7100   38.4980 C   0  0  0  0  0  2  0  0  0  0  0  0
   38.4840   30.4400   38.8970 C   0  0  0  0  0  3  0  0  0  0  0  0
   37.6920   30.4760   37.6330 C   0  0  0  0  0  2  0  0  0  0  0  0
   37.8710   31.8820   37.0470 C   0  0  0  0  0  2  0  0  0  0  0  0
  1  2  1  0  0  0  0
  2  8  1  0  0  0  0
  2  3  1  0  0  0  0
  3  4  1  0  0  0  0
  3 10  1  0  0  0  0
  4 12  1  0  0  0  0
  4 11  1  0  0  0  0
  5 14  1  0  0  0  0
  5  4  1  0  0  0  0
  6  1  1  0  0  0  0
  6 15  1  1  0  0  0
  6  5  1  0  0  0  0
  7  2  1  0  0  0  0
  9  3  1  0  0  0  0
 13  5  1  0  0  0  0
 16 17  1  0  0  0  0
 17 23  1  0  0  0  0
 17 18  2  0  0  0  0
 18  1  1  0  0  0  0
 19 18  1  0  0  0  0
 20 19  2  0  0  0  0
 21 16  2  0  0  0  0
 21 20  1  0  0  0  0
 22 16  1  0  0  0  0
 24 20  1  0  0  0  0
 25  6  1  0  0  0  0
 26 27  1  0  0  0  0
 27 32  1  0  0  0  0
 27 28  1  0  0  0  0
 28 29  1  0  0  0  0
 29 30  1  0  0  0  0
 30 25  1  0  0  0  0
 31 30  1  0  0  0  0
 32 31  1  0  0  0  0
M  END
>  <minimizedAffinity>
-4.72845984

$$$$

 OpenBabel03252502253D

 32 34  0  0  1  0  0  0  0  0999 V2000
   37.7210   28.7470   40.7360 N   0  0  0  0  0  0  0  0  0  0  0  0
   37.2830   27.4870   41.3380 C   0  0  0  0  0  0  0  0  0  0  0  0
   36.5810   27.9130   42.6310 C   0  0  0  0  0  0  0  0  0  0  0  0
   37.6000   28.5010   43.5750 C   0  0  0  0  0  0  0  0  0  0  0  0
   38.5600   29.4340   42.9330 C   0  0  0  0  0  0  0  0  0  0  0  0
   38.2630   29.8140   41.5110 C   0  0  1  0  0  0  0  0  0  0  0  0
   38.1730   26.8890   41.6130 H   0  0  0  0  0  0  0  0  0  0  0  0
   36.6210   26.9290   40.6790 H   0  0  0  0  0  0  0  0  0  0  0  0
   35.7700   28.6180   42.3840 H   0  0  0  0  0  0  0  0  0  0  0  0
   36.2020   26.9560   43.0720 H   0  0  0  0  0  0  0  0  0  0  0  0
   37.0360   28.9340   44.4240 H   0  0  0  0  0  0  0  0  0  0  0  0
   38.1870   27.6360   43.9860 H   0  0  0  0  0  0  0  0  0  0  0  0
   39.6150   29.0900   43.0190 H   0  0  0  0  0  0  0  0  0  0  0  0
   38.5170   30.3900   43.5230 H   0  0  0  0  0  0  0  0  0  0  0  0
   37.5360   30.6580   41.4510 H   0  0  0  0  0  0  0  0  0  0  0  0
   36.6410   29.9570   37.3770 C   0  0  0  0  0  0  0  0  0  0  0  0
   36.6800   29.8260   38.7680 C   0  0  0  0  0  0  0  0  0  0  0  0
   37.6120   28.9410   39.3300 C   0  0  0  0  0  0  0  0  0  0  0  0
   38.4200   28.2650   38.4680 N   0  0  0  0  0  0  0  0  0  0  0  0
   38.3560   28.4140   37.1250 C   0  0  0  0  0  0  0  0  0  0  0  0
   37.4550   29.2690   36.5920 N   0  0  0  0  0  0  0  0  0  0  0  0
   35.8910   30.6610   37.0400 H   0  0  0  0  0  0  0  0  0  0  0  0
   36.0100   30.3910   39.4310 H   0  0  0  0  0  0  0  0  0  0  0  0
   39.0530   27.8210   36.5170 H   0  0  0  0  0  0  0  0  0  0  0  0
   39.4830   30.2000   40.9340 O   0  0  0  0  0  0  0  0  0  0  0  0
   38.8750   33.7610   38.5710 H   0  0  0  0  0  0  0  0  0  0  0  0
   39.4600   34.0130   39.3770 N   0  0  0  0  0  0  0  0  0  0  0  0
   40.6660   33.2160   39.2900 C   0  0  0  0  0  2  0  0  0  0  0  0
   40.2800   31.7790   39.4700 C   0  0  0  0  0  2  0  0  0  0  0  0
   39.6400   31.5590   40.8350 C   0  0  0  0  0  3  0  0  0  0  0  0
   38.3810   32.3590   40.8360 C   0  0  0  0  0  2  0  0  0  0  0  0
   38.7940   33.8210   40.6270 C   0  0  0  0  0  2  0  0  0  0  0  0
  1  2  1  0  0  0  0
  1  6  1  0  0  0  0
  2  7  1  0  0  0  0
  2  3  1  0  0  0  0
  3 10  1  0  0  0  0
  3  4  1  0  0  0  0
  4 12  1  0  0  0  0
  4 11  1  0  0  0  0
  5 13  1  0  0  0  0
  5 14  1  0  0  0  0
  5  4  1  0  0  0  0
  6 15  1  6  0  0  0
  6  5  1  0  0  0  0
  8  2  1  0  0  0  0
  9  3  1  0  0  0  0
 16 17  1  0  0  0  0
 17 18  2  0  0  0  0
 17 23  1  0  0  0  0
 18  1  1  0  0  0  0
 19 18  1  0  0  0  0
 20 19  2  0  0  0  0
 21 20  1  0  0  0  0
 21 16  2  0  0  0  0
 22 16  1  0  0  0  0
 24 20  1  0  0  0  0
 25  6  1  0  0  0  0
 26 27  1  0  0  0  0
 27 32  1  0  0  0  0
 28 27  1  0  0  0  0
 28 29  1  0  0  0  0
 29 30  1  0  0  0  0
 30 31  1  0  0  0  0
 30 25  1  0  0  0  0
 32 31  1  0  0  0  0
M  END
>  <minimizedAffinity>
-4.68446589

$$$$

 OpenBabel03252502253D

 32 34  0  0  1  0  0  0  0  0999 V2000
   38.3420   30.8680   41.0460 N   0  0  0  0  0  0  0  0  0  0  0  0
   39.4300   31.8370   40.9070 C   0  0  0  0  0  0  0  0  0  0  0  0
   38.7280   33.1980   40.9530 C   0  0  0  0  0  0  0  0  0  0  0  0
   37.8670   33.3510   39.7240 C   0  0  0  0  0  0  0  0  0  0  0  0
   37.0780   32.1410   39.3780 C   0  0  0  0  0  0  0  0  0  0  0  0
   37.0860   31.0340   40.3910 C   0  0  1  0  0  0  0  0  0  0  0  0
   39.8910   31.7230   39.9080 H   0  0  0  0  0  0  0  0  0  0  0  0
   40.1710   31.7330   41.6980 H   0  0  0  0  0  0  0  0  0  0  0  0
   38.1530   33.2750   41.8900 H   0  0  0  0  0  0  0  0  0  0  0  0
   39.5620   33.9440   40.8950 H   0  0  0  0  0  0  0  0  0  0  0  0
   37.2640   34.2680   39.8680 H   0  0  0  0  0  0  0  0  0  0  0  0
   38.5680   33.5560   38.8700 H   0  0  0  0  0  0  0  0  0  0  0  0
   37.3320   31.7360   38.3730 H   0  0  0  0  0  0  0  0  0  0  0  0
   36.0080   32.4750   39.2940 H   0  0  0  0  0  0  0  0  0  0  0  0
   36.3240   31.1970   41.1900 H   0  0  0  0  0  0  0  0  0  0  0  0
   37.8170   28.1730   43.5700 C   0  0  0  0  0  0  0  0  0  0  0  0
   37.5680   29.3230   42.8160 C   0  0  0  0  0  0  0  0  0  0  0  0
   38.5150   29.7120   41.8580 C   0  0  0  0  0  0  0  0  0  0  0  0
   39.6240   28.9320   41.7330 N   0  0  0  0  0  0  0  0  0  0  0  0
   39.8360   27.8240   42.4800 C   0  0  0  0  0  0  0  0  0  0  0  0
   38.9170   27.4570   43.4010 N   0  0  0  0  0  0  0  0  0  0  0  0
   37.0300   27.9550   44.2810 H   0  0  0  0  0  0  0  0  0  0  0  0
   36.6580   29.9260   42.9470 H   0  0  0  0  0  0  0  0  0  0  0  0
   40.7640   27.2640   42.3010 H   0  0  0  0  0  0  0  0  0  0  0  0
   36.7940   29.8500   39.6950 O   0  0  0  0  0  0  0  0  0  0  0  0
   37.5050   27.5930   36.0850 H   0  0  0  0  0  0  0  0  0  0  0  0
   37.8590   28.5460   35.9370 N   0  0  0  0  0  0  0  0  0  0  0  0
   38.8890   28.7740   36.9290 C   0  0  0  0  0  2  0  0  0  0  0  0
   38.2360   28.7610   38.2780 C   0  0  0  0  0  2  0  0  0  0  0  0
   37.1940   29.8690   38.3840 C   0  0  0  0  0  3  0  0  0  0  0  0
   36.1410   29.5430   37.3790 C   0  0  0  0  0  2  0  0  0  0  0  0
   36.8310   29.5370   36.0100 C   0  0  0  0  0  2  0  0  0  0  0  0
  1 18  1  0  0  0  0
  2  3  1  0  0  0  0
  2  1  1  0  0  0  0
  2  8  1  0  0  0  0
  3  9  1  0  0  0  0
  4 11  1  0  0  0  0
  4  3  1  0  0  0  0
  5  4  1  0  0  0  0
  5  6  1  0  0  0  0
  6  1  1  0  0  0  0
  6 15  1  1  0  0  0
  7  2  1  0  0  0  0
 10  3  1  0  0  0  0
 12  4  1  0  0  0  0
 13  5  1  0  0  0  0
 14  5  1  0  0  0  0
 16 22  1  0  0  0  0
 17 23  1  0  0  0  0
 17 16  2  0  0  0  0
 18 17  1  0  0  0  0
 19 18  2  0  0  0  0
 19 20  1  0  0  0  0
 20 21  2  0  0  0  0
 21 16  1  0  0  0  0
 24 20  1  0  0  0  0
 25  6  1  0  0  0  0
 27 32  1  0  0  0  0
 27 26  1  0  0  0  0
 27 28  1  0  0  0  0
 28 29  1  0  0  0  0
 29 30  1  0  0  0  0
 30 25  1  0  0  0  0
 31 30  1  0  0  0  0
 32 31  1  0  0  0  0
M  END
>  <minimizedAffinity>
-4.67789268

$$$$

 OpenBabel03252502253D

 32 34  0  0  1  0  0  0  0  0999 V2000
   36.8580   28.5490   39.7270 N   0  0  0  0  0  0  0  0  0  0  0  0
   35.8430   27.7310   39.0610 C   0  0  0  0  0  0  0  0  0  0  0  0
   36.2760   27.7180   37.5920 C   0  0  0  0  0  0  0  0  0  0  0  0
   36.1370   29.1090   37.0250 C   0  0  0  0  0  0  0  0  0  0  0  0
   36.6380   30.1850   37.9170 C   0  0  0  0  0  0  0  0  0  0  0  0
   37.3850   29.7360   39.1400 C   0  0  1  0  0  0  0  0  0  0  0  0
   34.8650   28.2440   39.1260 H   0  0  0  0  0  0  0  0  0  0  0  0
   35.7900   26.7270   39.4800 H   0  0  0  0  0  0  0  0  0  0  0  0
   37.3060   27.3300   37.5240 H   0  0  0  0  0  0  0  0  0  0  0  0
   35.5300   27.0540   37.0870 H   0  0  0  0  0  0  0  0  0  0  0  0
   36.6000   29.0920   36.0200 H   0  0  0  0  0  0  0  0  0  0  0  0
   35.0370   29.2790   36.8700 H   0  0  0  0  0  0  0  0  0  0  0  0
   35.8430   30.9080   38.2050 H   0  0  0  0  0  0  0  0  0  0  0  0
   37.3700   30.7840   37.3110 H   0  0  0  0  0  0  0  0  0  0  0  0
   38.4600   29.5370   38.9190 H   0  0  0  0  0  0  0  0  0  0  0  0
   37.0870   27.6350   43.3360 C   0  0  0  0  0  0  0  0  0  0  0  0
   36.5150   28.0120   42.1180 C   0  0  0  0  0  0  0  0  0  0  0  0
   37.3550   28.1680   41.0050 C   0  0  0  0  0  0  0  0  0  0  0  0
   38.6830   27.9370   41.1970 N   0  0  0  0  0  0  0  0  0  0  0  0
   39.2050   27.5740   42.3910 C   0  0  0  0  0  0  0  0  0  0  0  0
   38.3870   27.4270   43.4570 N   0  0  0  0  0  0  0  0  0  0  0  0
   36.3590   27.5420   44.1320 H   0  0  0  0  0  0  0  0  0  0  0  0
   35.4360   28.1890   42.0040 H   0  0  0  0  0  0  0  0  0  0  0  0
   40.2900   27.4120   42.4390 H   0  0  0  0  0  0  0  0  0  0  0  0
   37.2800   30.7740   40.0790 O   0  0  0  0  0  0  0  0  0  0  0  0
   39.3220   34.0820   41.9570 H   0  0  0  0  0  0  0  0  0  0  0  0
   39.7230   33.9540   41.0200 N   0  0  0  0  0  0  0  0  0  0  0  0
   38.6450   34.1410   40.0690 C   0  0  0  0  0  2  0  0  0  0  0  0
   37.6590   33.0310   40.2720 C   0  0  0  0  0  2  0  0  0  0  0  0
   38.3110   31.6770   40.0190 C   0  0  0  0  0  3  0  0  0  0  0  0
   39.3670   31.5250   41.0610 C   0  0  0  0  0  2  0  0  0  0  0  0
   40.3530   32.6820   40.8540 C   0  0  0  0  0  2  0  0  0  0  0  0
  1 18  1  0  0  0  0
  2  7  1  0  0  0  0
  2  8  1  0  0  0  0
  2  1  1  0  0  0  0
  3  2  1  0  0  0  0
  4  3  1  0  0  0  0
  4  5  1  0  0  0  0
  5 13  1  0  0  0  0
  5  6  1  0  0  0  0
  6 15  1  6  0  0  0
  6  1  1  0  0  0  0
  6 25  1  0  0  0  0
  9  3  1  0  0  0  0
 10  3  1  0  0  0  0
 11  4  1  0  0  0  0
 12  4  1  0  0  0  0
 14  5  1  0  0  0  0
 16 21  1  0  0  0  0
 16 22  1  0  0  0  0
 17 16  2  0  0  0  0
 18 19  2  0  0  0  0
 18 17  1  0  0  0  0
 19 20  1  0  0  0  0
 20 24  1  0  0  0  0
 20 21  2  0  0  0  0
 23 17  1  0  0  0  0
 27 26  1  0  0  0  0
 28 29  1  0  0  0  0
 28 27  1  0  0  0  0
 30 25  1  0  0  0  0
 30 29  1  0  0  0  0
 30 31  1  0  0  0  0
 32 27  1  0  0  0  0
 32 31  1  0  0  0  0
M  END
>  <minimizedAffinity>
-4.65418243

$$$$

 OpenBabel03252502253D

 32 34  0  0  1  0  0  0  0  0999 V2000
   37.7060   29.4950   41.1040 N   0  0  0  0  0  0  0  0  0  0  0  0
   37.4960   29.3330   42.5430 C   0  0  0  0  0  0  0  0  0  0  0  0
   37.9980   27.9160   42.8380 C   0  0  0  0  0  0  0  0  0  0  0  0
   37.0890   26.9200   42.1640 C   0  0  0  0  0  0  0  0  0  0  0  0
   36.7150   27.2790   40.7720 C   0  0  0  0  0  0  0  0  0  0  0  0
   37.4420   28.4470   40.1730 C   0  0  1  0  0  0  0  0  0  0  0  0
   36.4100   29.3630   42.7560 H   0  0  0  0  0  0  0  0  0  0  0  0
   38.0320   30.0850   43.1200 H   0  0  0  0  0  0  0  0  0  0  0  0
   39.0460   27.8300   42.5080 H   0  0  0  0  0  0  0  0  0  0  0  0
   37.8840   27.8050   43.9470 H   0  0  0  0  0  0  0  0  0  0  0  0
   37.5670   25.9270   42.2700 H   0  0  0  0  0  0  0  0  0  0  0  0
   36.1450   26.8890   42.7730 H   0  0  0  0  0  0  0  0  0  0  0  0
   35.6180   27.4100   40.6440 H   0  0  0  0  0  0  0  0  0  0  0  0
   36.9780   26.3910   40.1350 H   0  0  0  0  0  0  0  0  0  0  0  0
   38.4250   28.1450   39.7390 H   0  0  0  0  0  0  0  0  0  0  0  0
   39.8620   32.1010   39.5320 C   0  0  0  0  0  0  0  0  0  0  0  0
   39.4650   30.8510   40.0150 C   0  0  0  0  0  0  0  0  0  0  0  0
   38.1910   30.7290   40.5880 C   0  0  0  0  0  0  0  0  0  0  0  0
   37.4240   31.8530   40.6330 N   0  0  0  0  0  0  0  0  0  0  0  0
   37.8380   33.0500   40.1570 C   0  0  0  0  0  0  0  0  0  0  0  0
   39.0690   33.1570   39.6070 N   0  0  0  0  0  0  0  0  0  0  0  0
   40.8580   32.0930   39.1100 H   0  0  0  0  0  0  0  0  0  0  0  0
   40.1140   29.9650   39.9590 H   0  0  0  0  0  0  0  0  0  0  0  0
   37.1430   33.8960   40.2420 H   0  0  0  0  0  0  0  0  0  0  0  0
   36.6160   28.9570   39.1590 O   0  0  0  0  0  0  0  0  0  0  0  0
   38.1320   29.5290   35.1580 H   0  0  0  0  0  0  0  0  0  0  0  0
   37.6750   28.6100   35.1940 N   0  0  0  0  0  0  0  0  0  0  0  0
   36.2880   28.8400   35.5430 C   0  0  0  0  0  2  0  0  0  0  0  0
   36.2520   29.3960   36.9350 C   0  0  0  0  0  2  0  0  0  0  0  0
   36.8520   28.4060   37.9260 C   0  0  0  0  0  3  0  0  0  0  0  0
   38.2870   28.2580   37.5460 C   0  0  0  0  0  2  0  0  0  0  0  0
   38.3040   27.7130   36.1120 C   0  0  0  0  0  2  0  0  0  0  0  0
  1  2  1  0  0  0  0
  2  7  1  0  0  0  0
  2  3  1  0  0  0  0
  2  8  1  0  0  0  0
  3 10  1  0  0  0  0
  4 11  1  0  0  0  0
  4 12  1  0  0  0  0
  4  3  1  0  0  0  0
  5  4  1  0  0  0  0
  6 15  1  6  0  0  0
  6  5  1  0  0  0  0
  6  1  1  0  0  0  0
  9  3  1  0  0  0  0
 13  5  1  0  0  0  0
 14  5  1  0  0  0  0
 16 21  2  0  0  0  0
 16 17  1  0  0  0  0
 17 18  2  0  0  0  0
 18 19  1  0  0  0  0
 18  1  1  0  0  0  0
 20 24  1  0  0  0  0
 20 19  2  0  0  0  0
 21 20  1  0  0  0  0
 22 16  1  0  0  0  0
 23 17  1  0  0  0  0
 25  6  1  0  0  0  0
 26 27  1  0  0  0  0
 27 28  1  0  0  0  0
 27 32  1  0  0  0  0
 28 29  1  0  0  0  0
 29 30  1  0  0  0  0
 30 25  1  0  0  0  0
 31 30  1  0  0  0  0
 32 31  1  0  0  0  0
M  END
>  <minimizedAffinity>
-4.65008831

$$$$

 OpenBabel03252502253D

 32 34  0  0  1  0  0  0  0  0999 V2000
   37.3260   29.3600   40.0050 N   0  0  0  0  0  0  0  0  0  0  0  0
   35.9870   29.8100   39.6240 C   0  0  0  0  0  0  0  0  0  0  0  0
   35.9130   29.5350   38.1180 C   0  0  0  0  0  0  0  0  0  0  0  0
   36.8820   30.4430   37.4040 C   0  0  0  0  0  0  0  0  0  0  0  0
   38.2130   30.5490   38.0550 C   0  0  0  0  0  0  0  0  0  0  0  0
   38.4710   29.6000   39.1900 C   0  0  1  0  0  0  0  0  0  0  0  0
   35.9150   30.9030   39.7770 H   0  0  0  0  0  0  0  0  0  0  0  0
   35.2080   29.2830   40.1740 H   0  0  0  0  0  0  0  0  0  0  0  0
   36.1140   28.4670   37.9370 H   0  0  0  0  0  0  0  0  0  0  0  0
   34.8720   29.8330   37.8310 H   0  0  0  0  0  0  0  0  0  0  0  0
   36.9130   30.1110   36.3480 H   0  0  0  0  0  0  0  0  0  0  0  0
   36.4190   31.4660   37.4060 H   0  0  0  0  0  0  0  0  0  0  0  0
   38.4550   31.5880   38.3690 H   0  0  0  0  0  0  0  0  0  0  0  0
   38.9730   30.2990   37.2650 H   0  0  0  0  0  0  0  0  0  0  0  0
   38.8240   28.6060   38.8270 H   0  0  0  0  0  0  0  0  0  0  0  0
   38.0560   26.6830   42.4980 C   0  0  0  0  0  0  0  0  0  0  0  0
   37.8840   27.2990   41.2550 C   0  0  0  0  0  0  0  0  0  0  0  0
   37.5210   28.6540   41.2250 C   0  0  0  0  0  0  0  0  0  0  0  0
   37.3600   29.2770   42.4250 N   0  0  0  0  0  0  0  0  0  0  0  0
   37.5330   28.6510   43.6110 C   0  0  0  0  0  0  0  0  0  0  0  0
   37.8830   27.3460   43.6300 N   0  0  0  0  0  0  0  0  0  0  0  0
   38.3350   25.6410   42.4170 H   0  0  0  0  0  0  0  0  0  0  0  0
   38.0250   26.7610   40.3070 H   0  0  0  0  0  0  0  0  0  0  0  0
   37.3780   29.2450   44.5230 H   0  0  0  0  0  0  0  0  0  0  0  0
   39.4630   30.1900   39.9890 O   0  0  0  0  0  0  0  0  0  0  0  0
   40.8000   33.9770   41.5720 H   0  0  0  0  0  0  0  0  0  0  0  0
   40.2930   34.1610   40.6980 N   0  0  0  0  0  0  0  0  0  0  0  0
   38.9420   33.6730   40.8810 C   0  0  0  0  0  2  0  0  0  0  0  0
   39.0100   32.1830   41.0350 C   0  0  0  0  0  2  0  0  0  0  0  0
   39.6030   31.5390   39.7870 C   0  0  0  0  0  3  0  0  0  0  0  0
   41.0060   32.0390   39.6900 C   0  0  0  0  0  2  0  0  0  0  0  0
   40.9160   33.5640   39.5590 C   0  0  0  0  0  2  0  0  0  0  0  0
  1 18  1  0  0  0  0
  2  7  1  0  0  0  0
  2  1  1  0  0  0  0
  2  8  1  0  0  0  0
  3  2  1  0  0  0  0
  4 12  1  0  0  0  0
  4  5  1  0  0  0  0
  4  3  1  0  0  0  0
  5 13  1  0  0  0  0
  5  6  1  0  0  0  0
  6 15  1  6  0  0  0
  6 25  1  0  0  0  0
  6  1  1  0  0  0  0
  9  3  1  0  0  0  0
 10  3  1  0  0  0  0
 11  4  1  0  0  0  0
 14  5  1  0  0  0  0
 16 21  1  0  0  0  0
 17 16  2  0  0  0  0
 18 17  1  0  0  0  0
 18 19  2  0  0  0  0
 19 20  1  0  0  0  0
 20 21  2  0  0  0  0
 20 24  1  0  0  0  0
 22 16  1  0  0  0  0
 23 17  1  0  0  0  0
 27 28  1  0  0  0  0
 27 26  1  0  0  0  0
 28 29  1  0  0  0  0
 30 25  1  0  0  0  0
 30 29  1  0  0  0  0
 31 30  1  0  0  0  0
 32 31  1  0  0  0  0
 32 27  1  0  0  0  0
M  END
>  <minimizedAffinity>
-4.57860184

$$$$

 OpenBabel03252502253D

 32 34  0  0  1  0  0  0  0  0999 V2000
   38.1490   29.6610   41.5980 N   0  0  0  0  0  0  0  0  0  0  0  0
   38.5080   29.5800   43.0140 C   0  0  0  0  0  0  0  0  0  0  0  0
   38.6140   28.0760   43.2890 C   0  0  0  0  0  0  0  0  0  0  0  0
   37.2460   27.4550   43.1640 C   0  0  0  0  0  0  0  0  0  0  0  0
   36.4680   27.9220   41.9880 C   0  0  0  0  0  0  0  0  0  0  0  0
   37.2130   28.7690   40.9970 C   0  0  1  0  0  0  0  0  0  0  0  0
   37.6760   29.9810   43.6220 H   0  0  0  0  0  0  0  0  0  0  0  0
   39.4400   30.1010   43.2280 H   0  0  0  0  0  0  0  0  0  0  0  0
   39.3490   27.6350   42.5960 H   0  0  0  0  0  0  0  0  0  0  0  0
   38.9360   28.0100   44.3590 H   0  0  0  0  0  0  0  0  0  0  0  0
   37.3870   26.3580   43.2150 H   0  0  0  0  0  0  0  0  0  0  0  0
   36.6780   27.7500   44.0870 H   0  0  0  0  0  0  0  0  0  0  0  0
   35.5180   28.4230   42.2740 H   0  0  0  0  0  0  0  0  0  0  0  0
   36.1530   26.9990   41.4290 H   0  0  0  0  0  0  0  0  0  0  0  0
   37.7820   28.1480   40.2650 H   0  0  0  0  0  0  0  0  0  0  0  0
   40.1700   31.3680   38.9680 C   0  0  0  0  0  0  0  0  0  0  0  0
   39.6350   30.3300   39.7360 C   0  0  0  0  0  0  0  0  0  0  0  0
   38.7410   30.6540   40.7680 C   0  0  0  0  0  0  0  0  0  0  0  0
   38.4580   31.9730   40.9480 N   0  0  0  0  0  0  0  0  0  0  0  0
   38.9940   32.9540   40.1860 C   0  0  0  0  0  0  0  0  0  0  0  0
   39.8540   32.6320   39.1940 N   0  0  0  0  0  0  0  0  0  0  0  0
   40.8470   31.0180   38.1990 H   0  0  0  0  0  0  0  0  0  0  0  0
   39.8890   29.2750   39.5590 H   0  0  0  0  0  0  0  0  0  0  0  0
   38.7000   33.9880   40.4140 H   0  0  0  0  0  0  0  0  0  0  0  0
   36.2510   29.5340   40.3190 O   0  0  0  0  0  0  0  0  0  0  0  0
   33.9470   30.0320   36.7020 H   0  0  0  0  0  0  0  0  0  0  0  0
   34.4230   29.1240   36.6510 N   0  0  0  0  0  0  0  0  0  0  0  0
   33.9520   28.3360   37.7730 C   0  0  0  0  0  2  0  0  0  0  0  0
   34.4260   29.0010   39.0300 C   0  0  0  0  0  2  0  0  0  0  0  0
   35.9490   29.0570   39.0690 C   0  0  0  0  0  3  0  0  0  0  0  0
   36.3620   29.9240   37.9270 C   0  0  0  0  0  2  0  0  0  0  0  0
   35.8470   29.2410   36.6540 C   0  0  0  0  0  2  0  0  0  0  0  0
  1  2  1  0  0  0  0
  2  8  1  0  0  0  0
  2  3  1  0  0  0  0
  2  7  1  0  0  0  0
  3 10  1  0  0  0  0
  4 11  1  0  0  0  0
  4  3  1  0  0  0  0
  4 12  1  0  0  0  0
  5 13  1  0  0  0  0
  5  4  1  0  0  0  0
  6 15  1  6  0  0  0
  6  1  1  0  0  0  0
  6  5  1  0  0  0  0
  9  3  1  0  0  0  0
 14  5  1  0  0  0  0
 16 21  2  0  0  0  0
 16 17  1  0  0  0  0
 17 18  2  0  0  0  0
 18 19  1  0  0  0  0
 18  1  1  0  0  0  0
 20 24  1  0  0  0  0
 20 19  2  0  0  0  0
 21 20  1  0  0  0  0
 22 16  1  0  0  0  0
 23 17  1  0  0  0  0
 25  6  1  0  0  0  0
 27 32  1  0  0  0  0
 27 26  1  0  0  0  0
 27 28  1  0  0  0  0
 28 29  1  0  0  0  0
 29 30  1  0  0  0  0
 30 25  1  0  0  0  0
 31 30  1  0  0  0  0
 32 31  1  0  0  0  0
M  END
>  <minimizedAffinity>
-4.57549286

$$$$
