
 OpenBabel03242518293D

 19 20  0  0  0  0  0  0  0  0999 V2000
   36.1440   30.1540   40.7490 C   0  0  0  0  0  0  0  0  0  0  0  0
   35.1710   29.8460   40.0320 O   0  0  0  0  0  0  0  0  0  0  0  0
   36.8470   29.3400   41.6820 C   0  0  0  0  0  0  0  0  0  0  0  0
   36.3170   28.0690   41.8170 C   0  0  0  0  0  0  0  0  0  0  0  0
   36.9590   27.2000   42.7230 C   0  0  0  0  0  0  0  0  0  0  0  0
   38.0360   27.6460   43.3990 N   0  0  0  0  0  0  0  0  0  0  0  0
   38.5180   28.9060   43.2300 C   0  0  0  0  0  0  0  0  0  0  0  0
   37.9220   29.7480   42.3730 N   0  0  0  0  0  0  0  0  0  0  0  0
   35.4760   27.6370   41.3260 H   0  0  0  0  0  0  0  0  0  0  0  0
   36.5920   26.1820   42.8770 H   0  0  0  0  0  0  0  0  0  0  0  0
   39.3820   29.2970   43.7570 H   0  0  0  0  0  0  0  0  0  0  0  0
   36.6250   31.4630   40.6400 O   0  0  0  0  0  0  0  0  0  0  0  0
   39.1220   33.8800   37.9840 H   0  0  0  0  0  0  0  0  0  0  0  0
   39.5750   33.2580   38.6950 N   0  0  0  0  0  0  0  0  0  0  0  0
   38.9260   33.5370   39.9600 C   0  0  0  0  0  2  0  0  0  0  0  0
   37.4410   33.4330   39.6800 C   0  0  0  0  0  2  0  0  0  0  0  0
   37.1050   31.9840   39.4090 C   0  0  0  0  0  3  0  0  0  0  0  0
   38.2730   31.1700   38.9920 C   0  0  0  0  0  2  0  0  0  0  0  0
   39.3680   31.9060   38.2820 C   0  0  0  0  0  2  0  0  0  0  0  0
  1  3  1  0  0  0  0
  2  1  2  0  0  0  0
  3  4  2  0  0  0  0
  3  8  1  0  0  0  0
  4  5  1  0  0  0  0
  5 10  1  0  0  0  0
  5  6  2  0  0  0  0
  7  6  1  0  0  0  0
  7 11  1  0  0  0  0
  8  7  2  0  0  0  0
  9  4  1  0  0  0  0
 12  1  1  0  0  0  0
 13 14  1  0  0  0  0
 14 15  1  0  0  0  0
 16 15  1  0  0  0  0
 17 16  1  0  0  0  0
 17 12  1  0  0  0  0
 18 17  1  0  0  0  0
 19 14  1  0  0  0  0
 19 18  1  0  0  0  0
M  END
>  <minimizedAffinity>
-4.50891972

$$$$

 OpenBabel03242518293D

 19 20  0  0  0  0  0  0  0  0999 V2000
   36.1910   29.6370   40.9950 C   0  0  0  0  0  0  0  0  0  0  0  0
   35.1030   29.5750   40.3880 O   0  0  0  0  0  0  0  0  0  0  0  0
   36.9220   28.5810   41.6100 C   0  0  0  0  0  0  0  0  0  0  0  0
   37.3610   28.8830   42.8870 C   0  0  0  0  0  0  0  0  0  0  0  0
   38.0940   27.8880   43.5650 C   0  0  0  0  0  0  0  0  0  0  0  0
   38.3240   26.7140   42.9440 N   0  0  0  0  0  0  0  0  0  0  0  0
   37.8700   26.4670   41.6870 C   0  0  0  0  0  0  0  0  0  0  0  0
   37.1710   27.4010   41.0240 N   0  0  0  0  0  0  0  0  0  0  0  0
   37.2250   29.7780   43.4490 H   0  0  0  0  0  0  0  0  0  0  0  0
   38.4690   28.0610   44.5770 H   0  0  0  0  0  0  0  0  0  0  0  0
   38.0370   25.5340   41.1580 H   0  0  0  0  0  0  0  0  0  0  0  0
   36.7910   30.8970   41.0970 O   0  0  0  0  0  0  0  0  0  0  0  0
   39.0610   33.6130   38.5270 H   0  0  0  0  0  0  0  0  0  0  0  0
   38.8360   33.8980   39.5100 N   0  0  0  0  0  0  0  0  0  0  0  0
   37.4170   33.6700   39.6920 C   0  0  0  0  0  2  0  0  0  0  0  0
   37.1770   32.2480   39.2280 C   0  0  0  0  0  2  0  0  0  0  0  0
   37.8280   31.3060   40.2160 C   0  0  0  0  0  3  0  0  0  0  0  0
   38.8950   31.9390   41.0280 C   0  0  0  0  0  2  0  0  0  0  0  0
   39.6180   33.0830   40.3860 C   0  0  0  0  0  2  0  0  0  0  0  0
  1 12  1  0  0  0  0
  1  3  1  0  0  0  0
  2  1  2  0  0  0  0
  3  4  1  0  0  0  0
  4  9  1  0  0  0  0
  4  5  2  0  0  0  0
  5 10  1  0  0  0  0
  6  5  1  0  0  0  0
  7  6  2  0  0  0  0
  8  3  2  0  0  0  0
  8  7  1  0  0  0  0
 11  7  1  0  0  0  0
 13 14  1  0  0  0  0
 14 15  1  0  0  0  0
 14 19  1  0  0  0  0
 16 15  1  0  0  0  0
 16 17  1  0  0  0  0
 17 18  1  0  0  0  0
 17 12  1  0  0  0  0
 19 18  1  0  0  0  0
M  END
>  <minimizedAffinity>
-4.24630404

$$$$

 OpenBabel03242518293D

 19 20  0  0  0  0  0  0  0  0999 V2000
   39.1530   28.8200   42.5880 C   0  0  0  0  0  0  0  0  0  0  0  0
   40.3440   28.9350   42.9380 O   0  0  0  0  0  0  0  0  0  0  0  0
   38.3290   29.7730   41.9240 C   0  0  0  0  0  0  0  0  0  0  0  0
   39.0360   30.8280   41.3770 C   0  0  0  0  0  0  0  0  0  0  0  0
   38.2920   31.8170   40.7010 C   0  0  0  0  0  0  0  0  0  0  0  0
   36.9530   31.6840   40.6260 N   0  0  0  0  0  0  0  0  0  0  0  0
   36.3050   30.6260   41.1820 C   0  0  0  0  0  0  0  0  0  0  0  0
   36.9950   29.6750   41.8290 N   0  0  0  0  0  0  0  0  0  0  0  0
   40.0860   31.0110   41.3890 H   0  0  0  0  0  0  0  0  0  0  0  0
   38.7890   32.6770   40.2450 H   0  0  0  0  0  0  0  0  0  0  0  0
   35.2290   30.4870   41.1400 H   0  0  0  0  0  0  0  0  0  0  0  0
   38.5220   27.6030   42.8710 O   0  0  0  0  0  0  0  0  0  0  0  0
   39.0770   23.5660   41.2820 H   0  0  0  0  0  0  0  0  0  0  0  0
   38.5880   23.6980   42.1990 N   0  0  0  0  0  0  0  0  0  0  0  0
   39.4300   24.5670   42.9960 C   0  0  0  0  0  2  0  0  0  0  0  0
   39.7340   25.7560   42.1070 C   0  0  0  0  0  2  0  0  0  0  0  0
   38.4620   26.5510   41.9190 C   0  0  0  0  0  3  0  0  0  0  0  0
   37.2280   25.7700   42.1770 C   0  0  0  0  0  2  0  0  0  0  0  0
   37.3180   24.2960   41.9280 C   0  0  0  0  0  2  0  0  0  0  0  0
  1 12  1  0  0  0  0
  1  2  2  0  0  0  0
  3  1  1  0  0  0  0
  4  9  1  0  0  0  0
  4  3  2  0  0  0  0
  5  4  1  0  0  0  0
  6  5  2  0  0  0  0
  6  7  1  0  0  0  0
  7  8  2  0  0  0  0
  8  3  1  0  0  0  0
 10  5  1  0  0  0  0
 11  7  1  0  0  0  0
 13 14  1  0  0  0  0
 14 15  1  0  0  0  0
 16 15  1  0  0  0  0
 17 16  1  0  0  0  0
 17 18  1  0  0  0  0
 17 12  1  0  0  0  0
 19 18  1  0  0  0  0
 19 14  1  0  0  0  0
M  END
>  <minimizedAffinity>
-4.17721415

$$$$

 OpenBabel03242518293D

 19 20  0  0  0  0  0  0  0  0999 V2000
   37.7960   28.8270   42.4760 C   0  0  0  0  0  0  0  0  0  0  0  0
   37.4780   28.9050   43.6800 O   0  0  0  0  0  0  0  0  0  0  0  0
   37.8730   29.8730   41.5120 C   0  0  0  0  0  0  0  0  0  0  0  0
   36.6480   30.4400   41.2120 C   0  0  0  0  0  0  0  0  0  0  0  0
   36.6400   31.4850   40.2660 C   0  0  0  0  0  0  0  0  0  0  0  0
   37.8060   31.8690   39.7120 N   0  0  0  0  0  0  0  0  0  0  0  0
   38.9860   31.2780   40.0420 C   0  0  0  0  0  0  0  0  0  0  0  0
   39.0150   30.2820   40.9400 N   0  0  0  0  0  0  0  0  0  0  0  0
   35.6840   30.2000   41.6000 H   0  0  0  0  0  0  0  0  0  0  0  0
   35.7050   31.9760   39.9840 H   0  0  0  0  0  0  0  0  0  0  0  0
   39.9430   31.5620   39.6160 H   0  0  0  0  0  0  0  0  0  0  0  0
   38.1250   27.5590   41.9850 O   0  0  0  0  0  0  0  0  0  0  0  0
   38.0440   23.3010   42.9840 H   0  0  0  0  0  0  0  0  0  0  0  0
   38.7560   23.6590   42.3030 N   0  0  0  0  0  0  0  0  0  0  0  0
   38.0350   24.4570   41.3320 C   0  0  0  0  0  2  0  0  0  0  0  0
   37.1960   25.4190   42.1480 C   0  0  0  0  0  2  0  0  0  0  0  0
   38.1200   26.4090   42.8200 C   0  0  0  0  0  3  0  0  0  0  0  0
   39.5180   25.9290   42.9450 C   0  0  0  0  0  2  0  0  0  0  0  0
   39.6980   24.4450   43.0370 C   0  0  0  0  0  2  0  0  0  0  0  0
  1  2  2  0  0  0  0
  3  1  1  0  0  0  0
  4  3  1  0  0  0  0
  4  9  1  0  0  0  0
  5  4  2  0  0  0  0
  6  7  2  0  0  0  0
  6  5  1  0  0  0  0
  7  8  1  0  0  0  0
  8  3  2  0  0  0  0
 10  5  1  0  0  0  0
 11  7  1  0  0  0  0
 12  1  1  0  0  0  0
 12 17  1  0  0  0  0
 14 13  1  0  0  0  0
 14 19  1  0  0  0  0
 15 16  1  0  0  0  0
 15 14  1  0  0  0  0
 16 17  1  0  0  0  0
 17 18  1  0  0  0  0
 18 19  1  0  0  0  0
M  END
>  <minimizedAffinity>
-4.14184427

$$$$

 OpenBabel03242518293D

 19 20  0  0  0  0  0  0  0  0999 V2000
   37.0310   30.8620   41.0260 C   0  0  0  0  0  0  0  0  0  0  0  0
   35.8750   30.7380   40.5740 O   0  0  0  0  0  0  0  0  0  0  0  0
   37.9820   31.8870   40.7550 C   0  0  0  0  0  0  0  0  0  0  0  0
   37.4390   32.9910   40.1230 C   0  0  0  0  0  0  0  0  0  0  0  0
   38.3160   34.0530   39.8210 C   0  0  0  0  0  0  0  0  0  0  0  0
   39.6160   33.9370   40.1560 N   0  0  0  0  0  0  0  0  0  0  0  0
   40.1000   32.8280   40.7760 C   0  0  0  0  0  0  0  0  0  0  0  0
   39.2820   31.8070   41.0730 N   0  0  0  0  0  0  0  0  0  0  0  0
   36.4310   33.1650   39.8250 H   0  0  0  0  0  0  0  0  0  0  0  0
   37.9520   34.9550   39.3230 H   0  0  0  0  0  0  0  0  0  0  0  0
   41.1410   32.7010   41.0610 H   0  0  0  0  0  0  0  0  0  0  0  0
   37.4740   29.8790   41.9180 O   0  0  0  0  0  0  0  0  0  0  0  0
   39.1760   25.8550   42.1370 H   0  0  0  0  0  0  0  0  0  0  0  0
   38.5850   26.2100   42.9250 N   0  0  0  0  0  0  0  0  0  0  0  0
   39.1010   27.5180   43.2740 C   0  0  0  0  0  2  0  0  0  0  0  0
   39.1790   28.2800   41.9660 C   0  0  0  0  0  2  0  0  0  0  0  0
   37.7720   28.5580   41.4890 C   0  0  0  0  0  3  0  0  0  0  0  0
   36.7550   27.6480   42.0720 C   0  0  0  0  0  2  0  0  0  0  0  0
   37.2370   26.2830   42.4550 C   0  0  0  0  0  2  0  0  0  0  0  0
  1 12  1  0  0  0  0
  2  1  2  0  0  0  0
  3  1  1  0  0  0  0
  3  8  1  0  0  0  0
  4  3  2  0  0  0  0
  5  4  1  0  0  0  0
  5  6  2  0  0  0  0
  6  7  1  0  0  0  0
  7 11  1  0  0  0  0
  7  8  2  0  0  0  0
  9  4  1  0  0  0  0
 10  5  1  0  0  0  0
 13 14  1  0  0  0  0
 14 15  1  0  0  0  0
 16 15  1  0  0  0  0
 17 12  1  0  0  0  0
 17 16  1  0  0  0  0
 17 18  1  0  0  0  0
 18 19  1  0  0  0  0
 19 14  1  0  0  0  0
M  END
>  <minimizedAffinity>
-4.05577993

$$$$

 OpenBabel03242518293D

 19 20  0  0  0  0  0  0  0  0999 V2000
   37.1570   29.6460   40.1880 C   0  0  0  0  0  0  0  0  0  0  0  0
   36.8720   29.2190   39.0520 O   0  0  0  0  0  0  0  0  0  0  0  0
   37.3380   28.9060   41.3910 C   0  0  0  0  0  0  0  0  0  0  0  0
   38.5960   29.0560   41.9480 C   0  0  0  0  0  0  0  0  0  0  0  0
   38.8550   28.3550   43.1440 C   0  0  0  0  0  0  0  0  0  0  0  0
   37.8820   27.5870   43.6710 N   0  0  0  0  0  0  0  0  0  0  0  0
   36.6610   27.4730   43.0830 C   0  0  0  0  0  0  0  0  0  0  0  0
   36.3940   28.1320   41.9460 N   0  0  0  0  0  0  0  0  0  0  0  0
   39.4180   29.6390   41.6010 H   0  0  0  0  0  0  0  0  0  0  0  0
   39.8280   28.4310   43.6360 H   0  0  0  0  0  0  0  0  0  0  0  0
   35.8550   26.8640   43.4810 H   0  0  0  0  0  0  0  0  0  0  0  0
   37.3260   31.0280   40.3250 O   0  0  0  0  0  0  0  0  0  0  0  0
   39.1830   34.5480   38.5090 H   0  0  0  0  0  0  0  0  0  0  0  0
   39.5750   34.1570   39.3990 N   0  0  0  0  0  0  0  0  0  0  0  0
   38.4570   33.9910   40.3060 C   0  0  0  0  0  2  0  0  0  0  0  0
   37.4150   33.2220   39.5200 C   0  0  0  0  0  2  0  0  0  0  0  0
   37.9220   31.8140   39.3020 C   0  0  0  0  0  3  0  0  0  0  0  0
   39.3940   31.6850   39.4260 C   0  0  0  0  0  2  0  0  0  0  0  0
   40.1920   32.9060   39.0860 C   0  0  0  0  0  2  0  0  0  0  0  0
  1 12  1  0  0  0  0
  1  3  1  0  0  0  0
  2  1  2  0  0  0  0
  3  8  2  0  0  0  0
  3  4  1  0  0  0  0
  4  5  2  0  0  0  0
  5 10  1  0  0  0  0
  5  6  1  0  0  0  0
  7 11  1  0  0  0  0
  7  6  2  0  0  0  0
  8  7  1  0  0  0  0
  9  4  1  0  0  0  0
 13 14  1  0  0  0  0
 14 15  1  0  0  0  0
 16 15  1  0  0  0  0
 17 18  1  0  0  0  0
 17 16  1  0  0  0  0
 17 12  1  0  0  0  0
 19 14  1  0  0  0  0
 19 18  1  0  0  0  0
M  END
>  <minimizedAffinity>
-4.02075911

$$$$

 OpenBabel03242518293D

 19 20  0  0  0  0  0  0  0  0999 V2000
   39.2100   29.8290   42.2080 C   0  0  0  0  0  0  0  0  0  0  0  0
   40.3580   30.0910   42.6180 O   0  0  0  0  0  0  0  0  0  0  0  0
   38.4920   28.6030   42.3140 C   0  0  0  0  0  0  0  0  0  0  0  0
   37.4390   28.6550   43.2090 C   0  0  0  0  0  0  0  0  0  0  0  0
   36.6760   27.4800   43.3710 C   0  0  0  0  0  0  0  0  0  0  0  0
   37.0080   26.3870   42.6570 N   0  0  0  0  0  0  0  0  0  0  0  0
   38.0540   26.3880   41.7880 C   0  0  0  0  0  0  0  0  0  0  0  0
   38.7920   27.4960   41.6200 N   0  0  0  0  0  0  0  0  0  0  0  0
   37.1080   29.4710   43.8110 H   0  0  0  0  0  0  0  0  0  0  0  0
   35.8300   27.4540   44.0620 H   0  0  0  0  0  0  0  0  0  0  0  0
   38.3480   25.5270   41.1970 H   0  0  0  0  0  0  0  0  0  0  0  0
   38.5160   30.8560   41.5590 O   0  0  0  0  0  0  0  0  0  0  0  0
   36.7680   32.0840   37.7420 H   0  0  0  0  0  0  0  0  0  0  0  0
   37.6100   32.5870   38.1110 N   0  0  0  0  0  0  0  0  0  0  0  0
   37.3150   32.9340   39.4860 C   0  0  0  0  0  2  0  0  0  0  0  0
   36.8420   31.6480   40.1320 C   0  0  0  0  0  2  0  0  0  0  0  0
   38.0180   30.7040   40.2370 C   0  0  0  0  0  3  0  0  0  0  0  0
   39.1190   31.0170   39.2950 C   0  0  0  0  0  2  0  0  0  0  0  0
   38.7210   31.6920   38.0180 C   0  0  0  0  0  2  0  0  0  0  0  0
  1  3  1  0  0  0  0
  1  2  2  0  0  0  0
  3  4  1  0  0  0  0
  4  5  2  0  0  0  0
  4  9  1  0  0  0  0
  5 10  1  0  0  0  0
  6  5  1  0  0  0  0
  7  6  2  0  0  0  0
  8  7  1  0  0  0  0
  8  3  2  0  0  0  0
 11  7  1  0  0  0  0
 12  1  1  0  0  0  0
 13 14  1  0  0  0  0
 14 15  1  0  0  0  0
 15 16  1  0  0  0  0
 16 17  1  0  0  0  0
 17 12  1  0  0  0  0
 18 17  1  0  0  0  0
 19 14  1  0  0  0  0
 19 18  1  0  0  0  0
M  END
>  <minimizedAffinity>
-3.9876132

$$$$

 OpenBabel03242518293D

 19 20  0  0  0  0  0  0  0  0999 V2000
   38.7070   26.2130   42.2270 C   0  0  0  0  0  0  0  0  0  0  0  0
   39.1220   26.2960   43.4000 O   0  0  0  0  0  0  0  0  0  0  0  0
   38.6190   25.0570   41.4000 C   0  0  0  0  0  0  0  0  0  0  0  0
   39.5000   25.0730   40.3330 C   0  0  0  0  0  0  0  0  0  0  0  0
   39.4760   23.9610   39.4660 C   0  0  0  0  0  0  0  0  0  0  0  0
   38.6100   22.9600   39.7170 N   0  0  0  0  0  0  0  0  0  0  0  0
   37.7640   22.9930   40.7810 C   0  0  0  0  0  0  0  0  0  0  0  0
   37.7710   24.0410   41.6180 N   0  0  0  0  0  0  0  0  0  0  0  0
   40.2130   25.8170   40.0620 H   0  0  0  0  0  0  0  0  0  0  0  0
   40.1460   23.9100   38.6040 H   0  0  0  0  0  0  0  0  0  0  0  0
   37.0550   22.2040   41.0130 H   0  0  0  0  0  0  0  0  0  0  0  0
   38.2630   27.3940   41.6240 O   0  0  0  0  0  0  0  0  0  0  0  0
   35.2710   30.5550   42.0590 H   0  0  0  0  0  0  0  0  0  0  0  0
   35.7590   30.4290   41.1410 N   0  0  0  0  0  0  0  0  0  0  0  0
   37.1770   30.3680   41.4320 C   0  0  0  0  0  2  0  0  0  0  0  0
   37.3180   29.3330   42.5280 C   0  0  0  0  0  2  0  0  0  0  0  0
   37.0060   27.9730   41.9460 C   0  0  0  0  0  3  0  0  0  0  0  0
   36.1960   28.0280   40.7050 C   0  0  0  0  0  2  0  0  0  0  0  0
   35.2850   29.2090   40.5650 C   0  0  0  0  0  2  0  0  0  0  0  0
  1  2  2  0  0  0  0
  3  8  1  0  0  0  0
  3  1  1  0  0  0  0
  4  3  2  0  0  0  0
  5  6  2  0  0  0  0
  5  4  1  0  0  0  0
  6  7  1  0  0  0  0
  7 11  1  0  0  0  0
  7  8  2  0  0  0  0
  9  4  1  0  0  0  0
 10  5  1  0  0  0  0
 12 17  1  0  0  0  0
 12  1  1  0  0  0  0
 14 15  1  0  0  0  0
 14 13  1  0  0  0  0
 15 16  1  0  0  0  0
 17 16  1  0  0  0  0
 18 17  1  0  0  0  0
 19 18  1  0  0  0  0
 19 14  1  0  0  0  0
M  END
>  <minimizedAffinity>
-3.98381186

$$$$

 OpenBabel03242518293D

 19 20  0  0  0  0  0  0  0  0999 V2000
   40.2520   30.8240   42.0270 C   0  0  0  0  0  0  0  0  0  0  0  0
   41.2530   31.3630   42.5400 O   0  0  0  0  0  0  0  0  0  0  0  0
   39.5000   29.7160   42.5090 C   0  0  0  0  0  0  0  0  0  0  0  0
   40.2710   28.6010   42.7820 C   0  0  0  0  0  0  0  0  0  0  0  0
   39.6000   27.4590   43.2650 C   0  0  0  0  0  0  0  0  0  0  0  0
   38.2640   27.5130   43.4310 N   0  0  0  0  0  0  0  0  0  0  0  0
   37.5500   28.6350   43.1470 C   0  0  0  0  0  0  0  0  0  0  0  0
   38.1700   29.7320   42.6870 N   0  0  0  0  0  0  0  0  0  0  0  0
   41.3240   28.4720   42.6800 H   0  0  0  0  0  0  0  0  0  0  0  0
   40.1500   26.5450   43.5010 H   0  0  0  0  0  0  0  0  0  0  0  0
   36.4740   28.7130   43.2700 H   0  0  0  0  0  0  0  0  0  0  0  0
   39.7880   31.3620   40.8210 O   0  0  0  0  0  0  0  0  0  0  0  0
   40.4810   31.3900   36.5020 H   0  0  0  0  0  0  0  0  0  0  0  0
   40.0500   32.2270   36.9620 N   0  0  0  0  0  0  0  0  0  0  0  0
   38.9620   31.7330   37.7820 C   0  0  0  0  0  2  0  0  0  0  0  0
   39.5610   30.6200   38.6150 C   0  0  0  0  0  2  0  0  0  0  0  0
   40.5210   31.2300   39.6110 C   0  0  0  0  0  3  0  0  0  0  0  0
   41.0070   32.5760   39.2210 C   0  0  0  0  0  2  0  0  0  0  0  0
   41.0630   32.8550   37.7510 C   0  0  0  0  0  2  0  0  0  0  0  0
  1  3  1  0  0  0  0
  1  2  2  0  0  0  0
  3  8  2  0  0  0  0
  3  4  1  0  0  0  0
  4  5  2  0  0  0  0
  5  6  1  0  0  0  0
  5 10  1  0  0  0  0
  7 11  1  0  0  0  0
  7  6  2  0  0  0  0
  8  7  1  0  0  0  0
  9  4  1  0  0  0  0
 12  1  1  0  0  0  0
 13 14  1  0  0  0  0
 14 19  1  0  0  0  0
 14 15  1  0  0  0  0
 15 16  1  0  0  0  0
 16 17  1  0  0  0  0
 17 12  1  0  0  0  0
 18 17  1  0  0  0  0
 19 18  1  0  0  0  0
M  END
>  <minimizedAffinity>
-3.94797349

$$$$
