
     RDKit          3D

 41 43  0  0  0  0  0  0  0  0999 V2000
   46.8716   34.6144   42.2248 N   0  0  0  0  0  0  0  0  0  0  0  0
   48.3254   34.7837   42.2613 C   0  0  0  0  0  0  0  0  0  0  0  0
   48.6492   35.5216   40.9581 C   0  0  0  0  0  0  0  0  0  0  0  0
   48.3594   34.6124   39.7907 C   0  0  0  0  0  0  0  0  0  0  0  0
   47.0788   33.8674   39.9007 C   0  0  0  0  0  0  0  0  0  0  0  0
   46.1753   34.2687   41.0302 C   0  0  1  0  0  0  0  0  0  0  0  0
   44.5133   35.9824   44.7702 C   0  0  0  0  0  0  0  0  0  0  0  0
   45.2307   35.8812   43.5745 C   0  0  0  0  0  0  0  0  0  0  0  0
   46.1029   34.7953   43.4091 C   0  0  0  0  0  0  0  0  0  0  0  0
   46.1884   33.9078   44.4378 N   0  0  0  0  0  0  0  0  0  0  0  0
   45.4792   34.0350   45.5834 C   0  0  0  0  0  0  0  0  0  0  0  0
   44.6412   35.0846   45.7341 N   0  0  0  0  0  0  0  0  0  0  0  0
   45.3557   33.1616   41.3031 O   0  0  0  0  0  0  0  0  0  0  0  0
   48.8071   33.7887   42.2198 H   0  0  0  0  0  0  0  0  0  0  0  0
   48.6477   35.3425   43.1376 H   0  0  0  0  0  0  0  0  0  0  0  0
   48.0710   36.4604   40.9229 H   0  0  0  0  0  0  0  0  0  0  0  0
   49.7537   35.6968   41.0037 H   0  0  0  0  0  0  0  0  0  0  0  0
   48.4555   35.2260   38.8749 H   0  0  0  0  0  0  0  0  0  0  0  0
   49.1915   33.8583   39.7630 H   0  0  0  0  0  0  0  0  0  0  0  0
   47.2236   32.7642   39.9081 H   0  0  0  0  0  0  0  0  0  0  0  0
   46.5073   34.0788   38.9569 H   0  0  0  0  0  0  0  0  0  0  0  0
   45.5405   35.1471   40.7607 H   0  0  0  0  0  0  0  0  0  0  0  0
   43.8692   36.8510   44.8031 H   0  0  0  0  0  0  0  0  0  0  0  0
   45.1344   36.6190   42.7659 H   0  0  0  0  0  0  0  0  0  0  0  0
   45.6204   33.2642   46.3527 H   0  0  0  0  0  0  0  0  0  0  0  0
   41.7129   34.4626   43.2191 H   0  0  0  0  0  0  0  0  0  0  0  0
   41.4718   34.1226   42.2802 N   0  0  0  0  0  0  0  0  0  0  0  0
   41.8670   32.7304   42.2198 C   0  0  0  0  0  0  0  0  0  0  0  0
   43.3609   32.6732   42.3297 C   0  0  0  0  0  0  0  0  0  0  0  0
   44.0159   33.4233   41.1755 C   0  0  0  0  0  0  0  0  0  0  0  0
   43.6156   34.8513   41.3296 C   0  0  0  0  0  0  0  0  0  0  0  0
   42.0842   34.8874   41.2390 C   0  0  0  0  0  0  0  0  0  0  0  0
   41.5807   32.2324   41.2610 H   0  0  0  0  0  0  0  0  0  0  0  0
   41.4327   32.1999   43.0875 H   0  0  0  0  0  0  0  0  0  0  0  0
   43.7528   31.6409   42.4156 H   0  0  0  0  0  0  0  0  0  0  0  0
   43.6874   33.1885   43.2566 H   0  0  0  0  0  0  0  0  0  0  0  0
   43.5395   33.0064   40.2591 H   0  0  0  0  0  0  0  0  0  0  0  0
   43.8528   35.2289   42.3480 H   0  0  0  0  0  0  0  0  0  0  0  0
   43.9767   35.5456   40.5719 H   0  0  0  0  0  0  0  0  0  0  0  0
   41.8515   34.4128   40.2639 H   0  0  0  0  0  0  0  0  0  0  0  0
   41.7142   35.9170   41.2373 H   0  0  0  0  0  0  0  0  0  0  0  0
  1  2  1  0
  1  9  1  0
  3  2  1  0
  4  5  1  0
  4  3  1  0
  5  6  1  0
  6 13  1  0
  6  1  1  0
  7 12  2  0
  8  7  1  0
  9  8  2  0
  9 10  1  0
 10 11  2  0
 11 12  1  0
  2 14  1  0
  2 15  1  0
  3 16  1  0
  3 17  1  0
  4 18  1  0
  4 19  1  0
  5 20  1  0
  5 21  1  0
  6 22  1  6
  7 23  1  0
  8 24  1  0
 11 25  1  0
 26 27  1  0
 27 28  1  0
 28 29  1  0
 29 30  1  0
 30 31  1  0
 31 32  1  0
 32 27  1  0
 28 33  1  0
 28 34  1  0
 29 35  1  0
 29 36  1  0
 30 37  1  0
 31 38  1  0
 31 39  1  0
 32 40  1  0
 32 41  1  0
 13 30  1  0
M  ISO  8  14  13  15  13  16  13  17  13  18  13  19  13  20  13  21  13
M  ISO  5  22  13  23  14  24  14  25  14  26   5
M  END
>  <DihAtoms>  (1) 
5,12,29,28

>  <DihDeg>  (1) 
114.49400428431143

$$$$
