
 OpenBabel03252502243D

 32 34  0  0  1  0  0  0  0  0999 V2000
   46.7700   34.5710   42.2760 N   0  0  0  0  0  0  0  0  0  0  0  0
   48.2320   34.6200   42.3020 C   0  0  0  0  0  0  0  0  0  0  0  0
   48.6050   35.3780   41.0240 C   0  0  0  0  0  0  0  0  0  0  0  0
   48.2300   34.5410   39.8270 C   0  0  0  0  0  0  0  0  0  0  0  0
   46.8940   33.9000   39.9240 C   0  0  0  0  0  0  0  0  0  0  0  0
   46.0360   34.3310   41.0780 C   0  0  1  0  0  0  0  0  0  0  0  0
   48.6300   33.5910   42.2180 H   0  0  0  0  0  0  0  0  0  0  0  0
   48.6080   35.1160   43.1950 H   0  0  0  0  0  0  0  0  0  0  0  0
   48.1060   36.3610   41.0310 H   0  0  0  0  0  0  0  0  0  0  0  0
   49.7210   35.4600   41.0630 H   0  0  0  0  0  0  0  0  0  0  0  0
   48.3700   35.1790   38.9340 H   0  0  0  0  0  0  0  0  0  0  0  0
   48.9970   33.7220   39.7610 H   0  0  0  0  0  0  0  0  0  0  0  0
   46.9480   32.7890   39.8870 H   0  0  0  0  0  0  0  0  0  0  0  0
   46.3340   34.1940   38.9950 H   0  0  0  0  0  0  0  0  0  0  0  0
   45.4750   35.2680   40.8490 H   0  0  0  0  0  0  0  0  0  0  0  0
   44.4710   35.9770   44.8560 C   0  0  0  0  0  0  0  0  0  0  0  0
   45.1610   35.8580   43.6470 C   0  0  0  0  0  0  0  0  0  0  0  0
   46.0280   34.7690   43.4750 C   0  0  0  0  0  0  0  0  0  0  0  0
   46.1370   33.8960   44.5140 N   0  0  0  0  0  0  0  0  0  0  0  0
   45.4540   34.0400   45.6730 C   0  0  0  0  0  0  0  0  0  0  0  0
   44.6210   35.0930   45.8290 N   0  0  0  0  0  0  0  0  0  0  0  0
   43.8290   36.8470   44.8920 H   0  0  0  0  0  0  0  0  0  0  0  0
   45.0460   36.5850   42.8300 H   0  0  0  0  0  0  0  0  0  0  0  0
   45.6130   33.2790   46.4500 H   0  0  0  0  0  0  0  0  0  0  0  0
   45.1310   33.2860   41.3180 O   0  0  0  0  0  0  0  0  0  0  0  0
   40.8640   32.6320   41.2720 H   0  0  0  0  0  0  0  0  0  0  0  0
   41.1470   32.9380   40.3330 N   0  0  0  0  0  0  0  0  0  0  0  0
   42.0910   31.9590   39.8360 C   0  0  0  0  0  2  0  0  0  0  0  0
   43.3160   32.0240   40.6980 C   0  0  0  0  0  2  0  0  0  0  0  0
   43.9530   33.4060   40.6260 C   0  0  0  0  0  3  0  0  0  0  0  0
   42.9560   34.3530   41.2030 C   0  0  0  0  0  2  0  0  0  0  0  0
   41.7030   34.2550   40.3230 C   0  0  0  0  0  2  0  0  0  0  0  0
  1  2  1  0  0  0  0
  1 18  1  0  0  0  0
  2  8  1  0  0  0  0
  3  9  1  0  0  0  0
  3 10  1  0  0  0  0
  3  2  1  0  0  0  0
  4  5  1  0  0  0  0
  4  3  1  0  0  0  0
  5  6  1  0  0  0  0
  6 15  1  6  0  0  0
  6 25  1  0  0  0  0
  6  1  1  0  0  0  0
  7  2  1  0  0  0  0
 11  4  1  0  0  0  0
 12  4  1  0  0  0  0
 13  5  1  0  0  0  0
 14  5  1  0  0  0  0
 16 22  1  0  0  0  0
 16 21  1  0  0  0  0
 17 16  2  0  0  0  0
 18 17  1  0  0  0  0
 18 19  2  0  0  0  0
 19 20  1  0  0  0  0
 20 21  2  0  0  0  0
 20 24  1  0  0  0  0
 23 17  1  0  0  0  0
 27 26  1  0  0  0  0
 28 27  1  0  0  0  0
 28 29  1  0  0  0  0
 30 29  1  0  0  0  0
 30 31  1  0  0  0  0
 30 25  1  0  0  0  0
 32 27  1  0  0  0  0
 32 31  1  0  0  0  0
M  END
>  <minimizedAffinity>
-5.32313824

>  <minimizedRMSD>
0.654460371

$$$$
