
 OpenBabel03242515103D

 34 36  0  0  0  0  0  0  0  0999 V2000
   46.1240   33.9900   44.6110 C   0  0  0  0  0  0  0  0  0  0  0  0
   45.0750   34.7330   45.0740 C   0  0  0  0  0  0  0  0  0  0  0  0
   44.5510   35.8200   44.4010 C   0  0  0  0  0  0  0  0  0  0  0  0
   45.1110   36.1840   43.1980 C   0  0  0  0  0  0  0  0  0  0  0  0
   46.1570   35.4590   42.7180 C   0  0  0  0  0  0  0  0  0  0  0  0
   46.6630   34.3720   43.4110 C   0  0  0  0  0  0  0  0  0  0  0  0
   44.6230   34.4580   46.0200 H   0  0  0  0  0  0  0  0  0  0  0  0
   43.7240   36.3460   44.8390 H   0  0  0  0  0  0  0  0  0  0  0  0
   44.6870   37.0440   42.6800 H   0  0  0  0  0  0  0  0  0  0  0  0
   46.5590   35.7860   41.7700 H   0  0  0  0  0  0  0  0  0  0  0  0
   47.3940   30.6220   45.3030 C   0  0  0  0  0  0  0  0  0  0  0  0
   47.5990   30.6370   46.6810 C   0  0  0  0  0  0  0  0  0  0  0  0
   47.3010   31.8070   47.3840 C   0  0  0  0  0  0  0  0  0  0  0  0
   46.8250   32.8920   46.7180 N   0  0  0  0  0  0  0  0  0  0  0  0
   46.6320   32.8510   45.3660 C   0  0  0  0  0  0  0  0  0  0  0  0
   46.9250   31.7150   44.7030 N   0  0  0  0  0  0  0  0  0  0  0  0
   47.6200   29.7270   44.7530 H   0  0  0  0  0  0  0  0  0  0  0  0
   47.9790   29.7780   47.2320 H   0  0  0  0  0  0  0  0  0  0  0  0
   47.4290   31.9060   48.4460 H   0  0  0  0  0  0  0  0  0  0  0  0
   47.7540   33.7220   42.7770 N   0  0  0  0  0  0  0  0  0  0  0  0
   47.5660   32.6770   42.6970 H   0  0  0  0  0  0  0  0  0  0  0  0
   49.2270   34.3080   42.1610 S   0  0  0  0  0  0  0  0  0  0  0  0
   48.9360   35.4260   41.1770 O   0  0  0  0  0  0  0  0  0  0  0  0
   49.5570   35.7380   40.4900 H   0  0  0  0  0  0  0  0  0  0  0  0
   50.1940   34.7750   43.1850 O   0  0  0  0  0  0  0  0  0  0  0  0
   50.5350   35.6840   43.3840 H   0  0  0  0  0  0  0  0  0  0  0  0
   49.8510   33.0390   41.2110 O   0  0  0  0  0  0  0  0  0  0  0  0
   51.4700   28.6040   41.8780 H   0  0  0  0  0  0  0  0  0  0  0  0
   51.2440   29.4800   41.3690 N   0  0  0  0  0  0  0  0  0  0  0  0
   52.3220   30.4290   41.3410 C   0  0  0  0  0  2  0  0  0  0  0  0
   51.8100   31.7900   40.9490 C   0  0  0  0  0  2  0  0  0  0  0  0
   50.8050   32.3560   41.9120 C   0  0  0  0  0  3  0  0  0  0  0  0
   50.0860   31.2250   42.6530 C   0  0  0  0  0  2  0  0  0  0  0  0
   49.9660   30.0350   41.7360 C   0  0  0  0  0  2  0  0  0  0  0  0
  1  2  1  0  0  0  0
  1 15  1  0  0  0  0
  2  7  1  0  0  0  0
  3  8  1  0  0  0  0
  3  2  2  0  0  0  0
  4  3  1  0  0  0  0
  5  4  2  0  0  0  0
  5  6  1  0  0  0  0
  6  1  2  0  0  0  0
  9  4  1  0  0  0  0
 10  5  1  0  0  0  0
 11 12  1  0  0  0  0
 12 18  1  0  0  0  0
 12 13  2  0  0  0  0
 13 19  1  0  0  0  0
 14 13  1  0  0  0  0
 15 14  2  0  0  0  0
 16 11  2  0  0  0  0
 16 15  1  0  0  0  0
 17 11  1  0  0  0  0
 20  6  1  0  0  0  0
 21 20  1  0  0  0  0
 22 20  1  0  0  0  0
 22 25  1  0  0  0  0
 23 22  1  0  0  0  0
 24 23  1  0  0  0  0
 25 26  1  0  0  0  0
 27 32  1  0  0  0  0
 27 22  1  0  0  0  0
 29 34  1  0  0  0  0
 29 28  1  0  0  0  0
 30 29  1  0  0  0  0
 31 30  1  0  0  0  0
 31 32  1  0  0  0  0
 32 33  1  0  0  0  0
 34 33  1  0  0  0  0
M  END
>  <minimizedAffinity>
-5.86086607

>  <minimizedRMSD>
2.16698074

$$$$
