
     RDKit          3D

 52 55  0  0  0  0  0  0  0  0999 V2000
   46.3764   33.4438   44.6707 C   0  0  0  0  0  0  0  0  0  0  0  0
   45.8495   33.8294   45.6698 O   0  0  0  0  0  0  0  0  0  0  0  0
   44.4780   31.7664   42.8882 Cl  0  0  0  0  0  0  0  0  0  0  0  0
   44.5630   33.5157   42.8028 C   0  0  0  0  0  0  0  0  0  0  0  0
   45.4695   34.1503   43.6877 C   0  0  0  0  0  0  0  0  0  0  0  0
   45.4316   35.5076   43.5217 C   0  0  0  0  0  0  0  0  0  0  0  0
   44.7219   36.2609   42.7099 C   0  0  0  0  0  0  0  0  0  0  0  0
   43.8529   35.5901   41.8662 C   0  0  0  0  0  0  0  0  0  0  0  0
   43.7702   34.2420   41.9077 C   0  0  0  0  0  0  0  0  0  0  0  0
   42.8760   33.6818   41.0295 O   0  0  0  0  0  0  0  0  0  0  0  0
   40.5878   33.1023   39.8897 O   0  0  0  0  0  0  0  0  0  0  0  0
   41.2300   33.3470   41.2283 P   0  0  0  0  0  0  0  0  0  0  0  0
   41.0665   31.9934   42.2347 O   0  0  0  0  0  0  0  0  0  0  0  0
   40.4257   34.6087   42.0221 O   0  0  0  0  0  0  0  0  0  0  0  0
   47.3921   32.6817   43.8896 C   0  0  0  0  0  0  0  0  0  0  0  0
   48.3200   33.2128   43.1161 C   0  0  0  0  0  0  0  0  0  0  0  0
   49.1014   32.2980   42.4287 C   0  0  0  0  0  0  0  0  0  0  0  0
   48.8259   30.9229   42.6315 N   0  0  0  0  0  0  0  0  0  0  0  0
   47.8866   30.4740   43.4208 C   0  0  0  0  0  0  0  0  0  0  0  0
   47.0952   31.3743   44.1130 N   0  0  0  0  0  0  0  0  0  0  0  0
   48.6850   34.6042   42.9976 C   0  0  1  0  0  0  0  0  0  0  0  0
   49.5795   35.1427   42.1383 C   0  0  0  0  0  0  0  0  0  0  0  0
   48.1675   35.3120   41.6599 C   0  0  1  0  0  0  0  0  0  0  0  0
   47.7138   34.4272   40.6467 N   0  0  0  0  0  0  0  0  0  0  0  0
   46.1072   36.1050   44.1906 H   0  0  0  0  0  0  0  0  0  0  0  0
   44.7713   37.3539   42.6581 H   0  0  0  0  0  0  0  0  0  0  0  0
   43.2442   36.1969   41.1732 H   0  0  0  0  0  0  0  0  0  0  0  0
   41.0547   32.2420   43.1913 H   0  0  0  0  0  0  0  0  0  0  0  0
   40.3938   35.4211   41.4706 H   0  0  0  0  0  0  0  0  0  0  0  0
   49.9026   32.4986   41.7503 H   0  0  0  0  0  0  0  0  0  0  0  0
   47.7999   29.3972   43.4716 H   0  0  0  0  0  0  0  0  0  0  0  0
   48.2324   35.1863   43.8635 H   0  0  0  0  0  0  0  0  0  0  0  0
   50.2320   34.4927   41.4806 H   0  0  0  0  0  0  0  0  0  0  0  0
   50.1138   36.0985   42.3254 H   0  0  0  0  0  0  0  0  0  0  0  0
   47.7035   36.3044   41.7976 H   0  0  0  0  0  0  0  0  0  0  0  0
   46.8410   33.9011   40.9450 H   0  0  0  0  0  0  0  0  0  0  0  0
   47.3022   37.1225   37.1751 H   0  0  0  0  0  0  0  0  0  0  0  0
   47.9120   36.3132   37.0123 N   0  0  0  0  0  0  0  0  0  0  0  0
   48.9979   36.3078   37.9784 C   0  0  0  0  0  0  0  0  0  0  0  0
   48.3453   36.3082   39.3358 C   0  0  0  0  0  0  0  0  0  0  0  0
   47.2909   35.2765   39.5250 C   0  0  0  0  0  0  0  0  0  0  0  0
   46.9938   34.4419   38.3265 C   0  0  0  0  0  0  0  0  0  0  0  0
   47.1898   35.0696   36.9993 C   0  0  0  0  0  0  0  0  0  0  0  0
   49.6938   35.4758   37.8061 H   0  0  0  0  0  0  0  0  0  0  0  0
   49.5154   37.2937   37.8567 H   0  0  0  0  0  0  0  0  0  0  0  0
   49.1709   36.2674   40.0801 H   0  0  0  0  0  0  0  0  0  0  0  0
   47.9330   37.3520   39.4618 H   0  0  0  0  0  0  0  0  0  0  0  0
   46.3672   35.7845   39.8817 H   0  0  0  0  0  0  0  0  0  0  0  0
   47.6055   33.4988   38.4393 H   0  0  0  0  0  0  0  0  0  0  0  0
   45.9401   34.0983   38.4047 H   0  0  0  0  0  0  0  0  0  0  0  0
   47.8096   34.3687   36.3693 H   0  0  0  0  0  0  0  0  0  0  0  0
   46.2630   35.2179   36.4067 H   0  0  0  0  0  0  0  0  0  0  0  0
  1  2  2  0
  4  3  1  0
  4  5  2  0
  5  1  1  0
  6  5  1  0
  7  6  2  0
  8  9  2  0
  8  7  1  0
  9  4  1  0
 10 12  1  0
 10  9  1  0
 11 12  2  0
 12 14  1  0
 12 13  1  0
 15 20  1  0
 15  1  1  0
 16 15  2  0
 17 18  2  0
 17 16  1  0
 18 19  1  0
 19 20  2  0
 21 16  1  0
 22 21  1  0
 23 22  1  0
 23 21  1  0
 24 23  1  0
  6 25  1  0
  7 26  1  0
  8 27  1  0
 13 28  1  0
 14 29  1  0
 17 30  1  0
 19 31  1  0
 21 32  1  1
 22 33  1  0
 22 34  1  0
 23 35  1  1
 24 36  1  0
 37 38  1  0
 38 39  1  0
 39 40  1  0
 40 41  1  0
 41 42  1  0
 42 43  1  0
 43 38  1  0
 39 44  1  0
 39 45  1  0
 40 46  1  0
 40 47  1  0
 41 48  1  0
 42 49  1  0
 42 50  1  0
 43 51  1  0
 43 52  1  0
 24 41  1  0
M  ISO  8  25  14  26  14  27  14  28   3  29   3  30  14  31  14  32  13
M  ISO  5  33  13  34  13  35  13  36   5  37   5
M  END
>  <DihAtoms>  (1) 
22,23,40,39

>  <DihDeg>  (1) 
59.99970103020748

$$$$
