REMARK  Name = 
REMARK  7 active torsions:
REMARK  status: ('A' for Active; 'I' for Inactive)
REMARK    1  A    between atoms: C_1  and  C_11
REMARK    2  A    between atoms: C_6  and  N_13
REMARK    3  A    between atoms: N_13  and  S_14
REMARK    4  A    between atoms: S_14  and  O_15
REMARK    5  A    between atoms: S_14  and  O_16
REMARK    6  A    between atoms: S_14  and  O_17
REMARK    7  A    between atoms: O_17  and  C_32
REMARK                            x       y       z     vdW  Elec       q    Type
REMARK                         _______ _______ _______ _____ _____    ______ ____
ROOT
ATOM      1  C   UNL     1      45.598  33.903  45.595  0.00  0.00    +0.000 A 
ATOM      2  C   UNL     1      44.786  34.994  45.729  0.00  0.00    +0.000 A 
ATOM      3  C   UNL     1      44.453  35.834  44.684  0.00  0.00    +0.000 A 
ATOM      4  C   UNL     1      44.962  35.566  43.434  0.00  0.00    +0.000 A 
ATOM      5  C   UNL     1      45.773  34.485  43.277  0.00  0.00    +0.000 A 
ATOM      6  C   UNL     1      46.091  33.658  44.340  0.00  0.00    +0.000 A 
ATOM      7  H   UNL     1      44.377  35.218  46.708  0.00  0.00    +0.000 HD
ATOM      8  H   UNL     1      43.807  36.669  44.881  0.00  0.00    +0.000 HD
ATOM      9  H   UNL     1      44.690  36.238  42.620  0.00  0.00    +0.000 HD
ATOM     10  H   UNL     1      46.145  34.320  42.276  0.00  0.00    +0.000 HD
ENDROOT
BRANCH   1  15
ATOM     11  C   UNL     1      47.567  31.841  47.898  0.00  0.00    +0.000 A 
ATOM     12  C   UNL     1      46.630  31.445  48.850  0.00  0.00    +0.000 A 
ATOM     13  C   UNL     1      45.311  31.884  48.706  0.00  0.00    +0.000 A 
ATOM     14  N   UNL     1      44.975  32.679  47.656  0.00  0.00    +0.000 NA
ATOM     15  C   UNL     1      45.913  33.053  46.736  0.00  0.00    +0.000 A 
ATOM     16  N   UNL     1      47.181  32.621  46.889  0.00  0.00    +0.000 NA
ATOM     17  H   UNL     1      48.584  31.509  47.999  0.00  0.00    +0.000 HD
ATOM     18  H   UNL     1      46.880  30.809  49.697  0.00  0.00    +0.000 HD
ATOM     19  H   UNL     1      44.526  31.627  49.392  0.00  0.00    +0.000 HD
ENDBRANCH   1  15
BRANCH   6  20
ATOM     20  N   UNL     1      46.947  32.575  44.012  0.00  0.00    +0.000 N 
ATOM     21  H   UNL     1      46.684  31.711  44.577  0.00  0.00    +0.000 HD
BRANCH  20  22
ATOM     22  S   UNL     1      48.249  32.440  42.926  0.00  0.00    +0.000 S 
BRANCH  22  23
ATOM     23  O   UNL     1      47.700  32.202  41.531  0.00  0.00    +0.000 OA
ATOM     24  H   UNL     1      48.210  31.821  40.790  0.00  0.00    +0.000 HD
ENDBRANCH  22  23
BRANCH  22  25
ATOM     25  O   UNL     1      49.177  33.598  42.912  0.00  0.00    +0.000 OA
ATOM     26  H   UNL     1      49.360  34.270  42.208  0.00  0.00    +0.000 HD
ENDBRANCH  22  25
BRANCH  22  27
ATOM     27  O   UNL     1      49.032  30.986  43.343  0.00  0.00    +0.000 OA
BRANCH  27  32
ATOM     28  H   UNL     1      51.173  32.820  39.497  0.00  0.00    +0.000 HD
ATOM     29  N   UNL     1      50.779  32.789  40.457  0.00  0.00    +0.000 NA
ATOM     30  C   UNL     1      51.737  32.434  41.466  0.00  0.00    +0.000 C 
ATOM     31  C   UNL     1      51.034  32.030  42.735  0.00  0.00    +0.000 C 
ATOM     32  C   UNL     1      50.153  30.823  42.578  0.00  0.00    +0.000 C 
ATOM     33  C   UNL     1      49.684  30.694  41.126  0.00  0.00    +0.000 C 
ATOM     34  C   UNL     1      49.531  32.072  40.535  0.00  0.00    +0.000 C 
ENDBRANCH  27  32
ENDBRANCH  22  27
ENDBRANCH  20  22
ENDBRANCH   6  20
TORSDOF 7
