
 OpenBabel03242511063D

 25 27  0  0  1  0  0  0  0  0999 V2000
   45.3190   33.6400   45.0220 C   0  0  1  0  0  0  0  0  0  0  0  0
   44.8700   35.0630   45.1800 C   0  0  0  0  0  0  0  0  0  0  0  0
   46.1000   34.6740   44.3360 C   0  0  2  0  0  0  0  0  0  0  0  0
   44.6560   32.9860   44.4240 H   0  0  0  0  0  0  0  0  0  0  0  0
   43.9550   35.3320   44.6620 H   0  0  0  0  0  0  0  0  0  0  0  0
   45.0650   35.4860   46.1910 H   0  0  0  0  0  0  0  0  0  0  0  0
   47.0690   35.0490   44.7840 H   0  0  0  0  0  0  0  0  0  0  0  0
   47.5620   31.5740   47.1460 C   0  0  0  0  0  0  0  0  0  0  0  0
   46.8830   31.6550   48.4130 C   0  0  0  0  0  0  0  0  0  0  0  0
   45.6810   32.4220   48.4970 C   0  0  0  0  0  0  0  0  0  0  0  0
   45.2280   33.0360   47.4010 N   0  0  0  0  0  0  0  0  0  0  0  0
   45.9010   32.9380   46.2060 C   0  0  0  0  0  0  0  0  0  0  0  0
   47.0540   32.2120   46.0920 N   0  0  0  0  0  0  0  0  0  0  0  0
   48.4670   30.9870   47.1110 H   0  0  0  0  0  0  0  0  0  0  0  0
   47.3100   31.1310   49.2560 H   0  0  0  0  0  0  0  0  0  0  0  0
   45.2120   32.4510   49.4700 H   0  0  0  0  0  0  0  0  0  0  0  0
   46.0000   34.9350   42.9430 N   0  0  0  0  0  0  0  0  0  0  0  0
   45.0510   34.6040   42.6120 H   0  0  0  0  0  0  0  0  0  0  0  0
   49.8720   34.9710   40.0190 H   0  0  0  0  0  0  0  0  0  0  0  0
   48.8870   35.2670   40.2570 N   0  0  0  0  0  0  0  0  0  0  0  0
   48.7840   35.7330   41.6240 C   0  0  0  0  0  0  0  0  0  0  0  0
   48.3590   34.6350   42.5640 C   0  0  0  0  0  0  0  0  0  0  0  0
   46.9700   34.1540   42.1980 C   0  0  0  0  0  0  0  0  0  0  0  0
   46.7190   34.3040   40.7010 C   0  0  0  0  0  0  0  0  0  0  0  0
   48.0330   34.1560   39.9670 C   0  0  0  0  0  0  0  0  0  0  0  0
  1  4  1  6  0  0  0
  1  2  1  0  0  0  0
  1 12  1  0  0  0  0
  2  6  1  0  0  0  0
  3  7  1  1  0  0  0
  3  1  1  0  0  0  0
  3  2  1  0  0  0  0
  5  2  1  0  0  0  0
  8  9  1  0  0  0  0
  9 10  2  0  0  0  0
  9 15  1  0  0  0  0
 10 16  1  0  0  0  0
 11 10  1  0  0  0  0
 12 11  2  0  0  0  0
 13 12  1  0  0  0  0
 13  8  2  0  0  0  0
 14  8  1  0  0  0  0
 17  3  1  0  0  0  0
 18 17  1  0  0  0  0
 19 20  1  0  0  0  0
 20 21  1  0  0  0  0
 21 22  1  0  0  0  0
 23 22  1  0  0  0  0
 23 17  1  0  0  0  0
 24 23  1  0  0  0  0
 25 20  1  0  0  0  0
 25 24  1  0  0  0  0
M  END
>  <minimizedAffinity>
-4.71233416

>  <minimizedRMSD>
7.32556581

$$$$
