REMARK  Name = 
REMARK  3 active torsions:
REMARK  status: ('A' for Active; 'I' for Inactive)
REMARK    1  A    between atoms: C_1  and  C_8
REMARK    2  A    between atoms: C_3  and  N_10
REMARK    3  A    between atoms: N_10  and  C_23
REMARK                            x       y       z     vdW  Elec       q    Type
REMARK                         _______ _______ _______ _____ _____    ______ ____
ROOT
ATOM      1  C   UNL     1      45.805  32.754  45.863  0.00  0.00    +0.000 C 
ATOM      2  C   UNL     1      46.867  32.803  46.921  0.00  0.00    +0.000 C 
ATOM      3  C   UNL     1      45.363  32.807  47.260  0.00  0.00    +0.000 C 
ATOM      4  H   UNL     1      45.715  31.799  45.310  0.00  0.00    +0.000 HD
ATOM      5  H   UNL     1      47.427  31.886  47.075  0.00  0.00    +0.000 HD
ATOM      6  H   UNL     1      47.400  33.779  46.978  0.00  0.00    +0.000 HD
ATOM      7  H   UNL     1      45.024  33.785  47.715  0.00  0.00    +0.000 HD
ENDROOT
BRANCH   1  12
ATOM      8  C   UNL     1      44.615  36.027  44.566  0.00  0.00    +0.000 A 
ATOM      9  C   UNL     1      45.297  36.079  43.300  0.00  0.00    +0.000 A 
ATOM     10  C   UNL     1      46.149  34.991  42.936  0.00  0.00    +0.000 A 
ATOM     11  N   UNL     1      46.282  33.965  43.780  0.00  0.00    +0.000 NA
ATOM     12  C   UNL     1      45.616  33.947  44.983  0.00  0.00    +0.000 A 
ATOM     13  N   UNL     1      44.794  34.972  45.360  0.00  0.00    +0.000 NA
ATOM     14  H   UNL     1      43.978  36.862  44.815  0.00  0.00    +0.000 HD
ATOM     15  H   UNL     1      45.140  36.942  42.669  0.00  0.00    +0.000 HD
ATOM     16  H   UNL     1      46.637  35.080  41.976  0.00  0.00    +0.000 HD
ENDBRANCH   1  12
BRANCH   3  17
ATOM     17  N   UNL     1      44.889  31.674  47.974  0.00  0.00    +0.000 NA
ATOM     18  H   UNL     1      43.993  31.346  47.517  0.00  0.00    +0.000 HD
BRANCH  17  23
ATOM     19  H   UNL     1      46.232  33.823  52.111  0.00  0.00    +0.000 HD
ATOM     20  N   UNL     1      46.393  33.128  51.334  0.00  0.00    +0.000 NA
ATOM     21  C   UNL     1      46.188  33.725  50.031  0.00  0.00    +0.000 C 
ATOM     22  C   UNL     1      44.784  33.511  49.526  0.00  0.00    +0.000 C 
ATOM     23  C   UNL     1      44.528  32.031  49.333  0.00  0.00    +0.000 C 
ATOM     24  C   UNL     1      45.342  31.204  50.323  0.00  0.00    +0.000 C 
ATOM     25  C   UNL     1      45.538  32.008  51.589  0.00  0.00    +0.000 C 
ENDBRANCH  17  23
ENDBRANCH   3  17
TORSDOF 3
