
 OpenBabel03252506213D

 33 35  0  0  0  0  0  0  0  0999 V2000
   45.1140   36.0440   43.0730 C   0  0  0  0  0  0  0  0  0  0  0  0
   44.1020   35.8910   42.1200 C   0  0  0  0  0  0  0  0  0  0  0  0
   44.2800   34.8960   41.1370 C   0  0  0  0  0  0  0  0  0  0  0  0
   45.4100   34.1480   41.1630 N   0  0  0  0  0  0  0  0  0  0  0  0
   46.3660   34.3380   42.1140 C   0  0  0  0  0  0  0  0  0  0  0  0
   46.2080   35.2790   43.0530 N   0  0  0  0  0  0  0  0  0  0  0  0
   43.2300   36.5130   42.1500 H   0  0  0  0  0  0  0  0  0  0  0  0
   43.5160   34.7450   40.3770 H   0  0  0  0  0  0  0  0  0  0  0  0
   48.8750   35.6830   41.0880 Cl  0  0  0  0  0  0  0  0  0  0  0  0
   48.7420   34.0420   41.5940 C   0  0  0  0  0  0  0  0  0  0  0  0
   47.5650   33.4700   42.0590 C   0  0  0  0  0  0  0  0  0  0  0  0
   47.4410   32.1740   42.4630 C   0  0  0  0  0  0  0  0  0  0  0  0
   48.5560   31.3920   42.4040 C   0  0  0  0  0  0  0  0  0  0  0  0
   49.7880   31.8360   41.9630 C   0  0  0  0  0  0  0  0  0  0  0  0
   49.8240   33.1760   41.5680 C   0  0  0  0  0  0  0  0  0  0  0  0
   46.5210   31.7370   42.8230 H   0  0  0  0  0  0  0  0  0  0  0  0
   48.5170   30.3570   42.7130 H   0  0  0  0  0  0  0  0  0  0  0  0
   50.6840   31.2320   41.9080 H   0  0  0  0  0  0  0  0  0  0  0  0
   50.7590   33.6110   41.2040 H   0  0  0  0  0  0  0  0  0  0  0  0
   44.9320   37.0750   44.0940 C   0  0  0  0  0  3  0  0  0  0  0  0
   45.4700   38.2670   43.9020 C   0  0  0  0  0  3  0  0  0  0  0  0
   45.2740   39.3090   44.9570 C   0  0  0  0  0  0  0  0  0  0  0  0
   44.4770   38.9960   45.6620 H   0  0  0  0  0  0  0  0  0  0  0  0
   46.2030   39.4930   45.5230 H   0  0  0  0  0  0  0  0  0  0  0  0
   44.7990   40.4970   44.2760 N   0  0  0  0  0  0  0  0  0  0  0  0
   45.6770   40.9490   43.8800 H   0  0  0  0  0  0  0  0  0  0  0  0
   46.1840   43.1200   46.7360 H   0  0  0  0  0  0  0  0  0  0  0  0
   45.2080   43.4610   46.8930 N   0  0  0  0  0  0  0  0  0  0  0  0
   44.5660   43.8860   45.6790 C   0  0  0  0  0  2  0  0  0  0  0  0
   44.4150   42.8320   44.6370 C   0  0  0  0  0  2  0  0  0  0  0  0
   44.1610   41.4480   45.1430 C   0  0  0  0  0  3  0  0  0  0  0  0
   44.6370   41.1930   46.5450 C   0  0  0  0  0  2  0  0  0  0  0  0
   44.4130   42.3830   47.4470 C   0  0  0  0  0  2  0  0  0  0  0  0
  1 20  1  0  0  0  0
  2  7  1  0  0  0  0
  2  1  2  0  0  0  0
  3  4  2  0  0  0  0
  3  2  1  0  0  0  0
  4  5  1  0  0  0  0
  5  6  2  0  0  0  0
  6  1  1  0  0  0  0
  8  3  1  0  0  0  0
  9 10  1  0  0  0  0
 10 11  1  0  0  0  0
 11  5  1  0  0  0  0
 11 12  2  0  0  0  0
 12 16  1  0  0  0  0
 13 12  1  0  0  0  0
 13 17  1  0  0  0  0
 14 13  2  0  0  0  0
 15 10  2  0  0  0  0
 15 14  1  0  0  0  0
 18 14  1  0  0  0  0
 19 15  1  0  0  0  0
 21 20  2  0  0  0  0
 21 22  1  0  0  0  0
 22 24  1  0  0  0  0
 22 23  1  0  0  0  0
 25 22  1  0  0  0  0
 25 31  1  0  0  0  0
 26 25  1  0  0  0  0
 27 28  1  0  0  0  0
 28 33  1  0  0  0  0
 29 28  1  0  0  0  0
 30 31  1  0  0  0  0
 30 29  1  0  0  0  0
 31 32  1  0  0  0  0
 32 33  1  0  0  0  0
M  END
>  <minimizedAffinity>
-3.52003455

>  <minimizedRMSD>
0.455534816

$$$$
