
 OpenBabel03252506223D

 33 35  0  0  0  0  0  0  0  0999 V2000
   45.1090   36.1110   43.1390 C   0  0  0  0  0  0  0  0  0  0  0  0
   44.1070   35.9840   42.1740 C   0  0  0  0  0  0  0  0  0  0  0  0
   44.2830   35.0000   41.1790 C   0  0  0  0  0  0  0  0  0  0  0  0
   45.4020   34.2360   41.2080 N   0  0  0  0  0  0  0  0  0  0  0  0
   46.3500   34.4010   42.1730 C   0  0  0  0  0  0  0  0  0  0  0  0
   46.1930   35.3310   43.1230 N   0  0  0  0  0  0  0  0  0  0  0  0
   43.2420   36.6180   42.2010 H   0  0  0  0  0  0  0  0  0  0  0  0
   43.5250   34.8690   40.4080 H   0  0  0  0  0  0  0  0  0  0  0  0
   48.8630   35.6970   41.0970 Cl  0  0  0  0  0  0  0  0  0  0  0  0
   48.7160   34.0660   41.6330 C   0  0  0  0  0  0  0  0  0  0  0  0
   47.5370   33.5170   42.1200 C   0  0  0  0  0  0  0  0  0  0  0  0
   47.4020   32.2300   42.5480 C   0  0  0  0  0  0  0  0  0  0  0  0
   48.5070   31.4330   42.4910 C   0  0  0  0  0  0  0  0  0  0  0  0
   49.7390   31.8540   42.0290 C   0  0  0  0  0  0  0  0  0  0  0  0
   49.7870   33.1870   41.6100 C   0  0  0  0  0  0  0  0  0  0  0  0
   46.4800   31.8100   42.9260 H   0  0  0  0  0  0  0  0  0  0  0  0
   48.4580   30.4050   42.8180 H   0  0  0  0  0  0  0  0  0  0  0  0
   50.6270   31.2390   41.9750 H   0  0  0  0  0  0  0  0  0  0  0  0
   50.7230   33.6040   41.2290 H   0  0  0  0  0  0  0  0  0  0  0  0
   44.9290   37.1310   44.1720 C   0  0  0  0  0  3  0  0  0  0  0  0
   45.4380   38.3340   43.9770 C   0  0  0  0  0  3  0  0  0  0  0  0
   45.2450   39.3650   45.0440 C   0  0  0  0  0  0  0  0  0  0  0  0
   44.4720   39.0290   45.7660 H   0  0  0  0  0  0  0  0  0  0  0  0
   46.1830   39.5660   45.5890 H   0  0  0  0  0  0  0  0  0  0  0  0
   44.7270   40.5470   44.3840 N   0  0  0  0  0  0  0  0  0  0  0  0
   45.5000   40.8410   43.7150 H   0  0  0  0  0  0  0  0  0  0  0  0
   42.6700   43.7830   43.9990 H   0  0  0  0  0  0  0  0  0  0  0  0
   42.8510   43.9950   45.0060 N   0  0  0  0  0  0  0  0  0  0  0  0
   42.3920   42.9550   45.8860 C   0  0  0  0  0  2  0  0  0  0  0  0
   43.0270   41.6220   45.6810 C   0  0  0  0  0  2  0  0  0  0  0  0
   44.4660   41.6430   45.2740 C   0  0  0  0  0  3  0  0  0  0  0  0
   44.9110   42.9080   44.5960 C   0  0  0  0  0  2  0  0  0  0  0  0
   44.2790   44.1350   45.2120 C   0  0  0  0  0  2  0  0  0  0  0  0
  1 20  1  0  0  0  0
  2  7  1  0  0  0  0
  2  1  2  0  0  0  0
  3  4  2  0  0  0  0
  3  2  1  0  0  0  0
  4  5  1  0  0  0  0
  5  6  2  0  0  0  0
  6  1  1  0  0  0  0
  8  3  1  0  0  0  0
  9 10  1  0  0  0  0
 10 11  1  0  0  0  0
 11  5  1  0  0  0  0
 11 12  2  0  0  0  0
 12 16  1  0  0  0  0
 13 12  1  0  0  0  0
 13 17  1  0  0  0  0
 14 13  2  0  0  0  0
 15 10  2  0  0  0  0
 15 14  1  0  0  0  0
 18 14  1  0  0  0  0
 19 15  1  0  0  0  0
 21 20  2  0  0  0  0
 21 22  1  0  0  0  0
 22 24  1  0  0  0  0
 22 23  1  0  0  0  0
 25 22  1  0  0  0  0
 25 31  1  0  0  0  0
 26 25  1  0  0  0  0
 27 28  1  0  0  0  0
 28 33  1  0  0  0  0
 28 29  1  0  0  0  0
 30 29  1  0  0  0  0
 31 30  1  0  0  0  0
 32 33  1  0  0  0  0
 32 31  1  0  0  0  0
M  END
>  <minimizedAffinity>
-2.57580471

>  <minimizedRMSD>
0.66029954

$$$$
