
 OpenBabel03252506223D

 33 35  0  0  0  0  0  0  0  0999 V2000
   45.1170   36.0400   43.0720 C   0  0  0  0  0  0  0  0  0  0  0  0
   44.1050   35.8870   42.1200 C   0  0  0  0  0  0  0  0  0  0  0  0
   44.2820   34.8930   41.1360 C   0  0  0  0  0  0  0  0  0  0  0  0
   45.4130   34.1450   41.1610 N   0  0  0  0  0  0  0  0  0  0  0  0
   46.3690   34.3350   42.1120 C   0  0  0  0  0  0  0  0  0  0  0  0
   46.2100   35.2750   43.0520 N   0  0  0  0  0  0  0  0  0  0  0  0
   43.2310   36.5090   42.1500 H   0  0  0  0  0  0  0  0  0  0  0  0
   43.5180   34.7420   40.3770 H   0  0  0  0  0  0  0  0  0  0  0  0
   48.8770   35.6820   41.0870 Cl  0  0  0  0  0  0  0  0  0  0  0  0
   48.7450   34.0400   41.5920 C   0  0  0  0  0  0  0  0  0  0  0  0
   47.5690   33.4670   42.0560 C   0  0  0  0  0  0  0  0  0  0  0  0
   47.4450   32.1710   42.4590 C   0  0  0  0  0  0  0  0  0  0  0  0
   48.5600   31.3890   42.3990 C   0  0  0  0  0  0  0  0  0  0  0  0
   49.7920   31.8340   41.9580 C   0  0  0  0  0  0  0  0  0  0  0  0
   49.8270   33.1750   41.5640 C   0  0  0  0  0  0  0  0  0  0  0  0
   46.5250   31.7330   42.8190 H   0  0  0  0  0  0  0  0  0  0  0  0
   48.5220   30.3550   42.7070 H   0  0  0  0  0  0  0  0  0  0  0  0
   50.6880   31.2310   41.9020 H   0  0  0  0  0  0  0  0  0  0  0  0
   50.7620   33.6100   41.2000 H   0  0  0  0  0  0  0  0  0  0  0  0
   44.9350   37.0700   44.0940 C   0  0  0  0  0  3  0  0  0  0  0  0
   45.4670   38.2640   43.9000 C   0  0  0  0  0  3  0  0  0  0  0  0
   45.2720   39.3050   44.9560 C   0  0  0  0  0  0  0  0  0  0  0  0
   44.4710   38.9940   45.6580 H   0  0  0  0  0  0  0  0  0  0  0  0
   46.2000   39.4860   45.5250 H   0  0  0  0  0  0  0  0  0  0  0  0
   44.8020   40.4960   44.2750 N   0  0  0  0  0  0  0  0  0  0  0  0
   45.6820   40.9460   43.8840 H   0  0  0  0  0  0  0  0  0  0  0  0
   46.1820   43.1190   46.7380 H   0  0  0  0  0  0  0  0  0  0  0  0
   45.2060   43.4600   46.8930 N   0  0  0  0  0  0  0  0  0  0  0  0
   44.5660   43.8850   45.6770 C   0  0  0  0  0  2  0  0  0  0  0  0
   44.4160   42.8300   44.6350 C   0  0  0  0  0  2  0  0  0  0  0  0
   44.1620   41.4460   45.1410 C   0  0  0  0  0  3  0  0  0  0  0  0
   44.6360   41.1920   46.5440 C   0  0  0  0  0  2  0  0  0  0  0  0
   44.4100   42.3820   47.4460 C   0  0  0  0  0  2  0  0  0  0  0  0
  1 20  1  0  0  0  0
  2  7  1  0  0  0  0
  2  1  2  0  0  0  0
  3  4  2  0  0  0  0
  3  2  1  0  0  0  0
  4  5  1  0  0  0  0
  5  6  2  0  0  0  0
  6  1  1  0  0  0  0
  8  3  1  0  0  0  0
  9 10  1  0  0  0  0
 10 11  1  0  0  0  0
 11  5  1  0  0  0  0
 11 12  2  0  0  0  0
 12 16  1  0  0  0  0
 13 12  1  0  0  0  0
 13 17  1  0  0  0  0
 14 13  2  0  0  0  0
 15 10  2  0  0  0  0
 15 14  1  0  0  0  0
 18 14  1  0  0  0  0
 19 15  1  0  0  0  0
 21 20  2  0  0  0  0
 21 22  1  0  0  0  0
 22 24  1  0  0  0  0
 22 23  1  0  0  0  0
 25 22  1  0  0  0  0
 25 31  1  0  0  0  0
 26 25  1  0  0  0  0
 27 28  1  0  0  0  0
 28 33  1  0  0  0  0
 29 28  1  0  0  0  0
 30 31  1  0  0  0  0
 30 29  1  0  0  0  0
 31 32  1  0  0  0  0
 32 33  1  0  0  0  0
M  END
>  <minimizedAffinity>
-3.51870108

>  <minimizedRMSD>
0.539584517

$$$$
