
     RDKit          3D

 44 46  0  0  0  0  0  0  0  0999 V2000
   45.1326   36.0068   43.0555 C   0  0  0  0  0  0  0  0  0  0  0  0
   44.1415   35.8022   42.0921 C   0  0  0  0  0  0  0  0  0  0  0  0
   44.3726   34.8032   41.1239 C   0  0  0  0  0  0  0  0  0  0  0  0
   45.5307   34.1003   41.1760 N   0  0  0  0  0  0  0  0  0  0  0  0
   46.4651   34.3401   42.1377 C   0  0  0  0  0  0  0  0  0  0  0  0
   46.2559   35.2862   43.0618 N   0  0  0  0  0  0  0  0  0  0  0  0
   48.9576   35.8033   41.2438 Cl  0  0  0  0  0  0  0  0  0  0  0  0
   48.8687   34.1457   41.7070 C   0  0  0  0  0  0  0  0  0  0  0  0
   47.6976   33.5194   42.1106 C   0  0  0  0  0  0  0  0  0  0  0  0
   47.6077   32.2102   42.4804 C   0  0  0  0  0  0  0  0  0  0  0  0
   48.7539   31.4724   42.4483 C   0  0  0  0  0  0  0  0  0  0  0  0
   49.9842   31.9731   42.0666 C   0  0  0  0  0  0  0  0  0  0  0  0
   49.9843   33.3231   41.7039 C   0  0  0  0  0  0  0  0  0  0  0  0
   44.8956   37.0426   44.0613 C   0  0  0  0  0  0  0  0  0  0  0  0
   45.4737   38.2221   43.9122 C   0  0  0  0  0  0  0  0  0  0  0  0
   45.2207   39.2691   44.9495 C   0  0  0  0  0  0  0  0  0  0  0  0
   44.8156   40.4643   44.2365 N   0  0  0  0  0  0  0  0  0  0  0  0
   43.2447   36.3898   42.1010 H   0  0  0  0  0  0  0  0  0  0  0  0
   43.6263   34.6120   40.3562 H   0  0  0  0  0  0  0  0  0  0  0  0
   46.6919   31.7305   42.7933 H   0  0  0  0  0  0  0  0  0  0  0  0
   48.7429   30.4295   42.7308 H   0  0  0  0  0  0  0  0  0  0  0  0
   50.9037   31.4052   42.0344 H   0  0  0  0  0  0  0  0  0  0  0  0
   50.9149   33.8014   41.3884 H   0  0  0  0  0  0  0  0  0  0  0  0
   44.2500   36.7782   44.8826 H   0  0  0  0  0  0  0  0  0  0  0  0
   46.1144   38.4480   43.0745 H   0  0  0  0  0  0  0  0  0  0  0  0
   44.3695   38.9709   45.5959 H   0  0  0  0  0  0  0  0  0  0  0  0
   46.1100   39.4391   45.5814 H   0  0  0  0  0  0  0  0  0  0  0  0
   45.6562   40.7151   43.6337 H   0  0  0  0  0  0  0  0  0  0  0  0
   41.5672   42.3860   45.0132 H   0  0  0  0  0  0  0  0  0  0  0  0
   42.0872   42.9372   45.7325 N   0  0  0  0  0  0  0  0  0  0  0  0
   42.6878   42.1080   46.7415 C   0  0  0  0  0  0  0  0  0  0  0  0
   43.6944   41.1281   46.2438 C   0  0  0  0  0  0  0  0  0  0  0  0
   44.5296   41.5831   45.0899 C   0  0  0  0  0  0  0  0  0  0  0  0
   43.9084   42.6621   44.2489 C   0  0  0  0  0  0  0  0  0  0  0  0
   43.1566   43.6715   45.0842 C   0  0  0  0  0  0  0  0  0  0  0  0
   43.1411   42.7659   47.5028 H   0  0  0  0  0  0  0  0  0  0  0  0
   41.8401   41.5067   47.1796 H   0  0  0  0  0  0  0  0  0  0  0  0
   43.2160   40.1481   45.9886 H   0  0  0  0  0  0  0  0  0  0  0  0
   44.3918   40.9080   47.0833 H   0  0  0  0  0  0  0  0  0  0  0  0
   45.5030   42.0031   45.4540 H   0  0  0  0  0  0  0  0  0  0  0  0
   43.2620   42.2407   43.4403 H   0  0  0  0  0  0  0  0  0  0  0  0
   44.7129   43.2188   43.7257 H   0  0  0  0  0  0  0  0  0  0  0  0
   42.8312   44.4925   44.4488 H   0  0  0  0  0  0  0  0  0  0  0  0
   43.8618   43.9740   45.9015 H   0  0  0  0  0  0  0  0  0  0  0  0
  1  6  1  0
  1 14  1  0
  2  1  2  0
  3  4  2  0
  3  2  1  0
  4  5  1  0
  5  6  2  0
  7  8  1  0
  8 13  2  0
  8  9  1  0
  9  5  1  0
  9 10  2  0
 11 10  1  0
 12 11  2  0
 13 12  1  0
 15 14  2  0
 15 16  1  0
 17 16  1  0
  2 18  1  0
  3 19  1  0
 10 20  1  0
 11 21  1  0
 12 22  1  0
 13 23  1  0
 14 24  1  0
 15 25  1  0
 16 26  1  0
 16 27  1  0
 17 28  1  0
 29 30  1  0
 30 31  1  0
 31 32  1  0
 32 33  1  0
 33 34  1  0
 34 35  1  0
 35 30  1  0
 31 36  1  0
 31 37  1  0
 32 38  1  0
 32 39  1  0
 33 40  1  0
 34 41  1  0
 34 42  1  0
 35 43  1  0
 35 44  1  0
 17 33  1  0
M  ISO  8  18  14  19  14  20  14  21  14  22  14  23  14  26   8  27   8
M  ISO  2  28   5  29   5
M  END
>  <DihAtoms>  (1) 
15,16,32,31

>  <DihDeg>  (1) 
-59.99956713951572

$$$$
