
     RDKit          3D

 33 34  0  0  0  0  0  0  0  0999 V2000
   44.9317   34.9150   45.0344 C   0  0  0  0  0  0  0  0  0  0  0  0
   45.4430   35.1787   43.7547 C   0  0  0  0  0  0  0  0  0  0  0  0
   46.5162   34.3957   43.3595 C   0  0  0  0  0  0  0  0  0  0  0  0
   47.0147   33.4426   44.1900 N   0  0  0  0  0  0  0  0  0  0  0  0
   46.4909   33.2287   45.4053 C   0  0  0  0  0  0  0  0  0  0  0  0
   45.4464   33.9647   45.8322 N   0  0  0  0  0  0  0  0  0  0  0  0
   47.0228   34.6805   42.0070 C   0  0  0  0  0  0  0  0  0  0  0  0
   47.9669   33.7066   41.6708 F   0  0  0  0  0  0  0  0  0  0  0  0
   47.6904   35.8714   42.0692 F   0  0  0  0  0  0  0  0  0  0  0  0
   46.0565   34.6084   41.0549 F   0  0  0  0  0  0  0  0  0  0  0  0
   44.8654   36.2293   42.9189 C   0  0  0  0  0  0  0  0  0  0  0  0
   44.9970   37.5172   43.6138 N   0  0  0  0  0  0  0  0  0  0  0  0
   44.0925   35.5070   45.3767 H   0  0  0  0  0  0  0  0  0  0  0  0
   46.9614   32.4476   45.9854 H   0  0  0  0  0  0  0  0  0  0  0  0
   45.3442   36.4667   41.9923 H   0  0  0  0  0  0  0  0  0  0  0  0
   43.7700   36.0615   42.7158 H   0  0  0  0  0  0  0  0  0  0  0  0
   44.5084   37.4517   44.5234 H   0  0  0  0  0  0  0  0  0  0  0  0
   46.1698   40.3611   39.9312 H   0  0  0  0  0  0  0  0  0  0  0  0
   45.7347   39.8606   40.7309 N   0  0  0  0  0  0  0  0  0  0  0  0
   44.4863   39.2216   40.3731 C   0  0  0  0  0  0  0  0  0  0  0  0
   44.2192   38.1753   41.4144 C   0  0  0  0  0  0  0  0  0  0  0  0
   44.4302   38.6054   42.8127 C   0  0  0  0  0  0  0  0  0  0  0  0
   45.1386   39.8738   43.0662 C   0  0  0  0  0  0  0  0  0  0  0  0
   45.4654   40.6949   41.8611 C   0  0  0  0  0  0  0  0  0  0  0  0
   43.6443   39.9145   40.2920 H   0  0  0  0  0  0  0  0  0  0  0  0
   44.6610   38.7382   39.3901 H   0  0  0  0  0  0  0  0  0  0  0  0
   43.2119   37.7565   41.2052 H   0  0  0  0  0  0  0  0  0  0  0  0
   44.9280   37.3298   41.1694 H   0  0  0  0  0  0  0  0  0  0  0  0
   43.3989   38.7306   43.2577 H   0  0  0  0  0  0  0  0  0  0  0  0
   44.6138   40.5553   43.7964 H   0  0  0  0  0  0  0  0  0  0  0  0
   46.1150   39.6447   43.5800 H   0  0  0  0  0  0  0  0  0  0  0  0
   46.4123   41.2833   42.0411 H   0  0  0  0  0  0  0  0  0  0  0  0
   44.6949   41.4871   41.6703 H   0  0  0  0  0  0  0  0  0  0  0  0
  1  6  2  0
  2  1  1  0
  3  2  2  0
  3  4  1  0
  4  5  2  0
  5  6  1  0
  7  9  1  0
  7  3  1  0
  8  7  1  0
 10  7  1  0
 11 12  1  0
 11  2  1  0
  1 13  1  0
  5 14  1  0
 11 15  1  0
 11 16  1  0
 12 17  1  0
 18 19  1  0
 19 20  1  0
 20 21  1  0
 21 22  1  0
 22 23  1  0
 23 24  1  0
 24 19  1  0
 20 25  1  0
 20 26  1  0
 21 27  1  0
 21 28  1  0
 22 29  1  0
 23 30  1  0
 23 31  1  0
 24 32  1  0
 24 33  1  0
 12 22  1  0
M  ISO  6  13  14  14  14  15   8  16   8  17   5  18   5
M  END
>  <DihAtoms>  (1) 
10,11,21,20

>  <DihDeg>  (1) 
-60.02151180462954

$$$$
