
 OpenBabel03252501203D

 24 25  0  0  0  0  0  0  0  0999 V2000
   45.8100   33.6080   45.0560 C   0  0  0  0  0  0  0  0  0  0  0  0
   45.9820   34.3570   43.8830 C   0  0  0  0  0  0  0  0  0  0  0  0
   46.9220   33.8710   42.9880 C   0  0  0  0  0  0  0  0  0  0  0  0
   47.6170   32.7370   43.2690 N   0  0  0  0  0  0  0  0  0  0  0  0
   47.4160   32.0560   44.4070 C   0  0  0  0  0  0  0  0  0  0  0  0
   46.5100   32.4900   45.3050 N   0  0  0  0  0  0  0  0  0  0  0  0
   45.0820   33.9570   45.7780 H   0  0  0  0  0  0  0  0  0  0  0  0
   48.0180   31.1680   44.5320 H   0  0  0  0  0  0  0  0  0  0  0  0
   47.0720   34.6640   41.7580 C   0  0  0  0  0  0  0  0  0  0  0  0
   47.9750   34.0120   40.9140 F   0  0  0  0  0  0  0  0  0  0  0  0
   47.6500   35.8510   42.1110 F   0  0  0  0  0  0  0  0  0  0  0  0
   45.9140   34.7710   41.0550 F   0  0  0  0  0  0  0  0  0  0  0  0
   45.2090   35.5750   43.6510 C   0  0  0  0  0  0  0  0  0  0  0  0
   45.6490   36.3560   43.0650 H   0  0  0  0  0  0  0  0  0  0  0  0
   44.1840   35.3620   43.2390 H   0  0  0  0  0  0  0  0  0  0  0  0
   45.0370   36.2800   44.9290 N   0  0  0  0  0  0  0  0  0  0  0  0
   44.3240   35.7790   45.4870 H   0  0  0  0  0  0  0  0  0  0  0  0
   46.8840   40.7090   44.9630 H   0  0  0  0  0  0  0  0  0  0  0  0
   46.2990   39.8510   44.9150 N   0  0  0  0  0  0  0  0  0  0  0  0
   45.6760   39.6780   43.6190 C   0  0  0  0  0  2  0  0  0  0  0  0
   45.2850   38.2330   43.5150 C   0  0  0  0  0  2  0  0  0  0  0  0
   44.6240   37.6680   44.7110 C   0  0  0  0  0  3  0  0  0  0  0  0
   44.6600   38.4360   45.9710 C   0  0  0  0  0  2  0  0  0  0  0  0
   45.2530   39.8050   45.8880 C   0  0  0  0  0  2  0  0  0  0  0  0
  1  6  1  0  0  0  0
  1  7  1  0  0  0  0
  2  1  2  0  0  0  0
  3  4  2  0  0  0  0
  3  2  1  0  0  0  0
  4  5  1  0  0  0  0
  5  8  1  0  0  0  0
  5  6  2  0  0  0  0
  9 11  1  0  0  0  0
  9  3  1  0  0  0  0
 10  9  1  0  0  0  0
 12  9  1  0  0  0  0
 13  2  1  0  0  0  0
 13 16  1  0  0  0  0
 14 13  1  0  0  0  0
 15 13  1  0  0  0  0
 16 17  1  0  0  0  0
 19 18  1  0  0  0  0
 19 24  1  0  0  0  0
 20 19  1  0  0  0  0
 21 20  1  0  0  0  0
 21 22  1  0  0  0  0
 22 16  1  0  0  0  0
 22 23  1  0  0  0  0
 24 23  1  0  0  0  0
M  END
>  <minimizedAffinity>
-1.32842839

>  <minimizedRMSD>
2.1797924

$$$$
