
     RDKit          3D

 33 34  0  0  0  0  0  0  0  0999 V2000
   44.9317   34.9150   45.0344 C   0  0  0  0  0  0  0  0  0  0  0  0
   45.4430   35.1787   43.7547 C   0  0  0  0  0  0  0  0  0  0  0  0
   46.5162   34.3957   43.3595 C   0  0  0  0  0  0  0  0  0  0  0  0
   47.0147   33.4426   44.1900 N   0  0  0  0  0  0  0  0  0  0  0  0
   46.4909   33.2287   45.4053 C   0  0  0  0  0  0  0  0  0  0  0  0
   45.4464   33.9647   45.8322 N   0  0  0  0  0  0  0  0  0  0  0  0
   47.0228   34.6805   42.0070 C   0  0  0  0  0  0  0  0  0  0  0  0
   47.9669   33.7066   41.6708 F   0  0  0  0  0  0  0  0  0  0  0  0
   47.6904   35.8714   42.0692 F   0  0  0  0  0  0  0  0  0  0  0  0
   46.0565   34.6084   41.0549 F   0  0  0  0  0  0  0  0  0  0  0  0
   44.8654   36.2293   42.9189 C   0  0  0  0  0  0  0  0  0  0  0  0
   44.9970   37.5172   43.6138 N   0  0  0  0  0  0  0  0  0  0  0  0
   44.0925   35.5070   45.3767 H   0  0  0  0  0  0  0  0  0  0  0  0
   46.9614   32.4476   45.9854 H   0  0  0  0  0  0  0  0  0  0  0  0
   45.3442   36.4667   41.9923 H   0  0  0  0  0  0  0  0  0  0  0  0
   43.7700   36.0615   42.7158 H   0  0  0  0  0  0  0  0  0  0  0  0
   44.5084   37.4517   44.5234 H   0  0  0  0  0  0  0  0  0  0  0  0
   46.3869   40.8917   40.4984 H   0  0  0  0  0  0  0  0  0  0  0  0
   45.8922   40.2504   41.1491 N   0  0  0  0  0  0  0  0  0  0  0  0
   44.8427   39.4976   40.4958 C   0  0  0  0  0  0  0  0  0  0  0  0
   44.5491   38.3134   41.3686 C   0  0  0  0  0  0  0  0  0  0  0  0
   44.4302   38.6054   42.8127 C   0  0  0  0  0  0  0  0  0  0  0  0
   44.8793   39.9188   43.3108 C   0  0  0  0  0  0  0  0  0  0  0  0
   45.2954   40.9077   42.2706 C   0  0  0  0  0  0  0  0  0  0  0  0
   43.9354   40.0782   40.3085 H   0  0  0  0  0  0  0  0  0  0  0  0
   45.2674   39.1566   39.5294 H   0  0  0  0  0  0  0  0  0  0  0  0
   43.6730   37.7922   40.9274 H   0  0  0  0  0  0  0  0  0  0  0  0
   45.4106   37.6021   41.1979 H   0  0  0  0  0  0  0  0  0  0  0  0
   43.3275   38.5421   43.0522 H   0  0  0  0  0  0  0  0  0  0  0  0
   44.1315   40.4375   43.9777 H   0  0  0  0  0  0  0  0  0  0  0  0
   45.7671   39.7633   43.9873 H   0  0  0  0  0  0  0  0  0  0  0  0
   46.0925   41.5914   42.6859 H   0  0  0  0  0  0  0  0  0  0  0  0
   44.4627   41.6081   41.9990 H   0  0  0  0  0  0  0  0  0  0  0  0
  1  6  2  0
  2  1  1  0
  3  2  2  0
  3  4  1  0
  4  5  2  0
  5  6  1  0
  7  9  1  0
  7  3  1  0
  8  7  1  0
 10  7  1  0
 11 12  1  0
 11  2  1  0
  1 13  1  0
  5 14  1  0
 11 15  1  0
 11 16  1  0
 12 17  1  0
 18 19  1  0
 19 20  1  0
 20 21  1  0
 21 22  1  0
 22 23  1  0
 23 24  1  0
 24 19  1  0
 20 25  1  0
 20 26  1  0
 21 27  1  0
 21 28  1  0
 22 29  1  0
 23 30  1  0
 23 31  1  0
 24 32  1  0
 24 33  1  0
 12 22  1  0
M  ISO  6  13  14  14  14  15   8  16   8  17   5  18   5
M  END
>  <DihAtoms>  (1) 
10,11,21,20

>  <DihDeg>  (1) 
-60.02151180462954

$$$$
