
 OpenBabel03242519033D

 30 32  0  0  1  0  0  0  0  0999 V2000
   47.4620   34.2490   42.4200 N   0  0  0  0  0  0  0  0  0  0  0  0
   47.9170   34.8640   41.2030 C   0  0  0  0  0  0  0  0  0  0  0  0
   47.9580   33.6200   40.3300 C   0  0  2  0  0  0  0  0  0  0  0  0
   48.7500   32.6860   41.1930 C   0  0  0  0  0  0  0  0  0  0  0  0
   48.2510   33.0320   42.5860 C   0  0  0  0  0  0  0  0  0  0  0  0
   47.1910   35.5930   40.7910 H   0  0  0  0  0  0  0  0  0  0  0  0
   48.9310   35.2530   41.2600 H   0  0  0  0  0  0  0  0  0  0  0  0
   46.9800   33.1940   40.1430 H   0  0  0  0  0  0  0  0  0  0  0  0
   48.4310   31.6380   40.9860 H   0  0  0  0  0  0  0  0  0  0  0  0
   49.8440   32.8200   41.0950 H   0  0  0  0  0  0  0  0  0  0  0  0
   49.1500   33.2730   43.2040 H   0  0  0  0  0  0  0  0  0  0  0  0
   47.6290   32.2360   43.0150 H   0  0  0  0  0  0  0  0  0  0  0  0
   44.6790   36.0240   44.1500 C   0  0  0  0  0  0  0  0  0  0  0  0
   45.6230   35.7250   43.1750 C   0  0  0  0  0  0  0  0  0  0  0  0
   46.4780   34.6440   43.3290 C   0  0  0  0  0  0  0  0  0  0  0  0
   46.3360   33.9010   44.4880 N   0  0  0  0  0  0  0  0  0  0  0  0
   45.4160   34.1980   45.4330 C   0  0  0  0  0  0  0  0  0  0  0  0
   44.5890   35.2600   45.2610 N   0  0  0  0  0  0  0  0  0  0  0  0
   44.0110   36.8660   44.0320 H   0  0  0  0  0  0  0  0  0  0  0  0
   45.7310   36.3020   42.2770 H   0  0  0  0  0  0  0  0  0  0  0  0
   45.3690   33.5630   46.3160 H   0  0  0  0  0  0  0  0  0  0  0  0
   48.7270   33.8960   39.1400 N   0  0  0  0  0  0  0  0  0  0  0  0
   49.5380   33.3010   39.0100 H   0  0  0  0  0  0  0  0  0  0  0  0
   47.0240   30.9670   36.3080 H   0  0  0  0  0  0  0  0  0  0  0  0
   47.1780   31.9760   36.0440 N   0  0  0  0  0  0  0  0  0  0  0  0
   48.5330   32.2760   36.3850 C   0  0  0  0  0  2  0  0  0  0  0  0
   48.6580   33.7560   36.6950 C   0  0  0  0  0  2  0  0  0  0  0  0
   47.9790   34.1380   37.9630 C   0  0  0  0  0  3  0  0  0  0  0  0
   46.7210   33.2770   38.0670 C   0  0  0  0  0  2  0  0  0  0  0  0
   46.2380   32.8550   36.6980 C   0  0  0  0  0  2  0  0  0  0  0  0
  1  5  1  0  0  0  0
  1 15  1  0  0  0  0
  2  7  1  0  0  0  0
  2  1  1  0  0  0  0
  3  8  1  6  0  0  0
  3  4  1  0  0  0  0
  3  2  1  0  0  0  0
  4  5  1  0  0  0  0
  5 12  1  0  0  0  0
  5 11  1  0  0  0  0
  6  2  1  0  0  0  0
  9  4  1  0  0  0  0
 10  4  1  0  0  0  0
 13 18  1  0  0  0  0
 14 15  1  0  0  0  0
 14 13  2  0  0  0  0
 15 16  2  0  0  0  0
 16 17  1  0  0  0  0
 17 21  1  0  0  0  0
 18 17  2  0  0  0  0
 19 13  1  0  0  0  0
 20 14  1  0  0  0  0
 22  3  1  0  0  0  0
 23 22  1  0  0  0  0
 25 24  1  0  0  0  0
 25 26  1  0  0  0  0
 25 30  1  0  0  0  0
 26 27  1  0  0  0  0
 27 28  1  0  0  0  0
 28 29  1  0  0  0  0
 28 22  1  0  0  0  0
 30 29  1  0  0  0  0
M  END
>  <minimizedAffinity>
-4.78853893

>  <minimizedRMSD>
0.958672166

$$$$
