
 OpenBabel03242519033D

 30 32  0  0  1  0  0  0  0  0999 V2000
   47.5130   34.4990   42.4730 N   0  0  0  0  0  0  0  0  0  0  0  0
   47.4800   34.5610   41.0370 C   0  0  0  0  0  0  0  0  0  0  0  0
   48.2300   33.2720   40.7450 C   0  0  2  0  0  0  0  0  0  0  0  0
   49.4440   33.4400   41.6050 C   0  0  0  0  0  0  0  0  0  0  0  0
   48.8740   34.1220   42.8380 C   0  0  0  0  0  0  0  0  0  0  0  0
   46.4520   34.5050   40.6270 H   0  0  0  0  0  0  0  0  0  0  0  0
   48.0660   35.3780   40.6200 H   0  0  0  0  0  0  0  0  0  0  0  0
   47.6910   32.3840   41.0530 H   0  0  0  0  0  0  0  0  0  0  0  0
   49.8050   32.4360   41.9290 H   0  0  0  0  0  0  0  0  0  0  0  0
   50.2410   34.0390   41.1260 H   0  0  0  0  0  0  0  0  0  0  0  0
   49.4710   35.0530   43.0010 H   0  0  0  0  0  0  0  0  0  0  0  0
   48.8590   33.4570   43.7110 H   0  0  0  0  0  0  0  0  0  0  0  0
   44.5890   35.8550   44.3450 C   0  0  0  0  0  0  0  0  0  0  0  0
   45.5390   35.7170   43.3400 C   0  0  0  0  0  0  0  0  0  0  0  0
   46.5110   34.7320   43.4190 C   0  0  0  0  0  0  0  0  0  0  0  0
   46.4760   33.9140   44.5350 N   0  0  0  0  0  0  0  0  0  0  0  0
   45.5500   34.0530   45.5090 C   0  0  0  0  0  0  0  0  0  0  0  0
   44.6070   35.0250   45.4110 N   0  0  0  0  0  0  0  0  0  0  0  0
   43.8300   36.6220   44.2860 H   0  0  0  0  0  0  0  0  0  0  0  0
   45.5630   36.3530   42.4760 H   0  0  0  0  0  0  0  0  0  0  0  0
   45.5920   33.3680   46.3540 H   0  0  0  0  0  0  0  0  0  0  0  0
   48.6510   33.2670   39.3650 N   0  0  0  0  0  0  0  0  0  0  0  0
   49.0830   32.4020   39.0560 H   0  0  0  0  0  0  0  0  0  0  0  0
   47.5040   31.7930   35.3610 H   0  0  0  0  0  0  0  0  0  0  0  0
   47.3540   32.7950   35.6530 N   0  0  0  0  0  0  0  0  0  0  0  0
   48.6070   33.2570   36.1620 C   0  0  0  0  0  2  0  0  0  0  0  0
   48.3630   34.3500   37.1850 C   0  0  0  0  0  2  0  0  0  0  0  0
   47.7440   33.8360   38.4390 C   0  0  0  0  0  3  0  0  0  0  0  0
   46.7820   32.7230   38.0330 C   0  0  0  0  0  2  0  0  0  0  0  0
   46.2880   32.9210   36.6180 C   0  0  0  0  0  2  0  0  0  0  0  0
  1  5  1  0  0  0  0
  1 15  1  0  0  0  0
  2  1  1  0  0  0  0
  3  2  1  0  0  0  0
  3  8  1  1  0  0  0
  3  4  1  0  0  0  0
  4  9  1  0  0  0  0
  4  5  1  0  0  0  0
  5 11  1  0  0  0  0
  5 12  1  0  0  0  0
  6  2  1  0  0  0  0
  7  2  1  0  0  0  0
 10  4  1  0  0  0  0
 13 18  1  0  0  0  0
 14 15  1  0  0  0  0
 14 13  2  0  0  0  0
 15 16  2  0  0  0  0
 16 17  1  0  0  0  0
 17 21  1  0  0  0  0
 18 17  2  0  0  0  0
 19 13  1  0  0  0  0
 20 14  1  0  0  0  0
 22  3  1  0  0  0  0
 23 22  1  0  0  0  0
 24 25  1  0  0  0  0
 25 26  1  0  0  0  0
 25 30  1  0  0  0  0
 26 27  1  0  0  0  0
 27 28  1  0  0  0  0
 28 22  1  0  0  0  0
 29 28  1  0  0  0  0
 30 29  1  0  0  0  0
M  END
>  <minimizedAffinity>
-5.08225632

>  <minimizedRMSD>
1.77070558

$$$$
