
     RDKit          3D

 39 41  0  0  0  0  0  0  0  0999 V2000
   47.1589   34.2397   42.3825 N   0  0  0  0  0  0  0  0  0  0  0  0
   48.0035   35.0415   41.5403 C   0  0  0  0  0  0  0  0  0  0  0  0
   47.6840   34.3754   40.2116 C   0  0  2  0  0  0  0  0  0  0  0  0
   47.8955   32.9316   40.5516 C   0  0  0  0  0  0  0  0  0  0  0  0
   47.3641   32.8541   41.9739 C   0  0  0  0  0  0  0  0  0  0  0  0
   44.5771   35.9441   44.4613 C   0  0  0  0  0  0  0  0  0  0  0  0
   45.4020   35.6751   43.3757 C   0  0  0  0  0  0  0  0  0  0  0  0
   46.2846   34.6061   43.4088 C   0  0  0  0  0  0  0  0  0  0  0  0
   46.2908   33.8430   44.5642 N   0  0  0  0  0  0  0  0  0  0  0  0
   45.4865   34.1097   45.6158 C   0  0  0  0  0  0  0  0  0  0  0  0
   44.6299   35.1623   45.5607 N   0  0  0  0  0  0  0  0  0  0  0  0
   48.6740   34.7584   39.2336 N   0  0  0  0  0  0  0  0  0  0  0  0
   47.7011   36.1066   41.5137 H   0  0  0  0  0  0  0  0  0  0  0  0
   49.0669   34.9010   41.7244 H   0  0  0  0  0  0  0  0  0  0  0  0
   46.6592   34.5232   39.8939 H   0  0  0  0  0  0  0  0  0  0  0  0
   47.2226   32.3048   39.9211 H   0  0  0  0  0  0  0  0  0  0  0  0
   48.9525   32.6152   40.4824 H   0  0  0  0  0  0  0  0  0  0  0  0
   48.1772   32.4137   42.6023 H   0  0  0  0  0  0  0  0  0  0  0  0
   46.4189   32.3001   42.0346 H   0  0  0  0  0  0  0  0  0  0  0  0
   43.8883   36.7773   44.4370 H   0  0  0  0  0  0  0  0  0  0  0  0
   45.3946   36.2684   42.4819 H   0  0  0  0  0  0  0  0  0  0  0  0
   45.5528   33.4612   46.4873 H   0  0  0  0  0  0  0  0  0  0  0  0
   49.6300   34.7557   39.5736 H   0  0  0  0  0  0  0  0  0  0  0  0
   49.0807   30.5538   37.9440 H   0  0  0  0  0  0  0  0  0  0  0  0
   49.1264   31.3555   37.2618 N   0  0  0  0  0  0  0  0  0  0  0  0
   50.0870   32.2746   37.7863 C   0  0  0  0  0  0  0  0  0  0  0  0
   49.7501   33.6772   37.3161 C   0  0  0  0  0  0  0  0  0  0  0  0
   48.5077   34.2106   37.9392 C   0  0  0  0  0  0  0  0  0  0  0  0
   47.5463   33.0336   38.0877 C   0  0  0  0  0  0  0  0  0  0  0  0
   47.8348   31.9650   37.0573 C   0  0  0  0  0  0  0  0  0  0  0  0
   50.1672   32.2706   38.8881 H   0  0  0  0  0  0  0  0  0  0  0  0
   51.0968   32.0428   37.3552 H   0  0  0  0  0  0  0  0  0  0  0  0
   49.5230   33.5599   36.2157 H   0  0  0  0  0  0  0  0  0  0  0  0
   50.6602   34.2585   37.4508 H   0  0  0  0  0  0  0  0  0  0  0  0
   47.9573   34.9258   37.2680 H   0  0  0  0  0  0  0  0  0  0  0  0
   46.5083   33.3431   37.9621 H   0  0  0  0  0  0  0  0  0  0  0  0
   47.6879   32.5865   39.0846 H   0  0  0  0  0  0  0  0  0  0  0  0
   47.0723   31.1700   37.2189 H   0  0  0  0  0  0  0  0  0  0  0  0
   47.6667   32.3423   36.0419 H   0  0  0  0  0  0  0  0  0  0  0  0
  1  8  1  0
  2  1  1  0
  3  4  1  0
  3  2  1  0
  4  5  1  0
  5  1  1  0
  6 11  2  0
  7  8  2  0
  7  6  1  0
  8  9  1  0
  9 10  2  0
 11 10  1  0
 12  3  1  0
  2 13  1  0
  2 14  1  0
  3 15  1  6
  4 16  1  0
  4 17  1  0
  5 18  1  0
  5 19  1  0
  6 20  1  0
  7 21  1  0
 10 22  1  0
 12 23  1  0
 24 25  1  0
 25 26  1  0
 26 27  1  0
 27 28  1  0
 28 29  1  0
 29 30  1  0
 30 25  1  0
 26 31  1  0
 26 32  1  0
 27 33  1  0
 27 34  1  0
 28 35  1  0
 29 36  1  0
 29 37  1  0
 30 38  1  0
 30 39  1  0
 12 28  1  0
M  ISO  8  13  13  14  13  15  13  16  13  17  13  18  13  19  13  20  14
M  ISO  4  21  14  22  14  23   5  24   5
M  END
>  <DihAtoms>  (1) 
2,11,27,26

>  <DihDeg>  (1) 
60.0230770539469

$$$$
