
 OpenBabel03242519043D

 30 32  0  0  1  0  0  0  0  0999 V2000
   47.4210   34.2680   42.5540 N   0  0  0  0  0  0  0  0  0  0  0  0
   47.7520   34.8800   41.2970 C   0  0  0  0  0  0  0  0  0  0  0  0
   47.8800   33.6160   40.4640 C   0  0  2  0  0  0  0  0  0  0  0  0
   48.8030   32.7990   41.3140 C   0  0  0  0  0  0  0  0  0  0  0  0
   48.3380   33.1440   42.7200 C   0  0  0  0  0  0  0  0  0  0  0  0
   46.9360   35.5170   40.8990 H   0  0  0  0  0  0  0  0  0  0  0  0
   48.7220   35.3720   41.2900 H   0  0  0  0  0  0  0  0  0  0  0  0
   46.9430   33.0870   40.3400 H   0  0  0  0  0  0  0  0  0  0  0  0
   48.5850   31.7170   41.1580 H   0  0  0  0  0  0  0  0  0  0  0  0
   49.8720   33.0390   41.1570 H   0  0  0  0  0  0  0  0  0  0  0  0
   49.2360   33.4970   43.2830 H   0  0  0  0  0  0  0  0  0  0  0  0
   47.8220   32.3060   43.2040 H   0  0  0  0  0  0  0  0  0  0  0  0
   44.5900   35.8510   44.3890 C   0  0  0  0  0  0  0  0  0  0  0  0
   45.5160   35.6180   43.3800 C   0  0  0  0  0  0  0  0  0  0  0  0
   46.4460   34.5950   43.4990 C   0  0  0  0  0  0  0  0  0  0  0  0
   46.3920   33.8410   44.6590 N   0  0  0  0  0  0  0  0  0  0  0  0
   45.4890   34.0740   45.6360 C   0  0  0  0  0  0  0  0  0  0  0  0
   44.5890   35.0800   45.4980 N   0  0  0  0  0  0  0  0  0  0  0  0
   43.8640   36.6480   44.2980 H   0  0  0  0  0  0  0  0  0  0  0  0
   45.5550   36.2040   42.4830 H   0  0  0  0  0  0  0  0  0  0  0  0
   45.5140   33.4350   46.5170 H   0  0  0  0  0  0  0  0  0  0  0  0
   48.5590   33.9240   39.2280 N   0  0  0  0  0  0  0  0  0  0  0  0
   49.4530   34.3910   39.3390 H   0  0  0  0  0  0  0  0  0  0  0  0
   46.6160   33.9490   35.2620 H   0  0  0  0  0  0  0  0  0  0  0  0
   46.9020   33.0540   35.7390 N   0  0  0  0  0  0  0  0  0  0  0  0
   46.3500   33.1090   37.0560 C   0  0  0  0  0  2  0  0  0  0  0  0
   47.2130   32.2880   37.9970 C   0  0  0  0  0  2  0  0  0  0  0  0
   48.5450   32.9070   38.2440 C   0  0  0  0  0  3  0  0  0  0  0  0
   48.9770   33.5640   36.9350 C   0  0  0  0  0  2  0  0  0  0  0  0
   48.3340   32.8810   35.7480 C   0  0  0  0  0  2  0  0  0  0  0  0
  1  5  1  0  0  0  0
  1 15  1  0  0  0  0
  2  1  1  0  0  0  0
  3  8  1  6  0  0  0
  3  2  1  0  0  0  0
  3  4  1  0  0  0  0
  4  5  1  0  0  0  0
  5 12  1  0  0  0  0
  5 11  1  0  0  0  0
  6  2  1  0  0  0  0
  7  2  1  0  0  0  0
  9  4  1  0  0  0  0
 10  4  1  0  0  0  0
 13 18  1  0  0  0  0
 14 15  1  0  0  0  0
 14 13  2  0  0  0  0
 15 16  2  0  0  0  0
 16 17  1  0  0  0  0
 17 21  1  0  0  0  0
 18 17  2  0  0  0  0
 19 13  1  0  0  0  0
 20 14  1  0  0  0  0
 22 23  1  0  0  0  0
 22  3  1  0  0  0  0
 24 25  1  0  0  0  0
 25 30  1  0  0  0  0
 25 26  1  0  0  0  0
 26 27  1  0  0  0  0
 27 28  1  0  0  0  0
 28 22  1  0  0  0  0
 29 28  1  0  0  0  0
 30 29  1  0  0  0  0
M  END
>  <minimizedAffinity>
-4.86718941

>  <minimizedRMSD>
1.06034017

$$$$
