
 OpenBabel03242519043D

 30 32  0  0  1  0  0  0  0  0999 V2000
   47.5820   34.4260   42.4470 N   0  0  0  0  0  0  0  0  0  0  0  0
   47.7020   34.6750   41.0360 C   0  0  0  0  0  0  0  0  0  0  0  0
   48.2150   33.3080   40.6150 C   0  0  2  0  0  0  0  0  0  0  0  0
   49.3490   33.1150   41.5740 C   0  0  0  0  0  0  0  0  0  0  0  0
   48.8030   33.7360   42.8490 C   0  0  0  0  0  0  0  0  0  0  0  0
   46.7270   34.8820   40.5500 H   0  0  0  0  0  0  0  0  0  0  0  0
   48.4710   35.4010   40.7830 H   0  0  0  0  0  0  0  0  0  0  0  0
   47.4890   32.5160   40.7530 H   0  0  0  0  0  0  0  0  0  0  0  0
   49.4780   32.0260   41.7740 H   0  0  0  0  0  0  0  0  0  0  0  0
   50.2900   33.5950   41.2430 H   0  0  0  0  0  0  0  0  0  0  0  0
   49.5480   34.4980   43.1850 H   0  0  0  0  0  0  0  0  0  0  0  0
   48.5760   32.9830   43.6140 H   0  0  0  0  0  0  0  0  0  0  0  0
   44.6610   35.9820   44.1600 C   0  0  0  0  0  0  0  0  0  0  0  0
   45.6430   35.7690   43.2000 C   0  0  0  0  0  0  0  0  0  0  0  0
   46.5560   34.7350   43.3430 C   0  0  0  0  0  0  0  0  0  0  0  0
   46.4290   33.9480   44.4740 N   0  0  0  0  0  0  0  0  0  0  0  0
   45.4720   34.1610   45.4040 C   0  0  0  0  0  0  0  0  0  0  0  0
   44.5890   35.1790   45.2440 N   0  0  0  0  0  0  0  0  0  0  0  0
   43.9480   36.7880   44.0510 H   0  0  0  0  0  0  0  0  0  0  0  0
   45.7380   36.3810   42.3240 H   0  0  0  0  0  0  0  0  0  0  0  0
   45.4420   33.4960   46.2660 H   0  0  0  0  0  0  0  0  0  0  0  0
   48.7610   33.3920   39.2810 N   0  0  0  0  0  0  0  0  0  0  0  0
   49.7750   33.3930   39.2360 H   0  0  0  0  0  0  0  0  0  0  0  0
   45.1580   34.2880   36.8890 H   0  0  0  0  0  0  0  0  0  0  0  0
   45.5130   33.3040   37.0200 N   0  0  0  0  0  0  0  0  0  0  0  0
   45.6860   33.1250   38.4280 C   0  0  0  0  0  2  0  0  0  0  0  0
   46.7730   32.0950   38.6730 C   0  0  0  0  0  2  0  0  0  0  0  0
   48.1280   32.5890   38.3020 C   0  0  0  0  0  3  0  0  0  0  0  0
   47.9550   33.4690   37.0660 C   0  0  0  0  0  2  0  0  0  0  0  0
   46.7280   33.0650   36.2800 C   0  0  0  0  0  2  0  0  0  0  0  0
  1  5  1  0  0  0  0
  1 15  1  0  0  0  0
  2  1  1  0  0  0  0
  3  8  1  1  0  0  0
  3  2  1  0  0  0  0
  3  4  1  0  0  0  0
  4  9  1  0  0  0  0
  4  5  1  0  0  0  0
  5 11  1  0  0  0  0
  5 12  1  0  0  0  0
  6  2  1  0  0  0  0
  7  2  1  0  0  0  0
 10  4  1  0  0  0  0
 13 18  1  0  0  0  0
 14 15  1  0  0  0  0
 14 13  2  0  0  0  0
 15 16  2  0  0  0  0
 16 17  1  0  0  0  0
 17 21  1  0  0  0  0
 18 17  2  0  0  0  0
 19 13  1  0  0  0  0
 20 14  1  0  0  0  0
 22  3  1  0  0  0  0
 23 22  1  0  0  0  0
 24 25  1  0  0  0  0
 25 26  1  0  0  0  0
 26 27  1  0  0  0  0
 28 27  1  0  0  0  0
 28 22  1  0  0  0  0
 29 28  1  0  0  0  0
 30 25  1  0  0  0  0
 30 29  1  0  0  0  0
M  END
>  <minimizedAffinity>
-4.45163488

>  <minimizedRMSD>
1.12754357

$$$$
