REMARK  Name = 
REMARK  3 active torsions:
REMARK  status: ('A' for Active; 'I' for Inactive)
REMARK    1  A    between atoms: C_1  and  C_7
REMARK    2  A    between atoms: C_6  and  N_19
REMARK    3  A    between atoms: C_11  and  C_13
REMARK                            x       y       z     vdW  Elec       q    Type
REMARK                         _______ _______ _______ _____ _____    ______ ____
ROOT
ATOM      1  C   UNL     1      46.910  32.911  45.525  0.00  0.00    +0.000 A 
ATOM      2  C   UNL     1      45.801  33.587  46.014  0.00  0.00    +0.000 A 
ATOM      3  C   UNL     1      45.121  34.508  45.181  0.00  0.00    +0.000 A 
ATOM      4  N   UNL     1      45.633  34.675  43.896  0.00  0.00    +0.000 NA
ATOM      5  C   UNL     1      46.708  33.992  43.490  0.00  0.00    +0.000 A 
ATOM      6  N   UNL     1      47.334  33.127  44.287  0.00  0.00    +0.000 NA
ATOM      7  H   UNL     1      45.272  33.643  46.945  0.00  0.00    +0.000 HD
ATOM      8  H   UNL     1      44.271  35.103  45.377  0.00  0.00    +0.000 HD
ENDROOT
BRANCH   1   9
ATOM      9  C   UNL     1      47.557  31.964  46.410  0.00  0.00    +0.000 C 
ATOM     10  C   UNL     1      47.297  30.493  45.961  0.00  0.00    +0.000 C 
ATOM     11  C   UNL     1      48.125  29.576  46.797  0.00  0.00    +0.000 C 
ATOM     12  C   UNL     1      48.116  29.849  48.265  0.00  0.00    +0.000 C 
ATOM     13  C   UNL     1      48.122  31.248  48.609  0.00  0.00    +0.000 C 
ATOM     14  C   UNL     1      47.129  32.098  47.788  0.00  0.00    +0.000 C 
ATOM     15  H   UNL     1      48.664  32.044  46.294  0.00  0.00    +0.000 HD
ATOM     16  H   UNL     1      47.643  30.475  44.908  0.00  0.00    +0.000 HD
ATOM     17  H   UNL     1      46.237  30.267  45.931  0.00  0.00    +0.000 HD
ATOM     18  H   UNL     1      47.734  28.532  46.668  0.00  0.00    +0.000 HD
ATOM     19  H   UNL     1      49.122  29.548  46.311  0.00  0.00    +0.000 HD
ATOM     20  H   UNL     1      47.742  29.070  48.930  0.00  0.00    +0.000 HD
ATOM     21  H   UNL     1      49.228  29.596  48.498  0.00  0.00    +0.000 HD
ATOM     22  H   UNL     1      49.083  31.817  48.554  0.00  0.00    +0.000 HD
ATOM     23  H   UNL     1      47.766  31.385  49.669  0.00  0.00    +0.000 HD
ATOM     24  H   UNL     1      47.255  33.074  48.259  0.00  0.00    +0.000 HD
BRANCH  14  25
ATOM     25  N   UNL     1      45.788  31.531  47.952  0.00  0.00    +0.000 N 
ATOM     26  C   UNL     1      45.189  30.849  49.026  0.00  0.00    +0.000 C 
ATOM     27  O   UNL     1      44.757  31.445  50.078  0.00  0.00    +0.000 OA
ATOM     28  N   UNL     1      45.088  29.436  48.854  0.00  0.00    +0.000 N 
ATOM     29  H   UNL     1      45.063  31.526  47.139  0.00  0.00    +0.000 HD
ATOM     30  H   UNL     1      45.395  28.499  49.185  0.00  0.00    +0.000 HD
ATOM     31  H   UNL     1      44.567  28.797  48.208  0.00  0.00    +0.000 HD
ENDBRANCH  14  25
ENDBRANCH   1   9
BRANCH   5  32
ATOM     32  C   UNL     1      47.206  34.230  42.131  0.00  0.00    +0.000 A 
ATOM     33  C   UNL     1      48.200  35.151  41.886  0.00  0.00    +0.000 A 
ATOM     34  C   UNL     1      48.724  35.437  40.652  0.00  0.00    +0.000 A 
ATOM     35  C   UNL     1      48.163  34.706  39.616  0.00  0.00    +0.000 A 
ATOM     36  C   UNL     1      47.170  33.782  39.835  0.00  0.00    +0.000 A 
ATOM     37  N   UNL     1      46.689  33.543  41.100  0.00  0.00    +0.000 NA
ATOM     38  H   UNL     1      48.591  35.685  42.749  0.00  0.00    +0.000 HD
ATOM     39  H   UNL     1      49.506  36.168  40.502  0.00  0.00    +0.000 HD
ATOM     40  H   UNL     1      48.520  34.870  38.606  0.00  0.00    +0.000 HD
ATOM     41  N   UNL     1      46.596  33.035  38.771  0.00  0.00    +0.000 N 
ATOM     42  C   UNL     1      46.903  31.645  38.533  0.00  0.00    +0.000 C 
ATOM     43  C   UNL     1      46.608  31.229  37.113  0.00  0.00    +0.000 C 
ATOM     44  C   UNL     1      46.913  32.333  36.126  0.00  0.00    +0.000 C 
ATOM     45  H   UNL     1      48.017  32.477  36.032  0.00  0.00    +0.000 HD
ATOM     46  C   UNL     1      46.276  33.639  36.465  0.00  0.00    +0.000 C 
ATOM     47  C   UNL     1      45.654  33.622  37.841  0.00  0.00    +0.000 C 
ENDBRANCH   5  32
TORSDOF 3
