
     RDKit          3D

 56 59  0  0  0  0  0  0  0  0999 V2000
   47.5567   31.9637   46.4102 C   0  0  2  0  0  0  0  0  0  0  0  0
   47.2972   30.4931   45.9608 C   0  0  0  0  0  0  0  0  0  0  0  0
   48.1254   29.5755   46.7971 C   0  0  0  0  0  0  0  0  0  0  0  0
   48.1161   29.8487   48.2652 C   0  0  0  0  0  0  0  0  0  0  0  0
   48.1222   31.2476   48.6094 C   0  0  0  0  0  0  0  0  0  0  0  0
   47.1291   32.0978   47.7884 C   0  0  2  0  0  0  0  0  0  0  0  0
   46.9102   32.9110   45.5251 C   0  0  0  0  0  0  0  0  0  0  0  0
   45.8008   33.5874   46.0136 C   0  0  0  0  0  0  0  0  0  0  0  0
   45.1214   34.5081   45.1812 C   0  0  0  0  0  0  0  0  0  0  0  0
   45.6331   34.6747   43.8958 N   0  0  0  0  0  0  0  0  0  0  0  0
   46.7079   33.9923   43.4897 C   0  0  0  0  0  0  0  0  0  0  0  0
   47.3340   33.1274   44.2869 N   0  0  0  0  0  0  0  0  0  0  0  0
   47.2057   34.2304   42.1314 C   0  0  0  0  0  0  0  0  0  0  0  0
   48.2002   35.1510   41.8855 C   0  0  0  0  0  0  0  0  0  0  0  0
   48.7237   35.4368   40.6518 C   0  0  0  0  0  0  0  0  0  0  0  0
   48.1626   34.7061   39.6161 C   0  0  0  0  0  0  0  0  0  0  0  0
   47.1697   33.7823   39.8351 C   0  0  0  0  0  0  0  0  0  0  0  0
   46.6887   33.5431   41.0998 N   0  0  0  0  0  0  0  0  0  0  0  0
   45.7885   31.5306   47.9523 N   0  0  0  0  0  0  0  0  0  0  0  0
   45.1891   30.8489   49.0258 C   0  0  0  0  0  0  0  0  0  0  0  0
   44.7573   31.4448   50.0780 O   0  0  0  0  0  0  0  0  0  0  0  0
   45.0883   29.4358   48.8538 N   0  0  0  0  0  0  0  0  0  0  0  0
   48.6643   32.0439   46.2938 H   0  0  0  0  0  0  0  0  0  0  0  0
   47.6430   30.4747   44.9076 H   0  0  0  0  0  0  0  0  0  0  0  0
   46.2371   30.2673   45.9315 H   0  0  0  0  0  0  0  0  0  0  0  0
   47.7336   28.5315   46.6676 H   0  0  0  0  0  0  0  0  0  0  0  0
   49.1218   29.5482   46.3108 H   0  0  0  0  0  0  0  0  0  0  0  0
   47.7424   29.0705   48.9302 H   0  0  0  0  0  0  0  0  0  0  0  0
   49.2283   29.5964   48.4980 H   0  0  0  0  0  0  0  0  0  0  0  0
   49.0826   31.8174   48.5542 H   0  0  0  0  0  0  0  0  0  0  0  0
   47.7664   31.3852   49.6690 H   0  0  0  0  0  0  0  0  0  0  0  0
   47.2554   33.0739   48.2594 H   0  0  0  0  0  0  0  0  0  0  0  0
   45.2724   33.6429   46.9447 H   0  0  0  0  0  0  0  0  0  0  0  0
   44.2706   35.1035   45.3770 H   0  0  0  0  0  0  0  0  0  0  0  0
   48.5910   35.6855   42.7491 H   0  0  0  0  0  0  0  0  0  0  0  0
   49.5060   36.1684   40.5016 H   0  0  0  0  0  0  0  0  0  0  0  0
   48.5195   34.8703   38.6061 H   0  0  0  0  0  0  0  0  0  0  0  0
   45.0633   31.5256   47.1394 H   0  0  0  0  0  0  0  0  0  0  0  0
   45.3949   28.4990   49.1852 H   0  0  0  0  0  0  0  0  0  0  0  0
   44.5666   28.7971   48.2080 H   0  0  0  0  0  0  0  0  0  0  0  0
   46.5963   33.0350   38.7710 N   0  0  0  0  0  0  0  0  0  0  0  0
   47.3684   32.1615   37.9202 C   0  0  0  0  0  0  0  0  0  0  0  0
   46.6860   31.9004   36.5996 C   0  0  0  0  0  0  0  0  0  0  0  0
   45.9458   33.1189   36.0952 C   0  0  0  0  0  0  0  0  0  0  0  0
   46.6689   33.9016   35.7580 H   0  0  0  0  0  0  0  0  0  0  0  0
   45.0104   33.7131   37.0942 C   0  0  0  0  0  0  0  0  0  0  0  0
   45.1825   33.0986   38.4630 C   0  0  0  0  0  0  0  0  0  0  0  0
   47.5375   31.1737   38.3948 H   0  0  0  0  0  0  0  0  0  0  0  0
   48.3692   32.5901   37.7076 H   0  0  0  0  0  0  0  0  0  0  0  0
   46.0146   31.0299   36.6568 H   0  0  0  0  0  0  0  0  0  0  0  0
   47.4757   31.6647   35.8585 H   0  0  0  0  0  0  0  0  0  0  0  0
   45.4082   32.8079   35.1692 H   0  0  0  0  0  0  0  0  0  0  0  0
   45.1124   34.8105   37.1080 H   0  0  0  0  0  0  0  0  0  0  0  0
   43.9584   33.5122   36.7430 H   0  0  0  0  0  0  0  0  0  0  0  0
   44.7738   32.0530   38.3725 H   0  0  0  0  0  0  0  0  0  0  0  0
   44.6013   33.6321   39.2205 H   0  0  0  0  0  0  0  0  0  0  0  0
  1  6  1  0
  2  1  1  0
  2  3  1  0
  3  4  1  0
  4  5  1  0
  6 19  1  0
  6  5  1  0
  7  8  2  0
  7  1  1  0
  9  8  1  0
 10  9  2  0
 11 10  1  0
 11 12  2  0
 12  7  1  0
 13 11  1  0
 14 13  2  0
 15 14  1  0
 16 17  1  0
 16 15  2  0
 17 18  2  0
 18 13  1  0
 19 20  1  0
 20 21  2  0
 22 20  1  0
  1 23  1  1
  2 24  1  0
  2 25  1  0
  3 26  1  0
  3 27  1  0
  4 28  1  0
  4 29  1  0
  5 30  1  0
  5 31  1  0
  6 32  1  1
  8 33  1  0
  9 34  1  0
 14 35  1  0
 15 36  1  0
 16 37  1  0
 19 38  1  0
 22 39  1  0
 22 40  1  0
 41 42  1  0
 42 43  1  0
 43 44  1  0
 44 45  1  0
 44 46  1  0
 46 47  1  0
 47 41  1  0
 42 48  1  0
 42 49  1  0
 43 50  1  0
 43 51  1  0
 44 52  1  0
 46 53  1  0
 46 54  1  0
 47 55  1  0
 47 56  1  0
 17 41  1  0
M  ISO  8  23  13  24  13  25  13  26  13  27  13  28  13  29  13  30  13
M  ISO  8  31  13  32  13  33  14  34  14  35  14  36  14  37  14  45  15
M  END
>  <DihAtoms>  (1) 
15,16,40,41

>  <DihDeg>  (1) 
-0.25452478265416695

$$$$
