
 OpenBabel03252507303D

 47 50  0  0  1  0  0  0  0  0999 V2000
   46.9530   32.7960   45.4330 C   0  0  0  0  0  0  0  0  0  0  0  0
   45.8570   33.4820   45.9390 C   0  0  0  0  0  0  0  0  0  0  0  0
   45.1770   34.4140   45.1190 C   0  0  0  0  0  0  0  0  0  0  0  0
   45.6740   34.5810   43.8280 N   0  0  0  0  0  0  0  0  0  0  0  0
   46.7370   33.8880   43.4060 C   0  0  0  0  0  0  0  0  0  0  0  0
   47.3630   33.0130   44.1910 N   0  0  0  0  0  0  0  0  0  0  0  0
   45.3410   33.5390   46.8770 H   0  0  0  0  0  0  0  0  0  0  0  0
   44.3360   35.0170   45.3280 H   0  0  0  0  0  0  0  0  0  0  0  0
   47.6010   31.8390   46.3060 C   0  0  2  0  0  0  0  0  0  0  0  0
   47.3740   30.3750   45.8160 C   0  0  0  0  0  0  0  0  0  0  0  0
   48.2030   29.4520   46.6440 C   0  0  0  0  0  0  0  0  0  0  0  0
   48.1640   29.6880   48.1180 C   0  0  0  0  0  0  0  0  0  0  0  0
   48.1400   31.0770   48.4960 C   0  0  0  0  0  0  0  0  0  0  0  0
   47.1470   31.9310   47.6790 C   0  0  2  0  0  0  0  0  0  0  0  0
   48.7080   31.9400   46.2110 H   0  0  0  0  0  0  0  0  0  0  0  0
   47.7390   30.3890   44.7690 H   0  0  0  0  0  0  0  0  0  0  0  0
   46.3190   30.1320   45.7620 H   0  0  0  0  0  0  0  0  0  0  0  0
   47.8330   28.4050   46.4820 H   0  0  0  0  0  0  0  0  0  0  0  0
   49.2090   29.4530   46.1750 H   0  0  0  0  0  0  0  0  0  0  0  0
   47.7920   28.8860   48.7560 H   0  0  0  0  0  0  0  0  0  0  0  0
   49.2760   29.4480   48.3640 H   0  0  0  0  0  0  0  0  0  0  0  0
   49.0920   31.6640   48.4720 H   0  0  0  0  0  0  0  0  0  0  0  0
   47.7630   31.1820   49.5530 H   0  0  0  0  0  0  0  0  0  0  0  0
   47.2470   32.8970   48.1760 H   0  0  0  0  0  0  0  0  0  0  0  0
   45.8130   31.3370   47.8050 N   0  0  0  0  0  0  0  0  0  0  0  0
   45.1540   30.7480   48.8990 C   0  0  0  0  0  0  0  0  0  0  0  0
   44.6290   31.4330   49.8490 O   0  0  0  0  0  0  0  0  0  0  0  0
   45.1050   29.3220   48.8690 N   0  0  0  0  0  0  0  0  0  0  0  0
   45.1510   31.2240   46.9470 H   0  0  0  0  0  0  0  0  0  0  0  0
   45.4120   28.4350   49.3170 H   0  0  0  0  0  0  0  0  0  0  0  0
   44.6510   28.6030   48.2570 H   0  0  0  0  0  0  0  0  0  0  0  0
   47.2200   34.1270   42.0410 C   0  0  0  0  0  0  0  0  0  0  0  0
   48.1420   35.1140   41.7730 C   0  0  0  0  0  0  0  0  0  0  0  0
   48.6470   35.4060   40.5330 C   0  0  0  0  0  0  0  0  0  0  0  0
   48.1470   34.6070   39.5160 C   0  0  0  0  0  0  0  0  0  0  0  0
   47.2270   33.6160   39.7580 C   0  0  0  0  0  0  0  0  0  0  0  0
   46.7610   33.3750   41.0290 N   0  0  0  0  0  0  0  0  0  0  0  0
   48.4880   35.7000   42.6220 H   0  0  0  0  0  0  0  0  0  0  0  0
   49.3710   36.1910   40.3640 H   0  0  0  0  0  0  0  0  0  0  0  0
   48.4940   34.7710   38.5020 H   0  0  0  0  0  0  0  0  0  0  0  0
   46.7150   32.7990   38.7140 N   0  0  0  0  0  0  0  0  0  0  0  0
   45.9920   33.3310   37.5840 C   0  0  0  0  0  2  0  0  0  0  0  0
   45.1310   32.2880   36.9140 C   0  0  0  0  0  2  0  0  0  0  0  0
   44.5310   31.3250   37.9130 C   0  0  0  0  0  3  0  0  0  0  0  0
   43.7380   31.8330   38.5160 H   0  0  0  0  0  0  0  0  0  0  0  0
   45.5300   30.7100   38.8350 C   0  0  0  0  0  2  0  0  0  0  0  0
   46.8860   31.3610   38.7110 C   0  0  0  0  0  2  0  0  0  0  0  0
  1  2  1  0  0  0  0
  1  9  1  0  0  0  0
  2  7  1  0  0  0  0
  3  8  1  0  0  0  0
  3  2  2  0  0  0  0
  4  3  1  0  0  0  0
  5  4  2  0  0  0  0
  5  6  1  0  0  0  0
  6  1  2  0  0  0  0
  9 15  1  6  0  0  0
  9 14  1  0  0  0  0
 10  9  1  0  0  0  0
 10 11  1  0  0  0  0
 11 12  1  0  0  0  0
 12 21  1  0  0  0  0
 12 13  1  0  0  0  0
 12 20  1  0  0  0  0
 13 23  1  0  0  0  0
 14 25  1  0  0  0  0
 14 24  1  1  0  0  0
 14 13  1  0  0  0  0
 16 10  1  0  0  0  0
 17 10  1  0  0  0  0
 18 11  1  0  0  0  0
 19 11  1  0  0  0  0
 22 13  1  0  0  0  0
 25 26  1  0  0  0  0
 26 27  2  0  0  0  0
 28 26  1  0  0  0  0
 28 30  1  0  0  0  0
 29 25  1  0  0  0  0
 31 28  1  0  0  0  0
 32  5  1  0  0  0  0
 33 32  1  0  0  0  0
 33 38  1  0  0  0  0
 34 33  2  0  0  0  0
 35 36  2  0  0  0  0
 35 34  1  0  0  0  0
 36 37  1  0  0  0  0
 37 32  2  0  0  0  0
 39 34  1  0  0  0  0
 40 35  1  0  0  0  0
 41 36  1  0  0  0  0
 42 41  1  0  0  0  0
 43 42  1  0  0  0  0
 43 44  1  0  0  0  0
 44 45  1  0  0  0  0
 44 46  1  0  0  0  0
 47 41  1  0  0  0  0
 47 46  1  0  0  0  0
M  END
>  <minimizedAffinity>
-6.47095537

>  <minimizedRMSD>
0.238297701

$$$$
