
 OpenBabel03252507303D

 47 50  0  0  1  0  0  0  0  0999 V2000
   47.0460   32.4440   45.3820 C   0  0  0  0  0  0  0  0  0  0  0  0
   45.9890   33.1110   45.9860 C   0  0  0  0  0  0  0  0  0  0  0  0
   45.3640   34.1870   45.3100 C   0  0  0  0  0  0  0  0  0  0  0  0
   45.8750   34.5080   44.0530 N   0  0  0  0  0  0  0  0  0  0  0  0
   46.8980   33.8240   43.5320 C   0  0  0  0  0  0  0  0  0  0  0  0
   47.4720   32.8120   44.1810 N   0  0  0  0  0  0  0  0  0  0  0  0
   45.4730   33.0630   46.9250 H   0  0  0  0  0  0  0  0  0  0  0  0
   44.5580   34.8000   45.6070 H   0  0  0  0  0  0  0  0  0  0  0  0
   47.6360   31.3370   46.1060 C   0  0  2  0  0  0  0  0  0  0  0  0
   47.2010   29.9650   45.5060 C   0  0  0  0  0  0  0  0  0  0  0  0
   47.9710   28.8760   46.1730 C   0  0  0  0  0  0  0  0  0  0  0  0
   48.0680   28.9650   47.6610 C   0  0  0  0  0  0  0  0  0  0  0  0
   48.2380   30.3040   48.1650 C   0  0  0  0  0  0  0  0  0  0  0  0
   47.2970   31.3410   47.5150 C   0  0  2  0  0  0  0  0  0  0  0  0
   48.7380   31.3220   45.9290 H   0  0  0  0  0  0  0  0  0  0  0  0
   47.4870   30.0430   44.4380 H   0  0  0  0  0  0  0  0  0  0  0  0
   46.1230   29.8480   45.5180 H   0  0  0  0  0  0  0  0  0  0  0  0
   47.4670   27.8980   45.9490 H   0  0  0  0  0  0  0  0  0  0  0  0
   48.9330   28.8110   45.6240 H   0  0  0  0  0  0  0  0  0  0  0  0
   47.6500   28.1510   48.2530 H   0  0  0  0  0  0  0  0  0  0  0  0
   49.1580   28.5790   47.7900 H   0  0  0  0  0  0  0  0  0  0  0  0
   49.2490   30.7790   48.1150 H   0  0  0  0  0  0  0  0  0  0  0  0
   47.9540   30.3440   49.2550 H   0  0  0  0  0  0  0  0  0  0  0  0
   47.5490   32.2350   48.0880 H   0  0  0  0  0  0  0  0  0  0  0  0
   45.9150   30.8910   47.6980 N   0  0  0  0  0  0  0  0  0  0  0  0
   45.1930   30.5420   48.8530 C   0  0  0  0  0  0  0  0  0  0  0  0
   44.7190   31.4110   49.6700 O   0  0  0  0  0  0  0  0  0  0  0  0
   45.0180   29.1390   49.0460 N   0  0  0  0  0  0  0  0  0  0  0  0
   45.2560   30.7010   46.8520 H   0  0  0  0  0  0  0  0  0  0  0  0
   45.2400   28.3110   49.6360 H   0  0  0  0  0  0  0  0  0  0  0  0
   44.5100   28.3730   48.5440 H   0  0  0  0  0  0  0  0  0  0  0  0
   47.3980   34.2270   42.2130 C   0  0  0  0  0  0  0  0  0  0  0  0
   48.3840   35.1800   42.0840 C   0  0  0  0  0  0  0  0  0  0  0  0
   48.9100   35.6160   40.8960 C   0  0  0  0  0  0  0  0  0  0  0  0
   48.3590   35.0090   39.7770 C   0  0  0  0  0  0  0  0  0  0  0  0
   47.3740   34.0560   39.8800 C   0  0  0  0  0  0  0  0  0  0  0  0
   46.8910   33.6630   41.1050 N   0  0  0  0  0  0  0  0  0  0  0  0
   48.7670   35.6100   43.0070 H   0  0  0  0  0  0  0  0  0  0  0  0
   49.6850   36.3670   40.8370 H   0  0  0  0  0  0  0  0  0  0  0  0
   48.7180   35.2950   38.7960 H   0  0  0  0  0  0  0  0  0  0  0  0
   46.8110   33.4360   38.7320 N   0  0  0  0  0  0  0  0  0  0  0  0
   45.5860   32.6760   38.7720 C   0  0  0  0  0  2  0  0  0  0  0  0
   45.4700   31.7170   37.6120 C   0  0  0  0  0  2  0  0  0  0  0  0
   46.8090   31.1250   37.2310 C   0  0  0  0  0  3  0  0  0  0  0  0
   47.1510   30.4020   38.0120 H   0  0  0  0  0  0  0  0  0  0  0  0
   47.8750   32.1430   37.0040 C   0  0  0  0  0  2  0  0  0  0  0  0
   47.4360   33.5250   37.4280 C   0  0  0  0  0  2  0  0  0  0  0  0
  1  2  1  0  0  0  0
  1  9  1  0  0  0  0
  2  7  1  0  0  0  0
  3  8  1  0  0  0  0
  3  2  2  0  0  0  0
  4  3  1  0  0  0  0
  5  4  2  0  0  0  0
  5  6  1  0  0  0  0
  6  1  2  0  0  0  0
  9 15  1  6  0  0  0
  9 14  1  0  0  0  0
 10 17  1  0  0  0  0
 10  9  1  0  0  0  0
 10 11  1  0  0  0  0
 11 12  1  0  0  0  0
 12 21  1  0  0  0  0
 12 13  1  0  0  0  0
 12 20  1  0  0  0  0
 13 23  1  0  0  0  0
 14 25  1  0  0  0  0
 14 24  1  1  0  0  0
 14 13  1  0  0  0  0
 16 10  1  0  0  0  0
 18 11  1  0  0  0  0
 19 11  1  0  0  0  0
 22 13  1  0  0  0  0
 25 26  1  0  0  0  0
 26 28  1  0  0  0  0
 26 27  2  0  0  0  0
 28 30  1  0  0  0  0
 29 25  1  0  0  0  0
 31 28  1  0  0  0  0
 32  5  1  0  0  0  0
 33 32  1  0  0  0  0
 33 38  1  0  0  0  0
 34 33  2  0  0  0  0
 35 36  2  0  0  0  0
 35 34  1  0  0  0  0
 36 37  1  0  0  0  0
 37 32  2  0  0  0  0
 39 34  1  0  0  0  0
 40 35  1  0  0  0  0
 41 42  1  0  0  0  0
 41 36  1  0  0  0  0
 43 42  1  0  0  0  0
 44 43  1  0  0  0  0
 44 45  1  0  0  0  0
 46 44  1  0  0  0  0
 46 47  1  0  0  0  0
 47 41  1  0  0  0  0
M  END
>  <minimizedAffinity>
-6.59932661

>  <minimizedRMSD>
0.580143392

$$$$
