
 OpenBabel03252507303D

 47 50  0  0  1  0  0  0  0  0999 V2000
   47.0020   32.7260   45.4890 C   0  0  0  0  0  0  0  0  0  0  0  0
   45.9040   33.4020   46.0030 C   0  0  0  0  0  0  0  0  0  0  0  0
   45.2240   34.3460   45.1970 C   0  0  0  0  0  0  0  0  0  0  0  0
   45.7250   34.5350   43.9100 N   0  0  0  0  0  0  0  0  0  0  0  0
   46.7890   33.8510   43.4790 C   0  0  0  0  0  0  0  0  0  0  0  0
   47.4150   32.9640   44.2520 N   0  0  0  0  0  0  0  0  0  0  0  0
   45.3850   33.4440   46.9410 H   0  0  0  0  0  0  0  0  0  0  0  0
   44.3820   34.9450   45.4130 H   0  0  0  0  0  0  0  0  0  0  0  0
   47.6480   31.7550   46.3480 C   0  0  2  0  0  0  0  0  0  0  0  0
   47.4280   30.3000   45.8320 C   0  0  0  0  0  0  0  0  0  0  0  0
   48.2560   29.3640   46.6460 C   0  0  0  0  0  0  0  0  0  0  0  0
   48.2100   29.5740   48.1240 C   0  0  0  0  0  0  0  0  0  0  0  0
   48.1810   30.9570   48.5270 C   0  0  0  0  0  0  0  0  0  0  0  0
   47.1880   31.8220   47.7200 C   0  0  2  0  0  0  0  0  0  0  0  0
   48.7560   31.8610   46.2600 H   0  0  0  0  0  0  0  0  0  0  0  0
   47.7970   30.3330   44.7870 H   0  0  0  0  0  0  0  0  0  0  0  0
   46.3740   30.0550   45.7680 H   0  0  0  0  0  0  0  0  0  0  0  0
   47.8890   28.3190   46.4650 H   0  0  0  0  0  0  0  0  0  0  0  0
   49.2640   29.3760   46.1820 H   0  0  0  0  0  0  0  0  0  0  0  0
   47.8380   28.7610   48.7470 H   0  0  0  0  0  0  0  0  0  0  0  0
   49.3220   29.3330   48.3710 H   0  0  0  0  0  0  0  0  0  0  0  0
   49.1310   31.5470   48.5170 H   0  0  0  0  0  0  0  0  0  0  0  0
   47.7990   31.0420   49.5830 H   0  0  0  0  0  0  0  0  0  0  0  0
   47.2840   32.7800   48.2350 H   0  0  0  0  0  0  0  0  0  0  0  0
   45.8560   31.2230   47.8300 N   0  0  0  0  0  0  0  0  0  0  0  0
   45.1640   30.6830   48.9290 C   0  0  0  0  0  0  0  0  0  0  0  0
   44.6010   31.4090   49.8250 O   0  0  0  0  0  0  0  0  0  0  0  0
   45.1270   29.2570   48.9690 N   0  0  0  0  0  0  0  0  0  0  0  0
   45.2250   31.0610   46.9570 H   0  0  0  0  0  0  0  0  0  0  0  0
   45.4250   28.3960   49.4710 H   0  0  0  0  0  0  0  0  0  0  0  0
   44.7000   28.5040   48.3790 H   0  0  0  0  0  0  0  0  0  0  0  0
   47.2760   34.1130   42.1200 C   0  0  0  0  0  0  0  0  0  0  0  0
   48.1400   35.1530   41.8590 C   0  0  0  0  0  0  0  0  0  0  0  0
   48.6440   35.4690   40.6240 C   0  0  0  0  0  0  0  0  0  0  0  0
   48.2070   34.6370   39.6050 C   0  0  0  0  0  0  0  0  0  0  0  0
   47.3440   33.5940   39.8400 C   0  0  0  0  0  0  0  0  0  0  0  0
   46.8770   33.3300   41.1050 N   0  0  0  0  0  0  0  0  0  0  0  0
   48.4390   35.7610   42.7100 H   0  0  0  0  0  0  0  0  0  0  0  0
   49.3220   36.2950   40.4620 H   0  0  0  0  0  0  0  0  0  0  0  0
   48.5570   34.8170   38.5960 H   0  0  0  0  0  0  0  0  0  0  0  0
   46.8970   32.7430   38.7930 N   0  0  0  0  0  0  0  0  0  0  0  0
   46.8570   31.3050   38.9140 C   0  0  0  0  0  2  0  0  0  0  0  0
   46.8560   30.6190   37.5690 C   0  0  0  0  0  2  0  0  0  0  0  0
   47.7140   31.3490   36.5610 C   0  0  0  0  0  3  0  0  0  0  0  0
   48.7970   31.2270   36.8100 H   0  0  0  0  0  0  0  0  0  0  0  0
   47.4000   32.8030   36.4410 C   0  0  0  0  0  2  0  0  0  0  0  0
   46.4470   33.2650   37.5190 C   0  0  0  0  0  2  0  0  0  0  0  0
  1  2  1  0  0  0  0
  1  9  1  0  0  0  0
  2  7  1  0  0  0  0
  3  8  1  0  0  0  0
  3  2  2  0  0  0  0
  4  3  1  0  0  0  0
  5  4  2  0  0  0  0
  5  6  1  0  0  0  0
  6  1  2  0  0  0  0
  9 15  1  6  0  0  0
  9 14  1  0  0  0  0
 10  9  1  0  0  0  0
 10 11  1  0  0  0  0
 11 12  1  0  0  0  0
 12 21  1  0  0  0  0
 12 13  1  0  0  0  0
 12 20  1  0  0  0  0
 13 23  1  0  0  0  0
 14 25  1  0  0  0  0
 14 24  1  1  0  0  0
 14 13  1  0  0  0  0
 16 10  1  0  0  0  0
 17 10  1  0  0  0  0
 18 11  1  0  0  0  0
 19 11  1  0  0  0  0
 22 13  1  0  0  0  0
 25 26  1  0  0  0  0
 26 28  1  0  0  0  0
 26 27  2  0  0  0  0
 28 30  1  0  0  0  0
 29 25  1  0  0  0  0
 31 28  1  0  0  0  0
 32  5  1  0  0  0  0
 33 32  1  0  0  0  0
 33 38  1  0  0  0  0
 34 33  2  0  0  0  0
 35 36  2  0  0  0  0
 35 34  1  0  0  0  0
 36 37  1  0  0  0  0
 37 32  2  0  0  0  0
 39 34  1  0  0  0  0
 40 35  1  0  0  0  0
 41 42  1  0  0  0  0
 41 36  1  0  0  0  0
 43 42  1  0  0  0  0
 44 45  1  0  0  0  0
 44 43  1  0  0  0  0
 46 44  1  0  0  0  0
 46 47  1  0  0  0  0
 47 41  1  0  0  0  0
M  END
>  <minimizedAffinity>
-6.55611563

>  <minimizedRMSD>
0.326320022

$$$$
