
 OpenBabel03252507303D

 47 50  0  0  1  0  0  0  0  0999 V2000
   47.0540   32.4540   45.3780 C   0  0  0  0  0  0  0  0  0  0  0  0
   46.0040   33.1290   45.9840 C   0  0  0  0  0  0  0  0  0  0  0  0
   45.3730   34.1980   45.3020 C   0  0  0  0  0  0  0  0  0  0  0  0
   45.8720   34.5040   44.0380 N   0  0  0  0  0  0  0  0  0  0  0  0
   46.8890   33.8140   43.5140 C   0  0  0  0  0  0  0  0  0  0  0  0
   47.4680   32.8090   44.1690 N   0  0  0  0  0  0  0  0  0  0  0  0
   45.4970   33.0920   46.9290 H   0  0  0  0  0  0  0  0  0  0  0  0
   44.5700   34.8150   45.6010 H   0  0  0  0  0  0  0  0  0  0  0  0
   47.6500   31.3550   46.1080 C   0  0  2  0  0  0  0  0  0  0  0  0
   47.2350   29.9770   45.5070 C   0  0  0  0  0  0  0  0  0  0  0  0
   48.0120   28.8970   46.1820 C   0  0  0  0  0  0  0  0  0  0  0  0
   48.0950   28.9900   47.6700 C   0  0  0  0  0  0  0  0  0  0  0  0
   48.2470   30.3320   48.1740 C   0  0  0  0  0  0  0  0  0  0  0  0
   47.3000   31.3570   47.5150 C   0  0  2  0  0  0  0  0  0  0  0  0
   48.7530   31.3520   45.9400 H   0  0  0  0  0  0  0  0  0  0  0  0
   47.5290   30.0560   44.4410 H   0  0  0  0  0  0  0  0  0  0  0  0
   46.1580   29.8490   45.5110 H   0  0  0  0  0  0  0  0  0  0  0  0
   47.5200   27.9140   45.9550 H   0  0  0  0  0  0  0  0  0  0  0  0
   48.9780   28.8420   45.6400 H   0  0  0  0  0  0  0  0  0  0  0  0
   47.6820   28.1720   48.2600 H   0  0  0  0  0  0  0  0  0  0  0  0
   49.1890   28.6160   47.8090 H   0  0  0  0  0  0  0  0  0  0  0  0
   49.2530   30.8180   48.1310 H   0  0  0  0  0  0  0  0  0  0  0  0
   47.9540   30.3700   49.2610 H   0  0  0  0  0  0  0  0  0  0  0  0
   47.5380   32.2550   48.0880 H   0  0  0  0  0  0  0  0  0  0  0  0
   45.9210   30.8930   47.6870 N   0  0  0  0  0  0  0  0  0  0  0  0
   45.1930   30.5410   48.8370 C   0  0  0  0  0  0  0  0  0  0  0  0
   44.7010   31.4090   49.6460 O   0  0  0  0  0  0  0  0  0  0  0  0
   45.0320   29.1370   49.0360 N   0  0  0  0  0  0  0  0  0  0  0  0
   45.2730   30.6900   46.8360 H   0  0  0  0  0  0  0  0  0  0  0  0
   45.2570   28.3150   49.6320 H   0  0  0  0  0  0  0  0  0  0  0  0
   44.5370   28.3630   48.5330 H   0  0  0  0  0  0  0  0  0  0  0  0
   47.3770   34.2020   42.1860 C   0  0  0  0  0  0  0  0  0  0  0  0
   48.3580   35.1560   42.0370 C   0  0  0  0  0  0  0  0  0  0  0  0
   48.8720   35.5780   40.8380 C   0  0  0  0  0  0  0  0  0  0  0  0
   48.3140   34.9550   39.7320 C   0  0  0  0  0  0  0  0  0  0  0  0
   47.3330   34.0010   39.8550 C   0  0  0  0  0  0  0  0  0  0  0  0
   46.8620   33.6220   41.0890 N   0  0  0  0  0  0  0  0  0  0  0  0
   48.7480   35.5990   42.9500 H   0  0  0  0  0  0  0  0  0  0  0  0
   49.6450   36.3310   40.7640 H   0  0  0  0  0  0  0  0  0  0  0  0
   48.6640   35.2310   38.7440 H   0  0  0  0  0  0  0  0  0  0  0  0
   46.7630   33.3650   38.7200 N   0  0  0  0  0  0  0  0  0  0  0  0
   45.4050   32.8750   38.6940 C   0  0  0  0  0  2  0  0  0  0  0  0
   45.2000   31.8200   37.6350 C   0  0  0  0  0  2  0  0  0  0  0  0
   46.4130   30.9300   37.4800 C   0  0  0  0  0  3  0  0  0  0  0  0
   46.5200   30.2590   38.3660 H   0  0  0  0  0  0  0  0  0  0  0  0
   47.6870   31.6790   37.2740 C   0  0  0  0  0  2  0  0  0  0  0  0
   47.5110   33.1620   37.4970 C   0  0  0  0  0  2  0  0  0  0  0  0
  1  2  1  0  0  0  0
  1  9  1  0  0  0  0
  2  7  1  0  0  0  0
  3  8  1  0  0  0  0
  3  2  2  0  0  0  0
  4  3  1  0  0  0  0
  5  4  2  0  0  0  0
  5  6  1  0  0  0  0
  6  1  2  0  0  0  0
  9 15  1  6  0  0  0
  9 14  1  0  0  0  0
 10 17  1  0  0  0  0
 10  9  1  0  0  0  0
 10 11  1  0  0  0  0
 11 12  1  0  0  0  0
 12 21  1  0  0  0  0
 12 13  1  0  0  0  0
 12 20  1  0  0  0  0
 13 23  1  0  0  0  0
 14 25  1  0  0  0  0
 14 24  1  1  0  0  0
 14 13  1  0  0  0  0
 16 10  1  0  0  0  0
 18 11  1  0  0  0  0
 19 11  1  0  0  0  0
 22 13  1  0  0  0  0
 25 26  1  0  0  0  0
 26 28  1  0  0  0  0
 26 27  2  0  0  0  0
 28 30  1  0  0  0  0
 29 25  1  0  0  0  0
 31 28  1  0  0  0  0
 32  5  1  0  0  0  0
 33 32  1  0  0  0  0
 33 38  1  0  0  0  0
 34 33  2  0  0  0  0
 35 36  2  0  0  0  0
 35 34  1  0  0  0  0
 36 37  1  0  0  0  0
 37 32  2  0  0  0  0
 39 34  1  0  0  0  0
 40 35  1  0  0  0  0
 41 36  1  0  0  0  0
 42 41  1  0  0  0  0
 43 42  1  0  0  0  0
 44 43  1  0  0  0  0
 44 45  1  0  0  0  0
 46 44  1  0  0  0  0
 46 47  1  0  0  0  0
 47 41  1  0  0  0  0
M  END
>  <minimizedAffinity>
-6.5560236

>  <minimizedRMSD>
0.545388937

$$$$
