
 OpenBabel03252507303D

 47 50  0  0  1  0  0  0  0  0999 V2000
   47.0650   32.4280   45.3870 C   0  0  0  0  0  0  0  0  0  0  0  0
   46.0060   33.1000   45.9800 C   0  0  0  0  0  0  0  0  0  0  0  0
   45.3850   34.1710   45.2920 C   0  0  0  0  0  0  0  0  0  0  0  0
   45.9010   34.4800   44.0360 N   0  0  0  0  0  0  0  0  0  0  0  0
   46.9260   33.7920   43.5240 C   0  0  0  0  0  0  0  0  0  0  0  0
   47.4960   32.7850   44.1850 N   0  0  0  0  0  0  0  0  0  0  0  0
   45.4860   33.0610   46.9180 H   0  0  0  0  0  0  0  0  0  0  0  0
   44.5770   34.7870   45.5800 H   0  0  0  0  0  0  0  0  0  0  0  0
   47.6510   31.3270   46.1240 C   0  0  2  0  0  0  0  0  0  0  0  0
   47.2240   29.9500   45.5290 C   0  0  0  0  0  0  0  0  0  0  0  0
   47.9910   28.8670   46.2100 C   0  0  0  0  0  0  0  0  0  0  0  0
   48.0750   28.9670   47.6980 C   0  0  0  0  0  0  0  0  0  0  0  0
   48.2380   30.3090   48.1950 C   0  0  0  0  0  0  0  0  0  0  0  0
   47.3010   31.3400   47.5300 C   0  0  2  0  0  0  0  0  0  0  0  0
   48.7540   31.3140   45.9560 H   0  0  0  0  0  0  0  0  0  0  0  0
   47.5190   30.0210   44.4630 H   0  0  0  0  0  0  0  0  0  0  0  0
   46.1460   29.8310   45.5330 H   0  0  0  0  0  0  0  0  0  0  0  0
   47.4910   27.8870   45.9880 H   0  0  0  0  0  0  0  0  0  0  0  0
   48.9580   28.8000   45.6690 H   0  0  0  0  0  0  0  0  0  0  0  0
   47.6540   28.1550   48.2920 H   0  0  0  0  0  0  0  0  0  0  0  0
   49.1650   28.5830   47.8390 H   0  0  0  0  0  0  0  0  0  0  0  0
   49.2480   30.7860   48.1500 H   0  0  0  0  0  0  0  0  0  0  0  0
   47.9450   30.3550   49.2810 H   0  0  0  0  0  0  0  0  0  0  0  0
   47.5460   32.2380   48.0990 H   0  0  0  0  0  0  0  0  0  0  0  0
   45.9180   30.8880   47.7040 N   0  0  0  0  0  0  0  0  0  0  0  0
   45.1890   30.5380   48.8550 C   0  0  0  0  0  0  0  0  0  0  0  0
   44.7090   31.4060   49.6690 O   0  0  0  0  0  0  0  0  0  0  0  0
   45.0150   29.1340   49.0460 N   0  0  0  0  0  0  0  0  0  0  0  0
   45.2650   30.6960   46.8540 H   0  0  0  0  0  0  0  0  0  0  0  0
   45.2340   28.3070   49.6370 H   0  0  0  0  0  0  0  0  0  0  0  0
   44.5110   28.3680   48.5410 H   0  0  0  0  0  0  0  0  0  0  0  0
   47.4320   34.1830   42.2040 C   0  0  0  0  0  0  0  0  0  0  0  0
   48.2940   35.2470   42.0570 C   0  0  0  0  0  0  0  0  0  0  0  0
   48.8150   35.6810   40.8650 C   0  0  0  0  0  0  0  0  0  0  0  0
   48.3990   34.9470   39.7650 C   0  0  0  0  0  0  0  0  0  0  0  0
   47.5400   33.8820   39.8870 C   0  0  0  0  0  0  0  0  0  0  0  0
   47.0540   33.4980   41.1130 N   0  0  0  0  0  0  0  0  0  0  0  0
   48.5750   35.7740   42.9660 H   0  0  0  0  0  0  0  0  0  0  0  0
   49.4900   36.5210   40.7920 H   0  0  0  0  0  0  0  0  0  0  0  0
   48.7640   35.2230   38.7830 H   0  0  0  0  0  0  0  0  0  0  0  0
   47.1140   33.1310   38.7570 N   0  0  0  0  0  0  0  0  0  0  0  0
   47.7660   33.2120   37.4710 C   0  0  0  0  0  2  0  0  0  0  0  0
   46.8670   32.7610   36.3460 C   0  0  0  0  0  2  0  0  0  0  0  0
   45.4260   33.1560   36.5800 C   0  0  0  0  0  3  0  0  0  0  0  0
   45.3010   34.2600   36.4610 H   0  0  0  0  0  0  0  0  0  0  0  0
   44.8950   32.7430   37.9130 C   0  0  0  0  0  2  0  0  0  0  0  0
   45.9880   32.2240   38.8180 C   0  0  0  0  0  2  0  0  0  0  0  0
  1  2  1  0  0  0  0
  1  9  1  0  0  0  0
  2  7  1  0  0  0  0
  3  8  1  0  0  0  0
  3  2  2  0  0  0  0
  4  3  1  0  0  0  0
  5  4  2  0  0  0  0
  5  6  1  0  0  0  0
  6  1  2  0  0  0  0
  9 15  1  6  0  0  0
  9 14  1  0  0  0  0
 10 17  1  0  0  0  0
 10  9  1  0  0  0  0
 10 11  1  0  0  0  0
 11 12  1  0  0  0  0
 12 21  1  0  0  0  0
 12 13  1  0  0  0  0
 12 20  1  0  0  0  0
 13 23  1  0  0  0  0
 14 25  1  0  0  0  0
 14 24  1  1  0  0  0
 14 13  1  0  0  0  0
 16 10  1  0  0  0  0
 18 11  1  0  0  0  0
 19 11  1  0  0  0  0
 22 13  1  0  0  0  0
 25 26  1  0  0  0  0
 26 28  1  0  0  0  0
 26 27  2  0  0  0  0
 28 30  1  0  0  0  0
 29 25  1  0  0  0  0
 31 28  1  0  0  0  0
 32  5  1  0  0  0  0
 33 32  1  0  0  0  0
 33 38  1  0  0  0  0
 34 33  2  0  0  0  0
 35 36  2  0  0  0  0
 35 34  1  0  0  0  0
 36 37  1  0  0  0  0
 37 32  2  0  0  0  0
 39 34  1  0  0  0  0
 40 35  1  0  0  0  0
 41 47  1  0  0  0  0
 41 36  1  0  0  0  0
 42 41  1  0  0  0  0
 43 44  1  0  0  0  0
 43 42  1  0  0  0  0
 44 46  1  0  0  0  0
 45 44  1  0  0  0  0
 46 47  1  0  0  0  0
M  END
>  <minimizedAffinity>
-6.65509939

>  <minimizedRMSD>
0.588528991

$$$$
