
 OpenBabel03252509253D

 28 30  0  0  1  0  0  0  0  0999 V2000
   43.6590   31.3490   42.6740 C   0  0  1  0  0  0  0  0  0  0  0  0
   44.5870   30.7150   41.5960 C   0  0  0  0  0  0  0  0  0  0  0  0
   44.6280   32.1760   42.0810 C   0  0  2  0  0  0  0  0  0  0  0  0
   43.7770   30.8790   43.6630 H   0  0  0  0  0  0  0  0  0  0  0  0
   45.4000   30.0540   41.9920 H   0  0  0  0  0  0  0  0  0  0  0  0
   44.1850   30.4680   40.6220 H   0  0  0  0  0  0  0  0  0  0  0  0
   44.4330   32.8670   41.2060 H   0  0  0  0  0  0  0  0  0  0  0  0
   39.9740   30.7440   42.2810 C   0  0  0  0  0  0  0  0  0  0  0  0
   41.2990   30.6030   42.7720 C   0  0  0  0  0  0  0  0  0  0  0  0
   42.2330   31.3790   42.1750 C   0  0  0  0  0  0  0  0  0  0  0  0
   41.9150   32.2520   41.1510 N   0  0  0  0  0  0  0  0  0  0  0  0
   40.6460   32.3630   40.7080 C   0  0  0  0  0  0  0  0  0  0  0  0
   39.6660   31.6000   41.2790 N   0  0  0  0  0  0  0  0  0  0  0  0
   39.2190   30.1330   42.7490 H   0  0  0  0  0  0  0  0  0  0  0  0
   40.4460   33.0540   39.9090 H   0  0  0  0  0  0  0  0  0  0  0  0
   41.6340   29.6880   43.8000 N   0  0  0  0  0  0  0  0  0  0  0  0
   41.1350   29.4990   44.7040 H   0  0  0  0  0  0  0  0  0  0  0  0
   42.4880   29.0990   43.6850 H   0  0  0  0  0  0  0  0  0  0  0  0
   45.8410   32.6470   42.8490 C   0  0  0  0  0  0  0  0  0  0  0  0
   45.8560   32.1160   43.8260 H   0  0  0  0  0  0  0  0  0  0  0  0
   46.7890   32.4200   42.3360 H   0  0  0  0  0  0  0  0  0  0  0  0
   45.7030   34.0610   43.1470 N   0  0  0  0  0  0  0  0  0  0  0  0
   45.1940   34.2540   44.4740 C   0  0  0  0  0  2  0  0  0  0  0  0
   44.6460   35.6270   44.6900 C   0  0  0  0  0  2  0  0  0  0  0  0
   45.0820   36.5420   43.5450 C   0  0  0  0  0  3  0  0  0  0  0  0
   44.7760   37.5850   43.7590 H   0  0  0  0  0  0  0  0  0  0  0  0
   44.3890   35.9910   42.3210 C   0  0  0  0  0  2  0  0  0  0  0  0
   44.7470   34.5520   42.1730 C   0  0  0  0  0  2  0  0  0  0  0  0
  1  4  1  1  0  0  0
  2  5  1  0  0  0  0
  2  3  1  0  0  0  0
  2  1  1  0  0  0  0
  3  7  1  6  0  0  0
  3  1  1  0  0  0  0
  3 19  1  0  0  0  0
  6  2  1  0  0  0  0
  8 14  1  0  0  0  0
  8  9  1  0  0  0  0
  9 16  1  0  0  0  0
 10  1  1  0  0  0  0
 10  9  2  0  0  0  0
 11 10  1  0  0  0  0
 12 11  2  0  0  0  0
 12 13  1  0  0  0  0
 13  8  2  0  0  0  0
 15 12  1  0  0  0  0
 16 17  1  0  0  0  0
 18 16  1  0  0  0  0
 19 22  1  0  0  0  0
 19 20  1  0  0  0  0
 21 19  1  0  0  0  0
 22 23  1  0  0  0  0
 23 24  1  0  0  0  0
 25 26  1  0  0  0  0
 25 24  1  0  0  0  0
 27 25  1  0  0  0  0
 28 27  1  0  0  0  0
 28 22  1  0  0  0  0
M  END
>  <minimizedAffinity>
-3.78537774

>  <minimizedRMSD>
5.68728065

$$$$
