
 OpenBabel03242518063D

 33 35  0  0  1  0  0  0  0  0999 V2000
   46.5260   34.3620   42.3870 N   0  0  0  0  0  0  0  0  0  0  0  0
   47.6330   35.2000   42.0380 C   0  0  0  0  0  0  0  0  0  0  0  0
   48.7910   34.3910   41.6070 C   0  0  0  0  0  0  0  0  0  0  0  0
   48.5240   32.9990   41.1710 C   0  0  0  0  0  0  0  0  0  0  0  0
   47.1410   32.6430   40.7670 C   0  0  0  0  0  0  0  0  0  0  0  0
   46.0470   33.3980   41.4510 C   0  0  2  0  0  0  0  0  0  0  0  0
   47.3400   35.9810   41.2970 H   0  0  0  0  0  0  0  0  0  0  0  0
   47.9490   35.8180   42.9320 H   0  0  0  0  0  0  0  0  0  0  0  0
   49.5810   34.3740   42.3860 H   0  0  0  0  0  0  0  0  0  0  0  0
   49.2740   34.9210   40.7400 H   0  0  0  0  0  0  0  0  0  0  0  0
   48.8020   32.2940   42.0090 H   0  0  0  0  0  0  0  0  0  0  0  0
   49.2220   32.6970   40.3550 H   0  0  0  0  0  0  0  0  0  0  0  0
   47.0410   31.5380   40.8060 H   0  0  0  0  0  0  0  0  0  0  0  0
   47.0730   32.8640   39.6610 H   0  0  0  0  0  0  0  0  0  0  0  0
   45.5090   32.6020   42.0550 H   0  0  0  0  0  0  0  0  0  0  0  0
   45.0050   35.5440   43.8830 C   0  0  0  0  0  0  0  0  0  0  0  0
   45.9190   34.5010   43.6670 C   0  0  0  0  0  0  0  0  0  0  0  0
   46.2000   33.6200   44.7430 C   0  0  0  0  0  0  0  0  0  0  0  0
   45.5580   33.8520   45.9180 N   0  0  0  0  0  0  0  0  0  0  0  0
   44.6940   34.8540   46.0850 C   0  0  0  0  0  0  0  0  0  0  0  0
   44.4150   35.6970   45.0810 N   0  0  0  0  0  0  0  0  0  0  0  0
   44.7230   36.4220   42.8210 N   0  0  0  0  0  0  0  0  0  0  0  0
   46.9060   32.8190   44.5680 H   0  0  0  0  0  0  0  0  0  0  0  0
   44.2000   35.0170   47.0180 H   0  0  0  0  0  0  0  0  0  0  0  0
   43.7940   36.5140   42.3570 H   0  0  0  0  0  0  0  0  0  0  0  0
   45.5930   36.9570   42.5860 H   0  0  0  0  0  0  0  0  0  0  0  0
   45.0030   33.8630   40.5680 N   0  0  0  0  0  0  0  0  0  0  0  0
   43.6960   33.4990   41.0880 C   0  0  0  0  0  0  0  0  0  0  0  0
   42.6740   34.3570   40.3840 C   0  0  0  0  0  0  0  0  0  0  0  0
   42.7170   34.0210   38.9230 C   0  0  0  0  0  0  0  0  0  0  0  0
   41.7390   33.5070   38.6860 H   0  0  0  0  0  0  0  0  0  0  0  0
   43.8870   33.2200   38.4780 C   0  0  0  0  0  0  0  0  0  0  0  0
   45.1720   33.4790   39.1980 C   0  0  0  0  0  0  0  0  0  0  0  0
  1 17  1  0  0  0  0
  2  1  1  0  0  0  0
  2  8  1  0  0  0  0
  3  2  1  0  0  0  0
  3  9  1  0  0  0  0
  4  3  1  0  0  0  0
  4 11  1  0  0  0  0
  5 13  1  0  0  0  0
  5  4  1  0  0  0  0
  5  6  1  0  0  0  0
  6 15  1  1  0  0  0
  6  1  1  0  0  0  0
  7  2  1  0  0  0  0
 10  3  1  0  0  0  0
 12  4  1  0  0  0  0
 14  5  1  0  0  0  0
 16 21  1  0  0  0  0
 17 16  2  0  0  0  0
 17 18  1  0  0  0  0
 18 19  2  0  0  0  0
 19 20  1  0  0  0  0
 20 24  1  0  0  0  0
 21 20  2  0  0  0  0
 22 16  1  0  0  0  0
 23 18  1  0  0  0  0
 25 22  1  0  0  0  0
 26 22  1  0  0  0  0
 27 28  1  0  0  0  0
 27  6  1  0  0  0  0
 29 28  1  0  0  0  0
 30 29  1  0  0  0  0
 31 30  1  0  0  0  0
 32 30  1  0  0  0  0
 32 33  1  0  0  0  0
 33 27  1  0  0  0  0
M  END
>  <minimizedAffinity>
-4.93643522

>  <minimizedRMSD>
1.76809895

$$$$
