
     RDKit          3D

 37 39  0  0  0  0  0  0  0  0999 V2000
   44.6760   35.3859   45.1522 C   0  0  0  0  0  0  0  0  0  0  0  0
   45.1307   35.6924   43.8415 C   0  0  0  0  0  0  0  0  0  0  0  0
   46.0661   34.8558   43.3340 C   0  0  0  0  0  0  0  0  0  0  0  0
   46.5476   33.7747   44.0484 N   0  0  0  0  0  0  0  0  0  0  0  0
   46.0946   33.5115   45.2911 C   0  0  0  0  0  0  0  0  0  0  0  0
   45.1492   34.3257   45.8479 N   0  0  0  0  0  0  0  0  0  0  0  0
   46.5624   35.0597   41.9225 C   0  0  1  0  0  0  0  0  0  0  0  0
   48.1021   35.2922   41.9264 C   0  0  0  0  0  0  0  0  0  0  0  0
   47.3686   34.0843   41.3135 C   0  0  2  0  0  0  0  0  0  0  0  0
   47.3988   33.9083   39.8121 C   0  0  0  0  0  0  0  0  0  0  0  0
   44.6619   36.8165   43.1194 N   0  0  0  0  0  0  0  0  0  0  0  0
   43.9304   36.0432   45.5694 H   0  0  0  0  0  0  0  0  0  0  0  0
   46.4988   32.6601   45.8085 H   0  0  0  0  0  0  0  0  0  0  0  0
   46.0189   35.8397   41.3648 H   0  0  0  0  0  0  0  0  0  0  0  0
   48.4736   36.0507   41.1921 H   0  0  0  0  0  0  0  0  0  0  0  0
   48.6564   35.1896   42.8500 H   0  0  0  0  0  0  0  0  0  0  0  0
   47.7200   33.1351   41.8188 H   0  0  0  0  0  0  0  0  0  0  0  0
   47.6661   34.8868   39.3573 H   0  0  0  0  0  0  0  0  0  0  0  0
   48.1521   33.1746   39.4813 H   0  0  0  0  0  0  0  0  0  0  0  0
   43.6777   37.1642   43.0048 H   0  0  0  0  0  0  0  0  0  0  0  0
   45.3571   37.4105   42.6149 H   0  0  0  0  0  0  0  0  0  0  0  0
   46.0671   33.5804   39.3392 N   0  0  0  0  0  0  0  0  0  0  0  0
   46.0248   32.2434   38.8225 C   0  0  0  0  0  0  0  0  0  0  0  0
   44.8308   31.9933   37.9607 C   0  0  0  0  0  0  0  0  0  0  0  0
   43.8190   33.1250   38.1395 C   0  0  0  0  0  0  0  0  0  0  0  0
   42.8858   32.8861   37.5920 H   0  0  0  0  0  0  0  0  0  0  0  0
   44.5025   34.3493   37.5801 C   0  0  0  0  0  0  0  0  0  0  0  0
   45.8086   34.5321   38.2750 C   0  0  0  0  0  0  0  0  0  0  0  0
   45.9856   31.4869   39.6341 H   0  0  0  0  0  0  0  0  0  0  0  0
   46.9859   32.0399   38.2936 H   0  0  0  0  0  0  0  0  0  0  0  0
   44.2934   31.0307   38.1985 H   0  0  0  0  0  0  0  0  0  0  0  0
   45.1138   31.8907   36.8893 H   0  0  0  0  0  0  0  0  0  0  0  0
   43.6559   33.2396   39.2189 H   0  0  0  0  0  0  0  0  0  0  0  0
   44.7540   34.1109   36.5075 H   0  0  0  0  0  0  0  0  0  0  0  0
   43.8466   35.2442   37.6051 H   0  0  0  0  0  0  0  0  0  0  0  0
   46.6780   34.6162   37.5697 H   0  0  0  0  0  0  0  0  0  0  0  0
   45.7574   35.5309   38.7928 H   0  0  0  0  0  0  0  0  0  0  0  0
  1  6  2  0
  2  1  1  0
  3  2  2  0
  3  4  1  0
  4  5  2  0
  5  6  1  0
  7  3  1  0
  8  7  1  0
  9  8  1  0
  9  7  1  0
 10  9  1  0
 11  2  1  0
  1 12  1  0
  5 13  1  0
  7 14  1  6
  8 15  1  0
  8 16  1  0
  9 17  1  1
 10 18  1  0
 10 19  1  0
 11 20  1  0
 11 21  1  0
 22 23  1  0
 23 24  1  0
 24 25  1  0
 25 26  1  0
 25 27  1  0
 27 28  1  0
 28 22  1  0
 23 29  1  0
 23 30  1  0
 24 31  1  0
 24 32  1  0
 25 33  1  0
 27 34  1  0
 27 35  1  0
 28 36  1  0
 28 37  1  0
 10 22  1  0
M  ISO  8  12  14  13  14  14  13  15  13  16  13  17  13  18   8  19   8
M  ISO  1  26  15
M  END
>  <DihAtoms>  (1) 
8,9,21,22

>  <DihDeg>  (1) 
-68.23664049271399

$$$$
