
 OpenBabel03252509253D

 28 30  0  0  1  0  0  0  0  0999 V2000
   46.6520   35.1140   41.9220 C   0  0  1  0  0  0  0  0  0  0  0  0
   48.1810   35.4050   41.9650 C   0  0  0  0  0  0  0  0  0  0  0  0
   47.5100   34.1830   41.3110 C   0  0  2  0  0  0  0  0  0  0  0  0
   46.0910   35.8840   41.3700 H   0  0  0  0  0  0  0  0  0  0  0  0
   48.5390   36.1940   41.2550 H   0  0  0  0  0  0  0  0  0  0  0  0
   48.7190   35.3050   42.8990 H   0  0  0  0  0  0  0  0  0  0  0  0
   47.8870   33.2380   41.8050 H   0  0  0  0  0  0  0  0  0  0  0  0
   44.6990   35.3090   45.1230 C   0  0  0  0  0  0  0  0  0  0  0  0
   45.1710   35.6610   43.8300 C   0  0  0  0  0  0  0  0  0  0  0  0
   46.1350   34.8610   43.3190 C   0  0  0  0  0  0  0  0  0  0  0  0
   46.6290   33.7730   44.0130 N   0  0  0  0  0  0  0  0  0  0  0  0
   46.1590   33.4650   45.2400 C   0  0  0  0  0  0  0  0  0  0  0  0
   45.1840   34.2430   45.8000 N   0  0  0  0  0  0  0  0  0  0  0  0
   43.9300   35.9380   45.5420 H   0  0  0  0  0  0  0  0  0  0  0  0
   46.5740   32.6100   45.7430 H   0  0  0  0  0  0  0  0  0  0  0  0
   44.6890   36.7930   43.1280 N   0  0  0  0  0  0  0  0  0  0  0  0
   43.6990   37.1200   43.0040 H   0  0  0  0  0  0  0  0  0  0  0  0
   45.3790   37.4160   42.6530 H   0  0  0  0  0  0  0  0  0  0  0  0
   47.5780   34.0400   39.8080 C   0  0  0  0  0  0  0  0  0  0  0  0
   46.9220   34.8180   39.3590 H   0  0  0  0  0  0  0  0  0  0  0  0
   48.5930   34.1960   39.4080 H   0  0  0  0  0  0  0  0  0  0  0  0
   47.0250   32.7560   39.4210 N   0  0  0  0  0  0  0  0  0  0  0  0
   47.7060   32.2350   38.2710 C   0  0  0  0  0  2  0  0  0  0  0  0
   46.9380   31.1520   37.5850 C   0  0  0  0  0  2  0  0  0  0  0  0
   45.8000   30.6760   38.4880 C   0  0  0  0  0  3  0  0  0  0  0  0
   45.3010   29.7970   38.0320 H   0  0  0  0  0  0  0  0  0  0  0  0
   44.8690   31.8590   38.5970 C   0  0  0  0  0  2  0  0  0  0  0  0
   45.6400   33.0350   39.0930 C   0  0  0  0  0  2  0  0  0  0  0  0
  1  4  1  6  0  0  0
  1  2  1  0  0  0  0
  1 10  1  0  0  0  0
  2  6  1  0  0  0  0
  3  7  1  1  0  0  0
  3  1  1  0  0  0  0
  3  2  1  0  0  0  0
  5  2  1  0  0  0  0
  8 14  1  0  0  0  0
  8 13  1  0  0  0  0
  9  8  2  0  0  0  0
 10  9  1  0  0  0  0
 10 11  2  0  0  0  0
 11 12  1  0  0  0  0
 12 15  1  0  0  0  0
 12 13  2  0  0  0  0
 16  9  1  0  0  0  0
 17 16  1  0  0  0  0
 18 16  1  0  0  0  0
 19  3  1  0  0  0  0
 20 19  1  0  0  0  0
 21 19  1  0  0  0  0
 22 19  1  0  0  0  0
 23 22  1  0  0  0  0
 24 23  1  0  0  0  0
 24 25  1  0  0  0  0
 25 27  1  0  0  0  0
 26 25  1  0  0  0  0
 27 28  1  0  0  0  0
 28 22  1  0  0  0  0
M  END
>  <minimizedAffinity>
-4.39583588

>  <minimizedRMSD>
1.64297462

$$$$
