
 OpenBabel03252506443D

 38 41  0  0  1  0  0  0  0  0999 V2000
   37.0230   29.7760   40.6710 N   0  0  1  0  0  0  0  0  0  0  0  0
   37.2740   31.1690   41.0390 C   0  0  0  0  0  0  0  0  0  0  0  0
   37.0320   32.1220   39.9040 C   0  0  0  0  0  0  0  0  0  0  0  0
   38.1400   31.8840   38.8900 C   0  0  0  0  0  0  0  0  0  0  0  0
   38.3850   30.4230   38.7120 C   0  0  0  0  0  0  0  0  0  0  0  0
   37.2420   29.6070   39.2540 C   0  0  2  0  0  0  0  0  0  0  0  0
   36.7150   31.4430   41.9420 H   0  0  0  0  0  0  0  0  0  0  0  0
   38.3620   31.2530   41.2840 H   0  0  0  0  0  0  0  0  0  0  0  0
   36.0240   32.0190   39.4930 H   0  0  0  0  0  0  0  0  0  0  0  0
   37.1090   33.1400   40.3230 H   0  0  0  0  0  0  0  0  0  0  0  0
   38.0010   32.4670   37.9670 H   0  0  0  0  0  0  0  0  0  0  0  0
   39.0540   32.3190   39.3850 H   0  0  0  0  0  0  0  0  0  0  0  0
   38.5910   30.0890   37.6900 H   0  0  0  0  0  0  0  0  0  0  0  0
   39.2830   30.0720   39.2990 H   0  0  0  0  0  0  0  0  0  0  0  0
   37.5250   28.5400   39.1080 H   0  0  0  0  0  0  0  0  0  0  0  0
   37.3450   27.9520   42.4620 C   0  0  1  0  0  0  0  0  0  0  0  0
   37.8270   29.2530   42.9500 C   0  0  0  0  0  0  0  0  0  0  0  0
   37.8600   28.9700   41.4920 C   0  0  2  0  0  0  0  0  0  0  0  0
   36.2460   27.8270   42.4810 H   0  0  0  0  0  0  0  0  0  0  0  0
   38.8030   29.2630   43.4820 H   0  0  0  0  0  0  0  0  0  0  0  0
   37.1120   30.0110   43.3550 H   0  0  0  0  0  0  0  0  0  0  0  0
   38.8600   28.7410   41.0200 H   0  0  0  0  0  0  0  0  0  0  0  0
   37.8070   25.5080   42.0900 C   0  0  0  0  0  0  0  0  0  0  0  0
   38.1660   26.7270   42.7010 C   0  0  0  0  0  0  0  0  0  0  0  0
   39.3060   26.7570   43.5220 C   0  0  0  0  0  0  0  0  0  0  0  0
   40.0010   25.5990   43.6800 N   0  0  0  0  0  0  0  0  0  0  0  0
   39.6320   24.4360   43.0790 C   0  0  0  0  0  0  0  0  0  0  0  0
   38.5280   24.3850   42.2770 N   0  0  0  0  0  0  0  0  0  0  0  0
   36.9360   25.4630   41.4570 H   0  0  0  0  0  0  0  0  0  0  0  0
   39.6040   27.6590   43.9950 H   0  0  0  0  0  0  0  0  0  0  0  0
   40.2120   23.5340   43.2290 H   0  0  0  0  0  0  0  0  0  0  0  0
   35.9960   29.8150   38.5960 N   0  0  0  0  0  0  0  0  0  0  0  0
   34.9700   29.1000   39.2790 C   0  0  0  0  0  2  0  0  0  0  0  0
   33.7340   28.8660   38.4500 C   0  0  0  0  0  2  0  0  0  0  0  0
   34.0180   27.9940   37.2460 C   0  0  0  0  0  3  0  0  0  0  0  0
   33.2500   28.2280   36.4760 H   0  0  0  0  0  0  0  0  0  0  0  0
   35.4240   28.2510   36.7730 C   0  0  0  0  0  2  0  0  0  0  0  0
   35.9340   29.6180   37.1990 C   0  0  0  0  0  2  0  0  0  0  0  0
  1  2  1  1  0  0  0
  1 18  1  0  0  0  0
  2  8  1  0  0  0  0
  2  7  1  0  0  0  0
  3 10  1  0  0  0  0
  3  2  1  0  0  0  0
  4 12  1  0  0  0  0
  4  3  1  0  0  0  0
  5  4  1  0  0  0  0
  5  6  1  0  0  0  0
  5 14  1  0  0  0  0
  6 15  1  6  0  0  0
  6  1  1  0  0  0  0
  9  3  1  0  0  0  0
 11  4  1  0  0  0  0
 13  5  1  0  0  0  0
 16 19  1  1  0  0  0
 16 24  1  0  0  0  0
 16 17  1  0  0  0  0
 17 21  1  0  0  0  0
 17 20  1  0  0  0  0
 18 22  1  6  0  0  0
 18 16  1  0  0  0  0
 18 17  1  0  0  0  0
 23 28  2  0  0  0  0
 23 24  1  0  0  0  0
 24 25  2  0  0  0  0
 25 26  1  0  0  0  0
 25 30  1  0  0  0  0
 27 31  1  0  0  0  0
 27 26  2  0  0  0  0
 28 27  1  0  0  0  0
 29 23  1  0  0  0  0
 32  6  1  0  0  0  0
 32 33  1  0  0  0  0
 34 33  1  0  0  0  0
 35 34  1  0  0  0  0
 36 35  1  0  0  0  0
 37 38  1  0  0  0  0
 37 35  1  0  0  0  0
 38 32  1  0  0  0  0
M  END
>  <minimizedAffinity>
-5.34456825

$$$$

 OpenBabel03252506443D

 38 41  0  0  1  0  0  0  0  0999 V2000
   37.4390   30.2020   40.7590 N   0  0  1  0  0  0  0  0  0  0  0  0
   36.0520   30.4980   40.3960 C   0  0  0  0  0  0  0  0  0  0  0  0
   35.1980   29.2660   40.3140 C   0  0  0  0  0  0  0  0  0  0  0  0
   35.6620   28.4950   39.0880 C   0  0  0  0  0  0  0  0  0  0  0  0
   37.1510   28.4810   39.0080 C   0  0  0  0  0  0  0  0  0  0  0  0
   37.7740   28.8670   40.3230 C   0  0  2  0  0  0  0  0  0  0  0  0
   35.6270   31.2590   41.0620 H   0  0  0  0  0  0  0  0  0  0  0  0
   36.0680   30.9320   39.3650 H   0  0  0  0  0  0  0  0  0  0  0  0
   35.2270   28.6870   41.2410 H   0  0  0  0  0  0  0  0  0  0  0  0
   34.1580   29.6100   40.1780 H   0  0  0  0  0  0  0  0  0  0  0  0
   35.1630   27.5180   38.9900 H   0  0  0  0  0  0  0  0  0  0  0  0
   35.2850   29.1130   38.2250 H   0  0  0  0  0  0  0  0  0  0  0  0
   37.6080   27.5440   38.6740 H   0  0  0  0  0  0  0  0  0  0  0  0
   37.5410   29.2490   38.2770 H   0  0  0  0  0  0  0  0  0  0  0  0
   38.8750   28.8610   40.1600 H   0  0  0  0  0  0  0  0  0  0  0  0
   38.9590   32.2690   40.9890 C   0  0  1  0  0  0  0  0  0  0  0  0
   37.7200   32.6110   40.2740 C   0  0  0  0  0  0  0  0  0  0  0  0
   38.2470   31.2240   40.1880 C   0  0  2  0  0  0  0  0  0  0  0  0
   38.8530   32.1810   42.0860 H   0  0  0  0  0  0  0  0  0  0  0  0
   37.8190   33.2430   39.3640 H   0  0  0  0  0  0  0  0  0  0  0  0
   36.7750   32.8140   40.8340 H   0  0  0  0  0  0  0  0  0  0  0  0
   38.7510   30.9090   39.2270 H   0  0  0  0  0  0  0  0  0  0  0  0
   40.2980   33.6740   39.3900 C   0  0  0  0  0  0  0  0  0  0  0  0
   40.2670   32.7800   40.4780 C   0  0  0  0  0  0  0  0  0  0  0  0
   41.4840   32.3940   41.0650 C   0  0  0  0  0  0  0  0  0  0  0  0
   42.6290   32.9110   40.5450 N   0  0  0  0  0  0  0  0  0  0  0  0
   42.6300   33.7730   39.4920 C   0  0  0  0  0  0  0  0  0  0  0  0
   41.4580   34.1610   38.9070 N   0  0  0  0  0  0  0  0  0  0  0  0
   39.3760   33.9820   38.9250 H   0  0  0  0  0  0  0  0  0  0  0  0
   41.4960   31.7230   41.8880 H   0  0  0  0  0  0  0  0  0  0  0  0
   43.5620   34.1640   39.1040 H   0  0  0  0  0  0  0  0  0  0  0  0
   37.4940   27.9780   41.4000 N   0  0  0  0  0  0  0  0  0  0  0  0
   38.0710   28.4850   42.6000 C   0  0  0  0  0  2  0  0  0  0  0  0
   38.2410   27.4470   43.6800 C   0  0  0  0  0  2  0  0  0  0  0  0
   39.2050   26.3570   43.2670 C   0  0  0  0  0  3  0  0  0  0  0  0
   38.9490   25.4460   43.8540 H   0  0  0  0  0  0  0  0  0  0  0  0
   39.1060   26.1460   41.7800 C   0  0  0  0  0  2  0  0  0  0  0  0
   37.7670   26.6040   41.2230 C   0  0  0  0  0  2  0  0  0  0  0  0
  1  2  1  6  0  0  0
  2  7  1  0  0  0  0
  3  2  1  0  0  0  0
  3  9  1  0  0  0  0
  4  3  1  0  0  0  0
  5  4  1  0  0  0  0
  5  6  1  0  0  0  0
  6 15  1  6  0  0  0
  6  1  1  0  0  0  0
  6 32  1  0  0  0  0
  8  2  1  0  0  0  0
 10  3  1  0  0  0  0
 11  4  1  0  0  0  0
 12  4  1  0  0  0  0
 13  5  1  0  0  0  0
 14  5  1  0  0  0  0
 16 19  1  1  0  0  0
 17 21  1  0  0  0  0
 17 16  1  0  0  0  0
 18 22  1  6  0  0  0
 18 17  1  0  0  0  0
 18  1  1  0  0  0  0
 18 16  1  0  0  0  0
 20 17  1  0  0  0  0
 23 24  1  0  0  0  0
 24 16  1  0  0  0  0
 24 25  2  0  0  0  0
 25 30  1  0  0  0  0
 26 25  1  0  0  0  0
 27 26  2  0  0  0  0
 28 23  2  0  0  0  0
 28 27  1  0  0  0  0
 29 23  1  0  0  0  0
 31 27  1  0  0  0  0
 32 33  1  0  0  0  0
 33 34  1  0  0  0  0
 35 34  1  0  0  0  0
 35 36  1  0  0  0  0
 37 35  1  0  0  0  0
 38 32  1  0  0  0  0
 38 37  1  0  0  0  0
M  END
>  <minimizedAffinity>
-5.04116011

$$$$

 OpenBabel03252506443D

 38 41  0  0  1  0  0  0  0  0999 V2000
   37.5870   28.3990   40.7060 N   0  0  1  0  0  0  0  0  0  0  0  0
   38.0980   29.4350   41.6030 C   0  0  0  0  0  0  0  0  0  0  0  0
   38.6410   28.8760   42.8860 C   0  0  0  0  0  0  0  0  0  0  0  0
   37.4470   28.3670   43.6800 C   0  0  0  0  0  0  0  0  0  0  0  0
   36.4970   27.6380   42.7900 C   0  0  0  0  0  0  0  0  0  0  0  0
   37.1470   27.2650   41.4840 C   0  0  2  0  0  0  0  0  0  0  0  0
   38.8220   30.0780   41.0870 H   0  0  0  0  0  0  0  0  0  0  0  0
   37.2300   30.0790   41.8900 H   0  0  0  0  0  0  0  0  0  0  0  0
   39.4110   28.1210   42.7090 H   0  0  0  0  0  0  0  0  0  0  0  0
   39.1240   29.7140   43.4180 H   0  0  0  0  0  0  0  0  0  0  0  0
   37.7450   27.8450   44.6020 H   0  0  0  0  0  0  0  0  0  0  0  0
   36.9320   29.3090   44.0210 H   0  0  0  0  0  0  0  0  0  0  0  0
   36.0340   26.7400   43.2120 H   0  0  0  0  0  0  0  0  0  0  0  0
   35.6190   28.2830   42.4930 H   0  0  0  0  0  0  0  0  0  0  0  0
   36.3610   26.7600   40.8790 H   0  0  0  0  0  0  0  0  0  0  0  0
   36.6650   29.1920   38.4340 C   0  0  1  0  0  0  0  0  0  0  0  0
   36.8720   30.3330   39.3400 C   0  0  0  0  0  0  0  0  0  0  0  0
   36.5660   28.9980   39.9160 C   0  0  2  0  0  0  0  0  0  0  0  0
   37.5850   28.7990   37.9640 H   0  0  0  0  0  0  0  0  0  0  0  0
   36.0650   31.0960   39.3840 H   0  0  0  0  0  0  0  0  0  0  0  0
   37.8890   30.7780   39.4740 H   0  0  0  0  0  0  0  0  0  0  0  0
   35.5270   28.8230   40.3230 H   0  0  0  0  0  0  0  0  0  0  0  0
   35.4700   29.1920   36.2210 C   0  0  0  0  0  0  0  0  0  0  0  0
   35.4100   29.1120   37.6270 C   0  0  0  0  0  0  0  0  0  0  0  0
   34.1550   28.9500   38.2380 C   0  0  0  0  0  0  0  0  0  0  0  0
   33.0640   28.8790   37.4300 N   0  0  0  0  0  0  0  0  0  0  0  0
   33.1500   28.9590   36.0750 C   0  0  0  0  0  0  0  0  0  0  0  0
   34.3600   29.1170   35.4610 N   0  0  0  0  0  0  0  0  0  0  0  0
   36.4230   29.3170   35.7340 H   0  0  0  0  0  0  0  0  0  0  0  0
   34.0750   28.8850   39.2950 H   0  0  0  0  0  0  0  0  0  0  0  0
   32.2580   28.8990   35.4640 H   0  0  0  0  0  0  0  0  0  0  0  0
   38.2460   26.3670   41.5990 N   0  0  0  0  0  0  0  0  0  0  0  0
   38.7720   26.0880   40.3040 C   0  0  0  0  0  2  0  0  0  0  0  0
   39.6090   24.8370   40.2430 C   0  0  0  0  0  2  0  0  0  0  0  0
   38.7970   23.5990   40.5590 C   0  0  0  0  0  3  0  0  0  0  0  0
   39.5020   22.8260   40.9390 H   0  0  0  0  0  0  0  0  0  0  0  0
   37.7220   23.9540   41.5520 C   0  0  0  0  0  2  0  0  0  0  0  0
   38.0740   25.1920   42.3620 C   0  0  0  0  0  2  0  0  0  0  0  0
  1  6  1  0  0  0  0
  1  2  1  1  0  0  0
  2  8  1  0  0  0  0
  2  3  1  0  0  0  0
  3 10  1  0  0  0  0
  3  4  1  0  0  0  0
  4 12  1  0  0  0  0
  4 11  1  0  0  0  0
  5 13  1  0  0  0  0
  5  4  1  0  0  0  0
  6 15  1  6  0  0  0
  6 32  1  0  0  0  0
  6  5  1  0  0  0  0
  7  2  1  0  0  0  0
  9  3  1  0  0  0  0
 14  5  1  0  0  0  0
 16 19  1  6  0  0  0
 16 17  1  0  0  0  0
 16 18  1  0  0  0  0
 17 20  1  0  0  0  0
 17 21  1  0  0  0  0
 17 18  1  0  0  0  0
 18 22  1  1  0  0  0
 18  1  1  0  0  0  0
 23 24  1  0  0  0  0
 24 25  2  0  0  0  0
 24 16  1  0  0  0  0
 25 30  1  0  0  0  0
 26 25  1  0  0  0  0
 27 26  2  0  0  0  0
 28 27  1  0  0  0  0
 28 23  2  0  0  0  0
 29 23  1  0  0  0  0
 31 27  1  0  0  0  0
 32 38  1  0  0  0  0
 33 32  1  0  0  0  0
 34 33  1  0  0  0  0
 34 35  1  0  0  0  0
 35 36  1  0  0  0  0
 35 37  1  0  0  0  0
 37 38  1  0  0  0  0
M  END
>  <minimizedAffinity>
-5.02626562

$$$$

 OpenBabel03252506443D

 38 41  0  0  1  0  0  0  0  0999 V2000
   37.1950   30.2020   40.1940 N   0  0  1  0  0  0  0  0  0  0  0  0
   35.8210   30.4120   39.7360 C   0  0  0  0  0  0  0  0  0  0  0  0
   34.9610   29.1920   39.9020 C   0  0  0  0  0  0  0  0  0  0  0  0
   35.4540   28.1690   38.8900 C   0  0  0  0  0  0  0  0  0  0  0  0
   36.9450   28.1380   38.8570 C   0  0  0  0  0  0  0  0  0  0  0  0
   37.5330   28.8030   40.0730 C   0  0  2  0  0  0  0  0  0  0  0  0
   35.3830   31.3010   40.2050 H   0  0  0  0  0  0  0  0  0  0  0  0
   35.8690   30.6080   38.6350 H   0  0  0  0  0  0  0  0  0  0  0  0
   34.9600   28.8310   40.9340 H   0  0  0  0  0  0  0  0  0  0  0  0
   33.9280   29.4990   39.6640 H   0  0  0  0  0  0  0  0  0  0  0  0
   34.9510   27.1960   38.9940 H   0  0  0  0  0  0  0  0  0  0  0  0
   35.1050   28.5830   37.9010 H   0  0  0  0  0  0  0  0  0  0  0  0
   37.4040   27.1500   38.7510 H   0  0  0  0  0  0  0  0  0  0  0  0
   37.3600   28.7260   37.9870 H   0  0  0  0  0  0  0  0  0  0  0  0
   38.6380   28.7610   39.9460 H   0  0  0  0  0  0  0  0  0  0  0  0
   38.5460   32.3810   39.9430 C   0  0  1  0  0  0  0  0  0  0  0  0
   37.4170   32.3570   39.0000 C   0  0  0  0  0  0  0  0  0  0  0  0
   38.0260   31.0730   39.4350 C   0  0  2  0  0  0  0  0  0  0  0  0
   38.2750   32.6280   40.9860 H   0  0  0  0  0  0  0  0  0  0  0  0
   37.6220   32.6820   37.9570 H   0  0  0  0  0  0  0  0  0  0  0  0
   36.3860   32.6260   39.3370 H   0  0  0  0  0  0  0  0  0  0  0  0
   38.6900   30.5280   38.7020 H   0  0  0  0  0  0  0  0  0  0  0  0
   40.7640   33.4900   40.3620 C   0  0  0  0  0  0  0  0  0  0  0  0
   39.8880   32.8380   39.4710 C   0  0  0  0  0  0  0  0  0  0  0  0
   40.3110   32.6260   38.1480 C   0  0  0  0  0  0  0  0  0  0  0  0
   41.5500   33.0660   37.8030 N   0  0  0  0  0  0  0  0  0  0  0  0
   42.3760   33.6930   38.6840 C   0  0  0  0  0  0  0  0  0  0  0  0
   41.9840   33.9090   39.9740 N   0  0  0  0  0  0  0  0  0  0  0  0
   40.4590   33.6630   41.3820 H   0  0  0  0  0  0  0  0  0  0  0  0
   39.6760   32.1370   37.4520 H   0  0  0  0  0  0  0  0  0  0  0  0
   43.3560   34.0300   38.3720 H   0  0  0  0  0  0  0  0  0  0  0  0
   37.2170   28.1730   41.3100 N   0  0  0  0  0  0  0  0  0  0  0  0
   37.7310   28.9520   42.3870 C   0  0  0  0  0  2  0  0  0  0  0  0
   37.8660   28.1900   43.6800 C   0  0  0  0  0  2  0  0  0  0  0  0
   38.8650   27.0590   43.5660 C   0  0  0  0  0  3  0  0  0  0  0  0
   38.5960   26.2980   44.3320 H   0  0  0  0  0  0  0  0  0  0  0  0
   38.8370   26.5160   42.1620 C   0  0  0  0  0  2  0  0  0  0  0  0
   37.5190   26.8030   41.4600 C   0  0  0  0  0  2  0  0  0  0  0  0
  1  2  1  6  0  0  0
  2  3  1  0  0  0  0
  2  7  1  0  0  0  0
  3  9  1  0  0  0  0
  4 11  1  0  0  0  0
  4  3  1  0  0  0  0
  5  4  1  0  0  0  0
  5  6  1  0  0  0  0
  6 15  1  6  0  0  0
  6  1  1  0  0  0  0
  6 32  1  0  0  0  0
  8  2  1  0  0  0  0
 10  3  1  0  0  0  0
 12  4  1  0  0  0  0
 13  5  1  0  0  0  0
 14  5  1  0  0  0  0
 16 19  1  1  0  0  0
 17 21  1  0  0  0  0
 17 18  1  0  0  0  0
 17 16  1  0  0  0  0
 18 22  1  6  0  0  0
 18 16  1  0  0  0  0
 18  1  1  0  0  0  0
 20 17  1  0  0  0  0
 23 29  1  0  0  0  0
 24 16  1  0  0  0  0
 24 23  2  0  0  0  0
 25 24  1  0  0  0  0
 26 25  2  0  0  0  0
 26 27  1  0  0  0  0
 27 28  2  0  0  0  0
 28 23  1  0  0  0  0
 30 25  1  0  0  0  0
 31 27  1  0  0  0  0
 32 38  1  0  0  0  0
 32 33  1  0  0  0  0
 33 34  1  0  0  0  0
 35 34  1  0  0  0  0
 35 36  1  0  0  0  0
 37 35  1  0  0  0  0
 38 37  1  0  0  0  0
M  END
>  <minimizedAffinity>
-5.01482058

$$$$

 OpenBabel03252506443D

 38 41  0  0  1  0  0  0  0  0999 V2000
   37.4160   28.5310   40.8760 N   0  0  1  0  0  0  0  0  0  0  0  0
   37.0740   29.3450   42.0430 C   0  0  0  0  0  0  0  0  0  0  0  0
   37.7800   28.8970   43.2900 C   0  0  0  0  0  0  0  0  0  0  0  0
   37.1700   27.5590   43.6800 C   0  0  0  0  0  0  0  0  0  0  0  0
   36.9800   26.6980   42.4770 C   0  0  0  0  0  0  0  0  0  0  0  0
   37.7850   27.2030   41.3090 C   0  0  2  0  0  0  0  0  0  0  0  0
   37.2270   30.4110   41.8350 H   0  0  0  0  0  0  0  0  0  0  0  0
   35.9820   29.1990   42.2370 H   0  0  0  0  0  0  0  0  0  0  0  0
   38.8650   28.8690   43.1580 H   0  0  0  0  0  0  0  0  0  0  0  0
   37.5660   29.6550   44.0640 H   0  0  0  0  0  0  0  0  0  0  0  0
   37.6860   27.0920   44.5330 H   0  0  0  0  0  0  0  0  0  0  0  0
   36.1460   27.8330   44.0620 H   0  0  0  0  0  0  0  0  0  0  0  0
   37.1970   25.6330   42.6070 H   0  0  0  0  0  0  0  0  0  0  0  0
   35.9120   26.7160   42.1100 H   0  0  0  0  0  0  0  0  0  0  0  0
   37.5570   26.5250   40.4570 H   0  0  0  0  0  0  0  0  0  0  0  0
   36.0520   29.6680   39.0100 C   0  0  1  0  0  0  0  0  0  0  0  0
   35.2830   29.6220   40.2630 C   0  0  0  0  0  0  0  0  0  0  0  0
   36.2980   28.5700   39.9970 C   0  0  2  0  0  0  0  0  0  0  0  0
   36.8290   30.4540   38.9700 H   0  0  0  0  0  0  0  0  0  0  0  0
   34.2160   29.3200   40.1910 H   0  0  0  0  0  0  0  0  0  0  0  0
   35.4610   30.3760   41.0690 H   0  0  0  0  0  0  0  0  0  0  0  0
   35.9310   27.5450   39.6980 H   0  0  0  0  0  0  0  0  0  0  0  0
   34.0160   28.9630   37.7130 C   0  0  0  0  0  0  0  0  0  0  0  0
   35.3800   29.3210   37.7220 C   0  0  0  0  0  0  0  0  0  0  0  0
   36.0740   29.3480   36.5010 C   0  0  0  0  0  0  0  0  0  0  0  0
   35.3850   29.0260   35.3740 N   0  0  0  0  0  0  0  0  0  0  0  0
   34.0680   28.6840   35.3940 C   0  0  0  0  0  0  0  0  0  0  0  0
   33.3740   28.6510   36.5700 N   0  0  0  0  0  0  0  0  0  0  0  0
   33.4650   28.9360   38.6390 H   0  0  0  0  0  0  0  0  0  0  0  0
   37.1020   29.6140   36.4730 H   0  0  0  0  0  0  0  0  0  0  0  0
   33.5530   28.4330   34.4760 H   0  0  0  0  0  0  0  0  0  0  0  0
   39.1960   27.1890   41.5060 N   0  0  0  0  0  0  0  0  0  0  0  0
   39.8450   27.6930   40.3420 C   0  0  0  0  0  2  0  0  0  0  0  0
   41.2990   27.3120   40.2420 C   0  0  0  0  0  2  0  0  0  0  0  0
   41.4820   25.8150   40.1160 C   0  0  0  0  0  3  0  0  0  0  0  0
   42.5000   25.5710   40.4970 H   0  0  0  0  0  0  0  0  0  0  0  0
   40.3860   25.1190   40.8780 C   0  0  0  0  0  2  0  0  0  0  0  0
   39.7960   25.9980   41.9690 C   0  0  0  0  0  2  0  0  0  0  0  0
  1  6  1  0  0  0  0
  1  2  1  1  0  0  0
  2  8  1  0  0  0  0
  2  3  1  0  0  0  0
  3  4  1  0  0  0  0
  3 10  1  0  0  0  0
  4 12  1  0  0  0  0
  4 11  1  0  0  0  0
  5 13  1  0  0  0  0
  5  4  1  0  0  0  0
  6 15  1  6  0  0  0
  6 32  1  0  0  0  0
  6  5  1  0  0  0  0
  7  2  1  0  0  0  0
  9  3  1  0  0  0  0
 14  5  1  0  0  0  0
 16 19  1  6  0  0  0
 16 18  1  0  0  0  0
 16 17  1  0  0  0  0
 17 21  1  0  0  0  0
 18 22  1  6  0  0  0
 18 17  1  0  0  0  0
 18  1  1  0  0  0  0
 20 17  1  0  0  0  0
 23 24  1  0  0  0  0
 23 29  1  0  0  0  0
 24 16  1  0  0  0  0
 25 24  2  0  0  0  0
 26 27  2  0  0  0  0
 26 25  1  0  0  0  0
 27 28  1  0  0  0  0
 28 23  2  0  0  0  0
 30 25  1  0  0  0  0
 31 27  1  0  0  0  0
 32 38  1  0  0  0  0
 33 32  1  0  0  0  0
 34 33  1  0  0  0  0
 35 34  1  0  0  0  0
 35 36  1  0  0  0  0
 35 37  1  0  0  0  0
 37 38  1  0  0  0  0
M  END
>  <minimizedAffinity>
-4.79610538

$$$$

 OpenBabel03252506443D

 38 41  0  0  1  0  0  0  0  0999 V2000
   38.4230   29.1210   41.6500 N   0  0  1  0  0  0  0  0  0  0  0  0
   38.9030   29.6000   42.9460 C   0  0  0  0  0  0  0  0  0  0  0  0
   39.7270   30.8500   42.8340 C   0  0  0  0  0  0  0  0  0  0  0  0
   41.0350   30.4530   42.1670 C   0  0  0  0  0  0  0  0  0  0  0  0
   40.7830   29.5180   41.0330 C   0  0  0  0  0  0  0  0  0  0  0  0
   39.3370   29.5410   40.6140 C   0  0  2  0  0  0  0  0  0  0  0  0
   38.0740   29.7070   43.6560 H   0  0  0  0  0  0  0  0  0  0  0  0
   39.5880   28.8150   43.3530 H   0  0  0  0  0  0  0  0  0  0  0  0
   39.1890   31.6490   42.3160 H   0  0  0  0  0  0  0  0  0  0  0  0
   39.9140   31.2000   43.8640 H   0  0  0  0  0  0  0  0  0  0  0  0
   41.6770   31.3200   41.9470 H   0  0  0  0  0  0  0  0  0  0  0  0
   41.5770   29.8730   42.9660 H   0  0  0  0  0  0  0  0  0  0  0  0
   41.4000   29.6650   40.1400 H   0  0  0  0  0  0  0  0  0  0  0  0
   40.9740   28.4430   41.3220 H   0  0  0  0  0  0  0  0  0  0  0  0
   39.2390   28.7960   39.7930 H   0  0  0  0  0  0  0  0  0  0  0  0
   36.9830   26.9910   41.4920 C   0  0  1  0  0  0  0  0  0  0  0  0
   37.4230   27.2200   42.8770 C   0  0  0  0  0  0  0  0  0  0  0  0
   38.2680   27.7110   41.7580 C   0  0  2  0  0  0  0  0  0  0  0  0
   36.1410   27.6270   41.1600 H   0  0  0  0  0  0  0  0  0  0  0  0
   37.7980   26.3390   43.4410 H   0  0  0  0  0  0  0  0  0  0  0  0
   36.8880   27.9510   43.5320 H   0  0  0  0  0  0  0  0  0  0  0  0
   39.2130   27.1400   41.5190 H   0  0  0  0  0  0  0  0  0  0  0  0
   36.7330   25.3980   39.5620 C   0  0  0  0  0  0  0  0  0  0  0  0
   37.0520   25.6130   40.9180 C   0  0  0  0  0  0  0  0  0  0  0  0
   37.4380   24.5110   41.7000 C   0  0  0  0  0  0  0  0  0  0  0  0
   37.4820   23.2930   41.0980 N   0  0  0  0  0  0  0  0  0  0  0  0
   37.1690   23.1140   39.7860 C   0  0  0  0  0  0  0  0  0  0  0  0
   36.7910   24.1710   39.0080 N   0  0  0  0  0  0  0  0  0  0  0  0
   36.4350   26.2290   38.9450 H   0  0  0  0  0  0  0  0  0  0  0  0
   37.6850   24.6400   42.7250 H   0  0  0  0  0  0  0  0  0  0  0  0
   37.2160   22.1270   39.3420 H   0  0  0  0  0  0  0  0  0  0  0  0
   38.8800   30.7950   40.1160 N   0  0  0  0  0  0  0  0  0  0  0  0
   37.5000   30.6970   39.7720 C   0  0  0  0  0  2  0  0  0  0  0  0
   37.0290   31.7770   38.8330 C   0  0  0  0  0  2  0  0  0  0  0  0
   37.7240   31.7010   37.4910 C   0  0  0  0  0  3  0  0  0  0  0  0
   37.6960   32.7200   37.0430 H   0  0  0  0  0  0  0  0  0  0  0  0
   39.1240   31.1850   37.6900 C   0  0  0  0  0  2  0  0  0  0  0  0
   39.6320   31.4280   39.1030 C   0  0  0  0  0  2  0  0  0  0  0  0
  1 18  1  0  0  0  0
  1  2  1  1  0  0  0
  2  8  1  0  0  0  0
  2  7  1  0  0  0  0
  3  2  1  0  0  0  0
  3 10  1  0  0  0  0
  4  3  1  0  0  0  0
  4 12  1  0  0  0  0
  5 14  1  0  0  0  0
  5  4  1  0  0  0  0
  6 15  1  6  0  0  0
  6  5  1  0  0  0  0
  6  1  1  0  0  0  0
  9  3  1  0  0  0  0
 11  4  1  0  0  0  0
 13  5  1  0  0  0  0
 16 19  1  6  0  0  0
 16 18  1  0  0  0  0
 16 17  1  0  0  0  0
 17 20  1  0  0  0  0
 17 21  1  0  0  0  0
 18 22  1  6  0  0  0
 18 17  1  0  0  0  0
 23 24  1  0  0  0  0
 24 16  1  0  0  0  0
 24 25  2  0  0  0  0
 25 30  1  0  0  0  0
 26 25  1  0  0  0  0
 27 26  2  0  0  0  0
 28 23  2  0  0  0  0
 28 27  1  0  0  0  0
 29 23  1  0  0  0  0
 31 27  1  0  0  0  0
 32  6  1  0  0  0  0
 33 32  1  0  0  0  0
 34 33  1  0  0  0  0
 35 37  1  0  0  0  0
 35 34  1  0  0  0  0
 36 35  1  0  0  0  0
 37 38  1  0  0  0  0
 38 32  1  0  0  0  0
M  END
>  <minimizedAffinity>
-4.77958298

$$$$

 OpenBabel03252506443D

 38 41  0  0  1  0  0  0  0  0999 V2000
   37.3200   29.8290   39.5560 N   0  0  1  0  0  0  0  0  0  0  0  0
   36.0200   30.0430   38.9200 C   0  0  0  0  0  0  0  0  0  0  0  0
   35.0270   28.9660   39.2500 C   0  0  0  0  0  0  0  0  0  0  0  0
   35.4970   27.7070   38.5370 C   0  0  0  0  0  0  0  0  0  0  0  0
   36.9730   27.5470   38.6710 C   0  0  0  0  0  0  0  0  0  0  0  0
   37.5210   28.4150   39.7720 C   0  0  2  0  0  0  0  0  0  0  0  0
   35.6370   31.0470   39.1390 H   0  0  0  0  0  0  0  0  0  0  0  0
   36.1820   29.9850   37.8140 H   0  0  0  0  0  0  0  0  0  0  0  0
   34.9000   28.8450   40.3290 H   0  0  0  0  0  0  0  0  0  0  0  0
   34.0550   29.2960   38.8430 H   0  0  0  0  0  0  0  0  0  0  0  0
   34.8880   26.8260   38.7930 H   0  0  0  0  0  0  0  0  0  0  0  0
   35.2790   27.9170   37.4520 H   0  0  0  0  0  0  0  0  0  0  0  0
   37.3350   26.5250   38.8280 H   0  0  0  0  0  0  0  0  0  0  0  0
   37.5200   27.8900   37.7450 H   0  0  0  0  0  0  0  0  0  0  0  0
   38.6220   28.2550   39.7760 H   0  0  0  0  0  0  0  0  0  0  0  0
   39.2320   31.5150   39.1810 C   0  0  1  0  0  0  0  0  0  0  0  0
   38.0640   31.8580   38.3540 C   0  0  0  0  0  0  0  0  0  0  0  0
   38.2990   30.4370   38.7220 C   0  0  2  0  0  0  0  0  0  0  0  0
   39.1450   31.7960   40.2470 H   0  0  0  0  0  0  0  0  0  0  0  0
   38.2590   32.1420   37.2970 H   0  0  0  0  0  0  0  0  0  0  0  0
   37.1970   32.4110   38.7920 H   0  0  0  0  0  0  0  0  0  0  0  0
   38.6990   29.7440   37.9250 H   0  0  0  0  0  0  0  0  0  0  0  0
   40.8970   32.5250   37.5910 C   0  0  0  0  0  0  0  0  0  0  0  0
   40.5990   31.5670   38.5800 C   0  0  0  0  0  0  0  0  0  0  0  0
   41.6110   30.6810   38.9850 C   0  0  0  0  0  0  0  0  0  0  0  0
   42.8300   30.8020   38.3940 N   0  0  0  0  0  0  0  0  0  0  0  0
   43.0910   31.7360   37.4400 C   0  0  0  0  0  0  0  0  0  0  0  0
   42.1210   32.6070   37.0320 N   0  0  0  0  0  0  0  0  0  0  0  0
   40.1350   33.2140   37.2670 H   0  0  0  0  0  0  0  0  0  0  0  0
   41.4190   29.9480   39.7290 H   0  0  0  0  0  0  0  0  0  0  0  0
   44.0740   31.8010   36.9910 H   0  0  0  0  0  0  0  0  0  0  0  0
   37.0360   28.1040   41.0740 N   0  0  0  0  0  0  0  0  0  0  0  0
   37.5460   29.0480   42.0120 C   0  0  0  0  0  2  0  0  0  0  0  0
   37.4890   28.5780   43.4430 C   0  0  0  0  0  2  0  0  0  0  0  0
   38.3580   27.3610   43.6720 C   0  0  0  0  0  3  0  0  0  0  0  0
   37.9430   26.8150   44.5480 H   0  0  0  0  0  0  0  0  0  0  0  0
   38.3820   26.5290   42.4180 C   0  0  0  0  0  2  0  0  0  0  0  0
   37.1660   26.7770   41.5390 C   0  0  0  0  0  2  0  0  0  0  0  0
  1  2  1  6  0  0  0
  1  6  1  0  0  0  0
  2  7  1  0  0  0  0
  2  3  1  0  0  0  0
  3  9  1  0  0  0  0
  4  5  1  0  0  0  0
  4 11  1  0  0  0  0
  4  3  1  0  0  0  0
  5 13  1  0  0  0  0
  5  6  1  0  0  0  0
  6 15  1  1  0  0  0
  6 32  1  0  0  0  0
  8  2  1  0  0  0  0
 10  3  1  0  0  0  0
 12  4  1  0  0  0  0
 14  5  1  0  0  0  0
 16 19  1  1  0  0  0
 17 18  1  0  0  0  0
 17 21  1  0  0  0  0
 17 16  1  0  0  0  0
 18 22  1  6  0  0  0
 18 16  1  0  0  0  0
 18  1  1  0  0  0  0
 20 17  1  0  0  0  0
 23 24  1  0  0  0  0
 24 25  2  0  0  0  0
 24 16  1  0  0  0  0
 25 30  1  0  0  0  0
 26 25  1  0  0  0  0
 27 26  2  0  0  0  0
 28 27  1  0  0  0  0
 28 23  2  0  0  0  0
 29 23  1  0  0  0  0
 31 27  1  0  0  0  0
 32 38  1  0  0  0  0
 32 33  1  0  0  0  0
 33 34  1  0  0  0  0
 34 35  1  0  0  0  0
 35 36  1  0  0  0  0
 37 35  1  0  0  0  0
 38 37  1  0  0  0  0
M  END
>  <minimizedAffinity>
-4.76516819

$$$$

 OpenBabel03252506443D

 38 41  0  0  1  0  0  0  0  0999 V2000
   37.2080   28.6910   41.4610 N   0  0  1  0  0  0  0  0  0  0  0  0
   36.5170   27.8710   42.4560 C   0  0  0  0  0  0  0  0  0  0  0  0
   37.4460   27.3140   43.4960 C   0  0  0  0  0  0  0  0  0  0  0  0
   38.3030   26.2680   42.8000 C   0  0  0  0  0  0  0  0  0  0  0  0
   38.7480   26.7570   41.4630 C   0  0  0  0  0  0  0  0  0  0  0  0
   38.5770   28.2480   41.3410 C   0  0  2  0  0  0  0  0  0  0  0  0
   35.6750   28.4170   42.8970 H   0  0  0  0  0  0  0  0  0  0  0  0
   36.0930   26.9880   41.9170 H   0  0  0  0  0  0  0  0  0  0  0  0
   38.0220   28.1000   43.9930 H   0  0  0  0  0  0  0  0  0  0  0  0
   36.8130   26.8400   44.2650 H   0  0  0  0  0  0  0  0  0  0  0  0
   39.0910   25.8630   43.4540 H   0  0  0  0  0  0  0  0  0  0  0  0
   37.5900   25.4130   42.6240 H   0  0  0  0  0  0  0  0  0  0  0  0
   39.7730   26.5050   41.1730 H   0  0  0  0  0  0  0  0  0  0  0  0
   38.1170   26.3340   40.6270 H   0  0  0  0  0  0  0  0  0  0  0  0
   38.9000   28.5150   40.3100 H   0  0  0  0  0  0  0  0  0  0  0  0
   35.9980   29.7950   39.4730 C   0  0  1  0  0  0  0  0  0  0  0  0
   35.0450   29.0610   40.3200 C   0  0  0  0  0  0  0  0  0  0  0  0
   36.4580   28.6050   40.2550 C   0  0  2  0  0  0  0  0  0  0  0  0
   36.3140   30.7770   39.8720 H   0  0  0  0  0  0  0  0  0  0  0  0
   34.2890   28.4310   39.8030 H   0  0  0  0  0  0  0  0  0  0  0  0
   34.6500   29.5170   41.2610 H   0  0  0  0  0  0  0  0  0  0  0  0
   36.6860   27.6760   39.6540 H   0  0  0  0  0  0  0  0  0  0  0  0
   34.7670   29.0880   37.3970 C   0  0  0  0  0  0  0  0  0  0  0  0
   35.9070   29.6700   37.9870 C   0  0  0  0  0  0  0  0  0  0  0  0
   36.9360   30.1300   37.1480 C   0  0  0  0  0  0  0  0  0  0  0  0
   36.7700   29.9860   35.8060 N   0  0  0  0  0  0  0  0  0  0  0  0
   35.6590   29.4190   35.2630 C   0  0  0  0  0  0  0  0  0  0  0  0
   34.6470   28.9650   36.0610 N   0  0  0  0  0  0  0  0  0  0  0  0
   33.9660   28.7290   38.0230 H   0  0  0  0  0  0  0  0  0  0  0  0
   37.8070   30.5750   37.5610 H   0  0  0  0  0  0  0  0  0  0  0  0
   35.5630   29.3200   34.1890 H   0  0  0  0  0  0  0  0  0  0  0  0
   39.3610   29.0140   42.2500 N   0  0  0  0  0  0  0  0  0  0  0  0
   39.0760   30.4000   42.0750 C   0  0  0  0  0  2  0  0  0  0  0  0
   40.1370   31.3150   42.6300 C   0  0  0  0  0  2  0  0  0  0  0  0
   41.4600   31.1430   41.9160 C   0  0  0  0  0  3  0  0  0  0  0  0
   42.2620   31.4640   42.6180 H   0  0  0  0  0  0  0  0  0  0  0  0
   41.6010   29.7090   41.4790 C   0  0  0  0  0  2  0  0  0  0  0  0
   40.7490   28.7660   42.3130 C   0  0  0  0  0  2  0  0  0  0  0  0
  1  2  1  1  0  0  0
  2  7  1  0  0  0  0
  2  3  1  0  0  0  0
  3  9  1  0  0  0  0
  3 10  1  0  0  0  0
  4 11  1  0  0  0  0
  4  3  1  0  0  0  0
  5  4  1  0  0  0  0
  6 15  1  6  0  0  0
  6  1  1  0  0  0  0
  6  5  1  0  0  0  0
  6 32  1  0  0  0  0
  8  2  1  0  0  0  0
 12  4  1  0  0  0  0
 13  5  1  0  0  0  0
 14  5  1  0  0  0  0
 16 19  1  1  0  0  0
 16 18  1  0  0  0  0
 16 17  1  0  0  0  0
 17 21  1  0  0  0  0
 18 22  1  6  0  0  0
 18 17  1  0  0  0  0
 18  1  1  0  0  0  0
 20 17  1  0  0  0  0
 23 24  1  0  0  0  0
 23 29  1  0  0  0  0
 24 16  1  0  0  0  0
 25 30  1  0  0  0  0
 25 24  2  0  0  0  0
 26 25  1  0  0  0  0
 27 26  2  0  0  0  0
 27 28  1  0  0  0  0
 28 23  2  0  0  0  0
 31 27  1  0  0  0  0
 32 38  1  0  0  0  0
 33 32  1  0  0  0  0
 33 34  1  0  0  0  0
 35 36  1  0  0  0  0
 35 34  1  0  0  0  0
 37 35  1  0  0  0  0
 37 38  1  0  0  0  0
M  END
>  <minimizedAffinity>
-4.75235891

$$$$

 OpenBabel03252506443D

 38 41  0  0  1  0  0  0  0  0999 V2000
   37.5170   29.8020   38.8430 N   0  0  1  0  0  0  0  0  0  0  0  0
   38.5160   30.8530   38.6450 C   0  0  0  0  0  0  0  0  0  0  0  0
   39.1800   31.2710   39.9240 C   0  0  0  0  0  0  0  0  0  0  0  0
   38.1320   32.0140   40.7380 C   0  0  0  0  0  0  0  0  0  0  0  0
   36.8200   31.3080   40.6750 C   0  0  0  0  0  0  0  0  0  0  0  0
   36.9820   29.8950   40.1810 C   0  0  2  0  0  0  0  0  0  0  0  0
   39.2380   30.5660   37.8720 H   0  0  0  0  0  0  0  0  0  0  0  0
   37.9710   31.7560   38.2710 H   0  0  0  0  0  0  0  0  0  0  0  0
   39.6300   30.4230   40.4480 H   0  0  0  0  0  0  0  0  0  0  0  0
   40.0020   31.9540   39.6460 H   0  0  0  0  0  0  0  0  0  0  0  0
   38.4900   32.2820   41.7450 H   0  0  0  0  0  0  0  0  0  0  0  0
   38.0140   32.9930   40.1920 H   0  0  0  0  0  0  0  0  0  0  0  0
   36.2400   31.2820   41.6040 H   0  0  0  0  0  0  0  0  0  0  0  0
   36.1190   31.7870   39.9300 H   0  0  0  0  0  0  0  0  0  0  0  0
   35.9580   29.4620   40.1360 H   0  0  0  0  0  0  0  0  0  0  0  0
   35.8700   28.7950   37.1370 C   0  0  1  0  0  0  0  0  0  0  0  0
   36.9560   29.5140   36.4520 C   0  0  0  0  0  0  0  0  0  0  0  0
   36.5470   29.9470   37.8130 C   0  0  2  0  0  0  0  0  0  0  0  0
   36.1430   27.7940   37.5180 H   0  0  0  0  0  0  0  0  0  0  0  0
   36.6700   30.1760   35.6070 H   0  0  0  0  0  0  0  0  0  0  0  0
   37.9520   29.0300   36.2980 H   0  0  0  0  0  0  0  0  0  0  0  0
   35.9380   30.8940   37.9060 H   0  0  0  0  0  0  0  0  0  0  0  0
   34.1890   29.1650   35.3040 C   0  0  0  0  0  0  0  0  0  0  0  0
   34.4610   28.9780   36.6740 C   0  0  0  0  0  0  0  0  0  0  0  0
   33.3850   28.9620   37.5770 C   0  0  0  0  0  0  0  0  0  0  0  0
   32.1340   29.1280   37.0720 N   0  0  0  0  0  0  0  0  0  0  0  0
   31.8990   29.3070   35.7430 C   0  0  0  0  0  0  0  0  0  0  0  0
   32.9310   29.3260   34.8490 N   0  0  0  0  0  0  0  0  0  0  0  0
   35.0000   29.1810   34.5950 H   0  0  0  0  0  0  0  0  0  0  0  0
   33.5560   28.8220   38.6160 H   0  0  0  0  0  0  0  0  0  0  0  0
   30.8880   29.4360   35.3780 H   0  0  0  0  0  0  0  0  0  0  0  0
   37.7680   29.0560   41.0220 N   0  0  0  0  0  0  0  0  0  0  0  0
   37.8900   27.7660   40.4280 C   0  0  0  0  0  2  0  0  0  0  0  0
   38.2900   26.6840   41.3980 C   0  0  0  0  0  2  0  0  0  0  0  0
   37.2430   26.4720   42.4700 C   0  0  0  0  0  3  0  0  0  0  0  0
   37.7570   26.0400   43.3570 H   0  0  0  0  0  0  0  0  0  0  0  0
   36.5660   27.7840   42.7640 C   0  0  0  0  0  2  0  0  0  0  0  0
   37.4340   28.9760   42.3910 C   0  0  0  0  0  2  0  0  0  0  0  0
  1  2  1  6  0  0  0
  1  6  1  0  0  0  0
  2  3  1  0  0  0  0
  3  9  1  0  0  0  0
  3  4  1  0  0  0  0
  4 11  1  0  0  0  0
  5  4  1  0  0  0  0
  5 13  1  0  0  0  0
  6 15  1  6  0  0  0
  6  5  1  0  0  0  0
  6 32  1  0  0  0  0
  7  2  1  0  0  0  0
  8  2  1  0  0  0  0
 10  3  1  0  0  0  0
 12  4  1  0  0  0  0
 14  5  1  0  0  0  0
 16 19  1  1  0  0  0
 16 18  1  0  0  0  0
 17 16  1  0  0  0  0
 17 18  1  0  0  0  0
 18 22  1  1  0  0  0
 18  1  1  0  0  0  0
 20 17  1  0  0  0  0
 21 17  1  0  0  0  0
 23 24  1  0  0  0  0
 24 16  1  0  0  0  0
 24 25  2  0  0  0  0
 25 30  1  0  0  0  0
 26 25  1  0  0  0  0
 27 26  2  0  0  0  0
 28 23  2  0  0  0  0
 28 27  1  0  0  0  0
 29 23  1  0  0  0  0
 31 27  1  0  0  0  0
 32 38  1  0  0  0  0
 33 32  1  0  0  0  0
 33 34  1  0  0  0  0
 34 35  1  0  0  0  0
 35 37  1  0  0  0  0
 35 36  1  0  0  0  0
 38 37  1  0  0  0  0
M  END
>  <minimizedAffinity>
-4.72959566

$$$$
