
 OpenBabel03242520073D

 47 51  0  0  1  0  0  0  0  0999 V2000
   47.0010   29.2640   46.3320 N   0  0  0  0  0  0  0  0  0  0  0  0
   46.4080   28.9670   45.0880 C   0  0  1  0  0  0  0  0  0  0  0  0
   45.0990   28.2870   45.3420 C   0  0  0  0  0  0  0  0  0  0  0  0
   44.2730   29.2770   45.9880 N   0  0  0  0  0  0  0  0  0  0  0  0
   44.7500   29.6160   47.3120 C   0  0  0  0  0  0  0  0  0  0  0  0
   46.2490   29.7450   47.4170 C   0  0  2  0  0  0  0  0  0  0  0  0
   47.6890   28.5070   46.5670 H   0  0  0  0  0  0  0  0  0  0  0  0
   47.0390   28.2950   44.5100 H   0  0  0  0  0  0  0  0  0  0  0  0
   45.2010   27.4380   46.0780 H   0  0  0  0  0  0  0  0  0  0  0  0
   44.5860   27.9360   44.4480 H   0  0  0  0  0  0  0  0  0  0  0  0
   44.0350   30.0830   45.3980 H   0  0  0  0  0  0  0  0  0  0  0  0
   44.3130   28.8460   47.9800 H   0  0  0  0  0  0  0  0  0  0  0  0
   44.2160   30.5620   47.5750 H   0  0  0  0  0  0  0  0  0  0  0  0
   46.5240   29.0980   48.2950 H   0  0  0  0  0  0  0  0  0  0  0  0
   45.6740   32.2020   43.8460 C   0  0  0  0  0  0  0  0  0  0  0  0
   45.8240   31.5220   42.6490 C   0  0  0  0  0  0  0  0  0  0  0  0
   46.1160   30.2300   42.9430 C   0  0  0  0  0  0  0  0  0  0  0  0
   46.1450   30.1230   44.2950 N   0  0  0  0  0  0  0  0  0  0  0  0
   45.8770   31.3180   44.8140 N   0  0  0  0  0  0  0  0  0  0  0  0
   45.7300   31.9270   41.6530 H   0  0  0  0  0  0  0  0  0  0  0  0
   46.3060   29.3780   42.3140 H   0  0  0  0  0  0  0  0  0  0  0  0
   44.7670   35.4460   45.3070 C   0  0  0  0  0  0  0  0  0  0  0  0
   44.7640   36.3030   44.2020 C   0  0  0  0  0  0  0  0  0  0  0  0
   45.0720   35.7570   42.9810 C   0  0  0  0  0  0  0  0  0  0  0  0
   45.3610   34.4230   42.9110 N   0  0  0  0  0  0  0  0  0  0  0  0
   45.3540   33.6250   43.9960 C   0  0  0  0  0  0  0  0  0  0  0  0
   45.0540   34.1330   45.2170 N   0  0  0  0  0  0  0  0  0  0  0  0
   44.5160   35.9410   46.2370 H   0  0  0  0  0  0  0  0  0  0  0  0
   44.5420   37.3440   44.2440 H   0  0  0  0  0  0  0  0  0  0  0  0
   45.1110   36.2910   42.0420 H   0  0  0  0  0  0  0  0  0  0  0  0
   46.5430   31.1900   47.7580 C   0  0  1  0  0  0  0  0  0  0  0  0
   46.2570   31.5730   49.2160 C   0  0  0  0  0  0  0  0  0  0  0  0
   47.6260   31.5870   48.6620 C   0  0  1  0  0  0  0  0  0  0  0  0
   46.1700   31.9910   47.0530 H   0  0  0  0  0  0  0  0  0  0  0  0
   46.0170   30.7310   49.9060 H   0  0  0  0  0  0  0  0  0  0  0  0
   45.7210   32.5130   49.4380 H   0  0  0  0  0  0  0  0  0  0  0  0
   48.0620   32.6110   48.5250 H   0  0  0  0  0  0  0  0  0  0  0  0
   48.6630   30.5540   49.1020 C   0  0  0  0  0  0  0  0  0  0  0  0
   48.0920   29.7990   49.6790 H   0  0  0  0  0  0  0  0  0  0  0  0
   49.2010   30.1340   48.2190 H   0  0  0  0  0  0  0  0  0  0  0  0
   49.6410   31.0960   49.9660 N   0  0  0  0  0  0  0  0  0  0  0  0
   50.2370   30.2990   50.9470 C   0  0  0  0  0  0  0  0  0  0  0  0
   51.7420   30.2180   50.7690 C   0  0  0  0  0  0  0  0  0  0  0  0
   52.2630   31.6310   50.9270 C   0  0  0  0  0  0  0  0  0  0  0  0
   53.3750   31.6600   50.7590 H   0  0  0  0  0  0  0  0  0  0  0  0
   51.6550   32.5080   49.8860 C   0  0  0  0  0  0  0  0  0  0  0  0
   50.1740   32.3630   49.7020 C   0  0  0  0  0  0  0  0  0  0  0  0
  1  7  1  0  0  0  0
  1  6  1  0  0  0  0
  2  8  1  6  0  0  0
  2  3  1  0  0  0  0
  2  1  1  0  0  0  0
  3  4  1  0  0  0  0
  3  9  1  0  0  0  0
  4  5  1  0  0  0  0
  5  6  1  0  0  0  0
  5 13  1  0  0  0  0
  5 12  1  0  0  0  0
  6 31  1  0  0  0  0
  6 14  1  1  0  0  0
 10  3  1  0  0  0  0
 11  4  1  0  0  0  0
 15 26  1  0  0  0  0
 15 19  2  0  0  0  0
 16 17  2  0  0  0  0
 16 15  1  0  0  0  0
 17 18  1  0  0  0  0
 18 19  1  0  0  0  0
 18  2  1  0  0  0  0
 20 16  1  0  0  0  0
 21 17  1  0  0  0  0
 22 28  1  0  0  0  0
 23 29  1  0  0  0  0
 23 22  2  0  0  0  0
 24 23  1  0  0  0  0
 25 24  2  0  0  0  0
 25 26  1  0  0  0  0
 26 27  2  0  0  0  0
 27 22  1  0  0  0  0
 30 24  1  0  0  0  0
 31 34  1  6  0  0  0
 31 33  1  0  0  0  0
 31 32  1  0  0  0  0
 32 36  1  0  0  0  0
 32 35  1  0  0  0  0
 33 37  1  6  0  0  0
 33 38  1  0  0  0  0
 33 32  1  0  0  0  0
 38 39  1  0  0  0  0
 38 41  1  0  0  0  0
 40 38  1  0  0  0  0
 41 42  1  0  0  0  0
 43 44  1  0  0  0  0
 43 42  1  0  0  0  0
 45 44  1  0  0  0  0
 46 44  1  0  0  0  0
 47 46  1  0  0  0  0
 47 41  1  0  0  0  0
M  END
>  <minimizedAffinity>
-5.45914745

>  <minimizedRMSD>
1.48298097

$$$$
