
 OpenBabel03252508113D

 45 48  0  0  0  0  0  0  0  0999 V2000
   37.3710   29.8560   37.2830 C   0  0  0  0  0  0  0  0  0  0  0  0
   37.6900   29.4080   38.5500 C   0  0  0  0  0  0  0  0  0  0  0  0
   36.7370   28.8850   39.3740 C   0  0  0  0  0  0  0  0  0  0  0  0
   35.4460   28.8350   38.8580 N   0  0  0  0  0  0  0  0  0  0  0  0
   35.1360   29.2630   37.6470 C   0  0  0  0  0  0  0  0  0  0  0  0
   36.1130   29.7750   36.8640 N   0  0  0  0  0  0  0  0  0  0  0  0
   38.1030   30.2750   36.6100 H   0  0  0  0  0  0  0  0  0  0  0  0
   34.1130   29.2050   37.2850 H   0  0  0  0  0  0  0  0  0  0  0  0
   36.8820   28.3920   40.6830 C   0  0  0  0  0  0  0  0  0  0  0  0
   37.0880   29.2360   41.7930 C   0  0  0  0  0  0  0  0  0  0  0  0
   37.2880   28.7880   43.0710 C   0  0  0  0  0  0  0  0  0  0  0  0
   37.2920   27.4290   43.3250 C   0  0  0  0  0  0  0  0  0  0  0  0
   37.0820   26.5530   42.2090 C   0  0  0  0  0  0  0  0  0  0  0  0
   37.0880   25.2120   42.4480 C   0  0  0  0  0  0  0  0  0  0  0  0
   36.8900   24.3220   41.4170 C   0  0  0  0  0  0  0  0  0  0  0  0
   36.6810   24.8110   40.1140 C   0  0  0  0  0  0  0  0  0  0  0  0
   36.6870   26.2110   39.9310 C   0  0  0  0  0  0  0  0  0  0  0  0
   36.8890   27.0620   40.9690 C   0  0  0  0  0  0  0  0  0  0  0  0
   37.0930   30.3050   41.6390 H   0  0  0  0  0  0  0  0  0  0  0  0
   37.4400   29.4610   43.8800 H   0  0  0  0  0  0  0  0  0  0  0  0
   37.4430   27.0050   44.2980 H   0  0  0  0  0  0  0  0  0  0  0  0
   37.2490   24.8470   43.4640 H   0  0  0  0  0  0  0  0  0  0  0  0
   36.9090   23.2740   41.6800 H   0  0  0  0  0  0  0  0  0  0  0  0
   36.5390   24.0320   39.4050 H   0  0  0  0  0  0  0  0  0  0  0  0
   36.4880   26.3560   38.8890 H   0  0  0  0  0  0  0  0  0  0  0  0
   38.9970   29.5080   38.9330 O   0  0  0  0  0  0  0  0  0  0  0  0
   38.7430   31.9830   39.7640 O   0  0  0  0  0  0  0  0  0  0  0  0
   39.7060   30.8420   39.6540 P   0  0  1  0  0  0  0  0  0  0  0  0
   40.2610   30.5100   41.2110 O   0  0  0  0  0  0  0  0  0  0  0  0
   41.1030   29.3960   41.0830 C   0  0  0  0  0  0  0  0  0  0  0  0
   41.2400   29.1560   40.0040 H   0  0  0  0  0  0  0  0  0  0  0  0
   42.0930   29.7180   41.4600 H   0  0  0  0  0  0  0  0  0  0  0  0
   40.6320   28.2430   41.8300 N   0  0  0  0  0  0  0  0  0  0  0  0
   41.1560   27.0920   41.0740 C   0  0  0  0  0  2  0  0  0  0  0  0
   40.6570   25.7930   41.6610 C   0  0  0  0  0  2  0  0  0  0  0  0
   40.5830   25.9180   43.1610 C   0  0  0  0  0  3  0  0  0  0  0  0
   40.8840   24.9440   43.6350 H   0  0  0  0  0  0  0  0  0  0  0  0
   41.5870   26.9280   43.6680 C   0  0  0  0  0  2  0  0  0  0  0  0
   41.3760   28.2920   43.1000 C   0  0  0  0  0  2  0  0  0  0  0  0
   41.0150   31.3210   38.7000 O   0  0  0  0  0  0  0  0  0  0  0  0
   41.0200   31.5900   37.3490 C   0  0  0  0  0  0  0  0  0  0  0  0
   42.0870   31.1740   36.9180 O   0  0  0  0  0  0  0  0  0  0  0  0
   39.8140   32.2380   36.9430 N   0  0  0  0  0  0  0  0  0  0  0  0
   38.8340   31.8230   36.8790 H   0  0  0  0  0  0  0  0  0  0  0  0
   39.3480   33.1070   36.5980 H   0  0  0  0  0  0  0  0  0  0  0  0
  1  2  1  0  0  0  0
  2 26  1  0  0  0  0
  2  3  2  0  0  0  0
  3  9  1  0  0  0  0
  4  3  1  0  0  0  0
  5  4  2  0  0  0  0
  6  1  2  0  0  0  0
  6  5  1  0  0  0  0
  7  1  1  0  0  0  0
  8  5  1  0  0  0  0
  9 18  2  0  0  0  0
  9 10  1  0  0  0  0
 10 11  2  0  0  0  0
 11 12  1  0  0  0  0
 11 20  1  0  0  0  0
 12 21  1  0  0  0  0
 13 14  1  0  0  0  0
 13 12  2  0  0  0  0
 14 22  1  0  0  0  0
 15 23  1  0  0  0  0
 15 14  2  0  0  0  0
 16 15  1  0  0  0  0
 17 16  2  0  0  0  0
 17 18  1  0  0  0  0
 18 13  1  0  0  0  0
 19 10  1  0  0  0  0
 24 16  1  0  0  0  0
 25 17  1  0  0  0  0
 26 28  1  0  0  0  0
 28 27  2  1  0  0  0
 28 29  1  0  0  0  0
 30 29  1  0  0  0  0
 30 32  1  0  0  0  0
 30 33  1  0  0  0  0
 31 30  1  0  0  0  0
 33 39  1  0  0  0  0
 34 35  1  0  0  0  0
 34 33  1  0  0  0  0
 35 36  1  0  0  0  0
 36 37  1  0  0  0  0
 36 38  1  0  0  0  0
 39 38  1  0  0  0  0
 40 28  1  0  0  0  0
 41 40  1  0  0  0  0
 42 41  2  0  0  0  0
 43 41  1  0  0  0  0
 44 43  1  0  0  0  0
 45 43  1  0  0  0  0
M  END
>  <minimizedAffinity>
-5.99637413

$$$$

 OpenBabel03252508113D

 45 48  0  0  0  0  0  0  0  0999 V2000
   37.2030   29.7390   37.4290 C   0  0  0  0  0  0  0  0  0  0  0  0
   37.5010   29.1820   38.6570 C   0  0  0  0  0  0  0  0  0  0  0  0
   36.5450   28.5450   39.3930 C   0  0  0  0  0  0  0  0  0  0  0  0
   35.2740   28.4950   38.8290 N   0  0  0  0  0  0  0  0  0  0  0  0
   34.9850   29.0270   37.6550 C   0  0  0  0  0  0  0  0  0  0  0  0
   35.9630   29.6500   36.9590 N   0  0  0  0  0  0  0  0  0  0  0  0
   37.9370   30.2500   36.8250 H   0  0  0  0  0  0  0  0  0  0  0  0
   33.9770   28.9640   37.2530 H   0  0  0  0  0  0  0  0  0  0  0  0
   36.6700   27.9320   40.6530 C   0  0  0  0  0  0  0  0  0  0  0  0
   36.6930   28.6670   41.8540 C   0  0  0  0  0  0  0  0  0  0  0  0
   36.8680   28.1100   43.0920 C   0  0  0  0  0  0  0  0  0  0  0  0
   37.0340   26.7410   43.2070 C   0  0  0  0  0  0  0  0  0  0  0  0
   37.0100   25.9740   41.9960 C   0  0  0  0  0  0  0  0  0  0  0  0
   37.1770   24.6260   42.0980 C   0  0  0  0  0  0  0  0  0  0  0  0
   37.1620   23.8380   40.9690 C   0  0  0  0  0  0  0  0  0  0  0  0
   36.9740   24.4380   39.7110 C   0  0  0  0  0  0  0  0  0  0  0  0
   36.8090   25.8400   39.6710 C   0  0  0  0  0  0  0  0  0  0  0  0
   36.8320   26.5900   40.8020 C   0  0  0  0  0  0  0  0  0  0  0  0
   36.5680   29.7390   41.8100 H   0  0  0  0  0  0  0  0  0  0  0  0
   36.8790   28.7030   43.9740 H   0  0  0  0  0  0  0  0  0  0  0  0
   37.1760   26.2350   44.1410 H   0  0  0  0  0  0  0  0  0  0  0  0
   37.3190   24.1740   43.0810 H   0  0  0  0  0  0  0  0  0  0  0  0
   37.3010   22.7780   41.1260 H   0  0  0  0  0  0  0  0  0  0  0  0
   36.9810   23.7310   38.9180 H   0  0  0  0  0  0  0  0  0  0  0  0
   36.6600   26.0730   38.6370 H   0  0  0  0  0  0  0  0  0  0  0  0
   38.7900   29.2950   39.0930 O   0  0  0  0  0  0  0  0  0  0  0  0
   39.9040   30.1720   41.2990 O   0  0  0  0  0  0  0  0  0  0  0  0
   39.4250   30.5890   39.9430 P   0  0  1  0  0  0  0  0  0  0  0  0
   40.7330   31.2970   39.1510 O   0  0  0  0  0  0  0  0  0  0  0  0
   40.7050   30.7890   37.8440 C   0  0  0  0  0  0  0  0  0  0  0  0
   39.7810   30.1840   37.7010 H   0  0  0  0  0  0  0  0  0  0  0  0
   40.6090   31.6680   37.1780 H   0  0  0  0  0  0  0  0  0  0  0  0
   41.8970   30.0300   37.5070 N   0  0  0  0  0  0  0  0  0  0  0  0
   41.3730   28.8240   36.8440 C   0  0  0  0  0  2  0  0  0  0  0  0
   42.4900   27.8600   36.5240 C   0  0  0  0  0  2  0  0  0  0  0  0
   43.7210   28.6350   36.1280 C   0  0  0  0  0  3  0  0  0  0  0  0
   44.2620   28.0890   35.3070 H   0  0  0  0  0  0  0  0  0  0  0  0
   43.3480   29.9720   35.5290 C   0  0  0  0  0  2  0  0  0  0  0  0
   42.5670   30.8300   36.4690 C   0  0  0  0  0  2  0  0  0  0  0  0
   38.2070   31.7460   40.1250 O   0  0  0  0  0  0  0  0  0  0  0  0
   38.3540   33.0900   40.3900 C   0  0  0  0  0  0  0  0  0  0  0  0
   37.4440   33.6590   39.8010 O   0  0  0  0  0  0  0  0  0  0  0  0
   39.4800   33.3350   41.2320 N   0  0  0  0  0  0  0  0  0  0  0  0
   39.5930   33.0970   42.2650 H   0  0  0  0  0  0  0  0  0  0  0  0
   40.4420   33.7300   41.3330 H   0  0  0  0  0  0  0  0  0  0  0  0
  1  2  1  0  0  0  0
  2 26  1  0  0  0  0
  2  3  2  0  0  0  0
  3  9  1  0  0  0  0
  4  3  1  0  0  0  0
  5  4  2  0  0  0  0
  6  1  2  0  0  0  0
  6  5  1  0  0  0  0
  7  1  1  0  0  0  0
  8  5  1  0  0  0  0
  9 18  2  0  0  0  0
  9 10  1  0  0  0  0
 10 11  2  0  0  0  0
 11 12  1  0  0  0  0
 11 20  1  0  0  0  0
 12 21  1  0  0  0  0
 13 14  1  0  0  0  0
 13 12  2  0  0  0  0
 14 22  1  0  0  0  0
 15 23  1  0  0  0  0
 15 14  2  0  0  0  0
 16 15  1  0  0  0  0
 17 16  2  0  0  0  0
 17 18  1  0  0  0  0
 18 13  1  0  0  0  0
 19 10  1  0  0  0  0
 24 16  1  0  0  0  0
 25 17  1  0  0  0  0
 26 28  1  0  0  0  0
 28 40  1  0  0  0  0
 28 27  2  1  0  0  0
 29 28  1  0  0  0  0
 30 29  1  0  0  0  0
 31 30  1  0  0  0  0
 32 30  1  0  0  0  0
 33 30  1  0  0  0  0
 34 33  1  0  0  0  0
 35 34  1  0  0  0  0
 36 35  1  0  0  0  0
 37 36  1  0  0  0  0
 38 36  1  0  0  0  0
 38 39  1  0  0  0  0
 39 33  1  0  0  0  0
 40 41  1  0  0  0  0
 41 43  1  0  0  0  0
 42 41  2  0  0  0  0
 43 45  1  0  0  0  0
 43 44  1  0  0  0  0
M  END
>  <minimizedAffinity>
-5.94013739

$$$$

 OpenBabel03252508113D

 45 48  0  0  0  0  0  0  0  0999 V2000
   40.2370   33.0810   39.7290 C   0  0  0  0  0  0  0  0  0  0  0  0
   39.6450   31.8350   39.6830 C   0  0  0  0  0  0  0  0  0  0  0  0
   38.2990   31.6870   39.8500 C   0  0  0  0  0  0  0  0  0  0  0  0
   37.5790   32.8580   40.0620 N   0  0  0  0  0  0  0  0  0  0  0  0
   38.1420   34.0530   40.1060 C   0  0  0  0  0  0  0  0  0  0  0  0
   39.4800   34.1530   39.9370 N   0  0  0  0  0  0  0  0  0  0  0  0
   41.2990   33.2280   39.6020 H   0  0  0  0  0  0  0  0  0  0  0  0
   37.5400   34.9420   40.2740 H   0  0  0  0  0  0  0  0  0  0  0  0
   37.5370   30.5050   39.8400 C   0  0  0  0  0  0  0  0  0  0  0  0
   36.7900   30.0930   38.7180 C   0  0  0  0  0  0  0  0  0  0  0  0
   35.9950   28.9790   38.6920 C   0  0  0  0  0  0  0  0  0  0  0  0
   35.8970   28.1850   39.8200 C   0  0  0  0  0  0  0  0  0  0  0  0
   36.6510   28.5850   40.9720 C   0  0  0  0  0  0  0  0  0  0  0  0
   36.5580   27.8110   42.0890 C   0  0  0  0  0  0  0  0  0  0  0  0
   37.2600   28.1450   43.2250 C   0  0  0  0  0  0  0  0  0  0  0  0
   38.0740   29.2920   43.2200 C   0  0  0  0  0  0  0  0  0  0  0  0
   38.1280   30.0530   42.0330 C   0  0  0  0  0  0  0  0  0  0  0  0
   37.4200   29.6990   40.9290 C   0  0  0  0  0  0  0  0  0  0  0  0
   36.8370   30.6860   37.8170 H   0  0  0  0  0  0  0  0  0  0  0  0
   35.4470   28.7050   37.8230 H   0  0  0  0  0  0  0  0  0  0  0  0
   35.2950   27.2990   39.8740 H   0  0  0  0  0  0  0  0  0  0  0  0
   35.9240   26.9230   42.0770 H   0  0  0  0  0  0  0  0  0  0  0  0
   37.1380   27.4860   44.0720 H   0  0  0  0  0  0  0  0  0  0  0  0
   38.5660   29.4460   44.1500 H   0  0  0  0  0  0  0  0  0  0  0  0
   38.8120   30.8500   42.2430 H   0  0  0  0  0  0  0  0  0  0  0  0
   40.4650   30.7650   39.4620 O   0  0  0  0  0  0  0  0  0  0  0  0
   41.1360   28.6640   40.8810 O   0  0  0  0  0  0  0  0  0  0  0  0
   41.5070   30.0830   40.5790 P   0  0  1  0  0  0  0  0  0  0  0  0
   43.1050   30.0740   40.0440 O   0  0  0  0  0  0  0  0  0  0  0  0
   43.1500   30.9740   38.9690 C   0  0  0  0  0  0  0  0  0  0  0  0
   42.1140   31.2850   38.7020 H   0  0  0  0  0  0  0  0  0  0  0  0
   43.6600   31.8790   39.3510 H   0  0  0  0  0  0  0  0  0  0  0  0
   43.8610   30.4430   37.8180 N   0  0  0  0  0  0  0  0  0  0  0  0
   42.9130   30.6200   36.7040 C   0  0  0  0  0  2  0  0  0  0  0  0
   43.4580   30.0110   35.4350 C   0  0  0  0  0  2  0  0  0  0  0  0
   44.9500   30.2180   35.3800 C   0  0  0  0  0  3  0  0  0  0  0  0
   45.2630   30.4220   34.3200 H   0  0  0  0  0  0  0  0  0  0  0  0
   45.3500   31.4560   36.1520 C   0  0  0  0  0  2  0  0  0  0  0  0
   44.9640   31.3910   37.5920 C   0  0  0  0  0  2  0  0  0  0  0  0
   41.4150   30.9880   42.0030 O   0  0  0  0  0  0  0  0  0  0  0  0
   42.4450   31.3310   42.8520 C   0  0  0  0  0  0  0  0  0  0  0  0
   42.7210   30.3210   43.4850 O   0  0  0  0  0  0  0  0  0  0  0  0
   42.8130   32.7010   42.6950 N   0  0  0  0  0  0  0  0  0  0  0  0
   43.3120   33.1580   41.8710 H   0  0  0  0  0  0  0  0  0  0  0  0
   42.8380   33.6640   43.1000 H   0  0  0  0  0  0  0  0  0  0  0  0
  1  6  1  0  0  0  0
  2  1  2  0  0  0  0
  2  3  1  0  0  0  0
  3  4  2  0  0  0  0
  4  5  1  0  0  0  0
  5  8  1  0  0  0  0
  6  5  2  0  0  0  0
  7  1  1  0  0  0  0
  9  3  1  0  0  0  0
  9 18  1  0  0  0  0
 10  9  2  0  0  0  0
 11 10  1  0  0  0  0
 11 12  2  0  0  0  0
 12 21  1  0  0  0  0
 12 13  1  0  0  0  0
 13 14  1  0  0  0  0
 14 15  2  0  0  0  0
 15 23  1  0  0  0  0
 16 15  1  0  0  0  0
 16 24  1  0  0  0  0
 17 25  1  0  0  0  0
 17 16  2  0  0  0  0
 18 13  2  0  0  0  0
 18 17  1  0  0  0  0
 19 10  1  0  0  0  0
 20 11  1  0  0  0  0
 22 14  1  0  0  0  0
 26  2  1  0  0  0  0
 26 28  1  0  0  0  0
 28 27  2  1  0  0  0
 28 40  1  0  0  0  0
 29 28  1  0  0  0  0
 30 32  1  0  0  0  0
 30 29  1  0  0  0  0
 31 30  1  0  0  0  0
 33 30  1  0  0  0  0
 34 33  1  0  0  0  0
 35 34  1  0  0  0  0
 36 35  1  0  0  0  0
 36 38  1  0  0  0  0
 37 36  1  0  0  0  0
 38 39  1  0  0  0  0
 39 33  1  0  0  0  0
 40 41  1  0  0  0  0
 41 42  2  0  0  0  0
 43 41  1  0  0  0  0
 43 45  1  0  0  0  0
 44 43  1  0  0  0  0
M  END
>  <minimizedAffinity>
-5.7213788

$$$$

 OpenBabel03252508113D

 45 48  0  0  0  0  0  0  0  0999 V2000
   40.5220   32.4060   39.2310 C   0  0  0  0  0  0  0  0  0  0  0  0
   39.6150   31.3660   39.2820 C   0  0  0  0  0  0  0  0  0  0  0  0
   38.4730   31.4610   40.0230 C   0  0  0  0  0  0  0  0  0  0  0  0
   38.2890   32.6570   40.7080 N   0  0  0  0  0  0  0  0  0  0  0  0
   39.1540   33.6550   40.6620 C   0  0  0  0  0  0  0  0  0  0  0  0
   40.2740   33.5170   39.9160 N   0  0  0  0  0  0  0  0  0  0  0  0
   41.4330   32.3590   38.6550 H   0  0  0  0  0  0  0  0  0  0  0  0
   38.9690   34.5730   41.2140 H   0  0  0  0  0  0  0  0  0  0  0  0
   37.4540   30.5070   40.1920 C   0  0  0  0  0  0  0  0  0  0  0  0
   36.3860   30.3690   39.2830 C   0  0  0  0  0  0  0  0  0  0  0  0
   35.3490   29.4890   39.4440 C   0  0  0  0  0  0  0  0  0  0  0  0
   35.3170   28.6700   40.5570 C   0  0  0  0  0  0  0  0  0  0  0  0
   36.3960   28.7930   41.4940 C   0  0  0  0  0  0  0  0  0  0  0  0
   36.3720   27.9920   42.5960 C   0  0  0  0  0  0  0  0  0  0  0  0
   37.3810   28.0650   43.5290 C   0  0  0  0  0  0  0  0  0  0  0  0
   38.4370   28.9740   43.3330 C   0  0  0  0  0  0  0  0  0  0  0  0
   38.4040   29.7760   42.1720 C   0  0  0  0  0  0  0  0  0  0  0  0
   37.3930   29.6830   41.2720 C   0  0  0  0  0  0  0  0  0  0  0  0
   36.3720   30.9900   38.4000 H   0  0  0  0  0  0  0  0  0  0  0  0
   34.5630   29.4180   38.7320 H   0  0  0  0  0  0  0  0  0  0  0  0
   34.5390   27.9590   40.7510 H   0  0  0  0  0  0  0  0  0  0  0  0
   35.5470   27.2910   42.7330 H   0  0  0  0  0  0  0  0  0  0  0  0
   37.2950   27.4020   44.3770 H   0  0  0  0  0  0  0  0  0  0  0  0
   39.1540   28.9390   44.1170 H   0  0  0  0  0  0  0  0  0  0  0  0
   39.2990   30.3630   42.2150 H   0  0  0  0  0  0  0  0  0  0  0  0
   39.9130   30.2470   38.5570 O   0  0  0  0  0  0  0  0  0  0  0  0
   41.3060   29.1570   40.4930 O   0  0  0  0  0  0  0  0  0  0  0  0
   40.8440   28.9600   39.0820 P   0  0  1  0  0  0  0  0  0  0  0  0
   40.0050   27.4990   39.0340 O   0  0  0  0  0  0  0  0  0  0  0  0
   40.2080   26.9050   40.2880 C   0  0  0  0  0  0  0  0  0  0  0  0
   41.0060   26.1310   40.2070 H   0  0  0  0  0  0  0  0  0  0  0  0
   40.6120   27.7020   40.9410 H   0  0  0  0  0  0  0  0  0  0  0  0
   38.9890   26.3560   40.8570 N   0  0  0  0  0  0  0  0  0  0  0  0
   38.2640   25.8220   39.6920 C   0  0  0  0  0  2  0  0  0  0  0  0
   36.9030   25.3070   40.0980 C   0  0  0  0  0  2  0  0  0  0  0  0
   36.9950   24.6730   41.4620 C   0  0  0  0  0  3  0  0  0  0  0  0
   36.3250   23.7710   41.5040 H   0  0  0  0  0  0  0  0  0  0  0  0
   38.3860   24.1380   41.7160 C   0  0  0  0  0  2  0  0  0  0  0  0
   39.4350   25.1980   41.6490 C   0  0  0  0  0  2  0  0  0  0  0  0
   42.1960   28.8450   38.0750 O   0  0  0  0  0  0  0  0  0  0  0  0
   42.2600   29.0850   36.7200 C   0  0  0  0  0  0  0  0  0  0  0  0
   42.4890   28.0070   36.1890 O   0  0  0  0  0  0  0  0  0  0  0  0
   42.0410   30.4650   36.4250 N   0  0  0  0  0  0  0  0  0  0  0  0
   41.1330   31.0180   36.5010 H   0  0  0  0  0  0  0  0  0  0  0  0
   42.4350   31.3720   36.0890 H   0  0  0  0  0  0  0  0  0  0  0  0
  1  2  2  0  0  0  0
  1  6  1  0  0  0  0
  2  3  1  0  0  0  0
  3  9  1  0  0  0  0
  3  4  2  0  0  0  0
  5  4  1  0  0  0  0
  5  8  1  0  0  0  0
  6  5  2  0  0  0  0
  7  1  1  0  0  0  0
  9 18  1  0  0  0  0
 10 11  1  0  0  0  0
 10  9  2  0  0  0  0
 11 12  2  0  0  0  0
 12 21  1  0  0  0  0
 12 13  1  0  0  0  0
 13 14  1  0  0  0  0
 14 22  1  0  0  0  0
 14 15  2  0  0  0  0
 15 23  1  0  0  0  0
 16 15  1  0  0  0  0
 16 24  1  0  0  0  0
 17 25  1  0  0  0  0
 17 16  2  0  0  0  0
 18 13  2  0  0  0  0
 18 17  1  0  0  0  0
 19 10  1  0  0  0  0
 20 11  1  0  0  0  0
 26 28  1  0  0  0  0
 26  2  1  0  0  0  0
 28 27  2  1  0  0  0
 29 28  1  0  0  0  0
 29 30  1  0  0  0  0
 30 33  1  0  0  0  0
 30 32  1  0  0  0  0
 31 30  1  0  0  0  0
 33 39  1  0  0  0  0
 34 35  1  0  0  0  0
 34 33  1  0  0  0  0
 35 36  1  0  0  0  0
 36 37  1  0  0  0  0
 36 38  1  0  0  0  0
 39 38  1  0  0  0  0
 40 28  1  0  0  0  0
 41 40  1  0  0  0  0
 42 41  2  0  0  0  0
 43 44  1  0  0  0  0
 43 41  1  0  0  0  0
 45 43  1  0  0  0  0
M  END
>  <minimizedAffinity>
-5.71837282

$$$$

 OpenBabel03252508113D

 45 48  0  0  0  0  0  0  0  0999 V2000
   37.1620   28.8440   36.7990 C   0  0  0  0  0  0  0  0  0  0  0  0
   37.5060   28.0280   37.8590 C   0  0  0  0  0  0  0  0  0  0  0  0
   36.5890   27.6820   38.8090 C   0  0  0  0  0  0  0  0  0  0  0  0
   35.3090   28.1970   38.6370 N   0  0  0  0  0  0  0  0  0  0  0  0
   34.9760   28.9780   37.6240 C   0  0  0  0  0  0  0  0  0  0  0  0
   35.9160   29.2970   36.7060 N   0  0  0  0  0  0  0  0  0  0  0  0
   37.8650   29.1350   36.0340 H   0  0  0  0  0  0  0  0  0  0  0  0
   33.9620   29.3580   37.5290 H   0  0  0  0  0  0  0  0  0  0  0  0
   36.7660   26.8750   39.9470 C   0  0  0  0  0  0  0  0  0  0  0  0
   36.6170   25.4740   39.9140 C   0  0  0  0  0  0  0  0  0  0  0  0
   36.7280   24.6640   41.0120 C   0  0  0  0  0  0  0  0  0  0  0  0
   37.0030   25.2230   42.2460 C   0  0  0  0  0  0  0  0  0  0  0  0
   37.1600   26.6470   42.3020 C   0  0  0  0  0  0  0  0  0  0  0  0
   37.4280   27.2070   43.5140 C   0  0  0  0  0  0  0  0  0  0  0  0
   37.5900   28.5690   43.6290 C   0  0  0  0  0  0  0  0  0  0  0  0
   37.4770   29.3760   42.4820 C   0  0  0  0  0  0  0  0  0  0  0  0
   37.1970   28.7360   41.2550 C   0  0  0  0  0  0  0  0  0  0  0  0
   37.0390   27.3900   41.1760 C   0  0  0  0  0  0  0  0  0  0  0  0
   36.4010   24.9970   38.9690 H   0  0  0  0  0  0  0  0  0  0  0  0
   36.6080   23.6100   40.9410 H   0  0  0  0  0  0  0  0  0  0  0  0
   37.1030   24.6530   43.1490 H   0  0  0  0  0  0  0  0  0  0  0  0
   37.5150   26.5680   44.3950 H   0  0  0  0  0  0  0  0  0  0  0  0
   37.7990   28.9430   44.6200 H   0  0  0  0  0  0  0  0  0  0  0  0
   37.6220   30.4070   42.6940 H   0  0  0  0  0  0  0  0  0  0  0  0
   37.1800   29.5230   40.5290 H   0  0  0  0  0  0  0  0  0  0  0  0
   38.7960   27.5850   37.9080 O   0  0  0  0  0  0  0  0  0  0  0  0
   40.9930   28.8510   37.2380 O   0  0  0  0  0  0  0  0  0  0  0  0
   40.1210   28.4820   38.3980 P   0  0  1  0  0  0  0  0  0  0  0  0
   39.6770   29.9170   39.1620 O   0  0  0  0  0  0  0  0  0  0  0  0
   39.9590   30.9380   38.2420 C   0  0  0  0  0  0  0  0  0  0  0  0
   41.0620   31.0350   38.1210 H   0  0  0  0  0  0  0  0  0  0  0  0
   39.5670   30.5860   37.2680 H   0  0  0  0  0  0  0  0  0  0  0  0
   39.3480   32.2060   38.6020 N   0  0  0  0  0  0  0  0  0  0  0  0
   37.9860   31.8360   39.0240 C   0  0  0  0  0  2  0  0  0  0  0  0
   37.1670   33.0670   39.3310 C   0  0  0  0  0  2  0  0  0  0  0  0
   38.0490   34.1080   39.9700 C   0  0  0  0  0  3  0  0  0  0  0  0
   37.4700   34.6570   40.7620 H   0  0  0  0  0  0  0  0  0  0  0  0
   39.2010   33.4620   40.7050 C   0  0  0  0  0  2  0  0  0  0  0  0
   40.0660   32.6350   39.8130 C   0  0  0  0  0  2  0  0  0  0  0  0
   41.0180   27.5440   39.4800 O   0  0  0  0  0  0  0  0  0  0  0  0
   40.5430   26.6600   40.4240 C   0  0  0  0  0  0  0  0  0  0  0  0
   40.5860   27.2460   41.4980 O   0  0  0  0  0  0  0  0  0  0  0  0
   40.1780   25.4130   39.8330 N   0  0  0  0  0  0  0  0  0  0  0  0
   39.3510   25.2060   39.1920 H   0  0  0  0  0  0  0  0  0  0  0  0
   40.3770   24.3940   39.7200 H   0  0  0  0  0  0  0  0  0  0  0  0
  1  2  1  0  0  0  0
  2 26  1  0  0  0  0
  2  3  2  0  0  0  0
  3  9  1  0  0  0  0
  4  3  1  0  0  0  0
  5  4  2  0  0  0  0
  6  1  2  0  0  0  0
  6  5  1  0  0  0  0
  7  1  1  0  0  0  0
  8  5  1  0  0  0  0
  9 18  1  0  0  0  0
 10  9  2  0  0  0  0
 10 11  1  0  0  0  0
 11 12  2  0  0  0  0
 12 13  1  0  0  0  0
 12 21  1  0  0  0  0
 13 14  1  0  0  0  0
 14 15  2  0  0  0  0
 14 22  1  0  0  0  0
 15 23  1  0  0  0  0
 16 24  1  0  0  0  0
 16 15  1  0  0  0  0
 17 16  2  0  0  0  0
 18 17  1  0  0  0  0
 18 13  2  0  0  0  0
 19 10  1  0  0  0  0
 20 11  1  0  0  0  0
 25 17  1  0  0  0  0
 26 28  1  0  0  0  0
 28 27  2  6  0  0  0
 28 29  1  0  0  0  0
 28 40  1  0  0  0  0
 30 33  1  0  0  0  0
 30 29  1  0  0  0  0
 31 30  1  0  0  0  0
 32 30  1  0  0  0  0
 33 34  1  0  0  0  0
 33 39  1  0  0  0  0
 34 35  1  0  0  0  0
 35 36  1  0  0  0  0
 36 38  1  0  0  0  0
 36 37  1  0  0  0  0
 39 38  1  0  0  0  0
 40 41  1  0  0  0  0
 41 42  2  0  0  0  0
 43 41  1  0  0  0  0
 44 43  1  0  0  0  0
 45 43  1  0  0  0  0
M  END
>  <minimizedAffinity>
-5.6453805

$$$$

 OpenBabel03252508113D

 45 48  0  0  0  0  0  0  0  0999 V2000
   38.9030   30.6020   38.4790 C   0  0  0  0  0  0  0  0  0  0  0  0
   38.8330   29.8450   39.6310 C   0  0  0  0  0  0  0  0  0  0  0  0
   37.6410   29.3600   40.0850 C   0  0  0  0  0  0  0  0  0  0  0  0
   36.5230   29.6750   39.3200 N   0  0  0  0  0  0  0  0  0  0  0  0
   36.5860   30.4000   38.2170 C   0  0  0  0  0  0  0  0  0  0  0  0
   37.7880   30.8610   37.8040 N   0  0  0  0  0  0  0  0  0  0  0  0
   39.8300   31.0000   38.0970 H   0  0  0  0  0  0  0  0  0  0  0  0
   35.6860   30.6220   37.6490 H   0  0  0  0  0  0  0  0  0  0  0  0
   37.3870   28.5840   41.2310 C   0  0  0  0  0  0  0  0  0  0  0  0
   37.3060   29.1430   42.5220 C   0  0  0  0  0  0  0  0  0  0  0  0
   37.1150   28.4130   43.6640 C   0  0  0  0  0  0  0  0  0  0  0  0
   36.9890   27.0380   43.5810 C   0  0  0  0  0  0  0  0  0  0  0  0
   37.0660   26.4500   42.2760 C   0  0  0  0  0  0  0  0  0  0  0  0
   36.9470   25.0960   42.1850 C   0  0  0  0  0  0  0  0  0  0  0  0
   37.0120   24.4750   40.9580 C   0  0  0  0  0  0  0  0  0  0  0  0
   37.2020   25.2520   39.8010 C   0  0  0  0  0  0  0  0  0  0  0  0
   37.3200   26.6490   39.9620 C   0  0  0  0  0  0  0  0  0  0  0  0
   37.2550   27.2320   41.1860 C   0  0  0  0  0  0  0  0  0  0  0  0
   37.4000   30.2140   42.6320 H   0  0  0  0  0  0  0  0  0  0  0  0
   37.0600   28.8770   44.6190 H   0  0  0  0  0  0  0  0  0  0  0  0
   36.8390   26.4020   44.4310 H   0  0  0  0  0  0  0  0  0  0  0  0
   36.7970   24.5070   43.0910 H   0  0  0  0  0  0  0  0  0  0  0  0
   36.9110   23.4000   40.9620 H   0  0  0  0  0  0  0  0  0  0  0  0
   37.2350   24.6630   38.9160 H   0  0  0  0  0  0  0  0  0  0  0  0
   37.4320   27.0350   38.9690 H   0  0  0  0  0  0  0  0  0  0  0  0
   40.0060   29.6020   40.2870 O   0  0  0  0  0  0  0  0  0  0  0  0
   39.6950   31.4610   42.1110 O   0  0  0  0  0  0  0  0  0  0  0  0
   40.7130   30.6000   41.4290 P   0  0  1  0  0  0  0  0  0  0  0  0
   41.5140   29.7320   42.6310 O   0  0  0  0  0  0  0  0  0  0  0  0
   42.3000   28.7870   41.9560 C   0  0  0  0  0  0  0  0  0  0  0  0
   42.1980   28.9360   40.8570 H   0  0  0  0  0  0  0  0  0  0  0  0
   43.3510   29.0300   42.2080 H   0  0  0  0  0  0  0  0  0  0  0  0
   41.9930   27.4200   42.3390 N   0  0  0  0  0  0  0  0  0  0  0  0
   40.7400   27.5390   43.1040 C   0  0  0  0  0  2  0  0  0  0  0  0
   40.3340   26.2040   43.6800 C   0  0  0  0  0  2  0  0  0  0  0  0
   40.6840   25.1110   42.7030 C   0  0  0  0  0  3  0  0  0  0  0  0
   39.8870   24.3190   42.7220 H   0  0  0  0  0  0  0  0  0  0  0  0
   40.6820   25.6340   41.2840 C   0  0  0  0  0  2  0  0  0  0  0  0
   41.6570   26.7450   41.0750 C   0  0  0  0  0  2  0  0  0  0  0  0
   41.8290   31.5930   40.6390 O   0  0  0  0  0  0  0  0  0  0  0  0
   42.8620   32.3120   41.2000 C   0  0  0  0  0  0  0  0  0  0  0  0
   43.7170   32.4190   40.3310 O   0  0  0  0  0  0  0  0  0  0  0  0
   42.5750   32.6670   42.5520 N   0  0  0  0  0  0  0  0  0  0  0  0
   41.8610   33.3740   42.9100 H   0  0  0  0  0  0  0  0  0  0  0  0
   42.7910   32.5390   43.5670 H   0  0  0  0  0  0  0  0  0  0  0  0
  1  2  1  0  0  0  0
  2  3  2  0  0  0  0
  2 26  1  0  0  0  0
  3  9  1  0  0  0  0
  4  3  1  0  0  0  0
  5  4  2  0  0  0  0
  6  5  1  0  0  0  0
  6  1  2  0  0  0  0
  7  1  1  0  0  0  0
  8  5  1  0  0  0  0
  9 10  1  0  0  0  0
 10 19  1  0  0  0  0
 10 11  2  0  0  0  0
 11 20  1  0  0  0  0
 12 11  1  0  0  0  0
 12 21  1  0  0  0  0
 13 12  2  0  0  0  0
 14 13  1  0  0  0  0
 14 22  1  0  0  0  0
 15 23  1  0  0  0  0
 15 14  2  0  0  0  0
 16 17  2  0  0  0  0
 16 15  1  0  0  0  0
 17 18  1  0  0  0  0
 18  9  2  0  0  0  0
 18 13  1  0  0  0  0
 24 16  1  0  0  0  0
 25 17  1  0  0  0  0
 26 28  1  0  0  0  0
 28 27  2  1  0  0  0
 28 29  1  0  0  0  0
 30 32  1  0  0  0  0
 30 33  1  0  0  0  0
 30 29  1  0  0  0  0
 31 30  1  0  0  0  0
 33 34  1  0  0  0  0
 34 35  1  0  0  0  0
 36 37  1  0  0  0  0
 36 35  1  0  0  0  0
 38 36  1  0  0  0  0
 39 38  1  0  0  0  0
 39 33  1  0  0  0  0
 40 41  1  0  0  0  0
 40 28  1  0  0  0  0
 41 43  1  0  0  0  0
 42 41  2  0  0  0  0
 43 44  1  0  0  0  0
 43 45  1  0  0  0  0
M  END
>  <minimizedAffinity>
-5.62973261

$$$$

 OpenBabel03252508113D

 45 48  0  0  0  0  0  0  0  0999 V2000
   37.5040   31.0800   38.1390 C   0  0  0  0  0  0  0  0  0  0  0  0
   37.6550   30.0050   38.9930 C   0  0  0  0  0  0  0  0  0  0  0  0
   37.5660   30.1620   40.3460 C   0  0  0  0  0  0  0  0  0  0  0  0
   37.3160   31.4550   40.7940 N   0  0  0  0  0  0  0  0  0  0  0  0
   37.1700   32.4850   39.9800 C   0  0  0  0  0  0  0  0  0  0  0  0
   37.2670   32.2850   38.6460 N   0  0  0  0  0  0  0  0  0  0  0  0
   37.5700   30.9860   37.0660 H   0  0  0  0  0  0  0  0  0  0  0  0
   36.9750   33.4790   40.3750 H   0  0  0  0  0  0  0  0  0  0  0  0
   37.6990   29.1900   41.3540 C   0  0  0  0  0  0  0  0  0  0  0  0
   36.5910   28.5320   41.9230 C   0  0  0  0  0  0  0  0  0  0  0  0
   36.6790   27.6210   42.9420 C   0  0  0  0  0  0  0  0  0  0  0  0
   37.9180   27.3040   43.4680 C   0  0  0  0  0  0  0  0  0  0  0  0
   39.0590   27.9620   42.9010 C   0  0  0  0  0  0  0  0  0  0  0  0
   40.2840   27.6590   43.4140 C   0  0  0  0  0  0  0  0  0  0  0  0
   41.4160   28.2580   42.9090 C   0  0  0  0  0  0  0  0  0  0  0  0
   41.2960   29.1840   41.8580 C   0  0  0  0  0  0  0  0  0  0  0  0
   39.9990   29.4570   41.3700 C   0  0  0  0  0  0  0  0  0  0  0  0
   38.9020   28.8520   41.8920 C   0  0  0  0  0  0  0  0  0  0  0  0
   35.6050   28.7510   41.5420 H   0  0  0  0  0  0  0  0  0  0  0  0
   35.8150   27.1480   43.3420 H   0  0  0  0  0  0  0  0  0  0  0  0
   38.0650   26.6030   44.2650 H   0  0  0  0  0  0  0  0  0  0  0  0
   40.3620   26.9360   44.2290 H   0  0  0  0  0  0  0  0  0  0  0  0
   42.3520   27.9710   43.3660 H   0  0  0  0  0  0  0  0  0  0  0  0
   42.2340   29.5780   41.5530 H   0  0  0  0  0  0  0  0  0  0  0  0
   40.1440   30.1570   40.5720 H   0  0  0  0  0  0  0  0  0  0  0  0
   37.8920   28.7870   38.4230 O   0  0  0  0  0  0  0  0  0  0  0  0
   36.3450   28.2550   36.3740 O   0  0  0  0  0  0  0  0  0  0  0  0
   36.7390   27.7850   37.7400 P   0  0  1  0  0  0  0  0  0  0  0  0
   37.2820   26.1980   37.5810 O   0  0  0  0  0  0  0  0  0  0  0  0
   38.3400   26.0670   38.4920 C   0  0  0  0  0  0  0  0  0  0  0  0
   39.0990   25.3620   38.0810 H   0  0  0  0  0  0  0  0  0  0  0  0
   38.8270   27.0600   38.5380 H   0  0  0  0  0  0  0  0  0  0  0  0
   37.8990   25.6610   39.8160 N   0  0  0  0  0  0  0  0  0  0  0  0
   37.1170   24.4380   39.5690 C   0  0  0  0  0  2  0  0  0  0  0  0
   36.4820   23.9400   40.8450 C   0  0  0  0  0  2  0  0  0  0  0  0
   37.4220   24.1830   41.9980 C   0  0  0  0  0  3  0  0  0  0  0  0
   37.3580   23.3260   42.7230 H   0  0  0  0  0  0  0  0  0  0  0  0
   38.8590   24.1920   41.5300 C   0  0  0  0  0  2  0  0  0  0  0  0
   39.1290   25.2470   40.5090 C   0  0  0  0  0  2  0  0  0  0  0  0
   35.3760   27.7980   38.7380 O   0  0  0  0  0  0  0  0  0  0  0  0
   34.2220   28.5320   38.5790 C   0  0  0  0  0  0  0  0  0  0  0  0
   34.2100   29.3570   39.4830 O   0  0  0  0  0  0  0  0  0  0  0  0
   33.4720   28.0860   37.4490 N   0  0  0  0  0  0  0  0  0  0  0  0
   33.7100   28.1970   36.4160 H   0  0  0  0  0  0  0  0  0  0  0  0
   32.6150   27.6110   37.0860 H   0  0  0  0  0  0  0  0  0  0  0  0
  1  6  2  0  0  0  0
  1  2  1  0  0  0  0
  2  3  2  0  0  0  0
  3  4  1  0  0  0  0
  3  9  1  0  0  0  0
  5  8  1  0  0  0  0
  5  4  2  0  0  0  0
  6  5  1  0  0  0  0
  7  1  1  0  0  0  0
  9 18  2  0  0  0  0
  9 10  1  0  0  0  0
 10 11  2  0  0  0  0
 11 20  1  0  0  0  0
 11 12  1  0  0  0  0
 12 21  1  0  0  0  0
 13 14  1  0  0  0  0
 13 12  2  0  0  0  0
 14 22  1  0  0  0  0
 15 23  1  0  0  0  0
 15 14  2  0  0  0  0
 16 15  1  0  0  0  0
 17 16  2  0  0  0  0
 17 18  1  0  0  0  0
 18 13  1  0  0  0  0
 19 10  1  0  0  0  0
 24 16  1  0  0  0  0
 25 17  1  0  0  0  0
 26  2  1  0  0  0  0
 28 27  2  6  0  0  0
 28 26  1  0  0  0  0
 28 40  1  0  0  0  0
 29 28  1  0  0  0  0
 29 30  1  0  0  0  0
 30 32  1  0  0  0  0
 30 33  1  0  0  0  0
 31 30  1  0  0  0  0
 33 39  1  0  0  0  0
 34 33  1  0  0  0  0
 34 35  1  0  0  0  0
 35 36  1  0  0  0  0
 36 37  1  0  0  0  0
 38 36  1  0  0  0  0
 39 38  1  0  0  0  0
 41 40  1  0  0  0  0
 41 42  2  0  0  0  0
 43 41  1  0  0  0  0
 44 43  1  0  0  0  0
 45 43  1  0  0  0  0
M  END
>  <minimizedAffinity>
-5.60837555

$$$$

 OpenBabel03252508113D

 45 48  0  0  0  0  0  0  0  0999 V2000
   42.2240   30.3950   42.0080 C   0  0  0  0  0  0  0  0  0  0  0  0
   40.8980   30.0150   41.9300 C   0  0  0  0  0  0  0  0  0  0  0  0
   40.4520   28.8840   42.5490 C   0  0  0  0  0  0  0  0  0  0  0  0
   41.4070   28.1560   43.2500 N   0  0  0  0  0  0  0  0  0  0  0  0
   42.6750   28.5160   43.3270 C   0  0  0  0  0  0  0  0  0  0  0  0
   43.0750   29.6440   42.6980 N   0  0  0  0  0  0  0  0  0  0  0  0
   42.6050   31.2830   41.5280 H   0  0  0  0  0  0  0  0  0  0  0  0
   43.3880   27.9160   43.8880 H   0  0  0  0  0  0  0  0  0  0  0  0
   39.1510   28.3480   42.5690 C   0  0  0  0  0  0  0  0  0  0  0  0
   38.2320   28.6280   43.5990 C   0  0  0  0  0  0  0  0  0  0  0  0
   36.9790   28.0830   43.6790 C   0  0  0  0  0  0  0  0  0  0  0  0
   36.5570   27.1980   42.7040 C   0  0  0  0  0  0  0  0  0  0  0  0
   37.4770   26.9010   41.6450 C   0  0  0  0  0  0  0  0  0  0  0  0
   37.0710   26.0280   40.6810 C   0  0  0  0  0  0  0  0  0  0  0  0
   37.9110   25.7060   39.6390 C   0  0  0  0  0  0  0  0  0  0  0  0
   39.1910   26.2870   39.5790 C   0  0  0  0  0  0  0  0  0  0  0  0
   39.5520   27.1840   40.6080 C   0  0  0  0  0  0  0  0  0  0  0  0
   38.7020   27.4780   41.6250 C   0  0  0  0  0  0  0  0  0  0  0  0
   38.5220   29.3140   44.3820 H   0  0  0  0  0  0  0  0  0  0  0  0
   36.3170   28.3220   44.4760 H   0  0  0  0  0  0  0  0  0  0  0  0
   35.5920   26.7310   42.7010 H   0  0  0  0  0  0  0  0  0  0  0  0
   36.0750   25.5870   40.7390 H   0  0  0  0  0  0  0  0  0  0  0  0
   37.5240   25.0070   38.9120 H   0  0  0  0  0  0  0  0  0  0  0  0
   39.7450   25.9650   38.7320 H   0  0  0  0  0  0  0  0  0  0  0  0
   40.5370   27.5170   40.3530 H   0  0  0  0  0  0  0  0  0  0  0  0
   40.0620   30.8220   41.2130 O   0  0  0  0  0  0  0  0  0  0  0  0
   40.9950   30.2260   38.8350 O   0  0  0  0  0  0  0  0  0  0  0  0
   40.2730   31.2790   39.6170 P   0  0  1  0  0  0  0  0  0  0  0  0
   38.8090   31.5640   38.8320 O   0  0  0  0  0  0  0  0  0  0  0  0
   37.8130   31.3300   39.7920 C   0  0  0  0  0  0  0  0  0  0  0  0
   38.2470   30.7640   40.6470 H   0  0  0  0  0  0  0  0  0  0  0  0
   37.5310   32.3250   40.1860 H   0  0  0  0  0  0  0  0  0  0  0  0
   36.6480   30.6570   39.2430 N   0  0  0  0  0  0  0  0  0  0  0  0
   37.1800   29.3790   38.7430 C   0  0  0  0  0  2  0  0  0  0  0  0
   36.1060   28.5920   38.0310 C   0  0  0  0  0  2  0  0  0  0  0  0
   34.7880   28.7980   38.7320 C   0  0  0  0  0  3  0  0  0  0  0  0
   34.2010   27.8400   38.7210 H   0  0  0  0  0  0  0  0  0  0  0  0
   34.9990   29.1100   40.1970 C   0  0  0  0  0  2  0  0  0  0  0  0
   35.8150   30.3410   40.4150 C   0  0  0  0  0  2  0  0  0  0  0  0
   41.1880   32.7000   39.5950 O   0  0  0  0  0  0  0  0  0  0  0  0
   41.6990   33.3560   38.4970 C   0  0  0  0  0  0  0  0  0  0  0  0
   42.6470   34.0170   38.9010 O   0  0  0  0  0  0  0  0  0  0  0  0
   40.9660   33.0410   37.3140 N   0  0  0  0  0  0  0  0  0  0  0  0
   40.9450   32.1180   36.7790 H   0  0  0  0  0  0  0  0  0  0  0  0
   40.3120   33.3610   36.5640 H   0  0  0  0  0  0  0  0  0  0  0  0
  1  6  1  0  0  0  0
  2  1  2  0  0  0  0
  2  3  1  0  0  0  0
  3  9  1  0  0  0  0
  3  4  2  0  0  0  0
  4  5  1  0  0  0  0
  5  8  1  0  0  0  0
  6  5  2  0  0  0  0
  7  1  1  0  0  0  0
  9 10  1  0  0  0  0
 10 11  2  0  0  0  0
 10 19  1  0  0  0  0
 11 20  1  0  0  0  0
 12 11  1  0  0  0  0
 13 12  2  0  0  0  0
 14 22  1  0  0  0  0
 14 13  1  0  0  0  0
 15 14  2  0  0  0  0
 16 15  1  0  0  0  0
 16 17  2  0  0  0  0
 17 18  1  0  0  0  0
 18 13  1  0  0  0  0
 18  9  2  0  0  0  0
 21 12  1  0  0  0  0
 23 15  1  0  0  0  0
 24 16  1  0  0  0  0
 25 17  1  0  0  0  0
 26  2  1  0  0  0  0
 28 27  2  6  0  0  0
 28 26  1  0  0  0  0
 29 28  1  0  0  0  0
 29 30  1  0  0  0  0
 30 32  1  0  0  0  0
 30 31  1  0  0  0  0
 33 30  1  0  0  0  0
 33 39  1  0  0  0  0
 34 33  1  0  0  0  0
 35 36  1  0  0  0  0
 35 34  1  0  0  0  0
 36 38  1  0  0  0  0
 37 36  1  0  0  0  0
 38 39  1  0  0  0  0
 40 28  1  0  0  0  0
 41 42  2  0  0  0  0
 41 40  1  0  0  0  0
 43 41  1  0  0  0  0
 44 43  1  0  0  0  0
 45 43  1  0  0  0  0
M  END
>  <minimizedAffinity>
-5.57755089

$$$$

 OpenBabel03252508113D

 45 48  0  0  0  0  0  0  0  0999 V2000
   38.1280   29.8850   38.0740 C   0  0  0  0  0  0  0  0  0  0  0  0
   38.1700   29.1190   39.2230 C   0  0  0  0  0  0  0  0  0  0  0  0
   37.0590   28.4690   39.6770 C   0  0  0  0  0  0  0  0  0  0  0  0
   35.9060   28.6280   38.9160 N   0  0  0  0  0  0  0  0  0  0  0  0
   35.8620   29.3600   37.8160 C   0  0  0  0  0  0  0  0  0  0  0  0
   36.9870   29.9880   37.4030 N   0  0  0  0  0  0  0  0  0  0  0  0
   38.9890   30.4110   37.6920 H   0  0  0  0  0  0  0  0  0  0  0  0
   34.9390   29.4560   37.2520 H   0  0  0  0  0  0  0  0  0  0  0  0
   36.9200   27.6600   40.8190 C   0  0  0  0  0  0  0  0  0  0  0  0
   36.5140   28.1730   42.0670 C   0  0  0  0  0  0  0  0  0  0  0  0
   36.4220   27.4260   43.2100 C   0  0  0  0  0  0  0  0  0  0  0  0
   36.7380   26.0800   43.1730 C   0  0  0  0  0  0  0  0  0  0  0  0
   37.1510   25.5380   41.9120 C   0  0  0  0  0  0  0  0  0  0  0  0
   37.4690   24.2140   41.8660 C   0  0  0  0  0  0  0  0  0  0  0  0
   37.8710   23.6380   40.6830 C   0  0  0  0  0  0  0  0  0  0  0  0
   37.9510   24.4280   39.5220 C   0  0  0  0  0  0  0  0  0  0  0  0
   37.6100   25.7930   39.6350 C   0  0  0  0  0  0  0  0  0  0  0  0
   37.2200   26.3330   40.8180 C   0  0  0  0  0  0  0  0  0  0  0  0
   36.2590   29.2200   42.1400 H   0  0  0  0  0  0  0  0  0  0  0  0
   36.1100   27.8550   44.1320 H   0  0  0  0  0  0  0  0  0  0  0  0
   36.6900   25.4340   44.0270 H   0  0  0  0  0  0  0  0  0  0  0  0
   37.4000   23.6120   42.7740 H   0  0  0  0  0  0  0  0  0  0  0  0
   38.1080   22.5840   40.7210 H   0  0  0  0  0  0  0  0  0  0  0  0
   38.2710   23.8740   38.6730 H   0  0  0  0  0  0  0  0  0  0  0  0
   37.7170   26.1890   38.6450 H   0  0  0  0  0  0  0  0  0  0  0  0
   39.3670   29.0410   39.8740 O   0  0  0  0  0  0  0  0  0  0  0  0
   39.8740   28.9600   42.4460 O   0  0  0  0  0  0  0  0  0  0  0  0
   39.7810   29.8750   41.2650 P   0  0  1  0  0  0  0  0  0  0  0  0
   41.2680   30.6570   41.1250 O   0  0  0  0  0  0  0  0  0  0  0  0
   41.5810   30.6340   39.7580 C   0  0  0  0  0  0  0  0  0  0  0  0
   42.5730   30.1490   39.6130 H   0  0  0  0  0  0  0  0  0  0  0  0
   40.8340   29.9670   39.2860 H   0  0  0  0  0  0  0  0  0  0  0  0
   41.5370   31.9510   39.1470 N   0  0  0  0  0  0  0  0  0  0  0  0
   42.7510   32.6160   39.6500 C   0  0  0  0  0  2  0  0  0  0  0  0
   42.8040   34.0540   39.1930 C   0  0  0  0  0  2  0  0  0  0  0  0
   42.2410   34.1570   37.7990 C   0  0  0  0  0  3  0  0  0  0  0  0
   42.8240   34.9180   37.2120 H   0  0  0  0  0  0  0  0  0  0  0  0
   42.4230   32.8580   37.0470 C   0  0  0  0  0  2  0  0  0  0  0  0
   41.7510   31.7040   37.7120 C   0  0  0  0  0  2  0  0  0  0  0  0
   38.5840   31.0300   41.5590 O   0  0  0  0  0  0  0  0  0  0  0  0
   38.4860   32.2980   41.0280 C   0  0  0  0  0  0  0  0  0  0  0  0
   37.4370   32.3270   40.3970 O   0  0  0  0  0  0  0  0  0  0  0  0
   39.6070   33.1020   41.3910 N   0  0  0  0  0  0  0  0  0  0  0  0
   39.8480   33.5010   42.3500 H   0  0  0  0  0  0  0  0  0  0  0  0
   40.4780   33.5960   41.0910 H   0  0  0  0  0  0  0  0  0  0  0  0
  1  2  1  0  0  0  0
  2  3  2  0  0  0  0
  2 26  1  0  0  0  0
  3  9  1  0  0  0  0
  4  3  1  0  0  0  0
  5  4  2  0  0  0  0
  6  5  1  0  0  0  0
  6  1  2  0  0  0  0
  7  1  1  0  0  0  0
  8  5  1  0  0  0  0
  9 10  1  0  0  0  0
 10 19  1  0  0  0  0
 10 11  2  0  0  0  0
 11 20  1  0  0  0  0
 12 11  1  0  0  0  0
 12 21  1  0  0  0  0
 13 12  2  0  0  0  0
 14 13  1  0  0  0  0
 14 22  1  0  0  0  0
 15 23  1  0  0  0  0
 15 14  2  0  0  0  0
 16 17  2  0  0  0  0
 16 15  1  0  0  0  0
 17 18  1  0  0  0  0
 18  9  2  0  0  0  0
 18 13  1  0  0  0  0
 24 16  1  0  0  0  0
 25 17  1  0  0  0  0
 26 28  1  0  0  0  0
 28 40  1  0  0  0  0
 28 27  2  1  0  0  0
 29 28  1  0  0  0  0
 30 29  1  0  0  0  0
 31 30  1  0  0  0  0
 32 30  1  0  0  0  0
 33 34  1  0  0  0  0
 33 30  1  0  0  0  0
 35 34  1  0  0  0  0
 36 35  1  0  0  0  0
 37 36  1  0  0  0  0
 38 39  1  0  0  0  0
 38 36  1  0  0  0  0
 39 33  1  0  0  0  0
 41 43  1  0  0  0  0
 41 40  1  0  0  0  0
 42 41  2  0  0  0  0
 43 44  1  0  0  0  0
 45 43  1  0  0  0  0
M  END
>  <minimizedAffinity>
-5.47040129

$$$$
