
 OpenBabel03252509253D

 28 30  0  0  1  0  0  0  0  0999 V2000
   46.5390   35.0340   41.9260 C   0  0  1  0  0  0  0  0  0  0  0  0
   48.0570   35.3820   41.9390 C   0  0  0  0  0  0  0  0  0  0  0  0
   47.4260   34.0970   41.3690 C   0  0  2  0  0  0  0  0  0  0  0  0
   45.9470   35.7460   41.3300 H   0  0  0  0  0  0  0  0  0  0  0  0
   48.3820   36.1360   41.1770 H   0  0  0  0  0  0  0  0  0  0  0  0
   48.6030   35.3610   42.8720 H   0  0  0  0  0  0  0  0  0  0  0  0
   47.8400   33.2000   41.9190 H   0  0  0  0  0  0  0  0  0  0  0  0
   44.6570   35.4220   45.1520 C   0  0  0  0  0  0  0  0  0  0  0  0
   45.1180   35.7080   43.8390 C   0  0  0  0  0  0  0  0  0  0  0  0
   46.0390   34.8510   43.3400 C   0  0  0  0  0  0  0  0  0  0  0  0
   46.5020   33.7690   44.0640 N   0  0  0  0  0  0  0  0  0  0  0  0
   46.0430   33.5240   45.3090 C   0  0  0  0  0  0  0  0  0  0  0  0
   45.1110   34.3600   45.8580 N   0  0  0  0  0  0  0  0  0  0  0  0
   43.9230   36.0950   45.5620 H   0  0  0  0  0  0  0  0  0  0  0  0
   46.4320   32.6710   45.8350 H   0  0  0  0  0  0  0  0  0  0  0  0
   44.6690   36.8330   43.1060 N   0  0  0  0  0  0  0  0  0  0  0  0
   43.6910   37.1970   42.9880 H   0  0  0  0  0  0  0  0  0  0  0  0
   45.3750   37.4100   42.5970 H   0  0  0  0  0  0  0  0  0  0  0  0
   47.4920   33.8620   39.8770 C   0  0  0  0  0  0  0  0  0  0  0  0
   46.4670   33.9870   39.4650 H   0  0  0  0  0  0  0  0  0  0  0  0
   48.1450   34.5820   39.3580 H   0  0  0  0  0  0  0  0  0  0  0  0
   47.8770   32.4870   39.6230 N   0  0  0  0  0  0  0  0  0  0  0  0
   47.0710   31.5820   40.3900 C   0  0  0  0  0  2  0  0  0  0  0  0
   47.6730   30.2190   40.4960 C   0  0  0  0  0  2  0  0  0  0  0  0
   48.8080   30.0760   39.4840 C   0  0  0  0  0  3  0  0  0  0  0  0
   49.1800   29.0310   39.4780 H   0  0  0  0  0  0  0  0  0  0  0  0
   49.8660   31.0480   39.9460 C   0  0  0  0  0  2  0  0  0  0  0  0
   49.2600   32.4050   40.0520 C   0  0  0  0  0  2  0  0  0  0  0  0
  1  4  1  6  0  0  0
  1  2  1  0  0  0  0
  1 10  1  0  0  0  0
  2  6  1  0  0  0  0
  3  7  1  1  0  0  0
  3  1  1  0  0  0  0
  3  2  1  0  0  0  0
  5  2  1  0  0  0  0
  8 14  1  0  0  0  0
  8 13  1  0  0  0  0
  9  8  2  0  0  0  0
 10  9  1  0  0  0  0
 10 11  2  0  0  0  0
 11 12  1  0  0  0  0
 12 15  1  0  0  0  0
 12 13  2  0  0  0  0
 16  9  1  0  0  0  0
 17 16  1  0  0  0  0
 18 16  1  0  0  0  0
 19  3  1  0  0  0  0
 20 19  1  0  0  0  0
 21 19  1  0  0  0  0
 22 19  1  0  0  0  0
 22 28  1  0  0  0  0
 22 23  1  0  0  0  0
 23 24  1  0  0  0  0
 25 27  1  0  0  0  0
 25 24  1  0  0  0  0
 26 25  1  0  0  0  0
 27 28  1  0  0  0  0
M  END
>  <minimizedAffinity>
-4.40049839

>  <minimizedRMSD>
2.56017804

$$$$
