
 OpenBabel03242520083D

 47 51  0  0  1  0  0  0  0  0999 V2000
   38.3920   30.2450   39.6600 N   0  0  0  0  0  0  0  0  0  0  0  0
   38.5390   31.4740   38.9850 C   0  0  1  0  0  0  0  0  0  0  0  0
   37.2020   32.1460   38.9370 C   0  0  0  0  0  0  0  0  0  0  0  0
   36.8740   32.4450   40.3080 N   0  0  0  0  0  0  0  0  0  0  0  0
   36.6330   31.2510   41.0920 C   0  0  0  0  0  0  0  0  0  0  0  0
   37.5880   30.1190   40.8060 C   0  0  2  0  0  0  0  0  0  0  0  0
   38.2780   29.4820   38.9490 H   0  0  0  0  0  0  0  0  0  0  0  0
   38.8820   31.3160   37.9650 H   0  0  0  0  0  0  0  0  0  0  0  0
   36.3940   31.4510   38.5660 H   0  0  0  0  0  0  0  0  0  0  0  0
   37.1770   33.0720   38.3640 H   0  0  0  0  0  0  0  0  0  0  0  0
   37.4920   33.1320   40.7540 H   0  0  0  0  0  0  0  0  0  0  0  0
   35.5670   31.0010   40.9120 H   0  0  0  0  0  0  0  0  0  0  0  0
   36.6740   31.5930   42.1540 H   0  0  0  0  0  0  0  0  0  0  0  0
   36.9220   29.2310   40.6200 H   0  0  0  0  0  0  0  0  0  0  0  0
   41.1470   33.0020   40.8320 C   0  0  0  0  0  0  0  0  0  0  0  0
   40.4970   34.1330   40.3680 C   0  0  0  0  0  0  0  0  0  0  0  0
   39.4410   33.7240   39.6200 C   0  0  0  0  0  0  0  0  0  0  0  0
   39.4460   32.3690   39.6260 N   0  0  0  0  0  0  0  0  0  0  0  0
   40.4770   31.9590   40.3600 N   0  0  0  0  0  0  0  0  0  0  0  0
   40.7660   35.1620   40.5550 H   0  0  0  0  0  0  0  0  0  0  0  0
   38.6880   34.2750   39.0830 H   0  0  0  0  0  0  0  0  0  0  0  0
   44.2510   33.9920   42.5260 C   0  0  0  0  0  0  0  0  0  0  0  0
   44.5660   32.8680   43.2950 C   0  0  0  0  0  0  0  0  0  0  0  0
   43.7120   31.7950   43.2200 C   0  0  0  0  0  0  0  0  0  0  0  0
   42.6160   31.8810   42.4090 N   0  0  0  0  0  0  0  0  0  0  0  0
   42.3420   32.9800   41.6810 C   0  0  0  0  0  0  0  0  0  0  0  0
   43.1640   34.0580   41.7320 N   0  0  0  0  0  0  0  0  0  0  0  0
   44.9630   34.8010   42.6320 H   0  0  0  0  0  0  0  0  0  0  0  0
   45.4160   32.7890   43.9320 H   0  0  0  0  0  0  0  0  0  0  0  0
   43.8240   30.8610   43.7540 H   0  0  0  0  0  0  0  0  0  0  0  0
   38.3810   29.8830   42.0730 C   0  0  1  0  0  0  0  0  0  0  0  0
   37.7140   28.9350   43.0770 C   0  0  0  0  0  0  0  0  0  0  0  0
   38.9810   28.5870   42.4040 C   0  0  1  0  0  0  0  0  0  0  0  0
   38.8220   30.7810   42.6010 H   0  0  0  0  0  0  0  0  0  0  0  0
   36.8050   28.4000   42.7170 H   0  0  0  0  0  0  0  0  0  0  0  0
   37.6920   29.2040   44.1490 H   0  0  0  0  0  0  0  0  0  0  0  0
   39.8810   28.5930   43.0740 H   0  0  0  0  0  0  0  0  0  0  0  0
   39.0340   27.4850   41.3470 C   0  0  0  0  0  0  0  0  0  0  0  0
   38.8290   27.9970   40.3850 H   0  0  0  0  0  0  0  0  0  0  0  0
   40.0160   26.9570   41.3750 H   0  0  0  0  0  0  0  0  0  0  0  0
   38.0300   26.5070   41.5280 N   0  0  0  0  0  0  0  0  0  0  0  0
   36.9240   26.4630   40.6750 C   0  0  0  0  0  2  0  0  0  0  0  0
   36.8210   25.1330   39.9530 C   0  0  0  0  0  2  0  0  0  0  0  0
   36.6310   24.0830   41.0280 C   0  0  0  0  0  3  0  0  0  0  0  0
   36.5950   23.0560   40.5700 H   0  0  0  0  0  0  0  0  0  0  0  0
   37.8020   24.0930   41.9500 C   0  0  0  0  0  2  0  0  0  0  0  0
   38.2460   25.4470   42.4170 C   0  0  0  0  0  2  0  0  0  0  0  0
  1  6  1  0  0  0  0
  2  8  1  6  0  0  0
  2 18  1  0  0  0  0
  2  1  1  0  0  0  0
  3  2  1  0  0  0  0
  3  4  1  0  0  0  0
  4 11  1  0  0  0  0
  4  5  1  0  0  0  0
  5 13  1  0  0  0  0
  6 14  1  6  0  0  0
  6  5  1  0  0  0  0
  6 31  1  0  0  0  0
  7  1  1  0  0  0  0
  9  3  1  0  0  0  0
 10  3  1  0  0  0  0
 12  5  1  0  0  0  0
 15 26  1  0  0  0  0
 16 20  1  0  0  0  0
 16 15  1  0  0  0  0
 17 18  1  0  0  0  0
 17 16  2  0  0  0  0
 18 19  1  0  0  0  0
 19 15  2  0  0  0  0
 21 17  1  0  0  0  0
 22 28  1  0  0  0  0
 22 23  1  0  0  0  0
 23 29  1  0  0  0  0
 24 23  2  0  0  0  0
 24 30  1  0  0  0  0
 25 24  1  0  0  0  0
 26 27  1  0  0  0  0
 26 25  2  0  0  0  0
 27 22  2  0  0  0  0
 31 33  1  0  0  0  0
 31 34  1  1  0  0  0
 31 32  1  0  0  0  0
 32 36  1  0  0  0  0
 33 37  1  1  0  0  0
 33 32  1  0  0  0  0
 35 32  1  0  0  0  0
 38 40  1  0  0  0  0
 38 41  1  0  0  0  0
 38 33  1  0  0  0  0
 39 38  1  0  0  0  0
 41 47  1  0  0  0  0
 42 41  1  0  0  0  0
 43 42  1  0  0  0  0
 43 44  1  0  0  0  0
 44 46  1  0  0  0  0
 45 44  1  0  0  0  0
 46 47  1  0  0  0  0
M  END
>  <minimizedAffinity>
-6.04816723

$$$$

 OpenBabel03242520083D

 47 51  0  0  1  0  0  0  0  0999 V2000
   35.1750   29.9890   40.4830 N   0  0  0  0  0  0  0  0  0  0  0  0
   36.2470   30.6360   41.1310 C   0  0  1  0  0  0  0  0  0  0  0  0
   37.0700   29.5980   41.8280 C   0  0  0  0  0  0  0  0  0  0  0  0
   37.6300   28.7840   40.7780 N   0  0  0  0  0  0  0  0  0  0  0  0
   36.6220   28.0150   40.0780 C   0  0  0  0  0  0  0  0  0  0  0  0
   35.3440   28.7690   39.8060 C   0  0  2  0  0  0  0  0  0  0  0  0
   34.3270   30.0440   41.0980 H   0  0  0  0  0  0  0  0  0  0  0  0
   35.8800   31.3410   41.8740 H   0  0  0  0  0  0  0  0  0  0  0  0
   36.4340   28.9070   42.4530 H   0  0  0  0  0  0  0  0  0  0  0  0
   37.8850   29.9920   42.4340 H   0  0  0  0  0  0  0  0  0  0  0  0
   38.2950   29.2740   40.1690 H   0  0  0  0  0  0  0  0  0  0  0  0
   36.4870   27.0980   40.6880 H   0  0  0  0  0  0  0  0  0  0  0  0
   37.1250   27.6680   39.1430 H   0  0  0  0  0  0  0  0  0  0  0  0
   34.5330   28.0890   40.1860 H   0  0  0  0  0  0  0  0  0  0  0  0
   38.9110   32.3480   39.5420 C   0  0  0  0  0  0  0  0  0  0  0  0
   37.9780   32.3690   38.5200 C   0  0  0  0  0  0  0  0  0  0  0  0
   36.8620   31.7380   38.9660 C   0  0  0  0  0  0  0  0  0  0  0  0
   37.1090   31.3390   40.2380 N   0  0  0  0  0  0  0  0  0  0  0  0
   38.3430   31.7160   40.5610 N   0  0  0  0  0  0  0  0  0  0  0  0
   38.0970   32.8030   37.5380 H   0  0  0  0  0  0  0  0  0  0  0  0
   35.9160   31.5370   38.4930 H   0  0  0  0  0  0  0  0  0  0  0  0
   42.0960   33.8830   40.5310 C   0  0  0  0  0  0  0  0  0  0  0  0
   42.7930   33.9770   39.3230 C   0  0  0  0  0  0  0  0  0  0  0  0
   42.1610   33.5150   38.1950 C   0  0  0  0  0  0  0  0  0  0  0  0
   40.9030   32.9950   38.3110 N   0  0  0  0  0  0  0  0  0  0  0  0
   40.2600   32.9190   39.4930 C   0  0  0  0  0  0  0  0  0  0  0  0
   40.8550   33.3670   40.6260 N   0  0  0  0  0  0  0  0  0  0  0  0
   42.6510   34.2650   41.3800 H   0  0  0  0  0  0  0  0  0  0  0  0
   43.7740   34.3790   39.2200 H   0  0  0  0  0  0  0  0  0  0  0  0
   42.5720   33.5210   37.1940 H   0  0  0  0  0  0  0  0  0  0  0  0
   35.2190   28.8930   38.3030 C   0  0  1  0  0  0  0  0  0  0  0  0
   34.5450   27.6980   37.6170 C   0  0  0  0  0  0  0  0  0  0  0  0
   33.9280   29.0400   37.6240 C   0  0  1  0  0  0  0  0  0  0  0  0
   36.1250   29.2320   37.7180 H   0  0  0  0  0  0  0  0  0  0  0  0
   34.0820   26.9420   38.2930 H   0  0  0  0  0  0  0  0  0  0  0  0
   34.9880   27.2780   36.6960 H   0  0  0  0  0  0  0  0  0  0  0  0
   33.9260   29.5560   36.6280 H   0  0  0  0  0  0  0  0  0  0  0  0
   32.6690   29.3220   38.4430 C   0  0  0  0  0  0  0  0  0  0  0  0
   32.3950   28.3480   38.8960 H   0  0  0  0  0  0  0  0  0  0  0  0
   32.8560   30.1290   39.1900 H   0  0  0  0  0  0  0  0  0  0  0  0
   31.5810   29.7390   37.6430 N   0  0  0  0  0  0  0  0  0  0  0  0
   30.4000   30.1920   38.2380 C   0  0  0  0  0  2  0  0  0  0  0  0
   30.0750   31.6170   37.8310 C   0  0  0  0  0  2  0  0  0  0  0  0
   29.8690   31.5910   36.3310 C   0  0  0  0  0  3  0  0  0  0  0  0
   29.6700   32.6290   35.9450 H   0  0  0  0  0  0  0  0  0  0  0  0
   31.1160   31.1240   35.6620 C   0  0  0  0  0  2  0  0  0  0  0  0
   31.7570   29.9100   36.2660 C   0  0  0  0  0  2  0  0  0  0  0  0
  1  7  1  0  0  0  0
  1  2  1  0  0  0  0
  2  3  1  0  0  0  0
  2  8  1  1  0  0  0
  3 10  1  0  0  0  0
  3  9  1  0  0  0  0
  4  3  1  0  0  0  0
  5 12  1  0  0  0  0
  5  4  1  0  0  0  0
  6  5  1  0  0  0  0
  6 14  1  1  0  0  0
  6  1  1  0  0  0  0
 11  4  1  0  0  0  0
 13  5  1  0  0  0  0
 15 19  2  0  0  0  0
 16 17  2  0  0  0  0
 16 15  1  0  0  0  0
 17 18  1  0  0  0  0
 18 19  1  0  0  0  0
 18  2  1  0  0  0  0
 20 16  1  0  0  0  0
 21 17  1  0  0  0  0
 22 27  1  0  0  0  0
 22 28  1  0  0  0  0
 23 22  2  0  0  0  0
 24 25  2  0  0  0  0
 24 23  1  0  0  0  0
 25 26  1  0  0  0  0
 26 15  1  0  0  0  0
 26 27  2  0  0  0  0
 29 23  1  0  0  0  0
 30 24  1  0  0  0  0
 31 34  1  6  0  0  0
 31  6  1  0  0  0  0
 32 33  1  0  0  0  0
 32 35  1  0  0  0  0
 32 31  1  0  0  0  0
 33 37  1  6  0  0  0
 33 31  1  0  0  0  0
 33 38  1  0  0  0  0
 36 32  1  0  0  0  0
 38 39  1  0  0  0  0
 38 40  1  0  0  0  0
 41 42  1  0  0  0  0
 41 38  1  0  0  0  0
 43 42  1  0  0  0  0
 44 43  1  0  0  0  0
 45 44  1  0  0  0  0
 46 47  1  0  0  0  0
 46 44  1  0  0  0  0
 47 41  1  0  0  0  0
M  END
>  <minimizedAffinity>
-5.83817005

$$$$

 OpenBabel03242520083D

 47 51  0  0  1  0  0  0  0  0999 V2000
   38.1150   31.7830   41.1020 N   0  0  0  0  0  0  0  0  0  0  0  0
   37.0780   31.7250   40.1490 C   0  0  1  0  0  0  0  0  0  0  0  0
   37.2190   32.8980   39.2300 C   0  0  0  0  0  0  0  0  0  0  0  0
   38.4600   32.6880   38.5280 N   0  0  0  0  0  0  0  0  0  0  0  0
   39.6120   32.7910   39.4000 C   0  0  0  0  0  0  0  0  0  0  0  0
   39.4260   32.1470   40.7510 C   0  0  2  0  0  0  0  0  0  0  0  0
   37.7460   32.2330   41.9750 H   0  0  0  0  0  0  0  0  0  0  0  0
   36.1060   31.7810   40.6330 H   0  0  0  0  0  0  0  0  0  0  0  0
   37.3400   33.8660   39.7970 H   0  0  0  0  0  0  0  0  0  0  0  0
   36.4190   33.0030   38.4970 H   0  0  0  0  0  0  0  0  0  0  0  0
   38.4650   31.8710   37.9060 H   0  0  0  0  0  0  0  0  0  0  0  0
   39.8430   33.8750   39.4420 H   0  0  0  0  0  0  0  0  0  0  0  0
   40.4520   32.3400   38.8180 H   0  0  0  0  0  0  0  0  0  0  0  0
   39.7330   32.9430   41.4840 H   0  0  0  0  0  0  0  0  0  0  0  0
   36.7810   29.2730   37.6090 C   0  0  0  0  0  0  0  0  0  0  0  0
   37.4150   28.5220   38.5840 C   0  0  0  0  0  0  0  0  0  0  0  0
   37.6120   29.3260   39.6600 C   0  0  0  0  0  0  0  0  0  0  0  0
   37.1100   30.5450   39.3470 N   0  0  0  0  0  0  0  0  0  0  0  0
   36.6160   30.4890   38.1130 N   0  0  0  0  0  0  0  0  0  0  0  0
   37.7070   27.4850   38.5200 H   0  0  0  0  0  0  0  0  0  0  0  0
   38.0660   29.1400   40.6180 H   0  0  0  0  0  0  0  0  0  0  0  0
   35.4810   27.1740   34.8910 C   0  0  0  0  0  0  0  0  0  0  0  0
   35.6420   27.9810   33.7620 C   0  0  0  0  0  0  0  0  0  0  0  0
   36.1910   29.2250   33.9490 C   0  0  0  0  0  0  0  0  0  0  0  0
   36.5460   29.6040   35.2130 N   0  0  0  0  0  0  0  0  0  0  0  0
   36.3770   28.8000   36.2810 C   0  0  0  0  0  0  0  0  0  0  0  0
   35.8380   27.5650   36.1300 N   0  0  0  0  0  0  0  0  0  0  0  0
   35.0430   26.2080   34.6730 H   0  0  0  0  0  0  0  0  0  0  0  0
   35.3680   27.6980   32.7710 H   0  0  0  0  0  0  0  0  0  0  0  0
   36.3760   29.9570   33.1750 H   0  0  0  0  0  0  0  0  0  0  0  0
   40.4100   30.9990   40.8290 C   0  0  1  0  0  0  0  0  0  0  0  0
   41.4250   31.1050   41.9750 C   0  0  0  0  0  0  0  0  0  0  0  0
   40.4120   30.0310   41.9290 C   0  0  1  0  0  0  0  0  0  0  0  0
   40.9160   30.6650   39.8750 H   0  0  0  0  0  0  0  0  0  0  0  0
   41.2440   31.9160   42.7170 H   0  0  0  0  0  0  0  0  0  0  0  0
   42.4910   30.8930   41.7800 H   0  0  0  0  0  0  0  0  0  0  0  0
   40.8270   29.0100   41.7150 H   0  0  0  0  0  0  0  0  0  0  0  0
   39.2480   30.0040   42.9180 C   0  0  0  0  0  0  0  0  0  0  0  0
   39.6770   30.3550   43.8780 H   0  0  0  0  0  0  0  0  0  0  0  0
   38.4010   30.6280   42.5480 H   0  0  0  0  0  0  0  0  0  0  0  0
   38.7430   28.7010   43.1320 N   0  0  0  0  0  0  0  0  0  0  0  0
   37.4710   28.5170   43.6790 C   0  0  0  0  0  2  0  0  0  0  0  0
   36.5620   27.7400   42.7460 C   0  0  0  0  0  2  0  0  0  0  0  0
   37.2030   26.3780   42.5710 C   0  0  0  0  0  3  0  0  0  0  0  0
   36.6080   25.7560   41.8470 H   0  0  0  0  0  0  0  0  0  0  0  0
   38.5600   26.5360   41.9750 C   0  0  0  0  0  2  0  0  0  0  0  0
   39.4180   27.5990   42.5940 C   0  0  0  0  0  2  0  0  0  0  0  0
  1  7  1  0  0  0  0
  2  8  1  1  0  0  0
  2  1  1  0  0  0  0
  3  9  1  0  0  0  0
  3  2  1  0  0  0  0
  4  3  1  0  0  0  0
  4  5  1  0  0  0  0
  5 12  1  0  0  0  0
  5  6  1  0  0  0  0
  6 31  1  0  0  0  0
  6  1  1  0  0  0  0
  6 14  1  1  0  0  0
 10  3  1  0  0  0  0
 11  4  1  0  0  0  0
 13  5  1  0  0  0  0
 15 19  2  0  0  0  0
 15 16  1  0  0  0  0
 16 17  2  0  0  0  0
 17 21  1  0  0  0  0
 18 17  1  0  0  0  0
 18  2  1  0  0  0  0
 19 18  1  0  0  0  0
 20 16  1  0  0  0  0
 22 27  1  0  0  0  0
 23 24  1  0  0  0  0
 23 22  2  0  0  0  0
 24 25  2  0  0  0  0
 25 26  1  0  0  0  0
 26 15  1  0  0  0  0
 27 26  2  0  0  0  0
 28 22  1  0  0  0  0
 29 23  1  0  0  0  0
 30 24  1  0  0  0  0
 31 34  1  6  0  0  0
 31 33  1  0  0  0  0
 31 32  1  0  0  0  0
 32 35  1  0  0  0  0
 33 37  1  6  0  0  0
 33 32  1  0  0  0  0
 33 38  1  0  0  0  0
 36 32  1  0  0  0  0
 38 41  1  0  0  0  0
 38 39  1  0  0  0  0
 40 38  1  0  0  0  0
 41 42  1  0  0  0  0
 43 42  1  0  0  0  0
 44 43  1  0  0  0  0
 45 44  1  0  0  0  0
 46 44  1  0  0  0  0
 46 47  1  0  0  0  0
 47 41  1  0  0  0  0
M  END
>  <minimizedAffinity>
-5.47677231

$$$$

 OpenBabel03242520083D

 47 51  0  0  1  0  0  0  0  0999 V2000
   41.6330   31.5050   39.5520 N   0  0  0  0  0  0  0  0  0  0  0  0
   40.9510   32.7240   39.7440 C   0  0  1  0  0  0  0  0  0  0  0  0
   41.3640   33.6690   38.6610 C   0  0  0  0  0  0  0  0  0  0  0  0
   40.8700   33.0890   37.4370 N   0  0  0  0  0  0  0  0  0  0  0  0
   41.5480   31.8550   37.0970 C   0  0  0  0  0  0  0  0  0  0  0  0
   41.8120   30.9490   38.2740 C   0  0  2  0  0  0  0  0  0  0  0  0
   42.4830   31.4930   40.1660 H   0  0  0  0  0  0  0  0  0  0  0  0
   41.2120   33.1640   40.7040 H   0  0  0  0  0  0  0  0  0  0  0  0
   42.4860   33.7210   38.5510 H   0  0  0  0  0  0  0  0  0  0  0  0
   40.9610   34.6770   38.7550 H   0  0  0  0  0  0  0  0  0  0  0  0
   39.8470   33.0490   37.3680 H   0  0  0  0  0  0  0  0  0  0  0  0
   42.4620   32.1710   36.5540 H   0  0  0  0  0  0  0  0  0  0  0  0
   40.9020   31.3780   36.3210 H   0  0  0  0  0  0  0  0  0  0  0  0
   42.9070   30.7010   38.1950 H   0  0  0  0  0  0  0  0  0  0  0  0
   37.5990   31.6290   39.4050 C   0  0  0  0  0  0  0  0  0  0  0  0
   37.3780   32.9550   39.7320 C   0  0  0  0  0  0  0  0  0  0  0  0
   38.5890   33.5450   39.9030 C   0  0  0  0  0  0  0  0  0  0  0  0
   39.5320   32.5960   39.6850 N   0  0  0  0  0  0  0  0  0  0  0  0
   38.9150   31.4560   39.3880 N   0  0  0  0  0  0  0  0  0  0  0  0
   36.4250   33.4500   39.8380 H   0  0  0  0  0  0  0  0  0  0  0  0
   38.8640   34.5530   40.1610 H   0  0  0  0  0  0  0  0  0  0  0  0
   35.4460   29.2070   37.6780 C   0  0  0  0  0  0  0  0  0  0  0  0
   34.6130   28.7380   38.6980 C   0  0  0  0  0  0  0  0  0  0  0  0
   34.8030   29.2580   39.9550 C   0  0  0  0  0  0  0  0  0  0  0  0
   35.7820   30.1930   40.1390 N   0  0  0  0  0  0  0  0  0  0  0  0
   36.5680   30.6230   39.1330 C   0  0  0  0  0  0  0  0  0  0  0  0
   36.4060   30.1300   37.8810 N   0  0  0  0  0  0  0  0  0  0  0  0
   35.2440   28.7560   36.7150 H   0  0  0  0  0  0  0  0  0  0  0  0
   33.8470   28.0090   38.5670 H   0  0  0  0  0  0  0  0  0  0  0  0
   34.2390   28.9940   40.8390 H   0  0  0  0  0  0  0  0  0  0  0  0
   41.0040   29.6890   38.0480 C   0  0  1  0  0  0  0  0  0  0  0  0
   41.8360   28.4530   37.6860 C   0  0  0  0  0  0  0  0  0  0  0  0
   41.0700   28.5330   38.9460 C   0  0  1  0  0  0  0  0  0  0  0  0
   40.0820   29.7560   37.3960 H   0  0  0  0  0  0  0  0  0  0  0  0
   42.9420   28.5620   37.7770 H   0  0  0  0  0  0  0  0  0  0  0  0
   41.5090   27.7980   36.8590 H   0  0  0  0  0  0  0  0  0  0  0  0
   40.1720   27.8610   38.9870 H   0  0  0  0  0  0  0  0  0  0  0  0
   41.7810   28.6580   40.2930 C   0  0  0  0  0  0  0  0  0  0  0  0
   42.3890   27.7350   40.3850 H   0  0  0  0  0  0  0  0  0  0  0  0
   42.3800   29.5980   40.3370 H   0  0  0  0  0  0  0  0  0  0  0  0
   40.8830   28.6850   41.3830 N   0  0  0  0  0  0  0  0  0  0  0  0
   41.0950   29.5610   42.4510 C   0  0  0  0  0  2  0  0  0  0  0  0
   39.9310   30.5170   42.6350 C   0  0  0  0  0  2  0  0  0  0  0  0
   38.7260   29.6580   42.9600 C   0  0  0  0  0  3  0  0  0  0  0  0
   37.8060   30.2960   43.0640 H   0  0  0  0  0  0  0  0  0  0  0  0
   38.4640   28.7180   41.8340 C   0  0  0  0  0  2  0  0  0  0  0  0
   39.6660   28.0000   41.2960 C   0  0  0  0  0  2  0  0  0  0  0  0
  1  2  1  0  0  0  0
  1  7  1  0  0  0  0
  2  8  1  1  0  0  0
  3 10  1  0  0  0  0
  3  2  1  0  0  0  0
  4  3  1  0  0  0  0
  5  4  1  0  0  0  0
  5  6  1  0  0  0  0
  6 14  1  6  0  0  0
  6  1  1  0  0  0  0
  9  3  1  0  0  0  0
 11  4  1  0  0  0  0
 12  5  1  0  0  0  0
 13  5  1  0  0  0  0
 15 16  1  0  0  0  0
 16 20  1  0  0  0  0
 16 17  2  0  0  0  0
 17 21  1  0  0  0  0
 18  2  1  0  0  0  0
 18 17  1  0  0  0  0
 19 15  2  0  0  0  0
 19 18  1  0  0  0  0
 22 27  2  0  0  0  0
 22 23  1  0  0  0  0
 23 24  2  0  0  0  0
 24 25  1  0  0  0  0
 24 30  1  0  0  0  0
 26 15  1  0  0  0  0
 26 25  2  0  0  0  0
 27 26  1  0  0  0  0
 28 22  1  0  0  0  0
 29 23  1  0  0  0  0
 31 34  1  6  0  0  0
 31  6  1  0  0  0  0
 31 33  1  0  0  0  0
 32 35  1  0  0  0  0
 32 31  1  0  0  0  0
 32 33  1  0  0  0  0
 33 37  1  1  0  0  0
 33 38  1  0  0  0  0
 36 32  1  0  0  0  0
 38 40  1  0  0  0  0
 38 39  1  0  0  0  0
 38 41  1  0  0  0  0
 41 42  1  0  0  0  0
 42 43  1  0  0  0  0
 43 44  1  0  0  0  0
 44 45  1  0  0  0  0
 46 44  1  0  0  0  0
 47 41  1  0  0  0  0
 47 46  1  0  0  0  0
M  END
>  <minimizedAffinity>
-5.4284687

$$$$

 OpenBabel03242520083D

 47 51  0  0  1  0  0  0  0  0999 V2000
   37.8390   29.2400   40.1190 N   0  0  0  0  0  0  0  0  0  0  0  0
   38.0510   30.3140   39.2310 C   0  0  1  0  0  0  0  0  0  0  0  0
   36.7810   31.0990   39.1310 C   0  0  0  0  0  0  0  0  0  0  0  0
   36.5740   31.6610   40.4420 N   0  0  0  0  0  0  0  0  0  0  0  0
   36.2790   30.6500   41.4360 C   0  0  0  0  0  0  0  0  0  0  0  0
   37.1060   29.3950   41.3080 C   0  0  2  0  0  0  0  0  0  0  0  0
   37.6080   28.3820   39.5620 H   0  0  0  0  0  0  0  0  0  0  0  0
   38.3090   29.9480   38.2390 H   0  0  0  0  0  0  0  0  0  0  0  0
   35.8900   30.4370   38.9310 H   0  0  0  0  0  0  0  0  0  0  0  0
   36.8020   31.9110   38.4040 H   0  0  0  0  0  0  0  0  0  0  0  0
   37.2810   32.3490   40.7270 H   0  0  0  0  0  0  0  0  0  0  0  0
   35.1850   30.4820   41.3580 H   0  0  0  0  0  0  0  0  0  0  0  0
   36.4230   31.1630   42.4180 H   0  0  0  0  0  0  0  0  0  0  0  0
   36.3500   28.5610   41.3170 H   0  0  0  0  0  0  0  0  0  0  0  0
   40.7900   31.9230   40.7980 C   0  0  0  0  0  0  0  0  0  0  0  0
   40.4130   32.9170   39.9110 C   0  0  0  0  0  0  0  0  0  0  0  0
   39.3460   32.4590   39.2080 C   0  0  0  0  0  0  0  0  0  0  0  0
   39.0770   31.2080   39.6560 N   0  0  0  0  0  0  0  0  0  0  0  0
   39.9560   30.9090   40.6090 N   0  0  0  0  0  0  0  0  0  0  0  0
   40.8710   33.8860   39.7860 H   0  0  0  0  0  0  0  0  0  0  0  0
   38.7550   32.9090   38.4290 H   0  0  0  0  0  0  0  0  0  0  0  0
   43.8480   32.9840   42.5330 C   0  0  0  0  0  0  0  0  0  0  0  0
   43.9510   32.0670   43.5830 C   0  0  0  0  0  0  0  0  0  0  0  0
   42.9760   31.1050   43.6780 C   0  0  0  0  0  0  0  0  0  0  0  0
   41.9700   31.0950   42.7540 N   0  0  0  0  0  0  0  0  0  0  0  0
   41.9000   31.9940   41.7530 C   0  0  0  0  0  0  0  0  0  0  0  0
   42.8470   32.9570   41.6310 N   0  0  0  0  0  0  0  0  0  0  0  0
   44.6470   33.7130   42.5170 H   0  0  0  0  0  0  0  0  0  0  0  0
   44.7300   32.0660   44.3110 H   0  0  0  0  0  0  0  0  0  0  0  0
   42.9220   30.3330   44.4330 H   0  0  0  0  0  0  0  0  0  0  0  0
   37.9580   29.3010   42.5560 C   0  0  1  0  0  0  0  0  0  0  0  0
   37.3540   28.4490   43.6790 C   0  0  0  0  0  0  0  0  0  0  0  0
   38.5970   28.0550   42.9870 C   0  0  1  0  0  0  0  0  0  0  0  0
   38.4030   30.2540   42.9710 H   0  0  0  0  0  0  0  0  0  0  0  0
   36.4410   27.8660   43.4160 H   0  0  0  0  0  0  0  0  0  0  0  0
   37.3720   28.8250   44.7180 H   0  0  0  0  0  0  0  0  0  0  0  0
   39.5250   28.1430   43.6130 H   0  0  0  0  0  0  0  0  0  0  0  0
   38.6270   26.8520   42.0450 C   0  0  0  0  0  0  0  0  0  0  0  0
   38.0900   26.0480   42.5890 H   0  0  0  0  0  0  0  0  0  0  0  0
   38.1730   27.1110   41.0600 H   0  0  0  0  0  0  0  0  0  0  0  0
   39.9380   26.3900   41.7920 N   0  0  0  0  0  0  0  0  0  0  0  0
   40.8770   27.2280   41.1840 C   0  0  0  0  0  2  0  0  0  0  0  0
   42.0930   27.4430   42.0650 C   0  0  0  0  0  2  0  0  0  0  0  0
   42.7260   26.0790   42.2500 C   0  0  0  0  0  3  0  0  0  0  0  0
   43.6140   26.1500   42.9380 H   0  0  0  0  0  0  0  0  0  0  0  0
   41.7540   25.1620   42.9090 C   0  0  0  0  0  2  0  0  0  0  0  0
   40.3650   25.1770   42.3440 C   0  0  0  0  0  2  0  0  0  0  0  0
  1  6  1  0  0  0  0
  2  8  1  6  0  0  0
  2 18  1  0  0  0  0
  2  1  1  0  0  0  0
  3  2  1  0  0  0  0
  3  4  1  0  0  0  0
  4 11  1  0  0  0  0
  4  5  1  0  0  0  0
  5 13  1  0  0  0  0
  6 14  1  1  0  0  0
  6  5  1  0  0  0  0
  6 31  1  0  0  0  0
  7  1  1  0  0  0  0
  9  3  1  0  0  0  0
 10  3  1  0  0  0  0
 12  5  1  0  0  0  0
 15 26  1  0  0  0  0
 16 15  1  0  0  0  0
 17 18  1  0  0  0  0
 17 16  2  0  0  0  0
 18 19  1  0  0  0  0
 19 15  2  0  0  0  0
 20 16  1  0  0  0  0
 21 17  1  0  0  0  0
 22 23  1  0  0  0  0
 23 24  2  0  0  0  0
 23 29  1  0  0  0  0
 24 30  1  0  0  0  0
 25 24  1  0  0  0  0
 26 25  2  0  0  0  0
 27 26  1  0  0  0  0
 27 22  2  0  0  0  0
 28 22  1  0  0  0  0
 31 34  1  1  0  0  0
 31 33  1  0  0  0  0
 31 32  1  0  0  0  0
 32 36  1  0  0  0  0
 33 37  1  1  0  0  0
 33 32  1  0  0  0  0
 35 32  1  0  0  0  0
 38 39  1  0  0  0  0
 38 33  1  0  0  0  0
 40 38  1  0  0  0  0
 41 38  1  0  0  0  0
 41 47  1  0  0  0  0
 42 41  1  0  0  0  0
 42 43  1  0  0  0  0
 43 44  1  0  0  0  0
 44 46  1  0  0  0  0
 44 45  1  0  0  0  0
 47 46  1  0  0  0  0
M  END
>  <minimizedAffinity>
-5.39510822

$$$$

 OpenBabel03242520083D

 47 51  0  0  1  0  0  0  0  0999 V2000
   36.7230   27.6060   40.5020 N   0  0  0  0  0  0  0  0  0  0  0  0
   35.9240   28.3090   39.5770 C   0  0  1  0  0  0  0  0  0  0  0  0
   34.9660   29.1680   40.3400 C   0  0  0  0  0  0  0  0  0  0  0  0
   35.7830   30.1370   41.0260 N   0  0  0  0  0  0  0  0  0  0  0  0
   36.6070   29.5370   42.0550 C   0  0  0  0  0  0  0  0  0  0  0  0
   37.2230   28.2170   41.6640 C   0  0  2  0  0  0  0  0  0  0  0  0
   36.3150   26.6490   40.6410 H   0  0  0  0  0  0  0  0  0  0  0  0
   35.3520   27.6190   38.9590 H   0  0  0  0  0  0  0  0  0  0  0  0
   34.4290   28.5870   41.1450 H   0  0  0  0  0  0  0  0  0  0  0  0
   34.2390   29.6980   39.7260 H   0  0  0  0  0  0  0  0  0  0  0  0
   36.2780   30.7900   40.4070 H   0  0  0  0  0  0  0  0  0  0  0  0
   35.9530   29.4850   42.9500 H   0  0  0  0  0  0  0  0  0  0  0  0
   37.3700   30.3140   42.3000 H   0  0  0  0  0  0  0  0  0  0  0  0
   36.9630   27.5260   42.5130 H   0  0  0  0  0  0  0  0  0  0  0  0
   38.4190   30.1600   37.8750 C   0  0  0  0  0  0  0  0  0  0  0  0
   37.3020   30.5740   37.1700 C   0  0  0  0  0  0  0  0  0  0  0  0
   36.2230   29.9460   37.7030 C   0  0  0  0  0  0  0  0  0  0  0  0
   36.6730   29.1620   38.7140 N   0  0  0  0  0  0  0  0  0  0  0  0
   37.9920   29.3080   38.7980 N   0  0  0  0  0  0  0  0  0  0  0  0
   37.2720   31.2680   36.3450 H   0  0  0  0  0  0  0  0  0  0  0  0
   35.1760   29.9850   37.4530 H   0  0  0  0  0  0  0  0  0  0  0  0
   41.3730   32.2560   37.2710 C   0  0  0  0  0  0  0  0  0  0  0  0
   42.4120   31.3250   37.1870 C   0  0  0  0  0  0  0  0  0  0  0  0
   42.0840   30.0000   37.3390 C   0  0  0  0  0  0  0  0  0  0  0  0
   40.7780   29.6670   37.5600 N   0  0  0  0  0  0  0  0  0  0  0  0
   39.8000   30.5910   37.6350 C   0  0  0  0  0  0  0  0  0  0  0  0
   40.0900   31.9080   37.4890 N   0  0  0  0  0  0  0  0  0  0  0  0
   41.7000   33.2810   37.1430 H   0  0  0  0  0  0  0  0  0  0  0  0
   43.4340   31.5730   37.0170 H   0  0  0  0  0  0  0  0  0  0  0  0
   42.7760   29.1700   37.3000 H   0  0  0  0  0  0  0  0  0  0  0  0
   38.7220   28.4230   41.6380 C   0  0  1  0  0  0  0  0  0  0  0  0
   39.3210   28.9270   42.9570 C   0  0  0  0  0  0  0  0  0  0  0  0
   39.6500   27.5940   42.4130 C   0  0  1  0  0  0  0  0  0  0  0  0
   39.1690   28.9750   40.7580 H   0  0  0  0  0  0  0  0  0  0  0  0
   38.6330   28.9420   43.8340 H   0  0  0  0  0  0  0  0  0  0  0  0
   40.0590   29.7490   42.9420 H   0  0  0  0  0  0  0  0  0  0  0  0
   40.6980   27.4960   42.0250 H   0  0  0  0  0  0  0  0  0  0  0  0
   39.1450   26.3210   43.0900 C   0  0  0  0  0  0  0  0  0  0  0  0
   39.8510   26.1390   43.9250 H   0  0  0  0  0  0  0  0  0  0  0  0
   38.0850   26.4400   43.4150 H   0  0  0  0  0  0  0  0  0  0  0  0
   39.1950   25.1940   42.2390 N   0  0  0  0  0  0  0  0  0  0  0  0
   38.1450   24.2720   42.2240 C   0  0  0  0  0  2  0  0  0  0  0  0
   37.5180   24.1550   40.8470 C   0  0  0  0  0  2  0  0  0  0  0  0
   38.6090   23.6430   39.9290 C   0  0  0  0  0  3  0  0  0  0  0  0
   38.2320   23.5760   38.8710 H   0  0  0  0  0  0  0  0  0  0  0  0
   39.7430   24.6100   39.9110 C   0  0  0  0  0  2  0  0  0  0  0  0
   40.1860   25.1120   41.2530 C   0  0  0  0  0  2  0  0  0  0  0  0
  1  7  1  0  0  0  0
  1  6  1  0  0  0  0
  2  8  1  6  0  0  0
  2  3  1  0  0  0  0
  2  1  1  0  0  0  0
  3  4  1  0  0  0  0
  3  9  1  0  0  0  0
  4  5  1  0  0  0  0
  5 13  1  0  0  0  0
  5 12  1  0  0  0  0
  6  5  1  0  0  0  0
  6 14  1  1  0  0  0
 10  3  1  0  0  0  0
 11  4  1  0  0  0  0
 15 19  2  0  0  0  0
 16 17  2  0  0  0  0
 16 15  1  0  0  0  0
 17 18  1  0  0  0  0
 18 19  1  0  0  0  0
 18  2  1  0  0  0  0
 20 16  1  0  0  0  0
 21 17  1  0  0  0  0
 22 27  1  0  0  0  0
 23 22  2  0  0  0  0
 23 24  1  0  0  0  0
 24 25  2  0  0  0  0
 25 26  1  0  0  0  0
 26 15  1  0  0  0  0
 27 26  2  0  0  0  0
 28 22  1  0  0  0  0
 29 23  1  0  0  0  0
 30 24  1  0  0  0  0
 31 34  1  6  0  0  0
 31  6  1  0  0  0  0
 31 33  1  0  0  0  0
 31 32  1  0  0  0  0
 32 35  1  0  0  0  0
 33 37  1  6  0  0  0
 33 32  1  0  0  0  0
 33 38  1  0  0  0  0
 36 32  1  0  0  0  0
 38 40  1  0  0  0  0
 38 39  1  0  0  0  0
 41 38  1  0  0  0  0
 42 41  1  0  0  0  0
 43 42  1  0  0  0  0
 44 43  1  0  0  0  0
 45 44  1  0  0  0  0
 46 44  1  0  0  0  0
 46 47  1  0  0  0  0
 47 41  1  0  0  0  0
M  END
>  <minimizedAffinity>
-5.37302256

$$$$

 OpenBabel03242520083D

 47 51  0  0  1  0  0  0  0  0999 V2000
   36.8010   29.7140   41.8350 N   0  0  0  0  0  0  0  0  0  0  0  0
   37.6560   29.3130   42.8820 C   0  0  1  0  0  0  0  0  0  0  0  0
   37.1400   28.0250   43.4420 C   0  0  0  0  0  0  0  0  0  0  0  0
   37.2810   27.0610   42.3790 N   0  0  0  0  0  0  0  0  0  0  0  0
   36.3970   27.3330   41.2650 C   0  0  0  0  0  0  0  0  0  0  0  0
   36.2820   28.7940   40.9080 C   0  0  2  0  0  0  0  0  0  0  0  0
   36.1090   30.4070   42.2110 H   0  0  0  0  0  0  0  0  0  0  0  0
   37.6660   30.0550   43.6770 H   0  0  0  0  0  0  0  0  0  0  0  0
   36.0370   28.0770   43.6720 H   0  0  0  0  0  0  0  0  0  0  0  0
   37.6780   27.6590   44.3160 H   0  0  0  0  0  0  0  0  0  0  0  0
   38.2520   26.8570   42.1150 H   0  0  0  0  0  0  0  0  0  0  0  0
   35.4340   26.8570   41.5410 H   0  0  0  0  0  0  0  0  0  0  0  0
   36.7950   26.7130   40.4250 H   0  0  0  0  0  0  0  0  0  0  0  0
   35.1740   28.9860   40.8700 H   0  0  0  0  0  0  0  0  0  0  0  0
   41.0020   28.2280   42.4620 C   0  0  0  0  0  0  0  0  0  0  0  0
   40.9250   29.1480   41.4300 C   0  0  0  0  0  0  0  0  0  0  0  0
   39.6750   29.6780   41.4430 C   0  0  0  0  0  0  0  0  0  0  0  0
   39.0010   29.0910   42.4630 N   0  0  0  0  0  0  0  0  0  0  0  0
   39.8170   28.2260   43.0590 N   0  0  0  0  0  0  0  0  0  0  0  0
   41.7050   29.4110   40.7320 H   0  0  0  0  0  0  0  0  0  0  0  0
   39.2050   30.4180   40.8180 H   0  0  0  0  0  0  0  0  0  0  0  0
   43.1260   25.4450   43.5690 C   0  0  0  0  0  0  0  0  0  0  0  0
   44.4180   25.9640   43.4500 C   0  0  0  0  0  0  0  0  0  0  0  0
   44.5390   27.2530   42.9930 C   0  0  0  0  0  0  0  0  0  0  0  0
   43.4060   27.9510   42.6850 N   0  0  0  0  0  0  0  0  0  0  0  0
   42.1740   27.4200   42.8120 C   0  0  0  0  0  0  0  0  0  0  0  0
   42.0200   26.1490   43.2600 N   0  0  0  0  0  0  0  0  0  0  0  0
   43.1020   24.4250   43.9330 H   0  0  0  0  0  0  0  0  0  0  0  0
   45.3090   25.4290   43.6860 H   0  0  0  0  0  0  0  0  0  0  0  0
   45.4680   27.7870   42.8500 H   0  0  0  0  0  0  0  0  0  0  0  0
   36.8570   28.9530   39.5170 C   0  0  1  0  0  0  0  0  0  0  0  0
   35.8610   29.4610   38.4670 C   0  0  0  0  0  0  0  0  0  0  0  0
   37.0350   30.2590   38.8760 C   0  0  1  0  0  0  0  0  0  0  0  0
   37.4830   28.1080   39.0990 H   0  0  0  0  0  0  0  0  0  0  0  0
   34.8750   29.8080   38.8550 H   0  0  0  0  0  0  0  0  0  0  0  0
   35.8170   28.9750   37.4760 H   0  0  0  0  0  0  0  0  0  0  0  0
   37.8340   30.3440   38.0930 H   0  0  0  0  0  0  0  0  0  0  0  0
   36.8710   31.5360   39.7000 C   0  0  0  0  0  0  0  0  0  0  0  0
   35.8820   31.9430   39.4060 H   0  0  0  0  0  0  0  0  0  0  0  0
   36.9630   31.3170   40.7890 H   0  0  0  0  0  0  0  0  0  0  0  0
   37.8410   32.5140   39.3870 N   0  0  0  0  0  0  0  0  0  0  0  0
   37.7440   33.8020   39.9210 C   0  0  0  0  0  2  0  0  0  0  0  0
   38.9610   34.1600   40.7530 C   0  0  0  0  0  2  0  0  0  0  0  0
   40.1430   34.1300   39.8050 C   0  0  0  0  0  3  0  0  0  0  0  0
   41.0970   34.3400   40.3630 H   0  0  0  0  0  0  0  0  0  0  0  0
   40.2840   32.7640   39.2260 C   0  0  0  0  0  2  0  0  0  0  0  0
   39.0160   32.1400   38.7250 C   0  0  0  0  0  2  0  0  0  0  0  0
  1  7  1  0  0  0  0
  1  2  1  0  0  0  0
  2  3  1  0  0  0  0
  2  8  1  1  0  0  0
  3  9  1  0  0  0  0
  3 10  1  0  0  0  0
  4  3  1  0  0  0  0
  5 12  1  0  0  0  0
  5  4  1  0  0  0  0
  6 14  1  6  0  0  0
  6  5  1  0  0  0  0
  6  1  1  0  0  0  0
 11  4  1  0  0  0  0
 13  5  1  0  0  0  0
 15 26  1  0  0  0  0
 15 19  2  0  0  0  0
 16 17  2  0  0  0  0
 16 15  1  0  0  0  0
 17 18  1  0  0  0  0
 18  2  1  0  0  0  0
 18 19  1  0  0  0  0
 20 16  1  0  0  0  0
 21 17  1  0  0  0  0
 22 28  1  0  0  0  0
 23 22  1  0  0  0  0
 23 29  1  0  0  0  0
 24 23  2  0  0  0  0
 25 26  2  0  0  0  0
 25 24  1  0  0  0  0
 26 27  1  0  0  0  0
 27 22  2  0  0  0  0
 30 24  1  0  0  0  0
 31 34  1  6  0  0  0
 31  6  1  0  0  0  0
 32 35  1  0  0  0  0
 32 33  1  0  0  0  0
 32 31  1  0  0  0  0
 33 37  1  6  0  0  0
 33 31  1  0  0  0  0
 33 38  1  0  0  0  0
 36 32  1  0  0  0  0
 38 40  1  0  0  0  0
 39 38  1  0  0  0  0
 41 38  1  0  0  0  0
 41 42  1  0  0  0  0
 42 43  1  0  0  0  0
 44 45  1  0  0  0  0
 44 43  1  0  0  0  0
 46 44  1  0  0  0  0
 47 46  1  0  0  0  0
 47 41  1  0  0  0  0
M  END
>  <minimizedAffinity>
-5.32493401

$$$$

 OpenBabel03242520083D

 47 51  0  0  1  0  0  0  0  0999 V2000
   40.2590   32.0660   38.6180 N   0  0  0  0  0  0  0  0  0  0  0  0
   41.4060   31.3450   39.0060 C   0  0  1  0  0  0  0  0  0  0  0  0
   42.4170   32.3160   39.5290 C   0  0  0  0  0  0  0  0  0  0  0  0
   41.8330   32.8720   40.7240 N   0  0  0  0  0  0  0  0  0  0  0  0
   40.6750   33.6950   40.4420 C   0  0  0  0  0  0  0  0  0  0  0  0
   39.7600   33.1350   39.3810 C   0  0  2  0  0  0  0  0  0  0  0  0
   40.3040   32.2400   37.5840 H   0  0  0  0  0  0  0  0  0  0  0  0
   41.8380   30.8200   38.1570 H   0  0  0  0  0  0  0  0  0  0  0  0
   42.5720   33.1840   38.8240 H   0  0  0  0  0  0  0  0  0  0  0  0
   43.3820   31.8780   39.7850 H   0  0  0  0  0  0  0  0  0  0  0  0
   41.7040   32.1980   41.4880 H   0  0  0  0  0  0  0  0  0  0  0  0
   41.0880   34.6970   40.2030 H   0  0  0  0  0  0  0  0  0  0  0  0
   40.1670   33.8210   41.4280 H   0  0  0  0  0  0  0  0  0  0  0  0
   39.6140   33.9880   38.6610 H   0  0  0  0  0  0  0  0  0  0  0  0
   39.9970   29.1030   41.3610 C   0  0  0  0  0  0  0  0  0  0  0  0
   41.3390   28.9370   41.6560 C   0  0  0  0  0  0  0  0  0  0  0  0
   42.0470   29.7440   40.8250 C   0  0  0  0  0  0  0  0  0  0  0  0
   41.1540   30.3910   40.0370 N   0  0  0  0  0  0  0  0  0  0  0  0
   39.9310   29.9910   40.3770 N   0  0  0  0  0  0  0  0  0  0  0  0
   41.7660   28.2890   42.4060 H   0  0  0  0  0  0  0  0  0  0  0  0
   43.1050   29.9160   40.7230 H   0  0  0  0  0  0  0  0  0  0  0  0
   37.4700   26.5940   42.2560 C   0  0  0  0  0  0  0  0  0  0  0  0
   36.7700   27.2070   43.2990 C   0  0  0  0  0  0  0  0  0  0  0  0
   37.1740   28.4640   43.6770 C   0  0  0  0  0  0  0  0  0  0  0  0
   38.2240   29.0410   43.0210 N   0  0  0  0  0  0  0  0  0  0  0  0
   38.8780   28.4230   42.0190 C   0  0  0  0  0  0  0  0  0  0  0  0
   38.5030   27.1810   41.6220 N   0  0  0  0  0  0  0  0  0  0  0  0
   37.1000   25.6070   42.0090 H   0  0  0  0  0  0  0  0  0  0  0  0
   35.9500   26.7660   43.8190 H   0  0  0  0  0  0  0  0  0  0  0  0
   36.7320   29.0590   44.4630 H   0  0  0  0  0  0  0  0  0  0  0  0
   38.4410   32.8280   40.0570 C   0  0  1  0  0  0  0  0  0  0  0  0
   37.2650   33.6900   39.5830 C   0  0  0  0  0  0  0  0  0  0  0  0
   37.3060   32.2330   39.3460 C   0  0  1  0  0  0  0  0  0  0  0  0
   38.4310   32.7200   41.1820 H   0  0  0  0  0  0  0  0  0  0  0  0
   37.4560   34.3360   38.6950 H   0  0  0  0  0  0  0  0  0  0  0  0
   36.5760   34.1290   40.3270 H   0  0  0  0  0  0  0  0  0  0  0  0
   36.5710   31.6420   39.9540 H   0  0  0  0  0  0  0  0  0  0  0  0
   37.5040   31.6700   37.9390 C   0  0  0  0  0  0  0  0  0  0  0  0
   36.8700   32.3010   37.2840 H   0  0  0  0  0  0  0  0  0  0  0  0
   38.5830   31.6730   37.6600 H   0  0  0  0  0  0  0  0  0  0  0  0
   37.0450   30.3390   37.8160 N   0  0  0  0  0  0  0  0  0  0  0  0
   37.7520   29.4180   37.0370 C   0  0  0  0  0  2  0  0  0  0  0  0
   38.2150   28.2270   37.8550 C   0  0  0  0  0  2  0  0  0  0  0  0
   36.9590   27.5500   38.3640 C   0  0  0  0  0  3  0  0  0  0  0  0
   37.2240   26.6790   39.0250 H   0  0  0  0  0  0  0  0  0  0  0  0
   36.1860   28.5020   39.2120 C   0  0  0  0  0  2  0  0  0  0  0  0
   36.0150   29.8800   38.6450 C   0  0  0  0  0  2  0  0  0  0  0  0
  1  2  1  0  0  0  0
  1  6  1  0  0  0  0
  2  8  1  6  0  0  0
  2  3  1  0  0  0  0
  2 18  1  0  0  0  0
  3 10  1  0  0  0  0
  3  4  1  0  0  0  0
  4 11  1  0  0  0  0
  5  4  1  0  0  0  0
  5 13  1  0  0  0  0
  6 14  1  6  0  0  0
  6 31  1  0  0  0  0
  6  5  1  0  0  0  0
  7  1  1  0  0  0  0
  9  3  1  0  0  0  0
 12  5  1  0  0  0  0
 15 16  1  0  0  0  0
 15 26  1  0  0  0  0
 16 20  1  0  0  0  0
 17 16  2  0  0  0  0
 18 19  1  0  0  0  0
 18 17  1  0  0  0  0
 19 15  2  0  0  0  0
 21 17  1  0  0  0  0
 22 23  1  0  0  0  0
 23 24  2  0  0  0  0
 23 29  1  0  0  0  0
 24 30  1  0  0  0  0
 25 24  1  0  0  0  0
 26 25  2  0  0  0  0
 27 26  1  0  0  0  0
 27 22  2  0  0  0  0
 28 22  1  0  0  0  0
 31 34  1  1  0  0  0
 32 31  1  0  0  0  0
 32 36  1  0  0  0  0
 33 32  1  0  0  0  0
 33 37  1  1  0  0  0
 33 31  1  0  0  0  0
 35 32  1  0  0  0  0
 38 33  1  0  0  0  0
 39 38  1  0  0  0  0
 40 38  1  0  0  0  0
 41 38  1  0  0  0  0
 41 47  1  0  0  0  0
 42 41  1  0  0  0  0
 42 43  1  0  0  0  0
 43 44  1  0  0  0  0
 44 45  1  0  0  0  0
 44 46  1  0  0  0  0
 47 46  1  0  0  0  0
M  END
>  <minimizedAffinity>
-5.2831974

$$$$

 OpenBabel03242520083D

 47 51  0  0  1  0  0  0  0  0999 V2000
   37.1540   27.6840   41.1760 N   0  0  0  0  0  0  0  0  0  0  0  0
   37.0440   28.9230   40.5130 C   0  0  1  0  0  0  0  0  0  0  0  0
   36.7350   29.9750   41.5320 C   0  0  0  0  0  0  0  0  0  0  0  0
   37.9000   30.0420   42.3790 N   0  0  0  0  0  0  0  0  0  0  0  0
   38.0800   28.8400   43.1660 C   0  0  0  0  0  0  0  0  0  0  0  0
   37.8020   27.5610   42.4160 C   0  0  2  0  0  0  0  0  0  0  0  0
   36.2380   27.1790   41.1000 H   0  0  0  0  0  0  0  0  0  0  0  0
   36.2370   28.9010   39.7840 H   0  0  0  0  0  0  0  0  0  0  0  0
   35.8790   29.6740   42.2020 H   0  0  0  0  0  0  0  0  0  0  0  0
   36.5460   30.9670   41.1210 H   0  0  0  0  0  0  0  0  0  0  0  0
   38.7490   30.3790   41.9100 H   0  0  0  0  0  0  0  0  0  0  0  0
   37.4450   28.9870   44.0630 H   0  0  0  0  0  0  0  0  0  0  0  0
   39.1300   28.9000   43.5430 H   0  0  0  0  0  0  0  0  0  0  0  0
   37.0930   26.9960   43.0820 H   0  0  0  0  0  0  0  0  0  0  0  0
   39.7630   30.6500   39.0380 C   0  0  0  0  0  0  0  0  0  0  0  0
   40.1260   29.3480   38.7400 C   0  0  0  0  0  0  0  0  0  0  0  0
   39.1690   28.5280   39.2440 C   0  0  0  0  0  0  0  0  0  0  0  0
   38.2400   29.3150   39.8400 N   0  0  0  0  0  0  0  0  0  0  0  0
   38.6170   30.5830   39.7040 N   0  0  0  0  0  0  0  0  0  0  0  0
   41.0050   29.0230   38.2050 H   0  0  0  0  0  0  0  0  0  0  0  0
   39.0660   27.4560   39.2330 H   0  0  0  0  0  0  0  0  0  0  0  0
   41.9890   32.9990   37.3020 C   0  0  0  0  0  0  0  0  0  0  0  0
   41.8860   34.1610   38.0700 C   0  0  0  0  0  0  0  0  0  0  0  0
   41.0600   34.1210   39.1660 C   0  0  0  0  0  0  0  0  0  0  0  0
   40.3910   32.9620   39.4440 N   0  0  0  0  0  0  0  0  0  0  0  0
   40.5130   31.8590   38.6810 C   0  0  0  0  0  0  0  0  0  0  0  0
   41.3210   31.8650   37.5920 N   0  0  0  0  0  0  0  0  0  0  0  0
   42.6550   33.0990   36.4540 H   0  0  0  0  0  0  0  0  0  0  0  0
   42.4020   35.0710   37.8640 H   0  0  0  0  0  0  0  0  0  0  0  0
   40.8800   34.9380   39.8520 H   0  0  0  0  0  0  0  0  0  0  0  0
   39.1110   26.8050   42.3380 C   0  0  1  0  0  0  0  0  0  0  0  0
   39.5750   26.1910   43.6650 C   0  0  0  0  0  0  0  0  0  0  0  0
   39.1990   25.3520   42.5090 C   0  0  1  0  0  0  0  0  0  0  0  0
   39.9770   27.2920   41.7980 H   0  0  0  0  0  0  0  0  0  0  0  0
   38.8420   26.2250   44.5040 H   0  0  0  0  0  0  0  0  0  0  0  0
   40.6300   26.2960   43.9750 H   0  0  0  0  0  0  0  0  0  0  0  0
   40.0600   24.8270   42.0160 H   0  0  0  0  0  0  0  0  0  0  0  0
   37.9230   24.5120   42.5280 C   0  0  0  0  0  0  0  0  0  0  0  0
   38.1210   23.7030   43.2590 H   0  0  0  0  0  0  0  0  0  0  0  0
   37.0390   25.1430   42.7830 H   0  0  0  0  0  0  0  0  0  0  0  0
   37.6530   23.9010   41.2820 N   0  0  0  0  0  0  0  0  0  0  0  0
   36.3970   24.0390   40.6850 C   0  0  0  0  0  2  0  0  0  0  0  0
   36.4910   24.6960   39.3210 C   0  0  0  0  0  2  0  0  0  0  0  0
   37.3240   23.7680   38.4610 C   0  0  0  0  0  3  0  0  0  0  0  0
   37.4800   24.2140   37.4410 H   0  0  0  0  0  0  0  0  0  0  0  0
   38.6780   23.6090   39.0640 C   0  0  0  0  0  2  0  0  0  0  0  0
   38.7020   23.3470   40.5400 C   0  0  0  0  0  2  0  0  0  0  0  0
  1  6  1  0  0  0  0
  2  8  1  6  0  0  0
  2  1  1  0  0  0  0
  2  3  1  0  0  0  0
  3  9  1  0  0  0  0
  3  4  1  0  0  0  0
  4  5  1  0  0  0  0
  5 13  1  0  0  0  0
  5 12  1  0  0  0  0
  6 14  1  1  0  0  0
  6  5  1  0  0  0  0
  7  1  1  0  0  0  0
 10  3  1  0  0  0  0
 11  4  1  0  0  0  0
 15 19  2  0  0  0  0
 16 15  1  0  0  0  0
 16 17  2  0  0  0  0
 17 18  1  0  0  0  0
 18  2  1  0  0  0  0
 19 18  1  0  0  0  0
 20 16  1  0  0  0  0
 21 17  1  0  0  0  0
 22 27  2  0  0  0  0
 22 23  1  0  0  0  0
 23 24  2  0  0  0  0
 24 25  1  0  0  0  0
 24 30  1  0  0  0  0
 26 15  1  0  0  0  0
 26 25  2  0  0  0  0
 27 26  1  0  0  0  0
 28 22  1  0  0  0  0
 29 23  1  0  0  0  0
 31 34  1  6  0  0  0
 31  6  1  0  0  0  0
 31 33  1  0  0  0  0
 31 32  1  0  0  0  0
 32 36  1  0  0  0  0
 32 35  1  0  0  0  0
 33 37  1  6  0  0  0
 33 38  1  0  0  0  0
 33 32  1  0  0  0  0
 38 40  1  0  0  0  0
 38 39  1  0  0  0  0
 41 38  1  0  0  0  0
 42 41  1  0  0  0  0
 43 42  1  0  0  0  0
 44 46  1  0  0  0  0
 44 43  1  0  0  0  0
 45 44  1  0  0  0  0
 46 47  1  0  0  0  0
 47 41  1  0  0  0  0
M  END
>  <minimizedAffinity>
-5.23284531

$$$$
