
 OpenBabel03252507213D

 42 45  0  0  1  0  0  0  0  0999 V2000
   39.0680   29.1760   40.4490 C   0  0  0  0  0  0  0  0  0  0  0  0
   39.6710   28.6790   39.4560 O   0  0  0  0  0  0  0  0  0  0  0  0
   38.5510   28.4050   41.5420 N   0  0  0  0  0  0  0  0  0  0  0  0
   38.6150   28.6310   42.9840 C   0  0  0  0  0  0  0  0  0  0  0  0
   37.2080   28.5370   43.5800 C   0  0  0  0  0  0  0  0  0  0  0  0
   36.6840   27.1400   43.3910 C   0  0  0  0  0  0  0  0  0  0  0  0
   37.5190   26.3890   42.4030 C   0  0  0  0  0  0  0  0  0  0  0  0
   37.8430   27.2050   41.1910 C   0  0  2  0  0  0  0  0  0  0  0  0
   39.2970   27.9590   43.5070 H   0  0  0  0  0  0  0  0  0  0  0  0
   38.9030   29.7240   43.0630 H   0  0  0  0  0  0  0  0  0  0  0  0
   37.2230   28.8700   44.6160 H   0  0  0  0  0  0  0  0  0  0  0  0
   36.5940   29.2110   42.9170 H   0  0  0  0  0  0  0  0  0  0  0  0
   36.8270   26.6270   44.3750 H   0  0  0  0  0  0  0  0  0  0  0  0
   35.5960   27.0810   43.1940 H   0  0  0  0  0  0  0  0  0  0  0  0
   38.4710   26.0500   42.8500 H   0  0  0  0  0  0  0  0  0  0  0  0
   36.9170   25.5090   42.0870 H   0  0  0  0  0  0  0  0  0  0  0  0
   36.8910   27.5220   40.7210 H   0  0  0  0  0  0  0  0  0  0  0  0
   39.9680   31.3940   40.9600 C   0  0  0  0  0  0  0  0  0  0  0  0
   38.8930   30.6060   40.4800 C   0  0  0  0  0  0  0  0  0  0  0  0
   37.7370   31.2240   40.0670 C   0  0  0  0  0  0  0  0  0  0  0  0
   37.6640   32.5700   40.1330 N   0  0  0  0  0  0  0  0  0  0  0  0
   38.6840   33.3410   40.5900 C   0  0  0  0  0  0  0  0  0  0  0  0
   39.8190   32.7330   40.9950 N   0  0  0  0  0  0  0  0  0  0  0  0
   40.8910   30.9250   41.2920 H   0  0  0  0  0  0  0  0  0  0  0  0
   38.5520   34.4120   40.6130 H   0  0  0  0  0  0  0  0  0  0  0  0
   36.6450   30.4050   39.5840 C   0  0  0  0  0  0  0  0  0  0  0  0
   35.6590   30.0040   40.4370 C   0  0  0  0  0  0  0  0  0  0  0  0
   34.6300   29.2280   39.9580 C   0  0  0  0  0  0  0  0  0  0  0  0
   34.5430   28.8260   38.6340 C   0  0  0  0  0  0  0  0  0  0  0  0
   35.5630   29.2570   37.8140 C   0  0  0  0  0  0  0  0  0  0  0  0
   36.5520   30.0120   38.3110 N   0  0  0  0  0  0  0  0  0  0  0  0
   35.5750   30.2190   41.4820 H   0  0  0  0  0  0  0  0  0  0  0  0
   33.8020   28.8690   40.5890 H   0  0  0  0  0  0  0  0  0  0  0  0
   33.7290   28.2140   38.2690 H   0  0  0  0  0  0  0  0  0  0  0  0
   35.5570   28.9770   36.7650 H   0  0  0  0  0  0  0  0  0  0  0  0
   38.5810   26.4840   40.2110 N   0  0  0  0  0  0  0  0  0  0  0  0
   39.5770   25.5910   40.7170 C   0  0  0  0  0  2  0  0  0  0  0  0
   40.4580   25.1110   39.5870 C   0  0  0  0  0  2  0  0  0  0  0  0
   39.6450   24.4410   38.5030 C   0  0  0  0  0  3  0  0  0  0  0  0
   39.9440   24.9040   37.5410 H   0  0  0  0  0  0  0  0  0  0  0  0
   38.1580   24.5610   38.7330 C   0  0  0  0  0  2  0  0  0  0  0  0
   37.8550   25.9940   39.0920 C   0  0  0  0  0  2  0  0  0  0  0  0
  1 19  1  0  0  0  0
  1  3  1  0  0  0  0
  2  1  2  0  0  0  0
  3  4  1  0  0  0  0
  4 10  1  0  0  0  0
  4  9  1  0  0  0  0
  4  5  1  0  0  0  0
  5 11  1  0  0  0  0
  6  5  1  0  0  0  0
  6 13  1  0  0  0  0
  7 15  1  0  0  0  0
  7  6  1  0  0  0  0
  8 17  1  6  0  0  0
  8  3  1  0  0  0  0
  8  7  1  0  0  0  0
 12  5  1  0  0  0  0
 14  6  1  0  0  0  0
 16  7  1  0  0  0  0
 18 23  1  0  0  0  0
 18 24  1  0  0  0  0
 19 18  2  0  0  0  0
 20 21  2  0  0  0  0
 20 19  1  0  0  0  0
 21 22  1  0  0  0  0
 22 25  1  0  0  0  0
 22 23  2  0  0  0  0
 26 20  1  0  0  0  0
 26 27  1  0  0  0  0
 27 32  1  0  0  0  0
 28 27  2  0  0  0  0
 28 33  1  0  0  0  0
 29 28  1  0  0  0  0
 30 31  1  0  0  0  0
 30 29  2  0  0  0  0
 31 26  2  0  0  0  0
 34 29  1  0  0  0  0
 35 30  1  0  0  0  0
 36 37  1  0  0  0  0
 36  8  1  0  0  0  0
 38 37  1  0  0  0  0
 39 41  1  0  0  0  0
 39 38  1  0  0  0  0
 40 39  1  0  0  0  0
 41 42  1  0  0  0  0
 42 36  1  0  0  0  0
M  END
>  <minimizedAffinity>
-6.05866909

$$$$

 OpenBabel03252507213D

 42 45  0  0  1  0  0  0  0  0999 V2000
   38.9270   28.1560   40.0850 C   0  0  0  0  0  0  0  0  0  0  0  0
   39.1830   27.3220   39.1700 O   0  0  0  0  0  0  0  0  0  0  0  0
   38.4260   27.7990   41.3780 N   0  0  0  0  0  0  0  0  0  0  0  0
   38.8080   28.2610   42.7110 C   0  0  0  0  0  0  0  0  0  0  0  0
   37.5590   28.7130   43.4730 C   0  0  0  0  0  0  0  0  0  0  0  0
   36.6500   27.5340   43.6770 C   0  0  0  0  0  0  0  0  0  0  0  0
   37.0570   26.3920   42.7990 C   0  0  0  0  0  0  0  0  0  0  0  0
   37.3670   26.8290   41.4020 C   0  0  2  0  0  0  0  0  0  0  0  0
   39.3630   27.5230   43.2930 H   0  0  0  0  0  0  0  0  0  0  0  0
   39.3920   29.2090   42.5000 H   0  0  0  0  0  0  0  0  0  0  0  0
   37.8510   29.2150   44.3950 H   0  0  0  0  0  0  0  0  0  0  0  0
   37.0440   29.4060   42.7490 H   0  0  0  0  0  0  0  0  0  0  0  0
   36.8230   27.1960   44.7290 H   0  0  0  0  0  0  0  0  0  0  0  0
   35.5700   27.7730   43.6280 H   0  0  0  0  0  0  0  0  0  0  0  0
   37.9450   25.8690   43.1980 H   0  0  0  0  0  0  0  0  0  0  0  0
   36.1910   25.6940   42.7690 H   0  0  0  0  0  0  0  0  0  0  0  0
   36.4680   27.3260   40.9860 H   0  0  0  0  0  0  0  0  0  0  0  0
   40.4580   30.0650   40.0210 C   0  0  0  0  0  0  0  0  0  0  0  0
   39.1570   29.5500   39.8020 C   0  0  0  0  0  0  0  0  0  0  0  0
   38.1730   30.3880   39.3360 C   0  0  0  0  0  0  0  0  0  0  0  0
   38.4800   31.6810   39.1010 N   0  0  0  0  0  0  0  0  0  0  0  0
   39.7220   32.1900   39.3050 C   0  0  0  0  0  0  0  0  0  0  0  0
   40.6890   31.3680   39.7630 N   0  0  0  0  0  0  0  0  0  0  0  0
   41.2520   29.4190   40.3900 H   0  0  0  0  0  0  0  0  0  0  0  0
   39.8930   33.2360   39.0940 H   0  0  0  0  0  0  0  0  0  0  0  0
   36.8450   29.8500   39.1220 C   0  0  0  0  0  0  0  0  0  0  0  0
   35.9240   29.8760   40.1280 C   0  0  0  0  0  0  0  0  0  0  0  0
   34.6690   29.3610   39.9040 C   0  0  0  0  0  0  0  0  0  0  0  0
   34.2870   28.8080   38.6910 C   0  0  0  0  0  0  0  0  0  0  0  0
   35.2540   28.8060   37.7090 C   0  0  0  0  0  0  0  0  0  0  0  0
   36.4670   29.3150   37.9590 N   0  0  0  0  0  0  0  0  0  0  0  0
   36.0530   30.2580   41.1190 H   0  0  0  0  0  0  0  0  0  0  0  0
   33.8770   29.3490   40.6690 H   0  0  0  0  0  0  0  0  0  0  0  0
   33.2970   28.4050   38.5260 H   0  0  0  0  0  0  0  0  0  0  0  0
   35.0210   28.3860   36.7340 H   0  0  0  0  0  0  0  0  0  0  0  0
   37.6910   25.7460   40.5360 N   0  0  0  0  0  0  0  0  0  0  0  0
   38.4680   24.6960   41.1200 C   0  0  0  0  0  2  0  0  0  0  0  0
   38.9700   23.7670   40.0390 C   0  0  0  0  0  2  0  0  0  0  0  0
   37.8260   23.1970   39.2310 C   0  0  0  0  0  3  0  0  0  0  0  0
   38.0720   23.3590   38.1620 H   0  0  0  0  0  0  0  0  0  0  0  0
   36.4960   23.8130   39.5890 C   0  0  0  0  0  2  0  0  0  0  0  0
   36.6750   25.3100   39.6450 C   0  0  0  0  0  2  0  0  0  0  0  0
  1  3  1  0  0  0  0
  2  1  2  0  0  0  0
  3  8  1  0  0  0  0
  3  4  1  0  0  0  0
  4  9  1  0  0  0  0
  4  5  1  0  0  0  0
  5  6  1  0  0  0  0
  5 11  1  0  0  0  0
  6 13  1  0  0  0  0
  7 15  1  0  0  0  0
  7  6  1  0  0  0  0
  8 17  1  6  0  0  0
  8  7  1  0  0  0  0
 10  4  1  0  0  0  0
 12  5  1  0  0  0  0
 14  6  1  0  0  0  0
 16  7  1  0  0  0  0
 18 24  1  0  0  0  0
 19 18  1  0  0  0  0
 19  1  1  0  0  0  0
 20 19  2  0  0  0  0
 21 22  2  0  0  0  0
 21 20  1  0  0  0  0
 22 23  1  0  0  0  0
 23 18  2  0  0  0  0
 25 22  1  0  0  0  0
 26 20  1  0  0  0  0
 26 27  1  0  0  0  0
 27 32  1  0  0  0  0
 28 27  2  0  0  0  0
 28 33  1  0  0  0  0
 29 28  1  0  0  0  0
 30 31  1  0  0  0  0
 30 29  2  0  0  0  0
 31 26  2  0  0  0  0
 34 29  1  0  0  0  0
 35 30  1  0  0  0  0
 36 37  1  0  0  0  0
 36  8  1  0  0  0  0
 38 37  1  0  0  0  0
 39 41  1  0  0  0  0
 39 38  1  0  0  0  0
 40 39  1  0  0  0  0
 41 42  1  0  0  0  0
 42 36  1  0  0  0  0
M  END
>  <minimizedAffinity>
-5.89234447

$$$$

 OpenBabel03252507213D

 42 45  0  0  1  0  0  0  0  0999 V2000
   39.5850   29.9070   40.9290 C   0  0  0  0  0  0  0  0  0  0  0  0
   40.5080   29.1910   41.4120 O   0  0  0  0  0  0  0  0  0  0  0  0
   38.1880   29.6370   41.0980 N   0  0  0  0  0  0  0  0  0  0  0  0
   37.0760   30.5260   41.4240 C   0  0  0  0  0  0  0  0  0  0  0  0
   35.9510   30.3350   40.4020 C   0  0  0  0  0  0  0  0  0  0  0  0
   35.4200   28.9330   40.5090 C   0  0  0  0  0  0  0  0  0  0  0  0
   36.3490   28.0710   41.3050 C   0  0  0  0  0  0  0  0  0  0  0  0
   37.7820   28.2700   40.9190 C   0  0  2  0  0  0  0  0  0  0  0  0
   36.6940   30.4040   42.4390 H   0  0  0  0  0  0  0  0  0  0  0  0
   37.4990   31.5570   41.2170 H   0  0  0  0  0  0  0  0  0  0  0  0
   35.1970   31.1090   40.5350 H   0  0  0  0  0  0  0  0  0  0  0  0
   36.4790   30.4120   39.4100 H   0  0  0  0  0  0  0  0  0  0  0  0
   34.4780   29.0110   41.1080 H   0  0  0  0  0  0  0  0  0  0  0  0
   35.1090   28.4850   39.5450 H   0  0  0  0  0  0  0  0  0  0  0  0
   36.2580   28.2670   42.3880 H   0  0  0  0  0  0  0  0  0  0  0  0
   36.0670   27.0180   41.0870 H   0  0  0  0  0  0  0  0  0  0  0  0
   37.8850   28.0450   39.8390 H   0  0  0  0  0  0  0  0  0  0  0  0
   40.4080   32.2120   40.8730 C   0  0  0  0  0  0  0  0  0  0  0  0
   39.9690   31.0670   40.1640 C   0  0  0  0  0  0  0  0  0  0  0  0
   39.9230   31.1010   38.7910 C   0  0  0  0  0  0  0  0  0  0  0  0
   40.3000   32.2320   38.1590 N   0  0  0  0  0  0  0  0  0  0  0  0
   40.7240   33.3390   38.8230 C   0  0  0  0  0  0  0  0  0  0  0  0
   40.7690   33.3050   40.1710 N   0  0  0  0  0  0  0  0  0  0  0  0
   40.4520   32.2050   41.9590 H   0  0  0  0  0  0  0  0  0  0  0  0
   41.0100   34.2080   38.2480 H   0  0  0  0  0  0  0  0  0  0  0  0
   39.4660   29.9260   38.0800 C   0  0  0  0  0  0  0  0  0  0  0  0
   40.3310   28.9070   37.8110 C   0  0  0  0  0  0  0  0  0  0  0  0
   39.8760   27.7980   37.1350 C   0  0  0  0  0  0  0  0  0  0  0  0
   38.5630   27.6630   36.7090 C   0  0  0  0  0  0  0  0  0  0  0  0
   37.7300   28.7200   37.0060 C   0  0  0  0  0  0  0  0  0  0  0  0
   38.2040   29.7850   37.6650 N   0  0  0  0  0  0  0  0  0  0  0  0
   41.3700   28.8510   38.0620 H   0  0  0  0  0  0  0  0  0  0  0  0
   40.5180   26.9400   36.8850 H   0  0  0  0  0  0  0  0  0  0  0  0
   38.2170   26.7870   36.1770 H   0  0  0  0  0  0  0  0  0  0  0  0
   36.6890   28.6780   36.6980 H   0  0  0  0  0  0  0  0  0  0  0  0
   38.6750   27.4110   41.6190 N   0  0  0  0  0  0  0  0  0  0  0  0
   38.4050   27.2390   43.0140 C   0  0  0  0  0  2  0  0  0  0  0  0
   39.5690   26.5430   43.6790 C   0  0  0  0  0  2  0  0  0  0  0  0
   39.8580   25.2100   43.0260 C   0  0  0  0  0  3  0  0  0  0  0  0
   40.9430   25.1880   42.8000 H   0  0  0  0  0  0  0  0  0  0  0  0
   39.0330   24.9800   41.7830 C   0  0  0  0  0  2  0  0  0  0  0  0
   39.0930   26.2330   40.9440 C   0  0  0  0  0  2  0  0  0  0  0  0
  1  3  1  0  0  0  0
  1  2  2  0  0  0  0
  3  4  1  0  0  0  0
  4  9  1  0  0  0  0
  5  6  1  0  0  0  0
  5 11  1  0  0  0  0
  5  4  1  0  0  0  0
  6 13  1  0  0  0  0
  6  7  1  0  0  0  0
  7 15  1  0  0  0  0
  8 17  1  6  0  0  0
  8  3  1  0  0  0  0
  8  7  1  0  0  0  0
  8 36  1  0  0  0  0
 10  4  1  0  0  0  0
 12  5  1  0  0  0  0
 14  6  1  0  0  0  0
 16  7  1  0  0  0  0
 18 24  1  0  0  0  0
 19 18  2  0  0  0  0
 19  1  1  0  0  0  0
 20 19  1  0  0  0  0
 21 20  2  0  0  0  0
 21 22  1  0  0  0  0
 22 23  2  0  0  0  0
 23 18  1  0  0  0  0
 25 22  1  0  0  0  0
 26 20  1  0  0  0  0
 27 32  1  0  0  0  0
 27 26  1  0  0  0  0
 28 27  2  0  0  0  0
 29 30  2  0  0  0  0
 29 28  1  0  0  0  0
 30 31  1  0  0  0  0
 31 26  2  0  0  0  0
 33 28  1  0  0  0  0
 34 29  1  0  0  0  0
 35 30  1  0  0  0  0
 36 37  1  0  0  0  0
 37 38  1  0  0  0  0
 39 38  1  0  0  0  0
 40 39  1  0  0  0  0
 41 39  1  0  0  0  0
 42 36  1  0  0  0  0
 42 41  1  0  0  0  0
M  END
>  <minimizedAffinity>
-5.67805004

$$$$

 OpenBabel03252507213D

 42 45  0  0  1  0  0  0  0  0999 V2000
   39.9070   29.5030   39.2870 C   0  0  0  0  0  0  0  0  0  0  0  0
   40.3380   29.1600   40.4240 O   0  0  0  0  0  0  0  0  0  0  0  0
   38.5320   29.7860   39.0020 N   0  0  0  0  0  0  0  0  0  0  0  0
   37.9190   30.8690   38.2370 C   0  0  0  0  0  0  0  0  0  0  0  0
   36.9580   30.2820   37.1980 C   0  0  0  0  0  0  0  0  0  0  0  0
   35.8370   29.5740   37.9060 C   0  0  0  0  0  0  0  0  0  0  0  0
   36.1710   29.3590   39.3490 C   0  0  0  0  0  0  0  0  0  0  0  0
   37.5710   28.8650   39.5430 C   0  0  2  0  0  0  0  0  0  0  0  0
   37.4070   31.6110   38.8520 H   0  0  0  0  0  0  0  0  0  0  0  0
   38.7860   31.2900   37.6410 H   0  0  0  0  0  0  0  0  0  0  0  0
   36.6300   31.0640   36.5160 H   0  0  0  0  0  0  0  0  0  0  0  0
   37.5750   29.4910   36.6850 H   0  0  0  0  0  0  0  0  0  0  0  0
   34.9720   30.2830   37.8890 H   0  0  0  0  0  0  0  0  0  0  0  0
   35.4710   28.6640   37.3920 H   0  0  0  0  0  0  0  0  0  0  0  0
   36.0540   30.2880   39.9360 H   0  0  0  0  0  0  0  0  0  0  0  0
   35.4670   28.5850   39.7240 H   0  0  0  0  0  0  0  0  0  0  0  0
   37.6850   27.9160   38.9810 H   0  0  0  0  0  0  0  0  0  0  0  0
   41.0170   28.5090   37.3450 C   0  0  0  0  0  0  0  0  0  0  0  0
   40.8640   29.6160   38.2150 C   0  0  0  0  0  0  0  0  0  0  0  0
   41.6240   30.7420   38.0110 C   0  0  0  0  0  0  0  0  0  0  0  0
   42.4970   30.7570   36.9810 N   0  0  0  0  0  0  0  0  0  0  0  0
   42.6560   29.7040   36.1380 C   0  0  0  0  0  0  0  0  0  0  0  0
   41.9090   28.5980   36.3390 N   0  0  0  0  0  0  0  0  0  0  0  0
   40.4260   27.6070   37.4900 H   0  0  0  0  0  0  0  0  0  0  0  0
   43.3740   29.7890   35.3350 H   0  0  0  0  0  0  0  0  0  0  0  0
   41.4620   31.8640   38.9120 C   0  0  0  0  0  0  0  0  0  0  0  0
   40.6880   32.9280   38.5510 C   0  0  0  0  0  0  0  0  0  0  0  0
   40.5470   33.9830   39.4220 C   0  0  0  0  0  0  0  0  0  0  0  0
   41.1590   34.0200   40.6660 C   0  0  0  0  0  0  0  0  0  0  0  0
   41.9290   32.9210   40.9820 C   0  0  0  0  0  0  0  0  0  0  0  0
   42.0470   31.9100   40.1110 N   0  0  0  0  0  0  0  0  0  0  0  0
   40.1530   33.0630   37.6340 H   0  0  0  0  0  0  0  0  0  0  0  0
   39.9390   34.8720   39.1970 H   0  0  0  0  0  0  0  0  0  0  0  0
   41.0410   34.8560   41.3420 H   0  0  0  0  0  0  0  0  0  0  0  0
   42.4380   32.8870   41.9410 H   0  0  0  0  0  0  0  0  0  0  0  0
   37.8850   28.5920   40.9050 N   0  0  0  0  0  0  0  0  0  0  0  0
   37.4030   29.5470   41.8550 C   0  0  0  0  0  2  0  0  0  0  0  0
   38.0340   29.2910   43.2040 C   0  0  0  0  0  2  0  0  0  0  0  0
   37.7600   27.8810   43.6800 C   0  0  0  0  0  3  0  0  0  0  0  0
   38.7350   27.4450   43.9770 H   0  0  0  0  0  0  0  0  0  0  0  0
   37.0750   27.0370   42.6330 C   0  0  0  0  0  2  0  0  0  0  0  0
   37.7980   27.2380   41.3240 C   0  0  0  0  0  2  0  0  0  0  0  0
  1  2  2  0  0  0  0
  3  1  1  0  0  0  0
  3  8  1  0  0  0  0
  4  9  1  0  0  0  0
  4  3  1  0  0  0  0
  5  6  1  0  0  0  0
  5  4  1  0  0  0  0
  6  7  1  0  0  0  0
  7  8  1  0  0  0  0
  7 16  1  0  0  0  0
  7 15  1  0  0  0  0
  8 17  1  6  0  0  0
  8 36  1  0  0  0  0
 10  4  1  0  0  0  0
 11  5  1  0  0  0  0
 12  5  1  0  0  0  0
 13  6  1  0  0  0  0
 14  6  1  0  0  0  0
 18 24  1  0  0  0  0
 18 19  1  0  0  0  0
 19  1  1  0  0  0  0
 20 19  2  0  0  0  0
 20 26  1  0  0  0  0
 21 20  1  0  0  0  0
 22 23  1  0  0  0  0
 22 21  2  0  0  0  0
 23 18  2  0  0  0  0
 25 22  1  0  0  0  0
 26 31  1  0  0  0  0
 27 26  2  0  0  0  0
 27 28  1  0  0  0  0
 28 29  2  0  0  0  0
 29 30  1  0  0  0  0
 29 34  1  0  0  0  0
 30 35  1  0  0  0  0
 31 30  2  0  0  0  0
 32 27  1  0  0  0  0
 33 28  1  0  0  0  0
 36 42  1  0  0  0  0
 36 37  1  0  0  0  0
 37 38  1  0  0  0  0
 38 39  1  0  0  0  0
 39 40  1  0  0  0  0
 41 39  1  0  0  0  0
 42 41  1  0  0  0  0
M  END
>  <minimizedAffinity>
-5.57828474

$$$$

 OpenBabel03252507213D

 42 45  0  0  1  0  0  0  0  0999 V2000
   39.2890   29.1490   38.8780 C   0  0  0  0  0  0  0  0  0  0  0  0
   39.3370   29.2810   40.1340 O   0  0  0  0  0  0  0  0  0  0  0  0
   38.2620   28.4300   38.1840 N   0  0  0  0  0  0  0  0  0  0  0  0
   37.5090   28.7670   36.9780 C   0  0  0  0  0  0  0  0  0  0  0  0
   37.5810   27.6010   35.9880 C   0  0  0  0  0  0  0  0  0  0  0  0
   36.9060   26.4000   36.5890 C   0  0  0  0  0  0  0  0  0  0  0  0
   36.6880   26.5920   38.0570 C   0  0  0  0  0  0  0  0  0  0  0  0
   37.8900   27.1600   38.7430 C   0  0  2  0  0  0  0  0  0  0  0  0
   36.4700   29.0430   37.1670 H   0  0  0  0  0  0  0  0  0  0  0  0
   38.1230   29.5970   36.5120 H   0  0  0  0  0  0  0  0  0  0  0  0
   37.1710   27.9070   35.0270 H   0  0  0  0  0  0  0  0  0  0  0  0
   38.6820   27.3670   35.9340 H   0  0  0  0  0  0  0  0  0  0  0  0
   35.8890   26.3600   36.1250 H   0  0  0  0  0  0  0  0  0  0  0  0
   37.3760   25.4310   36.3300 H   0  0  0  0  0  0  0  0  0  0  0  0
   35.8330   27.2640   38.2560 H   0  0  0  0  0  0  0  0  0  0  0  0
   36.4820   25.5840   38.4790 H   0  0  0  0  0  0  0  0  0  0  0  0
   38.7440   26.4740   38.5730 H   0  0  0  0  0  0  0  0  0  0  0  0
   41.2880   28.9150   37.4850 C   0  0  0  0  0  0  0  0  0  0  0  0
   40.3360   29.7630   38.1010 C   0  0  0  0  0  0  0  0  0  0  0  0
   40.4440   31.1240   37.9400 C   0  0  0  0  0  0  0  0  0  0  0  0
   41.4600   31.6100   37.1960 N   0  0  0  0  0  0  0  0  0  0  0  0
   42.3810   30.8110   36.5980 C   0  0  0  0  0  0  0  0  0  0  0  0
   42.2750   29.4750   36.7560 N   0  0  0  0  0  0  0  0  0  0  0  0
   41.2220   27.8360   37.6000 H   0  0  0  0  0  0  0  0  0  0  0  0
   43.1660   31.2720   36.0170 H   0  0  0  0  0  0  0  0  0  0  0  0
   39.4680   31.9800   38.5810 C   0  0  0  0  0  0  0  0  0  0  0  0
   39.8400   32.7980   39.6070 C   0  0  0  0  0  0  0  0  0  0  0  0
   38.8960   33.6030   40.2010 C   0  0  0  0  0  0  0  0  0  0  0  0
   37.5680   33.6260   39.8050 C   0  0  0  0  0  0  0  0  0  0  0  0
   37.2440   32.7820   38.7650 C   0  0  0  0  0  0  0  0  0  0  0  0
   38.1860   32.0100   38.2070 N   0  0  0  0  0  0  0  0  0  0  0  0
   40.8140   32.8990   40.0380 H   0  0  0  0  0  0  0  0  0  0  0  0
   39.1260   34.2860   41.0330 H   0  0  0  0  0  0  0  0  0  0  0  0
   36.8350   34.2630   40.2800 H   0  0  0  0  0  0  0  0  0  0  0  0
   36.2190   32.7500   38.4060 H   0  0  0  0  0  0  0  0  0  0  0  0
   37.7240   27.2880   40.1510 N   0  0  0  0  0  0  0  0  0  0  0  0
   36.4520   27.7830   40.5830 C   0  0  0  0  0  2  0  0  0  0  0  0
   36.5090   28.1290   42.0530 C   0  0  0  0  0  2  0  0  0  0  0  0
   36.9250   26.9350   42.8820 C   0  0  0  0  0  3  0  0  0  0  0  0
   37.7520   27.2690   43.5390 H   0  0  0  0  0  0  0  0  0  0  0  0
   37.3350   25.7530   42.0370 C   0  0  0  0  0  2  0  0  0  0  0  0
   38.2650   26.2520   40.9580 C   0  0  0  0  0  2  0  0  0  0  0  0
  1  2  2  0  0  0  0
  3  8  1  0  0  0  0
  3  1  1  0  0  0  0
  4  9  1  0  0  0  0
  4  3  1  0  0  0  0
  5  6  1  0  0  0  0
  5  4  1  0  0  0  0
  6  7  1  0  0  0  0
  7 15  1  0  0  0  0
  7 16  1  0  0  0  0
  7  8  1  0  0  0  0
  8 17  1  6  0  0  0
  8 36  1  0  0  0  0
 10  4  1  0  0  0  0
 11  5  1  0  0  0  0
 12  5  1  0  0  0  0
 13  6  1  0  0  0  0
 14  6  1  0  0  0  0
 18 24  1  0  0  0  0
 18 19  1  0  0  0  0
 19  1  1  0  0  0  0
 20 19  2  0  0  0  0
 20 26  1  0  0  0  0
 21 20  1  0  0  0  0
 22 23  1  0  0  0  0
 22 21  2  0  0  0  0
 23 18  2  0  0  0  0
 25 22  1  0  0  0  0
 26 27  1  0  0  0  0
 27 32  1  0  0  0  0
 27 28  2  0  0  0  0
 28 33  1  0  0  0  0
 29 28  1  0  0  0  0
 29 34  1  0  0  0  0
 30 29  2  0  0  0  0
 31 26  2  0  0  0  0
 31 30  1  0  0  0  0
 35 30  1  0  0  0  0
 36 37  1  0  0  0  0
 36 42  1  0  0  0  0
 37 38  1  0  0  0  0
 38 39  1  0  0  0  0
 39 40  1  0  0  0  0
 41 39  1  0  0  0  0
 42 41  1  0  0  0  0
M  END
>  <minimizedAffinity>
-5.47025537

$$$$

 OpenBabel03252507213D

 42 45  0  0  1  0  0  0  0  0999 V2000
   39.0990   29.1300   39.7600 C   0  0  0  0  0  0  0  0  0  0  0  0
   40.3520   29.2820   39.6950 O   0  0  0  0  0  0  0  0  0  0  0  0
   38.3930   28.7830   40.9570 N   0  0  0  0  0  0  0  0  0  0  0  0
   37.1560   29.3150   41.5240 C   0  0  0  0  0  0  0  0  0  0  0  0
   36.1990   28.1600   41.8380 C   0  0  0  0  0  0  0  0  0  0  0  0
   36.8100   27.2860   42.8970 C   0  0  0  0  0  0  0  0  0  0  0  0
   38.2650   27.5930   43.0650 C   0  0  0  0  0  0  0  0  0  0  0  0
   38.9730   27.7380   41.7540 C   0  0  2  0  0  0  0  0  0  0  0  0
   37.3050   29.9370   42.4080 H   0  0  0  0  0  0  0  0  0  0  0  0
   36.6870   29.8670   40.6530 H   0  0  0  0  0  0  0  0  0  0  0  0
   35.2180   28.5550   42.0980 H   0  0  0  0  0  0  0  0  0  0  0  0
   36.1850   27.5620   40.8830 H   0  0  0  0  0  0  0  0  0  0  0  0
   36.3160   27.5810   43.8560 H   0  0  0  0  0  0  0  0  0  0  0  0
   36.5920   26.2060   42.7830 H   0  0  0  0  0  0  0  0  0  0  0  0
   38.4200   28.5240   43.6410 H   0  0  0  0  0  0  0  0  0  0  0  0
   38.7070   26.7330   43.6140 H   0  0  0  0  0  0  0  0  0  0  0  0
   38.8470   26.7950   41.1860 H   0  0  0  0  0  0  0  0  0  0  0  0
   37.9120   28.1660   37.8490 C   0  0  0  0  0  0  0  0  0  0  0  0
   38.3390   29.3200   38.5500 C   0  0  0  0  0  0  0  0  0  0  0  0
   38.0200   30.5630   38.0580 C   0  0  0  0  0  0  0  0  0  0  0  0
   37.3060   30.6440   36.9160 N   0  0  0  0  0  0  0  0  0  0  0  0
   36.8880   29.5480   36.2310 C   0  0  0  0  0  0  0  0  0  0  0  0
   37.2010   28.3270   36.7140 N   0  0  0  0  0  0  0  0  0  0  0  0
   38.1530   27.1730   38.2210 H   0  0  0  0  0  0  0  0  0  0  0  0
   36.3200   29.6910   35.3240 H   0  0  0  0  0  0  0  0  0  0  0  0
   38.4700   31.7340   38.7820 C   0  0  0  0  0  0  0  0  0  0  0  0
   37.6220   32.3840   39.6300 C   0  0  0  0  0  0  0  0  0  0  0  0
   38.0690   33.4940   40.3080 C   0  0  0  0  0  0  0  0  0  0  0  0
   39.3560   33.9920   40.1720 C   0  0  0  0  0  0  0  0  0  0  0  0
   40.1720   33.2990   39.3030 C   0  0  0  0  0  0  0  0  0  0  0  0
   39.7060   32.2220   38.6570 N   0  0  0  0  0  0  0  0  0  0  0  0
   36.6030   32.1390   39.8460 H   0  0  0  0  0  0  0  0  0  0  0  0
   37.4400   34.0660   41.0070 H   0  0  0  0  0  0  0  0  0  0  0  0
   39.6960   34.8660   40.7100 H   0  0  0  0  0  0  0  0  0  0  0  0
   41.1930   33.6380   39.1500 H   0  0  0  0  0  0  0  0  0  0  0  0
   40.3710   27.9650   41.8950 N   0  0  0  0  0  0  0  0  0  0  0  0
   40.7500   28.8760   42.9320 C   0  0  0  0  0  2  0  0  0  0  0  0
   42.2110   29.2350   42.7900 C   0  0  0  0  0  2  0  0  0  0  0  0
   43.0850   28.0010   42.8200 C   0  0  0  0  0  3  0  0  0  0  0  0
   43.7580   28.0590   41.9410 H   0  0  0  0  0  0  0  0  0  0  0  0
   42.2850   26.7210   42.8180 C   0  0  0  0  0  2  0  0  0  0  0  0
   41.2220   26.8360   41.7540 C   0  0  0  0  0  2  0  0  0  0  0  0
  1  3  1  0  0  0  0
  2  1  2  0  0  0  0
  3  4  1  0  0  0  0
  3  8  1  0  0  0  0
  4  5  1  0  0  0  0
  4  9  1  0  0  0  0
  5 11  1  0  0  0  0
  5  6  1  0  0  0  0
  6  7  1  0  0  0  0
  6 13  1  0  0  0  0
  7 16  1  0  0  0  0
  7 15  1  0  0  0  0
  8 17  1  6  0  0  0
  8 36  1  0  0  0  0
  8  7  1  0  0  0  0
 10  4  1  0  0  0  0
 12  5  1  0  0  0  0
 14  6  1  0  0  0  0
 18 24  1  0  0  0  0
 18 19  1  0  0  0  0
 19  1  1  0  0  0  0
 20 19  2  0  0  0  0
 20 26  1  0  0  0  0
 21 20  1  0  0  0  0
 22 23  1  0  0  0  0
 22 21  2  0  0  0  0
 23 18  2  0  0  0  0
 25 22  1  0  0  0  0
 26 27  1  0  0  0  0
 27 32  1  0  0  0  0
 27 28  2  0  0  0  0
 28 33  1  0  0  0  0
 29 28  1  0  0  0  0
 29 34  1  0  0  0  0
 30 29  2  0  0  0  0
 31 26  2  0  0  0  0
 31 30  1  0  0  0  0
 35 30  1  0  0  0  0
 36 37  1  0  0  0  0
 38 39  1  0  0  0  0
 38 37  1  0  0  0  0
 40 39  1  0  0  0  0
 41 39  1  0  0  0  0
 42 36  1  0  0  0  0
 42 41  1  0  0  0  0
M  END
>  <minimizedAffinity>
-5.44346857

$$$$

 OpenBabel03252507213D

 42 45  0  0  1  0  0  0  0  0999 V2000
   39.2160   28.0830   39.1290 C   0  0  0  0  0  0  0  0  0  0  0  0
   40.2490   28.8080   39.2060 O   0  0  0  0  0  0  0  0  0  0  0  0
   37.8900   28.5940   38.9480 N   0  0  0  0  0  0  0  0  0  0  0  0
   36.8080   28.1510   38.0720 C   0  0  0  0  0  0  0  0  0  0  0  0
   35.5290   27.9630   38.8940 C   0  0  0  0  0  0  0  0  0  0  0  0
   35.1040   29.2900   39.4570 C   0  0  0  0  0  0  0  0  0  0  0  0
   36.2080   30.2940   39.3440 C   0  0  0  0  0  0  0  0  0  0  0  0
   37.5340   29.7310   39.7510 C   0  0  2  0  0  0  0  0  0  0  0  0
   36.6230   28.8140   37.2260 H   0  0  0  0  0  0  0  0  0  0  0  0
   37.1290   27.1070   37.7710 H   0  0  0  0  0  0  0  0  0  0  0  0
   34.7700   27.4720   38.2870 H   0  0  0  0  0  0  0  0  0  0  0  0
   35.8640   27.3280   39.7630 H   0  0  0  0  0  0  0  0  0  0  0  0
   34.2830   29.6530   38.7890 H   0  0  0  0  0  0  0  0  0  0  0  0
   34.6490   29.2370   40.4650 H   0  0  0  0  0  0  0  0  0  0  0  0
   36.3030   30.6790   38.3130 H   0  0  0  0  0  0  0  0  0  0  0  0
   35.9490   31.1260   40.0350 H   0  0  0  0  0  0  0  0  0  0  0  0
   37.4520   29.3710   40.7960 H   0  0  0  0  0  0  0  0  0  0  0  0
   39.9350   25.9750   38.1140 C   0  0  0  0  0  0  0  0  0  0  0  0
   39.3910   26.6570   39.2310 C   0  0  0  0  0  0  0  0  0  0  0  0
   39.0520   25.9430   40.3550 C   0  0  0  0  0  0  0  0  0  0  0  0
   39.2490   24.6080   40.3590 N   0  0  0  0  0  0  0  0  0  0  0  0
   39.7700   23.9390   39.2970 C   0  0  0  0  0  0  0  0  0  0  0  0
   40.1030   24.6400   38.1930 N   0  0  0  0  0  0  0  0  0  0  0  0
   40.2100   26.5210   37.2150 H   0  0  0  0  0  0  0  0  0  0  0  0
   39.8990   22.8690   39.3740 H   0  0  0  0  0  0  0  0  0  0  0  0
   38.4910   26.6510   41.4860 C   0  0  0  0  0  0  0  0  0  0  0  0
   37.1820   26.4760   41.8260 C   0  0  0  0  0  0  0  0  0  0  0  0
   36.6700   27.1580   42.9050 C   0  0  0  0  0  0  0  0  0  0  0  0
   37.4270   28.0280   43.6750 C   0  0  0  0  0  0  0  0  0  0  0  0
   38.7420   28.1700   43.2900 C   0  0  0  0  0  0  0  0  0  0  0  0
   39.2110   27.4910   42.2340 N   0  0  0  0  0  0  0  0  0  0  0  0
   36.4610   25.8510   41.3400 H   0  0  0  0  0  0  0  0  0  0  0  0
   35.6240   27.0640   43.2350 H   0  0  0  0  0  0  0  0  0  0  0  0
   37.0120   28.5590   44.5200 H   0  0  0  0  0  0  0  0  0  0  0  0
   39.3900   28.8380   43.8500 H   0  0  0  0  0  0  0  0  0  0  0  0
   38.5850   30.6910   39.7130 N   0  0  0  0  0  0  0  0  0  0  0  0
   38.5820   31.5690   38.5840 C   0  0  0  0  0  2  0  0  0  0  0  0
   39.8840   32.3340   38.5260 C   0  0  0  0  0  2  0  0  0  0  0  0
   40.1220   33.1090   39.8020 C   0  0  0  0  0  3  0  0  0  0  0  0
   41.1480   32.8640   40.1440 H   0  0  0  0  0  0  0  0  0  0  0  0
   39.0990   32.8030   40.8690 C   0  0  0  0  0  2  0  0  0  0  0  0
   38.9380   31.3050   40.9450 C   0  0  0  0  0  2  0  0  0  0  0  0
  1  2  2  0  0  0  0
  1 19  1  0  0  0  0
  3  1  1  0  0  0  0
  3  8  1  0  0  0  0
  4  5  1  0  0  0  0
  4  3  1  0  0  0  0
  5  6  1  0  0  0  0
  5 12  1  0  0  0  0
  6 14  1  0  0  0  0
  7  6  1  0  0  0  0
  7  8  1  0  0  0  0
  7 16  1  0  0  0  0
  8 17  1  1  0  0  0
  9  4  1  0  0  0  0
 10  4  1  0  0  0  0
 11  5  1  0  0  0  0
 13  6  1  0  0  0  0
 15  7  1  0  0  0  0
 18 23  2  0  0  0  0
 18 19  1  0  0  0  0
 19 20  2  0  0  0  0
 20 21  1  0  0  0  0
 20 26  1  0  0  0  0
 22 25  1  0  0  0  0
 22 21  2  0  0  0  0
 23 22  1  0  0  0  0
 24 18  1  0  0  0  0
 26 27  2  0  0  0  0
 26 31  1  0  0  0  0
 27 28  1  0  0  0  0
 28 33  1  0  0  0  0
 28 29  2  0  0  0  0
 29 34  1  0  0  0  0
 30 29  1  0  0  0  0
 30 35  1  0  0  0  0
 31 30  2  0  0  0  0
 32 27  1  0  0  0  0
 36  8  1  0  0  0  0
 36 42  1  0  0  0  0
 37 36  1  0  0  0  0
 38 37  1  0  0  0  0
 38 39  1  0  0  0  0
 39 40  1  0  0  0  0
 39 41  1  0  0  0  0
 41 42  1  0  0  0  0
M  END
>  <minimizedAffinity>
-5.41292

$$$$

 OpenBabel03252507213D

 42 45  0  0  1  0  0  0  0  0999 V2000
   36.8990   26.9730   39.3230 C   0  0  0  0  0  0  0  0  0  0  0  0
   36.6830   26.4590   40.4570 O   0  0  0  0  0  0  0  0  0  0  0  0
   38.2020   27.3010   38.8260 N   0  0  0  0  0  0  0  0  0  0  0  0
   38.8060   27.0820   37.5140 C   0  0  0  0  0  0  0  0  0  0  0  0
   39.3900   28.3990   36.9930 C   0  0  0  0  0  0  0  0  0  0  0  0
   40.5000   28.8420   37.9040 C   0  0  0  0  0  0  0  0  0  0  0  0
   40.4680   28.0800   39.1910 C   0  0  0  0  0  0  0  0  0  0  0  0
   39.0840   27.9600   39.7490 C   0  0  2  0  0  0  0  0  0  0  0  0
   39.5650   26.2980   37.5020 H   0  0  0  0  0  0  0  0  0  0  0  0
   37.9140   26.8630   36.8500 H   0  0  0  0  0  0  0  0  0  0  0  0
   39.6870   28.2840   35.9520 H   0  0  0  0  0  0  0  0  0  0  0  0
   38.5440   29.1320   37.1230 H   0  0  0  0  0  0  0  0  0  0  0  0
   41.4490   28.5470   37.3900 H   0  0  0  0  0  0  0  0  0  0  0  0
   40.5760   29.9390   38.0350 H   0  0  0  0  0  0  0  0  0  0  0  0
   40.8760   27.0600   39.0690 H   0  0  0  0  0  0  0  0  0  0  0  0
   41.0930   28.6520   39.9110 H   0  0  0  0  0  0  0  0  0  0  0  0
   38.6820   28.9810   39.9020 H   0  0  0  0  0  0  0  0  0  0  0  0
   35.1720   26.1520   37.7960 C   0  0  0  0  0  0  0  0  0  0  0  0
   35.7600   27.2420   38.4830 C   0  0  0  0  0  0  0  0  0  0  0  0
   35.2320   28.5010   38.3250 C   0  0  0  0  0  0  0  0  0  0  0  0
   34.1630   28.6580   37.5150 N   0  0  0  0  0  0  0  0  0  0  0  0
   33.5870   27.6240   36.8490 C   0  0  0  0  0  0  0  0  0  0  0  0
   34.1060   26.3880   37.0050 N   0  0  0  0  0  0  0  0  0  0  0  0
   35.5740   25.1480   37.9070 H   0  0  0  0  0  0  0  0  0  0  0  0
   32.7340   27.8280   36.2190 H   0  0  0  0  0  0  0  0  0  0  0  0
   35.8470   29.6070   39.0290 C   0  0  0  0  0  0  0  0  0  0  0  0
   36.6350   30.4950   38.3570 C   0  0  0  0  0  0  0  0  0  0  0  0
   37.2090   31.5380   39.0440 C   0  0  0  0  0  0  0  0  0  0  0  0
   37.0260   31.7360   40.4040 C   0  0  0  0  0  0  0  0  0  0  0  0
   36.2220   30.8120   41.0360 C   0  0  0  0  0  0  0  0  0  0  0  0
   35.6780   29.8060   40.3380 N   0  0  0  0  0  0  0  0  0  0  0  0
   36.8830   30.4870   37.3160 H   0  0  0  0  0  0  0  0  0  0  0  0
   37.8550   32.2910   38.5660 H   0  0  0  0  0  0  0  0  0  0  0  0
   37.4830   32.5610   40.9340 H   0  0  0  0  0  0  0  0  0  0  0  0
   36.0390   30.9080   42.1020 H   0  0  0  0  0  0  0  0  0  0  0  0
   39.0440   27.2950   41.0070 N   0  0  0  0  0  0  0  0  0  0  0  0
   39.9300   26.1800   41.1480 C   0  0  0  0  0  2  0  0  0  0  0  0
   39.5890   25.4100   42.4030 C   0  0  0  0  0  2  0  0  0  0  0  0
   39.6510   26.2980   43.6260 C   0  0  0  0  0  3  0  0  0  0  0  0
   38.7010   26.1540   44.1780 H   0  0  0  0  0  0  0  0  0  0  0  0
   39.8720   27.7500   43.2800 C   0  0  0  0  0  2  0  0  0  0  0  0
   38.9270   28.1140   42.1620 C   0  0  0  0  0  2  0  0  0  0  0  0
  1  2  2  0  0  0  0
  3  1  1  0  0  0  0
  3  8  1  0  0  0  0
  4  3  1  0  0  0  0
  5 12  1  0  0  0  0
  5  4  1  0  0  0  0
  5  6  1  0  0  0  0
  6 14  1  0  0  0  0
  6  7  1  0  0  0  0
  7  8  1  0  0  0  0
  7 16  1  0  0  0  0
  8 17  1  1  0  0  0
  8 36  1  0  0  0  0
  9  4  1  0  0  0  0
 10  4  1  0  0  0  0
 11  5  1  0  0  0  0
 13  6  1  0  0  0  0
 15  7  1  0  0  0  0
 18 24  1  0  0  0  0
 18 19  1  0  0  0  0
 19  1  1  0  0  0  0
 20 19  2  0  0  0  0
 20 26  1  0  0  0  0
 21 20  1  0  0  0  0
 22 23  1  0  0  0  0
 22 21  2  0  0  0  0
 23 18  2  0  0  0  0
 25 22  1  0  0  0  0
 26 31  1  0  0  0  0
 27 26  2  0  0  0  0
 27 28  1  0  0  0  0
 28 29  2  0  0  0  0
 29 34  1  0  0  0  0
 29 30  1  0  0  0  0
 30 35  1  0  0  0  0
 31 30  2  0  0  0  0
 32 27  1  0  0  0  0
 33 28  1  0  0  0  0
 36 37  1  0  0  0  0
 36 42  1  0  0  0  0
 37 38  1  0  0  0  0
 38 39  1  0  0  0  0
 39 40  1  0  0  0  0
 41 39  1  0  0  0  0
 42 41  1  0  0  0  0
M  END
>  <minimizedAffinity>
-5.35645628

$$$$

 OpenBabel03252507213D

 42 45  0  0  1  0  0  0  0  0999 V2000
   39.9140   29.9940   41.9300 C   0  0  0  0  0  0  0  0  0  0  0  0
   40.1790   30.9470   42.7170 O   0  0  0  0  0  0  0  0  0  0  0  0
   40.7010   29.6610   40.7800 N   0  0  0  0  0  0  0  0  0  0  0  0
   41.1590   28.3670   40.2780 C   0  0  0  0  0  0  0  0  0  0  0  0
   40.7830   28.2290   38.8000 C   0  0  0  0  0  0  0  0  0  0  0  0
   41.5120   29.2760   38.0040 C   0  0  0  0  0  0  0  0  0  0  0  0
   42.0880   30.3220   38.9050 C   0  0  0  0  0  0  0  0  0  0  0  0
   41.1210   30.7630   39.9600 C   0  0  2  0  0  0  0  0  0  0  0  0
   42.2270   28.1920   40.4170 H   0  0  0  0  0  0  0  0  0  0  0  0
   40.5000   27.6270   40.8270 H   0  0  0  0  0  0  0  0  0  0  0  0
   40.9660   27.2090   38.4660 H   0  0  0  0  0  0  0  0  0  0  0  0
   39.6900   28.5010   38.7780 H   0  0  0  0  0  0  0  0  0  0  0  0
   42.3830   28.7500   37.5390 H   0  0  0  0  0  0  0  0  0  0  0  0
   40.9380   29.6870   37.1510 H   0  0  0  0  0  0  0  0  0  0  0  0
   43.0030   29.9640   39.4110 H   0  0  0  0  0  0  0  0  0  0  0  0
   42.3310   31.1950   38.2600 H   0  0  0  0  0  0  0  0  0  0  0  0
   40.2130   31.1530   39.4570 H   0  0  0  0  0  0  0  0  0  0  0  0
   38.8310   28.2560   43.2710 C   0  0  0  0  0  0  0  0  0  0  0  0
   38.7490   29.1960   42.2150 C   0  0  0  0  0  0  0  0  0  0  0  0
   37.5760   29.3110   41.5060 C   0  0  0  0  0  0  0  0  0  0  0  0
   36.5360   28.5200   41.8430 N   0  0  0  0  0  0  0  0  0  0  0  0
   36.5980   27.6140   42.8530 C   0  0  0  0  0  0  0  0  0  0  0  0
   37.7490   27.5010   43.5480 N   0  0  0  0  0  0  0  0  0  0  0  0
   39.7490   28.1490   43.8440 H   0  0  0  0  0  0  0  0  0  0  0  0
   35.7240   27.0150   43.0650 H   0  0  0  0  0  0  0  0  0  0  0  0
   37.5080   30.2710   40.4250 C   0  0  0  0  0  0  0  0  0  0  0  0
   37.2750   31.5880   40.6900 C   0  0  0  0  0  0  0  0  0  0  0  0
   37.2150   32.4840   39.6480 C   0  0  0  0  0  0  0  0  0  0  0  0
   37.3820   32.1110   38.3230 C   0  0  0  0  0  0  0  0  0  0  0  0
   37.6150   30.7690   38.1090 C   0  0  0  0  0  0  0  0  0  0  0  0
   37.6670   29.9220   39.1460 N   0  0  0  0  0  0  0  0  0  0  0  0
   37.1190   32.0420   41.6470 H   0  0  0  0  0  0  0  0  0  0  0  0
   37.0310   33.5600   39.7890 H   0  0  0  0  0  0  0  0  0  0  0  0
   37.3320   32.8240   37.5120 H   0  0  0  0  0  0  0  0  0  0  0  0
   37.7540   30.4090   37.0940 H   0  0  0  0  0  0  0  0  0  0  0  0
   41.6290   31.8060   40.7850 N   0  0  0  0  0  0  0  0  0  0  0  0
   43.0070   31.6890   41.1540 C   0  0  0  0  0  2  0  0  0  0  0  0
   43.3340   32.6900   42.2370 C   0  0  0  0  0  2  0  0  0  0  0  0
   43.0200   34.1010   41.7940 C   0  0  0  0  0  3  0  0  0  0  0  0
   42.4070   34.5630   42.5940 H   0  0  0  0  0  0  0  0  0  0  0  0
   42.3130   34.1490   40.4610 C   0  0  0  0  0  2  0  0  0  0  0  0
   41.2030   33.1270   40.4850 C   0  0  0  0  0  2  0  0  0  0  0  0
  1 19  1  0  0  0  0
  1  2  2  0  0  0  0
  3  1  1  0  0  0  0
  4  9  1  0  0  0  0
  4  3  1  0  0  0  0
  4 10  1  0  0  0  0
  5  4  1  0  0  0  0
  6  5  1  0  0  0  0
  6  7  1  0  0  0  0
  7 15  1  0  0  0  0
  7  8  1  0  0  0  0
  8 17  1  6  0  0  0
  8  3  1  0  0  0  0
  8 36  1  0  0  0  0
 11  5  1  0  0  0  0
 12  5  1  0  0  0  0
 13  6  1  0  0  0  0
 14  6  1  0  0  0  0
 16  7  1  0  0  0  0
 18 23  1  0  0  0  0
 18 24  1  0  0  0  0
 19 18  2  0  0  0  0
 20 21  2  0  0  0  0
 20 19  1  0  0  0  0
 21 22  1  0  0  0  0
 22 25  1  0  0  0  0
 22 23  2  0  0  0  0
 26 27  1  0  0  0  0
 26 20  1  0  0  0  0
 27 32  1  0  0  0  0
 28 33  1  0  0  0  0
 28 27  2  0  0  0  0
 29 28  1  0  0  0  0
 30 29  2  0  0  0  0
 30 31  1  0  0  0  0
 31 26  2  0  0  0  0
 34 29  1  0  0  0  0
 35 30  1  0  0  0  0
 36 37  1  0  0  0  0
 37 38  1  0  0  0  0
 39 38  1  0  0  0  0
 39 40  1  0  0  0  0
 41 42  1  0  0  0  0
 41 39  1  0  0  0  0
 42 36  1  0  0  0  0
M  END
>  <minimizedAffinity>
-5.34353304

$$$$
