
 OpenBabel03252508223D

 46 49  0  0  0  0  0  0  0  0999 V2000
   46.2830   33.3280   39.6880 C   0  0  0  0  0  0  0  0  0  0  0  0
   45.5120   33.0650   38.5750 C   0  0  0  0  0  0  0  0  0  0  0  0
   45.9530   33.1920   37.2790 C   0  0  0  0  0  0  0  0  0  0  0  0
   47.2800   33.6170   37.1260 C   0  0  0  0  0  0  0  0  0  0  0  0
   48.0900   33.8920   38.2060 C   0  0  0  0  0  0  0  0  0  0  0  0
   47.6030   33.7500   39.4750 C   0  0  0  0  0  0  0  0  0  0  0  0
   44.4890   32.7250   38.6050 H   0  0  0  0  0  0  0  0  0  0  0  0
   45.3810   32.9980   36.3940 H   0  0  0  0  0  0  0  0  0  0  0  0
   47.6870   33.7370   36.1160 H   0  0  0  0  0  0  0  0  0  0  0  0
   49.1020   34.2150   37.9940 H   0  0  0  0  0  0  0  0  0  0  0  0
   48.5090   34.0510   40.5060 N   0  0  0  0  0  0  0  0  0  0  0  0
   48.7530   35.3800   40.9980 C   0  0  0  0  0  0  0  0  0  0  0  0
   49.3810   35.3480   42.3720 C   0  0  0  0  0  0  0  0  0  0  0  0
   48.8840   34.3260   43.2250 N   0  0  0  0  0  0  0  0  0  0  0  0
   48.9260   33.0190   42.6770 C   0  0  0  0  0  0  0  0  0  0  0  0
   49.3360   33.0730   41.2270 C   0  0  0  0  0  0  0  0  0  0  0  0
   49.5790   35.7670   40.3270 H   0  0  0  0  0  0  0  0  0  0  0  0
   47.9490   36.1080   40.8670 H   0  0  0  0  0  0  0  0  0  0  0  0
   50.5010   35.3550   42.3430 H   0  0  0  0  0  0  0  0  0  0  0  0
   49.1260   36.3450   42.8240 H   0  0  0  0  0  0  0  0  0  0  0  0
   49.3090   34.4420   44.1480 H   0  0  0  0  0  0  0  0  0  0  0  0
   49.5760   32.3520   43.2370 H   0  0  0  0  0  0  0  0  0  0  0  0
   47.8850   32.6140   42.7140 H   0  0  0  0  0  0  0  0  0  0  0  0
   49.1800   32.0530   40.7920 H   0  0  0  0  0  0  0  0  0  0  0  0
   50.4110   33.3050   41.1530 H   0  0  0  0  0  0  0  0  0  0  0  0
   45.8070   33.2000   41.0680 C   0  0  0  0  0  0  0  0  0  0  0  0
   46.5420   32.8100   41.7740 H   0  0  0  0  0  0  0  0  0  0  0  0
   44.9700   32.4430   41.0650 H   0  0  0  0  0  0  0  0  0  0  0  0
   45.2390   34.5100   41.5830 C   0  0  0  0  0  0  0  0  0  0  0  0
   45.4490   34.7370   42.6150 H   0  0  0  0  0  0  0  0  0  0  0  0
   45.6450   35.3790   40.9870 H   0  0  0  0  0  0  0  0  0  0  0  0
   41.6820   35.6800   41.1060 C   0  0  0  0  0  0  0  0  0  0  0  0
   43.0860   35.7190   41.2790 C   0  0  0  0  0  0  0  0  0  0  0  0
   43.7670   34.5060   41.4080 C   0  0  0  0  0  0  0  0  0  0  0  0
   43.0340   33.3540   41.3610 N   0  0  0  0  0  0  0  0  0  0  0  0
   41.7110   33.3460   41.1980 C   0  0  0  0  0  0  0  0  0  0  0  0
   41.0370   34.5020   41.0700 N   0  0  0  0  0  0  0  0  0  0  0  0
   41.2250   36.6590   41.0130 H   0  0  0  0  0  0  0  0  0  0  0  0
   43.6080   36.6640   41.3070 H   0  0  0  0  0  0  0  0  0  0  0  0
   40.9480   32.1420   41.1480 N   0  0  0  0  0  0  0  0  0  0  0  0
   39.8970   31.8410   42.0830 C   0  0  0  0  0  0  0  0  0  0  0  0
   39.7460   30.3210   42.0870 C   0  0  0  0  0  0  0  0  0  0  0  0
   41.1250   29.6690   42.1080 C   0  0  0  0  0  0  0  0  0  0  0  0
   40.9710   28.5870   42.1570 H   0  0  0  0  0  0  0  0  0  0  0  0
   41.9090   29.9910   40.8660 C   0  0  0  0  0  0  0  0  0  0  0  0
   41.1950   31.1270   40.1290 C   0  0  0  0  0  0  0  0  0  0  0  0
  1 26  1  0  0  0  0
  2  7  1  0  0  0  0
  2  1  2  0  0  0  0
  3  2  1  0  0  0  0
  4  3  2  0  0  0  0
  4  5  1  0  0  0  0
  5  6  2  0  0  0  0
  6  1  1  0  0  0  0
  6 11  1  0  0  0  0
  8  3  1  0  0  0  0
  9  4  1  0  0  0  0
 10  5  1  0  0  0  0
 11 12  1  0  0  0  0
 11 16  1  0  0  0  0
 12 13  1  0  0  0  0
 13 20  1  0  0  0  0
 13 14  1  0  0  0  0
 14 21  1  0  0  0  0
 15 23  1  0  0  0  0
 15 14  1  0  0  0  0
 15 22  1  0  0  0  0
 16 15  1  0  0  0  0
 17 12  1  0  0  0  0
 18 12  1  0  0  0  0
 19 13  1  0  0  0  0
 24 16  1  0  0  0  0
 25 16  1  0  0  0  0
 26 29  1  0  0  0  0
 26 27  1  0  0  0  0
 28 26  1  0  0  0  0
 29 30  1  0  0  0  0
 31 29  1  0  0  0  0
 32 33  1  0  0  0  0
 33 39  1  0  0  0  0
 33 34  2  0  0  0  0
 34 29  1  0  0  0  0
 35 34  1  0  0  0  0
 36 35  2  0  0  0  0
 37 32  2  0  0  0  0
 37 36  1  0  0  0  0
 38 32  1  0  0  0  0
 40 36  1  0  0  0  0
 40 41  1  0  0  0  0
 41 42  1  0  0  0  0
 42 43  1  0  0  0  0
 43 44  1  0  0  0  0
 45 43  1  0  0  0  0
 46 45  1  0  0  0  0
 46 40  1  0  0  0  0
M  END
>  <minimizedAffinity>
-5.63913441

>  <minimizedRMSD>
3.34849739

$$$$
