
 OpenBabel03242520083D

 27 29  0  0  0  0  0  0  0  0999 V2000
   46.1510   32.6380   47.0650 C   0  0  0  0  0  0  0  0  0  0  0  0
   45.0880   32.3610   47.8650 C   0  0  0  0  0  0  0  0  0  0  0  0
   45.2550   31.6190   49.0150 C   0  0  0  0  0  0  0  0  0  0  0  0
   46.5290   31.1580   49.3400 C   0  0  0  0  0  0  0  0  0  0  0  0
   47.6060   31.4550   48.5000 C   0  0  0  0  0  0  0  0  0  0  0  0
   47.3650   32.1680   47.4240 N   0  0  0  0  0  0  0  0  0  0  0  0
   44.1180   32.7390   47.5730 H   0  0  0  0  0  0  0  0  0  0  0  0
   44.3870   31.4190   49.6270 H   0  0  0  0  0  0  0  0  0  0  0  0
   46.6590   30.5840   50.2290 H   0  0  0  0  0  0  0  0  0  0  0  0
   48.9340   30.9930   48.8080 N   0  0  0  0  0  0  0  0  0  0  0  0
   49.7810   31.8310   49.6280 C   0  0  0  0  0  0  0  0  0  0  0  0
   50.7120   31.0420   50.5010 C   0  0  0  0  0  0  0  0  0  0  0  0
   51.1590   29.7460   49.8860 C   0  0  0  0  0  0  0  0  0  0  0  0
   52.2570   29.5640   49.9920 H   0  0  0  0  0  0  0  0  0  0  0  0
   50.8450   29.6570   48.4150 C   0  0  0  0  0  0  0  0  0  0  0  0
   49.3420   29.7030   48.2700 C   0  0  0  0  0  0  0  0  0  0  0  0
   44.9540   35.0040   44.5410 C   0  0  0  0  0  0  0  0  0  0  0  0
   45.9070   34.8460   43.5170 C   0  0  0  0  0  0  0  0  0  0  0  0
   46.9470   33.9340   43.6990 C   0  0  0  0  0  0  0  0  0  0  0  0
   46.9710   33.2480   44.8730 N   0  0  0  0  0  0  0  0  0  0  0  0
   46.0480   33.4170   45.8340 C   0  0  0  0  0  0  0  0  0  0  0  0
   45.0410   34.2930   45.6720 N   0  0  0  0  0  0  0  0  0  0  0  0
   43.8880   35.9380   44.3580 N   0  0  0  0  0  0  0  0  0  0  0  0
   45.8640   35.4050   42.5960 H   0  0  0  0  0  0  0  0  0  0  0  0
   47.7010   33.7800   42.9390 H   0  0  0  0  0  0  0  0  0  0  0  0
   43.6010   36.7630   44.9570 H   0  0  0  0  0  0  0  0  0  0  0  0
   43.3660   35.6860   43.4740 H   0  0  0  0  0  0  0  0  0  0  0  0
  1  6  2  0  0  0  0
  1  2  1  0  0  0  0
  2  3  2  0  0  0  0
  3  4  1  0  0  0  0
  3  8  1  0  0  0  0
  4  9  1  0  0  0  0
  5 10  1  0  0  0  0
  5  4  2  0  0  0  0
  6  5  1  0  0  0  0
  7  2  1  0  0  0  0
 10 11  1  0  0  0  0
 11 12  1  0  0  0  0
 13 14  1  0  0  0  0
 13 12  1  0  0  0  0
 15 13  1  0  0  0  0
 16 15  1  0  0  0  0
 16 10  1  0  0  0  0
 17 22  1  0  0  0  0
 18 19  1  0  0  0  0
 18 17  2  0  0  0  0
 19 20  2  0  0  0  0
 20 21  1  0  0  0  0
 21  1  1  0  0  0  0
 22 21  2  0  0  0  0
 23 17  1  0  0  0  0
 23 26  1  0  0  0  0
 24 18  1  0  0  0  0
 25 19  1  0  0  0  0
 27 23  1  0  0  0  0
M  END
>  <minimizedAffinity>
-6.49268961

>  <minimizedRMSD>
0.438661188

$$$$
