
 OpenBabel03252509253D

 28 30  0  0  1  0  0  0  0  0999 V2000
   46.6510   35.1270   41.9130 C   0  0  1  0  0  0  0  0  0  0  0  0
   48.1860   35.3890   41.9500 C   0  0  0  0  0  0  0  0  0  0  0  0
   47.4880   34.1880   41.2850 C   0  0  2  0  0  0  0  0  0  0  0  0
   46.1010   35.9140   41.3730 H   0  0  0  0  0  0  0  0  0  0  0  0
   48.5540   36.1800   41.2480 H   0  0  0  0  0  0  0  0  0  0  0  0
   48.7270   35.2670   42.8790 H   0  0  0  0  0  0  0  0  0  0  0  0
   47.8500   33.2300   41.7650 H   0  0  0  0  0  0  0  0  0  0  0  0
   44.7050   35.3040   45.1190 C   0  0  0  0  0  0  0  0  0  0  0  0
   45.1740   35.6620   43.8270 C   0  0  0  0  0  0  0  0  0  0  0  0
   46.1370   34.8660   43.3090 C   0  0  0  0  0  0  0  0  0  0  0  0
   46.6330   33.7740   43.9960 N   0  0  0  0  0  0  0  0  0  0  0  0
   46.1660   33.4590   45.2220 C   0  0  0  0  0  0  0  0  0  0  0  0
   45.1920   34.2330   45.7880 N   0  0  0  0  0  0  0  0  0  0  0  0
   43.9370   35.9290   45.5430 H   0  0  0  0  0  0  0  0  0  0  0  0
   46.5820   32.6010   45.7190 H   0  0  0  0  0  0  0  0  0  0  0  0
   44.6900   36.7980   43.1320 N   0  0  0  0  0  0  0  0  0  0  0  0
   43.7000   37.1260   43.0130 H   0  0  0  0  0  0  0  0  0  0  0  0
   45.3790   37.4240   42.6600 H   0  0  0  0  0  0  0  0  0  0  0  0
   47.5450   34.0640   39.7800 C   0  0  0  0  0  0  0  0  0  0  0  0
   46.8710   34.8340   39.3460 H   0  0  0  0  0  0  0  0  0  0  0  0
   48.5530   34.2410   39.3730 H   0  0  0  0  0  0  0  0  0  0  0  0
   47.0110   32.7740   39.3830 N   0  0  0  0  0  0  0  0  0  0  0  0
   47.6250   32.3210   38.1690 C   0  0  0  0  0  2  0  0  0  0  0  0
   46.8480   31.2360   37.4980 C   0  0  0  0  0  2  0  0  0  0  0  0
   45.7950   30.6850   38.4590 C   0  0  0  0  0  3  0  0  0  0  0  0
   45.2960   29.8050   38.0060 H   0  0  0  0  0  0  0  0  0  0  0  0
   44.8330   31.8270   38.6790 C   0  0  0  0  0  2  0  0  0  0  0  0
   45.5960   33.0120   39.1640 C   0  0  0  0  0  2  0  0  0  0  0  0
  1  4  1  6  0  0  0
  1  2  1  0  0  0  0
  1 10  1  0  0  0  0
  2  6  1  0  0  0  0
  3  7  1  1  0  0  0
  3  1  1  0  0  0  0
  3  2  1  0  0  0  0
  5  2  1  0  0  0  0
  8 14  1  0  0  0  0
  8 13  1  0  0  0  0
  9  8  2  0  0  0  0
 10  9  1  0  0  0  0
 10 11  2  0  0  0  0
 11 12  1  0  0  0  0
 12 15  1  0  0  0  0
 12 13  2  0  0  0  0
 16  9  1  0  0  0  0
 17 16  1  0  0  0  0
 18 16  1  0  0  0  0
 19  3  1  0  0  0  0
 20 19  1  0  0  0  0
 21 19  1  0  0  0  0
 22 19  1  0  0  0  0
 23 22  1  0  0  0  0
 24 23  1  0  0  0  0
 24 25  1  0  0  0  0
 25 27  1  0  0  0  0
 26 25  1  0  0  0  0
 27 28  1  0  0  0  0
 28 22  1  0  0  0  0
M  END
>  <minimizedAffinity>
-4.40293932

>  <minimizedRMSD>
1.55744565

$$$$
