
 OpenBabel03252508343D

 33 35  0  0  1  0  0  0  0  0999 V2000
   44.7840   34.4430   41.8850 N   0  0  0  0  0  0  0  0  0  0  0  0
   45.8240   33.8240   41.1110 C   0  0  1  0  0  0  0  0  0  0  0  0
   45.5960   33.8990   39.6360 C   0  0  0  0  0  0  0  0  0  0  0  0
   44.2790   33.6790   39.2100 N   0  0  0  0  0  0  0  0  0  0  0  0
   43.2290   34.0790   40.0530 C   0  0  0  0  0  0  0  0  0  0  0  0
   43.7350   35.0410   41.1290 C   0  0  0  0  0  0  0  0  0  0  0  0
   45.9220   32.7550   41.3860 H   0  0  0  0  0  0  0  0  0  0  0  0
   45.8880   34.9410   39.3130 H   0  0  0  0  0  0  0  0  0  0  0  0
   46.2810   33.1860   39.1270 H   0  0  0  0  0  0  0  0  0  0  0  0
   44.1540   32.6520   38.9670 H   0  0  0  0  0  0  0  0  0  0  0  0
   42.4770   34.6480   39.4720 H   0  0  0  0  0  0  0  0  0  0  0  0
   42.6760   33.2840   40.5840 H   0  0  0  0  0  0  0  0  0  0  0  0
   44.0650   35.9990   40.6430 H   0  0  0  0  0  0  0  0  0  0  0  0
   42.8540   35.2630   41.7600 H   0  0  0  0  0  0  0  0  0  0  0  0
   44.4920   35.5100   43.9930 C   0  0  0  0  0  0  0  0  0  0  0  0
   44.9030   34.3970   43.2860 C   0  0  0  0  0  0  0  0  0  0  0  0
   45.4090   33.3000   44.0230 C   0  0  0  0  0  0  0  0  0  0  0  0
   45.4790   33.3600   45.3750 N   0  0  0  0  0  0  0  0  0  0  0  0
   45.0640   34.4710   46.0290 C   0  0  0  0  0  0  0  0  0  0  0  0
   44.5770   35.5340   45.3580 N   0  0  0  0  0  0  0  0  0  0  0  0
   44.0910   36.4000   43.5190 H   0  0  0  0  0  0  0  0  0  0  0  0
   45.7170   32.4550   43.4110 H   0  0  0  0  0  0  0  0  0  0  0  0
   45.1810   34.3650   47.0830 H   0  0  0  0  0  0  0  0  0  0  0  0
   47.1230   34.5780   41.3810 C   0  0  0  0  0  0  0  0  0  0  0  0
   47.2810   35.2440   40.4940 H   0  0  0  0  0  0  0  0  0  0  0  0
   46.9990   35.2680   42.2460 H   0  0  0  0  0  0  0  0  0  0  0  0
   48.2480   33.7430   41.5050 N   0  0  0  0  0  0  0  0  0  0  0  0
   48.0750   32.3510   41.5650 C   0  0  0  0  0  0  0  0  0  0  0  0
   48.8690   31.8000   42.7460 C   0  0  0  0  0  0  0  0  0  0  0  0
   50.3330   32.0540   42.3630 C   0  0  0  0  0  0  0  0  0  0  0  0
   50.4230   31.7840   41.2960 H   0  0  0  0  0  0  0  0  0  0  0  0
   50.4900   33.5690   42.4500 C   0  0  0  0  0  0  0  0  0  0  0  0
   49.5280   34.3070   41.5890 C   0  0  0  0  0  0  0  0  0  0  0  0
  1 16  1  0  0  0  0
  2 24  1  0  0  0  0
  2  7  1  1  0  0  0
  2  1  1  0  0  0  0
  3  2  1  0  0  0  0
  4  3  1  0  0  0  0
  4  5  1  0  0  0  0
  5 12  1  0  0  0  0
  5  6  1  0  0  0  0
  6 14  1  0  0  0  0
  6  1  1  0  0  0  0
  8  3  1  0  0  0  0
  9  3  1  0  0  0  0
 10  4  1  0  0  0  0
 11  5  1  0  0  0  0
 13  6  1  0  0  0  0
 15 20  1  0  0  0  0
 16 15  2  0  0  0  0
 16 17  1  0  0  0  0
 17 18  2  0  0  0  0
 18 19  1  0  0  0  0
 19 23  1  0  0  0  0
 20 19  2  0  0  0  0
 21 15  1  0  0  0  0
 22 17  1  0  0  0  0
 24 27  1  0  0  0  0
 24 26  1  0  0  0  0
 25 24  1  0  0  0  0
 27 28  1  0  0  0  0
 27 33  1  0  0  0  0
 28 29  1  0  0  0  0
 30 32  1  0  0  0  0
 30 29  1  0  0  0  0
 31 30  1  0  0  0  0
 33 32  1  0  0  0  0
M  END
>  <minimizedAffinity>
-4.31718779

>  <minimizedRMSD>
1.59042859

$$$$
