
 OpenBabel03252509253D

 28 30  0  0  1  0  0  0  0  0999 V2000
   46.5590   34.9900   41.9280 C   0  0  1  0  0  0  0  0  0  0  0  0
   48.0630   35.3930   41.9530 C   0  0  0  0  0  0  0  0  0  0  0  0
   47.4900   34.0650   41.4240 C   0  0  2  0  0  0  0  0  0  0  0  0
   45.9540   35.6570   41.2930 H   0  0  0  0  0  0  0  0  0  0  0  0
   48.3760   36.1280   41.1690 H   0  0  0  0  0  0  0  0  0  0  0  0
   48.5920   35.4280   42.8970 H   0  0  0  0  0  0  0  0  0  0  0  0
   47.9250   33.2050   42.0170 H   0  0  0  0  0  0  0  0  0  0  0  0
   44.6300   35.4630   45.1130 C   0  0  0  0  0  0  0  0  0  0  0  0
   45.1100   35.7140   43.8000 C   0  0  0  0  0  0  0  0  0  0  0  0
   46.0380   34.8450   43.3380 C   0  0  0  0  0  0  0  0  0  0  0  0
   46.4910   33.7830   44.0980 N   0  0  0  0  0  0  0  0  0  0  0  0
   46.0150   33.5720   45.3420 C   0  0  0  0  0  0  0  0  0  0  0  0
   45.0740   34.4220   45.8540 N   0  0  0  0  0  0  0  0  0  0  0  0
   43.8890   36.1470   45.4940 H   0  0  0  0  0  0  0  0  0  0  0  0
   46.3970   32.7340   45.8970 H   0  0  0  0  0  0  0  0  0  0  0  0
   44.6710   36.8190   43.0300 N   0  0  0  0  0  0  0  0  0  0  0  0
   43.6950   37.1780   42.8880 H   0  0  0  0  0  0  0  0  0  0  0  0
   45.3840   37.3830   42.5160 H   0  0  0  0  0  0  0  0  0  0  0  0
   47.5930   33.7740   39.9440 C   0  0  0  0  0  0  0  0  0  0  0  0
   47.1230   34.6190   39.3950 H   0  0  0  0  0  0  0  0  0  0  0  0
   48.6350   33.6920   39.5950 H   0  0  0  0  0  0  0  0  0  0  0  0
   46.8140   32.5910   39.6310 N   0  0  0  0  0  0  0  0  0  0  0  0
   47.6300   31.5940   39.0020 C   0  0  0  0  0  2  0  0  0  0  0  0
   46.8290   30.5510   38.2940 C   0  0  0  0  0  2  0  0  0  0  0  0
   45.3630   30.6520   38.7170 C   0  0  0  0  0  3  0  0  0  0  0  0
   44.7880   29.8090   38.2830 H   0  0  0  0  0  0  0  0  0  0  0  0
   44.8960   31.9850   38.1850 C   0  0  0  0  0  2  0  0  0  0  0  0
   45.7950   33.0540   38.7070 C   0  0  0  0  0  2  0  0  0  0  0  0
  1  4  1  6  0  0  0
  1  2  1  0  0  0  0
  1 10  1  0  0  0  0
  2  6  1  0  0  0  0
  3  1  1  0  0  0  0
  3  2  1  0  0  0  0
  3  7  1  1  0  0  0
  5  2  1  0  0  0  0
  8 14  1  0  0  0  0
  8 13  1  0  0  0  0
  9  8  2  0  0  0  0
 10  9  1  0  0  0  0
 10 11  2  0  0  0  0
 11 12  1  0  0  0  0
 12 13  2  0  0  0  0
 12 15  1  0  0  0  0
 16  9  1  0  0  0  0
 17 16  1  0  0  0  0
 18 16  1  0  0  0  0
 19  3  1  0  0  0  0
 20 19  1  0  0  0  0
 21 19  1  0  0  0  0
 22 19  1  0  0  0  0
 23 22  1  0  0  0  0
 24 25  1  0  0  0  0
 24 23  1  0  0  0  0
 26 25  1  0  0  0  0
 27 28  1  0  0  0  0
 27 25  1  0  0  0  0
 28 22  1  0  0  0  0
M  END
>  <minimizedAffinity>
-4.3561101

>  <minimizedRMSD>
1.44766963

$$$$
