
 OpenBabel03252503493D

 19 20  0  0  0  0  0  0  0  0999 V2000
   46.2140   34.8230   43.2880 C   0  0  0  0  0  0  0  0  0  0  0  0
   46.3720   33.8180   44.2630 C   0  0  0  0  0  0  0  0  0  0  0  0
   45.5970   33.9040   45.4200 C   0  0  0  0  0  0  0  0  0  0  0  0
   44.7410   34.9380   45.5490 N   0  0  0  0  0  0  0  0  0  0  0  0
   44.6000   35.8990   44.6000 C   0  0  0  0  0  0  0  0  0  0  0  0
   45.3400   35.8340   43.4730 N   0  0  0  0  0  0  0  0  0  0  0  0
   47.0670   33.0210   44.1060 H   0  0  0  0  0  0  0  0  0  0  0  0
   43.8890   36.7030   44.7730 H   0  0  0  0  0  0  0  0  0  0  0  0
   45.6930   32.9450   46.4390 N   0  0  0  0  0  0  0  0  0  0  0  0
   45.1540   33.1690   47.7630 C   0  0  0  0  0  0  0  0  0  0  0  0
   45.9280   32.2360   48.7030 C   0  0  0  0  0  0  0  0  0  0  0  0
   45.4430   30.8290   48.4010 C   0  0  0  0  0  0  0  0  0  0  0  0
   44.3640   30.7640   48.6730 H   0  0  0  0  0  0  0  0  0  0  0  0
   45.6260   30.5570   46.9270 C   0  0  0  0  0  0  0  0  0  0  0  0
   46.3340   31.6880   46.2200 C   0  0  0  0  0  0  0  0  0  0  0  0
   47.0530   34.7090   42.0580 C   0  0  0  0  0  0  0  0  0  0  0  0
   46.2850   34.5800   40.9200 F   0  0  0  0  0  0  0  0  0  0  0  0
   47.8760   35.8340   42.0010 F   0  0  0  0  0  0  0  0  0  0  0  0
   47.9140   33.6150   42.1860 F   0  0  0  0  0  0  0  0  0  0  0  0
  1  6  2  0  0  0  0
  1  2  1  0  0  0  0
  2  3  2  0  0  0  0
  3  4  1  0  0  0  0
  3  9  1  0  0  0  0
  5  8  1  0  0  0  0
  5  4  2  0  0  0  0
  6  5  1  0  0  0  0
  7  2  1  0  0  0  0
  9 10  1  0  0  0  0
 10 11  1  0  0  0  0
 12 13  1  0  0  0  0
 12 11  1  0  0  0  0
 14 12  1  0  0  0  0
 15  9  1  0  0  0  0
 15 14  1  0  0  0  0
 16 19  1  0  0  0  0
 16  1  1  0  0  0  0
 17 16  1  0  0  0  0
 18 16  1  0  0  0  0
M  END
>  <minimizedAffinity>
-5.55095243

>  <minimizedRMSD>
2.04428625

$$$$
