
 OpenBabel03252508453D

 43 45  0  0  0  0  0  0  0  0999 V2000
   43.1120   32.5270   41.6800 C   0  0  0  0  0  0  0  0  0  0  0  0
   42.2110   32.9750   41.2380 H   0  0  0  0  0  0  0  0  0  0  0  0
   43.6980   32.1040   40.8170 H   0  0  0  0  0  0  0  0  0  0  0  0
   43.7020   34.9470   41.9090 C   0  0  0  0  0  0  0  0  0  0  0  0
   43.9620   33.6230   42.2160 C   0  0  0  0  0  0  0  0  0  0  0  0
   45.0350   33.3410   43.0360 C   0  0  0  0  0  0  0  0  0  0  0  0
   45.8190   34.3560   43.5310 C   0  0  0  0  0  0  0  0  0  0  0  0
   45.5750   35.6760   43.2360 C   0  0  0  0  0  0  0  0  0  0  0  0
   44.4910   35.9210   42.4110 C   0  0  0  0  0  0  0  0  0  0  0  0
   45.2960   32.3320   43.3170 H   0  0  0  0  0  0  0  0  0  0  0  0
   46.6700   34.1660   44.1780 H   0  0  0  0  0  0  0  0  0  0  0  0
   46.1460   36.5130   43.5860 H   0  0  0  0  0  0  0  0  0  0  0  0
   44.1970   36.9200   42.1080 H   0  0  0  0  0  0  0  0  0  0  0  0
   40.2680   35.7440   40.5560 C   0  0  0  0  0  0  0  0  0  0  0  0
   41.2950   35.5380   41.4950 C   0  0  0  0  0  0  0  0  0  0  0  0
   42.5570   35.1890   41.0400 C   0  0  0  0  0  0  0  0  0  0  0  0
   42.7330   35.0650   39.6860 N   0  0  0  0  0  0  0  0  0  0  0  0
   41.7190   35.2710   38.8030 C   0  0  0  0  0  0  0  0  0  0  0  0
   40.4990   35.6090   39.2550 N   0  0  0  0  0  0  0  0  0  0  0  0
   39.2770   36.0190   40.9200 H   0  0  0  0  0  0  0  0  0  0  0  0
   41.1580   35.6350   42.5420 H   0  0  0  0  0  0  0  0  0  0  0  0
   42.0090   35.1370   37.7690 H   0  0  0  0  0  0  0  0  0  0  0  0
   42.8540   31.4670   42.5980 N   0  0  0  0  0  0  0  0  0  0  0  0
   43.4870   30.6480   42.5020 H   0  0  0  0  0  0  0  0  0  0  0  0
   41.2030   31.0020   42.6330 S   0  0  0  0  0  0  0  0  0  0  0  0
   40.3070   32.2030   42.5680 O   0  0  0  0  0  0  0  0  0  0  0  0
   40.0410   32.6190   41.7030 H   0  0  0  0  0  0  0  0  0  0  0  0
   40.9010   30.2010   43.8630 O   0  0  0  0  0  0  0  0  0  0  0  0
   41.5750   30.0730   44.5740 H   0  0  0  0  0  0  0  0  0  0  0  0
   40.9230   30.0390   41.2920 O   0  0  0  0  0  0  0  0  0  0  0  0
   39.6660   29.4620   41.4230 C   0  0  0  0  0  0  0  0  0  0  0  0
   39.6360   28.5470   42.0110 H   0  0  0  0  0  0  0  0  0  0  0  0
   39.0100   30.2150   41.9140 H   0  0  0  0  0  0  0  0  0  0  0  0
   39.1190   29.1520   40.0220 C   0  0  0  0  0  0  0  0  0  0  0  0
   38.2550   28.4630   40.0950 H   0  0  0  0  0  0  0  0  0  0  0  0
   39.9250   28.6720   39.4330 H   0  0  0  0  0  0  0  0  0  0  0  0
   38.7140   30.3680   39.4340 N   0  0  0  0  0  0  0  0  0  0  0  0
   38.5400   30.3980   38.0360 C   0  0  0  0  0  0  0  0  0  0  0  0
   39.0090   31.7730   37.5440 C   0  0  0  0  0  0  0  0  0  0  0  0
   38.3600   32.8910   38.3000 C   0  0  0  0  0  0  0  0  0  0  0  0
   37.3460   33.0740   37.8720 H   0  0  0  0  0  0  0  0  0  0  0  0
   38.3090   32.6990   39.7850 C   0  0  0  0  0  0  0  0  0  0  0  0
   37.9880   31.2840   40.2120 C   0  0  0  0  0  0  0  0  0  0  0  0
  1  5  1  0  0  0  0
  1 23  1  0  0  0  0
  2  1  1  0  0  0  0
  3  1  1  0  0  0  0
  4  5  2  0  0  0  0
  4  9  1  0  0  0  0
  5  6  1  0  0  0  0
  6 10  1  0  0  0  0
  6  7  2  0  0  0  0
  7 11  1  0  0  0  0
  8  7  1  0  0  0  0
  8 12  1  0  0  0  0
  9  8  2  0  0  0  0
 13  9  1  0  0  0  0
 14 20  1  0  0  0  0
 14 15  1  0  0  0  0
 15 21  1  0  0  0  0
 16 15  2  0  0  0  0
 16  4  1  0  0  0  0
 17 16  1  0  0  0  0
 18 19  1  0  0  0  0
 18 17  2  0  0  0  0
 19 14  2  0  0  0  0
 22 18  1  0  0  0  0
 23 25  1  0  0  0  0
 24 23  1  0  0  0  0
 25 28  1  0  0  0  0
 26 25  1  0  0  0  0
 27 26  1  0  0  0  0
 28 29  1  0  0  0  0
 30 31  1  0  0  0  0
 30 25  1  0  0  0  0
 31 33  1  0  0  0  0
 31 32  1  0  0  0  0
 34 35  1  0  0  0  0
 34 31  1  0  0  0  0
 36 34  1  0  0  0  0
 37 34  1  0  0  0  0
 37 43  1  0  0  0  0
 38 37  1  0  0  0  0
 39 38  1  0  0  0  0
 39 40  1  0  0  0  0
 40 42  1  0  0  0  0
 41 40  1  0  0  0  0
 42 43  1  0  0  0  0
M  END
>  <minimizedAffinity>
-5.6014142

>  <minimizedRMSD>
2.39630675

$$$$
