
 OpenBabel03252509283D

 19 20  0  0  0  0  0  0  0  0999 V2000
   46.8190   35.2540   42.0690 C   0  0  0  0  0  0  0  0  0  0  0  0
   47.8890   35.5760   42.2250 H   0  0  0  0  0  0  0  0  0  0  0  0
   46.3360   36.0900   41.5500 H   0  0  0  0  0  0  0  0  0  0  0  0
   44.5340   35.5800   44.9830 C   0  0  0  0  0  0  0  0  0  0  0  0
   45.1610   35.8460   43.7450 C   0  0  0  0  0  0  0  0  0  0  0  0
   46.1760   34.9730   43.3510 C   0  0  0  0  0  0  0  0  0  0  0  0
   46.5040   33.9350   44.1620 N   0  0  0  0  0  0  0  0  0  0  0  0
   45.8740   33.7200   45.3400 C   0  0  0  0  0  0  0  0  0  0  0  0
   44.8990   34.5440   45.7360 N   0  0  0  0  0  0  0  0  0  0  0  0
   43.7390   36.2640   45.2900 H   0  0  0  0  0  0  0  0  0  0  0  0
   44.8790   36.6740   43.1260 H   0  0  0  0  0  0  0  0  0  0  0  0
   46.1000   32.9180   46.0080 H   0  0  0  0  0  0  0  0  0  0  0  0
   46.7650   34.1130   41.1920 N   0  0  0  0  0  0  0  0  0  0  0  0
   47.7720   34.0610   40.1860 C   0  0  0  0  0  2  0  0  0  0  0  0
   47.9990   32.5820   39.8840 C   0  0  0  0  0  2  0  0  0  0  0  0
   46.6830   32.0230   39.4410 C   0  0  0  0  0  3  0  0  0  0  0  0
   46.3190   31.1740   40.0900 H   0  0  0  0  0  0  0  0  0  0  0  0
   45.5690   33.0360   39.3810 C   0  0  0  0  0  2  0  0  0  0  0  0
   45.4790   33.9080   40.6000 C   0  0  0  0  0  2  0  0  0  0  0  0
  1  2  1  0  0  0  0
  1  6  1  0  0  0  0
  3  1  1  0  0  0  0
  4 10  1  0  0  0  0
  4  9  1  0  0  0  0
  5  4  2  0  0  0  0
  6  5  1  0  0  0  0
  6  7  2  0  0  0  0
  7  8  1  0  0  0  0
  8  9  2  0  0  0  0
  8 12  1  0  0  0  0
 11  5  1  0  0  0  0
 13  1  1  0  0  0  0
 14 13  1  0  0  0  0
 15 14  1  0  0  0  0
 16 15  1  0  0  0  0
 16 17  1  0  0  0  0
 18 16  1  0  0  0  0
 18 19  1  0  0  0  0
 19 13  1  0  0  0  0
M  END
>  <minimizedAffinity>
-3.54567814

>  <minimizedRMSD>
1.08247268

$$$$
