
 OpenBabel03252509283D

 19 20  0  0  0  0  0  0  0  0999 V2000
   46.6290   35.0180   41.9500 C   0  0  0  0  0  0  0  0  0  0  0  0
   47.6880   34.6360   42.0170 H   0  0  0  0  0  0  0  0  0  0  0  0
   46.7130   36.0460   41.5780 H   0  0  0  0  0  0  0  0  0  0  0  0
   44.4950   35.9890   44.8350 C   0  0  0  0  0  0  0  0  0  0  0  0
   45.1240   36.0280   43.5700 C   0  0  0  0  0  0  0  0  0  0  0  0
   45.9820   34.9720   43.2600 C   0  0  0  0  0  0  0  0  0  0  0  0
   46.1670   33.9830   44.1710 N   0  0  0  0  0  0  0  0  0  0  0  0
   45.5420   33.9890   45.3710 C   0  0  0  0  0  0  0  0  0  0  0  0
   44.7150   34.9910   45.6880 N   0  0  0  0  0  0  0  0  0  0  0  0
   43.8230   36.8160   45.0760 H   0  0  0  0  0  0  0  0  0  0  0  0
   44.9580   36.8230   42.8700 H   0  0  0  0  0  0  0  0  0  0  0  0
   45.6580   33.2340   46.1170 H   0  0  0  0  0  0  0  0  0  0  0  0
   45.8890   34.2640   40.9710 N   0  0  0  0  0  0  0  0  0  0  0  0
   44.4980   34.1090   41.2350 C   0  0  0  0  0  2  0  0  0  0  0  0
   43.8170   33.9700   39.8760 C   0  0  0  0  0  2  0  0  0  0  0  0
   44.4330   32.7820   39.2030 C   0  0  0  0  0  3  0  0  0  0  0  0
   44.9170   33.0330   38.2160 H   0  0  0  0  0  0  0  0  0  0  0  0
   45.4700   32.0700   40.0330 C   0  0  0  0  0  2  0  0  0  0  0  0
   46.4680   32.9900   40.6720 C   0  0  0  0  0  2  0  0  0  0  0  0
  1  2  1  0  0  0  0
  1  6  1  0  0  0  0
  3  1  1  0  0  0  0
  4 10  1  0  0  0  0
  4  9  1  0  0  0  0
  5  4  2  0  0  0  0
  6  5  1  0  0  0  0
  6  7  2  0  0  0  0
  7  8  1  0  0  0  0
  8  9  2  0  0  0  0
  8 12  1  0  0  0  0
 11  5  1  0  0  0  0
 13 14  1  0  0  0  0
 13  1  1  0  0  0  0
 15 14  1  0  0  0  0
 16 15  1  0  0  0  0
 16 18  1  0  0  0  0
 17 16  1  0  0  0  0
 18 19  1  0  0  0  0
 19 13  1  0  0  0  0
M  END
>  <minimizedAffinity>
-3.6309123

>  <minimizedRMSD>
0.451267779

$$$$
