
     RDKit          3D

 28 29  0  0  0  0  0  0  0  0999 V2000
   44.5642   36.0047   44.4960 C   0  0  0  0  0  0  0  0  0  0  0  0
   45.3047   35.9236   43.2956 C   0  0  0  0  0  0  0  0  0  0  0  0
   46.1944   34.8552   43.1744 C   0  0  0  0  0  0  0  0  0  0  0  0
   46.3006   33.9666   44.1954 N   0  0  0  0  0  0  0  0  0  0  0  0
   45.5695   34.0862   45.3267 C   0  0  0  0  0  0  0  0  0  0  0  0
   44.7111   35.1018   45.4643 N   0  0  0  0  0  0  0  0  0  0  0  0
   46.9574   34.7769   41.9304 C   0  0  0  0  0  0  0  0  0  0  0  0
   43.8677   36.8416   44.5902 H   0  0  0  0  0  0  0  0  0  0  0  0
   45.1991   36.6414   42.5058 H   0  0  0  0  0  0  0  0  0  0  0  0
   45.6208   33.4116   46.1539 H   0  0  0  0  0  0  0  0  0  0  0  0
   47.9799   34.3412   42.1189 H   0  0  0  0  0  0  0  0  0  0  0  0
   47.1378   35.7721   41.5051 H   0  0  0  0  0  0  0  0  0  0  0  0
   46.2621   34.0030   40.9343 N   0  0  0  0  0  0  0  0  0  0  0  0
   47.0559   33.0582   40.2230 C   0  0  0  0  0  0  0  0  0  0  0  0
   46.1129   31.9320   39.8093 C   0  0  0  0  0  0  0  0  0  0  0  0
   45.0352   32.5540   38.9759 C   0  0  0  0  0  0  0  0  0  0  0  0
   44.0004   32.3972   39.3984 H   0  0  0  0  0  0  0  0  0  0  0  0
   45.2001   34.0351   38.7565 C   0  0  0  0  0  0  0  0  0  0  0  0
   45.5158   34.7998   40.0087 C   0  0  0  0  0  0  0  0  0  0  0  0
   47.4983   33.4756   39.2751 H   0  0  0  0  0  0  0  0  0  0  0  0
   47.8942   32.6187   40.7628 H   0  0  0  0  0  0  0  0  0  0  0  0
   45.6483   31.5558   40.7627 H   0  0  0  0  0  0  0  0  0  0  0  0
   46.6349   31.1184   39.2865 H   0  0  0  0  0  0  0  0  0  0  0  0
   44.9751   32.0888   37.9641 H   0  0  0  0  0  0  0  0  0  0  0  0
   44.2064   34.4041   38.3858 H   0  0  0  0  0  0  0  0  0  0  0  0
   45.9379   34.2496   37.9540 H   0  0  0  0  0  0  0  0  0  0  0  0
   44.5530   35.1394   40.4918 H   0  0  0  0  0  0  0  0  0  0  0  0
   46.0488   35.7375   39.7562 H   0  0  0  0  0  0  0  0  0  0  0  0
  1  6  2  0
  2  1  1  0
  3  2  2  0
  3  4  1  0
  4  5  2  0
  5  6  1  0
  7  3  1  0
  1  8  1  0
  2  9  1  0
  5 10  1  0
  7 11  1  0
  7 12  1  0
 13 14  1  0
 14 15  1  0
 15 16  1  0
 16 17  1  0
 16 18  1  0
 18 19  1  0
 19 13  1  0
 14 20  1  0
 14 21  1  0
 15 22  1  0
 15 23  1  0
 16 24  1  0
 18 25  1  0
 18 26  1  0
 19 27  1  0
 19 28  1  0
  7 13  1  0
M  ISO  6   8  14   9  14  10  14  11   8  12   8  17  15
M  END
>  <DihAtoms>  (1) 
2,6,12,13

>  <DihDeg>  (1) 
-60.007504061029564

$$$$
