
     RDKit          3D

 28 29  0  0  0  0  0  0  0  0999 V2000
   44.5642   36.0047   44.4960 C   0  0  0  0  0  0  0  0  0  0  0  0
   45.3047   35.9236   43.2956 C   0  0  0  0  0  0  0  0  0  0  0  0
   46.1944   34.8552   43.1744 C   0  0  0  0  0  0  0  0  0  0  0  0
   46.3006   33.9666   44.1954 N   0  0  0  0  0  0  0  0  0  0  0  0
   45.5695   34.0862   45.3267 C   0  0  0  0  0  0  0  0  0  0  0  0
   44.7111   35.1018   45.4643 N   0  0  0  0  0  0  0  0  0  0  0  0
   46.9574   34.7769   41.9304 C   0  0  0  0  0  0  0  0  0  0  0  0
   43.8677   36.8416   44.5902 H   0  0  0  0  0  0  0  0  0  0  0  0
   45.1991   36.6414   42.5058 H   0  0  0  0  0  0  0  0  0  0  0  0
   45.6208   33.4116   46.1539 H   0  0  0  0  0  0  0  0  0  0  0  0
   47.9799   34.3412   42.1189 H   0  0  0  0  0  0  0  0  0  0  0  0
   47.1378   35.7721   41.5051 H   0  0  0  0  0  0  0  0  0  0  0  0
   46.2621   34.0030   40.9343 N   0  0  0  0  0  0  0  0  0  0  0  0
   47.0453   33.5866   39.8199 C   0  0  0  0  0  0  0  0  0  0  0  0
   46.4199   32.2882   39.3184 C   0  0  0  0  0  0  0  0  0  0  0  0
   44.9982   32.6004   38.9656 C   0  0  0  0  0  0  0  0  0  0  0  0
   44.2510   31.9838   39.5446 H   0  0  0  0  0  0  0  0  0  0  0  0
   44.6167   34.0451   39.1559 C   0  0  0  0  0  0  0  0  0  0  0  0
   45.0546   34.6172   40.4725 C   0  0  0  0  0  0  0  0  0  0  0  0
   47.0153   34.3142   38.9607 H   0  0  0  0  0  0  0  0  0  0  0  0
   48.1033   33.4046   40.0063 H   0  0  0  0  0  0  0  0  0  0  0  0
   46.4187   31.5883   40.1996 H   0  0  0  0  0  0  0  0  0  0  0  0
   46.9774   31.8508   38.4783 H   0  0  0  0  0  0  0  0  0  0  0  0
   44.7719   32.3505   37.9026 H   0  0  0  0  0  0  0  0  0  0  0  0
   43.4943   34.0719   39.1411 H   0  0  0  0  0  0  0  0  0  0  0  0
   44.9606   34.6738   38.3067 H   0  0  0  0  0  0  0  0  0  0  0  0
   44.2365   34.4655   41.2364 H   0  0  0  0  0  0  0  0  0  0  0  0
   45.1620   35.7168   40.3913 H   0  0  0  0  0  0  0  0  0  0  0  0
  1  6  2  0
  2  1  1  0
  3  2  2  0
  3  4  1  0
  4  5  2  0
  5  6  1  0
  7  3  1  0
  1  8  1  0
  2  9  1  0
  5 10  1  0
  7 11  1  0
  7 12  1  0
 13 14  1  0
 14 15  1  0
 15 16  1  0
 16 17  1  0
 16 18  1  0
 18 19  1  0
 19 13  1  0
 14 20  1  0
 14 21  1  0
 15 22  1  0
 15 23  1  0
 16 24  1  0
 18 25  1  0
 18 26  1  0
 19 27  1  0
 19 28  1  0
  7 13  1  0
M  ISO  6   8  14   9  14  10  14  11   8  12   8  17  15
M  END
>  <DihAtoms>  (1) 
2,6,12,13

>  <DihDeg>  (1) 
-60.007504061029564

$$$$
