
 OpenBabel03252509283D

 19 20  0  0  0  0  0  0  0  0999 V2000
   46.9770   35.0470   41.9650 C   0  0  0  0  0  0  0  0  0  0  0  0
   48.0720   35.2280   42.1640 H   0  0  0  0  0  0  0  0  0  0  0  0
   46.6420   35.9060   41.3710 H   0  0  0  0  0  0  0  0  0  0  0  0
   44.5480   35.8180   44.6710 C   0  0  0  0  0  0  0  0  0  0  0  0
   45.2680   35.9160   43.4590 C   0  0  0  0  0  0  0  0  0  0  0  0
   46.2370   34.9400   43.2200 C   0  0  0  0  0  0  0  0  0  0  0  0
   46.4370   33.9690   44.1470 N   0  0  0  0  0  0  0  0  0  0  0  0
   45.7220   33.9170   45.2950 C   0  0  0  0  0  0  0  0  0  0  0  0
   44.7890   34.8400   45.5430 N   0  0  0  0  0  0  0  0  0  0  0  0
   43.7890   36.5820   44.8570 H   0  0  0  0  0  0  0  0  0  0  0  0
   45.0870   36.6950   42.7450 H   0  0  0  0  0  0  0  0  0  0  0  0
   45.8460   33.1720   46.0510 H   0  0  0  0  0  0  0  0  0  0  0  0
   46.8070   33.8700   41.1520 N   0  0  0  0  0  0  0  0  0  0  0  0
   47.8740   33.5820   40.2540 C   0  0  0  0  0  2  0  0  0  0  0  0
   47.8740   32.0680   40.0600 C   0  0  0  0  0  2  0  0  0  0  0  0
   46.5240   31.7010   39.5230 C   0  0  0  0  0  3  0  0  0  0  0  0
   45.9690   30.9710   40.1800 H   0  0  0  0  0  0  0  0  0  0  0  0
   45.6080   32.8750   39.2970 C   0  0  0  0  0  2  0  0  0  0  0  0
   45.5610   33.8360   40.4500 C   0  0  0  0  0  2  0  0  0  0  0  0
  1  2  1  0  0  0  0
  1  6  1  0  0  0  0
  3  1  1  0  0  0  0
  4 10  1  0  0  0  0
  4  9  1  0  0  0  0
  5  4  2  0  0  0  0
  6  5  1  0  0  0  0
  6  7  2  0  0  0  0
  7  8  1  0  0  0  0
  8  9  2  0  0  0  0
  8 12  1  0  0  0  0
 11  5  1  0  0  0  0
 13  1  1  0  0  0  0
 14 13  1  0  0  0  0
 15 14  1  0  0  0  0
 16 15  1  0  0  0  0
 16 17  1  0  0  0  0
 18 16  1  0  0  0  0
 18 19  1  0  0  0  0
 19 13  1  0  0  0  0
M  END
>  <minimizedAffinity>
-3.55180097

>  <minimizedRMSD>
1.04411435

$$$$
