
 OpenBabel03252509033D

 46 48  0  0  1  0  0  0  0  0999 V2000
   46.7360   34.6070   43.4280 N   0  0  0  0  0  0  0  0  0  0  0  0
   46.2310   35.6820   42.6500 C   0  0  0  0  0  0  0  0  0  0  0  0
   44.7190   35.8130   42.6510 C   0  0  0  0  0  0  0  0  0  0  0  0
   44.0820   35.4300   43.9550 C   0  0  0  0  0  0  0  0  0  0  0  0
   45.1110   35.0750   45.0130 C   0  0  0  0  0  0  0  0  0  0  0  0
   45.9440   33.9240   44.3170 C   0  0  2  0  0  0  0  0  0  0  0  0
   46.6150   36.6400   43.1130 H   0  0  0  0  0  0  0  0  0  0  0  0
   46.5440   35.7270   41.6060 H   0  0  0  0  0  0  0  0  0  0  0  0
   44.3510   35.1250   41.8520 H   0  0  0  0  0  0  0  0  0  0  0  0
   44.4410   36.8310   42.3320 H   0  0  0  0  0  0  0  0  0  0  0  0
   43.4470   34.5070   43.8490 H   0  0  0  0  0  0  0  0  0  0  0  0
   43.4270   36.2440   44.2860 H   0  0  0  0  0  0  0  0  0  0  0  0
   45.7700   35.9370   45.1730 H   0  0  0  0  0  0  0  0  0  0  0  0
   44.6040   34.6790   45.8930 H   0  0  0  0  0  0  0  0  0  0  0  0
   45.1950   33.1990   43.9330 H   0  0  0  0  0  0  0  0  0  0  0  0
   47.8580   33.9280   42.8350 C   0  0  0  0  0  0  0  0  0  0  0  0
   48.5050   33.5430   43.6670 H   0  0  0  0  0  0  0  0  0  0  0  0
   48.4710   34.6650   42.2920 H   0  0  0  0  0  0  0  0  0  0  0  0
   47.3450   32.8170   41.9960 C   0  0  0  0  0  0  0  0  0  0  0  0
   46.2330   32.7980   41.9490 H   0  0  0  0  0  0  0  0  0  0  0  0
   47.6330   31.8360   42.4100 H   0  0  0  0  0  0  0  0  0  0  0  0
   49.1060   32.0480   38.7690 C   0  0  0  0  0  0  0  0  0  0  0  0
   48.6100   31.9330   40.0770 C   0  0  0  0  0  0  0  0  0  0  0  0
   47.8600   32.9580   40.6130 C   0  0  0  0  0  0  0  0  0  0  0  0
   47.6440   34.0240   39.8450 N   0  0  0  0  0  0  0  0  0  0  0  0
   48.1160   34.1390   38.5950 C   0  0  0  0  0  0  0  0  0  0  0  0
   48.8450   33.1700   38.0410 N   0  0  0  0  0  0  0  0  0  0  0  0
   49.6980   31.2540   38.3270 H   0  0  0  0  0  0  0  0  0  0  0  0
   48.8000   31.0600   40.6750 H   0  0  0  0  0  0  0  0  0  0  0  0
   47.8980   35.0390   38.0320 H   0  0  0  0  0  0  0  0  0  0  0  0
   46.6480   33.4250   45.3960 O   0  0  0  0  0  0  0  0  0  0  0  0
   45.4780   31.1620   44.6440 O   0  0  0  0  0  0  0  0  0  0  0  0
   46.1900   31.8500   45.8060 P   0  0  2  0  0  0  0  0  0  0  0  0
   45.0230   32.0120   47.0330 O   0  0  0  0  0  0  0  0  0  0  0  0
   45.3800   32.4620   47.8300 H   0  0  0  0  0  0  0  0  0  0  0  0
   47.4630   30.9360   46.3950 O   0  0  0  0  0  0  0  0  0  0  0  0
   47.5590   29.7770   45.6550 C   0  0  0  0  0  0  0  0  0  0  0  0
   48.6010   29.7710   45.2290 H   0  0  0  0  0  0  0  0  0  0  0  0
   46.9140   29.8570   44.7330 H   0  0  0  0  0  0  0  0  0  0  0  0
   47.2580   28.5680   46.3970 N   0  0  0  0  0  0  0  0  0  0  0  0
   46.6310   28.9030   47.6100 C   0  0  0  0  0  0  0  0  0  0  0  0
   45.2280   28.4420   47.8240 C   0  0  0  0  0  0  0  0  0  0  0  0
   44.4650   28.4920   46.5230 C   0  0  0  0  0  0  0  0  0  0  0  0
   44.3190   29.4940   46.1260 H   0  0  0  0  0  0  0  0  0  0  0  0
   45.1450   27.5150   45.6120 C   0  0  0  0  0  0  0  0  0  0  0  0
   46.6300   27.6540   45.5300 C   0  0  0  0  0  0  0  0  0  0  0  0
  1  6  1  0  0  0  0
  2  3  1  0  0  0  0
  2  7  1  0  0  0  0
  2  1  1  0  0  0  0
  3  4  1  0  0  0  0
  4 12  1  0  0  0  0
  4  5  1  0  0  0  0
  5 13  1  0  0  0  0
  5 14  1  0  0  0  0
  6 15  1  6  0  0  0
  6  5  1  0  0  0  0
  6 31  1  0  0  0  0
  8  2  1  0  0  0  0
  9  3  1  0  0  0  0
 10  3  1  0  0  0  0
 11  4  1  0  0  0  0
 16  1  1  0  0  0  0
 16 17  1  0  0  0  0
 18 16  1  0  0  0  0
 19 21  1  0  0  0  0
 19 16  1  0  0  0  0
 20 19  1  0  0  0  0
 22 23  1  0  0  0  0
 23 24  2  0  0  0  0
 23 29  1  0  0  0  0
 24 19  1  0  0  0  0
 25 24  1  0  0  0  0
 26 25  2  0  0  0  0
 27 26  1  0  0  0  0
 27 22  2  0  0  0  0
 28 22  1  0  0  0  0
 30 26  1  0  0  0  0
 31 33  1  0  0  0  0
 33 32  2  6  0  0  0
 33 36  1  0  0  0  0
 33 34  1  0  0  0  0
 34 35  1  0  0  0  0
 37 36  1  0  0  0  0
 37 40  1  0  0  0  0
 38 37  1  0  0  0  0
 39 37  1  0  0  0  0
 40 41  1  0  0  0  0
 41 42  1  0  0  0  0
 43 42  1  0  0  0  0
 44 43  1  0  0  0  0
 45 43  1  0  0  0  0
 46 45  2  0  0  0  0
 46 40  1  0  0  0  0
M  END
>  <minimizedAffinity>
-4.26244259

>  <minimizedRMSD>
1.19118059

$$$$
