
 OpenBabel03252509283D

 19 20  0  0  0  0  0  0  0  0999 V2000
   46.7320   35.0740   41.9340 C   0  0  0  0  0  0  0  0  0  0  0  0
   47.8510   35.1060   42.0730 H   0  0  0  0  0  0  0  0  0  0  0  0
   46.4780   36.0000   41.4040 H   0  0  0  0  0  0  0  0  0  0  0  0
   44.5080   35.9490   44.7810 C   0  0  0  0  0  0  0  0  0  0  0  0
   45.1650   36.0220   43.5330 C   0  0  0  0  0  0  0  0  0  0  0  0
   46.0560   34.9920   43.2270 C   0  0  0  0  0  0  0  0  0  0  0  0
   46.2440   33.9940   44.1280 N   0  0  0  0  0  0  0  0  0  0  0  0
   45.5910   33.9670   45.3130 C   0  0  0  0  0  0  0  0  0  0  0  0
   44.7320   34.9440   45.6250 N   0  0  0  0  0  0  0  0  0  0  0  0
   43.8110   36.7560   45.0190 H   0  0  0  0  0  0  0  0  0  0  0  0
   44.9970   36.8240   42.8410 H   0  0  0  0  0  0  0  0  0  0  0  0
   45.7070   33.2030   46.0500 H   0  0  0  0  0  0  0  0  0  0  0  0
   46.3680   33.9730   41.0800 N   0  0  0  0  0  0  0  0  0  0  0  0
   47.2340   33.7380   39.9750 C   0  0  0  0  0  2  0  0  0  0  0  0
   47.1390   32.2460   39.6660 C   0  0  0  0  0  2  0  0  0  0  0  0
   45.7010   31.9570   39.3680 C   0  0  0  0  0  3  0  0  0  0  0  0
   45.2500   31.1860   40.0600 H   0  0  0  0  0  0  0  0  0  0  0  0
   44.8030   33.1650   39.4140 C   0  0  0  0  0  2  0  0  0  0  0  0
   45.0110   34.0260   40.6270 C   0  0  0  0  0  2  0  0  0  0  0  0
  1  2  1  0  0  0  0
  1  6  1  0  0  0  0
  3  1  1  0  0  0  0
  4 10  1  0  0  0  0
  4  9  1  0  0  0  0
  5  4  2  0  0  0  0
  6  5  1  0  0  0  0
  6  7  2  0  0  0  0
  7  8  1  0  0  0  0
  8  9  2  0  0  0  0
  8 12  1  0  0  0  0
 11  5  1  0  0  0  0
 13  1  1  0  0  0  0
 14 13  1  0  0  0  0
 15 14  1  0  0  0  0
 16 18  1  0  0  0  0
 16 15  1  0  0  0  0
 16 17  1  0  0  0  0
 18 19  1  0  0  0  0
 19 13  1  0  0  0  0
M  END
>  <minimizedAffinity>
-3.59275436

>  <minimizedRMSD>
0.807842314

$$$$
