
 OpenBabel03242518183D

 21 22  0  0  0  0  0  0  0  0999 V2000
   38.5720   30.6590   38.0210 C   0  0  0  0  0  0  0  0  0  0  0  0
   39.2000   31.9110   38.0650 C   0  0  0  0  0  0  0  0  0  0  0  0
   39.0330   32.6640   39.2020 C   0  0  0  0  0  0  0  0  0  0  0  0
   38.2930   32.1830   40.2070 N   0  0  0  0  0  0  0  0  0  0  0  0
   37.6960   30.9810   40.1520 C   0  0  0  0  0  0  0  0  0  0  0  0
   37.8350   30.2060   39.0470 N   0  0  0  0  0  0  0  0  0  0  0  0
   38.6740   30.0260   37.1390 H   0  0  0  0  0  0  0  0  0  0  0  0
   39.5130   33.6110   39.2230 H   0  0  0  0  0  0  0  0  0  0  0  0
   39.9470   32.2670   36.9130 N   0  0  0  0  0  0  0  0  0  0  0  0
   40.4750   31.5110   36.3860 H   0  0  0  0  0  0  0  0  0  0  0  0
   40.0270   33.2350   36.5290 H   0  0  0  0  0  0  0  0  0  0  0  0
   36.8630   30.4130   41.2540 C   0  0  0  0  0  0  0  0  0  0  0  0
   36.7470   31.1800   42.0310 H   0  0  0  0  0  0  0  0  0  0  0  0
   35.8510   30.1370   40.8510 H   0  0  0  0  0  0  0  0  0  0  0  0
   37.3950   29.2270   41.8380 N   0  0  0  0  0  0  0  0  0  0  0  0
   38.3080   29.4370   42.9120 C   0  0  0  0  0  2  0  0  0  0  0  0
   39.1330   28.1930   43.1500 C   0  0  0  0  0  2  0  0  0  0  0  0
   38.3330   26.9250   43.1180 C   0  0  0  0  0  3  0  0  0  0  0  0
   38.6340   26.2240   42.3110 H   0  0  0  0  0  0  0  0  0  0  0  0
   36.8390   27.1750   43.0650 C   0  0  0  0  0  2  0  0  0  0  0  0
   36.4510   28.1720   42.0300 C   0  0  0  0  0  2  0  0  0  0  0  0
  1  2  2  0  0  0  0
  1  6  1  0  0  0  0
  2  3  1  0  0  0  0
  3  8  1  0  0  0  0
  3  4  2  0  0  0  0
  5  4  1  0  0  0  0
  5 12  1  0  0  0  0
  6  5  2  0  0  0  0
  7  1  1  0  0  0  0
  9  2  1  0  0  0  0
 10  9  1  0  0  0  0
 11  9  1  0  0  0  0
 12 15  1  0  0  0  0
 12 13  1  0  0  0  0
 14 12  1  0  0  0  0
 15 21  1  0  0  0  0
 15 16  1  0  0  0  0
 16 17  1  0  0  0  0
 18 17  1  0  0  0  0
 19 18  1  0  0  0  0
 20 18  1  0  0  0  0
 21 20  1  0  0  0  0
M  END
>  <minimizedAffinity>
-4.60430431

$$$$

 OpenBabel03242518183D

 21 22  0  0  0  0  0  0  0  0999 V2000
   36.4300   31.1030   40.8510 C   0  0  0  0  0  0  0  0  0  0  0  0
   37.3880   32.0860   40.5710 C   0  0  0  0  0  0  0  0  0  0  0  0
   38.6870   31.8270   40.9370 C   0  0  0  0  0  0  0  0  0  0  0  0
   38.9830   30.6670   41.5340 N   0  0  0  0  0  0  0  0  0  0  0  0
   38.0550   29.7330   41.7970 C   0  0  0  0  0  0  0  0  0  0  0  0
   36.7600   29.9500   41.4520 N   0  0  0  0  0  0  0  0  0  0  0  0
   35.3860   31.2640   40.5810 H   0  0  0  0  0  0  0  0  0  0  0  0
   39.4040   32.5790   40.7200 H   0  0  0  0  0  0  0  0  0  0  0  0
   36.9030   33.2570   39.9340 N   0  0  0  0  0  0  0  0  0  0  0  0
   36.1180   33.1700   39.2240 H   0  0  0  0  0  0  0  0  0  0  0  0
   37.2620   34.2220   40.1060 H   0  0  0  0  0  0  0  0  0  0  0  0
   38.3500   28.4280   42.4610 C   0  0  0  0  0  0  0  0  0  0  0  0
   39.4390   28.3180   42.5400 H   0  0  0  0  0  0  0  0  0  0  0  0
   37.9020   28.4260   43.4920 H   0  0  0  0  0  0  0  0  0  0  0  0
   37.8090   27.2940   41.7890 N   0  0  0  0  0  0  0  0  0  0  0  0
   38.6810   26.6710   40.8500 C   0  0  0  0  0  2  0  0  0  0  0  0
   37.8930   25.8010   39.8990 C   0  0  0  0  0  2  0  0  0  0  0  0
   36.8430   24.9680   40.5740 C   0  0  0  0  0  3  0  0  0  0  0  0
   35.8070   25.1990   40.2460 H   0  0  0  0  0  0  0  0  0  0  0  0
   36.9380   25.0190   42.0860 C   0  0  0  0  0  2  0  0  0  0  0  0
   37.0580   26.4030   42.6180 C   0  0  0  0  0  2  0  0  0  0  0  0
  1  6  1  0  0  0  0
  2  1  2  0  0  0  0
  2  3  1  0  0  0  0
  3  4  2  0  0  0  0
  4  5  1  0  0  0  0
  5 12  1  0  0  0  0
  6  5  2  0  0  0  0
  7  1  1  0  0  0  0
  8  3  1  0  0  0  0
  9 11  1  0  0  0  0
  9  2  1  0  0  0  0
 10  9  1  0  0  0  0
 12 13  1  0  0  0  0
 12 14  1  0  0  0  0
 15 12  1  0  0  0  0
 15 21  1  0  0  0  0
 16 15  1  0  0  0  0
 17 18  1  0  0  0  0
 17 16  1  0  0  0  0
 18 20  1  0  0  0  0
 19 18  1  0  0  0  0
 20 21  1  0  0  0  0
M  END
>  <minimizedAffinity>
-4.35115719

$$$$

 OpenBabel03242518183D

 21 22  0  0  0  0  0  0  0  0999 V2000
   40.0600   30.6450   38.6460 C   0  0  0  0  0  0  0  0  0  0  0  0
   39.5950   31.9140   38.2820 C   0  0  0  0  0  0  0  0  0  0  0  0
   38.9840   32.6690   39.2550 C   0  0  0  0  0  0  0  0  0  0  0  0
   38.8600   32.1710   40.4910 N   0  0  0  0  0  0  0  0  0  0  0  0
   39.3110   30.9510   40.8270 C   0  0  0  0  0  0  0  0  0  0  0  0
   39.9190   30.1750   39.8950 N   0  0  0  0  0  0  0  0  0  0  0  0
   40.5510   30.0090   37.9080 H   0  0  0  0  0  0  0  0  0  0  0  0
   38.6350   33.6290   38.9680 H   0  0  0  0  0  0  0  0  0  0  0  0
   39.8070   32.2860   36.9300 N   0  0  0  0  0  0  0  0  0  0  0  0
   40.6960   31.9690   36.4410 H   0  0  0  0  0  0  0  0  0  0  0  0
   39.1490   32.8610   36.3580 H   0  0  0  0  0  0  0  0  0  0  0  0
   39.1890   30.3660   42.1960 C   0  0  0  0  0  0  0  0  0  0  0  0
   40.1890   30.3300   42.6470 H   0  0  0  0  0  0  0  0  0  0  0  0
   38.5220   31.0180   42.8210 H   0  0  0  0  0  0  0  0  0  0  0  0
   38.6120   29.0630   42.2250 N   0  0  0  0  0  0  0  0  0  0  0  0
   39.2180   28.1510   43.1370 C   0  0  0  0  0  2  0  0  0  0  0  0
   38.8510   26.7290   42.7780 C   0  0  0  0  0  2  0  0  0  0  0  0
   37.4030   26.5500   42.4320 C   0  0  0  0  0  3  0  0  0  0  0  0
   37.2300   26.2040   41.3900 H   0  0  0  0  0  0  0  0  0  0  0  0
   36.5740   27.7860   42.7180 C   0  0  0  0  0  2  0  0  0  0  0  0
   37.1830   29.0340   42.1830 C   0  0  0  0  0  2  0  0  0  0  0  0
  1  6  1  0  0  0  0
  2  1  2  0  0  0  0
  2  3  1  0  0  0  0
  3  4  2  0  0  0  0
  4  5  1  0  0  0  0
  5 12  1  0  0  0  0
  6  5  2  0  0  0  0
  7  1  1  0  0  0  0
  8  3  1  0  0  0  0
  9  2  1  0  0  0  0
 10  9  1  0  0  0  0
 11  9  1  0  0  0  0
 12 15  1  0  0  0  0
 12 13  1  0  0  0  0
 12 14  1  0  0  0  0
 15 16  1  0  0  0  0
 17 16  1  0  0  0  0
 18 20  1  0  0  0  0
 18 17  1  0  0  0  0
 19 18  1  0  0  0  0
 21 15  1  0  0  0  0
 21 20  1  0  0  0  0
M  END
>  <minimizedAffinity>
-4.25714731

$$$$

 OpenBabel03242518183D

 21 22  0  0  0  0  0  0  0  0999 V2000
   36.1040   30.7010   41.0040 C   0  0  0  0  0  0  0  0  0  0  0  0
   37.1960   31.3800   40.4510 C   0  0  0  0  0  0  0  0  0  0  0  0
   38.2490   30.6240   39.9960 C   0  0  0  0  0  0  0  0  0  0  0  0
   38.1930   29.2900   40.0950 N   0  0  0  0  0  0  0  0  0  0  0  0
   37.1380   28.6510   40.6290 C   0  0  0  0  0  0  0  0  0  0  0  0
   36.0790   29.3620   41.0900 N   0  0  0  0  0  0  0  0  0  0  0  0
   35.2450   31.2580   41.3790 H   0  0  0  0  0  0  0  0  0  0  0  0
   39.0720   31.1500   39.5790 H   0  0  0  0  0  0  0  0  0  0  0  0
   37.0940   32.7950   40.4220 N   0  0  0  0  0  0  0  0  0  0  0  0
   36.1450   33.2400   40.2490 H   0  0  0  0  0  0  0  0  0  0  0  0
   37.8920   33.4540   40.5590 H   0  0  0  0  0  0  0  0  0  0  0  0
   37.0420   27.1660   40.7550 C   0  0  0  0  0  0  0  0  0  0  0  0
   36.0170   26.9100   41.0530 H   0  0  0  0  0  0  0  0  0  0  0  0
   37.2700   26.6930   39.7620 H   0  0  0  0  0  0  0  0  0  0  0  0
   37.9590   26.5980   41.6870 N   0  0  0  0  0  0  0  0  0  0  0  0
   39.1900   26.1470   41.1290 C   0  0  0  0  0  2  0  0  0  0  0  0
   39.8730   25.1860   42.0750 C   0  0  0  0  0  2  0  0  0  0  0  0
   39.8480   25.6300   43.5070 C   0  0  0  0  0  3  0  0  0  0  0  0
   39.3000   24.9380   44.1820 H   0  0  0  0  0  0  0  0  0  0  0  0
   39.3290   27.0440   43.6740 C   0  0  0  0  0  2  0  0  0  0  0  0
   38.0630   27.2930   42.9320 C   0  0  0  0  0  2  0  0  0  0  0  0
  1  6  1  0  0  0  0
  1  7  1  0  0  0  0
  2  1  2  0  0  0  0
  3  4  2  0  0  0  0
  3  2  1  0  0  0  0
  4  5  1  0  0  0  0
  5 12  1  0  0  0  0
  5  6  2  0  0  0  0
  8  3  1  0  0  0  0
  9  2  1  0  0  0  0
  9 11  1  0  0  0  0
 10  9  1  0  0  0  0
 12 13  1  0  0  0  0
 12 15  1  0  0  0  0
 14 12  1  0  0  0  0
 15 21  1  0  0  0  0
 16 15  1  0  0  0  0
 16 17  1  0  0  0  0
 17 18  1  0  0  0  0
 18 20  1  0  0  0  0
 18 19  1  0  0  0  0
 21 20  1  0  0  0  0
M  END
>  <minimizedAffinity>
-4.23450899

$$$$

 OpenBabel03242518183D

 21 22  0  0  0  0  0  0  0  0999 V2000
   38.6480   33.0700   40.5130 C   0  0  0  0  0  0  0  0  0  0  0  0
   37.6460   32.9140   39.5470 C   0  0  0  0  0  0  0  0  0  0  0  0
   37.4390   31.6510   39.0460 C   0  0  0  0  0  0  0  0  0  0  0  0
   38.1890   30.6360   39.4920 N   0  0  0  0  0  0  0  0  0  0  0  0
   39.1470   30.7990   40.4190 C   0  0  0  0  0  0  0  0  0  0  0  0
   39.3830   32.0310   40.9380 N   0  0  0  0  0  0  0  0  0  0  0  0
   38.8500   34.0530   40.9390 H   0  0  0  0  0  0  0  0  0  0  0  0
   36.6780   31.5450   38.3150 H   0  0  0  0  0  0  0  0  0  0  0  0
   36.9460   34.0940   39.1870 N   0  0  0  0  0  0  0  0  0  0  0  0
   36.7520   34.8260   39.9320 H   0  0  0  0  0  0  0  0  0  0  0  0
   36.5950   34.3100   38.2270 H   0  0  0  0  0  0  0  0  0  0  0  0
   40.0010   29.6900   40.9390 C   0  0  0  0  0  0  0  0  0  0  0  0
   40.3950   29.1260   40.0840 H   0  0  0  0  0  0  0  0  0  0  0  0
   40.8570   30.1230   41.5240 H   0  0  0  0  0  0  0  0  0  0  0  0
   39.3270   28.7980   41.8220 N   0  0  0  0  0  0  0  0  0  0  0  0
   40.1650   28.1100   42.7470 C   0  0  0  0  0  2  0  0  0  0  0  0
   39.4490   26.9000   43.3030 C   0  0  0  0  0  2  0  0  0  0  0  0
   38.0220   27.1650   43.6800 C   0  0  0  0  0  3  0  0  0  0  0  0
   37.2860   26.5660   43.1010 H   0  0  0  0  0  0  0  0  0  0  0  0
   37.6630   28.6360   43.6190 C   0  0  0  0  0  2  0  0  0  0  0  0
   38.0960   29.2920   42.3550 C   0  0  0  0  0  2  0  0  0  0  0  0
  1  6  1  0  0  0  0
  1  7  1  0  0  0  0
  2  1  2  0  0  0  0
  3  4  2  0  0  0  0
  3  2  1  0  0  0  0
  4  5  1  0  0  0  0
  5  6  2  0  0  0  0
  5 12  1  0  0  0  0
  8  3  1  0  0  0  0
  9  2  1  0  0  0  0
  9 10  1  0  0  0  0
 11  9  1  0  0  0  0
 12 14  1  0  0  0  0
 12 15  1  0  0  0  0
 13 12  1  0  0  0  0
 15 21  1  0  0  0  0
 15 16  1  0  0  0  0
 16 17  1  0  0  0  0
 17 18  1  0  0  0  0
 19 18  1  0  0  0  0
 20 18  1  0  0  0  0
 21 20  1  0  0  0  0
M  END
>  <minimizedAffinity>
-4.2106781

$$$$

 OpenBabel03242518183D

 21 22  0  0  0  0  0  0  0  0999 V2000
   40.5660   32.2990   37.7210 C   0  0  0  0  0  0  0  0  0  0  0  0
   41.3440   33.4490   37.9050 C   0  0  0  0  0  0  0  0  0  0  0  0
   41.1660   34.1540   39.0710 C   0  0  0  0  0  0  0  0  0  0  0  0
   40.2750   33.7240   39.9710 N   0  0  0  0  0  0  0  0  0  0  0  0
   39.5350   32.6180   39.7820 C   0  0  0  0  0  0  0  0  0  0  0  0
   39.6800   31.8940   38.6440 N   0  0  0  0  0  0  0  0  0  0  0  0
   40.6700   31.7070   36.8110 H   0  0  0  0  0  0  0  0  0  0  0  0
   41.7610   35.0240   39.1990 H   0  0  0  0  0  0  0  0  0  0  0  0
   42.2400   33.7640   36.8510 N   0  0  0  0  0  0  0  0  0  0  0  0
   42.7130   32.9730   36.3230 H   0  0  0  0  0  0  0  0  0  0  0  0
   42.4810   34.7320   36.5420 H   0  0  0  0  0  0  0  0  0  0  0  0
   38.5320   32.1090   40.7640 C   0  0  0  0  0  0  0  0  0  0  0  0
   38.3650   32.8850   41.5220 H   0  0  0  0  0  0  0  0  0  0  0  0
   37.5660   31.8950   40.2320 H   0  0  0  0  0  0  0  0  0  0  0  0
   38.9090   30.8950   41.4090 N   0  0  0  0  0  0  0  0  0  0  0  0
   39.9990   31.0040   42.3200 C   0  0  0  0  0  2  0  0  0  0  0  0
   40.5940   29.6410   42.5910 C   0  0  0  0  0  2  0  0  0  0  0  0
   39.5680   28.5700   42.8150 C   0  0  0  0  0  3  0  0  0  0  0  0
   39.6010   27.7530   42.0630 H   0  0  0  0  0  0  0  0  0  0  0  0
   38.1610   29.1200   42.9310 C   0  0  0  0  0  2  0  0  0  0  0  0
   37.8190   30.0800   41.8460 C   0  0  0  0  0  2  0  0  0  0  0  0
  1  2  2  0  0  0  0
  1  6  1  0  0  0  0
  2  3  1  0  0  0  0
  3  8  1  0  0  0  0
  3  4  2  0  0  0  0
  5  4  1  0  0  0  0
  5 12  1  0  0  0  0
  6  5  2  0  0  0  0
  7  1  1  0  0  0  0
  9  2  1  0  0  0  0
 10  9  1  0  0  0  0
 11  9  1  0  0  0  0
 12 15  1  0  0  0  0
 12 13  1  0  0  0  0
 14 12  1  0  0  0  0
 15 21  1  0  0  0  0
 15 16  1  0  0  0  0
 16 17  1  0  0  0  0
 17 18  1  0  0  0  0
 18 20  1  0  0  0  0
 19 18  1  0  0  0  0
 21 20  1  0  0  0  0
M  END
>  <minimizedAffinity>
-4.19619036

$$$$

 OpenBabel03242518183D

 21 22  0  0  0  0  0  0  0  0999 V2000
   38.3340   29.0670   37.3600 C   0  0  0  0  0  0  0  0  0  0  0  0
   37.2750   29.0160   36.4440 C   0  0  0  0  0  0  0  0  0  0  0  0
   36.0230   29.3430   36.9050 C   0  0  0  0  0  0  0  0  0  0  0  0
   35.8640   29.6920   38.1870 N   0  0  0  0  0  0  0  0  0  0  0  0
   36.8890   29.7370   39.0550 C   0  0  0  0  0  0  0  0  0  0  0  0
   38.1410   29.4210   38.6390 N   0  0  0  0  0  0  0  0  0  0  0  0
   39.3460   28.8150   37.0410 H   0  0  0  0  0  0  0  0  0  0  0  0
   35.2280   29.3000   36.2030 H   0  0  0  0  0  0  0  0  0  0  0  0
   37.6180   28.6250   35.1240 N   0  0  0  0  0  0  0  0  0  0  0  0
   38.5530   28.9290   34.7230 H   0  0  0  0  0  0  0  0  0  0  0  0
   37.0140   28.0500   34.4960 H   0  0  0  0  0  0  0  0  0  0  0  0
   36.7480   30.1220   40.4910 C   0  0  0  0  0  0  0  0  0  0  0  0
   37.2560   31.0830   40.6430 H   0  0  0  0  0  0  0  0  0  0  0  0
   35.6580   30.2350   40.7400 H   0  0  0  0  0  0  0  0  0  0  0  0
   37.2690   29.1630   41.4070 N   0  0  0  0  0  0  0  0  0  0  0  0
   38.0870   29.6970   42.4450 C   0  0  0  0  0  2  0  0  0  0  0  0
   38.9280   28.6040   43.0640 C   0  0  0  0  0  2  0  0  0  0  0  0
   38.1720   27.3350   43.3200 C   0  0  0  0  0  3  0  0  0  0  0  0
   38.5570   26.4600   42.7540 H   0  0  0  0  0  0  0  0  0  0  0  0
   36.6800   27.4860   43.1000 C   0  0  0  0  0  2  0  0  0  0  0  0
   36.3440   28.1500   41.8110 C   0  0  0  0  0  2  0  0  0  0  0  0
  1  6  1  0  0  0  0
  2  3  1  0  0  0  0
  2  1  2  0  0  0  0
  3  4  2  0  0  0  0
  4  5  1  0  0  0  0
  5 12  1  0  0  0  0
  6  5  2  0  0  0  0
  7  1  1  0  0  0  0
  8  3  1  0  0  0  0
  9  2  1  0  0  0  0
 10  9  1  0  0  0  0
 11  9  1  0  0  0  0
 12 13  1  0  0  0  0
 12 14  1  0  0  0  0
 12 15  1  0  0  0  0
 15 21  1  0  0  0  0
 15 16  1  0  0  0  0
 16 17  1  0  0  0  0
 17 18  1  0  0  0  0
 19 18  1  0  0  0  0
 20 18  1  0  0  0  0
 21 20  1  0  0  0  0
M  END
>  <minimizedAffinity>
-4.13026428

$$$$

 OpenBabel03242518183D

 21 22  0  0  0  0  0  0  0  0999 V2000
   37.3300   30.5650   37.1880 C   0  0  0  0  0  0  0  0  0  0  0  0
   38.4910   31.2610   37.5500 C   0  0  0  0  0  0  0  0  0  0  0  0
   39.0960   30.9130   38.7330 C   0  0  0  0  0  0  0  0  0  0  0  0
   38.5650   29.9390   39.4820 N   0  0  0  0  0  0  0  0  0  0  0  0
   37.4510   29.2790   39.1230 C   0  0  0  0  0  0  0  0  0  0  0  0
   36.8230   29.5930   37.9620 N   0  0  0  0  0  0  0  0  0  0  0  0
   36.8140   30.8070   36.2590 H   0  0  0  0  0  0  0  0  0  0  0  0
   39.9740   31.4470   38.9970 H   0  0  0  0  0  0  0  0  0  0  0  0
   38.9170   32.2650   36.6420 N   0  0  0  0  0  0  0  0  0  0  0  0
   38.7870   32.1060   35.6000 H   0  0  0  0  0  0  0  0  0  0  0  0
   39.3620   33.1680   36.9170 H   0  0  0  0  0  0  0  0  0  0  0  0
   36.8320   28.1880   39.9330 C   0  0  0  0  0  0  0  0  0  0  0  0
   35.7920   28.4650   40.1510 H   0  0  0  0  0  0  0  0  0  0  0  0
   36.8460   27.2320   39.3420 H   0  0  0  0  0  0  0  0  0  0  0  0
   37.5110   27.9090   41.1550 N   0  0  0  0  0  0  0  0  0  0  0  0
   36.8210   28.3070   42.3370 C   0  0  0  0  0  2  0  0  0  0  0  0
   37.7800   28.3850   43.5020 C   0  0  0  0  0  2  0  0  0  0  0  0
   38.7340   27.2300   43.5760 C   0  0  0  0  0  3  0  0  0  0  0  0
   39.8020   27.5220   43.4750 H   0  0  0  0  0  0  0  0  0  0  0  0
   38.3970   26.1280   42.5920 C   0  0  0  0  0  2  0  0  0  0  0  0
   38.1480   26.6310   41.2140 C   0  0  0  0  0  2  0  0  0  0  0  0
  1  2  2  0  0  0  0
  1  6  1  0  0  0  0
  2  3  1  0  0  0  0
  3  8  1  0  0  0  0
  3  4  2  0  0  0  0
  5  4  1  0  0  0  0
  5 12  1  0  0  0  0
  6  5  2  0  0  0  0
  7  1  1  0  0  0  0
  9 11  1  0  0  0  0
  9  2  1  0  0  0  0
 10  9  1  0  0  0  0
 12 13  1  0  0  0  0
 12 15  1  0  0  0  0
 14 12  1  0  0  0  0
 15 21  1  0  0  0  0
 15 16  1  0  0  0  0
 16 17  1  0  0  0  0
 17 18  1  0  0  0  0
 19 18  1  0  0  0  0
 20 18  1  0  0  0  0
 21 20  1  0  0  0  0
M  END
>  <minimizedAffinity>
-4.10714769

$$$$

 OpenBabel03242518183D

 21 22  0  0  0  0  0  0  0  0999 V2000
   38.3080   26.6970   41.4350 C   0  0  0  0  0  0  0  0  0  0  0  0
   37.3070   26.2630   42.3120 C   0  0  0  0  0  0  0  0  0  0  0  0
   36.7840   27.1860   43.1860 C   0  0  0  0  0  0  0  0  0  0  0  0
   37.2430   28.4430   43.1650 N   0  0  0  0  0  0  0  0  0  0  0  0
   38.2050   28.8470   42.3190 C   0  0  0  0  0  0  0  0  0  0  0  0
   38.7460   27.9650   41.4410 N   0  0  0  0  0  0  0  0  0  0  0  0
   38.7540   26.0010   40.7250 H   0  0  0  0  0  0  0  0  0  0  0  0
   36.0260   26.8450   43.8460 H   0  0  0  0  0  0  0  0  0  0  0  0
   36.9380   24.8970   42.2010 N   0  0  0  0  0  0  0  0  0  0  0  0
   36.9340   24.4410   41.2420 H   0  0  0  0  0  0  0  0  0  0  0  0
   36.6620   24.2860   43.0010 H   0  0  0  0  0  0  0  0  0  0  0  0
   38.7390   30.2400   42.2690 C   0  0  0  0  0  0  0  0  0  0  0  0
   38.4370   30.7600   43.1870 H   0  0  0  0  0  0  0  0  0  0  0  0
   39.8610   30.2060   42.2140 H   0  0  0  0  0  0  0  0  0  0  0  0
   38.3080   30.9920   41.1380 N   0  0  0  0  0  0  0  0  0  0  0  0
   36.9080   30.9480   40.8770 C   0  0  0  0  0  2  0  0  0  0  0  0
   36.6250   31.3780   39.4560 C   0  0  0  0  0  2  0  0  0  0  0  0
   37.4030   32.5870   39.0270 C   0  0  0  0  0  3  0  0  0  0  0  0
   38.0940   32.3980   38.1780 H   0  0  0  0  0  0  0  0  0  0  0  0
   38.1460   33.2430   40.1730 C   0  0  0  0  0  2  0  0  0  0  0  0
   38.9210   32.2760   40.9970 C   0  0  0  0  0  2  0  0  0  0  0  0
  1  6  2  0  0  0  0
  1  2  1  0  0  0  0
  2  3  2  0  0  0  0
  3  8  1  0  0  0  0
  4  3  1  0  0  0  0
  5  4  2  0  0  0  0
  6  5  1  0  0  0  0
  7  1  1  0  0  0  0
  9  2  1  0  0  0  0
  9 11  1  0  0  0  0
 10  9  1  0  0  0  0
 12  5  1  0  0  0  0
 12 13  1  0  0  0  0
 14 12  1  0  0  0  0
 15 12  1  0  0  0  0
 16 15  1  0  0  0  0
 17 16  1  0  0  0  0
 18 17  1  0  0  0  0
 18 20  1  0  0  0  0
 19 18  1  0  0  0  0
 20 21  1  0  0  0  0
 21 15  1  0  0  0  0
M  END
>  <minimizedAffinity>
-4.08357763

$$$$
