
 OpenBabel03252502063D

 44 48  0  0  0  0  0  0  0  0999 V2000
   35.8570   30.5670   40.4140 C   0  0  0  0  0  0  0  0  0  0  0  0
   36.9990   31.2680   40.0520 C   0  0  0  0  0  0  0  0  0  0  0  0
   37.8560   30.6430   39.2130 C   0  0  0  0  0  0  0  0  0  0  0  0
   37.5860   29.4100   38.7640 N   0  0  0  0  0  0  0  0  0  0  0  0
   36.5000   28.7230   39.0900 C   0  0  0  0  0  0  0  0  0  0  0  0
   35.6470   29.3480   39.9330 N   0  0  0  0  0  0  0  0  0  0  0  0
   39.0260   31.2490   38.7800 N   0  0  0  0  0  0  0  0  0  0  0  0
   40.1240   30.5980   38.0430 C   0  0  0  0  0  0  0  0  0  0  0  0
   41.0130   31.7210   37.5640 C   0  0  0  0  0  0  0  0  0  0  0  0
   40.7820   32.8040   38.5830 C   0  0  0  0  0  0  0  0  0  0  0  0
   39.3640   32.6400   38.9900 C   0  0  0  0  0  0  0  0  0  0  0  0
   35.1520   31.0490   41.0950 H   0  0  0  0  0  0  0  0  0  0  0  0
   40.6550   29.8610   38.6580 H   0  0  0  0  0  0  0  0  0  0  0  0
   39.6490   30.1400   37.1390 H   0  0  0  0  0  0  0  0  0  0  0  0
   42.0540   31.3590   37.6020 H   0  0  0  0  0  0  0  0  0  0  0  0
   40.7000   32.1180   36.5830 H   0  0  0  0  0  0  0  0  0  0  0  0
   41.5400   32.6580   39.3720 H   0  0  0  0  0  0  0  0  0  0  0  0
   40.9950   33.8250   38.1680 H   0  0  0  0  0  0  0  0  0  0  0  0
   39.4380   32.9050   40.0900 H   0  0  0  0  0  0  0  0  0  0  0  0
   38.7540   33.3390   38.4170 H   0  0  0  0  0  0  0  0  0  0  0  0
   36.0330   27.3890   38.7110 C   0  0  0  0  0  0  0  0  0  0  0  0
   35.2240   27.1750   37.6340 N   0  0  0  0  0  0  0  0  0  0  0  0
   34.7890   25.9840   37.2310 C   0  0  0  0  0  0  0  0  0  0  0  0
   35.1590   24.8780   37.9150 N   0  0  0  0  0  0  0  0  0  0  0  0
   35.9620   24.9700   39.0020 C   0  0  0  0  0  0  0  0  0  0  0  0
   36.3410   23.8350   39.6580 C   0  0  0  0  0  0  0  0  0  0  0  0
   37.1770   23.9160   40.7420 C   0  0  0  0  0  0  0  0  0  0  0  0
   37.6100   25.1770   41.1370 C   0  0  0  0  0  0  0  0  0  0  0  0
   37.1810   26.2860   40.4240 C   0  0  0  0  0  0  0  0  0  0  0  0
   36.3590   26.2300   39.3480 C   0  0  0  0  0  0  0  0  0  0  0  0
   34.1470   25.8690   36.3670 H   0  0  0  0  0  0  0  0  0  0  0  0
   35.9460   22.8910   39.2730 H   0  0  0  0  0  0  0  0  0  0  0  0
   37.4070   22.9440   41.1780 H   0  0  0  0  0  0  0  0  0  0  0  0
   38.2520   25.0350   41.9950 H   0  0  0  0  0  0  0  0  0  0  0  0
   37.7540   27.3430   41.1780 N   0  0  0  0  0  0  0  0  0  0  0  0
   36.9420   27.8390   42.3150 C   0  0  0  0  0  2  0  0  0  0  0  0
   37.6020   27.3430   43.5890 C   0  0  0  0  0  2  0  0  0  0  0  0
   39.0460   27.6290   43.6740 C   0  0  0  0  0  3  0  0  0  0  0  0
   39.2080   28.4900   44.3720 H   0  0  0  0  0  0  0  0  0  0  0  0
   39.8280   27.7730   42.4160 C   0  0  0  0  0  2  0  0  0  0  0  0
   39.0180   28.0610   41.1870 C   0  0  0  0  0  2  0  0  0  0  0  0
   37.1620   32.5740   40.5040 N   0  0  0  0  0  0  0  0  0  0  0  0
   36.9990   33.4880   40.0470 H   0  0  0  0  0  0  0  0  0  0  0  0
   37.5230   32.6080   41.5040 H   0  0  0  0  0  0  0  0  0  0  0  0
  1 12  1  0  0  0  0
  2  1  1  0  0  0  0
  2 42  1  0  0  0  0
  3  2  2  0  0  0  0
  4  5  2  0  0  0  0
  4  3  1  0  0  0  0
  5  6  1  0  0  0  0
  6  1  2  0  0  0  0
  7 11  1  0  0  0  0
  7  3  1  0  0  0  0
  8 13  1  0  0  0  0
  8  7  1  0  0  0  0
  9 15  1  0  0  0  0
  9  8  1  0  0  0  0
  9 10  1  0  0  0  0
 10 11  1  0  0  0  0
 10 17  1  0  0  0  0
 11 19  1  0  0  0  0
 14  8  1  0  0  0  0
 16  9  1  0  0  0  0
 18 10  1  0  0  0  0
 20 11  1  0  0  0  0
 21  5  1  0  0  0  0
 21 30  1  0  0  0  0
 22 21  2  0  0  0  0
 23 22  1  0  0  0  0
 23 24  2  0  0  0  0
 24 25  1  0  0  0  0
 25 30  2  0  0  0  0
 25 26  1  0  0  0  0
 26 27  2  0  0  0  0
 27 28  1  0  0  0  0
 27 33  1  0  0  0  0
 28 34  1  0  0  0  0
 29 28  2  0  0  0  0
 29 35  1  0  0  0  0
 30 29  1  0  0  0  0
 31 23  1  0  0  0  0
 32 26  1  0  0  0  0
 35 41  1  0  0  0  0
 35 36  1  0  0  0  0
 36 37  1  0  0  0  0
 37 38  1  0  0  0  0
 38 39  1  0  0  0  0
 40 38  1  0  0  0  0
 41 40  1  0  0  0  0
 42 44  1  0  0  0  0
 43 42  1  0  0  0  0
M  END
>  <minimizedAffinity>
-6.59658241

$$$$

 OpenBabel03252502063D

 44 48  0  0  0  0  0  0  0  0999 V2000
   36.1800   30.7750   41.0290 C   0  0  0  0  0  0  0  0  0  0  0  0
   37.2440   31.5050   40.5170 C   0  0  0  0  0  0  0  0  0  0  0  0
   38.3410   30.8060   40.1500 C   0  0  0  0  0  0  0  0  0  0  0  0
   38.3700   29.4740   40.2810 N   0  0  0  0  0  0  0  0  0  0  0  0
   37.3670   28.7530   40.7610 C   0  0  0  0  0  0  0  0  0  0  0  0
   36.2720   29.4550   41.1320 N   0  0  0  0  0  0  0  0  0  0  0  0
   39.4620   31.4310   39.6200 N   0  0  0  0  0  0  0  0  0  0  0  0
   40.7760   30.8080   39.3820 C   0  0  0  0  0  0  0  0  0  0  0  0
   41.5500   31.8010   38.5480 C   0  0  0  0  0  0  0  0  0  0  0  0
   40.9460   33.1230   38.9350 C   0  0  0  0  0  0  0  0  0  0  0  0
   39.5210   32.8170   39.2140 C   0  0  0  0  0  0  0  0  0  0  0  0
   35.2840   31.3180   41.3370 H   0  0  0  0  0  0  0  0  0  0  0  0
   41.2840   30.5440   40.3190 H   0  0  0  0  0  0  0  0  0  0  0  0
   40.5730   29.9160   38.7380 H   0  0  0  0  0  0  0  0  0  0  0  0
   42.6070   31.7420   38.8590 H   0  0  0  0  0  0  0  0  0  0  0  0
   41.3820   31.6640   37.4660 H   0  0  0  0  0  0  0  0  0  0  0  0
   41.5430   33.5040   39.7820 H   0  0  0  0  0  0  0  0  0  0  0  0
   41.0700   33.8950   38.1290 H   0  0  0  0  0  0  0  0  0  0  0  0
   39.3270   33.5290   40.0760 H   0  0  0  0  0  0  0  0  0  0  0  0
   38.9340   33.0470   38.3240 H   0  0  0  0  0  0  0  0  0  0  0  0
   37.2080   27.3150   40.9780 C   0  0  0  0  0  0  0  0  0  0  0  0
   37.4310   26.7280   42.1880 N   0  0  0  0  0  0  0  0  0  0  0  0
   37.2800   25.4310   42.4480 C   0  0  0  0  0  0  0  0  0  0  0  0
   36.8730   24.6020   41.4600 N   0  0  0  0  0  0  0  0  0  0  0  0
   36.6200   25.0740   40.2170 C   0  0  0  0  0  0  0  0  0  0  0  0
   36.1850   24.2200   39.2460 C   0  0  0  0  0  0  0  0  0  0  0  0
   35.8990   24.6950   37.9920 C   0  0  0  0  0  0  0  0  0  0  0  0
   36.0700   26.0540   37.7560 C   0  0  0  0  0  0  0  0  0  0  0  0
   36.5190   26.8620   38.7900 C   0  0  0  0  0  0  0  0  0  0  0  0
   36.8040   26.4160   40.0370 C   0  0  0  0  0  0  0  0  0  0  0  0
   37.4720   25.0160   43.4290 H   0  0  0  0  0  0  0  0  0  0  0  0
   36.0840   23.1680   39.5280 H   0  0  0  0  0  0  0  0  0  0  0  0
   35.5600   23.9170   37.3070 H   0  0  0  0  0  0  0  0  0  0  0  0
   35.7960   26.2320   36.7250 H   0  0  0  0  0  0  0  0  0  0  0  0
   36.6420   28.1140   38.1330 N   0  0  0  0  0  0  0  0  0  0  0  0
   37.9490   28.3780   37.4850 C   0  0  0  0  0  2  0  0  0  0  0  0
   37.7380   28.2640   35.9860 C   0  0  0  0  0  2  0  0  0  0  0  0
   36.6080   29.0580   35.4710 C   0  0  0  0  0  3  0  0  0  0  0  0
   37.0050   29.9750   34.9650 H   0  0  0  0  0  0  0  0  0  0  0  0
   35.4710   29.3680   36.3800 C   0  0  0  0  0  2  0  0  0  0  0  0
   35.7670   29.2380   37.8440 C   0  0  0  0  0  2  0  0  0  0  0  0
   37.0990   32.8790   40.3440 N   0  0  0  0  0  0  0  0  0  0  0  0
   36.8860   33.4500   39.5080 H   0  0  0  0  0  0  0  0  0  0  0  0
   37.2400   33.4120   41.2530 H   0  0  0  0  0  0  0  0  0  0  0  0
  1  6  1  0  0  0  0
  1 12  1  0  0  0  0
  2  1  2  0  0  0  0
  3  4  2  0  0  0  0
  3  2  1  0  0  0  0
  4  5  1  0  0  0  0
  5 21  1  0  0  0  0
  5  6  2  0  0  0  0
  7  3  1  0  0  0  0
  8  7  1  0  0  0  0
  8 13  1  0  0  0  0
  9 15  1  0  0  0  0
  9 10  1  0  0  0  0
  9  8  1  0  0  0  0
 10 11  1  0  0  0  0
 10 17  1  0  0  0  0
 11  7  1  0  0  0  0
 11 19  1  0  0  0  0
 14  8  1  0  0  0  0
 16  9  1  0  0  0  0
 18 10  1  0  0  0  0
 20 11  1  0  0  0  0
 21 22  1  0  0  0  0
 22 23  2  0  0  0  0
 23 31  1  0  0  0  0
 24 23  1  0  0  0  0
 25 24  2  0  0  0  0
 26 32  1  0  0  0  0
 26 25  1  0  0  0  0
 27 26  2  0  0  0  0
 28 27  1  0  0  0  0
 28 29  2  0  0  0  0
 29 30  1  0  0  0  0
 30 25  1  0  0  0  0
 30 21  2  0  0  0  0
 33 27  1  0  0  0  0
 34 28  1  0  0  0  0
 35 29  1  0  0  0  0
 36 35  1  0  0  0  0
 37 36  1  0  0  0  0
 38 37  1  0  0  0  0
 38 40  1  0  0  0  0
 39 38  1  0  0  0  0
 40 41  1  0  0  0  0
 41 35  1  0  0  0  0
 42  2  1  0  0  0  0
 42 44  1  0  0  0  0
 43 42  1  0  0  0  0
M  END
>  <minimizedAffinity>
-6.53650093

$$$$

 OpenBabel03252502063D

 44 48  0  0  0  0  0  0  0  0999 V2000
   39.4670   30.7270   42.7610 C   0  0  0  0  0  0  0  0  0  0  0  0
   39.8140   31.3890   41.5910 C   0  0  0  0  0  0  0  0  0  0  0  0
   40.2970   30.6290   40.5830 C   0  0  0  0  0  0  0  0  0  0  0  0
   40.4180   29.3030   40.7320 N   0  0  0  0  0  0  0  0  0  0  0  0
   40.0880   28.6470   41.8360 C   0  0  0  0  0  0  0  0  0  0  0  0
   39.6100   29.4100   42.8450 N   0  0  0  0  0  0  0  0  0  0  0  0
   40.6700   31.1810   39.3660 N   0  0  0  0  0  0  0  0  0  0  0  0
   41.3950   30.4940   38.2830 C   0  0  0  0  0  0  0  0  0  0  0  0
   41.3080   31.4150   37.0890 C   0  0  0  0  0  0  0  0  0  0  0  0
   41.1740   32.7780   37.7130 C   0  0  0  0  0  0  0  0  0  0  0  0
   40.4080   32.5450   38.9620 C   0  0  0  0  0  0  0  0  0  0  0  0
   39.0790   31.3200   43.5920 H   0  0  0  0  0  0  0  0  0  0  0  0
   42.4280   30.2510   38.5640 H   0  0  0  0  0  0  0  0  0  0  0  0
   40.7890   29.5830   38.0460 H   0  0  0  0  0  0  0  0  0  0  0  0
   42.2560   31.3270   36.5320 H   0  0  0  0  0  0  0  0  0  0  0  0
   40.4020   31.2380   36.4840 H   0  0  0  0  0  0  0  0  0  0  0  0
   42.1990   33.1710   37.8290 H   0  0  0  0  0  0  0  0  0  0  0  0
   40.6660   33.5070   37.0260 H   0  0  0  0  0  0  0  0  0  0  0  0
   40.9040   33.3010   39.6460 H   0  0  0  0  0  0  0  0  0  0  0  0
   39.3560   32.7590   38.7710 H   0  0  0  0  0  0  0  0  0  0  0  0
   40.1440   27.2280   42.1870 C   0  0  0  0  0  0  0  0  0  0  0  0
   41.2280   26.6670   42.7950 N   0  0  0  0  0  0  0  0  0  0  0  0
   41.3240   25.3900   43.1570 C   0  0  0  0  0  0  0  0  0  0  0  0
   40.2860   24.5550   42.9220 N   0  0  0  0  0  0  0  0  0  0  0  0
   39.1570   25.0030   42.3250 C   0  0  0  0  0  0  0  0  0  0  0  0
   38.1140   24.1460   42.1240 C   0  0  0  0  0  0  0  0  0  0  0  0
   36.9560   24.5980   41.5460 C   0  0  0  0  0  0  0  0  0  0  0  0
   36.8910   25.9360   41.1790 C   0  0  0  0  0  0  0  0  0  0  0  0
   37.9910   26.7490   41.4100 C   0  0  0  0  0  0  0  0  0  0  0  0
   39.1440   26.3260   41.9830 C   0  0  0  0  0  0  0  0  0  0  0  0
   42.2100   24.9940   43.6370 H   0  0  0  0  0  0  0  0  0  0  0  0
   38.2620   23.1110   42.4450 H   0  0  0  0  0  0  0  0  0  0  0  0
   36.1990   23.8200   41.4410 H   0  0  0  0  0  0  0  0  0  0  0  0
   35.9130   26.0980   40.7480 H   0  0  0  0  0  0  0  0  0  0  0  0
   37.5640   27.9710   40.8290 N   0  0  0  0  0  0  0  0  0  0  0  0
   37.8560   28.1350   39.3850 C   0  0  0  0  0  2  0  0  0  0  0  0
   36.5410   27.9890   38.6410 C   0  0  0  0  0  2  0  0  0  0  0  0
   35.4520   28.8340   39.1640 C   0  0  0  0  0  3  0  0  0  0  0  0
   35.3080   29.7100   38.4810 H   0  0  0  0  0  0  0  0  0  0  0  0
   35.4780   29.2400   40.5960 C   0  0  0  0  0  2  0  0  0  0  0  0
   36.8150   29.1370   41.2670 C   0  0  0  0  0  2  0  0  0  0  0  0
   39.5830   32.7580   41.4960 N   0  0  0  0  0  0  0  0  0  0  0  0
   38.8240   33.3000   41.0480 H   0  0  0  0  0  0  0  0  0  0  0  0
   40.3420   33.3250   41.9790 H   0  0  0  0  0  0  0  0  0  0  0  0
  1  6  1  0  0  0  0
  1 12  1  0  0  0  0
  2  1  2  0  0  0  0
  3  4  2  0  0  0  0
  3  2  1  0  0  0  0
  4  5  1  0  0  0  0
  5 21  1  0  0  0  0
  5  6  2  0  0  0  0
  7  3  1  0  0  0  0
  8 13  1  0  0  0  0
  8  7  1  0  0  0  0
  9 10  1  0  0  0  0
  9  8  1  0  0  0  0
 10 17  1  0  0  0  0
 10 11  1  0  0  0  0
 11  7  1  0  0  0  0
 11 19  1  0  0  0  0
 14  8  1  0  0  0  0
 15  9  1  0  0  0  0
 16  9  1  0  0  0  0
 18 10  1  0  0  0  0
 20 11  1  0  0  0  0
 21 22  1  0  0  0  0
 22 23  2  0  0  0  0
 23 31  1  0  0  0  0
 24 23  1  0  0  0  0
 25 24  2  0  0  0  0
 26 25  1  0  0  0  0
 26 32  1  0  0  0  0
 27 26  2  0  0  0  0
 28 29  2  0  0  0  0
 28 27  1  0  0  0  0
 29 30  1  0  0  0  0
 30 21  2  0  0  0  0
 30 25  1  0  0  0  0
 33 27  1  0  0  0  0
 34 28  1  0  0  0  0
 35 41  1  0  0  0  0
 35 29  1  0  0  0  0
 36 35  1  0  0  0  0
 37 38  1  0  0  0  0
 37 36  1  0  0  0  0
 38 40  1  0  0  0  0
 39 38  1  0  0  0  0
 40 41  1  0  0  0  0
 42  2  1  0  0  0  0
 42 44  1  0  0  0  0
 43 42  1  0  0  0  0
M  END
>  <minimizedAffinity>
-6.51792955

$$$$

 OpenBabel03252502063D

 44 48  0  0  0  0  0  0  0  0999 V2000
   38.4870   27.4660   36.5560 C   0  0  0  0  0  0  0  0  0  0  0  0
   37.3010   27.9840   36.0540 C   0  0  0  0  0  0  0  0  0  0  0  0
   36.2110   27.8870   36.8480 C   0  0  0  0  0  0  0  0  0  0  0  0
   36.3020   27.3180   38.0570 N   0  0  0  0  0  0  0  0  0  0  0  0
   37.4230   26.8210   38.5610 C   0  0  0  0  0  0  0  0  0  0  0  0
   38.5110   26.9150   37.7630 N   0  0  0  0  0  0  0  0  0  0  0  0
   34.9740   28.3760   36.4520 N   0  0  0  0  0  0  0  0  0  0  0  0
   33.6870   28.1450   37.1330 C   0  0  0  0  0  0  0  0  0  0  0  0
   32.7110   29.1020   36.4910 C   0  0  0  0  0  0  0  0  0  0  0  0
   33.2740   29.2950   35.1100 C   0  0  0  0  0  0  0  0  0  0  0  0
   34.7440   29.2010   35.2870 C   0  0  0  0  0  0  0  0  0  0  0  0
   39.3810   27.5280   35.9310 H   0  0  0  0  0  0  0  0  0  0  0  0
   33.3670   27.0960   37.0690 H   0  0  0  0  0  0  0  0  0  0  0  0
   33.8410   28.4820   38.1890 H   0  0  0  0  0  0  0  0  0  0  0  0
   31.7300   28.5990   36.4520 H   0  0  0  0  0  0  0  0  0  0  0  0
   32.7010   30.0890   36.9850 H   0  0  0  0  0  0  0  0  0  0  0  0
   32.8050   28.5280   34.4700 H   0  0  0  0  0  0  0  0  0  0  0  0
   32.9570   30.2740   34.6590 H   0  0  0  0  0  0  0  0  0  0  0  0
   35.0300   28.6760   34.3230 H   0  0  0  0  0  0  0  0  0  0  0  0
   35.1520   30.2090   35.3670 H   0  0  0  0  0  0  0  0  0  0  0  0
   37.7210   26.1730   39.8380 C   0  0  0  0  0  0  0  0  0  0  0  0
   37.7740   24.8180   39.9760 N   0  0  0  0  0  0  0  0  0  0  0  0
   38.0630   24.1760   41.1060 C   0  0  0  0  0  0  0  0  0  0  0  0
   38.3320   24.8900   42.2230 N   0  0  0  0  0  0  0  0  0  0  0  0
   38.3100   26.2430   42.2030 C   0  0  0  0  0  0  0  0  0  0  0  0
   38.6130   26.9390   43.3370 C   0  0  0  0  0  0  0  0  0  0  0  0
   38.6210   28.3100   43.3190 C   0  0  0  0  0  0  0  0  0  0  0  0
   38.3130   28.9470   42.1230 C   0  0  0  0  0  0  0  0  0  0  0  0
   38.0120   28.1750   41.0110 C   0  0  0  0  0  0  0  0  0  0  0  0
   38.0010   26.8210   41.0040 C   0  0  0  0  0  0  0  0  0  0  0  0
   38.0900   23.0950   41.1610 H   0  0  0  0  0  0  0  0  0  0  0  0
   38.8390   26.3480   44.2290 H   0  0  0  0  0  0  0  0  0  0  0  0
   38.8770   28.7490   44.2840 H   0  0  0  0  0  0  0  0  0  0  0  0
   38.3730   30.0110   42.3080 H   0  0  0  0  0  0  0  0  0  0  0  0
   37.6790   29.1730   40.0580 N   0  0  0  0  0  0  0  0  0  0  0  0
   36.2670   29.6240   40.0630 C   0  0  0  0  0  2  0  0  0  0  0  0
   36.2390   31.0140   40.6720 C   0  0  0  0  0  2  0  0  0  0  0  0
   37.2000   31.9570   40.0720 C   0  0  0  0  0  3  0  0  0  0  0  0
   36.6500   32.6550   39.3910 H   0  0  0  0  0  0  0  0  0  0  0  0
   38.4390   31.4230   39.4440 C   0  0  0  0  0  2  0  0  0  0  0  0
   38.3970   29.9700   39.0780 C   0  0  0  0  0  2  0  0  0  0  0  0
   37.3130   28.6270   34.8200 N   0  0  0  0  0  0  0  0  0  0  0  0
   37.3370   29.6290   34.5640 H   0  0  0  0  0  0  0  0  0  0  0  0
   37.2920   27.9370   34.0110 H   0  0  0  0  0  0  0  0  0  0  0  0
  1  6  1  0  0  0  0
  2  1  2  0  0  0  0
  2  3  1  0  0  0  0
  3  4  2  0  0  0  0
  4  5  1  0  0  0  0
  5 21  1  0  0  0  0
  6  5  2  0  0  0  0
  7  3  1  0  0  0  0
  7  8  1  0  0  0  0
  8 14  1  0  0  0  0
  9 16  1  0  0  0  0
  9  8  1  0  0  0  0
 10 11  1  0  0  0  0
 10  9  1  0  0  0  0
 11 20  1  0  0  0  0
 11  7  1  0  0  0  0
 12  1  1  0  0  0  0
 13  8  1  0  0  0  0
 15  9  1  0  0  0  0
 17 10  1  0  0  0  0
 18 10  1  0  0  0  0
 19 11  1  0  0  0  0
 21 22  2  0  0  0  0
 21 30  1  0  0  0  0
 22 23  1  0  0  0  0
 23 31  1  0  0  0  0
 23 24  2  0  0  0  0
 25 24  1  0  0  0  0
 25 26  1  0  0  0  0
 26 32  1  0  0  0  0
 27 26  2  0  0  0  0
 27 33  1  0  0  0  0
 28 34  1  0  0  0  0
 28 27  1  0  0  0  0
 29 28  2  0  0  0  0
 30 29  1  0  0  0  0
 30 25  2  0  0  0  0
 35 36  1  0  0  0  0
 35 29  1  0  0  0  0
 36 37  1  0  0  0  0
 38 37  1  0  0  0  0
 39 38  1  0  0  0  0
 40 38  1  0  0  0  0
 41 40  1  0  0  0  0
 41 35  1  0  0  0  0
 42  2  1  0  0  0  0
 43 42  1  0  0  0  0
 44 42  1  0  0  0  0
M  END
>  <minimizedAffinity>
-6.3677187

$$$$

 OpenBabel03252502063D

 44 48  0  0  0  0  0  0  0  0999 V2000
   36.6930   31.5610   40.2190 C   0  0  0  0  0  0  0  0  0  0  0  0
   38.0290   31.9250   40.3230 C   0  0  0  0  0  0  0  0  0  0  0  0
   38.9260   31.1340   39.6930 C   0  0  0  0  0  0  0  0  0  0  0  0
   38.5160   30.0600   39.0050 N   0  0  0  0  0  0  0  0  0  0  0  0
   37.2480   29.6950   38.8860 C   0  0  0  0  0  0  0  0  0  0  0  0
   36.3530   30.4850   39.5210 N   0  0  0  0  0  0  0  0  0  0  0  0
   40.2860   31.4050   39.7230 N   0  0  0  0  0  0  0  0  0  0  0  0
   41.3630   30.5140   39.2580 C   0  0  0  0  0  0  0  0  0  0  0  0
   42.6130   31.3620   39.2390 C   0  0  0  0  0  0  0  0  0  0  0  0
   42.3410   32.4000   40.2930 C   0  0  0  0  0  0  0  0  0  0  0  0
   40.8760   32.6250   40.2300 C   0  0  0  0  0  0  0  0  0  0  0  0
   35.9500   32.1810   40.7240 H   0  0  0  0  0  0  0  0  0  0  0  0
   41.4600   29.6180   39.8860 H   0  0  0  0  0  0  0  0  0  0  0  0
   41.1110   30.2670   38.1960 H   0  0  0  0  0  0  0  0  0  0  0  0
   43.4570   30.7150   39.5300 H   0  0  0  0  0  0  0  0  0  0  0  0
   42.7490   31.8920   38.2800 H   0  0  0  0  0  0  0  0  0  0  0  0
   42.7370   31.9960   41.2410 H   0  0  0  0  0  0  0  0  0  0  0  0
   42.9280   33.3420   40.1180 H   0  0  0  0  0  0  0  0  0  0  0  0
   40.6500   32.7900   41.3290 H   0  0  0  0  0  0  0  0  0  0  0  0
   40.6830   33.5030   39.6130 H   0  0  0  0  0  0  0  0  0  0  0  0
   36.6110   28.5760   38.1900 C   0  0  0  0  0  0  0  0  0  0  0  0
   36.0840   28.6980   36.9390 N   0  0  0  0  0  0  0  0  0  0  0  0
   35.5150   27.7110   36.2500 C   0  0  0  0  0  0  0  0  0  0  0  0
   35.4370   26.4780   36.8020 N   0  0  0  0  0  0  0  0  0  0  0  0
   35.9290   26.2400   38.0410 C   0  0  0  0  0  0  0  0  0  0  0  0
   35.8610   24.9810   38.5630 C   0  0  0  0  0  0  0  0  0  0  0  0
   36.3820   24.7250   39.8050 C   0  0  0  0  0  0  0  0  0  0  0  0
   36.9670   25.7800   40.4960 C   0  0  0  0  0  0  0  0  0  0  0  0
   36.9970   27.0340   39.9040 C   0  0  0  0  0  0  0  0  0  0  0  0
   36.4930   27.3100   38.6780 C   0  0  0  0  0  0  0  0  0  0  0  0
   35.1110   27.8610   35.2570 H   0  0  0  0  0  0  0  0  0  0  0  0
   35.3800   24.2190   37.9440 H   0  0  0  0  0  0  0  0  0  0  0  0
   36.2680   23.6840   40.1100 H   0  0  0  0  0  0  0  0  0  0  0  0
   37.3150   25.3840   41.4400 H   0  0  0  0  0  0  0  0  0  0  0  0
   37.5740   27.8170   40.9370 N   0  0  0  0  0  0  0  0  0  0  0  0
   36.6240   28.3970   41.9160 C   0  0  0  0  0  2  0  0  0  0  0  0
   36.7790   27.6180   43.2100 C   0  0  0  0  0  2  0  0  0  0  0  0
   38.1710   27.4960   43.6800 C   0  0  0  0  0  3  0  0  0  0  0  0
   38.3350   28.2070   44.5290 H   0  0  0  0  0  0  0  0  0  0  0  0
   39.2760   27.5500   42.6840 C   0  0  0  0  0  2  0  0  0  0  0  0
   38.9200   28.1650   41.3630 C   0  0  0  0  0  2  0  0  0  0  0  0
   38.3580   33.1000   40.9930 N   0  0  0  0  0  0  0  0  0  0  0  0
   38.5890   34.0480   40.6500 H   0  0  0  0  0  0  0  0  0  0  0  0
   38.3670   32.9670   42.0480 H   0  0  0  0  0  0  0  0  0  0  0  0
  1  2  1  0  0  0  0
  1 12  1  0  0  0  0
  2 42  1  0  0  0  0
  3  7  1  0  0  0  0
  3  2  2  0  0  0  0
  4  3  1  0  0  0  0
  5  4  2  0  0  0  0
  5  6  1  0  0  0  0
  6  1  2  0  0  0  0
  7 11  1  0  0  0  0
  8  7  1  0  0  0  0
  8 13  1  0  0  0  0
  9  8  1  0  0  0  0
  9 15  1  0  0  0  0
  9 10  1  0  0  0  0
 10 17  1  0  0  0  0
 11 10  1  0  0  0  0
 11 19  1  0  0  0  0
 14  8  1  0  0  0  0
 16  9  1  0  0  0  0
 18 10  1  0  0  0  0
 20 11  1  0  0  0  0
 21 30  1  0  0  0  0
 21  5  1  0  0  0  0
 22 21  2  0  0  0  0
 23 24  2  0  0  0  0
 23 22  1  0  0  0  0
 24 25  1  0  0  0  0
 25 26  2  0  0  0  0
 25 30  1  0  0  0  0
 26 27  1  0  0  0  0
 27 33  1  0  0  0  0
 27 28  2  0  0  0  0
 28 34  1  0  0  0  0
 29 28  1  0  0  0  0
 29 35  1  0  0  0  0
 30 29  2  0  0  0  0
 31 23  1  0  0  0  0
 32 26  1  0  0  0  0
 35 41  1  0  0  0  0
 35 36  1  0  0  0  0
 36 37  1  0  0  0  0
 37 38  1  0  0  0  0
 38 39  1  0  0  0  0
 40 38  1  0  0  0  0
 41 40  1  0  0  0  0
 42 44  1  0  0  0  0
 43 42  1  0  0  0  0
M  END
>  <minimizedAffinity>
-6.34843302

$$$$

 OpenBabel03252502063D

 44 48  0  0  0  0  0  0  0  0999 V2000
   36.9670   26.7630   42.6720 C   0  0  0  0  0  0  0  0  0  0  0  0
   37.3490   25.6800   41.8910 C   0  0  0  0  0  0  0  0  0  0  0  0
   38.2710   25.9190   40.9320 C   0  0  0  0  0  0  0  0  0  0  0  0
   38.7780   27.1480   40.7700 N   0  0  0  0  0  0  0  0  0  0  0  0
   38.4350   28.1950   41.5060 C   0  0  0  0  0  0  0  0  0  0  0  0
   37.5080   27.9560   42.4610 N   0  0  0  0  0  0  0  0  0  0  0  0
   38.7330   24.9110   40.0960 N   0  0  0  0  0  0  0  0  0  0  0  0
   39.5690   25.0890   38.8960 C   0  0  0  0  0  0  0  0  0  0  0  0
   40.0270   23.7030   38.5120 C   0  0  0  0  0  0  0  0  0  0  0  0
   38.9330   22.8170   39.0420 C   0  0  0  0  0  0  0  0  0  0  0  0
   38.4580   23.5020   40.2700 C   0  0  0  0  0  0  0  0  0  0  0  0
   36.2190   26.5970   43.4500 H   0  0  0  0  0  0  0  0  0  0  0  0
   39.0300   25.6030   38.0890 H   0  0  0  0  0  0  0  0  0  0  0  0
   40.4700   25.6560   39.2390 H   0  0  0  0  0  0  0  0  0  0  0  0
   40.0710   23.6600   37.4100 H   0  0  0  0  0  0  0  0  0  0  0  0
   40.9630   23.4120   39.0190 H   0  0  0  0  0  0  0  0  0  0  0  0
   38.1990   22.7030   38.2260 H   0  0  0  0  0  0  0  0  0  0  0  0
   39.2960   21.7740   39.2450 H   0  0  0  0  0  0  0  0  0  0  0  0
   37.3490   23.2680   40.2150 H   0  0  0  0  0  0  0  0  0  0  0  0
   38.9520   23.0540   41.1330 H   0  0  0  0  0  0  0  0  0  0  0  0
   38.8670   29.5930   41.4850 C   0  0  0  0  0  0  0  0  0  0  0  0
   39.8610   30.0640   42.2910 N   0  0  0  0  0  0  0  0  0  0  0  0
   40.3090   31.3160   42.2980 C   0  0  0  0  0  0  0  0  0  0  0  0
   39.7630   32.2200   41.4520 N   0  0  0  0  0  0  0  0  0  0  0  0
   38.7690   31.8640   40.6040 C   0  0  0  0  0  0  0  0  0  0  0  0
   38.2550   32.7890   39.7420 C   0  0  0  0  0  0  0  0  0  0  0  0
   37.2680   32.4300   38.8610 C   0  0  0  0  0  0  0  0  0  0  0  0
   36.8220   31.1140   38.8830 C   0  0  0  0  0  0  0  0  0  0  0  0
   37.3890   30.2300   39.7880 C   0  0  0  0  0  0  0  0  0  0  0  0
   38.3670   30.5600   40.6660 C   0  0  0  0  0  0  0  0  0  0  0  0
   41.1030   31.6390   42.9600 H   0  0  0  0  0  0  0  0  0  0  0  0
   38.6700   33.7990   39.8030 H   0  0  0  0  0  0  0  0  0  0  0  0
   36.9410   33.2550   38.2260 H   0  0  0  0  0  0  0  0  0  0  0  0
   36.0560   31.0280   38.1250 H   0  0  0  0  0  0  0  0  0  0  0  0
   36.6200   29.0600   39.5570 N   0  0  0  0  0  0  0  0  0  0  0  0
   35.3720   28.9420   40.3480 C   0  0  0  0  0  2  0  0  0  0  0  0
   34.2130   29.1940   39.3990 C   0  0  0  0  0  2  0  0  0  0  0  0
   34.2550   28.3900   38.1640 C   0  0  0  0  0  3  0  0  0  0  0  0
   33.5140   27.5540   38.2460 H   0  0  0  0  0  0  0  0  0  0  0  0
   35.5720   27.9220   37.6530 C   0  0  0  0  0  2  0  0  0  0  0  0
   36.6860   27.9210   38.6570 C   0  0  0  0  0  2  0  0  0  0  0  0
   36.8280   24.4220   42.1790 N   0  0  0  0  0  0  0  0  0  0  0  0
   37.2190   23.6150   42.6950 H   0  0  0  0  0  0  0  0  0  0  0  0
   35.8500   24.2960   41.7810 H   0  0  0  0  0  0  0  0  0  0  0  0
  1 12  1  0  0  0  0
  2 42  1  0  0  0  0
  2  1  2  0  0  0  0
  3  2  1  0  0  0  0
  4  3  2  0  0  0  0
  4  5  1  0  0  0  0
  5  6  2  0  0  0  0
  6  1  1  0  0  0  0
  7 11  1  0  0  0  0
  7  3  1  0  0  0  0
  8 14  1  0  0  0  0
  8  7  1  0  0  0  0
  9  8  1  0  0  0  0
  9 16  1  0  0  0  0
  9 10  1  0  0  0  0
 10 18  1  0  0  0  0
 10 11  1  0  0  0  0
 11 20  1  0  0  0  0
 13  8  1  0  0  0  0
 15  9  1  0  0  0  0
 17 10  1  0  0  0  0
 19 11  1  0  0  0  0
 21  5  1  0  0  0  0
 21 22  1  0  0  0  0
 22 23  2  0  0  0  0
 23 31  1  0  0  0  0
 24 23  1  0  0  0  0
 25 30  1  0  0  0  0
 25 24  2  0  0  0  0
 26 32  1  0  0  0  0
 26 25  1  0  0  0  0
 27 28  1  0  0  0  0
 27 26  2  0  0  0  0
 28 29  2  0  0  0  0
 29 30  1  0  0  0  0
 30 21  2  0  0  0  0
 33 27  1  0  0  0  0
 34 28  1  0  0  0  0
 35 29  1  0  0  0  0
 35 36  1  0  0  0  0
 37 36  1  0  0  0  0
 38 39  1  0  0  0  0
 38 37  1  0  0  0  0
 40 38  1  0  0  0  0
 40 41  1  0  0  0  0
 41 35  1  0  0  0  0
 42 43  1  0  0  0  0
 44 42  1  0  0  0  0
M  END
>  <minimizedAffinity>
-6.3110075

$$$$

 OpenBabel03252502063D

 44 48  0  0  0  0  0  0  0  0999 V2000
   36.2910   30.5460   38.5760 C   0  0  0  0  0  0  0  0  0  0  0  0
   37.5580   31.0390   38.2980 C   0  0  0  0  0  0  0  0  0  0  0  0
   38.5120   30.1290   38.0000 C   0  0  0  0  0  0  0  0  0  0  0  0
   38.2180   28.8220   37.9760 N   0  0  0  0  0  0  0  0  0  0  0  0
   37.0150   28.3280   38.2310 C   0  0  0  0  0  0  0  0  0  0  0  0
   36.0640   29.2390   38.5340 N   0  0  0  0  0  0  0  0  0  0  0  0
   39.8130   30.5070   37.6990 N   0  0  0  0  0  0  0  0  0  0  0  0
   40.9730   29.6080   37.5640 C   0  0  0  0  0  0  0  0  0  0  0  0
   42.0720   30.4500   36.9620 C   0  0  0  0  0  0  0  0  0  0  0  0
   41.7300   31.8420   37.4180 C   0  0  0  0  0  0  0  0  0  0  0  0
   40.2470   31.8670   37.4700 C   0  0  0  0  0  0  0  0  0  0  0  0
   35.5040   31.2620   38.8250 H   0  0  0  0  0  0  0  0  0  0  0  0
   41.2570   29.1510   38.5220 H   0  0  0  0  0  0  0  0  0  0  0  0
   40.6770   28.8470   36.7990 H   0  0  0  0  0  0  0  0  0  0  0  0
   43.0270   30.1130   37.4000 H   0  0  0  0  0  0  0  0  0  0  0  0
   42.0480   30.4490   35.8580 H   0  0  0  0  0  0  0  0  0  0  0  0
   42.2590   31.9960   38.3750 H   0  0  0  0  0  0  0  0  0  0  0  0
   42.1500   32.6250   36.7320 H   0  0  0  0  0  0  0  0  0  0  0  0
   40.0880   32.5300   38.3760 H   0  0  0  0  0  0  0  0  0  0  0  0
   39.8740   32.3050   36.5440 H   0  0  0  0  0  0  0  0  0  0  0  0
   36.5030   26.9570   38.2550 C   0  0  0  0  0  0  0  0  0  0  0  0
   35.8860   26.3880   37.1810 N   0  0  0  0  0  0  0  0  0  0  0  0
   35.4230   25.1410   37.1390 C   0  0  0  0  0  0  0  0  0  0  0  0
   35.5590   24.3470   38.2250 N   0  0  0  0  0  0  0  0  0  0  0  0
   36.1570   24.8060   39.3500 C   0  0  0  0  0  0  0  0  0  0  0  0
   36.3060   23.9760   40.4220 C   0  0  0  0  0  0  0  0  0  0  0  0
   36.9360   24.4230   41.5540 C   0  0  0  0  0  0  0  0  0  0  0  0
   37.4050   25.7310   41.5640 C   0  0  0  0  0  0  0  0  0  0  0  0
   37.2160   26.5190   40.4380 C   0  0  0  0  0  0  0  0  0  0  0  0
   36.6000   26.0980   39.3080 C   0  0  0  0  0  0  0  0  0  0  0  0
   34.9390   24.7370   36.2580 H   0  0  0  0  0  0  0  0  0  0  0  0
   35.9010   22.9650   40.3190 H   0  0  0  0  0  0  0  0  0  0  0  0
   36.9930   23.6680   42.3390 H   0  0  0  0  0  0  0  0  0  0  0  0
   37.8660   25.8940   42.5280 H   0  0  0  0  0  0  0  0  0  0  0  0
   37.7390   27.7640   40.8770 N   0  0  0  0  0  0  0  0  0  0  0  0
   36.7840   28.6540   41.5790 C   0  0  0  0  0  2  0  0  0  0  0  0
   37.1520   28.6370   43.0510 C   0  0  0  0  0  2  0  0  0  0  0  0
   38.5760   28.9010   43.3230 C   0  0  0  0  0  3  0  0  0  0  0  0
   38.6890   29.9520   43.6940 H   0  0  0  0  0  0  0  0  0  0  0  0
   39.5850   28.5650   42.2800 C   0  0  0  0  0  2  0  0  0  0  0  0
   39.0420   28.4080   40.8920 C   0  0  0  0  0  2  0  0  0  0  0  0
   37.7570   32.4160   38.2700 N   0  0  0  0  0  0  0  0  0  0  0  0
   37.8110   33.0900   37.4860 H   0  0  0  0  0  0  0  0  0  0  0  0
   37.8710   32.8220   39.2460 H   0  0  0  0  0  0  0  0  0  0  0  0
  1 12  1  0  0  0  0
  2  1  2  0  0  0  0
  3  2  1  0  0  0  0
  4  3  2  0  0  0  0
  4  5  1  0  0  0  0
  5 21  1  0  0  0  0
  5  6  2  0  0  0  0
  6  1  1  0  0  0  0
  7  3  1  0  0  0  0
  8  7  1  0  0  0  0
  8 13  1  0  0  0  0
  9 15  1  0  0  0  0
  9 10  1  0  0  0  0
  9  8  1  0  0  0  0
 10 11  1  0  0  0  0
 10 17  1  0  0  0  0
 11  7  1  0  0  0  0
 11 19  1  0  0  0  0
 14  8  1  0  0  0  0
 16  9  1  0  0  0  0
 18 10  1  0  0  0  0
 20 11  1  0  0  0  0
 21 30  1  0  0  0  0
 22 21  2  0  0  0  0
 23 22  1  0  0  0  0
 23 24  2  0  0  0  0
 24 25  1  0  0  0  0
 25 26  1  0  0  0  0
 26 27  2  0  0  0  0
 27 28  1  0  0  0  0
 27 33  1  0  0  0  0
 28 34  1  0  0  0  0
 29 35  1  0  0  0  0
 29 28  2  0  0  0  0
 30 25  2  0  0  0  0
 30 29  1  0  0  0  0
 31 23  1  0  0  0  0
 32 26  1  0  0  0  0
 35 41  1  0  0  0  0
 35 36  1  0  0  0  0
 36 37  1  0  0  0  0
 37 38  1  0  0  0  0
 38 39  1  0  0  0  0
 40 38  1  0  0  0  0
 41 40  1  0  0  0  0
 42  2  1  0  0  0  0
 42 44  1  0  0  0  0
 43 42  1  0  0  0  0
M  END
>  <minimizedAffinity>
-6.22646999

$$$$

 OpenBabel03252502063D

 44 48  0  0  0  0  0  0  0  0999 V2000
   37.0660   28.7520   37.7060 C   0  0  0  0  0  0  0  0  0  0  0  0
   36.7780   28.4240   39.0240 C   0  0  0  0  0  0  0  0  0  0  0  0
   37.8170   28.4120   39.8880 C   0  0  0  0  0  0  0  0  0  0  0  0
   39.0520   28.7110   39.4670 N   0  0  0  0  0  0  0  0  0  0  0  0
   39.3520   29.0330   38.2170 C   0  0  0  0  0  0  0  0  0  0  0  0
   38.3120   29.0410   37.3520 N   0  0  0  0  0  0  0  0  0  0  0  0
   37.6460   28.1040   41.2310 N   0  0  0  0  0  0  0  0  0  0  0  0
   38.7180   27.8580   42.2120 C   0  0  0  0  0  0  0  0  0  0  0  0
   38.0390   27.8500   43.5610 C   0  0  0  0  0  0  0  0  0  0  0  0
   36.6370   27.4100   43.2400 C   0  0  0  0  0  0  0  0  0  0  0  0
   36.3670   27.9690   41.8920 C   0  0  0  0  0  0  0  0  0  0  0  0
   36.2440   28.7640   36.9870 H   0  0  0  0  0  0  0  0  0  0  0  0
   39.2670   26.9310   42.0010 H   0  0  0  0  0  0  0  0  0  0  0  0
   39.3750   28.7630   42.1730 H   0  0  0  0  0  0  0  0  0  0  0  0
   38.5550   27.1030   44.1870 H   0  0  0  0  0  0  0  0  0  0  0  0
   37.9760   28.8580   44.0070 H   0  0  0  0  0  0  0  0  0  0  0  0
   36.6260   26.3100   43.3280 H   0  0  0  0  0  0  0  0  0  0  0  0
   35.8980   27.7640   44.0080 H   0  0  0  0  0  0  0  0  0  0  0  0
   35.7380   27.1360   41.4500 H   0  0  0  0  0  0  0  0  0  0  0  0
   35.8230   28.9070   42.0060 H   0  0  0  0  0  0  0  0  0  0  0  0
   40.6170   29.3870   37.5710 C   0  0  0  0  0  0  0  0  0  0  0  0
   41.3850   28.4720   36.9160 N   0  0  0  0  0  0  0  0  0  0  0  0
   42.5300   28.7420   36.2920 C   0  0  0  0  0  0  0  0  0  0  0  0
   42.9970   30.0110   36.2860 N   0  0  0  0  0  0  0  0  0  0  0  0
   42.3160   31.0040   36.9060 C   0  0  0  0  0  0  0  0  0  0  0  0
   42.7960   32.2810   36.8610 C   0  0  0  0  0  0  0  0  0  0  0  0
   42.0980   33.2970   37.4600 C   0  0  0  0  0  0  0  0  0  0  0  0
   40.9080   32.9790   38.1040 C   0  0  0  0  0  0  0  0  0  0  0  0
   40.4830   31.6590   38.1110 C   0  0  0  0  0  0  0  0  0  0  0  0
   41.1530   30.6390   37.5230 C   0  0  0  0  0  0  0  0  0  0  0  0
   43.1030   27.9750   35.7860 H   0  0  0  0  0  0  0  0  0  0  0  0
   43.7420   32.4300   36.3330 H   0  0  0  0  0  0  0  0  0  0  0  0
   42.5830   34.2680   37.3550 H   0  0  0  0  0  0  0  0  0  0  0  0
   40.5110   33.9000   38.5070 H   0  0  0  0  0  0  0  0  0  0  0  0
   39.3190   31.7440   38.9190 N   0  0  0  0  0  0  0  0  0  0  0  0
   39.5410   31.6580   40.3820 C   0  0  0  0  0  2  0  0  0  0  0  0
   39.3370   33.0500   40.9510 C   0  0  0  0  0  2  0  0  0  0  0  0
   38.0740   33.6930   40.5420 C   0  0  0  0  0  3  0  0  0  0  0  0
   37.3480   33.6470   41.3930 H   0  0  0  0  0  0  0  0  0  0  0  0
   37.4480   33.2950   39.2510 C   0  0  0  0  0  2  0  0  0  0  0  0
   37.9020   31.9780   38.6970 C   0  0  0  0  0  2  0  0  0  0  0  0
   35.4540   28.2020   39.3910 N   0  0  0  0  0  0  0  0  0  0  0  0
   34.7570   28.8070   39.8590 H   0  0  0  0  0  0  0  0  0  0  0  0
   35.1270   27.2240   39.1310 H   0  0  0  0  0  0  0  0  0  0  0  0
  1  2  1  0  0  0  0
  2 42  1  0  0  0  0
  2  3  2  0  0  0  0
  3  7  1  0  0  0  0
  4  3  1  0  0  0  0
  5  4  2  0  0  0  0
  6  1  2  0  0  0  0
  6  5  1  0  0  0  0
  7 11  1  0  0  0  0
  7  8  1  0  0  0  0
  8  9  1  0  0  0  0
  9 16  1  0  0  0  0
  9 15  1  0  0  0  0
 10 17  1  0  0  0  0
 10  9  1  0  0  0  0
 10 18  1  0  0  0  0
 11 20  1  0  0  0  0
 11 10  1  0  0  0  0
 12  1  1  0  0  0  0
 13  8  1  0  0  0  0
 14  8  1  0  0  0  0
 19 11  1  0  0  0  0
 21  5  1  0  0  0  0
 22 21  2  0  0  0  0
 23 22  1  0  0  0  0
 24 23  2  0  0  0  0
 24 25  1  0  0  0  0
 25 30  1  0  0  0  0
 26 25  2  0  0  0  0
 26 27  1  0  0  0  0
 27 28  2  0  0  0  0
 28 29  1  0  0  0  0
 28 34  1  0  0  0  0
 29 35  1  0  0  0  0
 30 21  1  0  0  0  0
 30 29  2  0  0  0  0
 31 23  1  0  0  0  0
 32 26  1  0  0  0  0
 33 27  1  0  0  0  0
 35 36  1  0  0  0  0
 36 37  1  0  0  0  0
 38 37  1  0  0  0  0
 38 39  1  0  0  0  0
 40 38  1  0  0  0  0
 41 35  1  0  0  0  0
 41 40  1  0  0  0  0
 42 43  1  0  0  0  0
 44 42  1  0  0  0  0
M  END
>  <minimizedAffinity>
-6.21588707

$$$$

 OpenBabel03252502063D

 44 48  0  0  0  0  0  0  0  0999 V2000
   37.9870   32.0640   40.6420 C   0  0  0  0  0  0  0  0  0  0  0  0
   38.9960   32.4490   39.7710 C   0  0  0  0  0  0  0  0  0  0  0  0
   39.9240   31.5150   39.4630 C   0  0  0  0  0  0  0  0  0  0  0  0
   39.8430   30.2840   39.9840 N   0  0  0  0  0  0  0  0  0  0  0  0
   38.8860   29.8890   40.8120 C   0  0  0  0  0  0  0  0  0  0  0  0
   37.9630   30.8270   41.1230 N   0  0  0  0  0  0  0  0  0  0  0  0
   40.9740   31.7860   38.5980 N   0  0  0  0  0  0  0  0  0  0  0  0
   42.1460   30.9270   38.3540 C   0  0  0  0  0  0  0  0  0  0  0  0
   42.8360   31.5160   37.1470 C   0  0  0  0  0  0  0  0  0  0  0  0
   42.4570   32.9700   37.2080 C   0  0  0  0  0  0  0  0  0  0  0  0
   41.0920   32.9790   37.7890 C   0  0  0  0  0  0  0  0  0  0  0  0
   37.2280   32.8030   40.9100 H   0  0  0  0  0  0  0  0  0  0  0  0
   42.8000   30.8580   39.2330 H   0  0  0  0  0  0  0  0  0  0  0  0
   41.7310   29.9330   38.0500 H   0  0  0  0  0  0  0  0  0  0  0  0
   43.9220   31.3840   37.2890 H   0  0  0  0  0  0  0  0  0  0  0  0
   42.4450   31.1120   36.1970 H   0  0  0  0  0  0  0  0  0  0  0  0
   43.2450   33.4750   37.7940 H   0  0  0  0  0  0  0  0  0  0  0  0
   42.4980   33.4590   36.1970 H   0  0  0  0  0  0  0  0  0  0  0  0
   41.1450   33.9230   38.4150 H   0  0  0  0  0  0  0  0  0  0  0  0
   40.3670   33.0400   36.9760 H   0  0  0  0  0  0  0  0  0  0  0  0
   38.6290   28.6100   41.4760 C   0  0  0  0  0  0  0  0  0  0  0  0
   39.0160   28.3600   42.7580 N   0  0  0  0  0  0  0  0  0  0  0  0
   38.7890   27.2270   43.4180 C   0  0  0  0  0  0  0  0  0  0  0  0
   38.1230   26.2240   42.8010 N   0  0  0  0  0  0  0  0  0  0  0  0
   37.6890   26.3610   41.5250 C   0  0  0  0  0  0  0  0  0  0  0  0
   36.9960   25.3450   40.9360 C   0  0  0  0  0  0  0  0  0  0  0  0
   36.5280   25.4860   39.6550 C   0  0  0  0  0  0  0  0  0  0  0  0
   36.7850   26.6820   38.9960 C   0  0  0  0  0  0  0  0  0  0  0  0
   37.4990   27.6710   39.6570 C   0  0  0  0  0  0  0  0  0  0  0  0
   37.9680   27.5550   40.9220 C   0  0  0  0  0  0  0  0  0  0  0  0
   39.1190   27.0800   44.4380 H   0  0  0  0  0  0  0  0  0  0  0  0
   36.8450   24.4420   41.5350 H   0  0  0  0  0  0  0  0  0  0  0  0
   35.9900   24.6070   39.2970 H   0  0  0  0  0  0  0  0  0  0  0  0
   36.3420   26.6030   38.0130 H   0  0  0  0  0  0  0  0  0  0  0  0
   37.6200   28.6550   38.6410 N   0  0  0  0  0  0  0  0  0  0  0  0
   38.7920   28.5160   37.7440 C   0  0  0  0  0  2  0  0  0  0  0  0
   38.2760   28.0260   36.4030 C   0  0  0  0  0  2  0  0  0  0  0  0
   37.1560   28.8140   35.8590 C   0  0  0  0  0  3  0  0  0  0  0  0
   37.5390   29.4800   35.0440 H   0  0  0  0  0  0  0  0  0  0  0  0
   36.2620   29.5420   36.8010 C   0  0  0  0  0  2  0  0  0  0  0  0
   36.8280   29.7790   38.1690 C   0  0  0  0  0  2  0  0  0  0  0  0
   38.9600   33.7260   39.2170 N   0  0  0  0  0  0  0  0  0  0  0  0
   38.6450   34.0680   38.2930 H   0  0  0  0  0  0  0  0  0  0  0  0
   39.3300   34.4620   39.8890 H   0  0  0  0  0  0  0  0  0  0  0  0
  1 12  1  0  0  0  0
  1  6  1  0  0  0  0
  2  1  2  0  0  0  0
  3  2  1  0  0  0  0
  3  4  2  0  0  0  0
  4  5  1  0  0  0  0
  5  6  2  0  0  0  0
  5 21  1  0  0  0  0
  7  3  1  0  0  0  0
  8  7  1  0  0  0  0
  8 13  1  0  0  0  0
  9 10  1  0  0  0  0
  9 15  1  0  0  0  0
  9  8  1  0  0  0  0
 10 11  1  0  0  0  0
 10 17  1  0  0  0  0
 11 19  1  0  0  0  0
 11  7  1  0  0  0  0
 14  8  1  0  0  0  0
 16  9  1  0  0  0  0
 18 10  1  0  0  0  0
 20 11  1  0  0  0  0
 21 22  1  0  0  0  0
 22 23  2  0  0  0  0
 23 31  1  0  0  0  0
 24 23  1  0  0  0  0
 25 24  2  0  0  0  0
 26 25  1  0  0  0  0
 26 32  1  0  0  0  0
 27 26  2  0  0  0  0
 28 27  1  0  0  0  0
 28 29  2  0  0  0  0
 29 30  1  0  0  0  0
 30 21  2  0  0  0  0
 30 25  1  0  0  0  0
 33 27  1  0  0  0  0
 34 28  1  0  0  0  0
 35 29  1  0  0  0  0
 36 35  1  0  0  0  0
 37 36  1  0  0  0  0
 38 37  1  0  0  0  0
 38 40  1  0  0  0  0
 39 38  1  0  0  0  0
 40 41  1  0  0  0  0
 41 35  1  0  0  0  0
 42  2  1  0  0  0  0
 42 44  1  0  0  0  0
 43 42  1  0  0  0  0
M  END
>  <minimizedAffinity>
-6.19909716

$$$$
