
 OpenBabel03252509283D

 19 20  0  0  0  0  0  0  0  0999 V2000
   46.9500   34.2920   42.1800 C   0  0  0  0  0  0  0  0  0  0  0  0
   47.6500   33.4360   42.4010 H   0  0  0  0  0  0  0  0  0  0  0  0
   47.5960   35.1290   41.8870 H   0  0  0  0  0  0  0  0  0  0  0  0
   44.5950   36.0940   44.4210 C   0  0  0  0  0  0  0  0  0  0  0  0
   45.3710   35.7740   43.2850 C   0  0  0  0  0  0  0  0  0  0  0  0
   46.1500   34.6180   43.3590 C   0  0  0  0  0  0  0  0  0  0  0  0
   46.1250   33.8780   44.4970 N   0  0  0  0  0  0  0  0  0  0  0  0
   45.3650   34.2260   45.5610 C   0  0  0  0  0  0  0  0  0  0  0  0
   44.6100   35.3280   45.5110 N   0  0  0  0  0  0  0  0  0  0  0  0
   43.9850   36.9990   44.3620 H   0  0  0  0  0  0  0  0  0  0  0  0
   45.3700   36.3780   42.4000 H   0  0  0  0  0  0  0  0  0  0  0  0
   45.3150   33.6740   46.4740 H   0  0  0  0  0  0  0  0  0  0  0  0
   46.1160   33.9740   41.0500 N   0  0  0  0  0  0  0  0  0  0  0  0
   45.2200   32.8830   41.2330 C   0  0  0  0  0  2  0  0  0  0  0  0
   44.0240   33.1530   40.3230 C   0  0  0  0  0  2  0  0  0  0  0  0
   44.5580   33.2600   38.9280 C   0  0  0  0  0  3  0  0  0  0  0  0
   44.3350   34.2550   38.4420 H   0  0  0  0  0  0  0  0  0  0  0  0
   46.0440   33.0400   38.8150 C   0  0  0  0  0  2  0  0  0  0  0  0
   46.8460   33.8000   39.8320 C   0  0  0  0  0  2  0  0  0  0  0  0
  1  2  1  0  0  0  0
  1  6  1  0  0  0  0
  3  1  1  0  0  0  0
  4  9  1  0  0  0  0
  5  6  1  0  0  0  0
  5  4  2  0  0  0  0
  6  7  2  0  0  0  0
  7  8  1  0  0  0  0
  8 12  1  0  0  0  0
  9  8  2  0  0  0  0
 10  4  1  0  0  0  0
 11  5  1  0  0  0  0
 13 14  1  0  0  0  0
 13  1  1  0  0  0  0
 15 14  1  0  0  0  0
 16 15  1  0  0  0  0
 17 16  1  0  0  0  0
 18 16  1  0  0  0  0
 18 19  1  0  0  0  0
 19 13  1  0  0  0  0
M  END
>  <minimizedAffinity>
-3.59268689

>  <minimizedRMSD>
0.752056956

$$$$
