REMARK  Name = 
REMARK  2 active torsions:
REMARK  status: ('A' for Active; 'I' for Inactive)
REMARK    1  A    between atoms: C_3  and  C_7
REMARK    2  A    between atoms: C_7  and  N_13
REMARK                            x       y       z     vdW  Elec       q    Type
REMARK                         _______ _______ _______ _____ _____    ______ ____
ROOT
ATOM      1  C   UNL     1      46.957  34.777  41.930  0.00  0.00    +0.000 C 
ATOM      2  H   UNL     1      47.980  34.341  42.119  0.00  0.00    +0.000 HD
ATOM      3  H   UNL     1      47.138  35.772  41.505  0.00  0.00    +0.000 HD
ENDROOT
BRANCH   1   6
ATOM      4  C   UNL     1      44.564  36.005  44.496  0.00  0.00    +0.000 A 
ATOM      5  C   UNL     1      45.305  35.924  43.296  0.00  0.00    +0.000 A 
ATOM      6  C   UNL     1      46.194  34.855  43.174  0.00  0.00    +0.000 A 
ATOM      7  N   UNL     1      46.301  33.967  44.195  0.00  0.00    +0.000 NA
ATOM      8  C   UNL     1      45.569  34.086  45.327  0.00  0.00    +0.000 A 
ATOM      9  N   UNL     1      44.711  35.102  45.464  0.00  0.00    +0.000 NA
ATOM     10  H   UNL     1      43.868  36.842  44.590  0.00  0.00    +0.000 HD
ATOM     11  H   UNL     1      45.199  36.641  42.506  0.00  0.00    +0.000 HD
ATOM     12  H   UNL     1      45.621  33.412  46.154  0.00  0.00    +0.000 HD
ENDBRANCH   1   6
BRANCH   1  13
ATOM     13  N   UNL     1      46.262  34.003  40.934  0.00  0.00    +0.000 NA
ATOM     14  C   UNL     1      47.045  33.587  39.820  0.00  0.00    +0.000 C 
ATOM     15  C   UNL     1      46.420  32.288  39.318  0.00  0.00    +0.000 C 
ATOM     16  C   UNL     1      44.998  32.600  38.966  0.00  0.00    +0.000 C 
ATOM     17  H   UNL     1      44.251  31.984  39.545  0.00  0.00    +0.000 HD
ATOM     18  C   UNL     1      44.617  34.045  39.156  0.00  0.00    +0.000 C 
ATOM     19  C   UNL     1      45.055  34.617  40.472  0.00  0.00    +0.000 C 
ENDBRANCH   1  13
TORSDOF 2
