
 OpenBabel03252509283D

 19 20  0  0  0  0  0  0  0  0999 V2000
   46.9880   35.0320   41.9750 C   0  0  0  0  0  0  0  0  0  0  0  0
   48.0930   34.9010   42.1630 H   0  0  0  0  0  0  0  0  0  0  0  0
   46.8860   36.0220   41.5140 H   0  0  0  0  0  0  0  0  0  0  0  0
   44.5430   35.8400   44.6550 C   0  0  0  0  0  0  0  0  0  0  0  0
   45.2700   35.9210   43.4470 C   0  0  0  0  0  0  0  0  0  0  0  0
   46.2400   34.9420   43.2270 C   0  0  0  0  0  0  0  0  0  0  0  0
   46.4330   33.9820   44.1670 N   0  0  0  0  0  0  0  0  0  0  0  0
   45.7100   33.9450   45.3110 C   0  0  0  0  0  0  0  0  0  0  0  0
   44.7760   34.8730   45.5410 N   0  0  0  0  0  0  0  0  0  0  0  0
   43.7830   36.6070   44.8260 H   0  0  0  0  0  0  0  0  0  0  0  0
   45.0950   36.6920   42.7220 H   0  0  0  0  0  0  0  0  0  0  0  0
   45.8280   33.2090   46.0760 H   0  0  0  0  0  0  0  0  0  0  0  0
   46.5280   34.0610   41.0160 N   0  0  0  0  0  0  0  0  0  0  0  0
   45.1300   33.7930   41.0330 C   0  0  0  0  0  2  0  0  0  0  0  0
   44.7560   33.3750   39.6140 C   0  0  0  0  0  2  0  0  0  0  0  0
   45.5890   32.1760   39.2820 C   0  0  0  0  0  3  0  0  0  0  0  0
   46.2450   32.3270   38.3770 H   0  0  0  0  0  0  0  0  0  0  0  0
   46.4850   31.7170   40.4030 C   0  0  0  0  0  2  0  0  0  0  0  0
   47.2550   32.8290   41.0550 C   0  0  0  0  0  2  0  0  0  0  0  0
  1  2  1  0  0  0  0
  1  6  1  0  0  0  0
  3  1  1  0  0  0  0
  4 10  1  0  0  0  0
  4  9  1  0  0  0  0
  5  4  2  0  0  0  0
  6  5  1  0  0  0  0
  6  7  2  0  0  0  0
  7  8  1  0  0  0  0
  8  9  2  0  0  0  0
  8 12  1  0  0  0  0
 11  5  1  0  0  0  0
 13 14  1  0  0  0  0
 13 19  1  0  0  0  0
 13  1  1  0  0  0  0
 15 14  1  0  0  0  0
 16 15  1  0  0  0  0
 16 18  1  0  0  0  0
 17 16  1  0  0  0  0
 18 19  1  0  0  0  0
M  END
>  <minimizedAffinity>
-3.51581478

>  <minimizedRMSD>
0.808991134

$$$$
