
 OpenBabel03252503553D

 18 19  0  0  0  0  0  0  0  0999 V2000
   46.2160   34.6710   43.4200 C   0  0  0  0  0  0  0  0  0  0  0  0
   45.2390   35.6810   43.5700 C   0  0  0  0  0  0  0  0  0  0  0  0
   44.5350   35.7030   44.7700 C   0  0  0  0  0  0  0  0  0  0  0  0
   44.8330   34.7620   45.7030 N   0  0  0  0  0  0  0  0  0  0  0  0
   45.7790   33.8090   45.5160 C   0  0  0  0  0  0  0  0  0  0  0  0
   46.4570   33.7790   44.3750 N   0  0  0  0  0  0  0  0  0  0  0  0
   45.0360   36.4140   42.7930 H   0  0  0  0  0  0  0  0  0  0  0  0
   43.7690   36.4450   44.9660 H   0  0  0  0  0  0  0  0  0  0  0  0
   45.9920   32.8830   46.5760 N   0  0  0  0  0  0  0  0  0  0  0  0
   46.9680   31.8450   46.4700 C   0  0  0  0  0  0  0  0  0  0  0  0
   46.1910   30.5260   46.4120 C   0  0  0  0  0  0  0  0  0  0  0  0
   45.1420   30.5210   47.4800 C   0  0  0  0  0  0  0  0  0  0  0  0
   44.1450   30.7570   47.0240 H   0  0  0  0  0  0  0  0  0  0  0  0
   45.3720   31.6190   48.5130 C   0  0  0  0  0  0  0  0  0  0  0  0
   45.2280   32.9530   47.8060 C   0  0  0  0  0  0  0  0  0  0  0  0
   46.9130   34.6970   42.1610 C   0  0  0  0  0  0  0  0  0  0  0  0
   47.9200   35.4180   41.8810 O   0  0  0  0  0  0  0  0  0  0  0  0
   46.6890   34.1090   41.2580 H   0  0  0  0  0  0  0  0  0  0  0  0
  1  2  2  0  0  0  0
  1  6  1  0  0  0  0
  2  3  1  0  0  0  0
  3  8  1  0  0  0  0
  3  4  2  0  0  0  0
  5  4  1  0  0  0  0
  5  9  1  0  0  0  0
  6  5  2  0  0  0  0
  7  2  1  0  0  0  0
  9 15  1  0  0  0  0
 10  9  1  0  0  0  0
 11 10  1  0  0  0  0
 11 12  1  0  0  0  0
 12 14  1  0  0  0  0
 13 12  1  0  0  0  0
 15 14  1  0  0  0  0
 16  1  1  0  0  0  0
 17 16  2  0  0  0  0
 18 16  1  0  0  0  0
M  END
>  <minimizedAffinity>
-4.89813328

>  <minimizedRMSD>
0.431638151

$$$$
