
 OpenBabel03252502513D

 32 34  0  0  0  0  0  0  0  0999 V2000
   37.9300   33.1570   39.8250 C   0  0  0  0  0  0  0  0  0  0  0  0
   38.6480   32.6000   40.8820 C   0  0  0  0  0  0  0  0  0  0  0  0
   38.6690   31.2180   40.9840 C   0  0  0  0  0  0  0  0  0  0  0  0
   38.0010   30.4710   40.0670 N   0  0  0  0  0  0  0  0  0  0  0  0
   37.3080   31.0520   39.0450 C   0  0  0  0  0  0  0  0  0  0  0  0
   37.2760   32.3950   38.9300 N   0  0  0  0  0  0  0  0  0  0  0  0
   37.8740   34.2370   39.6890 H   0  0  0  0  0  0  0  0  0  0  0  0
   39.1560   33.2500   41.5750 H   0  0  0  0  0  0  0  0  0  0  0  0
   34.9780   29.5550   40.1350 Cl  0  0  0  0  0  0  0  0  0  0  0  0
   35.5260   29.4760   38.4710 C   0  0  0  0  0  0  0  0  0  0  0  0
   36.6030   30.2020   38.0770 C   0  0  0  0  0  0  0  0  0  0  0  0
   37.0600   30.1550   36.7610 C   0  0  0  0  0  0  0  0  0  0  0  0
   36.3760   29.3460   35.8870 C   0  0  0  0  0  0  0  0  0  0  0  0
   35.3010   28.6220   36.2850 C   0  0  0  0  0  0  0  0  0  0  0  0
   34.8590   28.6730   37.5730 C   0  0  0  0  0  0  0  0  0  0  0  0
   37.9240   30.7570   36.5100 H   0  0  0  0  0  0  0  0  0  0  0  0
   36.8110   29.3800   34.8860 H   0  0  0  0  0  0  0  0  0  0  0  0
   34.8480   28.0260   35.5060 H   0  0  0  0  0  0  0  0  0  0  0  0
   33.9880   28.0700   37.8350 H   0  0  0  0  0  0  0  0  0  0  0  0
   39.4240   30.5950   42.0930 C   0  0  0  0  0  0  0  0  0  0  0  0
   38.7630   30.5560   42.9610 H   0  0  0  0  0  0  0  0  0  0  0  0
   40.2690   31.2770   42.3530 H   0  0  0  0  0  0  0  0  0  0  0  0
   40.0320   29.2570   41.7480 C   0  0  0  0  0  0  0  0  0  0  0  0
   41.1110   29.2790   41.8660 H   0  0  0  0  0  0  0  0  0  0  0  0
   39.7620   29.0070   40.7050 H   0  0  0  0  0  0  0  0  0  0  0  0
   39.4500   28.2390   42.6020 N   0  0  0  0  0  0  0  0  0  0  0  0
   39.0500   27.0710   41.8550 C   0  0  0  0  0  2  0  0  0  0  0  0
   37.6560   27.0800   41.3400 C   0  0  0  0  0  2  0  0  0  0  0  0
   36.6190   27.3960   42.3850 C   0  0  0  0  0  3  0  0  0  0  0  0
   35.9280   26.5540   42.6030 H   0  0  0  0  0  0  0  0  0  0  0  0
   37.2820   27.7850   43.6790 C   0  0  0  0  0  2  0  0  0  0  0  0
   38.3560   28.8050   43.3620 C   0  0  0  0  0  2  0  0  0  0  0  0
  1  2  1  0  0  0  0
  2  3  2  0  0  0  0
  2  8  1  0  0  0  0
  3 20  1  0  0  0  0
  4  3  1  0  0  0  0
  5  4  2  0  0  0  0
  6  5  1  0  0  0  0
  6  1  2  0  0  0  0
  7  1  1  0  0  0  0
 10  9  1  0  0  0  0
 11 10  1  0  0  0  0
 11  5  1  0  0  0  0
 12 11  2  0  0  0  0
 13 14  2  0  0  0  0
 13 12  1  0  0  0  0
 14 15  1  0  0  0  0
 15 19  1  0  0  0  0
 15 10  2  0  0  0  0
 16 12  1  0  0  0  0
 17 13  1  0  0  0  0
 18 14  1  0  0  0  0
 20 22  1  0  0  0  0
 20 21  1  0  0  0  0
 23 24  1  0  0  0  0
 23 20  1  0  0  0  0
 23 26  1  0  0  0  0
 25 23  1  0  0  0  0
 26 32  1  0  0  0  0
 27 26  1  0  0  0  0
 28 27  1  0  0  0  0
 28 29  1  0  0  0  0
 29 30  1  0  0  0  0
 29 31  1  0  0  0  0
 32 31  1  0  0  0  0
M  END
>  <minimizedAffinity>
-5.28350782

$$$$

 OpenBabel03252502513D

 32 34  0  0  0  0  0  0  0  0999 V2000
   36.9070   29.2120   37.1750 C   0  0  0  0  0  0  0  0  0  0  0  0
   35.5740   29.2420   36.7670 C   0  0  0  0  0  0  0  0  0  0  0  0
   34.6110   28.8760   37.6960 C   0  0  0  0  0  0  0  0  0  0  0  0
   34.9950   28.5080   38.9450 N   0  0  0  0  0  0  0  0  0  0  0  0
   36.3110   28.4910   39.3080 C   0  0  0  0  0  0  0  0  0  0  0  0
   37.2610   28.8440   38.4190 N   0  0  0  0  0  0  0  0  0  0  0  0
   37.7100   29.4890   36.4940 H   0  0  0  0  0  0  0  0  0  0  0  0
   35.3370   29.5440   35.7610 H   0  0  0  0  0  0  0  0  0  0  0  0
   36.4780   30.7120   41.2830 Cl  0  0  0  0  0  0  0  0  0  0  0  0
   36.7820   29.0240   41.6500 C   0  0  0  0  0  0  0  0  0  0  0  0
   36.6780   28.0880   40.6720 C   0  0  0  0  0  0  0  0  0  0  0  0
   36.9160   26.7410   40.9380 C   0  0  0  0  0  0  0  0  0  0  0  0
   37.2590   26.4050   42.2250 C   0  0  0  0  0  0  0  0  0  0  0  0
   37.3620   27.3430   43.1980 C   0  0  0  0  0  0  0  0  0  0  0  0
   37.1270   28.6580   42.9320 C   0  0  0  0  0  0  0  0  0  0  0  0
   36.8180   26.0440   40.1150 H   0  0  0  0  0  0  0  0  0  0  0  0
   37.4240   25.3300   42.3270 H   0  0  0  0  0  0  0  0  0  0  0  0
   37.6370   26.9540   44.1680 H   0  0  0  0  0  0  0  0  0  0  0  0
   37.2240   29.3680   43.7560 H   0  0  0  0  0  0  0  0  0  0  0  0
   33.1880   28.8990   37.2950 C   0  0  0  0  0  0  0  0  0  0  0  0
   32.6710   29.5980   37.9550 H   0  0  0  0  0  0  0  0  0  0  0  0
   32.7640   27.8850   37.4910 H   0  0  0  0  0  0  0  0  0  0  0  0
   32.9660   29.1900   35.8300 C   0  0  0  0  0  0  0  0  0  0  0  0
   33.2300   28.3310   35.2200 H   0  0  0  0  0  0  0  0  0  0  0  0
   33.5800   30.0660   35.5500 H   0  0  0  0  0  0  0  0  0  0  0  0
   31.5760   29.5490   35.6240 N   0  0  0  0  0  0  0  0  0  0  0  0
   31.3650   30.1750   34.3410 C   0  0  0  0  0  2  0  0  0  0  0  0
   31.4920   31.6550   34.3160 C   0  0  0  0  0  2  0  0  0  0  0  0
   30.6730   32.3580   35.3660 C   0  0  0  0  0  3  0  0  0  0  0  0
   29.8570   32.9900   34.9540 H   0  0  0  0  0  0  0  0  0  0  0  0
   30.0430   31.3560   36.2960 C   0  0  0  0  0  2  0  0  0  0  0  0
   31.1180   30.3770   36.7200 C   0  0  0  0  0  2  0  0  0  0  0  0
  1  6  1  0  0  0  0
  2  1  2  0  0  0  0
  2  3  1  0  0  0  0
  3  4  2  0  0  0  0
  4  5  1  0  0  0  0
  5 11  1  0  0  0  0
  6  5  2  0  0  0  0
  7  1  1  0  0  0  0
  8  2  1  0  0  0  0
  9 10  1  0  0  0  0
 10 15  1  0  0  0  0
 11 12  1  0  0  0  0
 11 10  2  0  0  0  0
 12 13  2  0  0  0  0
 13 17  1  0  0  0  0
 13 14  1  0  0  0  0
 14 18  1  0  0  0  0
 15 14  2  0  0  0  0
 15 19  1  0  0  0  0
 16 12  1  0  0  0  0
 20 22  1  0  0  0  0
 20  3  1  0  0  0  0
 20 21  1  0  0  0  0
 23 20  1  0  0  0  0
 24 23  1  0  0  0  0
 25 23  1  0  0  0  0
 26 23  1  0  0  0  0
 26 32  1  0  0  0  0
 27 26  1  0  0  0  0
 28 27  1  0  0  0  0
 28 29  1  0  0  0  0
 29 31  1  0  0  0  0
 30 29  1  0  0  0  0
 31 32  1  0  0  0  0
M  END
>  <minimizedAffinity>
-5.23638916

$$$$

 OpenBabel03252502513D

 32 34  0  0  0  0  0  0  0  0999 V2000
   37.3590   28.2840   43.6390 C   0  0  0  0  0  0  0  0  0  0  0  0
   38.2050   29.2360   43.0720 C   0  0  0  0  0  0  0  0  0  0  0  0
   38.8390   28.9040   41.8840 C   0  0  0  0  0  0  0  0  0  0  0  0
   38.6140   27.6870   41.3260 N   0  0  0  0  0  0  0  0  0  0  0  0
   37.7780   26.7800   41.9100 C   0  0  0  0  0  0  0  0  0  0  0  0
   37.1540   27.0850   43.0650 N   0  0  0  0  0  0  0  0  0  0  0  0
   36.8310   28.4830   44.5710 H   0  0  0  0  0  0  0  0  0  0  0  0
   38.3400   30.1830   43.5670 H   0  0  0  0  0  0  0  0  0  0  0  0
   39.4590   24.5600   42.9600 Cl  0  0  0  0  0  0  0  0  0  0  0  0
   38.2820   24.3970   41.6710 C   0  0  0  0  0  0  0  0  0  0  0  0
   37.5650   25.4770   41.2670 C   0  0  0  0  0  0  0  0  0  0  0  0
   36.6250   25.3750   40.2430 C   0  0  0  0  0  0  0  0  0  0  0  0
   36.4580   24.1400   39.6640 C   0  0  0  0  0  0  0  0  0  0  0  0
   37.1760   23.0640   40.0710 C   0  0  0  0  0  0  0  0  0  0  0  0
   38.0930   23.1720   41.0730 C   0  0  0  0  0  0  0  0  0  0  0  0
   36.0870   26.2720   39.9660 H   0  0  0  0  0  0  0  0  0  0  0  0
   35.7020   24.1660   38.8770 H   0  0  0  0  0  0  0  0  0  0  0  0
   36.9530   22.1500   39.5410 H   0  0  0  0  0  0  0  0  0  0  0  0
   38.6410   22.2710   41.3580 H   0  0  0  0  0  0  0  0  0  0  0  0
   39.7420   29.8930   41.2570 C   0  0  0  0  0  0  0  0  0  0  0  0
   39.7670   29.6840   40.1860 H   0  0  0  0  0  0  0  0  0  0  0  0
   40.7700   29.7120   41.6520 H   0  0  0  0  0  0  0  0  0  0  0  0
   39.3980   31.3290   41.5750 C   0  0  0  0  0  0  0  0  0  0  0  0
   40.2650   31.8610   41.9540 H   0  0  0  0  0  0  0  0  0  0  0  0
   38.5820   31.3370   42.3210 H   0  0  0  0  0  0  0  0  0  0  0  0
   38.8950   31.9710   40.3750 N   0  0  0  0  0  0  0  0  0  0  0  0
   37.4810   32.2440   40.4620 C   0  0  0  0  0  2  0  0  0  0  0  0
   36.5830   31.1710   39.9620 C   0  0  0  0  0  2  0  0  0  0  0  0
   36.9240   30.6830   38.5780 C   0  0  0  0  0  3  0  0  0  0  0  0
   36.1450   30.9040   37.8170 H   0  0  0  0  0  0  0  0  0  0  0  0
   38.2090   31.3080   38.1040 C   0  0  0  0  0  2  0  0  0  0  0  0
   39.2290   31.1710   39.2160 C   0  0  0  0  0  2  0  0  0  0  0  0
  1  7  1  0  0  0  0
  2  8  1  0  0  0  0
  2  1  1  0  0  0  0
  3  2  2  0  0  0  0
  4  3  1  0  0  0  0
  4  5  2  0  0  0  0
  5  6  1  0  0  0  0
  6  1  2  0  0  0  0
 10  9  1  0  0  0  0
 11 10  1  0  0  0  0
 11  5  1  0  0  0  0
 12 11  2  0  0  0  0
 13 14  2  0  0  0  0
 13 12  1  0  0  0  0
 14 15  1  0  0  0  0
 15 19  1  0  0  0  0
 15 10  2  0  0  0  0
 16 12  1  0  0  0  0
 17 13  1  0  0  0  0
 18 14  1  0  0  0  0
 20 23  1  0  0  0  0
 20 22  1  0  0  0  0
 20  3  1  0  0  0  0
 21 20  1  0  0  0  0
 23 24  1  0  0  0  0
 23 25  1  0  0  0  0
 26 27  1  0  0  0  0
 26 23  1  0  0  0  0
 28 27  1  0  0  0  0
 29 28  1  0  0  0  0
 30 29  1  0  0  0  0
 31 29  1  0  0  0  0
 31 32  1  0  0  0  0
 32 26  1  0  0  0  0
M  END
>  <minimizedAffinity>
-5.17418909

$$$$

 OpenBabel03252502513D

 32 34  0  0  0  0  0  0  0  0999 V2000
   37.0140   29.2350   37.6080 C   0  0  0  0  0  0  0  0  0  0  0  0
   35.6640   29.2680   37.2600 C   0  0  0  0  0  0  0  0  0  0  0  0
   34.7410   28.9520   38.2460 C   0  0  0  0  0  0  0  0  0  0  0  0
   35.1780   28.6280   39.4900 N   0  0  0  0  0  0  0  0  0  0  0  0
   36.5090   28.6060   39.7930 C   0  0  0  0  0  0  0  0  0  0  0  0
   37.4210   28.9110   38.8480 N   0  0  0  0  0  0  0  0  0  0  0  0
   37.7890   29.4740   36.8800 H   0  0  0  0  0  0  0  0  0  0  0  0
   35.3850   29.5330   36.2550 H   0  0  0  0  0  0  0  0  0  0  0  0
   36.7720   25.6880   40.3180 Cl  0  0  0  0  0  0  0  0  0  0  0  0
   37.0830   26.9470   41.4980 C   0  0  0  0  0  0  0  0  0  0  0  0
   36.9330   28.2520   41.1530 C   0  0  0  0  0  0  0  0  0  0  0  0
   37.1720   29.2710   42.0740 C   0  0  0  0  0  0  0  0  0  0  0  0
   37.5630   28.8980   43.3370 C   0  0  0  0  0  0  0  0  0  0  0  0
   37.7120   27.5940   43.6760 C   0  0  0  0  0  0  0  0  0  0  0  0
   37.4770   26.6030   42.7720 C   0  0  0  0  0  0  0  0  0  0  0  0
   37.0340   30.2910   41.7370 H   0  0  0  0  0  0  0  0  0  0  0  0
   37.7250   29.7670   43.9780 H   0  0  0  0  0  0  0  0  0  0  0  0
   38.0250   27.4300   44.6970 H   0  0  0  0  0  0  0  0  0  0  0  0
   37.6140   25.5710   43.1020 H   0  0  0  0  0  0  0  0  0  0  0  0
   33.3010   28.9790   37.9100 C   0  0  0  0  0  0  0  0  0  0  0  0
   32.8550   29.8230   38.4400 H   0  0  0  0  0  0  0  0  0  0  0  0
   32.8400   28.0500   38.3210 H   0  0  0  0  0  0  0  0  0  0  0  0
   33.0160   28.9910   36.4270 C   0  0  0  0  0  0  0  0  0  0  0  0
   33.2970   28.0460   35.9710 H   0  0  0  0  0  0  0  0  0  0  0  0
   33.5790   29.8250   35.9680 H   0  0  0  0  0  0  0  0  0  0  0  0
   31.6050   29.2530   36.2190 N   0  0  0  0  0  0  0  0  0  0  0  0
   31.3500   29.8360   34.9230 C   0  0  0  0  0  2  0  0  0  0  0  0
   31.3780   31.3200   34.8650 C   0  0  0  0  0  2  0  0  0  0  0  0
   30.5170   31.9900   35.9030 C   0  0  0  0  0  3  0  0  0  0  0  0
   29.6600   32.5580   35.4810 H   0  0  0  0  0  0  0  0  0  0  0  0
   29.9570   30.9690   36.8570 C   0  0  0  0  0  2  0  0  0  0  0  0
   31.0960   30.0720   37.2980 C   0  0  0  0  0  2  0  0  0  0  0  0
  1  6  1  0  0  0  0
  2  1  2  0  0  0  0
  2  3  1  0  0  0  0
  3  4  2  0  0  0  0
  4  5  1  0  0  0  0
  5 11  1  0  0  0  0
  6  5  2  0  0  0  0
  7  1  1  0  0  0  0
  8  2  1  0  0  0  0
  9 10  1  0  0  0  0
 10 15  1  0  0  0  0
 11 10  2  0  0  0  0
 11 12  1  0  0  0  0
 12 13  2  0  0  0  0
 13 14  1  0  0  0  0
 13 17  1  0  0  0  0
 14 18  1  0  0  0  0
 15 19  1  0  0  0  0
 15 14  2  0  0  0  0
 16 12  1  0  0  0  0
 20  3  1  0  0  0  0
 20 22  1  0  0  0  0
 20 21  1  0  0  0  0
 23 20  1  0  0  0  0
 24 23  1  0  0  0  0
 25 23  1  0  0  0  0
 26 23  1  0  0  0  0
 26 32  1  0  0  0  0
 27 26  1  0  0  0  0
 28 27  1  0  0  0  0
 28 29  1  0  0  0  0
 29 31  1  0  0  0  0
 30 29  1  0  0  0  0
 31 32  1  0  0  0  0
M  END
>  <minimizedAffinity>
-5.11175489

$$$$

 OpenBabel03252502513D

 32 34  0  0  0  0  0  0  0  0999 V2000
   37.6200   28.0960   43.6790 C   0  0  0  0  0  0  0  0  0  0  0  0
   38.4120   27.0670   43.1720 C   0  0  0  0  0  0  0  0  0  0  0  0
   39.1240   27.3200   42.0090 C   0  0  0  0  0  0  0  0  0  0  0  0
   39.0250   28.5390   41.4180 N   0  0  0  0  0  0  0  0  0  0  0  0
   38.2390   29.5230   41.9450 C   0  0  0  0  0  0  0  0  0  0  0  0
   37.5400   29.2950   43.0750 N   0  0  0  0  0  0  0  0  0  0  0  0
   37.0370   27.9610   44.5890 H   0  0  0  0  0  0  0  0  0  0  0  0
   38.4460   26.1230   43.6890 H   0  0  0  0  0  0  0  0  0  0  0  0
   35.8200   29.9460   40.2620 Cl  0  0  0  0  0  0  0  0  0  0  0  0
   37.1040   31.1200   40.4790 C   0  0  0  0  0  0  0  0  0  0  0  0
   38.1660   30.8260   41.2710 C   0  0  0  0  0  0  0  0  0  0  0  0
   39.2000   31.7410   41.4580 C   0  0  0  0  0  0  0  0  0  0  0  0
   39.0970   32.9470   40.8080 C   0  0  0  0  0  0  0  0  0  0  0  0
   38.0340   33.2370   40.0180 C   0  0  0  0  0  0  0  0  0  0  0  0
   37.0260   32.3370   39.8400 C   0  0  0  0  0  0  0  0  0  0  0  0
   40.0190   31.4460   42.1010 H   0  0  0  0  0  0  0  0  0  0  0  0
   39.9540   33.5900   41.0200 H   0  0  0  0  0  0  0  0  0  0  0  0
   38.0670   34.2170   39.5630 H   0  0  0  0  0  0  0  0  0  0  0  0
   36.1960   32.6270   39.1930 H   0  0  0  0  0  0  0  0  0  0  0  0
   39.9750   26.2500   41.4450 C   0  0  0  0  0  0  0  0  0  0  0  0
   39.7660   25.3350   42.0030 H   0  0  0  0  0  0  0  0  0  0  0  0
   41.0380   26.5230   41.6440 H   0  0  0  0  0  0  0  0  0  0  0  0
   39.8380   26.0790   39.9510 C   0  0  0  0  0  0  0  0  0  0  0  0
   40.8140   26.0310   39.4760 H   0  0  0  0  0  0  0  0  0  0  0  0
   39.2540   26.9290   39.5530 H   0  0  0  0  0  0  0  0  0  0  0  0
   39.0840   24.8690   39.6810 N   0  0  0  0  0  0  0  0  0  0  0  0
   37.7740   25.1580   39.1500 C   0  0  0  0  0  2  0  0  0  0  0  0
   36.6890   25.3110   40.1540 C   0  0  0  0  0  2  0  0  0  0  0  0
   36.6010   24.1750   41.1370 C   0  0  0  0  0  3  0  0  0  0  0  0
   35.6660   23.5800   41.0580 H   0  0  0  0  0  0  0  0  0  0  0  0
   37.7570   23.2280   40.9490 C   0  0  0  0  0  2  0  0  0  0  0  0
   39.0240   24.0540   40.8740 C   0  0  0  0  0  2  0  0  0  0  0  0
  1  7  1  0  0  0  0
  2  1  1  0  0  0  0
  2  8  1  0  0  0  0
  3  2  2  0  0  0  0
  4  5  2  0  0  0  0
  4  3  1  0  0  0  0
  5  6  1  0  0  0  0
  6  1  2  0  0  0  0
  9 10  1  0  0  0  0
 10 11  1  0  0  0  0
 11 12  2  0  0  0  0
 11  5  1  0  0  0  0
 12 16  1  0  0  0  0
 13 17  1  0  0  0  0
 13 12  1  0  0  0  0
 14 13  2  0  0  0  0
 15 14  1  0  0  0  0
 15 10  2  0  0  0  0
 18 14  1  0  0  0  0
 19 15  1  0  0  0  0
 20 22  1  0  0  0  0
 20 21  1  0  0  0  0
 20  3  1  0  0  0  0
 23 20  1  0  0  0  0
 24 23  1  0  0  0  0
 25 23  1  0  0  0  0
 26 23  1  0  0  0  0
 26 32  1  0  0  0  0
 27 26  1  0  0  0  0
 27 28  1  0  0  0  0
 28 29  1  0  0  0  0
 30 29  1  0  0  0  0
 31 29  1  0  0  0  0
 32 31  1  0  0  0  0
M  END
>  <minimizedAffinity>
-5.07672215

$$$$

 OpenBabel03252502513D

 32 34  0  0  0  0  0  0  0  0999 V2000
   33.7880   26.8610   36.7340 C   0  0  0  0  0  0  0  0  0  0  0  0
   34.8740   27.1640   37.5540 C   0  0  0  0  0  0  0  0  0  0  0  0
   34.8600   28.3860   38.2090 C   0  0  0  0  0  0  0  0  0  0  0  0
   33.8090   29.2270   38.0310 N   0  0  0  0  0  0  0  0  0  0  0  0
   32.7630   28.8960   37.2190 C   0  0  0  0  0  0  0  0  0  0  0  0
   32.7590   27.7120   36.5740 N   0  0  0  0  0  0  0  0  0  0  0  0
   33.7380   25.9170   36.1920 H   0  0  0  0  0  0  0  0  0  0  0  0
   35.6760   26.4520   37.6520 H   0  0  0  0  0  0  0  0  0  0  0  0
   32.5730   30.1930   34.5470 Cl  0  0  0  0  0  0  0  0  0  0  0  0
   31.4700   30.4840   35.8790 C   0  0  0  0  0  0  0  0  0  0  0  0
   31.6480   29.8370   37.0590 C   0  0  0  0  0  0  0  0  0  0  0  0
   30.7870   30.0530   38.1340 C   0  0  0  0  0  0  0  0  0  0  0  0
   29.7580   30.9440   37.9470 C   0  0  0  0  0  0  0  0  0  0  0  0
   29.5850   31.5880   36.7660 C   0  0  0  0  0  0  0  0  0  0  0  0
   30.4300   31.3720   35.7190 C   0  0  0  0  0  0  0  0  0  0  0  0
   30.9820   29.5080   39.0490 H   0  0  0  0  0  0  0  0  0  0  0  0
   29.1440   31.0410   38.8440 H   0  0  0  0  0  0  0  0  0  0  0  0
   28.7400   32.2610   36.7420 H   0  0  0  0  0  0  0  0  0  0  0  0
   30.2400   31.9180   34.7930 H   0  0  0  0  0  0  0  0  0  0  0  0
   35.9970   28.7370   39.0880 C   0  0  0  0  0  0  0  0  0  0  0  0
   35.8030   29.7300   39.4970 H   0  0  0  0  0  0  0  0  0  0  0  0
   36.9080   28.8150   38.4490 H   0  0  0  0  0  0  0  0  0  0  0  0
   36.2940   27.7050   40.1500 C   0  0  0  0  0  0  0  0  0  0  0  0
   37.2860   27.2840   40.0140 H   0  0  0  0  0  0  0  0  0  0  0  0
   35.5250   26.9120   40.0930 H   0  0  0  0  0  0  0  0  0  0  0  0
   36.1820   28.3250   41.4560 N   0  0  0  0  0  0  0  0  0  0  0  0
   36.8300   29.6140   41.4980 C   0  0  0  0  0  2  0  0  0  0  0  0
   38.2600   29.6060   41.9020 C   0  0  0  0  0  2  0  0  0  0  0  0
   38.5310   28.8580   43.1800 C   0  0  0  0  0  3  0  0  0  0  0  0
   38.8900   29.5000   44.0120 H   0  0  0  0  0  0  0  0  0  0  0  0
   37.2840   28.1600   43.6530 C   0  0  0  0  0  2  0  0  0  0  0  0
   36.6870   27.4250   42.4700 C   0  0  0  0  0  2  0  0  0  0  0  0
  1  2  1  0  0  0  0
  2  8  1  0  0  0  0
  2  3  2  0  0  0  0
  3 20  1  0  0  0  0
  4  3  1  0  0  0  0
  5  4  2  0  0  0  0
  6  1  2  0  0  0  0
  6  5  1  0  0  0  0
  7  1  1  0  0  0  0
  9 10  1  0  0  0  0
 10 11  1  0  0  0  0
 11  5  1  0  0  0  0
 11 12  2  0  0  0  0
 12 16  1  0  0  0  0
 13 12  1  0  0  0  0
 13 17  1  0  0  0  0
 14 13  2  0  0  0  0
 15 10  2  0  0  0  0
 15 14  1  0  0  0  0
 18 14  1  0  0  0  0
 19 15  1  0  0  0  0
 20 21  1  0  0  0  0
 20 23  1  0  0  0  0
 22 20  1  0  0  0  0
 23 26  1  0  0  0  0
 24 23  1  0  0  0  0
 25 23  1  0  0  0  0
 26 27  1  0  0  0  0
 26 32  1  0  0  0  0
 27 28  1  0  0  0  0
 28 29  1  0  0  0  0
 29 31  1  0  0  0  0
 29 30  1  0  0  0  0
 32 31  1  0  0  0  0
M  END
>  <minimizedAffinity>
-5.03998232

$$$$

 OpenBabel03252502513D

 32 34  0  0  0  0  0  0  0  0999 V2000
   39.9890   25.7570   43.6600 C   0  0  0  0  0  0  0  0  0  0  0  0
   39.8160   27.1400   43.6790 C   0  0  0  0  0  0  0  0  0  0  0  0
   38.9680   27.6930   42.7320 C   0  0  0  0  0  0  0  0  0  0  0  0
   38.3480   26.8810   41.8370 N   0  0  0  0  0  0  0  0  0  0  0  0
   38.5420   25.5300   41.8490 C   0  0  0  0  0  0  0  0  0  0  0  0
   39.3630   24.9750   42.7630 N   0  0  0  0  0  0  0  0  0  0  0  0
   40.6420   25.2610   44.3780 H   0  0  0  0  0  0  0  0  0  0  0  0
   40.3390   27.7270   44.4160 H   0  0  0  0  0  0  0  0  0  0  0  0
   40.1910   24.6840   39.5200 Cl  0  0  0  0  0  0  0  0  0  0  0  0
   38.5080   24.2530   39.7620 C   0  0  0  0  0  0  0  0  0  0  0  0
   37.8470   24.6930   40.8630 C   0  0  0  0  0  0  0  0  0  0  0  0
   36.5090   24.3670   41.0770 C   0  0  0  0  0  0  0  0  0  0  0  0
   35.8930   23.5850   40.1290 C   0  0  0  0  0  0  0  0  0  0  0  0
   36.5580   23.1480   39.0310 C   0  0  0  0  0  0  0  0  0  0  0  0
   37.8660   23.4710   38.8290 C   0  0  0  0  0  0  0  0  0  0  0  0
   36.0380   24.7490   41.9730 H   0  0  0  0  0  0  0  0  0  0  0  0
   34.8510   23.3870   40.3900 H   0  0  0  0  0  0  0  0  0  0  0  0
   35.9660   22.5400   38.3620 H   0  0  0  0  0  0  0  0  0  0  0  0
   38.3480   23.0890   37.9270 H   0  0  0  0  0  0  0  0  0  0  0  0
   38.7620   29.1570   42.7260 C   0  0  0  0  0  0  0  0  0  0  0  0
   39.6760   29.6170   42.3460 H   0  0  0  0  0  0  0  0  0  0  0  0
   38.6420   29.4870   43.7850 H   0  0  0  0  0  0  0  0  0  0  0  0
   37.5220   29.6010   41.9870 C   0  0  0  0  0  0  0  0  0  0  0  0
   37.0100   30.3910   42.5270 H   0  0  0  0  0  0  0  0  0  0  0  0
   36.8580   28.7260   41.8590 H   0  0  0  0  0  0  0  0  0  0  0  0
   37.8990   30.0560   40.6620 N   0  0  0  0  0  0  0  0  0  0  0  0
   38.9300   31.0660   40.7120 C   0  0  0  0  0  2  0  0  0  0  0  0
   38.4540   32.4710   40.7870 C   0  0  0  0  0  2  0  0  0  0  0  0
   37.4400   32.8310   39.7350 C   0  0  0  0  0  3  0  0  0  0  0  0
   37.7950   33.5900   39.0050 H   0  0  0  0  0  0  0  0  0  0  0  0
   37.0380   31.6080   38.9550 C   0  0  0  0  0  2  0  0  0  0  0  0
   36.7250   30.5070   39.9470 C   0  0  0  0  0  2  0  0  0  0  0  0
  1  2  1  0  0  0  0
  1  7  1  0  0  0  0
  2  8  1  0  0  0  0
  3  2  2  0  0  0  0
  4  5  2  0  0  0  0
  4  3  1  0  0  0  0
  5  6  1  0  0  0  0
  6  1  2  0  0  0  0
  9 10  1  0  0  0  0
 10 11  1  0  0  0  0
 11 12  2  0  0  0  0
 11  5  1  0  0  0  0
 12 16  1  0  0  0  0
 13 17  1  0  0  0  0
 13 12  1  0  0  0  0
 14 13  2  0  0  0  0
 15 14  1  0  0  0  0
 15 10  2  0  0  0  0
 18 14  1  0  0  0  0
 19 15  1  0  0  0  0
 20  3  1  0  0  0  0
 20 22  1  0  0  0  0
 21 20  1  0  0  0  0
 23 24  1  0  0  0  0
 23 20  1  0  0  0  0
 25 23  1  0  0  0  0
 26 27  1  0  0  0  0
 26 23  1  0  0  0  0
 27 28  1  0  0  0  0
 29 28  1  0  0  0  0
 30 29  1  0  0  0  0
 31 29  1  0  0  0  0
 31 32  1  0  0  0  0
 32 26  1  0  0  0  0
M  END
>  <minimizedAffinity>
-5.01307487

$$$$

 OpenBabel03252502513D

 32 34  0  0  0  0  0  0  0  0999 V2000
   35.8040   30.3580   40.6820 C   0  0  0  0  0  0  0  0  0  0  0  0
   36.9060   30.9960   40.1140 C   0  0  0  0  0  0  0  0  0  0  0  0
   37.9960   30.2090   39.7730 C   0  0  0  0  0  0  0  0  0  0  0  0
   37.9510   28.8710   39.9990 N   0  0  0  0  0  0  0  0  0  0  0  0
   36.8530   28.2820   40.5580 C   0  0  0  0  0  0  0  0  0  0  0  0
   35.7840   29.0300   40.8970 N   0  0  0  0  0  0  0  0  0  0  0  0
   34.9170   30.9190   40.9720 H   0  0  0  0  0  0  0  0  0  0  0  0
   36.8780   32.0610   39.9610 H   0  0  0  0  0  0  0  0  0  0  0  0
   37.5940   27.4240   43.3100 Cl  0  0  0  0  0  0  0  0  0  0  0  0
   37.1740   26.3330   42.0030 C   0  0  0  0  0  0  0  0  0  0  0  0
   36.8500   26.8310   40.7820 C   0  0  0  0  0  0  0  0  0  0  0  0
   36.5150   25.9850   39.7270 C   0  0  0  0  0  0  0  0  0  0  0  0
   36.5270   24.6340   39.9750 C   0  0  0  0  0  0  0  0  0  0  0  0
   36.8520   24.1410   41.1960 C   0  0  0  0  0  0  0  0  0  0  0  0
   37.1780   24.9740   42.2240 C   0  0  0  0  0  0  0  0  0  0  0  0
   36.2670   26.4430   38.7780 H   0  0  0  0  0  0  0  0  0  0  0  0
   36.2500   24.0610   39.0870 H   0  0  0  0  0  0  0  0  0  0  0  0
   36.8230   23.0630   41.2670 H   0  0  0  0  0  0  0  0  0  0  0  0
   37.4290   24.5200   43.1840 H   0  0  0  0  0  0  0  0  0  0  0  0
   39.1800   30.8560   39.1660 C   0  0  0  0  0  0  0  0  0  0  0  0
   38.8580   31.8140   38.7540 H   0  0  0  0  0  0  0  0  0  0  0  0
   39.5110   30.2220   38.3090 H   0  0  0  0  0  0  0  0  0  0  0  0
   40.3600   30.9770   40.1010 C   0  0  0  0  0  0  0  0  0  0  0  0
   41.2730   30.6390   39.6190 H   0  0  0  0  0  0  0  0  0  0  0  0
   40.1540   30.3750   41.0050 H   0  0  0  0  0  0  0  0  0  0  0  0
   40.4910   32.3600   40.5200 N   0  0  0  0  0  0  0  0  0  0  0  0
   40.2390   33.2780   39.4350 C   0  0  0  0  0  2  0  0  0  0  0  0
   41.4260   33.6700   38.6320 C   0  0  0  0  0  2  0  0  0  0  0  0
   42.5870   34.1610   39.4560 C   0  0  0  0  0  3  0  0  0  0  0  0
   42.8340   35.2320   39.2950 H   0  0  0  0  0  0  0  0  0  0  0  0
   42.3030   33.9780   40.9230 C   0  0  0  0  0  2  0  0  0  0  0  0
   41.7890   32.5670   41.1230 C   0  0  0  0  0  2  0  0  0  0  0  0
  1  6  1  0  0  0  0
  1  7  1  0  0  0  0
  2  1  2  0  0  0  0
  3  4  2  0  0  0  0
  3  2  1  0  0  0  0
  4  5  1  0  0  0  0
  5 11  1  0  0  0  0
  5  6  2  0  0  0  0
  8  2  1  0  0  0  0
 10 15  1  0  0  0  0
 10  9  1  0  0  0  0
 11 10  2  0  0  0  0
 12 13  2  0  0  0  0
 12 11  1  0  0  0  0
 13 14  1  0  0  0  0
 14 18  1  0  0  0  0
 14 15  2  0  0  0  0
 15 19  1  0  0  0  0
 16 12  1  0  0  0  0
 17 13  1  0  0  0  0
 20  3  1  0  0  0  0
 20 23  1  0  0  0  0
 21 20  1  0  0  0  0
 22 20  1  0  0  0  0
 23 26  1  0  0  0  0
 23 25  1  0  0  0  0
 24 23  1  0  0  0  0
 26 32  1  0  0  0  0
 27 26  1  0  0  0  0
 28 27  1  0  0  0  0
 28 29  1  0  0  0  0
 29 31  1  0  0  0  0
 30 29  1  0  0  0  0
 31 32  1  0  0  0  0
M  END
>  <minimizedAffinity>
-4.99725866

$$$$

 OpenBabel03252502513D

 32 34  0  0  0  0  0  0  0  0999 V2000
   37.2500   29.8800   37.0400 C   0  0  0  0  0  0  0  0  0  0  0  0
   36.7760   28.8900   37.9000 C   0  0  0  0  0  0  0  0  0  0  0  0
   37.1860   28.9420   39.2240 C   0  0  0  0  0  0  0  0  0  0  0  0
   38.0170   29.9370   39.6270 N   0  0  0  0  0  0  0  0  0  0  0  0
   38.4610   30.8890   38.7560 C   0  0  0  0  0  0  0  0  0  0  0  0
   38.0740   30.8550   37.4650 N   0  0  0  0  0  0  0  0  0  0  0  0
   36.9660   29.8960   35.9890 H   0  0  0  0  0  0  0  0  0  0  0  0
   36.1190   28.1280   37.5160 H   0  0  0  0  0  0  0  0  0  0  0  0
   37.1270   33.4540   39.4640 Cl  0  0  0  0  0  0  0  0  0  0  0  0
   38.8500   33.1570   39.5890 C   0  0  0  0  0  0  0  0  0  0  0  0
   39.3570   31.9470   39.2390 C   0  0  0  0  0  0  0  0  0  0  0  0
   40.7230   31.6870   39.3270 C   0  0  0  0  0  0  0  0  0  0  0  0
   41.5290   32.7030   39.7810 C   0  0  0  0  0  0  0  0  0  0  0  0
   41.0180   33.9100   40.1290 C   0  0  0  0  0  0  0  0  0  0  0  0
   39.6820   34.1570   40.0410 C   0  0  0  0  0  0  0  0  0  0  0  0
   41.0650   30.7030   39.0330 H   0  0  0  0  0  0  0  0  0  0  0  0
   42.5770   32.3980   39.8140 H   0  0  0  0  0  0  0  0  0  0  0  0
   41.7520   34.6250   40.4720 H   0  0  0  0  0  0  0  0  0  0  0  0
   39.3280   35.1470   40.3360 H   0  0  0  0  0  0  0  0  0  0  0  0
   36.7000   27.9070   40.1620 C   0  0  0  0  0  0  0  0  0  0  0  0
   37.5260   27.2190   40.3510 H   0  0  0  0  0  0  0  0  0  0  0  0
   35.9000   27.3270   39.6430 H   0  0  0  0  0  0  0  0  0  0  0  0
   36.0880   28.4620   41.4260 C   0  0  0  0  0  0  0  0  0  0  0  0
   35.0160   28.2840   41.4490 H   0  0  0  0  0  0  0  0  0  0  0  0
   36.3010   29.5450   41.4720 H   0  0  0  0  0  0  0  0  0  0  0  0
   36.7270   27.8440   42.5720 N   0  0  0  0  0  0  0  0  0  0  0  0
   37.4740   28.8000   43.3530 C   0  0  0  0  0  2  0  0  0  0  0  0
   38.8980   28.9760   42.9690 C   0  0  0  0  0  2  0  0  0  0  0  0
   39.6700   27.6870   42.8680 C   0  0  0  0  0  3  0  0  0  0  0  0
   40.4790   27.5850   43.6230 H   0  0  0  0  0  0  0  0  0  0  0  0
   38.7460   26.5100   43.0320 C   0  0  0  0  0  2  0  0  0  0  0  0
   37.5460   26.7340   42.1350 C   0  0  0  0  0  2  0  0  0  0  0  0
  1  6  2  0  0  0  0
  1  2  1  0  0  0  0
  2  3  2  0  0  0  0
  3  4  1  0  0  0  0
  3 20  1  0  0  0  0
  5 11  1  0  0  0  0
  5  4  2  0  0  0  0
  6  5  1  0  0  0  0
  7  1  1  0  0  0  0
  8  2  1  0  0  0  0
  9 10  1  0  0  0  0
 10 15  1  0  0  0  0
 11 12  1  0  0  0  0
 11 10  2  0  0  0  0
 12 13  2  0  0  0  0
 13 17  1  0  0  0  0
 13 14  1  0  0  0  0
 14 18  1  0  0  0  0
 15 14  2  0  0  0  0
 15 19  1  0  0  0  0
 16 12  1  0  0  0  0
 20 21  1  0  0  0  0
 20 23  1  0  0  0  0
 22 20  1  0  0  0  0
 23 24  1  0  0  0  0
 23 25  1  0  0  0  0
 23 26  1  0  0  0  0
 26 27  1  0  0  0  0
 28 27  1  0  0  0  0
 29 28  1  0  0  0  0
 29 31  1  0  0  0  0
 29 30  1  0  0  0  0
 32 26  1  0  0  0  0
 32 31  1  0  0  0  0
M  END
>  <minimizedAffinity>
-4.9938035

$$$$
