
 OpenBabel03252508373D

 39 42  0  0  0  0  0  0  0  0999 V2000
   45.1410   33.9710   40.7290 C   0  0  0  0  0  0  0  0  0  0  0  0
   44.0910   33.6280   39.9220 C   0  0  0  0  0  0  0  0  0  0  0  0
   44.3830   33.1020   38.6970 C   0  0  0  0  0  0  0  0  0  0  0  0
   45.6720   32.9010   38.2380 C   0  0  0  0  0  0  0  0  0  0  0  0
   46.7030   33.2600   39.0840 C   0  0  0  0  0  0  0  0  0  0  0  0
   46.4450   33.7970   40.3330 C   0  0  0  0  0  0  0  0  0  0  0  0
   43.5580   32.8270   38.0530 H   0  0  0  0  0  0  0  0  0  0  0  0
   45.8590   32.4800   37.2580 H   0  0  0  0  0  0  0  0  0  0  0  0
   47.7060   33.0920   38.6970 H   0  0  0  0  0  0  0  0  0  0  0  0
   40.8070   35.2690   40.8060 C   0  0  0  0  0  0  0  0  0  0  0  0
   42.1080   35.0900   40.2970 C   0  0  0  0  0  0  0  0  0  0  0  0
   42.7520   33.8510   40.4320 C   0  0  0  0  0  0  0  0  0  0  0  0
   42.0360   32.8880   41.0700 N   0  0  0  0  0  0  0  0  0  0  0  0
   40.8010   33.0870   41.5440 C   0  0  0  0  0  0  0  0  0  0  0  0
   40.1930   34.2720   41.4100 N   0  0  0  0  0  0  0  0  0  0  0  0
   40.2150   36.5470   40.6340 N   0  0  0  0  0  0  0  0  0  0  0  0
   42.6130   35.9070   39.8010 H   0  0  0  0  0  0  0  0  0  0  0  0
   40.3420   32.2370   42.0300 H   0  0  0  0  0  0  0  0  0  0  0  0
   39.2780   36.4780   40.1790 H   0  0  0  0  0  0  0  0  0  0  0  0
   40.7880   37.3250   40.9790 H   0  0  0  0  0  0  0  0  0  0  0  0
   47.6020   34.1410   41.1390 C   0  0  0  0  0  0  0  0  0  0  0  0
   48.1400   35.3860   40.9160 C   0  0  0  0  0  0  0  0  0  0  0  0
   49.2470   35.8880   41.5940 C   0  0  0  0  0  0  0  0  0  0  0  0
   49.8290   35.0830   42.5390 C   0  0  0  0  0  0  0  0  0  0  0  0
   49.3150   33.8270   42.7900 C   0  0  0  0  0  0  0  0  0  0  0  0
   48.2070   33.3610   42.0920 C   0  0  0  0  0  0  0  0  0  0  0  0
   47.7350   36.0890   40.1790 H   0  0  0  0  0  0  0  0  0  0  0  0
   49.6600   36.8700   41.4070 H   0  0  0  0  0  0  0  0  0  0  0  0
   50.6890   35.3480   43.1330 H   0  0  0  0  0  0  0  0  0  0  0  0
   49.7170   33.1300   43.5200 H   0  0  0  0  0  0  0  0  0  0  0  0
   47.6290   32.0670   42.3070 N   0  0  0  0  0  0  0  0  0  0  0  0
   47.7900   30.8880   41.4990 C   0  0  0  0  0  0  0  0  0  0  0  0
   47.7650   29.6500   42.3850 C   0  0  0  0  0  0  0  0  0  0  0  0
   46.3410   29.5630   42.9040 C   0  0  0  0  0  0  0  0  0  0  0  0
   46.3230   28.7040   43.6340 H   0  0  0  0  0  0  0  0  0  0  0  0
   45.8230   30.8440   43.4680 C   0  0  0  0  0  0  0  0  0  0  0  0
   46.7960   31.9790   43.4790 C   0  0  0  0  0  0  0  0  0  0  0  0
   44.7250   34.9960   43.1030 N   0  0  0  0  0  0  0  0  0  0  0  0
   44.9100   34.5350   42.0410 C   0  0  0  0  0  0  0  0  0  0  0  0
  1 39  1  0  0  0  0
  2 12  1  0  0  0  0
  2  1  2  0  0  0  0
  3  2  1  0  0  0  0
  4  3  2  0  0  0  0
  4  5  1  0  0  0  0
  5  6  2  0  0  0  0
  6  1  1  0  0  0  0
  6 21  1  0  0  0  0
  7  3  1  0  0  0  0
  8  4  1  0  0  0  0
  9  5  1  0  0  0  0
 10 15  1  0  0  0  0
 11 12  1  0  0  0  0
 11 10  2  0  0  0  0
 12 13  2  0  0  0  0
 13 14  1  0  0  0  0
 14 18  1  0  0  0  0
 15 14  2  0  0  0  0
 16 10  1  0  0  0  0
 16 20  1  0  0  0  0
 17 11  1  0  0  0  0
 19 16  1  0  0  0  0
 21 26  1  0  0  0  0
 22 21  2  0  0  0  0
 22 23  1  0  0  0  0
 23 24  2  0  0  0  0
 24 25  1  0  0  0  0
 24 29  1  0  0  0  0
 25 30  1  0  0  0  0
 26 31  1  0  0  0  0
 26 25  2  0  0  0  0
 27 22  1  0  0  0  0
 28 23  1  0  0  0  0
 31 37  1  0  0  0  0
 32 31  1  0  0  0  0
 32 33  1  0  0  0  0
 33 34  1  0  0  0  0
 34 36  1  0  0  0  0
 34 35  1  0  0  0  0
 36 37  1  0  0  0  0
 39 38  3  0  0  0  0
M  END
>  <minimizedAffinity>
-5.98534489

>  <minimizedRMSD>
0.152914926

$$$$
