
 OpenBabel03252505593D

 34 36  0  0  0  0  0  0  0  0999 V2000
   36.5860   31.4780   40.6790 C   0  0  0  0  0  0  0  0  0  0  0  0
   37.9280   31.8390   40.6620 C   0  0  0  0  0  0  0  0  0  0  0  0
   38.8320   30.9230   41.2090 C   0  0  0  0  0  0  0  0  0  0  0  0
   38.3840   29.7600   41.7170 N   0  0  0  0  0  0  0  0  0  0  0  0
   37.0580   29.4620   41.7050 C   0  0  0  0  0  0  0  0  0  0  0  0
   36.1740   30.3110   41.1920 N   0  0  0  0  0  0  0  0  0  0  0  0
   35.8860   32.1760   40.2610 H   0  0  0  0  0  0  0  0  0  0  0  0
   40.2340   31.1520   41.2400 N   0  0  0  0  0  0  0  0  0  0  0  0
   41.2380   31.2240   40.1950 C   0  0  0  0  0  2  0  0  0  0  0  0
   42.3490   32.1770   40.4600 C   0  0  0  0  0  2  0  0  0  0  0  0
   42.6930   32.3810   41.8940 C   0  0  0  0  0  3  0  0  0  0  0  0
   43.7940   32.3690   42.0580 H   0  0  0  0  0  0  0  0  0  0  0  0
   42.0970   31.3550   42.8080 C   0  0  0  0  0  2  0  0  0  0  0  0
   40.5760   31.3270   42.6600 C   0  0  0  0  0  2  0  0  0  0  0  0
   38.3390   33.1500   40.0860 C   0  0  0  0  0  0  0  0  0  0  0  0
   37.1310   33.7680   39.7860 F   0  0  0  0  0  0  0  0  0  0  0  0
   38.9990   32.8750   38.8970 F   0  0  0  0  0  0  0  0  0  0  0  0
   39.0630   33.8460   40.9830 F   0  0  0  0  0  0  0  0  0  0  0  0
   36.5680   28.2780   42.2170 O   0  0  0  0  0  0  0  0  0  0  0  0
   37.1000   27.7290   43.4040 C   0  0  0  0  0  0  0  0  0  0  0  0
   37.6520   28.4590   44.0250 H   0  0  0  0  0  0  0  0  0  0  0  0
   36.2570   27.3800   44.0410 H   0  0  0  0  0  0  0  0  0  0  0  0
   37.8970   26.5460   43.0310 C   0  0  0  0  0  0  0  0  0  0  0  0
   39.1590   26.1540   43.4470 C   0  0  0  0  0  0  0  0  0  0  0  0
   39.6660   25.0000   42.9370 C   0  0  0  0  0  0  0  0  0  0  0  0
   38.9980   24.2470   42.0670 N   0  0  0  0  0  0  0  0  0  0  0  0
   37.7760   24.6360   41.6720 C   0  0  0  0  0  0  0  0  0  0  0  0
   37.2100   25.7870   42.1460 N   0  0  0  0  0  0  0  0  0  0  0  0
   39.5870   26.8430   44.1440 H   0  0  0  0  0  0  0  0  0  0  0  0
   40.6560   24.7310   43.2890 H   0  0  0  0  0  0  0  0  0  0  0  0
   37.1080   23.7360   40.7030 C   0  0  0  0  0  0  0  0  0  0  0  0
   35.7520   23.7120   40.8930 F   0  0  0  0  0  0  0  0  0  0  0  0
   37.6020   22.4320   40.8410 F   0  0  0  0  0  0  0  0  0  0  0  0
   37.3500   24.1190   39.4000 F   0  0  0  0  0  0  0  0  0  0  0  0
  1  6  1  0  0  0  0
  2  1  2  0  0  0  0
  2  3  1  0  0  0  0
  3  8  1  0  0  0  0
  3  4  2  0  0  0  0
  5  4  1  0  0  0  0
  5 19  1  0  0  0  0
  6  5  2  0  0  0  0
  7  1  1  0  0  0  0
  8 14  1  0  0  0  0
  9 10  1  0  0  0  0
  9  8  1  0  0  0  0
 10 11  1  0  0  0  0
 11 12  1  0  0  0  0
 11 13  1  0  0  0  0
 14 13  1  0  0  0  0
 15  2  1  0  0  0  0
 15 18  1  0  0  0  0
 16 15  1  0  0  0  0
 17 15  1  0  0  0  0
 19 20  1  0  0  0  0
 20 21  1  0  0  0  0
 20 22  1  0  0  0  0
 23 20  1  0  0  0  0
 23 24  1  0  0  0  0
 24 29  1  0  0  0  0
 25 30  1  0  0  0  0
 25 24  2  0  0  0  0
 26 25  1  0  0  0  0
 27 26  2  0  0  0  0
 27 28  1  0  0  0  0
 28 23  2  0  0  0  0
 31 33  1  0  0  0  0
 31 32  1  0  0  0  0
 31 27  1  0  0  0  0
 34 31  1  0  0  0  0
M  END
>  <minimizedAffinity>
-5.88886547

$$$$

 OpenBabel03252505593D

 34 36  0  0  0  0  0  0  0  0999 V2000
   36.4550   31.4420   40.5390 C   0  0  0  0  0  0  0  0  0  0  0  0
   37.8050   31.7610   40.6270 C   0  0  0  0  0  0  0  0  0  0  0  0
   38.6520   30.7720   41.1360 C   0  0  0  0  0  0  0  0  0  0  0  0
   38.1450   29.5820   41.5120 N   0  0  0  0  0  0  0  0  0  0  0  0
   36.8140   29.3290   41.4020 C   0  0  0  0  0  0  0  0  0  0  0  0
   35.9840   30.2480   40.9220 N   0  0  0  0  0  0  0  0  0  0  0  0
   35.7990   32.1970   40.1490 H   0  0  0  0  0  0  0  0  0  0  0  0
   40.0550   30.9520   41.2630 N   0  0  0  0  0  0  0  0  0  0  0  0
   41.1300   30.9890   40.2890 C   0  0  0  0  0  2  0  0  0  0  0  0
   42.2530   31.9040   40.6300 C   0  0  0  0  0  2  0  0  0  0  0  0
   42.5050   32.0970   42.0850 C   0  0  0  0  0  3  0  0  0  0  0  0
   43.5910   32.0470   42.3230 H   0  0  0  0  0  0  0  0  0  0  0  0
   41.8140   31.0920   42.9540 C   0  0  0  0  0  2  0  0  0  0  0  0
   40.3060   31.1170   42.7030 C   0  0  0  0  0  2  0  0  0  0  0  0
   38.2830   33.1050   40.1950 C   0  0  0  0  0  0  0  0  0  0  0  0
   37.1120   33.7780   39.8670 F   0  0  0  0  0  0  0  0  0  0  0  0
   39.0200   32.9130   39.0350 F   0  0  0  0  0  0  0  0  0  0  0  0
   38.9560   33.7030   41.1960 F   0  0  0  0  0  0  0  0  0  0  0  0
   36.2650   28.1210   41.7770 O   0  0  0  0  0  0  0  0  0  0  0  0
   36.6840   27.4720   42.9590 C   0  0  0  0  0  0  0  0  0  0  0  0
   37.2390   28.1290   43.6550 H   0  0  0  0  0  0  0  0  0  0  0  0
   35.7820   27.1430   43.5220 H   0  0  0  0  0  0  0  0  0  0  0  0
   37.4290   26.2630   42.5650 C   0  0  0  0  0  0  0  0  0  0  0  0
   36.9650   25.0220   42.1580 C   0  0  0  0  0  0  0  0  0  0  0  0
   37.8850   24.0700   41.8470 C   0  0  0  0  0  0  0  0  0  0  0  0
   39.1950   24.2900   41.9200 N   0  0  0  0  0  0  0  0  0  0  0  0
   39.6340   25.4950   42.3150 C   0  0  0  0  0  0  0  0  0  0  0  0
   38.7610   26.4950   42.6420 N   0  0  0  0  0  0  0  0  0  0  0  0
   35.8970   24.9760   42.1430 H   0  0  0  0  0  0  0  0  0  0  0  0
   37.4780   23.1150   41.5340 H   0  0  0  0  0  0  0  0  0  0  0  0
   41.1060   25.6470   42.3650 C   0  0  0  0  0  0  0  0  0  0  0  0
   41.6980   24.5900   43.0050 F   0  0  0  0  0  0  0  0  0  0  0  0
   41.4440   26.8250   43.0430 F   0  0  0  0  0  0  0  0  0  0  0  0
   41.6540   25.7410   41.1020 F   0  0  0  0  0  0  0  0  0  0  0  0
  1  2  2  0  0  0  0
  1  6  1  0  0  0  0
  2  3  1  0  0  0  0
  3  8  1  0  0  0  0
  3  4  2  0  0  0  0
  5  4  1  0  0  0  0
  5 19  1  0  0  0  0
  6  5  2  0  0  0  0
  7  1  1  0  0  0  0
  8 14  1  0  0  0  0
  9 10  1  0  0  0  0
  9  8  1  0  0  0  0
 10 11  1  0  0  0  0
 11 12  1  0  0  0  0
 11 13  1  0  0  0  0
 14 13  1  0  0  0  0
 15  2  1  0  0  0  0
 15 18  1  0  0  0  0
 16 15  1  0  0  0  0
 17 15  1  0  0  0  0
 19 20  1  0  0  0  0
 20 22  1  0  0  0  0
 20 21  1  0  0  0  0
 23 28  1  0  0  0  0
 23 20  1  0  0  0  0
 24 23  2  0  0  0  0
 25 26  2  0  0  0  0
 25 24  1  0  0  0  0
 26 27  1  0  0  0  0
 27 31  1  0  0  0  0
 27 28  2  0  0  0  0
 29 24  1  0  0  0  0
 30 25  1  0  0  0  0
 31 32  1  0  0  0  0
 31 33  1  0  0  0  0
 34 31  1  0  0  0  0
M  END
>  <minimizedAffinity>
-5.80766964

$$$$

 OpenBabel03252505593D

 34 36  0  0  0  0  0  0  0  0999 V2000
   36.3860   29.6610   40.0710 C   0  0  0  0  0  0  0  0  0  0  0  0
   37.3730   30.4920   39.5530 C   0  0  0  0  0  0  0  0  0  0  0  0
   38.4210   30.8340   40.4140 C   0  0  0  0  0  0  0  0  0  0  0  0
   38.4360   30.3610   41.6750 N   0  0  0  0  0  0  0  0  0  0  0  0
   37.4410   29.5510   42.1240 C   0  0  0  0  0  0  0  0  0  0  0  0
   36.4320   29.2080   41.3300 N   0  0  0  0  0  0  0  0  0  0  0  0
   35.5790   29.3950   39.4160 H   0  0  0  0  0  0  0  0  0  0  0  0
   39.5070   31.6570   40.0140 N   0  0  0  0  0  0  0  0  0  0  0  0
   40.6820   31.4030   39.2020 C   0  0  0  0  0  2  0  0  0  0  0  0
   41.1480   32.5610   38.3940 C   0  0  0  0  0  2  0  0  0  0  0  0
   40.8730   33.9050   38.9760 C   0  0  0  0  0  3  0  0  0  0  0  0
   41.7560   34.5760   38.8950 H   0  0  0  0  0  0  0  0  0  0  0  0
   40.4760   33.8640   40.4200 C   0  0  0  0  0  2  0  0  0  0  0  0
   39.2470   32.9760   40.6120 C   0  0  0  0  0  2  0  0  0  0  0  0
   37.2770   30.9770   38.1480 C   0  0  0  0  0  0  0  0  0  0  0  0
   36.0820   30.4320   37.6950 F   0  0  0  0  0  0  0  0  0  0  0  0
   38.3220   30.3880   37.4490 F   0  0  0  0  0  0  0  0  0  0  0  0
   37.2720   32.3230   38.1200 F   0  0  0  0  0  0  0  0  0  0  0  0
   37.4290   29.0490   43.4080 O   0  0  0  0  0  0  0  0  0  0  0  0
   36.9540   27.7460   43.6720 C   0  0  0  0  0  0  0  0  0  0  0  0
   36.6020   27.6020   44.7100 H   0  0  0  0  0  0  0  0  0  0  0  0
   36.0640   27.5560   43.0310 H   0  0  0  0  0  0  0  0  0  0  0  0
   38.0060   26.7970   43.2670 C   0  0  0  0  0  0  0  0  0  0  0  0
   39.3290   26.7060   43.6690 C   0  0  0  0  0  0  0  0  0  0  0  0
   40.0920   25.7180   43.1280 C   0  0  0  0  0  0  0  0  0  0  0  0
   39.6140   24.8510   42.2400 N   0  0  0  0  0  0  0  0  0  0  0  0
   38.3320   24.9480   41.8570 C   0  0  0  0  0  0  0  0  0  0  0  0
   37.5120   25.9190   42.3620 N   0  0  0  0  0  0  0  0  0  0  0  0
   39.5860   27.4580   44.3840 H   0  0  0  0  0  0  0  0  0  0  0  0
   41.1190   25.6830   43.4720 H   0  0  0  0  0  0  0  0  0  0  0  0
   37.8900   23.9400   40.8650 C   0  0  0  0  0  0  0  0  0  0  0  0
   38.0890   24.3780   39.5820 F   0  0  0  0  0  0  0  0  0  0  0  0
   36.5270   23.6640   41.0370 F   0  0  0  0  0  0  0  0  0  0  0  0
   38.5630   22.7450   41.0160 F   0  0  0  0  0  0  0  0  0  0  0  0
  1  6  1  0  0  0  0
  2  1  2  0  0  0  0
  2  3  1  0  0  0  0
  3  4  2  0  0  0  0
  4  5  1  0  0  0  0
  5 19  1  0  0  0  0
  6  5  2  0  0  0  0
  7  1  1  0  0  0  0
  8  3  1  0  0  0  0
  8 14  1  0  0  0  0
  9  8  1  0  0  0  0
 10 11  1  0  0  0  0
 10  9  1  0  0  0  0
 11 13  1  0  0  0  0
 12 11  1  0  0  0  0
 13 14  1  0  0  0  0
 15  2  1  0  0  0  0
 16 15  1  0  0  0  0
 17 15  1  0  0  0  0
 18 15  1  0  0  0  0
 19 20  1  0  0  0  0
 20 21  1  0  0  0  0
 22 20  1  0  0  0  0
 23 24  1  0  0  0  0
 23 20  1  0  0  0  0
 24 29  1  0  0  0  0
 25 30  1  0  0  0  0
 25 24  2  0  0  0  0
 26 25  1  0  0  0  0
 27 26  2  0  0  0  0
 27 28  1  0  0  0  0
 28 23  2  0  0  0  0
 31 34  1  0  0  0  0
 31 33  1  0  0  0  0
 31 27  1  0  0  0  0
 32 31  1  0  0  0  0
M  END
>  <minimizedAffinity>
-5.80040312

$$$$

 OpenBabel03252505593D

 34 36  0  0  0  0  0  0  0  0999 V2000
   37.0880   30.7970   38.3620 C   0  0  0  0  0  0  0  0  0  0  0  0
   36.8480   29.8290   39.3310 C   0  0  0  0  0  0  0  0  0  0  0  0
   37.8940   29.5540   40.2160 C   0  0  0  0  0  0  0  0  0  0  0  0
   39.0620   30.2160   40.1020 N   0  0  0  0  0  0  0  0  0  0  0  0
   39.2370   31.1530   39.1330 C   0  0  0  0  0  0  0  0  0  0  0  0
   38.2610   31.4360   38.2770 N   0  0  0  0  0  0  0  0  0  0  0  0
   36.2890   31.0120   37.6790 H   0  0  0  0  0  0  0  0  0  0  0  0
   37.7830   28.6060   41.2680 N   0  0  0  0  0  0  0  0  0  0  0  0
   37.2110   28.6810   42.5990 C   0  0  0  0  0  2  0  0  0  0  0  0
   36.5980   27.4180   43.0900 C   0  0  0  0  0  2  0  0  0  0  0  0
   37.2070   26.1620   42.5670 C   0  0  0  0  0  3  0  0  0  0  0  0
   37.3550   25.4120   43.3740 H   0  0  0  0  0  0  0  0  0  0  0  0
   38.5330   26.3680   41.9030 C   0  0  0  0  0  2  0  0  0  0  0  0
   38.4070   27.3740   40.7590 C   0  0  0  0  0  2  0  0  0  0  0  0
   35.5290   29.1390   39.3830 C   0  0  0  0  0  0  0  0  0  0  0  0
   34.8530   29.6390   38.2770 F   0  0  0  0  0  0  0  0  0  0  0  0
   34.8880   29.5880   40.5300 F   0  0  0  0  0  0  0  0  0  0  0  0
   35.6990   27.8050   39.3210 F   0  0  0  0  0  0  0  0  0  0  0  0
   40.4190   31.8480   38.9910 O   0  0  0  0  0  0  0  0  0  0  0  0
   40.6980   32.5680   37.8090 C   0  0  0  0  0  0  0  0  0  0  0  0
   40.0990   32.2440   36.9380 H   0  0  0  0  0  0  0  0  0  0  0  0
   40.4270   33.6350   37.9720 H   0  0  0  0  0  0  0  0  0  0  0  0
   42.1530   32.5070   37.5820 C   0  0  0  0  0  0  0  0  0  0  0  0
   43.1680   33.3080   38.0790 C   0  0  0  0  0  0  0  0  0  0  0  0
   44.4440   33.0260   37.7030 C   0  0  0  0  0  0  0  0  0  0  0  0
   44.7430   32.0190   36.8860 N   0  0  0  0  0  0  0  0  0  0  0  0
   43.7520   31.2490   36.4100 C   0  0  0  0  0  0  0  0  0  0  0  0
   42.4480   31.4810   36.7500 N   0  0  0  0  0  0  0  0  0  0  0  0
   42.7970   34.0790   38.7220 H   0  0  0  0  0  0  0  0  0  0  0  0
   45.2060   33.6770   38.1160 H   0  0  0  0  0  0  0  0  0  0  0  0
   44.1800   30.1540   35.5090 C   0  0  0  0  0  0  0  0  0  0  0  0
   44.5220   29.0300   36.2130 F   0  0  0  0  0  0  0  0  0  0  0  0
   45.2860   30.5600   34.7520 F   0  0  0  0  0  0  0  0  0  0  0  0
   43.1870   29.8100   34.6150 F   0  0  0  0  0  0  0  0  0  0  0  0
  1  2  1  0  0  0  0
  2 15  1  0  0  0  0
  2  3  2  0  0  0  0
  3  8  1  0  0  0  0
  4  3  1  0  0  0  0
  5  4  2  0  0  0  0
  6  1  2  0  0  0  0
  6  5  1  0  0  0  0
  7  1  1  0  0  0  0
  8  9  1  0  0  0  0
  9 10  1  0  0  0  0
 11 10  1  0  0  0  0
 11 12  1  0  0  0  0
 13 11  1  0  0  0  0
 14  8  1  0  0  0  0
 14 13  1  0  0  0  0
 15 17  1  0  0  0  0
 16 15  1  0  0  0  0
 18 15  1  0  0  0  0
 19  5  1  0  0  0  0
 20 22  1  0  0  0  0
 20 19  1  0  0  0  0
 21 20  1  0  0  0  0
 23 20  1  0  0  0  0
 23 24  1  0  0  0  0
 24 29  1  0  0  0  0
 25 24  2  0  0  0  0
 25 30  1  0  0  0  0
 26 25  1  0  0  0  0
 27 28  1  0  0  0  0
 27 26  2  0  0  0  0
 28 23  2  0  0  0  0
 31 32  1  0  0  0  0
 31 27  1  0  0  0  0
 33 31  1  0  0  0  0
 34 31  1  0  0  0  0
M  END
>  <minimizedAffinity>
-5.72711706

$$$$

 OpenBabel03252505593D

 34 36  0  0  0  0  0  0  0  0999 V2000
   36.1470   24.6810   39.1390 C   0  0  0  0  0  0  0  0  0  0  0  0
   36.8220   25.1650   40.2540 C   0  0  0  0  0  0  0  0  0  0  0  0
   36.9880   26.5510   40.3340 C   0  0  0  0  0  0  0  0  0  0  0  0
   36.5040   27.3430   39.3590 N   0  0  0  0  0  0  0  0  0  0  0  0
   35.8510   26.8100   38.2920 C   0  0  0  0  0  0  0  0  0  0  0  0
   35.6770   25.4970   38.1870 N   0  0  0  0  0  0  0  0  0  0  0  0
   36.0170   23.6180   39.0700 H   0  0  0  0  0  0  0  0  0  0  0  0
   37.6390   27.1850   41.4260 N   0  0  0  0  0  0  0  0  0  0  0  0
   39.0380   27.4150   41.7340 C   0  0  0  0  0  2  0  0  0  0  0  0
   39.3190   28.6790   42.4650 C   0  0  0  0  0  2  0  0  0  0  0  0
   38.2290   29.1600   43.3600 C   0  0  0  0  0  3  0  0  0  0  0  0
   38.6250   29.4940   44.3450 H   0  0  0  0  0  0  0  0  0  0  0  0
   37.1760   28.1300   43.6320 C   0  0  0  0  0  2  0  0  0  0  0  0
   36.5630   27.6360   42.3220 C   0  0  0  0  0  2  0  0  0  0  0  0
   37.3330   24.2180   41.2840 C   0  0  0  0  0  0  0  0  0  0  0  0
   36.9470   22.9730   40.8040 F   0  0  0  0  0  0  0  0  0  0  0  0
   36.6280   24.4780   42.4510 F   0  0  0  0  0  0  0  0  0  0  0  0
   38.6700   24.3320   41.3990 F   0  0  0  0  0  0  0  0  0  0  0  0
   35.3420   27.5950   37.2790 O   0  0  0  0  0  0  0  0  0  0  0  0
   34.8300   28.8830   37.5480 C   0  0  0  0  0  0  0  0  0  0  0  0
   34.8210   29.1430   38.6230 H   0  0  0  0  0  0  0  0  0  0  0  0
   35.4950   29.6360   37.0700 H   0  0  0  0  0  0  0  0  0  0  0  0
   33.5080   28.9820   36.9040 C   0  0  0  0  0  0  0  0  0  0  0  0
   33.1200   28.6700   35.6110 C   0  0  0  0  0  0  0  0  0  0  0  0
   31.8160   28.8590   35.2750 C   0  0  0  0  0  0  0  0  0  0  0  0
   30.9160   29.3240   36.1370 N   0  0  0  0  0  0  0  0  0  0  0  0
   31.3020   29.6230   37.3870 C   0  0  0  0  0  0  0  0  0  0  0  0
   32.5980   29.4570   37.7870 N   0  0  0  0  0  0  0  0  0  0  0  0
   33.9350   28.3070   35.0210 H   0  0  0  0  0  0  0  0  0  0  0  0
   31.5570   28.6020   34.2540 H   0  0  0  0  0  0  0  0  0  0  0  0
   30.2320   30.1350   38.2740 C   0  0  0  0  0  0  0  0  0  0  0  0
   28.9990   29.6780   37.8890 F   0  0  0  0  0  0  0  0  0  0  0  0
   30.2170   31.5360   38.2480 F   0  0  0  0  0  0  0  0  0  0  0  0
   30.4340   29.7610   39.5870 F   0  0  0  0  0  0  0  0  0  0  0  0
  1  2  1  0  0  0  0
  2  3  2  0  0  0  0
  2 15  1  0  0  0  0
  3  8  1  0  0  0  0
  4  3  1  0  0  0  0
  5  4  2  0  0  0  0
  6  5  1  0  0  0  0
  6  1  2  0  0  0  0
  7  1  1  0  0  0  0
  8  9  1  0  0  0  0
  8 14  1  0  0  0  0
  9 10  1  0  0  0  0
 10 11  1  0  0  0  0
 11 13  1  0  0  0  0
 11 12  1  0  0  0  0
 14 13  1  0  0  0  0
 15 18  1  0  0  0  0
 15 17  1  0  0  0  0
 16 15  1  0  0  0  0
 19 20  1  0  0  0  0
 19  5  1  0  0  0  0
 20 21  1  0  0  0  0
 22 20  1  0  0  0  0
 23 20  1  0  0  0  0
 23 28  1  0  0  0  0
 24 23  2  0  0  0  0
 25 24  1  0  0  0  0
 25 26  2  0  0  0  0
 26 27  1  0  0  0  0
 27 28  2  0  0  0  0
 27 31  1  0  0  0  0
 29 24  1  0  0  0  0
 30 25  1  0  0  0  0
 31 34  1  0  0  0  0
 32 31  1  0  0  0  0
 33 31  1  0  0  0  0
M  END
>  <minimizedAffinity>
-5.65871048

$$$$

 OpenBabel03252505593D

 34 36  0  0  0  0  0  0  0  0999 V2000
   36.2260   28.8460   41.7270 C   0  0  0  0  0  0  0  0  0  0  0  0
   36.8570   27.6230   41.5320 C   0  0  0  0  0  0  0  0  0  0  0  0
   37.3030   27.3450   40.2370 C   0  0  0  0  0  0  0  0  0  0  0  0
   37.1110   28.2450   39.2530 N   0  0  0  0  0  0  0  0  0  0  0  0
   36.4870   29.4260   39.5050 C   0  0  0  0  0  0  0  0  0  0  0  0
   36.0530   29.7190   40.7260 N   0  0  0  0  0  0  0  0  0  0  0  0
   35.8820   29.0650   42.7190 H   0  0  0  0  0  0  0  0  0  0  0  0
   37.9820   26.1440   39.8980 N   0  0  0  0  0  0  0  0  0  0  0  0
   39.3290   25.6730   40.1580 C   0  0  0  0  0  2  0  0  0  0  0  0
   39.4520   24.2030   40.3520 C   0  0  0  0  0  2  0  0  0  0  0  0
   38.4590   23.3720   39.6150 C   0  0  0  0  0  3  0  0  0  0  0  0
   38.9390   22.4950   39.1290 H   0  0  0  0  0  0  0  0  0  0  0  0
   37.7190   24.1220   38.5500 C   0  0  0  0  0  2  0  0  0  0  0  0
   37.0080   25.3350   39.1480 C   0  0  0  0  0  2  0  0  0  0  0  0
   37.0230   26.6810   42.6740 C   0  0  0  0  0  0  0  0  0  0  0  0
   36.2060   27.2160   43.6620 F   0  0  0  0  0  0  0  0  0  0  0  0
   38.3430   26.7860   43.0910 F   0  0  0  0  0  0  0  0  0  0  0  0
   36.6460   25.4400   42.3130 F   0  0  0  0  0  0  0  0  0  0  0  0
   36.2770   30.3680   38.5200 O   0  0  0  0  0  0  0  0  0  0  0  0
   37.3630   30.9370   37.8190 C   0  0  0  0  0  0  0  0  0  0  0  0
   38.1340   30.2020   37.5200 H   0  0  0  0  0  0  0  0  0  0  0  0
   36.9830   31.3680   36.8670 H   0  0  0  0  0  0  0  0  0  0  0  0
   37.8880   32.0470   38.6340 C   0  0  0  0  0  0  0  0  0  0  0  0
   37.2180   33.0710   39.2830 C   0  0  0  0  0  0  0  0  0  0  0  0
   37.9580   33.9770   39.9770 C   0  0  0  0  0  0  0  0  0  0  0  0
   39.2850   33.9100   40.0510 N   0  0  0  0  0  0  0  0  0  0  0  0
   39.9240   32.9130   39.4180 C   0  0  0  0  0  0  0  0  0  0  0  0
   39.2380   31.9710   38.7030 N   0  0  0  0  0  0  0  0  0  0  0  0
   36.1590   33.0120   39.1460 H   0  0  0  0  0  0  0  0  0  0  0  0
   37.3940   34.7600   40.4690 H   0  0  0  0  0  0  0  0  0  0  0  0
   41.3990   32.9200   39.5560 C   0  0  0  0  0  0  0  0  0  0  0  0
   41.7790   32.9870   40.8710 F   0  0  0  0  0  0  0  0  0  0  0  0
   41.9390   34.0210   38.8780 F   0  0  0  0  0  0  0  0  0  0  0  0
   41.9690   31.7920   39.0040 F   0  0  0  0  0  0  0  0  0  0  0  0
  1  7  1  0  0  0  0
  2  1  1  0  0  0  0
  2 15  1  0  0  0  0
  3  2  2  0  0  0  0
  4  5  2  0  0  0  0
  4  3  1  0  0  0  0
  5  6  1  0  0  0  0
  6  1  2  0  0  0  0
  8  9  1  0  0  0  0
  8  3  1  0  0  0  0
  9 10  1  0  0  0  0
 11 10  1  0  0  0  0
 12 11  1  0  0  0  0
 13 14  1  0  0  0  0
 13 11  1  0  0  0  0
 14  8  1  0  0  0  0
 15 17  1  0  0  0  0
 15 16  1  0  0  0  0
 18 15  1  0  0  0  0
 19  5  1  0  0  0  0
 20 19  1  0  0  0  0
 20 23  1  0  0  0  0
 21 20  1  0  0  0  0
 22 20  1  0  0  0  0
 23 28  2  0  0  0  0
 23 24  1  0  0  0  0
 24 25  2  0  0  0  0
 25 26  1  0  0  0  0
 25 30  1  0  0  0  0
 27 31  1  0  0  0  0
 27 26  2  0  0  0  0
 28 27  1  0  0  0  0
 29 24  1  0  0  0  0
 31 32  1  0  0  0  0
 33 31  1  0  0  0  0
 34 31  1  0  0  0  0
M  END
>  <minimizedAffinity>
-5.55176067

$$$$

 OpenBabel03252505593D

 34 36  0  0  0  0  0  0  0  0999 V2000
   36.2630   29.0430   38.8370 C   0  0  0  0  0  0  0  0  0  0  0  0
   37.1850   30.0820   38.7960 C   0  0  0  0  0  0  0  0  0  0  0  0
   37.7820   30.4400   40.0080 C   0  0  0  0  0  0  0  0  0  0  0  0
   37.4530   29.7850   41.1380 N   0  0  0  0  0  0  0  0  0  0  0  0
   36.5430   28.7750   41.1150 C   0  0  0  0  0  0  0  0  0  0  0  0
   35.9590   28.4120   39.9780 N   0  0  0  0  0  0  0  0  0  0  0  0
   35.8010   28.7630   37.9090 H   0  0  0  0  0  0  0  0  0  0  0  0
   38.7560   31.4690   40.1110 N   0  0  0  0  0  0  0  0  0  0  0  0
   40.1880   31.4900   39.8770 C   0  0  0  0  0  2  0  0  0  0  0  0
   40.7160   32.7760   39.3480 C   0  0  0  0  0  2  0  0  0  0  0  0
   39.9710   33.9970   39.7620 C   0  0  0  0  0  3  0  0  0  0  0  0
   40.6610   34.8150   40.0670 H   0  0  0  0  0  0  0  0  0  0  0  0
   39.0240   33.7670   40.8990 C   0  0  0  0  0  2  0  0  0  0  0  0
   38.0220   32.6680   40.5460 C   0  0  0  0  0  2  0  0  0  0  0  0
   37.4880   30.7590   37.5030 C   0  0  0  0  0  0  0  0  0  0  0  0
   36.6180   30.1530   36.6050 F   0  0  0  0  0  0  0  0  0  0  0  0
   38.7870   30.4070   37.1630 F   0  0  0  0  0  0  0  0  0  0  0  0
   37.2740   32.0840   37.6110 F   0  0  0  0  0  0  0  0  0  0  0  0
   36.1860   28.0850   42.2540 O   0  0  0  0  0  0  0  0  0  0  0  0
   37.1690   27.5890   43.1380 C   0  0  0  0  0  0  0  0  0  0  0  0
   37.9470   28.3310   43.4000 H   0  0  0  0  0  0  0  0  0  0  0  0
   36.6790   27.3250   44.1010 H   0  0  0  0  0  0  0  0  0  0  0  0
   37.7070   26.3470   42.5560 C   0  0  0  0  0  0  0  0  0  0  0  0
   37.0540   25.1900   42.1630 C   0  0  0  0  0  0  0  0  0  0  0  0
   37.8040   24.1790   41.6480 C   0  0  0  0  0  0  0  0  0  0  0  0
   39.1240   24.2670   41.5100 N   0  0  0  0  0  0  0  0  0  0  0  0
   39.7470   25.3920   41.8930 C   0  0  0  0  0  0  0  0  0  0  0  0
   39.0510   26.4440   42.4190 N   0  0  0  0  0  0  0  0  0  0  0  0
   35.9980   25.2470   42.3260 H   0  0  0  0  0  0  0  0  0  0  0  0
   37.2530   23.2930   41.3540 H   0  0  0  0  0  0  0  0  0  0  0  0
   41.2160   25.3980   41.7020 C   0  0  0  0  0  0  0  0  0  0  0  0
   41.5730   24.7780   40.5350 F   0  0  0  0  0  0  0  0  0  0  0  0
   41.8410   24.7370   42.7680 F   0  0  0  0  0  0  0  0  0  0  0  0
   41.7230   26.6810   41.6750 F   0  0  0  0  0  0  0  0  0  0  0  0
  1  6  1  0  0  0  0
  2  1  2  0  0  0  0
  2  3  1  0  0  0  0
  3  8  1  0  0  0  0
  3  4  2  0  0  0  0
  5  4  1  0  0  0  0
  5 19  1  0  0  0  0
  6  5  2  0  0  0  0
  7  1  1  0  0  0  0
  8 14  1  0  0  0  0
  9  8  1  0  0  0  0
 10 11  1  0  0  0  0
 10  9  1  0  0  0  0
 11 12  1  0  0  0  0
 11 13  1  0  0  0  0
 14 13  1  0  0  0  0
 15 18  1  0  0  0  0
 15  2  1  0  0  0  0
 16 15  1  0  0  0  0
 17 15  1  0  0  0  0
 19 20  1  0  0  0  0
 20 21  1  0  0  0  0
 20 22  1  0  0  0  0
 23 20  1  0  0  0  0
 24 29  1  0  0  0  0
 24 23  2  0  0  0  0
 25 24  1  0  0  0  0
 26 25  2  0  0  0  0
 26 27  1  0  0  0  0
 27 28  2  0  0  0  0
 28 23  1  0  0  0  0
 30 25  1  0  0  0  0
 31 27  1  0  0  0  0
 31 33  1  0  0  0  0
 32 31  1  0  0  0  0
 34 31  1  0  0  0  0
M  END
>  <minimizedAffinity>
-5.51848364

$$$$

 OpenBabel03252505593D

 34 36  0  0  0  0  0  0  0  0999 V2000
   37.2210   31.3560   38.0370 C   0  0  0  0  0  0  0  0  0  0  0  0
   37.3530   30.9000   39.3440 C   0  0  0  0  0  0  0  0  0  0  0  0
   37.5940   29.5330   39.5100 C   0  0  0  0  0  0  0  0  0  0  0  0
   37.6870   28.7310   38.4330 N   0  0  0  0  0  0  0  0  0  0  0  0
   37.5500   29.2360   37.1780 C   0  0  0  0  0  0  0  0  0  0  0  0
   37.3200   30.5300   36.9870 N   0  0  0  0  0  0  0  0  0  0  0  0
   37.0350   32.4040   37.9020 H   0  0  0  0  0  0  0  0  0  0  0  0
   37.7710   28.9340   40.7860 N   0  0  0  0  0  0  0  0  0  0  0  0
   38.9070   28.8590   41.6850 C   0  0  0  0  0  2  0  0  0  0  0  0
   38.5620   28.8620   43.1320 C   0  0  0  0  0  2  0  0  0  0  0  0
   37.2450   28.2600   43.4810 C   0  0  0  0  0  3  0  0  0  0  0  0
   37.3210   27.5930   44.3680 H   0  0  0  0  0  0  0  0  0  0  0  0
   36.6380   27.4580   42.3710 C   0  0  0  0  0  2  0  0  0  0  0  0
   36.4760   28.3170   41.1180 C   0  0  0  0  0  2  0  0  0  0  0  0
   37.2280   31.8540   40.4810 C   0  0  0  0  0  0  0  0  0  0  0  0
   36.9570   33.0680   39.8620 F   0  0  0  0  0  0  0  0  0  0  0  0
   38.4800   31.9340   41.0750 F   0  0  0  0  0  0  0  0  0  0  0  0
   36.2390   31.4670   41.3080 F   0  0  0  0  0  0  0  0  0  0  0  0
   37.6410   28.4410   36.0550 O   0  0  0  0  0  0  0  0  0  0  0  0
   36.7660   28.6280   34.9620 C   0  0  0  0  0  0  0  0  0  0  0  0
   36.7790   29.6560   34.5540 H   0  0  0  0  0  0  0  0  0  0  0  0
   37.1000   27.9760   34.1250 H   0  0  0  0  0  0  0  0  0  0  0  0
   35.4280   28.1730   35.3790 C   0  0  0  0  0  0  0  0  0  0  0  0
   35.0340   26.9820   35.9670 C   0  0  0  0  0  0  0  0  0  0  0  0
   33.7140   26.8190   36.2520 C   0  0  0  0  0  0  0  0  0  0  0  0
   32.8050   27.7530   35.9880 N   0  0  0  0  0  0  0  0  0  0  0  0
   33.1970   28.9030   35.4180 C   0  0  0  0  0  0  0  0  0  0  0  0
   34.5090   29.1290   35.1060 N   0  0  0  0  0  0  0  0  0  0  0  0
   35.8580   26.3180   36.1250 H   0  0  0  0  0  0  0  0  0  0  0  0
   33.4510   25.8730   36.7110 H   0  0  0  0  0  0  0  0  0  0  0  0
   32.1160   29.8830   35.1620 C   0  0  0  0  0  0  0  0  0  0  0  0
   31.7320   30.5180   36.3140 F   0  0  0  0  0  0  0  0  0  0  0  0
   31.0010   29.2340   34.6160 F   0  0  0  0  0  0  0  0  0  0  0  0
   32.5040   30.8460   34.2540 F   0  0  0  0  0  0  0  0  0  0  0  0
  1  2  1  0  0  0  0
  2  3  2  0  0  0  0
  2 15  1  0  0  0  0
  3  8  1  0  0  0  0
  4  3  1  0  0  0  0
  5  4  2  0  0  0  0
  6  5  1  0  0  0  0
  6  1  2  0  0  0  0
  7  1  1  0  0  0  0
  8 14  1  0  0  0  0
  8  9  1  0  0  0  0
  9 10  1  0  0  0  0
 10 11  1  0  0  0  0
 11 12  1  0  0  0  0
 13 11  1  0  0  0  0
 14 13  1  0  0  0  0
 15 17  1  0  0  0  0
 15 18  1  0  0  0  0
 16 15  1  0  0  0  0
 19  5  1  0  0  0  0
 20 23  1  0  0  0  0
 20 19  1  0  0  0  0
 21 20  1  0  0  0  0
 22 20  1  0  0  0  0
 23 24  1  0  0  0  0
 24 29  1  0  0  0  0
 24 25  2  0  0  0  0
 25 30  1  0  0  0  0
 26 25  1  0  0  0  0
 27 26  2  0  0  0  0
 28 23  2  0  0  0  0
 28 27  1  0  0  0  0
 31 27  1  0  0  0  0
 31 32  1  0  0  0  0
 33 31  1  0  0  0  0
 34 31  1  0  0  0  0
M  END
>  <minimizedAffinity>
-5.47519302

$$$$

 OpenBabel03252505593D

 34 36  0  0  0  0  0  0  0  0999 V2000
   36.9780   26.7070   42.6080 C   0  0  0  0  0  0  0  0  0  0  0  0
   37.0480   26.0590   41.3800 C   0  0  0  0  0  0  0  0  0  0  0  0
   37.0800   26.8720   40.2430 C   0  0  0  0  0  0  0  0  0  0  0  0
   37.0440   28.2110   40.3730 N   0  0  0  0  0  0  0  0  0  0  0  0
   36.9760   28.7870   41.6020 C   0  0  0  0  0  0  0  0  0  0  0  0
   36.9440   28.0420   42.7020 N   0  0  0  0  0  0  0  0  0  0  0  0
   36.9530   26.0890   43.4850 H   0  0  0  0  0  0  0  0  0  0  0  0
   37.1730   26.3470   38.9260 N   0  0  0  0  0  0  0  0  0  0  0  0
   38.2850   25.8280   38.1530 C   0  0  0  0  0  2  0  0  0  0  0  0
   37.9370   24.7310   37.2120 C   0  0  0  0  0  2  0  0  0  0  0  0
   36.5520   24.7680   36.6650 C   0  0  0  0  0  3  0  0  0  0  0  0
   36.5380   24.5680   35.5700 H   0  0  0  0  0  0  0  0  0  0  0  0
   35.8530   26.0740   36.8870 C   0  0  0  0  0  2  0  0  0  0  0  0
   35.8090   26.4090   38.3770 C   0  0  0  0  0  2  0  0  0  0  0  0
   37.0780   24.5710   41.3240 C   0  0  0  0  0  0  0  0  0  0  0  0
   36.9990   24.1910   42.6580 F   0  0  0  0  0  0  0  0  0  0  0  0
   38.3290   24.2140   40.8390 F   0  0  0  0  0  0  0  0  0  0  0  0
   36.0430   24.1120   40.5970 F   0  0  0  0  0  0  0  0  0  0  0  0
   36.9380   30.1560   41.7690 O   0  0  0  0  0  0  0  0  0  0  0  0
   36.5690   31.0050   40.7020 C   0  0  0  0  0  0  0  0  0  0  0  0
   36.3330   30.4660   39.7650 H   0  0  0  0  0  0  0  0  0  0  0  0
   35.6320   31.5360   40.9790 H   0  0  0  0  0  0  0  0  0  0  0  0
   37.6290   32.0180   40.5510 C   0  0  0  0  0  0  0  0  0  0  0  0
   37.5740   33.2920   40.0110 C   0  0  0  0  0  0  0  0  0  0  0  0
   38.7180   34.0270   39.9970 C   0  0  0  0  0  0  0  0  0  0  0  0
   39.8700   33.5680   40.4800 N   0  0  0  0  0  0  0  0  0  0  0  0
   39.9120   32.3310   41.0010 C   0  0  0  0  0  0  0  0  0  0  0  0
   38.7970   31.5420   41.0440 N   0  0  0  0  0  0  0  0  0  0  0  0
   36.5950   33.5400   39.6590 H   0  0  0  0  0  0  0  0  0  0  0  0
   38.6300   35.0180   39.5660 H   0  0  0  0  0  0  0  0  0  0  0  0
   41.2350   31.9060   41.5130 C   0  0  0  0  0  0  0  0  0  0  0  0
   41.8020   30.9530   40.7080 F   0  0  0  0  0  0  0  0  0  0  0  0
   41.1020   31.3780   42.8050 F   0  0  0  0  0  0  0  0  0  0  0  0
   42.1130   32.9660   41.6030 F   0  0  0  0  0  0  0  0  0  0  0  0
  1  6  1  0  0  0  0
  1  7  1  0  0  0  0
  2  1  2  0  0  0  0
  3  4  2  0  0  0  0
  3  2  1  0  0  0  0
  4  5  1  0  0  0  0
  5 19  1  0  0  0  0
  5  6  2  0  0  0  0
  8  3  1  0  0  0  0
  9  8  1  0  0  0  0
 10  9  1  0  0  0  0
 11 13  1  0  0  0  0
 11 10  1  0  0  0  0
 12 11  1  0  0  0  0
 13 14  1  0  0  0  0
 14  8  1  0  0  0  0
 15  2  1  0  0  0  0
 15 16  1  0  0  0  0
 17 15  1  0  0  0  0
 18 15  1  0  0  0  0
 20 22  1  0  0  0  0
 20 19  1  0  0  0  0
 21 20  1  0  0  0  0
 23 20  1  0  0  0  0
 23 28  1  0  0  0  0
 24 23  2  0  0  0  0
 25 24  1  0  0  0  0
 25 26  2  0  0  0  0
 26 27  1  0  0  0  0
 27 28  2  0  0  0  0
 27 31  1  0  0  0  0
 29 24  1  0  0  0  0
 30 25  1  0  0  0  0
 31 34  1  0  0  0  0
 31 33  1  0  0  0  0
 32 31  1  0  0  0  0
M  END
>  <minimizedAffinity>
-5.31119394

$$$$
